[H]c1nc2c([H])nc(N(c3c([H])c(OC([H])([H])[H])c([H])c(OC([H])([H])[H])c3F)C([H])([H])[C@@]3([H])N([H])C(=O)C([H])([H])C3([H])[H])nc2nc1-c1c([H])nn(C([H])([H])[H])c1[H]


 36 40  0  0  0  0  0  0  0  0999 V2000
   -2.2158   21.7184  -22.2278 N   0  0  0  0  0  0  0  0  0  0  0  0
   -1.9184   21.9872  -23.5889 C   0  0  0  0  0  0  0  0  0  0  0  0
   -0.6288   21.7731  -23.9832 N   0  0  0  0  0  0  0  0  0  0  0  0
   -0.2349   21.9943  -25.2368 C   0  0  0  0  0  0  0  0  0  0  0  0
   -1.1508   22.4510  -26.1610 C   0  0  0  0  0  0  0  0  0  0  0  0
   -0.8304   22.6954  -27.4308 N   0  0  0  0  0  0  0  0  0  0  0  0
   -1.7828   23.1462  -28.2921 C   0  0  0  0  0  0  0  0  0  0  0  0
   -3.0792   23.3597  -27.8879 C   0  0  0  0  0  0  0  0  0  0  0  0
   -3.4001   23.1127  -26.6076 N   0  0  0  0  0  0  0  0  0  0  0  0
   -2.4480   22.6608  -25.7422 C   0  0  0  0  0  0  0  0  0  0  0  0
   -2.8082   22.4270  -24.4721 N   0  0  0  0  0  0  0  0  0  0  0  0
   -4.1011   23.8497  -28.8302 C   0  0  0  0  0  0  0  0  0  0  0  0
   -5.3047   23.2507  -29.1188 C   0  0  0  0  0  0  0  0  0  0  0  0
   -5.9409   24.0070  -30.0199 N   0  0  0  0  0  0  0  0  0  0  0  0
   -5.1748   25.0591  -30.3044 N   0  0  0  0  0  0  0  0  0  0  0  0
   -5.4807   26.1403  -31.2380 C   0  0  0  0  0  0  0  0  0  0  0  0
   -4.0419   24.9921  -29.5926 C   0  0  0  0  0  0  0  0  0  0  0  0
    0.4832   19.9172  -20.5100 C   0  0  0  0  0  0  0  0  0  0  0  0
    0.9295   20.9129  -19.6550 C   0  0  0  0  0  0  0  0  0  0  0  0
    0.3749   22.1615  -19.6290 C   0  0  0  0  0  0  0  0  0  0  0  0
   -0.6793   22.4350  -20.4988 C   0  0  0  0  0  0  0  0  0  0  0  0
   -1.1891   23.7103  -20.4482 F   0  0  0  0  0  0  0  0  0  0  0  0
   -1.1418   21.4837  -21.3483 C   0  0  0  0  0  0  0  0  0  0  0  0
   -0.5446   20.2234  -21.3400 C   0  0  0  0  0  0  0  0  0  0  0  0
    0.3641   17.4922  -20.6827 C   0  0  0  0  0  0  0  0  0  0  0  0
    1.1043   18.6747  -20.4714 O   0  0  0  0  0  0  0  0  0  0  0  0
    0.8290   23.1652  -18.7631 O   0  0  0  0  0  0  0  0  0  0  0  0
    2.2044   23.1782  -18.4532 C   0  0  0  0  0  0  0  0  0  0  0  0
   -3.5530   21.6827  -21.7833 C   0  0  0  0  0  0  0  0  0  0  0  0
   -4.2264   22.9167  -21.3458 C   0  0  0  0  0  0  0  0  0  0  0  0
   -5.3279   22.7967  -20.3608 C   0  0  0  0  0  0  0  0  0  0  0  0
   -5.9490   24.2011  -20.4011 C   0  0  0  0  0  0  0  0  0  0  0  0
   -5.8144   24.4991  -21.8493 C   0  0  0  0  0  0  0  0  0  0  0  0
   -6.5448   25.3726  -22.4295 O   0  0  0  0  0  0  0  0  0  0  0  0
   -4.7982   23.6917  -22.4235 N   0  0  0  0  0  0  0  0  0  0  0  0
   -4.5771   23.7211  -23.4388 H   0  0  0  0  0  0  0  0  0  0  0  0
 25 26  1  0  0  0
 26 18  1  0  0  0
 18 19  2  0  0  0
 19 20  1  0  0  0
 20 27  1  0  0  0
 27 28  1  0  0  0
 20 21  2  0  0  0
 21 22  1  0  0  0
 21 23  1  0  0  0
 23 24  2  0  0  0
 23  1  1  0  0  0
  1 29  1  0  0  0
 29 30  1  0  0  0
 30 31  1  0  0  0
 31 32  1  0  0  0
 32 33  1  0  0  0
 33 34  2  0  0  0
 33 35  1  0  0  0
  1  2  1  0  0  0
  2  3  2  0  0  0
  3  4  1  0  0  0
  4  5  2  0  0  0
  5  6  1  0  0  0
  6  7  2  0  0  0
  7  8  1  0  0  0
  8  9  2  0  0  0
  9 10  1  0  0  0
 10 11  2  0  0  0
  8 12  1  0  0  0
 12 13  1  0  0  0
 13 14  2  0  0  0
 14 15  1  0  0  0
 15 16  1  0  0  0
 15 17  1  0  0  0
 24 18  1  0  0  0
 35 30  1  0  0  0
 11  2  1  0  0  0
 17 12  2  0  0  0
 10  5  1  0  0  0
 35 36  1  0  0  0
M  END
> <minimizedAffinity>
-8.12990

> <CNNscore>
0.5196694136

> <CNNaffinity>
7.5753173828

> <CNN_VS>
3.9366607666

> <CNNaffinity_variance>
0.3346808553

$$$$
[H]c1nc2c([H])nc(N(c3c([H])c(OC([H])([H])[H])c([H])c(OC([H])([H])[H])c3F)C([H])([H])[C@@]3([H])N([H])C(=O)C([H])([H])C3([H])[H])nc2nc1-c1c([H])nn(C([H])([H])[H])c1[H]


 36 40  0  0  0  0  0  0  0  0999 V2000
   -0.0018   21.2275  -20.6444 N   0  0  0  0  0  0  0  0  0  0  0  0
   -0.0002   21.4609  -22.0440 C   0  0  0  0  0  0  0  0  0  0  0  0
    1.2033   21.3450  -22.6784 N   0  0  0  0  0  0  0  0  0  0  0  0
    1.3244   21.5444  -23.9903 C   0  0  0  0  0  0  0  0  0  0  0  0
    0.2076   21.8765  -24.7280 C   0  0  0  0  0  0  0  0  0  0  0  0
    0.2516   22.0918  -26.0420 N   0  0  0  0  0  0  0  0  0  0  0  0
   -0.8881   22.4176  -26.7106 C   0  0  0  0  0  0  0  0  0  0  0  0
   -2.0963   22.5328  -26.0652 C   0  0  0  0  0  0  0  0  0  0  0  0
   -2.1384   22.3154  -24.7408 N   0  0  0  0  0  0  0  0  0  0  0  0
   -0.9982   21.9887  -24.0680 C   0  0  0  0  0  0  0  0  0  0  0  0
   -1.0819   21.7804  -22.7461 N   0  0  0  0  0  0  0  0  0  0  0  0
   -3.3232   22.8878  -26.8006 C   0  0  0  0  0  0  0  0  0  0  0  0
   -4.5249   23.2720  -26.2535 C   0  0  0  0  0  0  0  0  0  0  0  0
   -5.3817   23.5063  -27.2532 N   0  0  0  0  0  0  0  0  0  0  0  0
   -4.7556   23.2814  -28.4075 N   0  0  0  0  0  0  0  0  0  0  0  0
   -5.3159   23.4152  -29.7500 C   0  0  0  0  0  0  0  0  0  0  0  0
   -3.4942   22.9014  -28.1646 C   0  0  0  0  0  0  0  0  0  0  0  0
    3.3465   20.5708  -19.2889 C   0  0  0  0  0  0  0  0  0  0  0  0
    3.5451   21.7365  -18.5656 C   0  0  0  0  0  0  0  0  0  0  0  0
    2.6148   22.7360  -18.5136 C   0  0  0  0  0  0  0  0  0  0  0  0
    1.4238   22.5679  -19.2179 C   0  0  0  0  0  0  0  0  0  0  0  0
    0.5297   23.6095  -19.1503 F   0  0  0  0  0  0  0  0  0  0  0  0
    1.1960   21.4394  -19.9355 C   0  0  0  0  0  0  0  0  0  0  0  0
    2.1746   20.4460  -19.9597 C   0  0  0  0  0  0  0  0  0  0  0  0
    5.1836   19.4338  -20.4102 C   0  0  0  0  0  0  0  0  0  0  0  0
    4.3456   19.6048  -19.2880 O   0  0  0  0  0  0  0  0  0  0  0  0
    2.8195   23.9129  -17.7811 O   0  0  0  0  0  0  0  0  0  0  0  0
    3.3360   23.7805  -16.4759 C   0  0  0  0  0  0  0  0  0  0  0  0
   -1.1737   20.7888  -19.9955 C   0  0  0  0  0  0  0  0  0  0  0  0
   -2.1504   21.7630  -19.4813 C   0  0  0  0  0  0  0  0  0  0  0  0
   -2.8181   21.4647  -18.1917 C   0  0  0  0  0  0  0  0  0  0  0  0
   -3.9397   22.5138  -18.1605 C   0  0  0  0  0  0  0  0  0  0  0  0
   -4.3120   22.5332  -19.5976 C   0  0  0  0  0  0  0  0  0  0  0  0
   -5.4541   22.9480  -19.9936 O   0  0  0  0  0  0  0  0  0  0  0  0
   -3.2408   22.0415  -20.3882 N   0  0  0  0  0  0  0  0  0  0  0  0
   -3.3181   21.9369  -21.4196 H   0  0  0  0  0  0  0  0  0  0  0  0
 25 26  1  0  0  0
 26 18  1  0  0  0
 18 19  2  0  0  0
 19 20  1  0  0  0
 20 27  1  0  0  0
 27 28  1  0  0  0
 20 21  2  0  0  0
 21 22  1  0  0  0
 21 23  1  0  0  0
 23 24  2  0  0  0
 23  1  1  0  0  0
  1 29  1  0  0  0
 29 30  1  0  0  0
 30 31  1  0  0  0
 31 32  1  0  0  0
 32 33  1  0  0  0
 33 34  2  0  0  0
 33 35  1  0  0  0
  1  2  1  0  0  0
  2  3  2  0  0  0
  3  4  1  0  0  0
  4  5  2  0  0  0
  5  6  1  0  0  0
  6  7  2  0  0  0
  7  8  1  0  0  0
  8  9  2  0  0  0
  9 10  1  0  0  0
 10 11  2  0  0  0
  8 12  1  0  0  0
 12 13  1  0  0  0
 13 14  2  0  0  0
 14 15  1  0  0  0
 15 16  1  0  0  0
 15 17  1  0  0  0
 24 18  1  0  0  0
 35 30  1  0  0  0
 11  2  1  0  0  0
 17 12  2  0  0  0
 10  5  1  0  0  0
 35 36  1  0  0  0
M  END
> <minimizedAffinity>
-7.04908

> <CNNscore>
0.4448655248

> <CNNaffinity>
7.2105150223

> <CNN_VS>
3.2077095509

> <CNNaffinity_variance>
0.2077254951

$$$$
[H]c1nc2c([H])nc(N(c3c([H])c(OC([H])([H])[H])c([H])c(OC([H])([H])[H])c3F)C([H])([H])[C@@]3([H])N([H])C(=O)C([H])([H])C3([H])[H])nc2nc1-c1c([H])nn(C([H])([H])[H])c1[H]


 36 40  0  0  0  0  0  0  0  0999 V2000
   -3.0507   22.8723  -26.4473 N   0  0  0  0  0  0  0  0  0  0  0  0
   -1.8514   22.4972  -25.7883 C   0  0  0  0  0  0  0  0  0  0  0  0
   -0.7124   22.5163  -26.5411 N   0  0  0  0  0  0  0  0  0  0  0  0
    0.4707   22.1808  -26.0281 C   0  0  0  0  0  0  0  0  0  0  0  0
    0.5493   21.8044  -24.7037 C   0  0  0  0  0  0  0  0  0  0  0  0
    1.6960   21.4549  -24.1223 N   0  0  0  0  0  0  0  0  0  0  0  0
    1.7040   21.0924  -22.8106 C   0  0  0  0  0  0  0  0  0  0  0  0
    0.5533   21.0752  -22.0590 C   0  0  0  0  0  0  0  0  0  0  0  0
   -0.6014   21.4278  -22.6469 N   0  0  0  0  0  0  0  0  0  0  0  0
   -0.6127   21.7917  -23.9611 C   0  0  0  0  0  0  0  0  0  0  0  0
   -1.7858   22.1360  -24.5114 N   0  0  0  0  0  0  0  0  0  0  0  0
    0.5751   20.6790  -20.6395 C   0  0  0  0  0  0  0  0  0  0  0  0
    0.2149   19.4562  -20.1240 C   0  0  0  0  0  0  0  0  0  0  0  0
    0.3768   19.4995  -18.7971 N   0  0  0  0  0  0  0  0  0  0  0  0
    0.8264   20.7091  -18.4659 N   0  0  0  0  0  0  0  0  0  0  0  0
    1.1401   21.1910  -17.1229 C   0  0  0  0  0  0  0  0  0  0  0  0
    0.9583   21.4546  -19.5710 C   0  0  0  0  0  0  0  0  0  0  0  0
   -5.4502   25.1234  -24.8179 C   0  0  0  0  0  0  0  0  0  0  0  0
   -6.2132   24.1980  -24.1231 C   0  0  0  0  0  0  0  0  0  0  0  0
   -5.9679   22.8548  -24.1775 C   0  0  0  0  0  0  0  0  0  0  0  0
   -4.9078   22.4077  -24.9643 C   0  0  0  0  0  0  0  0  0  0  0  0
   -4.7149   21.0475  -25.0019 F   0  0  0  0  0  0  0  0  0  0  0  0
   -4.1400   23.2858  -25.6570 C   0  0  0  0  0  0  0  0  0  0  0  0
   -4.4280   24.6478  -25.5714 C   0  0  0  0  0  0  0  0  0  0  0  0
   -5.1123   27.4351  -25.5011 C   0  0  0  0  0  0  0  0  0  0  0  0
   -5.7690   26.4715  -24.7067 O   0  0  0  0  0  0  0  0  0  0  0  0
   -6.7417   21.9226  -23.4734 O   0  0  0  0  0  0  0  0  0  0  0  0
   -7.0678   22.2309  -22.1369 C   0  0  0  0  0  0  0  0  0  0  0  0
   -3.1385   22.8207  -27.8532 C   0  0  0  0  0  0  0  0  0  0  0  0
   -4.2186   23.5295  -28.5593 C   0  0  0  0  0  0  0  0  0  0  0  0
   -4.9985   22.7780  -29.5717 C   0  0  0  0  0  0  0  0  0  0  0  0
   -5.7795   23.8996  -30.2727 C   0  0  0  0  0  0  0  0  0  0  0  0
   -4.7500   24.9694  -30.2691 C   0  0  0  0  0  0  0  0  0  0  0  0
   -4.7895   25.9471  -31.0910 O   0  0  0  0  0  0  0  0  0  0  0  0
   -3.7872   24.7196  -29.2567 N   0  0  0  0  0  0  0  0  0  0  0  0
   -2.9598   25.3333  -29.1178 H   0  0  0  0  0  0  0  0  0  0  0  0
 25 26  1  0  0  0
 26 18  1  0  0  0
 18 19  2  0  0  0
 19 20  1  0  0  0
 20 27  1  0  0  0
 27 28  1  0  0  0
 20 21  2  0  0  0
 21 22  1  0  0  0
 21 23  1  0  0  0
 23 24  2  0  0  0
 23  1  1  0  0  0
  1 29  1  0  0  0
 29 30  1  0  0  0
 30 31  1  0  0  0
 31 32  1  0  0  0
 32 33  1  0  0  0
 33 34  2  0  0  0
 33 35  1  0  0  0
  1  2  1  0  0  0
  2  3  2  0  0  0
  3  4  1  0  0  0
  4  5  2  0  0  0
  5  6  1  0  0  0
  6  7  2  0  0  0
  7  8  1  0  0  0
  8  9  2  0  0  0
  9 10  1  0  0  0
 10 11  2  0  0  0
  8 12  1  0  0  0
 12 13  1  0  0  0
 13 14  2  0  0  0
 14 15  1  0  0  0
 15 16  1  0  0  0
 15 17  1  0  0  0
 24 18  1  0  0  0
 35 30  1  0  0  0
 11  2  1  0  0  0
 17 12  2  0  0  0
 10  5  1  0  0  0
 35 36  1  0  0  0
M  END
> <minimizedAffinity>
-8.65279

> <CNNscore>
0.4164984524

> <CNNaffinity>
7.4626197815

> <CNN_VS>
3.1081695557

> <CNNaffinity_variance>
0.0754902214

$$$$
[H]c1nc2c([H])nc(N(c3c([H])c(OC([H])([H])[H])c([H])c(OC([H])([H])[H])c3F)C([H])([H])[C@@]3([H])N([H])C(=O)C([H])([H])C3([H])[H])nc2nc1-c1c([H])nn(C([H])([H])[H])c1[H]


 36 40  0  0  0  0  0  0  0  0999 V2000
   -5.2000   23.3461  -25.3379 N   0  0  0  0  0  0  0  0  0  0  0  0
   -3.8410   23.0100  -25.5692 C   0  0  0  0  0  0  0  0  0  0  0  0
   -3.4118   23.0700  -26.8640 N   0  0  0  0  0  0  0  0  0  0  0  0
   -2.1567   22.7735  -27.1992 C   0  0  0  0  0  0  0  0  0  0  0  0
   -1.2670   22.3962  -26.2154 C   0  0  0  0  0  0  0  0  0  0  0  0
    0.0020   22.0843  -26.4746 N   0  0  0  0  0  0  0  0  0  0  0  0
    0.8281   21.7186  -25.4568 C   0  0  0  0  0  0  0  0  0  0  0  0
    0.3889   21.6602  -24.1556 C   0  0  0  0  0  0  0  0  0  0  0  0
   -0.8906   21.9750  -23.8965 N   0  0  0  0  0  0  0  0  0  0  0  0
   -1.7207   22.3420  -24.9142 C   0  0  0  0  0  0  0  0  0  0  0  0
   -2.9913   22.6478  -24.6143 N   0  0  0  0  0  0  0  0  0  0  0  0
    1.2933   21.2610  -23.0624 C   0  0  0  0  0  0  0  0  0  0  0  0
    2.6465   21.0367  -23.1584 C   0  0  0  0  0  0  0  0  0  0  0  0
    3.0989   20.6943  -21.9473 N   0  0  0  0  0  0  0  0  0  0  0  0
    2.0732   20.6969  -21.0971 N   0  0  0  0  0  0  0  0  0  0  0  0
    2.1150   20.3828  -19.6710 C   0  0  0  0  0  0  0  0  0  0  0  0
    0.9540   21.0397  -21.7487 C   0  0  0  0  0  0  0  0  0  0  0  0
   -6.9453   22.2785  -22.2892 C   0  0  0  0  0  0  0  0  0  0  0  0
   -6.6319   23.3369  -21.4506 C   0  0  0  0  0  0  0  0  0  0  0  0
   -5.8590   24.3892  -21.8536 C   0  0  0  0  0  0  0  0  0  0  0  0
   -5.3718   24.3897  -23.1595 C   0  0  0  0  0  0  0  0  0  0  0  0
   -4.5834   25.4595  -23.5099 F   0  0  0  0  0  0  0  0  0  0  0  0
   -5.6597   23.3705  -24.0074 C   0  0  0  0  0  0  0  0  0  0  0  0
   -6.4523   22.3172  -23.5519 C   0  0  0  0  0  0  0  0  0  0  0  0
   -8.5277   21.4340  -20.6437 C   0  0  0  0  0  0  0  0  0  0  0  0
   -7.7378   21.2480  -21.7980 O   0  0  0  0  0  0  0  0  0  0  0  0
   -5.5446   25.4571  -21.0027 O   0  0  0  0  0  0  0  0  0  0  0  0
   -6.3723   25.6533  -19.8783 C   0  0  0  0  0  0  0  0  0  0  0  0
   -6.0569   23.6375  -26.4185 C   0  0  0  0  0  0  0  0  0  0  0  0
   -5.5253   24.2496  -27.6474 C   0  0  0  0  0  0  0  0  0  0  0  0
   -5.9654   25.6240  -27.9869 C   0  0  0  0  0  0  0  0  0  0  0  0
   -5.4628   25.7747  -29.4306 C   0  0  0  0  0  0  0  0  0  0  0  0
   -5.7104   24.3996  -29.9326 C   0  0  0  0  0  0  0  0  0  0  0  0
   -5.8277   24.1473  -31.1799 O   0  0  0  0  0  0  0  0  0  0  0  0
   -5.7863   23.4879  -28.8476 N   0  0  0  0  0  0  0  0  0  0  0  0
   -5.9949   22.4791  -28.9873 H   0  0  0  0  0  0  0  0  0  0  0  0
 25 26  1  0  0  0
 26 18  1  0  0  0
 18 19  2  0  0  0
 19 20  1  0  0  0
 20 27  1  0  0  0
 27 28  1  0  0  0
 20 21  2  0  0  0
 21 22  1  0  0  0
 21 23  1  0  0  0
 23 24  2  0  0  0
 23  1  1  0  0  0
  1 29  1  0  0  0
 29 30  1  0  0  0
 30 31  1  0  0  0
 31 32  1  0  0  0
 32 33  1  0  0  0
 33 34  2  0  0  0
 33 35  1  0  0  0
  1  2  1  0  0  0
  2  3  2  0  0  0
  3  4  1  0  0  0
  4  5  2  0  0  0
  5  6  1  0  0  0
  6  7  2  0  0  0
  7  8  1  0  0  0
  8  9  2  0  0  0
  9 10  1  0  0  0
 10 11  2  0  0  0
  8 12  1  0  0  0
 12 13  1  0  0  0
 13 14  2  0  0  0
 14 15  1  0  0  0
 15 16  1  0  0  0
 15 17  1  0  0  0
 24 18  1  0  0  0
 35 30  1  0  0  0
 11  2  1  0  0  0
 17 12  2  0  0  0
 10  5  1  0  0  0
 35 36  1  0  0  0
M  END
> <minimizedAffinity>
-8.92933

> <CNNscore>
0.3223337829

> <CNNaffinity>
7.4326338768

> <CNN_VS>
2.3957889080

> <CNNaffinity_variance>
0.5533209443

$$$$
[H]c1nc2c([H])nc(N(c3c([H])c(OC([H])([H])[H])c([H])c(OC([H])([H])[H])c3F)C([H])([H])[C@@]3([H])N([H])C(=O)C([H])([H])C3([H])[H])nc2nc1-c1c([H])nn(C([H])([H])[H])c1[H]


 36 40  0  0  0  0  0  0  0  0999 V2000
   -2.9510   22.7997  -26.4232 N   0  0  0  0  0  0  0  0  0  0  0  0
   -1.7457   22.4298  -25.7722 C   0  0  0  0  0  0  0  0  0  0  0  0
   -0.6154   22.4319  -26.5382 N   0  0  0  0  0  0  0  0  0  0  0  0
    0.5721   22.0994  -26.0335 C   0  0  0  0  0  0  0  0  0  0  0  0
    0.6645   21.7437  -24.7043 C   0  0  0  0  0  0  0  0  0  0  0  0
    1.8163   21.3985  -24.1306 N   0  0  0  0  0  0  0  0  0  0  0  0
    1.8380   21.0569  -22.8135 C   0  0  0  0  0  0  0  0  0  0  0  0
    0.6960   21.0568  -22.0485 C   0  0  0  0  0  0  0  0  0  0  0  0
   -0.4639   21.4050  -22.6287 N   0  0  0  0  0  0  0  0  0  0  0  0
   -0.4889   21.7480  -23.9482 C   0  0  0  0  0  0  0  0  0  0  0  0
   -1.6669   22.0887  -24.4905 N   0  0  0  0  0  0  0  0  0  0  0  0
    0.7325   20.6832  -20.6232 C   0  0  0  0  0  0  0  0  0  0  0  0
    1.8546   20.5438  -19.8407 C   0  0  0  0  0  0  0  0  0  0  0  0
    1.4636   20.1963  -18.6099 N   0  0  0  0  0  0  0  0  0  0  0  0
    0.1339   20.1135  -18.5969 N   0  0  0  0  0  0  0  0  0  0  0  0
   -0.7122   19.7635  -17.4586 C   0  0  0  0  0  0  0  0  0  0  0  0
   -0.3436   20.4057  -19.8139 C   0  0  0  0  0  0  0  0  0  0  0  0
   -5.8741   22.3747  -24.2427 C   0  0  0  0  0  0  0  0  0  0  0  0
   -6.2448   23.7002  -24.0778 C   0  0  0  0  0  0  0  0  0  0  0  0
   -5.5602   24.7316  -24.6564 C   0  0  0  0  0  0  0  0  0  0  0  0
   -4.4482   24.4295  -25.4405 C   0  0  0  0  0  0  0  0  0  0  0  0
   -3.7824   25.5022  -25.9835 F   0  0  0  0  0  0  0  0  0  0  0  0
   -4.0578   23.1433  -25.6239 C   0  0  0  0  0  0  0  0  0  0  0  0
   -4.7870   22.1232  -25.0133 C   0  0  0  0  0  0  0  0  0  0  0  0
   -7.1797   21.6043  -22.3383 C   0  0  0  0  0  0  0  0  0  0  0  0
   -6.6263   21.3872  -23.6180 O   0  0  0  0  0  0  0  0  0  0  0  0
   -5.9384   26.0702  -24.4872 O   0  0  0  0  0  0  0  0  0  0  0  0
   -7.1174   26.3215  -23.7560 C   0  0  0  0  0  0  0  0  0  0  0  0
   -3.0271   22.8113  -27.8307 C   0  0  0  0  0  0  0  0  0  0  0  0
   -4.1065   23.5441  -28.5129 C   0  0  0  0  0  0  0  0  0  0  0  0
   -4.9581   22.7973  -29.4695 C   0  0  0  0  0  0  0  0  0  0  0  0
   -5.7221   23.9301  -30.1713 C   0  0  0  0  0  0  0  0  0  0  0  0
   -4.6510   24.9558  -30.2420 C   0  0  0  0  0  0  0  0  0  0  0  0
   -4.6856   25.9106  -31.0906 O   0  0  0  0  0  0  0  0  0  0  0  0
   -3.6572   24.6950  -29.2629 N   0  0  0  0  0  0  0  0  0  0  0  0
   -2.8006   25.2775  -29.1765 H   0  0  0  0  0  0  0  0  0  0  0  0
 25 26  1  0  0  0
 26 18  1  0  0  0
 18 19  2  0  0  0
 19 20  1  0  0  0
 20 27  1  0  0  0
 27 28  1  0  0  0
 20 21  2  0  0  0
 21 22  1  0  0  0
 21 23  1  0  0  0
 23 24  2  0  0  0
 23  1  1  0  0  0
  1 29  1  0  0  0
 29 30  1  0  0  0
 30 31  1  0  0  0
 31 32  1  0  0  0
 32 33  1  0  0  0
 33 34  2  0  0  0
 33 35  1  0  0  0
  1  2  1  0  0  0
  2  3  2  0  0  0
  3  4  1  0  0  0
  4  5  2  0  0  0
  5  6  1  0  0  0
  6  7  2  0  0  0
  7  8  1  0  0  0
  8  9  2  0  0  0
  9 10  1  0  0  0
 10 11  2  0  0  0
  8 12  1  0  0  0
 12 13  1  0  0  0
 13 14  2  0  0  0
 14 15  1  0  0  0
 15 16  1  0  0  0
 15 17  1  0  0  0
 24 18  1  0  0  0
 35 30  1  0  0  0
 11  2  1  0  0  0
 17 12  2  0  0  0
 10  5  1  0  0  0
 35 36  1  0  0  0
M  END
> <minimizedAffinity>
-8.38121

> <CNNscore>
0.3191173673

> <CNNaffinity>
7.3660230637

> <CNN_VS>
2.3506259918

> <CNNaffinity_variance>
0.1754075587

$$$$
[H]c1nc2c([H])nc(N(c3c([H])c(OC([H])([H])[H])c([H])c(OC([H])([H])[H])c3F)C([H])([H])[C@@]3([H])N([H])C(=O)C([H])([H])C3([H])[H])nc2nc1-c1c([H])nn(C([H])([H])[H])c1[H]


 36 40  0  0  0  0  0  0  0  0999 V2000
   -5.4529   23.2282  -25.6908 N   0  0  0  0  0  0  0  0  0  0  0  0
   -4.0653   22.9329  -25.6655 C   0  0  0  0  0  0  0  0  0  0  0  0
   -3.4037   23.0176  -26.8570 N   0  0  0  0  0  0  0  0  0  0  0  0
   -2.1000   22.7598  -26.9529 C   0  0  0  0  0  0  0  0  0  0  0  0
   -1.3989   22.3981  -25.8218 C   0  0  0  0  0  0  0  0  0  0  0  0
   -0.0952   22.1245  -25.8406 N   0  0  0  0  0  0  0  0  0  0  0  0
    0.5368   21.7722  -24.6880 C   0  0  0  0  0  0  0  0  0  0  0  0
   -0.1358   21.6888  -23.4920 C   0  0  0  0  0  0  0  0  0  0  0  0
   -1.4498   21.9648  -23.4753 N   0  0  0  0  0  0  0  0  0  0  0  0
   -2.0858   22.3183  -24.6286 C   0  0  0  0  0  0  0  0  0  0  0  0
   -3.3985   22.5853  -24.5702 N   0  0  0  0  0  0  0  0  0  0  0  0
    0.5599   21.3045  -22.2508 C   0  0  0  0  0  0  0  0  0  0  0  0
    1.8274   20.7810  -22.1497 C   0  0  0  0  0  0  0  0  0  0  0  0
    2.0886   20.5693  -20.8553 N   0  0  0  0  0  0  0  0  0  0  0  0
    1.0263   20.9430  -20.1435 N   0  0  0  0  0  0  0  0  0  0  0  0
    0.8787   20.8848  -18.6913 C   0  0  0  0  0  0  0  0  0  0  0  0
    0.0735   21.3975  -20.9683 C   0  0  0  0  0  0  0  0  0  0  0  0
   -7.0247   24.8810  -22.8138 C   0  0  0  0  0  0  0  0  0  0  0  0
   -7.3881   23.7703  -22.0684 C   0  0  0  0  0  0  0  0  0  0  0  0
   -7.1380   22.4929  -22.4843 C   0  0  0  0  0  0  0  0  0  0  0  0
   -6.4925   22.3098  -23.7060 C   0  0  0  0  0  0  0  0  0  0  0  0
   -6.2821   21.0068  -24.0889 F   0  0  0  0  0  0  0  0  0  0  0  0
   -6.1221   23.3744  -24.4608 C   0  0  0  0  0  0  0  0  0  0  0  0
   -6.3984   24.6601  -23.9961 C   0  0  0  0  0  0  0  0  0  0  0  0
   -7.9187   26.2995  -21.0492 C   0  0  0  0  0  0  0  0  0  0  0  0
   -7.3176   26.1452  -22.3164 O   0  0  0  0  0  0  0  0  0  0  0  0
   -7.5069   21.3727  -21.7276 O   0  0  0  0  0  0  0  0  0  0  0  0
   -8.4440   21.5714  -20.6931 C   0  0  0  0  0  0  0  0  0  0  0  0
   -6.1317   23.3614  -26.9190 C   0  0  0  0  0  0  0  0  0  0  0  0
   -5.5419   24.1470  -28.0155 C   0  0  0  0  0  0  0  0  0  0  0  0
   -5.9390   25.5696  -28.1442 C   0  0  0  0  0  0  0  0  0  0  0  0
   -5.3803   25.9350  -29.5277 C   0  0  0  0  0  0  0  0  0  0  0  0
   -5.6393   24.6650  -30.2519 C   0  0  0  0  0  0  0  0  0  0  0  0
   -5.7159   24.6184  -31.5267 O   0  0  0  0  0  0  0  0  0  0  0  0
   -5.7750   23.5942  -29.3304 N   0  0  0  0  0  0  0  0  0  0  0  0
   -6.0004   22.6268  -29.6370 H   0  0  0  0  0  0  0  0  0  0  0  0
 25 26  1  0  0  0
 26 18  1  0  0  0
 18 19  2  0  0  0
 19 20  1  0  0  0
 20 27  1  0  0  0
 27 28  1  0  0  0
 20 21  2  0  0  0
 21 22  1  0  0  0
 21 23  1  0  0  0
 23 24  2  0  0  0
 23  1  1  0  0  0
  1 29  1  0  0  0
 29 30  1  0  0  0
 30 31  1  0  0  0
 31 32  1  0  0  0
 32 33  1  0  0  0
 33 34  2  0  0  0
 33 35  1  0  0  0
  1  2  1  0  0  0
  2  3  2  0  0  0
  3  4  1  0  0  0
  4  5  2  0  0  0
  5  6  1  0  0  0
  6  7  2  0  0  0
  7  8  1  0  0  0
  8  9  2  0  0  0
  9 10  1  0  0  0
 10 11  2  0  0  0
  8 12  1  0  0  0
 12 13  1  0  0  0
 13 14  2  0  0  0
 14 15  1  0  0  0
 15 16  1  0  0  0
 15 17  1  0  0  0
 24 18  1  0  0  0
 35 30  1  0  0  0
 11  2  1  0  0  0
 17 12  2  0  0  0
 10  5  1  0  0  0
 35 36  1  0  0  0
M  END
> <minimizedAffinity>
-8.70021

> <CNNscore>
0.2110395283

> <CNNaffinity>
7.2243852615

> <CNN_VS>
1.5246309042

> <CNNaffinity_variance>
0.4762289524

$$$$
[H]c1nc2c([H])nc(N(c3c([H])c(OC([H])([H])[H])c([H])c(OC([H])([H])[H])c3F)C([H])([H])[C@@]3([H])N([H])C(=O)C([H])([H])C3([H])[H])nc2nc1-c1c([H])nn(C([H])([H])[H])c1[H]


 36 40  0  0  0  0  0  0  0  0999 V2000
   -3.6478   22.2032  -24.9160 N   0  0  0  0  0  0  0  0  0  0  0  0
   -2.2742   22.0138  -24.6146 C   0  0  0  0  0  0  0  0  0  0  0  0
   -1.3897   22.2669  -25.6236 N   0  0  0  0  0  0  0  0  0  0  0  0
   -0.0761   22.1205  -25.4553 C   0  0  0  0  0  0  0  0  0  0  0  0
    0.4048   21.7028  -24.2321 C   0  0  0  0  0  0  0  0  0  0  0  0
    1.7038   21.5331  -23.9900 N   0  0  0  0  0  0  0  0  0  0  0  0
    2.1120   21.1174  -22.7601 C   0  0  0  0  0  0  0  0  0  0  0  0
    1.2158   20.8643  -21.7490 C   0  0  0  0  0  0  0  0  0  0  0  0
   -0.0931   21.0359  -21.9952 N   0  0  0  0  0  0  0  0  0  0  0  0
   -0.5052   21.4525  -23.2265 C   0  0  0  0  0  0  0  0  0  0  0  0
   -1.8206   21.6111  -23.4325 N   0  0  0  0  0  0  0  0  0  0  0  0
    1.6706   20.4129  -20.4218 C   0  0  0  0  0  0  0  0  0  0  0  0
    1.5877   19.1365  -19.9170 C   0  0  0  0  0  0  0  0  0  0  0  0
    2.1083   19.1411  -18.6851 N   0  0  0  0  0  0  0  0  0  0  0  0
    2.5140   20.3783  -18.4028 N   0  0  0  0  0  0  0  0  0  0  0  0
    3.1419   20.8347  -17.1652 C   0  0  0  0  0  0  0  0  0  0  0  0
    2.2601   21.1804  -19.4453 C   0  0  0  0  0  0  0  0  0  0  0  0
   -4.7043   23.8781  -28.0076 C   0  0  0  0  0  0  0  0  0  0  0  0
   -4.6594   25.1996  -27.5916 C   0  0  0  0  0  0  0  0  0  0  0  0
   -4.2981   25.5584  -26.3236 C   0  0  0  0  0  0  0  0  0  0  0  0
   -3.9637   24.5503  -25.4211 C   0  0  0  0  0  0  0  0  0  0  0  0
   -3.6271   24.9612  -24.1536 F   0  0  0  0  0  0  0  0  0  0  0  0
   -3.9960   23.2465  -25.7948 C   0  0  0  0  0  0  0  0  0  0  0  0
   -4.3712   22.9275  -27.0996 C   0  0  0  0  0  0  0  0  0  0  0  0
   -5.3938   24.6456  -30.2123 C   0  0  0  0  0  0  0  0  0  0  0  0
   -5.0830   23.6013  -29.3157 O   0  0  0  0  0  0  0  0  0  0  0  0
   -4.2540   26.8956  -25.9070 O   0  0  0  0  0  0  0  0  0  0  0  0
   -5.4326   27.4411  -25.3582 C   0  0  0  0  0  0  0  0  0  0  0  0
   -4.6264   21.3684  -24.3395 C   0  0  0  0  0  0  0  0  0  0  0  0
   -5.3931   21.8187  -23.1660 C   0  0  0  0  0  0  0  0  0  0  0  0
   -6.5531   22.7132  -23.3941 C   0  0  0  0  0  0  0  0  0  0  0  0
   -6.8766   23.1890  -21.9699 C   0  0  0  0  0  0  0  0  0  0  0  0
   -5.5020   23.3109  -21.4223 C   0  0  0  0  0  0  0  0  0  0  0  0
   -5.2403   24.0509  -20.4138 O   0  0  0  0  0  0  0  0  0  0  0  0
   -4.6023   22.5108  -22.1737 N   0  0  0  0  0  0  0  0  0  0  0  0
   -3.5824   22.4902  -21.9739 H   0  0  0  0  0  0  0  0  0  0  0  0
 25 26  1  0  0  0
 26 18  1  0  0  0
 18 19  2  0  0  0
 19 20  1  0  0  0
 20 27  1  0  0  0
 27 28  1  0  0  0
 20 21  2  0  0  0
 21 22  1  0  0  0
 21 23  1  0  0  0
 23 24  2  0  0  0
 23  1  1  0  0  0
  1 29  1  0  0  0
 29 30  1  0  0  0
 30 31  1  0  0  0
 31 32  1  0  0  0
 32 33  1  0  0  0
 33 34  2  0  0  0
 33 35  1  0  0  0
  1  2  1  0  0  0
  2  3  2  0  0  0
  3  4  1  0  0  0
  4  5  2  0  0  0
  5  6  1  0  0  0
  6  7  2  0  0  0
  7  8  1  0  0  0
  8  9  2  0  0  0
  9 10  1  0  0  0
 10 11  2  0  0  0
  8 12  1  0  0  0
 12 13  1  0  0  0
 13 14  2  0  0  0
 14 15  1  0  0  0
 15 16  1  0  0  0
 15 17  1  0  0  0
 24 18  1  0  0  0
 35 30  1  0  0  0
 11  2  1  0  0  0
 17 12  2  0  0  0
 10  5  1  0  0  0
 35 36  1  0  0  0
M  END
> <minimizedAffinity>
-7.89074

> <CNNscore>
0.1984342188

> <CNNaffinity>
7.1329970360

> <CNN_VS>
1.4154306650

> <CNNaffinity_variance>
0.1565241665

$$$$
[H]c1nc2c([H])nc(N(c3c([H])c(OC([H])([H])[H])c([H])c(OC([H])([H])[H])c3F)C([H])([H])[C@@]3([H])N([H])C(=O)C([H])([H])C3([H])[H])nc2nc1-c1c([H])nn(C([H])([H])[H])c1[H]


 36 40  0  0  0  0  0  0  0  0999 V2000
    0.5322   20.8187  -19.6174 N   0  0  0  0  0  0  0  0  0  0  0  0
    0.5908   21.0518  -21.0158 C   0  0  0  0  0  0  0  0  0  0  0  0
    1.8186   20.9324  -21.6012 N   0  0  0  0  0  0  0  0  0  0  0  0
    1.9930   21.1312  -22.9072 C   0  0  0  0  0  0  0  0  0  0  0  0
    0.9077   21.4661  -23.6893 C   0  0  0  0  0  0  0  0  0  0  0  0
    1.0052   21.6809  -25.0005 N   0  0  0  0  0  0  0  0  0  0  0  0
   -0.1058   22.0095  -25.7146 C   0  0  0  0  0  0  0  0  0  0  0  0
   -1.3387   22.1281  -25.1184 C   0  0  0  0  0  0  0  0  0  0  0  0
   -1.4347   21.9111  -23.7967 N   0  0  0  0  0  0  0  0  0  0  0  0
   -0.3234   21.5816  -23.0785 C   0  0  0  0  0  0  0  0  0  0  0  0
   -0.4609   21.3739  -21.7610 N   0  0  0  0  0  0  0  0  0  0  0  0
   -2.5340   22.4862  -25.9027 C   0  0  0  0  0  0  0  0  0  0  0  0
   -3.8042   22.6874  -25.4157 C   0  0  0  0  0  0  0  0  0  0  0  0
   -4.6009   22.9952  -26.4449 N   0  0  0  0  0  0  0  0  0  0  0  0
   -3.8710   22.9930  -27.5594 N   0  0  0  0  0  0  0  0  0  0  0  0
   -4.3379   23.2759  -28.9144 C   0  0  0  0  0  0  0  0  0  0  0  0
   -2.6017   22.6851  -27.2613 C   0  0  0  0  0  0  0  0  0  0  0  0
   -2.6397   19.7154  -18.1335 C   0  0  0  0  0  0  0  0  0  0  0  0
   -3.1825   20.9433  -17.7881 C   0  0  0  0  0  0  0  0  0  0  0  0
   -2.5358   22.1241  -18.0221 C   0  0  0  0  0  0  0  0  0  0  0  0
   -1.2832   22.0823  -18.6319 C   0  0  0  0  0  0  0  0  0  0  0  0
   -0.6655   23.2944  -18.8271 F   0  0  0  0  0  0  0  0  0  0  0  0
   -0.7226   20.8982  -18.9840 C   0  0  0  0  0  0  0  0  0  0  0  0
   -1.4194   19.7181  -18.7252 C   0  0  0  0  0  0  0  0  0  0  0  0
   -2.7097   17.3717  -17.4800 C   0  0  0  0  0  0  0  0  0  0  0  0
   -3.3652   18.5624  -17.8590 O   0  0  0  0  0  0  0  0  0  0  0  0
   -3.0882   23.3632  -17.6714 O   0  0  0  0  0  0  0  0  0  0  0  0
   -4.4557   23.3878  -17.3289 C   0  0  0  0  0  0  0  0  0  0  0  0
    1.7053   20.5243  -18.8933 C   0  0  0  0  0  0  0  0  0  0  0  0
    2.4210   21.5877  -18.1691 C   0  0  0  0  0  0  0  0  0  0  0  0
    1.9607   21.9300  -16.8021 C   0  0  0  0  0  0  0  0  0  0  0  0
    2.7216   23.2351  -16.5245 C   0  0  0  0  0  0  0  0  0  0  0  0
    2.6718   23.8524  -17.8738 C   0  0  0  0  0  0  0  0  0  0  0  0
    2.8160   25.1105  -18.0464 O   0  0  0  0  0  0  0  0  0  0  0  0
    2.4508   22.8566  -18.8605 N   0  0  0  0  0  0  0  0  0  0  0  0
    2.3435   23.0910  -19.8676 H   0  0  0  0  0  0  0  0  0  0  0  0
 25 26  1  0  0  0
 26 18  1  0  0  0
 18 19  2  0  0  0
 19 20  1  0  0  0
 20 27  1  0  0  0
 27 28  1  0  0  0
 20 21  2  0  0  0
 21 22  1  0  0  0
 21 23  1  0  0  0
 23 24  2  0  0  0
 23  1  1  0  0  0
  1 29  1  0  0  0
 29 30  1  0  0  0
 30 31  1  0  0  0
 31 32  1  0  0  0
 32 33  1  0  0  0
 33 34  2  0  0  0
 33 35  1  0  0  0
  1  2  1  0  0  0
  2  3  2  0  0  0
  3  4  1  0  0  0
  4  5  2  0  0  0
  5  6  1  0  0  0
  6  7  2  0  0  0
  7  8  1  0  0  0
  8  9  2  0  0  0
  9 10  1  0  0  0
 10 11  2  0  0  0
  8 12  1  0  0  0
 12 13  1  0  0  0
 13 14  2  0  0  0
 14 15  1  0  0  0
 15 16  1  0  0  0
 15 17  1  0  0  0
 24 18  1  0  0  0
 35 30  1  0  0  0
 11  2  1  0  0  0
 17 12  2  0  0  0
 10  5  1  0  0  0
 35 36  1  0  0  0
M  END
> <minimizedAffinity>
-6.85203

> <CNNscore>
0.1618072987

> <CNNaffinity>
6.3914136887

> <CNN_VS>
1.0341774225

> <CNNaffinity_variance>
0.1171125919

$$$$
[H]c1nc2c([H])nc(N(c3c([H])c(OC([H])([H])[H])c([H])c(OC([H])([H])[H])c3F)C([H])([H])[C@@]3([H])N([H])C(=O)C([H])([H])C3([H])[H])nc2nc1-c1c([H])nn(C([H])([H])[H])c1[H]


 36 40  0  0  0  0  0  0  0  0999 V2000
   -3.8205   22.3924  -21.7729 N   0  0  0  0  0  0  0  0  0  0  0  0
   -3.3110   22.3353  -23.0960 C   0  0  0  0  0  0  0  0  0  0  0  0
   -2.0796   21.7657  -23.2493 N   0  0  0  0  0  0  0  0  0  0  0  0
   -1.5017   21.6606  -24.4453 C   0  0  0  0  0  0  0  0  0  0  0  0
   -2.1619   22.1385  -25.5578 C   0  0  0  0  0  0  0  0  0  0  0  0
   -1.6469   22.0694  -26.7845 N   0  0  0  0  0  0  0  0  0  0  0  0
   -2.3508   22.5614  -27.8402 C   0  0  0  0  0  0  0  0  0  0  0  0
   -3.5901   23.1337  -27.6782 C   0  0  0  0  0  0  0  0  0  0  0  0
   -4.1073   23.2024  -26.4409 N   0  0  0  0  0  0  0  0  0  0  0  0
   -3.4044   22.7102  -25.3811 C   0  0  0  0  0  0  0  0  0  0  0  0
   -3.9550   22.7985  -24.1617 N   0  0  0  0  0  0  0  0  0  0  0  0
   -4.3417   23.6643  -28.8297 C   0  0  0  0  0  0  0  0  0  0  0  0
   -5.2486   22.9787  -29.6032 C   0  0  0  0  0  0  0  0  0  0  0  0
   -5.7083   23.8117  -30.5430 N   0  0  0  0  0  0  0  0  0  0  0  0
   -5.1188   24.9957  -30.3829 N   0  0  0  0  0  0  0  0  0  0  0  0
   -5.3269   26.1956  -31.1898 C   0  0  0  0  0  0  0  0  0  0  0  0
   -4.2767   24.9382  -29.3426 C   0  0  0  0  0  0  0  0  0  0  0  0
   -2.2913   20.9310  -18.7719 C   0  0  0  0  0  0  0  0  0  0  0  0
   -1.2402   21.8150  -18.5838 C   0  0  0  0  0  0  0  0  0  0  0  0
   -1.0138   22.8745  -19.4166 C   0  0  0  0  0  0  0  0  0  0  0  0
   -1.8780   23.0656  -20.4933 C   0  0  0  0  0  0  0  0  0  0  0  0
   -1.5961   24.1326  -21.3123 F   0  0  0  0  0  0  0  0  0  0  0  0
   -2.9173   22.2202  -20.7067 C   0  0  0  0  0  0  0  0  0  0  0  0
   -3.1093   21.1521  -19.8307 C   0  0  0  0  0  0  0  0  0  0  0  0
   -3.6453   19.1320  -17.8472 C   0  0  0  0  0  0  0  0  0  0  0  0
   -2.4488   19.8794  -17.8772 O   0  0  0  0  0  0  0  0  0  0  0  0
    0.0499   23.7659  -19.2228 O   0  0  0  0  0  0  0  0  0  0  0  0
    1.2168   23.2578  -18.6161 C   0  0  0  0  0  0  0  0  0  0  0  0
   -5.1949   22.6083  -21.5462 C   0  0  0  0  0  0  0  0  0  0  0  0
   -5.7204   23.9757  -21.3994 C   0  0  0  0  0  0  0  0  0  0  0  0
   -6.7791   24.2095  -20.3883 C   0  0  0  0  0  0  0  0  0  0  0  0
   -7.2591   25.6239  -20.7471 C   0  0  0  0  0  0  0  0  0  0  0  0
   -7.1663   25.5578  -22.2274 C   0  0  0  0  0  0  0  0  0  0  0  0
   -7.8338   26.3446  -22.9815 O   0  0  0  0  0  0  0  0  0  0  0  0
   -6.2644   24.5335  -22.6168 N   0  0  0  0  0  0  0  0  0  0  0  0
   -6.0912   24.3000  -23.6148 H   0  0  0  0  0  0  0  0  0  0  0  0
 25 26  1  0  0  0
 26 18  1  0  0  0
 18 19  2  0  0  0
 19 20  1  0  0  0
 20 27  1  0  0  0
 27 28  1  0  0  0
 20 21  2  0  0  0
 21 22  1  0  0  0
 21 23  1  0  0  0
 23 24  2  0  0  0
 23  1  1  0  0  0
  1 29  1  0  0  0
 29 30  1  0  0  0
 30 31  1  0  0  0
 31 32  1  0  0  0
 32 33  1  0  0  0
 33 34  2  0  0  0
 33 35  1  0  0  0
  1  2  1  0  0  0
  2  3  2  0  0  0
  3  4  1  0  0  0
  4  5  2  0  0  0
  5  6  1  0  0  0
  6  7  2  0  0  0
  7  8  1  0  0  0
  8  9  2  0  0  0
  9 10  1  0  0  0
 10 11  2  0  0  0
  8 12  1  0  0  0
 12 13  1  0  0  0
 13 14  2  0  0  0
 14 15  1  0  0  0
 15 16  1  0  0  0
 15 17  1  0  0  0
 24 18  1  0  0  0
 35 30  1  0  0  0
 11  2  1  0  0  0
 17 12  2  0  0  0
 10  5  1  0  0  0
 35 36  1  0  0  0
M  END
> <minimizedAffinity>
-7.93367

> <CNNscore>
0.1363336295

> <CNNaffinity>
6.8053464890

> <CNN_VS>
0.9277976155

> <CNNaffinity_variance>
0.3842435181

$$$$
[H]c1c(OC([H])([H])[H])c([H])c(-c2c(N([H])C(=O)N([H])C(C([H])([H])[H])(C([H])([H])[H])C([H])([H])[H])nc3nc(N([H])C([H])([H])C([H])([H])C([H])([H])C([H])([H])N(C([H])([H])C([H])([H])[H])C([H])([H])C([H])([H])[H])nc([H])c3c2[H])c([H])c1OC([H])([H])[H]


 41 43  0  0  0  0  0  0  0  0999 V2000
   -2.2473   22.7303  -27.6694 C   0  0  0  0  0  0  0  0  0  0  0  0
   -0.9170   22.8093  -27.5265 N   0  0  0  0  0  0  0  0  0  0  0  0
   -0.2757   22.5700  -26.3723 C   0  0  0  0  0  0  0  0  0  0  0  0
   -1.0256   22.2168  -25.2452 C   0  0  0  0  0  0  0  0  0  0  0  0
   -0.4193   21.9625  -24.0365 C   0  0  0  0  0  0  0  0  0  0  0  0
   -1.2351   21.6167  -22.9513 C   0  0  0  0  0  0  0  0  0  0  0  0
   -2.5866   21.5341  -23.0824 C   0  0  0  0  0  0  0  0  0  0  0  0
   -3.1570   21.7938  -24.3042 N   0  0  0  0  0  0  0  0  0  0  0  0
   -2.3982   22.1284  -25.3664 C   0  0  0  0  0  0  0  0  0  0  0  0
   -2.9525   22.3844  -26.5564 N   0  0  0  0  0  0  0  0  0  0  0  0
   -3.3946   21.2170  -21.9732 N   0  0  0  0  0  0  0  0  0  0  0  0
   -4.4938   22.1053  -21.6711 C   0  0  0  0  0  0  0  0  0  0  0  0
   -4.7375   23.1288  -22.3596 O   0  0  0  0  0  0  0  0  0  0  0  0
   -5.3575   21.8484  -20.5597 N   0  0  0  0  0  0  0  0  0  0  0  0
   -3.2858   20.4144  -21.3328 H   0  0  0  0  0  0  0  0  0  0  0  0
   -5.1465   20.9900  -19.9918 H   0  0  0  0  0  0  0  0  0  0  0  0
   -6.4419   22.7370  -20.2674 C   0  0  0  0  0  0  0  0  0  0  0  0
   -6.0157   24.1770  -20.0876 C   0  0  0  0  0  0  0  0  0  0  0  0
   -7.4698   22.6059  -21.3835 C   0  0  0  0  0  0  0  0  0  0  0  0
   -7.1261   22.3180  -18.9581 C   0  0  0  0  0  0  0  0  0  0  0  0
   -0.5700   21.3263  -21.6987 C   0  0  0  0  0  0  0  0  0  0  0  0
   -0.1468   20.0085  -21.4727 C   0  0  0  0  0  0  0  0  0  0  0  0
    0.4737   19.6035  -20.3123 C   0  0  0  0  0  0  0  0  0  0  0  0
    0.6876   20.5492  -19.3226 C   0  0  0  0  0  0  0  0  0  0  0  0
    0.2768   21.8498  -19.5292 C   0  0  0  0  0  0  0  0  0  0  0  0
   -0.3377   22.2300  -20.6895 C   0  0  0  0  0  0  0  0  0  0  0  0
    0.8749   18.2640  -20.1474 O   0  0  0  0  0  0  0  0  0  0  0  0
    0.1669   17.1732  -20.6450 C   0  0  0  0  0  0  0  0  0  0  0  0
    0.4929   22.7857  -18.5398 O   0  0  0  0  0  0  0  0  0  0  0  0
    1.7639   23.3177  -18.2971 C   0  0  0  0  0  0  0  0  0  0  0  0
   -2.9307   22.9838  -28.8877 N   0  0  0  0  0  0  0  0  0  0  0  0
   -2.4710   22.7096  -29.7915 H   0  0  0  0  0  0  0  0  0  0  0  0
   -4.2314   23.6056  -28.9260 C   0  0  0  0  0  0  0  0  0  0  0  0
   -4.1883   25.0950  -28.8022 C   0  0  0  0  0  0  0  0  0  0  0  0
   -5.5743   25.6044  -28.3909 C   0  0  0  0  0  0  0  0  0  0  0  0
   -5.6875   25.9919  -26.9736 C   0  0  0  0  0  0  0  0  0  0  0  0
   -5.1875   25.0856  -25.9787 N   0  0  0  0  0  0  0  0  0  0  0  0
   -7.5219   24.6287  -25.3994 C   0  0  0  0  0  0  0  0  0  0  0  0
   -6.1101   24.1301  -25.4468 C   0  0  0  0  0  0  0  0  0  0  0  0
   -4.8436   25.9607  -24.7957 C   0  0  0  0  0  0  0  0  0  0  0  0
   -4.3225   27.2661  -25.3035 C   0  0  0  0  0  0  0  0  0  0  0  0
 38 39  1  0  0  0
 39 37  1  0  0  0
 37 40  1  0  0  0
 40 41  1  0  0  0
 37 36  1  0  0  0
 36 35  1  0  0  0
 35 34  1  0  0  0
 34 33  1  0  0  0
 33 31  1  0  0  0
 31  1  1  0  0  0
  1  2  2  0  0  0
  2  3  1  0  0  0
  3  4  2  0  0  0
  4  5  1  0  0  0
  5  6  2  0  0  0
  6  7  1  0  0  0
  7 11  1  0  0  0
 11 12  1  0  0  0
 12 13  2  0  0  0
 12 14  1  0  0  0
 14 17  1  0  0  0
 17 18  1  0  0  0
 17 19  1  0  0  0
 17 20  1  0  0  0
  7  8  2  0  0  0
  8  9  1  0  0  0
  9 10  2  0  0  0
  6 21  1  0  0  0
 21 22  2  0  0  0
 22 23  1  0  0  0
 23 27  1  0  0  0
 27 28  1  0  0  0
 23 24  2  0  0  0
 24 25  1  0  0  0
 25 29  1  0  0  0
 29 30  1  0  0  0
 25 26  2  0  0  0
 10  1  1  0  0  0
 26 21  1  0  0  0
  9  4  1  0  0  0
 31 32  1  0  0  0
 11 15  1  0  0  0
 14 16  1  0  0  0
M  END
> <minimizedAffinity>
-7.45943

> <CNNscore>
0.2440194339

> <CNNaffinity>
7.2615385056

> <CNN_VS>
1.7719565630

> <CNNaffinity_variance>
0.2021874636

$$$$
[H]c1c(OC([H])([H])[H])c([H])c(-c2c(N([H])C(=O)N([H])C(C([H])([H])[H])(C([H])([H])[H])C([H])([H])[H])nc3nc(N([H])C([H])([H])C([H])([H])C([H])([H])C([H])([H])N(C([H])([H])C([H])([H])[H])C([H])([H])C([H])([H])[H])nc([H])c3c2[H])c([H])c1OC([H])([H])[H]


 41 43  0  0  0  0  0  0  0  0999 V2000
   -2.5336   22.8230  -27.7278 C   0  0  0  0  0  0  0  0  0  0  0  0
   -1.1988   22.8527  -27.6118 N   0  0  0  0  0  0  0  0  0  0  0  0
   -0.5426   22.5693  -26.4761 C   0  0  0  0  0  0  0  0  0  0  0  0
   -1.2811   22.2213  -25.3400 C   0  0  0  0  0  0  0  0  0  0  0  0
   -0.6594   21.9231  -24.1492 C   0  0  0  0  0  0  0  0  0  0  0  0
   -1.4642   21.5856  -23.0534 C   0  0  0  0  0  0  0  0  0  0  0  0
   -2.8203   21.5529  -23.1571 C   0  0  0  0  0  0  0  0  0  0  0  0
   -3.4062   21.8555  -24.3616 N   0  0  0  0  0  0  0  0  0  0  0  0
   -2.6582   22.1833  -25.4334 C   0  0  0  0  0  0  0  0  0  0  0  0
   -3.2275   22.4810  -26.6065 N   0  0  0  0  0  0  0  0  0  0  0  0
   -3.6159   21.2434  -22.0369 N   0  0  0  0  0  0  0  0  0  0  0  0
   -4.6877   22.1546  -21.7058 C   0  0  0  0  0  0  0  0  0  0  0  0
   -4.9187   23.1910  -22.3791 O   0  0  0  0  0  0  0  0  0  0  0  0
   -5.5375   21.9066  -20.5818 N   0  0  0  0  0  0  0  0  0  0  0  0
   -3.5153   20.4315  -21.4069 H   0  0  0  0  0  0  0  0  0  0  0  0
   -5.3373   21.0372  -20.0268 H   0  0  0  0  0  0  0  0  0  0  0  0
   -6.5946   22.8178  -20.2608 C   0  0  0  0  0  0  0  0  0  0  0  0
   -6.1340   24.2489  -20.0962 C   0  0  0  0  0  0  0  0  0  0  0  0
   -7.6563   22.7062  -21.3470 C   0  0  0  0  0  0  0  0  0  0  0  0
   -7.2499   22.4150  -18.9318 C   0  0  0  0  0  0  0  0  0  0  0  0
   -0.7842   21.2485  -21.8207 C   0  0  0  0  0  0  0  0  0  0  0  0
   -0.4732   22.2930  -20.9382 C   0  0  0  0  0  0  0  0  0  0  0  0
    0.1930   22.1028  -19.7483 C   0  0  0  0  0  0  0  0  0  0  0  0
    0.5723   20.8134  -19.4120 C   0  0  0  0  0  0  0  0  0  0  0  0
    0.2742   19.7748  -20.2695 C   0  0  0  0  0  0  0  0  0  0  0  0
   -0.3882   19.9866  -21.4464 C   0  0  0  0  0  0  0  0  0  0  0  0
    0.4752   23.1949  -18.9057 O   0  0  0  0  0  0  0  0  0  0  0  0
    1.7565   23.5430  -18.4864 C   0  0  0  0  0  0  0  0  0  0  0  0
    0.6547   18.4941  -19.9283 O   0  0  0  0  0  0  0  0  0  0  0  0
    0.2618   17.3849  -20.6851 C   0  0  0  0  0  0  0  0  0  0  0  0
   -3.2327   23.1233  -28.9265 N   0  0  0  0  0  0  0  0  0  0  0  0
   -2.7081   23.5707  -29.7189 H   0  0  0  0  0  0  0  0  0  0  0  0
   -4.6365   22.8367  -29.0916 C   0  0  0  0  0  0  0  0  0  0  0  0
   -5.3973   23.9331  -29.7660 C   0  0  0  0  0  0  0  0  0  0  0  0
   -5.0395   25.2703  -29.1076 C   0  0  0  0  0  0  0  0  0  0  0  0
   -5.8116   25.5785  -27.8908 C   0  0  0  0  0  0  0  0  0  0  0  0
   -5.1421   25.5024  -26.6230 N   0  0  0  0  0  0  0  0  0  0  0  0
   -6.8334   23.8111  -26.1006 C   0  0  0  0  0  0  0  0  0  0  0  0
   -5.7913   24.7575  -25.5883 C   0  0  0  0  0  0  0  0  0  0  0  0
   -5.1346   26.9213  -26.1034 C   0  0  0  0  0  0  0  0  0  0  0  0
   -4.2450   26.9854  -24.9041 C   0  0  0  0  0  0  0  0  0  0  0  0
 38 39  1  0  0  0
 39 37  1  0  0  0
 37 40  1  0  0  0
 40 41  1  0  0  0
 37 36  1  0  0  0
 36 35  1  0  0  0
 35 34  1  0  0  0
 34 33  1  0  0  0
 33 31  1  0  0  0
 31  1  1  0  0  0
  1  2  2  0  0  0
  2  3  1  0  0  0
  3  4  2  0  0  0
  4  5  1  0  0  0
  5  6  2  0  0  0
  6  7  1  0  0  0
  7 11  1  0  0  0
 11 12  1  0  0  0
 12 13  2  0  0  0
 12 14  1  0  0  0
 14 17  1  0  0  0
 17 18  1  0  0  0
 17 19  1  0  0  0
 17 20  1  0  0  0
  7  8  2  0  0  0
  8  9  1  0  0  0
  9 10  2  0  0  0
  6 21  1  0  0  0
 21 22  2  0  0  0
 22 23  1  0  0  0
 23 27  1  0  0  0
 27 28  1  0  0  0
 23 24  2  0  0  0
 24 25  1  0  0  0
 25 29  1  0  0  0
 29 30  1  0  0  0
 25 26  2  0  0  0
 10  1  1  0  0  0
 26 21  1  0  0  0
  9  4  1  0  0  0
 31 32  1  0  0  0
 11 15  1  0  0  0
 14 16  1  0  0  0
M  END
> <minimizedAffinity>
-7.56257

> <CNNscore>
0.1796448827

> <CNNaffinity>
7.2136907578

> <CNN_VS>
1.2959026098

> <CNNaffinity_variance>
0.1395777166

$$$$
[H]c1c(OC([H])([H])[H])c([H])c(-c2c(N([H])C(=O)N([H])C(C([H])([H])[H])(C([H])([H])[H])C([H])([H])[H])nc3nc(N([H])C([H])([H])C([H])([H])C([H])([H])C([H])([H])N(C([H])([H])C([H])([H])[H])C([H])([H])C([H])([H])[H])nc([H])c3c2[H])c([H])c1OC([H])([H])[H]


 41 43  0  0  0  0  0  0  0  0999 V2000
   -2.1217   22.5449  -26.3615 C   0  0  0  0  0  0  0  0  0  0  0  0
   -0.8575   22.8002  -26.7258 N   0  0  0  0  0  0  0  0  0  0  0  0
    0.2084   22.5366  -25.9544 C   0  0  0  0  0  0  0  0  0  0  0  0
    0.0036   21.9624  -24.6952 C   0  0  0  0  0  0  0  0  0  0  0  0
    1.0604   21.6733  -23.8629 C   0  0  0  0  0  0  0  0  0  0  0  0
    0.7782   21.1012  -22.6157 C   0  0  0  0  0  0  0  0  0  0  0  0
   -0.5005   20.8380  -22.2330 C   0  0  0  0  0  0  0  0  0  0  0  0
   -1.5303   21.1391  -23.0900 N   0  0  0  0  0  0  0  0  0  0  0  0
   -1.2899   21.6894  -24.2963 C   0  0  0  0  0  0  0  0  0  0  0  0
   -2.2920   21.9857  -25.1310 N   0  0  0  0  0  0  0  0  0  0  0  0
   -0.7688   20.2928  -20.9624 N   0  0  0  0  0  0  0  0  0  0  0  0
   -1.6595   21.0283  -20.0938 C   0  0  0  0  0  0  0  0  0  0  0  0
   -2.1860   22.1165  -20.4395 O   0  0  0  0  0  0  0  0  0  0  0  0
   -1.9787   20.5372  -18.7884 N   0  0  0  0  0  0  0  0  0  0  0  0
   -0.3891   19.4175  -20.5676 H   0  0  0  0  0  0  0  0  0  0  0  0
   -1.5350   19.6265  -18.5098 H   0  0  0  0  0  0  0  0  0  0  0  0
   -2.8600   21.2757  -17.9346 C   0  0  0  0  0  0  0  0  0  0  0  0
   -4.2682   21.3956  -18.4729 C   0  0  0  0  0  0  0  0  0  0  0  0
   -2.8526   20.6104  -16.5646 C   0  0  0  0  0  0  0  0  0  0  0  0
   -2.3384   22.7087  -17.7546 C   0  0  0  0  0  0  0  0  0  0  0  0
    1.9095   20.7804  -21.7713 C   0  0  0  0  0  0  0  0  0  0  0  0
    2.7127   19.6915  -22.1394 C   0  0  0  0  0  0  0  0  0  0  0  0
    3.8000   19.2733  -21.4055 C   0  0  0  0  0  0  0  0  0  0  0  0
    4.1107   19.9667  -20.2470 C   0  0  0  0  0  0  0  0  0  0  0  0
    3.3302   21.0401  -19.8707 C   0  0  0  0  0  0  0  0  0  0  0  0
    2.2547   21.4381  -20.6148 C   0  0  0  0  0  0  0  0  0  0  0  0
    4.5667   18.1713  -21.8300 O   0  0  0  0  0  0  0  0  0  0  0  0
    4.0539   17.1019  -22.5594 C   0  0  0  0  0  0  0  0  0  0  0  0
    3.6453   21.7256  -18.7165 O   0  0  0  0  0  0  0  0  0  0  0  0
    3.1490   23.0095  -18.4661 C   0  0  0  0  0  0  0  0  0  0  0  0
   -3.2529   22.8230  -27.1733 N   0  0  0  0  0  0  0  0  0  0  0  0
   -4.2005   22.8649  -26.7222 H   0  0  0  0  0  0  0  0  0  0  0  0
   -3.1447   23.0477  -28.5937 C   0  0  0  0  0  0  0  0  0  0  0  0
   -3.7276   24.3499  -29.0412 C   0  0  0  0  0  0  0  0  0  0  0  0
   -5.2251   24.3677  -28.7145 C   0  0  0  0  0  0  0  0  0  0  0  0
   -5.7131   25.6394  -28.1521 C   0  0  0  0  0  0  0  0  0  0  0  0
   -6.0137   25.6917  -26.7492 N   0  0  0  0  0  0  0  0  0  0  0  0
   -4.5888   27.2212  -25.4748 C   0  0  0  0  0  0  0  0  0  0  0  0
   -4.9063   25.8062  -25.8506 C   0  0  0  0  0  0  0  0  0  0  0  0
   -6.6064   24.3389  -26.4296 C   0  0  0  0  0  0  0  0  0  0  0  0
   -7.0378   24.3331  -24.9987 C   0  0  0  0  0  0  0  0  0  0  0  0
 38 39  1  0  0  0
 39 37  1  0  0  0
 37 40  1  0  0  0
 40 41  1  0  0  0
 37 36  1  0  0  0
 36 35  1  0  0  0
 35 34  1  0  0  0
 34 33  1  0  0  0
 33 31  1  0  0  0
 31  1  1  0  0  0
  1  2  2  0  0  0
  2  3  1  0  0  0
  3  4  2  0  0  0
  4  5  1  0  0  0
  5  6  2  0  0  0
  6  7  1  0  0  0
  7 11  1  0  0  0
 11 12  1  0  0  0
 12 13  2  0  0  0
 12 14  1  0  0  0
 14 17  1  0  0  0
 17 18  1  0  0  0
 17 19  1  0  0  0
 17 20  1  0  0  0
  7  8  2  0  0  0
  8  9  1  0  0  0
  9 10  2  0  0  0
  6 21  1  0  0  0
 21 22  2  0  0  0
 22 23  1  0  0  0
 23 27  1  0  0  0
 27 28  1  0  0  0
 23 24  2  0  0  0
 24 25  1  0  0  0
 25 29  1  0  0  0
 29 30  1  0  0  0
 25 26  2  0  0  0
 10  1  1  0  0  0
 26 21  1  0  0  0
  9  4  1  0  0  0
 31 32  1  0  0  0
 11 15  1  0  0  0
 14 16  1  0  0  0
M  END
> <minimizedAffinity>
-6.84759

> <CNNscore>
0.1787131131

> <CNNaffinity>
6.9073495865

> <CNN_VS>
1.2344338894

> <CNNaffinity_variance>
0.1118445620

$$$$
[H]c1c(OC([H])([H])[H])c([H])c(-c2c(N([H])C(=O)N([H])C(C([H])([H])[H])(C([H])([H])[H])C([H])([H])[H])nc3nc(N([H])C([H])([H])C([H])([H])C([H])([H])C([H])([H])N(C([H])([H])C([H])([H])[H])C([H])([H])C([H])([H])[H])nc([H])c3c2[H])c([H])c1OC([H])([H])[H]


 41 43  0  0  0  0  0  0  0  0999 V2000
   -2.1356   22.5568  -26.3367 C   0  0  0  0  0  0  0  0  0  0  0  0
   -0.8618   22.8009  -26.6744 N   0  0  0  0  0  0  0  0  0  0  0  0
    0.1853   22.5274  -25.8810 C   0  0  0  0  0  0  0  0  0  0  0  0
   -0.0510   21.9544  -24.6267 C   0  0  0  0  0  0  0  0  0  0  0  0
    0.9856   21.6554  -23.7728 C   0  0  0  0  0  0  0  0  0  0  0  0
    0.6722   21.0854  -22.5320 C   0  0  0  0  0  0  0  0  0  0  0  0
   -0.6165   20.8335  -22.1763 C   0  0  0  0  0  0  0  0  0  0  0  0
   -1.6254   21.1442  -23.0545 N   0  0  0  0  0  0  0  0  0  0  0  0
   -1.3549   21.6929  -24.2551 C   0  0  0  0  0  0  0  0  0  0  0  0
   -2.3367   21.9987  -25.1104 N   0  0  0  0  0  0  0  0  0  0  0  0
   -0.9162   20.2901  -20.9119 N   0  0  0  0  0  0  0  0  0  0  0  0
   -1.7803   21.0562  -20.0429 C   0  0  0  0  0  0  0  0  0  0  0  0
   -2.2575   22.1686  -20.3829 O   0  0  0  0  0  0  0  0  0  0  0  0
   -2.1287   20.5688  -18.7436 N   0  0  0  0  0  0  0  0  0  0  0  0
   -0.5768   19.3963  -20.5221 H   0  0  0  0  0  0  0  0  0  0  0  0
   -1.7263   19.6377  -18.4697 H   0  0  0  0  0  0  0  0  0  0  0  0
   -2.9832   21.3375  -17.8892 C   0  0  0  0  0  0  0  0  0  0  0  0
   -4.3810   21.5233  -18.4360 C   0  0  0  0  0  0  0  0  0  0  0  0
   -3.0146   20.6606  -16.5252 C   0  0  0  0  0  0  0  0  0  0  0  0
   -2.4012   22.7448  -17.6928 C   0  0  0  0  0  0  0  0  0  0  0  0
    1.7827   20.7541  -21.6645 C   0  0  0  0  0  0  0  0  0  0  0  0
    1.9605   21.5244  -20.5062 C   0  0  0  0  0  0  0  0  0  0  0  0
    2.9923   21.3233  -19.6170 C   0  0  0  0  0  0  0  0  0  0  0  0
    3.8962   20.3082  -19.8853 C   0  0  0  0  0  0  0  0  0  0  0  0
    3.7355   19.5415  -21.0208 C   0  0  0  0  0  0  0  0  0  0  0  0
    2.7034   19.7588  -21.8904 C   0  0  0  0  0  0  0  0  0  0  0  0
    3.1151   22.1323  -18.4711 O   0  0  0  0  0  0  0  0  0  0  0  0
    2.6043   23.4239  -18.3727 C   0  0  0  0  0  0  0  0  0  0  0  0
    4.6390   18.5329  -21.2816 O   0  0  0  0  0  0  0  0  0  0  0  0
    4.3521   17.5060  -22.1873 C   0  0  0  0  0  0  0  0  0  0  0  0
   -3.2470   22.8455  -27.1718 N   0  0  0  0  0  0  0  0  0  0  0  0
   -4.2044   22.8882  -26.7419 H   0  0  0  0  0  0  0  0  0  0  0  0
   -3.1059   23.0798  -28.5878 C   0  0  0  0  0  0  0  0  0  0  0  0
   -3.6992   24.3743  -29.0437 C   0  0  0  0  0  0  0  0  0  0  0  0
   -5.2033   24.3684  -28.7480 C   0  0  0  0  0  0  0  0  0  0  0  0
   -5.7227   25.6319  -28.1953 C   0  0  0  0  0  0  0  0  0  0  0  0
   -6.0396   25.6827  -26.7959 N   0  0  0  0  0  0  0  0  0  0  0  0
   -4.6805   27.2463  -25.4914 C   0  0  0  0  0  0  0  0  0  0  0  0
   -4.9448   25.8256  -25.8859 C   0  0  0  0  0  0  0  0  0  0  0  0
   -6.6051   24.3180  -26.4773 C   0  0  0  0  0  0  0  0  0  0  0  0
   -7.0689   24.3138  -25.0565 C   0  0  0  0  0  0  0  0  0  0  0  0
 38 39  1  0  0  0
 39 37  1  0  0  0
 37 40  1  0  0  0
 40 41  1  0  0  0
 37 36  1  0  0  0
 36 35  1  0  0  0
 35 34  1  0  0  0
 34 33  1  0  0  0
 33 31  1  0  0  0
 31  1  1  0  0  0
  1  2  2  0  0  0
  2  3  1  0  0  0
  3  4  2  0  0  0
  4  5  1  0  0  0
  5  6  2  0  0  0
  6  7  1  0  0  0
  7 11  1  0  0  0
 11 12  1  0  0  0
 12 13  2  0  0  0
 12 14  1  0  0  0
 14 17  1  0  0  0
 17 18  1  0  0  0
 17 19  1  0  0  0
 17 20  1  0  0  0
  7  8  2  0  0  0
  8  9  1  0  0  0
  9 10  2  0  0  0
  6 21  1  0  0  0
 21 22  2  0  0  0
 22 23  1  0  0  0
 23 27  1  0  0  0
 27 28  1  0  0  0
 23 24  2  0  0  0
 24 25  1  0  0  0
 25 29  1  0  0  0
 29 30  1  0  0  0
 25 26  2  0  0  0
 10  1  1  0  0  0
 26 21  1  0  0  0
  9  4  1  0  0  0
 31 32  1  0  0  0
 11 15  1  0  0  0
 14 16  1  0  0  0
M  END
> <minimizedAffinity>
-6.80629

> <CNNscore>
0.1613058150

> <CNNaffinity>
6.8934187889

> <CNN_VS>
1.1119484901

> <CNNaffinity_variance>
0.0798532814

$$$$
[H]c1c(OC([H])([H])[H])c([H])c(-c2c(N([H])C(=O)N([H])C(C([H])([H])[H])(C([H])([H])[H])C([H])([H])[H])nc3nc(N([H])C([H])([H])C([H])([H])C([H])([H])C([H])([H])N(C([H])([H])C([H])([H])[H])C([H])([H])C([H])([H])[H])nc([H])c3c2[H])c([H])c1OC([H])([H])[H]


 41 43  0  0  0  0  0  0  0  0999 V2000
    0.8155   21.0316  -22.7415 C   0  0  0  0  0  0  0  0  0  0  0  0
    1.3401   21.5266  -23.8711 N   0  0  0  0  0  0  0  0  0  0  0  0
    0.6126   22.0983  -24.8429 C   0  0  0  0  0  0  0  0  0  0  0  0
   -0.7740   22.1900  -24.6816 C   0  0  0  0  0  0  0  0  0  0  0  0
   -1.5678   22.7648  -25.6474 C   0  0  0  0  0  0  0  0  0  0  0  0
   -2.9486   22.8191  -25.4175 C   0  0  0  0  0  0  0  0  0  0  0  0
   -3.4942   22.3194  -24.2758 C   0  0  0  0  0  0  0  0  0  0  0  0
   -2.6712   21.7537  -23.3334 N   0  0  0  0  0  0  0  0  0  0  0  0
   -1.3392   21.6875  -23.5263 C   0  0  0  0  0  0  0  0  0  0  0  0
   -0.5366   21.1343  -22.6106 N   0  0  0  0  0  0  0  0  0  0  0  0
   -4.8879   22.3528  -24.0751 N   0  0  0  0  0  0  0  0  0  0  0  0
   -5.4105   23.3598  -23.1799 C   0  0  0  0  0  0  0  0  0  0  0  0
   -4.6664   24.1850  -22.5914 O   0  0  0  0  0  0  0  0  0  0  0  0
   -6.8154   23.4549  -22.9263 N   0  0  0  0  0  0  0  0  0  0  0  0
   -5.5923   21.7242  -24.4932 H   0  0  0  0  0  0  0  0  0  0  0  0
   -7.4286   22.7620  -23.4241 H   0  0  0  0  0  0  0  0  0  0  0  0
   -7.3222   24.4545  -22.0348 C   0  0  0  0  0  0  0  0  0  0  0  0
   -6.5390   24.5729  -20.7465 C   0  0  0  0  0  0  0  0  0  0  0  0
   -7.3485   25.7808  -22.7831 C   0  0  0  0  0  0  0  0  0  0  0  0
   -8.7673   24.1201  -21.6375 C   0  0  0  0  0  0  0  0  0  0  0  0
   -3.7576   23.4545  -26.4361 C   0  0  0  0  0  0  0  0  0  0  0  0
   -4.1844   24.7704  -26.2062 C   0  0  0  0  0  0  0  0  0  0  0  0
   -4.9773   25.4715  -27.0869 C   0  0  0  0  0  0  0  0  0  0  0  0
   -5.3695   24.8402  -28.2561 C   0  0  0  0  0  0  0  0  0  0  0  0
   -4.9584   23.5456  -28.4971 C   0  0  0  0  0  0  0  0  0  0  0  0
   -4.1711   22.8681  -27.6084 C   0  0  0  0  0  0  0  0  0  0  0  0
   -5.3719   26.7915  -26.7967 O   0  0  0  0  0  0  0  0  0  0  0  0
   -5.1933   27.4022  -25.5582 C   0  0  0  0  0  0  0  0  0  0  0  0
   -5.3526   22.9236  -29.6629 O   0  0  0  0  0  0  0  0  0  0  0  0
   -5.7126   23.6548  -30.8000 C   0  0  0  0  0  0  0  0  0  0  0  0
    1.5805   20.4246  -21.7109 N   0  0  0  0  0  0  0  0  0  0  0  0
    1.0977   19.7813  -21.0353 H   0  0  0  0  0  0  0  0  0  0  0  0
    2.9949   20.6625  -21.5599 C   0  0  0  0  0  0  0  0  0  0  0  0
    3.8507   19.6064  -22.1826 C   0  0  0  0  0  0  0  0  0  0  0  0
    4.7224   18.9632  -21.0981 C   0  0  0  0  0  0  0  0  0  0  0  0
    4.7774   17.4915  -21.1509 C   0  0  0  0  0  0  0  0  0  0  0  0
    3.8851   16.7469  -20.3079 N   0  0  0  0  0  0  0  0  0  0  0  0
    2.6261   15.9305  -22.2424 C   0  0  0  0  0  0  0  0  0  0  0  0
    2.5900   16.4464  -20.8365 C   0  0  0  0  0  0  0  0  0  0  0  0
    3.6007   17.6632  -19.1404 C   0  0  0  0  0  0  0  0  0  0  0  0
    2.4171   17.1346  -18.3965 C   0  0  0  0  0  0  0  0  0  0  0  0
 38 39  1  0  0  0
 39 37  1  0  0  0
 37 40  1  0  0  0
 40 41  1  0  0  0
 37 36  1  0  0  0
 36 35  1  0  0  0
 35 34  1  0  0  0
 34 33  1  0  0  0
 33 31  1  0  0  0
 31  1  1  0  0  0
  1  2  2  0  0  0
  2  3  1  0  0  0
  3  4  2  0  0  0
  4  5  1  0  0  0
  5  6  2  0  0  0
  6  7  1  0  0  0
  7 11  1  0  0  0
 11 12  1  0  0  0
 12 13  2  0  0  0
 12 14  1  0  0  0
 14 17  1  0  0  0
 17 18  1  0  0  0
 17 19  1  0  0  0
 17 20  1  0  0  0
  7  8  2  0  0  0
  8  9  1  0  0  0
  9 10  2  0  0  0
  6 21  1  0  0  0
 21 22  2  0  0  0
 22 23  1  0  0  0
 23 27  1  0  0  0
 27 28  1  0  0  0
 23 24  2  0  0  0
 24 25  1  0  0  0
 25 29  1  0  0  0
 29 30  1  0  0  0
 25 26  2  0  0  0
 10  1  1  0  0  0
 26 21  1  0  0  0
  9  4  1  0  0  0
 31 32  1  0  0  0
 11 15  1  0  0  0
 14 16  1  0  0  0
M  END
> <minimizedAffinity>
-7.03428

> <CNNscore>
0.1245665550

> <CNNaffinity>
6.7103018761

> <CNN_VS>
0.8358792067

> <CNNaffinity_variance>
0.0772535950

$$$$
[H]c1c(OC([H])([H])[H])c([H])c(-c2c(N([H])C(=O)N([H])C(C([H])([H])[H])(C([H])([H])[H])C([H])([H])[H])nc3nc(N([H])C([H])([H])C([H])([H])C([H])([H])C([H])([H])N(C([H])([H])C([H])([H])[H])C([H])([H])C([H])([H])[H])nc([H])c3c2[H])c([H])c1OC([H])([H])[H]


 41 43  0  0  0  0  0  0  0  0999 V2000
   -2.1634   22.5479  -25.6788 C   0  0  0  0  0  0  0  0  0  0  0  0
   -0.9702   22.7592  -26.2513 N   0  0  0  0  0  0  0  0  0  0  0  0
    0.1981   22.4135  -25.6891 C   0  0  0  0  0  0  0  0  0  0  0  0
    0.1855   21.7963  -24.4336 C   0  0  0  0  0  0  0  0  0  0  0  0
    1.3542   21.4229  -23.8108 C   0  0  0  0  0  0  0  0  0  0  0  0
    1.2635   20.8120  -22.5534 C   0  0  0  0  0  0  0  0  0  0  0  0
    0.0588   20.5927  -21.9605 C   0  0  0  0  0  0  0  0  0  0  0  0
   -1.0870   20.9778  -22.6120 N   0  0  0  0  0  0  0  0  0  0  0  0
   -1.0314   21.5673  -23.8225 C   0  0  0  0  0  0  0  0  0  0  0  0
   -2.1463   21.9454  -24.4571 N   0  0  0  0  0  0  0  0  0  0  0  0
   -0.0127   20.0070  -20.6816 N   0  0  0  0  0  0  0  0  0  0  0  0
   -0.2318   20.8856  -19.5553 C   0  0  0  0  0  0  0  0  0  0  0  0
   -0.3564   22.1295  -19.6894 O   0  0  0  0  0  0  0  0  0  0  0  0
   -0.3154   20.3633  -18.2258 N   0  0  0  0  0  0  0  0  0  0  0  0
    0.0844   19.0057  -20.4492 H   0  0  0  0  0  0  0  0  0  0  0  0
   -0.2117   19.3227  -18.1246 H   0  0  0  0  0  0  0  0  0  0  0  0
   -0.5295   21.2433  -17.1164 C   0  0  0  0  0  0  0  0  0  0  0  0
   -1.7567   22.1153  -17.2608 C   0  0  0  0  0  0  0  0  0  0  0  0
   -0.6060   20.3957  -15.8533 C   0  0  0  0  0  0  0  0  0  0  0  0
    0.6658   22.1947  -16.9622 C   0  0  0  0  0  0  0  0  0  0  0  0
    2.5058   20.4030  -21.9330 C   0  0  0  0  0  0  0  0  0  0  0  0
    3.1092   21.2901  -21.0299 C   0  0  0  0  0  0  0  0  0  0  0  0
    4.3025   21.0261  -20.3958 C   0  0  0  0  0  0  0  0  0  0  0  0
    4.9334   19.8230  -20.6674 C   0  0  0  0  0  0  0  0  0  0  0  0
    4.3530   18.9394  -21.5538 C   0  0  0  0  0  0  0  0  0  0  0  0
    3.1673   19.2222  -22.1724 C   0  0  0  0  0  0  0  0  0  0  0  0
    4.8561   21.9597  -19.4989 O   0  0  0  0  0  0  0  0  0  0  0  0
    6.2151   22.0487  -19.2095 C   0  0  0  0  0  0  0  0  0  0  0  0
    4.9865   17.7438  -21.8194 O   0  0  0  0  0  0  0  0  0  0  0  0
    6.2335   17.6980  -22.4521 C   0  0  0  0  0  0  0  0  0  0  0  0
   -3.4022   22.9130  -26.2686 N   0  0  0  0  0  0  0  0  0  0  0  0
   -4.2866   22.4952  -25.8859 H   0  0  0  0  0  0  0  0  0  0  0  0
   -3.4865   23.8349  -27.3744 C   0  0  0  0  0  0  0  0  0  0  0  0
   -4.3774   25.0067  -27.1120 C   0  0  0  0  0  0  0  0  0  0  0  0
   -4.6929   25.0711  -25.6134 C   0  0  0  0  0  0  0  0  0  0  0  0
   -6.0234   24.5546  -25.2460 C   0  0  0  0  0  0  0  0  0  0  0  0
   -6.2433   24.1476  -23.8868 N   0  0  0  0  0  0  0  0  0  0  0  0
   -8.4268   25.2069  -23.5644 C   0  0  0  0  0  0  0  0  0  0  0  0
   -7.0268   25.0188  -23.0657 C   0  0  0  0  0  0  0  0  0  0  0  0
   -4.8741   24.1753  -23.2480 C   0  0  0  0  0  0  0  0  0  0  0  0
   -5.0385   24.3749  -21.7760 C   0  0  0  0  0  0  0  0  0  0  0  0
 38 39  1  0  0  0
 39 37  1  0  0  0
 37 40  1  0  0  0
 40 41  1  0  0  0
 37 36  1  0  0  0
 36 35  1  0  0  0
 35 34  1  0  0  0
 34 33  1  0  0  0
 33 31  1  0  0  0
 31  1  1  0  0  0
  1  2  2  0  0  0
  2  3  1  0  0  0
  3  4  2  0  0  0
  4  5  1  0  0  0
  5  6  2  0  0  0
  6  7  1  0  0  0
  7 11  1  0  0  0
 11 12  1  0  0  0
 12 13  2  0  0  0
 12 14  1  0  0  0
 14 17  1  0  0  0
 17 18  1  0  0  0
 17 19  1  0  0  0
 17 20  1  0  0  0
  7  8  2  0  0  0
  8  9  1  0  0  0
  9 10  2  0  0  0
  6 21  1  0  0  0
 21 22  2  0  0  0
 22 23  1  0  0  0
 23 27  1  0  0  0
 27 28  1  0  0  0
 23 24  2  0  0  0
 24 25  1  0  0  0
 25 29  1  0  0  0
 29 30  1  0  0  0
 25 26  2  0  0  0
 10  1  1  0  0  0
 26 21  1  0  0  0
  9  4  1  0  0  0
 31 32  1  0  0  0
 11 15  1  0  0  0
 14 16  1  0  0  0
M  END
> <minimizedAffinity>
-6.08983

> <CNNscore>
0.0929577500

> <CNNaffinity>
6.5148644447

> <CNN_VS>
0.6056071520

> <CNNaffinity_variance>
0.2170982063

$$$$
[H]c1c(OC([H])([H])[H])c([H])c(-c2c(N([H])C(=O)N([H])C(C([H])([H])[H])(C([H])([H])[H])C([H])([H])[H])nc3nc(N([H])C([H])([H])C([H])([H])C([H])([H])C([H])([H])N(C([H])([H])C([H])([H])[H])C([H])([H])C([H])([H])[H])nc([H])c3c2[H])c([H])c1OC([H])([H])[H]


 41 43  0  0  0  0  0  0  0  0999 V2000
   -2.3910   22.9816  -27.5197 C   0  0  0  0  0  0  0  0  0  0  0  0
   -1.5314   22.0739  -27.0368 N   0  0  0  0  0  0  0  0  0  0  0  0
   -1.3345   21.8563  -25.7273 C   0  0  0  0  0  0  0  0  0  0  0  0
   -2.0612   22.6128  -24.8016 C   0  0  0  0  0  0  0  0  0  0  0  0
   -1.8972   22.4321  -23.4475 C   0  0  0  0  0  0  0  0  0  0  0  0
   -2.6575   23.2279  -22.5808 C   0  0  0  0  0  0  0  0  0  0  0  0
   -3.5326   24.1539  -23.0578 C   0  0  0  0  0  0  0  0  0  0  0  0
   -3.6709   24.3061  -24.4155 N   0  0  0  0  0  0  0  0  0  0  0  0
   -2.9536   23.5548  -25.2739 C   0  0  0  0  0  0  0  0  0  0  0  0
   -3.0852   23.7038  -26.5965 N   0  0  0  0  0  0  0  0  0  0  0  0
   -4.2652   24.9682  -22.1724 N   0  0  0  0  0  0  0  0  0  0  0  0
   -5.7009   24.8049  -22.1466 C   0  0  0  0  0  0  0  0  0  0  0  0
   -6.2944   23.9729  -22.8791 O   0  0  0  0  0  0  0  0  0  0  0  0
   -6.5115   25.5970  -21.2733 N   0  0  0  0  0  0  0  0  0  0  0  0
   -3.8905   25.6885  -21.5345 H   0  0  0  0  0  0  0  0  0  0  0  0
   -6.0060   26.2879  -20.6643 H   0  0  0  0  0  0  0  0  0  0  0  0
   -7.9337   25.4293  -21.2582 C   0  0  0  0  0  0  0  0  0  0  0  0
   -8.6445   26.3561  -20.2974 C   0  0  0  0  0  0  0  0  0  0  0  0
   -8.4437   25.6197  -22.6806 C   0  0  0  0  0  0  0  0  0  0  0  0
   -8.2894   23.9988  -20.8279 C   0  0  0  0  0  0  0  0  0  0  0  0
   -2.4870   22.9979  -21.1618 C   0  0  0  0  0  0  0  0  0  0  0  0
   -1.2630   23.3621  -20.5823 C   0  0  0  0  0  0  0  0  0  0  0  0
   -0.9719   23.1709  -19.2502 C   0  0  0  0  0  0  0  0  0  0  0  0
   -1.9402   22.5894  -18.4478 C   0  0  0  0  0  0  0  0  0  0  0  0
   -3.1495   22.2250  -19.0026 C   0  0  0  0  0  0  0  0  0  0  0  0
   -3.4172   22.4241  -20.3283 C   0  0  0  0  0  0  0  0  0  0  0  0
    0.2774   23.5592  -18.7296 O   0  0  0  0  0  0  0  0  0  0  0  0
    1.2969   22.6672  -18.4075 C   0  0  0  0  0  0  0  0  0  0  0  0
   -4.1085   21.6467  -18.1981 O   0  0  0  0  0  0  0  0  0  0  0  0
   -3.8504   21.3284  -16.8604 C   0  0  0  0  0  0  0  0  0  0  0  0
   -2.6019   23.2167  -28.9040 N   0  0  0  0  0  0  0  0  0  0  0  0
   -1.8513   22.9382  -29.5839 H   0  0  0  0  0  0  0  0  0  0  0  0
   -3.8089   23.8254  -29.4064 C   0  0  0  0  0  0  0  0  0  0  0  0
   -3.5946   25.1798  -30.0025 C   0  0  0  0  0  0  0  0  0  0  0  0
   -4.6618   26.1393  -29.4639 C   0  0  0  0  0  0  0  0  0  0  0  0
   -5.7849   25.4799  -28.7742 C   0  0  0  0  0  0  0  0  0  0  0  0
   -6.0440   25.8316  -27.4066 N   0  0  0  0  0  0  0  0  0  0  0  0
   -5.3891   27.3983  -25.6430 C   0  0  0  0  0  0  0  0  0  0  0  0
   -4.9569   26.3878  -26.6609 C   0  0  0  0  0  0  0  0  0  0  0  0
   -6.3276   24.5177  -26.7161 C   0  0  0  0  0  0  0  0  0  0  0  0
   -7.6535   24.6143  -26.0332 C   0  0  0  0  0  0  0  0  0  0  0  0
 38 39  1  0  0  0
 39 37  1  0  0  0
 37 40  1  0  0  0
 40 41  1  0  0  0
 37 36  1  0  0  0
 36 35  1  0  0  0
 35 34  1  0  0  0
 34 33  1  0  0  0
 33 31  1  0  0  0
 31  1  1  0  0  0
  1  2  2  0  0  0
  2  3  1  0  0  0
  3  4  2  0  0  0
  4  5  1  0  0  0
  5  6  2  0  0  0
  6  7  1  0  0  0
  7 11  1  0  0  0
 11 12  1  0  0  0
 12 13  2  0  0  0
 12 14  1  0  0  0
 14 17  1  0  0  0
 17 18  1  0  0  0
 17 19  1  0  0  0
 17 20  1  0  0  0
  7  8  2  0  0  0
  8  9  1  0  0  0
  9 10  2  0  0  0
  6 21  1  0  0  0
 21 22  2  0  0  0
 22 23  1  0  0  0
 23 27  1  0  0  0
 27 28  1  0  0  0
 23 24  2  0  0  0
 24 25  1  0  0  0
 25 29  1  0  0  0
 29 30  1  0  0  0
 25 26  2  0  0  0
 10  1  1  0  0  0
 26 21  1  0  0  0
  9  4  1  0  0  0
 31 32  1  0  0  0
 11 15  1  0  0  0
 14 16  1  0  0  0
M  END
> <minimizedAffinity>
-7.18669

> <CNNscore>
0.0916088372

> <CNNaffinity>
6.6841049194

> <CNN_VS>
0.6123231053

> <CNNaffinity_variance>
0.3088043332

$$$$
[H]c1c(OC([H])([H])[H])c([H])c(-c2c(N([H])C(=O)N([H])C(C([H])([H])[H])(C([H])([H])[H])C([H])([H])[H])nc3nc(N([H])C([H])([H])C([H])([H])C([H])([H])C([H])([H])N(C([H])([H])C([H])([H])[H])C([H])([H])C([H])([H])[H])nc([H])c3c2[H])c([H])c1OC([H])([H])[H]


 41 43  0  0  0  0  0  0  0  0999 V2000
    0.8462   20.9550  -22.5520 C   0  0  0  0  0  0  0  0  0  0  0  0
    1.4072   21.4381  -23.6691 N   0  0  0  0  0  0  0  0  0  0  0  0
    0.7128   22.0101  -24.6647 C   0  0  0  0  0  0  0  0  0  0  0  0
   -0.6770   22.1151  -24.5436 C   0  0  0  0  0  0  0  0  0  0  0  0
   -1.4377   22.6907  -25.5352 C   0  0  0  0  0  0  0  0  0  0  0  0
   -2.8240   22.7586  -25.3450 C   0  0  0  0  0  0  0  0  0  0  0  0
   -3.4064   22.2709  -24.2164 C   0  0  0  0  0  0  0  0  0  0  0  0
   -2.6156   21.7039  -23.2475 N   0  0  0  0  0  0  0  0  0  0  0  0
   -1.2793   21.6248  -23.4019 C   0  0  0  0  0  0  0  0  0  0  0  0
   -0.5081   21.0703  -22.4603 N   0  0  0  0  0  0  0  0  0  0  0  0
   -4.8049   22.3177  -24.0559 N   0  0  0  0  0  0  0  0  0  0  0  0
   -5.3430   23.3288  -23.1745 C   0  0  0  0  0  0  0  0  0  0  0  0
   -4.6081   24.1459  -22.5636 O   0  0  0  0  0  0  0  0  0  0  0  0
   -6.7537   23.4374  -22.9613 N   0  0  0  0  0  0  0  0  0  0  0  0
   -5.5031   21.6966  -24.4949 H   0  0  0  0  0  0  0  0  0  0  0  0
   -7.3590   22.7512  -23.4774 H   0  0  0  0  0  0  0  0  0  0  0  0
   -7.2761   24.4410  -22.0832 C   0  0  0  0  0  0  0  0  0  0  0  0
   -6.5139   24.5669  -20.7830 C   0  0  0  0  0  0  0  0  0  0  0  0
   -7.2918   25.7633  -22.8387 C   0  0  0  0  0  0  0  0  0  0  0  0
   -8.7270   24.1067  -21.7076 C   0  0  0  0  0  0  0  0  0  0  0  0
   -3.5979   23.3946  -26.3901 C   0  0  0  0  0  0  0  0  0  0  0  0
   -4.0514   24.7023  -26.1648 C   0  0  0  0  0  0  0  0  0  0  0  0
   -4.8159   25.4027  -27.0707 C   0  0  0  0  0  0  0  0  0  0  0  0
   -5.1503   24.7794  -28.2619 C   0  0  0  0  0  0  0  0  0  0  0  0
   -4.7123   23.4929  -28.4988 C   0  0  0  0  0  0  0  0  0  0  0  0
   -3.9540   22.8158  -27.5849 C   0  0  0  0  0  0  0  0  0  0  0  0
   -5.2399   26.7144  -26.7838 O   0  0  0  0  0  0  0  0  0  0  0  0
   -5.0406   27.3456  -25.5588 C   0  0  0  0  0  0  0  0  0  0  0  0
   -5.0489   22.8786  -29.6866 O   0  0  0  0  0  0  0  0  0  0  0  0
   -5.6829   23.5763  -30.7204 C   0  0  0  0  0  0  0  0  0  0  0  0
    1.5760   20.3477  -21.4963 N   0  0  0  0  0  0  0  0  0  0  0  0
    1.2662   19.4083  -21.1429 H   0  0  0  0  0  0  0  0  0  0  0  0
    2.7250   20.9769  -20.8931 C   0  0  0  0  0  0  0  0  0  0  0  0
    2.4726   21.4877  -19.5107 C   0  0  0  0  0  0  0  0  0  0  0  0
    3.7189   22.2296  -19.0149 C   0  0  0  0  0  0  0  0  0  0  0  0
    4.1126   21.9073  -17.6318 C   0  0  0  0  0  0  0  0  0  0  0  0
    3.8935   22.8963  -16.6144 N   0  0  0  0  0  0  0  0  0  0  0  0
    2.7191   23.3756  -14.5204 C   0  0  0  0  0  0  0  0  0  0  0  0
    2.6427   22.8504  -15.9212 C   0  0  0  0  0  0  0  0  0  0  0  0
    3.8533   24.2123  -17.3560 C   0  0  0  0  0  0  0  0  0  0  0  0
    5.0811   24.9918  -17.0113 C   0  0  0  0  0  0  0  0  0  0  0  0
 38 39  1  0  0  0
 39 37  1  0  0  0
 37 40  1  0  0  0
 40 41  1  0  0  0
 37 36  1  0  0  0
 36 35  1  0  0  0
 35 34  1  0  0  0
 34 33  1  0  0  0
 33 31  1  0  0  0
 31  1  1  0  0  0
  1  2  2  0  0  0
  2  3  1  0  0  0
  3  4  2  0  0  0
  4  5  1  0  0  0
  5  6  2  0  0  0
  6  7  1  0  0  0
  7 11  1  0  0  0
 11 12  1  0  0  0
 12 13  2  0  0  0
 12 14  1  0  0  0
 14 17  1  0  0  0
 17 18  1  0  0  0
 17 19  1  0  0  0
 17 20  1  0  0  0
  7  8  2  0  0  0
  8  9  1  0  0  0
  9 10  2  0  0  0
  6 21  1  0  0  0
 21 22  2  0  0  0
 22 23  1  0  0  0
 23 27  1  0  0  0
 27 28  1  0  0  0
 23 24  2  0  0  0
 24 25  1  0  0  0
 25 29  1  0  0  0
 29 30  1  0  0  0
 25 26  2  0  0  0
 10  1  1  0  0  0
 26 21  1  0  0  0
  9  4  1  0  0  0
 31 32  1  0  0  0
 11 15  1  0  0  0
 14 16  1  0  0  0
M  END
> <minimizedAffinity>
-7.60622

> <CNNscore>
0.0815411955

> <CNNaffinity>
6.5615682602

> <CNN_VS>
0.5350381136

> <CNNaffinity_variance>
0.0970824733

$$$$
[H]c1c(OC([H])([H])[H])c([H])c(-c2c(N([H])C(=O)N([H])C(C([H])([H])[H])(C([H])([H])[H])C([H])([H])[H])nc3nc(N([H])C([H])([H])C([H])([H])C([H])([H])C([H])([H])N(C([H])([H])C([H])([H])[H])C([H])([H])C([H])([H])[H])nc([H])c3c2[H])c([H])c1OC([H])([H])[H]


 41 43  0  0  0  0  0  0  0  0999 V2000
    0.7876   21.5781  -19.1905 C   0  0  0  0  0  0  0  0  0  0  0  0
    1.1557   20.7285  -20.1595 N   0  0  0  0  0  0  0  0  0  0  0  0
    0.6427   20.7443  -21.3993 C   0  0  0  0  0  0  0  0  0  0  0  0
   -0.3330   21.6966  -21.7130 C   0  0  0  0  0  0  0  0  0  0  0  0
   -0.8938   21.7561  -22.9681 C   0  0  0  0  0  0  0  0  0  0  0  0
   -1.8668   22.7350  -23.2080 C   0  0  0  0  0  0  0  0  0  0  0  0
   -2.2505   23.6028  -22.2331 C   0  0  0  0  0  0  0  0  0  0  0  0
   -1.6684   23.5144  -20.9925 N   0  0  0  0  0  0  0  0  0  0  0  0
   -0.7295   22.5837  -20.7320 C   0  0  0  0  0  0  0  0  0  0  0  0
   -0.1637   22.4946  -19.5233 N   0  0  0  0  0  0  0  0  0  0  0  0
   -3.2536   24.5597  -22.4817 N   0  0  0  0  0  0  0  0  0  0  0  0
   -4.5529   24.3353  -21.8899 C   0  0  0  0  0  0  0  0  0  0  0  0
   -4.8002   23.3299  -21.1766 O   0  0  0  0  0  0  0  0  0  0  0  0
   -5.6216   25.2636  -22.0984 N   0  0  0  0  0  0  0  0  0  0  0  0
   -3.1707   25.4138  -23.0559 H   0  0  0  0  0  0  0  0  0  0  0  0
   -5.4042   26.1010  -22.6945 H   0  0  0  0  0  0  0  0  0  0  0  0
   -6.9061   25.0298  -21.5100 C   0  0  0  0  0  0  0  0  0  0  0  0
   -7.4048   23.6126  -21.6831 C   0  0  0  0  0  0  0  0  0  0  0  0
   -6.8220   25.4042  -20.0360 C   0  0  0  0  0  0  0  0  0  0  0  0
   -7.9555   25.9438  -22.1591 C   0  0  0  0  0  0  0  0  0  0  0  0
   -2.4199   22.7946  -24.5445 C   0  0  0  0  0  0  0  0  0  0  0  0
   -1.5245   22.7960  -25.6238 C   0  0  0  0  0  0  0  0  0  0  0  0
   -1.9267   22.8747  -26.9382 C   0  0  0  0  0  0  0  0  0  0  0  0
   -3.2845   22.9563  -27.2011 C   0  0  0  0  0  0  0  0  0  0  0  0
   -4.1785   22.9565  -26.1505 C   0  0  0  0  0  0  0  0  0  0  0  0
   -3.7569   22.8777  -24.8526 C   0  0  0  0  0  0  0  0  0  0  0  0
   -0.9763   22.8713  -27.9770 O   0  0  0  0  0  0  0  0  0  0  0  0
    0.2948   22.3139  -27.8663 C   0  0  0  0  0  0  0  0  0  0  0  0
   -5.5285   23.0381  -26.4196 O   0  0  0  0  0  0  0  0  0  0  0  0
   -6.4553   23.3814  -25.4295 C   0  0  0  0  0  0  0  0  0  0  0  0
    1.3261   21.5647  -17.8769 N   0  0  0  0  0  0  0  0  0  0  0  0
    1.2944   20.6705  -17.3269 H   0  0  0  0  0  0  0  0  0  0  0  0
    1.9124   22.7359  -17.2731 C   0  0  0  0  0  0  0  0  0  0  0  0
    3.3548   22.5687  -16.9163 C   0  0  0  0  0  0  0  0  0  0  0  0
    3.4568   21.9214  -15.5306 C   0  0  0  0  0  0  0  0  0  0  0  0
    3.2903   22.8576  -14.4047 C   0  0  0  0  0  0  0  0  0  0  0  0
    3.0868   22.3131  -13.0919 N   0  0  0  0  0  0  0  0  0  0  0  0
    2.1549   24.4758  -12.4226 C   0  0  0  0  0  0  0  0  0  0  0  0
    2.1515   22.9883  -12.2456 C   0  0  0  0  0  0  0  0  0  0  0  0
    4.4124   22.4920  -12.3889 C   0  0  0  0  0  0  0  0  0  0  0  0
    4.8528   21.1666  -11.8569 C   0  0  0  0  0  0  0  0  0  0  0  0
 38 39  1  0  0  0
 39 37  1  0  0  0
 37 40  1  0  0  0
 40 41  1  0  0  0
 37 36  1  0  0  0
 36 35  1  0  0  0
 35 34  1  0  0  0
 34 33  1  0  0  0
 33 31  1  0  0  0
 31  1  1  0  0  0
  1  2  2  0  0  0
  2  3  1  0  0  0
  3  4  2  0  0  0
  4  5  1  0  0  0
  5  6  2  0  0  0
  6  7  1  0  0  0
  7 11  1  0  0  0
 11 12  1  0  0  0
 12 13  2  0  0  0
 12 14  1  0  0  0
 14 17  1  0  0  0
 17 18  1  0  0  0
 17 19  1  0  0  0
 17 20  1  0  0  0
  7  8  2  0  0  0
  8  9  1  0  0  0
  9 10  2  0  0  0
  6 21  1  0  0  0
 21 22  2  0  0  0
 22 23  1  0  0  0
 23 27  1  0  0  0
 27 28  1  0  0  0
 23 24  2  0  0  0
 24 25  1  0  0  0
 25 29  1  0  0  0
 29 30  1  0  0  0
 25 26  2  0  0  0
 10  1  1  0  0  0
 26 21  1  0  0  0
  9  4  1  0  0  0
 31 32  1  0  0  0
 11 15  1  0  0  0
 14 16  1  0  0  0
M  END
> <minimizedAffinity>
-6.77752

> <CNNscore>
0.0638527423

> <CNNaffinity>
5.6513037682

> <CNN_VS>
0.3608512580

> <CNNaffinity_variance>
0.4688661993

$$$$
[H]/C(C(=O)N1C([H])([H])C([H])([H])C([H])(N2C(=O)N(c3c(Cl)c(OC([H])([H])[H])c([H])c(OC([H])([H])[H])c3Cl)C([H])([H])c3c([H])nc(N([H])C4([H])C([H])([H])C([H])([H])C([H])([H])C([H])([H])C4([H])[H])nc32)C([H])([H])C1([H])[H])=C(/[H])C([H])([H])N(C([H])([H])[H])C([H])([H])[H]


 45 49  0  0  0  0  0  0  0  0999 V2000
   -0.1606   21.2689  -20.8709 N   0  0  0  0  0  0  0  0  0  0  0  0
    0.7426   21.1703  -21.9882 C   0  0  0  0  0  0  0  0  0  0  0  0
    0.1671   21.6519  -23.2667 C   0  0  0  0  0  0  0  0  0  0  0  0
    0.9507   21.5505  -24.4316 C   0  0  0  0  0  0  0  0  0  0  0  0
    0.4242   21.9927  -25.5787 N   0  0  0  0  0  0  0  0  0  0  0  0
   -0.8061   22.5222  -25.6600 C   0  0  0  0  0  0  0  0  0  0  0  0
   -1.5191   22.6016  -24.5318 N   0  0  0  0  0  0  0  0  0  0  0  0
   -1.0896   22.1940  -23.3559 C   0  0  0  0  0  0  0  0  0  0  0  0
   -1.9447   22.3123  -22.2416 N   0  0  0  0  0  0  0  0  0  0  0  0
   -1.4505   21.8369  -20.9937 C   0  0  0  0  0  0  0  0  0  0  0  0
   -2.1398   21.8971  -19.9251 O   0  0  0  0  0  0  0  0  0  0  0  0
    1.1304   21.0659  -17.4037 C   0  0  0  0  0  0  0  0  0  0  0  0
    1.1793   19.6982  -17.2304 C   0  0  0  0  0  0  0  0  0  0  0  0
    0.7908   18.8397  -18.2485 C   0  0  0  0  0  0  0  0  0  0  0  0
    0.3481   19.3947  -19.4551 C   0  0  0  0  0  0  0  0  0  0  0  0
   -0.1494   18.3438  -20.7628 Cl  0  0  0  0  0  0  0  0  0  0  0  0
    0.3017   20.7599  -19.6215 C   0  0  0  0  0  0  0  0  0  0  0  0
    0.6942   21.6097  -18.5928 C   0  0  0  0  0  0  0  0  0  0  0  0
    0.6005   23.3271  -18.8979 Cl  0  0  0  0  0  0  0  0  0  0  0  0
    2.8771   22.2555  -16.2398 C   0  0  0  0  0  0  0  0  0  0  0  0
    1.5113   21.9462  -16.4066 O   0  0  0  0  0  0  0  0  0  0  0  0
    0.8289   17.4561  -18.1031 O   0  0  0  0  0  0  0  0  0  0  0  0
   -0.1459   16.8589  -17.2705 C   0  0  0  0  0  0  0  0  0  0  0  0
   -3.2538   22.8593  -22.2547 C   0  0  0  0  0  0  0  0  0  0  0  0
   -4.0939   22.0973  -23.2540 C   0  0  0  0  0  0  0  0  0  0  0  0
   -5.5482   22.2672  -22.7646 C   0  0  0  0  0  0  0  0  0  0  0  0
   -5.7827   23.6856  -22.7405 N   0  0  0  0  0  0  0  0  0  0  0  0
   -4.7126   24.5431  -23.2473 C   0  0  0  0  0  0  0  0  0  0  0  0
   -3.3793   24.3056  -22.5798 C   0  0  0  0  0  0  0  0  0  0  0  0
   -6.9647   24.2519  -22.2767 C   0  0  0  0  0  0  0  0  0  0  0  0
   -6.9442   25.5791  -22.3362 O   0  0  0  0  0  0  0  0  0  0  0  0
   -8.1801   23.7354  -21.7583 C   0  0  0  0  0  0  0  0  0  0  0  0
   -8.7166   23.8889  -20.5740 C   0  0  0  0  0  0  0  0  0  0  0  0
  -10.0163   23.2860  -20.1389 C   0  0  0  0  0  0  0  0  0  0  0  0
  -10.0877   22.9884  -18.7489 N   0  0  0  0  0  0  0  0  0  0  0  0
   -9.4907   21.6451  -18.5651 C   0  0  0  0  0  0  0  0  0  0  0  0
  -11.5301   22.7758  -18.4599 C   0  0  0  0  0  0  0  0  0  0  0  0
   -1.3474   22.9794  -26.9077 N   0  0  0  0  0  0  0  0  0  0  0  0
   -0.6710   23.3554  -27.6161 H   0  0  0  0  0  0  0  0  0  0  0  0
   -2.7311   22.9544  -27.2414 C   0  0  0  0  0  0  0  0  0  0  0  0
   -3.5456   24.0368  -26.5193 C   0  0  0  0  0  0  0  0  0  0  0  0
   -5.0014   23.6107  -26.6387 C   0  0  0  0  0  0  0  0  0  0  0  0
   -5.4471   23.4655  -28.0549 C   0  0  0  0  0  0  0  0  0  0  0  0
   -4.4786   22.7613  -28.9422 C   0  0  0  0  0  0  0  0  0  0  0  0
   -3.0305   23.1376  -28.7121 C   0  0  0  0  0  0  0  0  0  0  0  0
 20 21  1  0  0  0
 21 12  1  0  0  0
 12 13  2  0  0  0
 13 14  1  0  0  0
 14 22  1  0  0  0
 22 23  1  0  0  0
 14 15  2  0  0  0
 15 16  1  0  0  0
 15 17  1  0  0  0
 17  1  1  0  0  0
  1  2  1  0  0  0
  2  3  1  0  0  0
  3  4  2  0  0  0
  4  5  1  0  0  0
  5  6  2  0  0  0
  6 38  1  0  0  0
 38 40  1  0  0  0
 40 41  1  0  0  0
 41 42  1  0  0  0
 42 43  1  0  0  0
 43 44  1  0  0  0
 44 45  1  0  0  0
  6  7  1  0  0  0
  7  8  2  0  0  0
  8  9  1  0  0  0
  9 24  1  0  0  0
 24 25  1  0  0  0
 25 26  1  0  0  0
 26 27  1  0  0  0
 27 28  1  0  0  0
 28 29  1  0  0  0
 27 30  1  0  0  0
 30 31  2  0  0  0
 30 32  1  0  0  0
 32 33  2  0  0  0
 33 34  1  0  0  0
 34 35  1  0  0  0
 35 36  1  0  0  0
 35 37  1  0  0  0
  9 10  1  0  0  0
 10 11  2  0  0  0
 17 18  2  0  0  0
 18 19  1  0  0  0
 18 12  1  0  0  0
 10  1  1  0  0  0
  8  3  1  0  0  0
 29 24  1  0  0  0
 45 40  1  0  0  0
 38 39  1  0  0  0
M  END
> <minimizedAffinity>
-8.28574

> <CNNscore>
0.1769868284

> <CNNaffinity>
7.6027517319

> <CNN_VS>
1.3455868959

> <CNNaffinity_variance>
0.1209276542

$$$$
[H]/C(C(=O)N1C([H])([H])C([H])([H])C([H])(N2C(=O)N(c3c(Cl)c(OC([H])([H])[H])c([H])c(OC([H])([H])[H])c3Cl)C([H])([H])c3c([H])nc(N([H])C4([H])C([H])([H])C([H])([H])C([H])([H])C([H])([H])C4([H])[H])nc32)C([H])([H])C1([H])[H])=C(/[H])C([H])([H])N(C([H])([H])[H])C([H])([H])[H]


 45 49  0  0  0  0  0  0  0  0999 V2000
   -0.1875   21.2556  -20.8818 N   0  0  0  0  0  0  0  0  0  0  0  0
    0.7146   21.1649  -22.0006 C   0  0  0  0  0  0  0  0  0  0  0  0
    0.1360   21.6506  -23.2762 C   0  0  0  0  0  0  0  0  0  0  0  0
    0.9185   21.5569  -24.4426 C   0  0  0  0  0  0  0  0  0  0  0  0
    0.3893   22.0027  -25.5870 N   0  0  0  0  0  0  0  0  0  0  0  0
   -0.8428   22.5288  -25.6644 C   0  0  0  0  0  0  0  0  0  0  0  0
   -1.5547   22.6008  -24.5350 N   0  0  0  0  0  0  0  0  0  0  0  0
   -1.1225   22.1891  -23.3615 C   0  0  0  0  0  0  0  0  0  0  0  0
   -1.9766   22.2997  -22.2456 N   0  0  0  0  0  0  0  0  0  0  0  0
   -1.4793   21.8201  -21.0004 C   0  0  0  0  0  0  0  0  0  0  0  0
   -2.1675   21.8732  -19.9307 O   0  0  0  0  0  0  0  0  0  0  0  0
    0.7534   18.9326  -18.1528 C   0  0  0  0  0  0  0  0  0  0  0  0
    1.1988   19.8261  -17.2008 C   0  0  0  0  0  0  0  0  0  0  0  0
    1.1912   21.1907  -17.4499 C   0  0  0  0  0  0  0  0  0  0  0  0
    0.7208   21.6388  -18.6900 C   0  0  0  0  0  0  0  0  0  0  0  0
    0.6951   23.3530  -19.0406 Cl  0  0  0  0  0  0  0  0  0  0  0  0
    0.2779   20.7423  -19.6353 C   0  0  0  0  0  0  0  0  0  0  0  0
    0.2907   19.3765  -19.3729 C   0  0  0  0  0  0  0  0  0  0  0  0
   -0.2913   18.3170  -20.6339 Cl  0  0  0  0  0  0  0  0  0  0  0  0
    1.9711   16.8623  -17.9251 C   0  0  0  0  0  0  0  0  0  0  0  0
    0.7493   17.5667  -17.9326 O   0  0  0  0  0  0  0  0  0  0  0  0
    1.6345   22.1160  -16.5094 O   0  0  0  0  0  0  0  0  0  0  0  0
    2.4020   21.6302  -15.4255 C   0  0  0  0  0  0  0  0  0  0  0  0
   -3.2874   22.8426  -22.2546 C   0  0  0  0  0  0  0  0  0  0  0  0
   -4.1407   22.0484  -23.2168 C   0  0  0  0  0  0  0  0  0  0  0  0
   -5.5877   22.2294  -22.7100 C   0  0  0  0  0  0  0  0  0  0  0  0
   -5.8262   23.6472  -22.7253 N   0  0  0  0  0  0  0  0  0  0  0  0
   -4.7668   24.4916  -23.2747 C   0  0  0  0  0  0  0  0  0  0  0  0
   -3.4224   24.2781  -22.6214 C   0  0  0  0  0  0  0  0  0  0  0  0
   -7.0025   24.2243  -22.2602 C   0  0  0  0  0  0  0  0  0  0  0  0
   -6.9869   25.5491  -22.3604 O   0  0  0  0  0  0  0  0  0  0  0  0
   -8.2080   23.7206  -21.7072 C   0  0  0  0  0  0  0  0  0  0  0  0
   -8.8629   24.1036  -20.6403 C   0  0  0  0  0  0  0  0  0  0  0  0
  -10.1365   23.4866  -20.1509 C   0  0  0  0  0  0  0  0  0  0  0  0
  -10.0840   23.0238  -18.8060 N   0  0  0  0  0  0  0  0  0  0  0  0
   -9.4449   21.6876  -18.8352 C   0  0  0  0  0  0  0  0  0  0  0  0
  -11.4920   22.7330  -18.4289 C   0  0  0  0  0  0  0  0  0  0  0  0
   -1.3871   22.9900  -26.9093 N   0  0  0  0  0  0  0  0  0  0  0  0
   -0.7164   23.3983  -27.6052 H   0  0  0  0  0  0  0  0  0  0  0  0
   -2.7664   22.9282  -27.2561 C   0  0  0  0  0  0  0  0  0  0  0  0
   -3.6119   24.0050  -26.5618 C   0  0  0  0  0  0  0  0  0  0  0  0
   -5.0567   23.5445  -26.6878 C   0  0  0  0  0  0  0  0  0  0  0  0
   -5.4846   23.3640  -28.1054 C   0  0  0  0  0  0  0  0  0  0  0  0
   -4.4917   22.6657  -28.9701 C   0  0  0  0  0  0  0  0  0  0  0  0
   -3.0547   23.0782  -28.7328 C   0  0  0  0  0  0  0  0  0  0  0  0
 20 21  1  0  0  0
 21 12  1  0  0  0
 12 13  2  0  0  0
 13 14  1  0  0  0
 14 22  1  0  0  0
 22 23  1  0  0  0
 14 15  2  0  0  0
 15 16  1  0  0  0
 15 17  1  0  0  0
 17  1  1  0  0  0
  1  2  1  0  0  0
  2  3  1  0  0  0
  3  4  2  0  0  0
  4  5  1  0  0  0
  5  6  2  0  0  0
  6 38  1  0  0  0
 38 40  1  0  0  0
 40 41  1  0  0  0
 41 42  1  0  0  0
 42 43  1  0  0  0
 43 44  1  0  0  0
 44 45  1  0  0  0
  6  7  1  0  0  0
  7  8  2  0  0  0
  8  9  1  0  0  0
  9 24  1  0  0  0
 24 25  1  0  0  0
 25 26  1  0  0  0
 26 27  1  0  0  0
 27 28  1  0  0  0
 28 29  1  0  0  0
 27 30  1  0  0  0
 30 31  2  0  0  0
 30 32  1  0  0  0
 32 33  2  0  0  0
 33 34  1  0  0  0
 34 35  1  0  0  0
 35 36  1  0  0  0
 35 37  1  0  0  0
  9 10  1  0  0  0
 10 11  2  0  0  0
 17 18  2  0  0  0
 18 19  1  0  0  0
 18 12  1  0  0  0
 10  1  1  0  0  0
  8  3  1  0  0  0
 29 24  1  0  0  0
 45 40  1  0  0  0
 38 39  1  0  0  0
M  END
> <minimizedAffinity>
-8.11651

> <CNNscore>
0.1381653547

> <CNNaffinity>
7.5616288185

> <CNN_VS>
1.0447551012

> <CNNaffinity_variance>
0.1450948566

$$$$
[H]/C(C(=O)N1C([H])([H])C([H])([H])C([H])(N2C(=O)N(c3c(Cl)c(OC([H])([H])[H])c([H])c(OC([H])([H])[H])c3Cl)C([H])([H])c3c([H])nc(N([H])C4([H])C([H])([H])C([H])([H])C([H])([H])C([H])([H])C4([H])[H])nc32)C([H])([H])C1([H])[H])=C(/[H])C([H])([H])N(C([H])([H])[H])C([H])([H])[H]


 45 49  0  0  0  0  0  0  0  0999 V2000
    0.0675   20.9512  -19.5792 N   0  0  0  0  0  0  0  0  0  0  0  0
    1.2978   20.7304  -20.2943 C   0  0  0  0  0  0  0  0  0  0  0  0
    1.2118   21.0386  -21.7418 C   0  0  0  0  0  0  0  0  0  0  0  0
    2.3464   20.8069  -22.5422 C   0  0  0  0  0  0  0  0  0  0  0  0
    2.2600   21.0933  -23.8457 N   0  0  0  0  0  0  0  0  0  0  0  0
    1.1477   21.5866  -24.4117 C   0  0  0  0  0  0  0  0  0  0  0  0
    0.0916   21.7931  -23.6184 N   0  0  0  0  0  0  0  0  0  0  0  0
    0.0780   21.5429  -22.3259 C   0  0  0  0  0  0  0  0  0  0  0  0
   -1.1057   21.7838  -21.5994 N   0  0  0  0  0  0  0  0  0  0  0  0
   -1.0853   21.4765  -20.2092 C   0  0  0  0  0  0  0  0  0  0  0  0
   -2.0991   21.6570  -19.4607 O   0  0  0  0  0  0  0  0  0  0  0  0
   -0.4241   19.1067  -16.4035 C   0  0  0  0  0  0  0  0  0  0  0  0
    0.0748   20.0210  -15.4988 C   0  0  0  0  0  0  0  0  0  0  0  0
    0.5722   21.2433  -15.9264 C   0  0  0  0  0  0  0  0  0  0  0  0
    0.5555   21.5264  -17.2974 C   0  0  0  0  0  0  0  0  0  0  0  0
    1.1736   23.0583  -17.8748 Cl  0  0  0  0  0  0  0  0  0  0  0  0
    0.0566   20.6101  -18.1945 C   0  0  0  0  0  0  0  0  0  0  0  0
   -0.4392   19.3880  -17.7527 C   0  0  0  0  0  0  0  0  0  0  0  0
   -1.0517   18.2906  -18.9660 Cl  0  0  0  0  0  0  0  0  0  0  0  0
   -0.0337   16.8338  -15.6949 C   0  0  0  0  0  0  0  0  0  0  0  0
   -0.9263   17.8803  -16.0064 O   0  0  0  0  0  0  0  0  0  0  0  0
    1.0819   22.1853  -15.0377 O   0  0  0  0  0  0  0  0  0  0  0  0
    0.5412   22.2116  -13.7312 C   0  0  0  0  0  0  0  0  0  0  0  0
   -2.3149   22.3016  -22.1313 C   0  0  0  0  0  0  0  0  0  0  0  0
   -2.4521   23.7493  -21.7188 C   0  0  0  0  0  0  0  0  0  0  0  0
   -3.3480   24.3894  -22.8009 C   0  0  0  0  0  0  0  0  0  0  0  0
   -4.5745   23.6396  -22.7778 N   0  0  0  0  0  0  0  0  0  0  0  0
   -4.7034   22.6110  -21.7469 C   0  0  0  0  0  0  0  0  0  0  0  0
   -3.5741   21.6087  -21.7474 C   0  0  0  0  0  0  0  0  0  0  0  0
   -5.6176   23.8625  -23.6697 C   0  0  0  0  0  0  0  0  0  0  0  0
   -6.6394   23.0380  -23.4653 O   0  0  0  0  0  0  0  0  0  0  0  0
   -5.8357   24.7665  -24.7411 C   0  0  0  0  0  0  0  0  0  0  0  0
   -5.8013   24.5565  -26.0328 C   0  0  0  0  0  0  0  0  0  0  0  0
   -6.0489   25.6014  -27.0763 C   0  0  0  0  0  0  0  0  0  0  0  0
   -6.1547   25.0923  -28.4013 N   0  0  0  0  0  0  0  0  0  0  0  0
   -5.8894   23.6368  -28.3257 C   0  0  0  0  0  0  0  0  0  0  0  0
   -4.9753   25.6283  -29.1300 C   0  0  0  0  0  0  0  0  0  0  0  0
    1.0826   21.8751  -25.8158 N   0  0  0  0  0  0  0  0  0  0  0  0
    1.9239   21.6357  -26.3952 H   0  0  0  0  0  0  0  0  0  0  0  0
   -0.0413   22.4595  -26.4654 C   0  0  0  0  0  0  0  0  0  0  0  0
    0.0294   22.3641  -27.9958 C   0  0  0  0  0  0  0  0  0  0  0  0
   -0.9770   23.3765  -28.5225 C   0  0  0  0  0  0  0  0  0  0  0  0
   -2.3639   23.1194  -28.0368 C   0  0  0  0  0  0  0  0  0  0  0  0
   -2.4628   22.7830  -26.5883 C   0  0  0  0  0  0  0  0  0  0  0  0
   -1.3753   21.8584  -26.0845 C   0  0  0  0  0  0  0  0  0  0  0  0
 20 21  1  0  0  0
 21 12  1  0  0  0
 12 13  2  0  0  0
 13 14  1  0  0  0
 14 22  1  0  0  0
 22 23  1  0  0  0
 14 15  2  0  0  0
 15 16  1  0  0  0
 15 17  1  0  0  0
 17  1  1  0  0  0
  1  2  1  0  0  0
  2  3  1  0  0  0
  3  4  2  0  0  0
  4  5  1  0  0  0
  5  6  2  0  0  0
  6 38  1  0  0  0
 38 40  1  0  0  0
 40 41  1  0  0  0
 41 42  1  0  0  0
 42 43  1  0  0  0
 43 44  1  0  0  0
 44 45  1  0  0  0
  6  7  1  0  0  0
  7  8  2  0  0  0
  8  9  1  0  0  0
  9 24  1  0  0  0
 24 25  1  0  0  0
 25 26  1  0  0  0
 26 27  1  0  0  0
 27 28  1  0  0  0
 28 29  1  0  0  0
 27 30  1  0  0  0
 30 31  2  0  0  0
 30 32  1  0  0  0
 32 33  2  0  0  0
 33 34  1  0  0  0
 34 35  1  0  0  0
 35 36  1  0  0  0
 35 37  1  0  0  0
  9 10  1  0  0  0
 10 11  2  0  0  0
 17 18  2  0  0  0
 18 19  1  0  0  0
 18 12  1  0  0  0
 10  1  1  0  0  0
  8  3  1  0  0  0
 29 24  1  0  0  0
 45 40  1  0  0  0
 38 39  1  0  0  0
M  END
> <minimizedAffinity>
-8.12278

> <CNNscore>
0.1062649414

> <CNNaffinity>
7.4173340797

> <CNN_VS>
0.7882025838

> <CNNaffinity_variance>
0.0773947984

$$$$
[H]/C(C(=O)N1C([H])([H])C([H])([H])C([H])(N2C(=O)N(c3c(Cl)c(OC([H])([H])[H])c([H])c(OC([H])([H])[H])c3Cl)C([H])([H])c3c([H])nc(N([H])C4([H])C([H])([H])C([H])([H])C([H])([H])C([H])([H])C4([H])[H])nc32)C([H])([H])C1([H])[H])=C(/[H])C([H])([H])N(C([H])([H])[H])C([H])([H])[H]


 45 49  0  0  0  0  0  0  0  0999 V2000
    0.0351   20.9666  -19.4394 N   0  0  0  0  0  0  0  0  0  0  0  0
    1.2710   20.7122  -20.1335 C   0  0  0  0  0  0  0  0  0  0  0  0
    1.2074   20.9885  -21.5886 C   0  0  0  0  0  0  0  0  0  0  0  0
    2.3485   20.7227  -22.3689 C   0  0  0  0  0  0  0  0  0  0  0  0
    2.2825   20.9805  -23.6796 N   0  0  0  0  0  0  0  0  0  0  0  0
    1.1846   21.4763  -24.2708 C   0  0  0  0  0  0  0  0  0  0  0  0
    0.1217   21.7157  -23.4960 N   0  0  0  0  0  0  0  0  0  0  0  0
    0.0884   21.4952  -22.1984 C   0  0  0  0  0  0  0  0  0  0  0  0
   -1.1008   21.7693  -21.4928 N   0  0  0  0  0  0  0  0  0  0  0  0
   -1.1021   21.4935  -20.0958 C   0  0  0  0  0  0  0  0  0  0  0  0
   -2.1225   21.7052  -19.3648 O   0  0  0  0  0  0  0  0  0  0  0  0
    0.4251   21.2024  -15.7623 C   0  0  0  0  0  0  0  0  0  0  0  0
   -0.1021   19.9886  -15.3725 C   0  0  0  0  0  0  0  0  0  0  0  0
   -0.5853   19.0902  -16.3126 C   0  0  0  0  0  0  0  0  0  0  0  0
   -0.5251   19.4451  -17.6655 C   0  0  0  0  0  0  0  0  0  0  0  0
   -1.1241   18.3375  -18.8807 Cl  0  0  0  0  0  0  0  0  0  0  0  0
    0.0020   20.6574  -18.0476 C   0  0  0  0  0  0  0  0  0  0  0  0
    0.4832   21.5492  -17.0950 C   0  0  0  0  0  0  0  0  0  0  0  0
    1.1336   23.0625  -17.6764 Cl  0  0  0  0  0  0  0  0  0  0  0  0
    2.2752   22.0717  -14.4808 C   0  0  0  0  0  0  0  0  0  0  0  0
    0.9142   22.1179  -14.8475 O   0  0  0  0  0  0  0  0  0  0  0  0
   -1.1229   17.8588  -15.9498 O   0  0  0  0  0  0  0  0  0  0  0  0
   -0.2191   16.8092  -15.6643 C   0  0  0  0  0  0  0  0  0  0  0  0
   -2.2956   22.2916  -22.0518 C   0  0  0  0  0  0  0  0  0  0  0  0
   -2.4022   23.7576  -21.6990 C   0  0  0  0  0  0  0  0  0  0  0  0
   -3.2787   24.3730  -22.8109 C   0  0  0  0  0  0  0  0  0  0  0  0
   -4.5218   23.6521  -22.7642 N   0  0  0  0  0  0  0  0  0  0  0  0
   -4.6783   22.6694  -21.6931 C   0  0  0  0  0  0  0  0  0  0  0  0
   -3.5718   21.6431  -21.6469 C   0  0  0  0  0  0  0  0  0  0  0  0
   -5.5557   23.8616  -23.6699 C   0  0  0  0  0  0  0  0  0  0  0  0
   -6.5965   23.0690  -23.4378 O   0  0  0  0  0  0  0  0  0  0  0  0
   -5.7487   24.7259  -24.7782 C   0  0  0  0  0  0  0  0  0  0  0  0
   -5.7856   24.4502  -26.0575 C   0  0  0  0  0  0  0  0  0  0  0  0
   -5.9959   25.4585  -27.1443 C   0  0  0  0  0  0  0  0  0  0  0  0
   -6.3292   24.8961  -28.4086 N   0  0  0  0  0  0  0  0  0  0  0  0
   -5.7257   23.5438  -28.4506 C   0  0  0  0  0  0  0  0  0  0  0  0
   -5.5415   25.6649  -29.4073 C   0  0  0  0  0  0  0  0  0  0  0  0
    1.1412   21.7335  -25.6818 N   0  0  0  0  0  0  0  0  0  0  0  0
    1.9644   21.4219  -26.2527 H   0  0  0  0  0  0  0  0  0  0  0  0
    0.0613   22.3781  -26.3488 C   0  0  0  0  0  0  0  0  0  0  0  0
    0.1468   22.2718  -27.8778 C   0  0  0  0  0  0  0  0  0  0  0  0
   -0.7931   23.3375  -28.4220 C   0  0  0  0  0  0  0  0  0  0  0  0
   -2.1987   23.1623  -27.9542 C   0  0  0  0  0  0  0  0  0  0  0  0
   -2.3359   22.8387  -26.5058 C   0  0  0  0  0  0  0  0  0  0  0  0
   -1.3099   21.8559  -25.9837 C   0  0  0  0  0  0  0  0  0  0  0  0
 20 21  1  0  0  0
 21 12  1  0  0  0
 12 13  2  0  0  0
 13 14  1  0  0  0
 14 22  1  0  0  0
 22 23  1  0  0  0
 14 15  2  0  0  0
 15 16  1  0  0  0
 15 17  1  0  0  0
 17  1  1  0  0  0
  1  2  1  0  0  0
  2  3  1  0  0  0
  3  4  2  0  0  0
  4  5  1  0  0  0
  5  6  2  0  0  0
  6 38  1  0  0  0
 38 40  1  0  0  0
 40 41  1  0  0  0
 41 42  1  0  0  0
 42 43  1  0  0  0
 43 44  1  0  0  0
 44 45  1  0  0  0
  6  7  1  0  0  0
  7  8  2  0  0  0
  8  9  1  0  0  0
  9 24  1  0  0  0
 24 25  1  0  0  0
 25 26  1  0  0  0
 26 27  1  0  0  0
 27 28  1  0  0  0
 28 29  1  0  0  0
 27 30  1  0  0  0
 30 31  2  0  0  0
 30 32  1  0  0  0
 32 33  2  0  0  0
 33 34  1  0  0  0
 34 35  1  0  0  0
 35 36  1  0  0  0
 35 37  1  0  0  0
  9 10  1  0  0  0
 10 11  2  0  0  0
 17 18  2  0  0  0
 18 19  1  0  0  0
 18 12  1  0  0  0
 10  1  1  0  0  0
  8  3  1  0  0  0
 29 24  1  0  0  0
 45 40  1  0  0  0
 38 39  1  0  0  0
M  END
> <minimizedAffinity>
-8.05813

> <CNNscore>
0.0961384475

> <CNNaffinity>
7.3830118179

> <CNN_VS>
0.7097913027

> <CNNaffinity_variance>
0.0626758710

$$$$
[H]/C(C(=O)N1C([H])([H])C([H])([H])C([H])(N2C(=O)N(c3c(Cl)c(OC([H])([H])[H])c([H])c(OC([H])([H])[H])c3Cl)C([H])([H])c3c([H])nc(N([H])C4([H])C([H])([H])C([H])([H])C([H])([H])C([H])([H])C4([H])[H])nc32)C([H])([H])C1([H])[H])=C(/[H])C([H])([H])N(C([H])([H])[H])C([H])([H])[H]


 45 49  0  0  0  0  0  0  0  0999 V2000
    0.0998   21.0252  -19.4498 N   0  0  0  0  0  0  0  0  0  0  0  0
    1.2625   20.7285  -20.2458 C   0  0  0  0  0  0  0  0  0  0  0  0
    1.1140   21.0845  -21.6772 C   0  0  0  0  0  0  0  0  0  0  0  0
    2.1755   20.7870  -22.5527 C   0  0  0  0  0  0  0  0  0  0  0  0
    2.0336   21.1171  -23.8408 N   0  0  0  0  0  0  0  0  0  0  0  0
    0.9326   21.7132  -24.3238 C   0  0  0  0  0  0  0  0  0  0  0  0
   -0.0534   21.9795  -23.4610 N   0  0  0  0  0  0  0  0  0  0  0  0
   -0.0087   21.6937  -22.1766 C   0  0  0  0  0  0  0  0  0  0  0  0
   -1.1228   22.0064  -21.3716 N   0  0  0  0  0  0  0  0  0  0  0  0
   -1.0429   21.6581  -19.9932 C   0  0  0  0  0  0  0  0  0  0  0  0
   -1.9916   21.8965  -19.1785 O   0  0  0  0  0  0  0  0  0  0  0  0
    0.7200   21.0653  -15.7970 C   0  0  0  0  0  0  0  0  0  0  0  0
    0.1909   19.8435  -15.4360 C   0  0  0  0  0  0  0  0  0  0  0  0
   -0.3690   19.0037  -16.3876 C   0  0  0  0  0  0  0  0  0  0  0  0
   -0.3841   19.4260  -17.7223 C   0  0  0  0  0  0  0  0  0  0  0  0
   -1.0811   18.3937  -18.9514 Cl  0  0  0  0  0  0  0  0  0  0  0  0
    0.1453   20.6459  -18.0758 C   0  0  0  0  0  0  0  0  0  0  0  0
    0.7039   21.4786  -17.1118 C   0  0  0  0  0  0  0  0  0  0  0  0
    1.3509   23.0069  -17.6566 Cl  0  0  0  0  0  0  0  0  0  0  0  0
    1.7484   21.4088  -13.6417 C   0  0  0  0  0  0  0  0  0  0  0  0
    1.2846   21.9234  -14.8701 O   0  0  0  0  0  0  0  0  0  0  0  0
   -0.9105   17.7658  -16.0537 O   0  0  0  0  0  0  0  0  0  0  0  0
   -0.3452   17.0800  -14.9537 C   0  0  0  0  0  0  0  0  0  0  0  0
   -2.3162   22.6335  -21.8139 C   0  0  0  0  0  0  0  0  0  0  0  0
   -3.0811   21.6689  -22.6910 C   0  0  0  0  0  0  0  0  0  0  0  0
   -4.5554   22.1138  -22.5823 C   0  0  0  0  0  0  0  0  0  0  0  0
   -4.5789   23.4801  -23.0294 N   0  0  0  0  0  0  0  0  0  0  0  0
   -3.3247   24.0326  -23.5384 C   0  0  0  0  0  0  0  0  0  0  0  0
   -2.1710   23.9048  -22.5728 C   0  0  0  0  0  0  0  0  0  0  0  0
   -5.7251   24.2668  -23.0067 C   0  0  0  0  0  0  0  0  0  0  0  0
   -5.4994   25.4979  -23.4526 O   0  0  0  0  0  0  0  0  0  0  0  0
   -7.0725   24.0525  -22.6180 C   0  0  0  0  0  0  0  0  0  0  0  0
   -7.8367   24.7596  -21.8243 C   0  0  0  0  0  0  0  0  0  0  0  0
   -9.2568   24.4277  -21.4849 C   0  0  0  0  0  0  0  0  0  0  0  0
  -10.0591   25.5561  -21.1548 N   0  0  0  0  0  0  0  0  0  0  0  0
   -9.1390   26.6121  -20.6722 C   0  0  0  0  0  0  0  0  0  0  0  0
  -10.8163   25.1647  -19.9371 C   0  0  0  0  0  0  0  0  0  0  0  0
    0.8059   22.0465  -25.7137 N   0  0  0  0  0  0  0  0  0  0  0  0
    1.6722   21.9887  -26.3027 H   0  0  0  0  0  0  0  0  0  0  0  0
   -0.4098   22.4464  -26.3372 C   0  0  0  0  0  0  0  0  0  0  0  0
   -0.2961   22.5601  -27.8638 C   0  0  0  0  0  0  0  0  0  0  0  0
   -1.4947   23.3845  -28.3099 C   0  0  0  0  0  0  0  0  0  0  0  0
   -2.7967   22.7711  -27.9175 C   0  0  0  0  0  0  0  0  0  0  0  0
   -2.8403   22.2436  -26.5243 C   0  0  0  0  0  0  0  0  0  0  0  0
   -1.5820   21.5247  -26.0871 C   0  0  0  0  0  0  0  0  0  0  0  0
 20 21  1  0  0  0
 21 12  1  0  0  0
 12 13  2  0  0  0
 13 14  1  0  0  0
 14 22  1  0  0  0
 22 23  1  0  0  0
 14 15  2  0  0  0
 15 16  1  0  0  0
 15 17  1  0  0  0
 17  1  1  0  0  0
  1  2  1  0  0  0
  2  3  1  0  0  0
  3  4  2  0  0  0
  4  5  1  0  0  0
  5  6  2  0  0  0
  6 38  1  0  0  0
 38 40  1  0  0  0
 40 41  1  0  0  0
 41 42  1  0  0  0
 42 43  1  0  0  0
 43 44  1  0  0  0
 44 45  1  0  0  0
  6  7  1  0  0  0
  7  8  2  0  0  0
  8  9  1  0  0  0
  9 24  1  0  0  0
 24 25  1  0  0  0
 25 26  1  0  0  0
 26 27  1  0  0  0
 27 28  1  0  0  0
 28 29  1  0  0  0
 27 30  1  0  0  0
 30 31  2  0  0  0
 30 32  1  0  0  0
 32 33  2  0  0  0
 33 34  1  0  0  0
 34 35  1  0  0  0
 35 36  1  0  0  0
 35 37  1  0  0  0
  9 10  1  0  0  0
 10 11  2  0  0  0
 17 18  2  0  0  0
 18 19  1  0  0  0
 18 12  1  0  0  0
 10  1  1  0  0  0
  8  3  1  0  0  0
 29 24  1  0  0  0
 45 40  1  0  0  0
 38 39  1  0  0  0
M  END
> <minimizedAffinity>
-7.47616

> <CNNscore>
0.0850159377

> <CNNaffinity>
7.0892539024

> <CNN_VS>
0.6026995778

> <CNNaffinity_variance>
0.0570582971

$$$$
[H]/C(C(=O)N1C([H])([H])C([H])([H])C([H])(N2C(=O)N(c3c(Cl)c(OC([H])([H])[H])c([H])c(OC([H])([H])[H])c3Cl)C([H])([H])c3c([H])nc(N([H])C4([H])C([H])([H])C([H])([H])C([H])([H])C([H])([H])C4([H])[H])nc32)C([H])([H])C1([H])[H])=C(/[H])C([H])([H])N(C([H])([H])[H])C([H])([H])[H]


 45 49  0  0  0  0  0  0  0  0999 V2000
   -0.2677   21.1384  -20.9016 N   0  0  0  0  0  0  0  0  0  0  0  0
    0.4891   21.2703  -22.1196 C   0  0  0  0  0  0  0  0  0  0  0  0
   -0.3208   21.7047  -23.2829 C   0  0  0  0  0  0  0  0  0  0  0  0
    0.3140   21.8142  -24.5346 C   0  0  0  0  0  0  0  0  0  0  0  0
   -0.4244   22.2120  -25.5763 N   0  0  0  0  0  0  0  0  0  0  0  0
   -1.7296   22.5067  -25.4748 C   0  0  0  0  0  0  0  0  0  0  0  0
   -2.2961   22.3907  -24.2694 N   0  0  0  0  0  0  0  0  0  0  0  0
   -1.6549   22.0073  -23.1853 C   0  0  0  0  0  0  0  0  0  0  0  0
   -2.3688   21.9038  -21.9742 N   0  0  0  0  0  0  0  0  0  0  0  0
   -1.6432   21.4620  -20.8315 C   0  0  0  0  0  0  0  0  0  0  0  0
   -2.1907   21.3349  -19.6892 O   0  0  0  0  0  0  0  0  0  0  0  0
    1.3516   18.8880  -18.4434 C   0  0  0  0  0  0  0  0  0  0  0  0
    1.8012   19.8055  -17.5167 C   0  0  0  0  0  0  0  0  0  0  0  0
    1.5744   21.1625  -17.6940 C   0  0  0  0  0  0  0  0  0  0  0  0
    0.8786   21.5779  -18.8356 C   0  0  0  0  0  0  0  0  0  0  0  0
    0.5725   23.2814  -19.0934 Cl  0  0  0  0  0  0  0  0  0  0  0  0
    0.4328   20.6575  -19.7563 C   0  0  0  0  0  0  0  0  0  0  0  0
    0.6668   19.2997  -19.5666 C   0  0  0  0  0  0  0  0  0  0  0  0
    0.0623   18.2082  -20.7891 Cl  0  0  0  0  0  0  0  0  0  0  0  0
    0.8326   16.8175  -17.3189 C   0  0  0  0  0  0  0  0  0  0  0  0
    1.5631   17.5290  -18.2932 O   0  0  0  0  0  0  0  0  0  0  0  0
    2.0159   22.1116  -16.7766 O   0  0  0  0  0  0  0  0  0  0  0  0
    1.3602   22.1657  -15.5248 C   0  0  0  0  0  0  0  0  0  0  0  0
   -3.7453   22.1974  -21.7948 C   0  0  0  0  0  0  0  0  0  0  0  0
   -3.8800   23.5966  -21.2391 C   0  0  0  0  0  0  0  0  0  0  0  0
   -5.2830   24.0674  -21.6791 C   0  0  0  0  0  0  0  0  0  0  0  0
   -6.2014   23.1100  -21.1249 N   0  0  0  0  0  0  0  0  0  0  0  0
   -5.6377   22.0737  -20.2613 C   0  0  0  0  0  0  0  0  0  0  0  0
   -4.5203   21.2898  -20.9066 C   0  0  0  0  0  0  0  0  0  0  0  0
   -7.5703   23.1436  -21.3655 C   0  0  0  0  0  0  0  0  0  0  0  0
   -8.2121   22.1493  -20.7614 O   0  0  0  0  0  0  0  0  0  0  0  0
   -8.4308   23.9953  -22.1051 C   0  0  0  0  0  0  0  0  0  0  0  0
   -9.3845   24.7885  -21.6866 C   0  0  0  0  0  0  0  0  0  0  0  0
  -10.2346   25.6457  -22.5725 C   0  0  0  0  0  0  0  0  0  0  0  0
  -10.2466   27.0239  -22.2173 N   0  0  0  0  0  0  0  0  0  0  0  0
  -10.2974   27.0869  -20.7381 C   0  0  0  0  0  0  0  0  0  0  0  0
  -11.5783   27.5327  -22.6378 C   0  0  0  0  0  0  0  0  0  0  0  0
   -2.4978   22.9219  -26.6134 N   0  0  0  0  0  0  0  0  0  0  0  0
   -2.0146   22.9230  -27.5447 H   0  0  0  0  0  0  0  0  0  0  0  0
   -3.8612   23.3277  -26.5590 C   0  0  0  0  0  0  0  0  0  0  0  0
   -4.0555   24.7044  -25.9083 C   0  0  0  0  0  0  0  0  0  0  0  0
   -5.5306   24.7880  -25.5446 C   0  0  0  0  0  0  0  0  0  0  0  0
   -6.4274   24.6263  -26.7257 C   0  0  0  0  0  0  0  0  0  0  0  0
   -6.0383   23.5288  -27.6558 C   0  0  0  0  0  0  0  0  0  0  0  0
   -4.5492   23.4153  -27.9026 C   0  0  0  0  0  0  0  0  0  0  0  0
 20 21  1  0  0  0
 21 12  1  0  0  0
 12 13  2  0  0  0
 13 14  1  0  0  0
 14 22  1  0  0  0
 22 23  1  0  0  0
 14 15  2  0  0  0
 15 16  1  0  0  0
 15 17  1  0  0  0
 17  1  1  0  0  0
  1  2  1  0  0  0
  2  3  1  0  0  0
  3  4  2  0  0  0
  4  5  1  0  0  0
  5  6  2  0  0  0
  6 38  1  0  0  0
 38 40  1  0  0  0
 40 41  1  0  0  0
 41 42  1  0  0  0
 42 43  1  0  0  0
 43 44  1  0  0  0
 44 45  1  0  0  0
  6  7  1  0  0  0
  7  8  2  0  0  0
  8  9  1  0  0  0
  9 24  1  0  0  0
 24 25  1  0  0  0
 25 26  1  0  0  0
 26 27  1  0  0  0
 27 28  1  0  0  0
 28 29  1  0  0  0
 27 30  1  0  0  0
 30 31  2  0  0  0
 30 32  1  0  0  0
 32 33  2  0  0  0
 33 34  1  0  0  0
 34 35  1  0  0  0
 35 36  1  0  0  0
 35 37  1  0  0  0
  9 10  1  0  0  0
 10 11  2  0  0  0
 17 18  2  0  0  0
 18 19  1  0  0  0
 18 12  1  0  0  0
 10  1  1  0  0  0
  8  3  1  0  0  0
 29 24  1  0  0  0
 45 40  1  0  0  0
 38 39  1  0  0  0
M  END
> <minimizedAffinity>
-7.81214

> <CNNscore>
0.0822443590

> <CNNaffinity>
7.4034852982

> <CNN_VS>
0.6088948846

> <CNNaffinity_variance>
0.2051789463

$$$$
[H]/C(C(=O)N1C([H])([H])C([H])([H])C([H])(N2C(=O)N(c3c(Cl)c(OC([H])([H])[H])c([H])c(OC([H])([H])[H])c3Cl)C([H])([H])c3c([H])nc(N([H])C4([H])C([H])([H])C([H])([H])C([H])([H])C([H])([H])C4([H])[H])nc32)C([H])([H])C1([H])[H])=C(/[H])C([H])([H])N(C([H])([H])[H])C([H])([H])[H]


 45 49  0  0  0  0  0  0  0  0999 V2000
   -0.0400   21.0977  -19.3432 N   0  0  0  0  0  0  0  0  0  0  0  0
    1.1421   20.7738  -20.0993 C   0  0  0  0  0  0  0  0  0  0  0  0
    1.0395   21.1055  -21.5406 C   0  0  0  0  0  0  0  0  0  0  0  0
    2.1226   20.7805  -22.3790 C   0  0  0  0  0  0  0  0  0  0  0  0
    2.0222   21.0887  -23.6764 N   0  0  0  0  0  0  0  0  0  0  0  0
    0.9427   21.6880  -24.2021 C   0  0  0  0  0  0  0  0  0  0  0  0
   -0.0648   21.9808  -23.3736 N   0  0  0  0  0  0  0  0  0  0  0  0
   -0.0610   21.7179  -22.0835 C   0  0  0  0  0  0  0  0  0  0  0  0
   -1.1945   22.0573  -21.3173 N   0  0  0  0  0  0  0  0  0  0  0  0
   -1.1589   21.7332  -19.9312 C   0  0  0  0  0  0  0  0  0  0  0  0
   -2.1281   21.9967  -19.1491 O   0  0  0  0  0  0  0  0  0  0  0  0
   -0.5679   19.2523  -16.1738 C   0  0  0  0  0  0  0  0  0  0  0  0
    0.0071   20.1246  -15.2731 C   0  0  0  0  0  0  0  0  0  0  0  0
    0.5679   21.3191  -15.7011 C   0  0  0  0  0  0  0  0  0  0  0  0
    0.5361   21.6174  -17.0686 C   0  0  0  0  0  0  0  0  0  0  0  0
    1.2326   23.1151  -17.6465 Cl  0  0  0  0  0  0  0  0  0  0  0  0
   -0.0389   20.7429  -17.9619 C   0  0  0  0  0  0  0  0  0  0  0  0
   -0.5978   19.5485  -17.5196 C   0  0  0  0  0  0  0  0  0  0  0  0
   -1.3046   18.5035  -18.7278 Cl  0  0  0  0  0  0  0  0  0  0  0  0
   -1.5531   17.8959  -14.4387 C   0  0  0  0  0  0  0  0  0  0  0  0
   -1.1345   18.0544  -15.7761 O   0  0  0  0  0  0  0  0  0  0  0  0
    1.1551   22.2187  -14.8163 O   0  0  0  0  0  0  0  0  0  0  0  0
    0.6369   22.2757  -13.5017 C   0  0  0  0  0  0  0  0  0  0  0  0
   -2.3671   22.6894  -21.8056 C   0  0  0  0  0  0  0  0  0  0  0  0
   -3.1253   21.7123  -22.6748 C   0  0  0  0  0  0  0  0  0  0  0  0
   -4.5948   22.1815  -22.6144 C   0  0  0  0  0  0  0  0  0  0  0  0
   -4.5867   23.5352  -23.0988 N   0  0  0  0  0  0  0  0  0  0  0  0
   -3.3123   24.0552  -23.5915 C   0  0  0  0  0  0  0  0  0  0  0  0
   -2.1843   23.9372  -22.5948 C   0  0  0  0  0  0  0  0  0  0  0  0
   -5.7209   24.3389  -23.1255 C   0  0  0  0  0  0  0  0  0  0  0  0
   -5.4657   25.5539  -23.5989 O   0  0  0  0  0  0  0  0  0  0  0  0
   -7.0804   24.1550  -22.7644 C   0  0  0  0  0  0  0  0  0  0  0  0
   -7.8232   24.8354  -21.9282 C   0  0  0  0  0  0  0  0  0  0  0  0
   -9.2597   24.5410  -21.6252 C   0  0  0  0  0  0  0  0  0  0  0  0
   -9.9928   25.6539  -21.1251 N   0  0  0  0  0  0  0  0  0  0  0  0
   -9.0024   26.6143  -20.5853 C   0  0  0  0  0  0  0  0  0  0  0  0
  -10.6973   25.1562  -19.9147 C   0  0  0  0  0  0  0  0  0  0  0  0
    0.8605   21.9975  -25.6008 N   0  0  0  0  0  0  0  0  0  0  0  0
    1.7340   21.8827  -26.1706 H   0  0  0  0  0  0  0  0  0  0  0  0
   -0.3205   22.4457  -26.2572 C   0  0  0  0  0  0  0  0  0  0  0  0
   -0.1804   22.4937  -27.7851 C   0  0  0  0  0  0  0  0  0  0  0  0
   -1.3209   23.3711  -28.2799 C   0  0  0  0  0  0  0  0  0  0  0  0
   -2.6627   22.8526  -27.8846 C   0  0  0  0  0  0  0  0  0  0  0  0
   -2.7562   22.3825  -26.4735 C   0  0  0  0  0  0  0  0  0  0  0  0
   -1.5496   21.6064  -25.9906 C   0  0  0  0  0  0  0  0  0  0  0  0
 20 21  1  0  0  0
 21 12  1  0  0  0
 12 13  2  0  0  0
 13 14  1  0  0  0
 14 22  1  0  0  0
 22 23  1  0  0  0
 14 15  2  0  0  0
 15 16  1  0  0  0
 15 17  1  0  0  0
 17  1  1  0  0  0
  1  2  1  0  0  0
  2  3  1  0  0  0
  3  4  2  0  0  0
  4  5  1  0  0  0
  5  6  2  0  0  0
  6 38  1  0  0  0
 38 40  1  0  0  0
 40 41  1  0  0  0
 41 42  1  0  0  0
 42 43  1  0  0  0
 43 44  1  0  0  0
 44 45  1  0  0  0
  6  7  1  0  0  0
  7  8  2  0  0  0
  8  9  1  0  0  0
  9 24  1  0  0  0
 24 25  1  0  0  0
 25 26  1  0  0  0
 26 27  1  0  0  0
 27 28  1  0  0  0
 28 29  1  0  0  0
 27 30  1  0  0  0
 30 31  2  0  0  0
 30 32  1  0  0  0
 32 33  2  0  0  0
 33 34  1  0  0  0
 34 35  1  0  0  0
 35 36  1  0  0  0
 35 37  1  0  0  0
  9 10  1  0  0  0
 10 11  2  0  0  0
 17 18  2  0  0  0
 18 19  1  0  0  0
 18 12  1  0  0  0
 10  1  1  0  0  0
  8  3  1  0  0  0
 29 24  1  0  0  0
 45 40  1  0  0  0
 38 39  1  0  0  0
M  END
> <minimizedAffinity>
-7.70677

> <CNNscore>
0.0805452392

> <CNNaffinity>
7.0715990067

> <CNN_VS>
0.5695836544

> <CNNaffinity_variance>
0.0691199824

$$$$
[H]/C(C(=O)N1C([H])([H])C([H])([H])C([H])(N2C(=O)N(c3c(Cl)c(OC([H])([H])[H])c([H])c(OC([H])([H])[H])c3Cl)C([H])([H])c3c([H])nc(N([H])C4([H])C([H])([H])C([H])([H])C([H])([H])C([H])([H])C4([H])[H])nc32)C([H])([H])C1([H])[H])=C(/[H])C([H])([H])N(C([H])([H])[H])C([H])([H])[H]


 45 49  0  0  0  0  0  0  0  0999 V2000
   -5.2931   22.9060  -22.3624 N   0  0  0  0  0  0  0  0  0  0  0  0
   -6.6958   22.5800  -22.3609 C   0  0  0  0  0  0  0  0  0  0  0  0
   -7.1606   21.9443  -21.1049 C   0  0  0  0  0  0  0  0  0  0  0  0
   -8.5059   21.5385  -21.0203 C   0  0  0  0  0  0  0  0  0  0  0  0
   -8.9164   20.9709  -19.8811 N   0  0  0  0  0  0  0  0  0  0  0  0
   -8.1054   20.7763  -18.8299 C   0  0  0  0  0  0  0  0  0  0  0  0
   -6.8349   21.1753  -18.9489 N   0  0  0  0  0  0  0  0  0  0  0  0
   -6.3365   21.7427  -20.0273 C   0  0  0  0  0  0  0  0  0  0  0  0
   -4.9732   22.1012  -20.0384 N   0  0  0  0  0  0  0  0  0  0  0  0
   -4.4689   22.6894  -21.2331 C   0  0  0  0  0  0  0  0  0  0  0  0
   -3.2538   23.0510  -21.3492 O   0  0  0  0  0  0  0  0  0  0  0  0
   -4.2258   25.3118  -24.9705 C   0  0  0  0  0  0  0  0  0  0  0  0
   -3.7078   24.4497  -25.9147 C   0  0  0  0  0  0  0  0  0  0  0  0
   -3.7078   23.0792  -25.7001 C   0  0  0  0  0  0  0  0  0  0  0  0
   -4.2458   22.5926  -24.5027 C   0  0  0  0  0  0  0  0  0  0  0  0
   -4.2642   20.8698  -24.1964 Cl  0  0  0  0  0  0  0  0  0  0  0  0
   -4.7609   23.4579  -23.5649 C   0  0  0  0  0  0  0  0  0  0  0  0
   -4.7549   24.8300  -23.7925 C   0  0  0  0  0  0  0  0  0  0  0  0
   -5.4309   25.8480  -22.5443 Cl  0  0  0  0  0  0  0  0  0  0  0  0
   -5.2948   27.2729  -25.8827 C   0  0  0  0  0  0  0  0  0  0  0  0
   -4.2393   26.6826  -25.1571 O   0  0  0  0  0  0  0  0  0  0  0  0
   -3.1922   22.1850  -26.6337 O   0  0  0  0  0  0  0  0  0  0  0  0
   -2.0520   22.5893  -27.3661 C   0  0  0  0  0  0  0  0  0  0  0  0
   -4.0601   21.9244  -18.9670 C   0  0  0  0  0  0  0  0  0  0  0  0
   -3.4868   20.5276  -19.0365 C   0  0  0  0  0  0  0  0  0  0  0  0
   -2.1172   20.6227  -18.3303 C   0  0  0  0  0  0  0  0  0  0  0  0
   -2.4016   21.0897  -17.0006 N   0  0  0  0  0  0  0  0  0  0  0  0
   -3.8098   21.2425  -16.6387 C   0  0  0  0  0  0  0  0  0  0  0  0
   -4.5873   22.1205  -17.5897 C   0  0  0  0  0  0  0  0  0  0  0  0
   -1.4106   21.3801  -16.0696 C   0  0  0  0  0  0  0  0  0  0  0  0
   -1.9130   21.8103  -14.9173 O   0  0  0  0  0  0  0  0  0  0  0  0
    0.0068   21.3202  -16.0726 C   0  0  0  0  0  0  0  0  0  0  0  0
    0.8643   21.7572  -15.1851 C   0  0  0  0  0  0  0  0  0  0  0  0
    2.3523   21.6367  -15.3015 C   0  0  0  0  0  0  0  0  0  0  0  0
    3.0750   22.7084  -14.7056 N   0  0  0  0  0  0  0  0  0  0  0  0
    2.1121   23.4670  -13.8738 C   0  0  0  0  0  0  0  0  0  0  0  0
    3.3928   23.6422  -15.8174 C   0  0  0  0  0  0  0  0  0  0  0  0
   -8.5730   20.1554  -17.6238 N   0  0  0  0  0  0  0  0  0  0  0  0
   -9.2393   19.3512  -17.7243 H   0  0  0  0  0  0  0  0  0  0  0  0
   -8.1927   20.5581  -16.3123 C   0  0  0  0  0  0  0  0  0  0  0  0
   -9.3810   20.6692  -15.3469 C   0  0  0  0  0  0  0  0  0  0  0  0
   -8.8848   21.4965  -14.1702 C   0  0  0  0  0  0  0  0  0  0  0  0
   -7.7036   20.8876  -13.4924 C   0  0  0  0  0  0  0  0  0  0  0  0
   -6.6592   20.3622  -14.4167 C   0  0  0  0  0  0  0  0  0  0  0  0
   -7.2031   19.6402  -15.6308 C   0  0  0  0  0  0  0  0  0  0  0  0
 20 21  1  0  0  0
 21 12  1  0  0  0
 12 13  2  0  0  0
 13 14  1  0  0  0
 14 22  1  0  0  0
 22 23  1  0  0  0
 14 15  2  0  0  0
 15 16  1  0  0  0
 15 17  1  0  0  0
 17  1  1  0  0  0
  1  2  1  0  0  0
  2  3  1  0  0  0
  3  4  2  0  0  0
  4  5  1  0  0  0
  5  6  2  0  0  0
  6 38  1  0  0  0
 38 40  1  0  0  0
 40 41  1  0  0  0
 41 42  1  0  0  0
 42 43  1  0  0  0
 43 44  1  0  0  0
 44 45  1  0  0  0
  6  7  1  0  0  0
  7  8  2  0  0  0
  8  9  1  0  0  0
  9 24  1  0  0  0
 24 25  1  0  0  0
 25 26  1  0  0  0
 26 27  1  0  0  0
 27 28  1  0  0  0
 28 29  1  0  0  0
 27 30  1  0  0  0
 30 31  2  0  0  0
 30 32  1  0  0  0
 32 33  2  0  0  0
 33 34  1  0  0  0
 34 35  1  0  0  0
 35 36  1  0  0  0
 35 37  1  0  0  0
  9 10  1  0  0  0
 10 11  2  0  0  0
 17 18  2  0  0  0
 18 19  1  0  0  0
 18 12  1  0  0  0
 10  1  1  0  0  0
  8  3  1  0  0  0
 29 24  1  0  0  0
 45 40  1  0  0  0
 38 39  1  0  0  0
M  END
> <minimizedAffinity>
-6.29905

> <CNNscore>
0.0562291294

> <CNNaffinity>
6.6190390587

> <CNN_VS>
0.3721828163

> <CNNaffinity_variance>
0.1473426372

$$$$
[H]/C(C(=O)N1C([H])([H])C([H])([H])C([H])(N2C(=O)N(c3c(Cl)c(OC([H])([H])[H])c([H])c(OC([H])([H])[H])c3Cl)C([H])([H])c3c([H])nc(N([H])C4([H])C([H])([H])C([H])([H])C([H])([H])C([H])([H])C4([H])[H])nc32)C([H])([H])C1([H])[H])=C(/[H])C([H])([H])N(C([H])([H])[H])C([H])([H])[H]


 45 49  0  0  0  0  0  0  0  0999 V2000
    1.1154   20.7827  -20.7717 N   0  0  0  0  0  0  0  0  0  0  0  0
    1.6546   20.7921  -22.1070 C   0  0  0  0  0  0  0  0  0  0  0  0
    0.7429   21.3827  -23.1159 C   0  0  0  0  0  0  0  0  0  0  0  0
    1.1538   21.3927  -24.4622 C   0  0  0  0  0  0  0  0  0  0  0  0
    0.3264   21.9326  -25.3636 N   0  0  0  0  0  0  0  0  0  0  0  0
   -0.8645   22.4581  -25.0375 C   0  0  0  0  0  0  0  0  0  0  0  0
   -1.2189   22.4300  -23.7486 N   0  0  0  0  0  0  0  0  0  0  0  0
   -0.4752   21.9212  -22.7887 C   0  0  0  0  0  0  0  0  0  0  0  0
   -0.9689   21.9321  -21.4683 N   0  0  0  0  0  0  0  0  0  0  0  0
   -0.1438   21.3498  -20.4645 C   0  0  0  0  0  0  0  0  0  0  0  0
   -0.4931   21.3082  -19.2410 O   0  0  0  0  0  0  0  0  0  0  0  0
    2.6462   18.2502  -18.5418 C   0  0  0  0  0  0  0  0  0  0  0  0
    3.4820   19.0476  -17.7879 C   0  0  0  0  0  0  0  0  0  0  0  0
    3.5456   20.4159  -18.0071 C   0  0  0  0  0  0  0  0  0  0  0  0
    2.7413   20.9675  -19.0116 C   0  0  0  0  0  0  0  0  0  0  0  0
    2.7933   22.6897  -19.3171 Cl  0  0  0  0  0  0  0  0  0  0  0  0
    1.9097   20.1666  -19.7602 C   0  0  0  0  0  0  0  0  0  0  0  0
    1.8554   18.7959  -19.5302 C   0  0  0  0  0  0  0  0  0  0  0  0
    0.7697   17.8621  -20.5305 Cl  0  0  0  0  0  0  0  0  0  0  0  0
    3.5934   16.0495  -18.8253 C   0  0  0  0  0  0  0  0  0  0  0  0
    2.5620   16.8832  -18.3458 O   0  0  0  0  0  0  0  0  0  0  0  0
    4.3791   21.2456  -17.2629 O   0  0  0  0  0  0  0  0  0  0  0  0
    3.9408   21.6261  -15.9733 C   0  0  0  0  0  0  0  0  0  0  0  0
   -2.2151   22.4683  -21.0529 C   0  0  0  0  0  0  0  0  0  0  0  0
   -3.2957   21.4381  -21.2897 C   0  0  0  0  0  0  0  0  0  0  0  0
   -4.4056   21.7833  -20.2736 C   0  0  0  0  0  0  0  0  0  0  0  0
   -4.7908   23.1366  -20.5695 N   0  0  0  0  0  0  0  0  0  0  0  0
   -4.1662   23.7642  -21.7329 C   0  0  0  0  0  0  0  0  0  0  0  0
   -2.6570   23.7328  -21.7002 C   0  0  0  0  0  0  0  0  0  0  0  0
   -5.7206   23.8435  -19.8154 C   0  0  0  0  0  0  0  0  0  0  0  0
   -5.9020   25.0790  -20.2695 O   0  0  0  0  0  0  0  0  0  0  0  0
   -6.5146   23.5447  -18.6783 C   0  0  0  0  0  0  0  0  0  0  0  0
   -6.1481   23.2171  -17.4650 C   0  0  0  0  0  0  0  0  0  0  0  0
   -7.0884   22.9196  -16.3383 C   0  0  0  0  0  0  0  0  0  0  0  0
   -6.4658   22.8425  -15.0607 N   0  0  0  0  0  0  0  0  0  0  0  0
   -7.0394   23.9312  -14.2358 C   0  0  0  0  0  0  0  0  0  0  0  0
   -5.0581   23.2680  -15.2766 C   0  0  0  0  0  0  0  0  0  0  0  0
   -1.7349   23.0218  -26.0291 N   0  0  0  0  0  0  0  0  0  0  0  0
   -1.3204   23.2299  -26.9702 H   0  0  0  0  0  0  0  0  0  0  0  0
   -3.1123   23.3132  -25.8181 C   0  0  0  0  0  0  0  0  0  0  0  0
   -3.7526   24.0792  -26.9841 C   0  0  0  0  0  0  0  0  0  0  0  0
   -5.0426   24.6704  -26.4349 C   0  0  0  0  0  0  0  0  0  0  0  0
   -5.9741   23.6331  -25.9044 C   0  0  0  0  0  0  0  0  0  0  0  0
   -5.3241   22.5808  -25.0729 C   0  0  0  0  0  0  0  0  0  0  0  0
   -3.9894   22.1007  -25.6015 C   0  0  0  0  0  0  0  0  0  0  0  0
 20 21  1  0  0  0
 21 12  1  0  0  0
 12 13  2  0  0  0
 13 14  1  0  0  0
 14 22  1  0  0  0
 22 23  1  0  0  0
 14 15  2  0  0  0
 15 16  1  0  0  0
 15 17  1  0  0  0
 17  1  1  0  0  0
  1  2  1  0  0  0
  2  3  1  0  0  0
  3  4  2  0  0  0
  4  5  1  0  0  0
  5  6  2  0  0  0
  6 38  1  0  0  0
 38 40  1  0  0  0
 40 41  1  0  0  0
 41 42  1  0  0  0
 42 43  1  0  0  0
 43 44  1  0  0  0
 44 45  1  0  0  0
  6  7  1  0  0  0
  7  8  2  0  0  0
  8  9  1  0  0  0
  9 24  1  0  0  0
 24 25  1  0  0  0
 25 26  1  0  0  0
 26 27  1  0  0  0
 27 28  1  0  0  0
 28 29  1  0  0  0
 27 30  1  0  0  0
 30 31  2  0  0  0
 30 32  1  0  0  0
 32 33  2  0  0  0
 33 34  1  0  0  0
 34 35  1  0  0  0
 35 36  1  0  0  0
 35 37  1  0  0  0
  9 10  1  0  0  0
 10 11  2  0  0  0
 17 18  2  0  0  0
 18 19  1  0  0  0
 18 12  1  0  0  0
 10  1  1  0  0  0
  8  3  1  0  0  0
 29 24  1  0  0  0
 45 40  1  0  0  0
 38 39  1  0  0  0
M  END
> <minimizedAffinity>
-6.89330

> <CNNscore>
0.0520231463

> <CNNaffinity>
6.9702291489

> <CNN_VS>
0.3626132607

> <CNNaffinity_variance>
0.0759911835

$$$$
[H]c1nc(N([H])[H])c(-c2nn(-c3c([H])c(OC([H])([H])[H])c([H])c(OC([H])([H])[H])c3[H])c(=O)c(C([H])([H])[H])c2[H])nc1-c1c([H])nn(C2([H])C([H])([H])C([H])([H])N([H])C([H])([H])C2([H])[H])c1[H]


 39 43  0  0  0  0  0  0  0  0999 V2000
   -1.6984   22.8343  -26.8909 C   0  0  0  0  0  0  0  0  0  0  0  0
   -1.2690   22.3996  -25.6560 N   0  0  0  0  0  0  0  0  0  0  0  0
   -0.0134   22.1309  -25.3627 C   0  0  0  0  0  0  0  0  0  0  0  0
    0.9343   22.2924  -26.3470 C   0  0  0  0  0  0  0  0  0  0  0  0
    0.6032   22.7066  -27.5605 N   0  0  0  0  0  0  0  0  0  0  0  0
   -0.7211   22.9741  -27.8172 C   0  0  0  0  0  0  0  0  0  0  0  0
   -0.9547   23.4078  -29.1409 N   0  0  0  0  0  0  0  0  0  0  0  0
   -0.9231   24.4043  -29.4412 H   0  0  0  0  0  0  0  0  0  0  0  0
   -1.1637   22.6940  -29.8699 H   0  0  0  0  0  0  0  0  0  0  0  0
   -5.1607   23.4617  -25.9450 N   0  0  0  0  0  0  0  0  0  0  0  0
   -3.8796   23.2293  -25.9261 N   0  0  0  0  0  0  0  0  0  0  0  0
   -3.1154   23.0919  -27.0703 C   0  0  0  0  0  0  0  0  0  0  0  0
   -3.7453   23.2075  -28.2671 C   0  0  0  0  0  0  0  0  0  0  0  0
   -5.1160   23.4562  -28.3185 C   0  0  0  0  0  0  0  0  0  0  0  0
   -5.7605   23.5746  -29.6379 C   0  0  0  0  0  0  0  0  0  0  0  0
   -5.7918   23.5775  -27.1270 C   0  0  0  0  0  0  0  0  0  0  0  0
   -7.0304   23.8023  -27.1351 O   0  0  0  0  0  0  0  0  0  0  0  0
   -6.9680   22.6056  -22.8661 C   0  0  0  0  0  0  0  0  0  0  0  0
   -7.3885   23.8319  -22.3920 C   0  0  0  0  0  0  0  0  0  0  0  0
   -7.0694   24.9648  -23.1017 C   0  0  0  0  0  0  0  0  0  0  0  0
   -6.3320   24.8318  -24.2751 C   0  0  0  0  0  0  0  0  0  0  0  0
   -5.9214   23.5985  -24.7321 C   0  0  0  0  0  0  0  0  0  0  0  0
   -6.2393   22.4698  -24.0251 C   0  0  0  0  0  0  0  0  0  0  0  0
   -8.0812   21.5187  -20.9907 C   0  0  0  0  0  0  0  0  0  0  0  0
   -7.2921   21.4502  -22.1448 O   0  0  0  0  0  0  0  0  0  0  0  0
   -7.4877   26.1913  -22.6309 O   0  0  0  0  0  0  0  0  0  0  0  0
   -7.8937   26.3077  -21.2856 C   0  0  0  0  0  0  0  0  0  0  0  0
    0.4342   21.6715  -24.0560 C   0  0  0  0  0  0  0  0  0  0  0  0
   -0.3495   21.3930  -22.9366 C   0  0  0  0  0  0  0  0  0  0  0  0
    0.4758   20.9991  -21.9540 N   0  0  0  0  0  0  0  0  0  0  0  0
    1.7260   21.0062  -22.3653 N   0  0  0  0  0  0  0  0  0  0  0  0
    1.7237   21.4137  -23.6463 C   0  0  0  0  0  0  0  0  0  0  0  0
    2.8956   20.6459  -21.5966 C   0  0  0  0  0  0  0  0  0  0  0  0
    3.2673   19.1973  -21.8371 C   0  0  0  0  0  0  0  0  0  0  0  0
    4.6835   19.0259  -21.2850 C   0  0  0  0  0  0  0  0  0  0  0  0
    4.7668   19.6237  -19.9758 N   0  0  0  0  0  0  0  0  0  0  0  0
    3.4779   19.7894  -19.3488 C   0  0  0  0  0  0  0  0  0  0  0  0
    2.6874   20.8365  -20.1052 C   0  0  0  0  0  0  0  0  0  0  0  0
    5.2351   20.5505  -19.9849 H   0  0  0  0  0  0  0  0  0  0  0  0
 24 25  1  0  0  0
 25 18  1  0  0  0
 18 19  2  0  0  0
 19 20  1  0  0  0
 20 26  1  0  0  0
 26 27  1  0  0  0
 20 21  2  0  0  0
 21 22  1  0  0  0
 22 23  2  0  0  0
 22 10  1  0  0  0
 10 11  1  0  0  0
 11 12  2  0  0  0
 12 13  1  0  0  0
 13 14  2  0  0  0
 14 15  1  0  0  0
 14 16  1  0  0  0
 16 17  2  0  0  0
 12  1  1  0  0  0
  1  2  2  0  0  0
  2  3  1  0  0  0
  3  4  2  0  0  0
  4  5  1  0  0  0
  5  6  2  0  0  0
  6  7  1  0  0  0
  3 28  1  0  0  0
 28 29  1  0  0  0
 29 30  2  0  0  0
 30 31  1  0  0  0
 31 32  1  0  0  0
 31 33  1  0  0  0
 33 34  1  0  0  0
 34 35  1  0  0  0
 35 36  1  0  0  0
 36 37  1  0  0  0
 37 38  1  0  0  0
 23 18  1  0  0  0
 16 10  1  0  0  0
  6  1  1  0  0  0
 32 28  2  0  0  0
 38 33  1  0  0  0
  7  8  1  0  0  0
  7  9  1  0  0  0
 36 39  1  0  0  0
M  END
> <minimizedAffinity>
-9.74189

> <CNNscore>
0.9260101914

> <CNNaffinity>
7.8295340538

> <CNN_VS>
7.2502284050

> <CNNaffinity_variance>
0.0235107355

$$$$
[H]c1nc(N([H])[H])c(-c2nn(-c3c([H])c(OC([H])([H])[H])c([H])c(OC([H])([H])[H])c3[H])c(=O)c(C([H])([H])[H])c2[H])nc1-c1c([H])nn(C2([H])C([H])([H])C([H])([H])N([H])C([H])([H])C2([H])[H])c1[H]


 39 43  0  0  0  0  0  0  0  0999 V2000
   -1.6627   22.8114  -26.8376 C   0  0  0  0  0  0  0  0  0  0  0  0
   -1.2531   22.3990  -25.5884 N   0  0  0  0  0  0  0  0  0  0  0  0
   -0.0032   22.1296  -25.2720 C   0  0  0  0  0  0  0  0  0  0  0  0
    0.9591   22.2667  -26.2458 C   0  0  0  0  0  0  0  0  0  0  0  0
    0.6474   22.6585  -27.4718 N   0  0  0  0  0  0  0  0  0  0  0  0
   -0.6717   22.9277  -27.7525 C   0  0  0  0  0  0  0  0  0  0  0  0
   -0.8842   23.3363  -29.0877 N   0  0  0  0  0  0  0  0  0  0  0  0
   -0.8429   24.3266  -29.4071 H   0  0  0  0  0  0  0  0  0  0  0  0
   -1.0869   22.6094  -29.8053 H   0  0  0  0  0  0  0  0  0  0  0  0
   -5.1387   23.4527  -25.9532 N   0  0  0  0  0  0  0  0  0  0  0  0
   -3.8589   23.2163  -25.9116 N   0  0  0  0  0  0  0  0  0  0  0  0
   -3.0756   23.0728  -27.0421 C   0  0  0  0  0  0  0  0  0  0  0  0
   -3.6845   23.1864  -28.2499 C   0  0  0  0  0  0  0  0  0  0  0  0
   -5.0533   23.4392  -28.3257 C   0  0  0  0  0  0  0  0  0  0  0  0
   -5.6747   23.5552  -29.6563 C   0  0  0  0  0  0  0  0  0  0  0  0
   -5.7490   23.5666  -27.1463 C   0  0  0  0  0  0  0  0  0  0  0  0
   -6.9866   23.7951  -27.1764 O   0  0  0  0  0  0  0  0  0  0  0  0
   -7.0024   22.6123  -22.9038 C   0  0  0  0  0  0  0  0  0  0  0  0
   -7.4259   23.8416  -22.4403 C   0  0  0  0  0  0  0  0  0  0  0  0
   -7.0899   24.9712  -23.1473 C   0  0  0  0  0  0  0  0  0  0  0  0
   -6.3329   24.8320  -24.3074 C   0  0  0  0  0  0  0  0  0  0  0  0
   -5.9196   23.5958  -24.7540 C   0  0  0  0  0  0  0  0  0  0  0  0
   -6.2543   22.4703  -24.0497 C   0  0  0  0  0  0  0  0  0  0  0  0
   -8.1049   21.5407  -21.0134 C   0  0  0  0  0  0  0  0  0  0  0  0
   -7.3437   21.4602  -22.1852 O   0  0  0  0  0  0  0  0  0  0  0  0
   -7.5112   26.2007  -22.6870 O   0  0  0  0  0  0  0  0  0  0  0  0
   -8.0887   26.2918  -21.4038 C   0  0  0  0  0  0  0  0  0  0  0  0
    0.4234   21.6938  -23.9503 C   0  0  0  0  0  0  0  0  0  0  0  0
    1.6976   21.2842  -23.5586 C   0  0  0  0  0  0  0  0  0  0  0  0
    1.6380   20.9719  -22.2545 N   0  0  0  0  0  0  0  0  0  0  0  0
    0.4207   21.1526  -21.7877 N   0  0  0  0  0  0  0  0  0  0  0  0
   -0.3374   21.5933  -22.8066 C   0  0  0  0  0  0  0  0  0  0  0  0
   -0.0336   20.9251  -20.4348 C   0  0  0  0  0  0  0  0  0  0  0  0
   -1.4493   21.4325  -20.2544 C   0  0  0  0  0  0  0  0  0  0  0  0
   -1.9509   20.8312  -18.9403 C   0  0  0  0  0  0  0  0  0  0  0  0
   -0.9480   20.9999  -17.9185 N   0  0  0  0  0  0  0  0  0  0  0  0
    0.0008   22.0423  -18.2266 C   0  0  0  0  0  0  0  0  0  0  0  0
    0.8467   21.6124  -19.4069 C   0  0  0  0  0  0  0  0  0  0  0  0
   -0.4122   20.1302  -17.7321 H   0  0  0  0  0  0  0  0  0  0  0  0
 24 25  1  0  0  0
 25 18  1  0  0  0
 18 19  2  0  0  0
 19 20  1  0  0  0
 20 26  1  0  0  0
 26 27  1  0  0  0
 20 21  2  0  0  0
 21 22  1  0  0  0
 22 23  2  0  0  0
 22 10  1  0  0  0
 10 11  1  0  0  0
 11 12  2  0  0  0
 12 13  1  0  0  0
 13 14  2  0  0  0
 14 15  1  0  0  0
 14 16  1  0  0  0
 16 17  2  0  0  0
 12  1  1  0  0  0
  1  2  2  0  0  0
  2  3  1  0  0  0
  3  4  2  0  0  0
  4  5  1  0  0  0
  5  6  2  0  0  0
  6  7  1  0  0  0
  3 28  1  0  0  0
 28 29  1  0  0  0
 29 30  2  0  0  0
 30 31  1  0  0  0
 31 32  1  0  0  0
 31 33  1  0  0  0
 33 34  1  0  0  0
 34 35  1  0  0  0
 35 36  1  0  0  0
 36 37  1  0  0  0
 37 38  1  0  0  0
 23 18  1  0  0  0
 16 10  1  0  0  0
  6  1  1  0  0  0
 32 28  2  0  0  0
 38 33  1  0  0  0
  7  8  1  0  0  0
  7  9  1  0  0  0
 36 39  1  0  0  0
M  END
> <minimizedAffinity>
-9.68147

> <CNNscore>
0.8666885495

> <CNNaffinity>
7.7930517197

> <CNN_VS>
6.7541484833

> <CNNaffinity_variance>
0.0594552346

$$$$
[H]c1nc(N([H])[H])c(-c2nn(-c3c([H])c(OC([H])([H])[H])c([H])c(OC([H])([H])[H])c3[H])c(=O)c(C([H])([H])[H])c2[H])nc1-c1c([H])nn(C2([H])C([H])([H])C([H])([H])N([H])C([H])([H])C2([H])[H])c1[H]


 39 43  0  0  0  0  0  0  0  0999 V2000
   -1.6533   22.8215  -26.8435 C   0  0  0  0  0  0  0  0  0  0  0  0
   -1.2386   22.3969  -25.6001 N   0  0  0  0  0  0  0  0  0  0  0  0
    0.0134   22.1302  -25.2899 C   0  0  0  0  0  0  0  0  0  0  0  0
    0.9726   22.2831  -26.2643 C   0  0  0  0  0  0  0  0  0  0  0  0
    0.6560   22.6872  -27.4851 N   0  0  0  0  0  0  0  0  0  0  0  0
   -0.6651   22.9531  -27.7595 C   0  0  0  0  0  0  0  0  0  0  0  0
   -0.8829   23.3757  -29.0894 N   0  0  0  0  0  0  0  0  0  0  0  0
   -0.8473   24.3697  -29.3976 H   0  0  0  0  0  0  0  0  0  0  0  0
   -1.0838   22.6560  -29.8148 H   0  0  0  0  0  0  0  0  0  0  0  0
   -5.1336   23.4162  -25.9440 N   0  0  0  0  0  0  0  0  0  0  0  0
   -3.8522   23.1878  -25.9081 N   0  0  0  0  0  0  0  0  0  0  0  0
   -3.0679   23.0781  -27.0417 C   0  0  0  0  0  0  0  0  0  0  0  0
   -3.6776   23.2179  -28.2463 C   0  0  0  0  0  0  0  0  0  0  0  0
   -5.0481   23.4630  -28.3160 C   0  0  0  0  0  0  0  0  0  0  0  0
   -5.6704   23.6081  -29.6434 C   0  0  0  0  0  0  0  0  0  0  0  0
   -5.7447   23.5559  -27.1339 C   0  0  0  0  0  0  0  0  0  0  0  0
   -6.9838   23.7765  -27.1585 O   0  0  0  0  0  0  0  0  0  0  0  0
   -7.0523   24.8647  -23.1692 C   0  0  0  0  0  0  0  0  0  0  0  0
   -7.4212   23.7611  -22.4266 C   0  0  0  0  0  0  0  0  0  0  0  0
   -7.0298   22.5133  -22.8494 C   0  0  0  0  0  0  0  0  0  0  0  0
   -6.2739   22.4099  -24.0140 C   0  0  0  0  0  0  0  0  0  0  0  0
   -5.9155   23.5237  -24.7416 C   0  0  0  0  0  0  0  0  0  0  0  0
   -6.3054   24.7668  -24.3205 C   0  0  0  0  0  0  0  0  0  0  0  0
   -7.9618   26.3359  -21.4529 C   0  0  0  0  0  0  0  0  0  0  0  0
   -7.4499   26.1367  -22.7403 O   0  0  0  0  0  0  0  0  0  0  0  0
   -7.3966   21.4089  -22.1101 O   0  0  0  0  0  0  0  0  0  0  0  0
   -8.2182   21.5835  -20.9775 C   0  0  0  0  0  0  0  0  0  0  0  0
    0.4454   21.6816  -23.9742 C   0  0  0  0  0  0  0  0  0  0  0  0
    1.7352   21.3336  -23.5741 C   0  0  0  0  0  0  0  0  0  0  0  0
    1.6751   20.9812  -22.2802 N   0  0  0  0  0  0  0  0  0  0  0  0
    0.4430   21.0794  -21.8278 N   0  0  0  0  0  0  0  0  0  0  0  0
   -0.3245   21.5054  -22.8458 C   0  0  0  0  0  0  0  0  0  0  0  0
   -0.0167   20.7878  -20.4890 C   0  0  0  0  0  0  0  0  0  0  0  0
   -1.3914   21.3793  -20.2558 C   0  0  0  0  0  0  0  0  0  0  0  0
   -1.9251   20.7220  -18.9818 C   0  0  0  0  0  0  0  0  0  0  0  0
   -0.9055   20.7459  -17.9628 N   0  0  0  0  0  0  0  0  0  0  0  0
    0.1127   21.7384  -18.2076 C   0  0  0  0  0  0  0  0  0  0  0  0
    0.9176   21.3359  -19.4257 C   0  0  0  0  0  0  0  0  0  0  0  0
   -0.4315   19.8296  -17.8453 H   0  0  0  0  0  0  0  0  0  0  0  0
 24 25  1  0  0  0
 25 18  1  0  0  0
 18 19  2  0  0  0
 19 20  1  0  0  0
 20 26  1  0  0  0
 26 27  1  0  0  0
 20 21  2  0  0  0
 21 22  1  0  0  0
 22 23  2  0  0  0
 22 10  1  0  0  0
 10 11  1  0  0  0
 11 12  2  0  0  0
 12 13  1  0  0  0
 13 14  2  0  0  0
 14 15  1  0  0  0
 14 16  1  0  0  0
 16 17  2  0  0  0
 12  1  1  0  0  0
  1  2  2  0  0  0
  2  3  1  0  0  0
  3  4  2  0  0  0
  4  5  1  0  0  0
  5  6  2  0  0  0
  6  7  1  0  0  0
  3 28  1  0  0  0
 28 29  1  0  0  0
 29 30  2  0  0  0
 30 31  1  0  0  0
 31 32  1  0  0  0
 31 33  1  0  0  0
 33 34  1  0  0  0
 34 35  1  0  0  0
 35 36  1  0  0  0
 36 37  1  0  0  0
 37 38  1  0  0  0
 23 18  1  0  0  0
 16 10  1  0  0  0
  6  1  1  0  0  0
 32 28  2  0  0  0
 38 33  1  0  0  0
  7  8  1  0  0  0
  7  9  1  0  0  0
 36 39  1  0  0  0
M  END
> <minimizedAffinity>
-9.63885

> <CNNscore>
0.8517017961

> <CNNaffinity>
7.7986497879

> <CNN_VS>
6.6421241760

> <CNNaffinity_variance>
0.0679892674

$$$$
[H]c1nc(N([H])[H])c(-c2nn(-c3c([H])c(OC([H])([H])[H])c([H])c(OC([H])([H])[H])c3[H])c(=O)c(C([H])([H])[H])c2[H])nc1-c1c([H])nn(C2([H])C([H])([H])C([H])([H])N([H])C([H])([H])C2([H])[H])c1[H]


 39 43  0  0  0  0  0  0  0  0999 V2000
   -1.8158   22.6200  -26.1508 C   0  0  0  0  0  0  0  0  0  0  0  0
   -1.4632   22.2060  -24.8848 N   0  0  0  0  0  0  0  0  0  0  0  0
   -0.2363   21.8887  -24.5260 C   0  0  0  0  0  0  0  0  0  0  0  0
    0.7610   21.9738  -25.4701 C   0  0  0  0  0  0  0  0  0  0  0  0
    0.5046   22.3634  -26.7096 N   0  0  0  0  0  0  0  0  0  0  0  0
   -0.7926   22.6839  -27.0350 C   0  0  0  0  0  0  0  0  0  0  0  0
   -0.9459   23.0848  -28.3806 N   0  0  0  0  0  0  0  0  0  0  0  0
   -0.8531   24.0685  -28.7091 H   0  0  0  0  0  0  0  0  0  0  0  0
   -1.1564   22.3583  -29.0964 H   0  0  0  0  0  0  0  0  0  0  0  0
   -5.3018   23.3533  -25.3856 N   0  0  0  0  0  0  0  0  0  0  0  0
   -4.0335   23.0709  -25.3006 N   0  0  0  0  0  0  0  0  0  0  0  0
   -3.2094   22.9375  -26.4029 C   0  0  0  0  0  0  0  0  0  0  0  0
   -3.7635   23.1124  -27.6296 C   0  0  0  0  0  0  0  0  0  0  0  0
   -5.1187   23.4155  -27.7517 C   0  0  0  0  0  0  0  0  0  0  0  0
   -5.6802   23.5972  -29.1015 C   0  0  0  0  0  0  0  0  0  0  0  0
   -5.8580   23.5281  -26.5976 C   0  0  0  0  0  0  0  0  0  0  0  0
   -7.0849   23.8008  -26.6697 O   0  0  0  0  0  0  0  0  0  0  0  0
   -7.2599   24.8593  -22.6696 C   0  0  0  0  0  0  0  0  0  0  0  0
   -7.7131   23.7659  -21.9594 C   0  0  0  0  0  0  0  0  0  0  0  0
   -7.3666   22.5058  -22.3847 C   0  0  0  0  0  0  0  0  0  0  0  0
   -6.5692   22.3800  -23.5190 C   0  0  0  0  0  0  0  0  0  0  0  0
   -6.1265   23.4840  -24.2146 C   0  0  0  0  0  0  0  0  0  0  0  0
   -6.4717   24.7394  -23.7909 C   0  0  0  0  0  0  0  0  0  0  0  0
   -8.2414   26.3423  -21.0038 C   0  0  0  0  0  0  0  0  0  0  0  0
   -7.6116   26.1439  -22.2380 O   0  0  0  0  0  0  0  0  0  0  0  0
   -7.8177   21.4115  -21.6777 O   0  0  0  0  0  0  0  0  0  0  0  0
   -8.2574   21.5866  -20.3494 C   0  0  0  0  0  0  0  0  0  0  0  0
    0.1301   21.4516  -23.1868 C   0  0  0  0  0  0  0  0  0  0  0  0
   -0.7090   21.2875  -22.0851 C   0  0  0  0  0  0  0  0  0  0  0  0
    0.0493   20.8704  -21.0589 N   0  0  0  0  0  0  0  0  0  0  0  0
    1.3081   20.7570  -21.4261 N   0  0  0  0  0  0  0  0  0  0  0  0
    1.3801   21.1071  -22.7220 C   0  0  0  0  0  0  0  0  0  0  0  0
    2.4187   20.3358  -20.6029 C   0  0  0  0  0  0  0  0  0  0  0  0
    3.1726   21.5359  -20.0685 C   0  0  0  0  0  0  0  0  0  0  0  0
    4.0720   21.0076  -18.9497 C   0  0  0  0  0  0  0  0  0  0  0  0
    4.7553   19.8205  -19.3996 N   0  0  0  0  0  0  0  0  0  0  0  0
    4.8010   19.7072  -20.8373 C   0  0  0  0  0  0  0  0  0  0  0  0
    3.4015   19.4630  -21.3620 C   0  0  0  0  0  0  0  0  0  0  0  0
    4.3342   18.9474  -19.0273 H   0  0  0  0  0  0  0  0  0  0  0  0
 24 25  1  0  0  0
 25 18  1  0  0  0
 18 19  2  0  0  0
 19 20  1  0  0  0
 20 26  1  0  0  0
 26 27  1  0  0  0
 20 21  2  0  0  0
 21 22  1  0  0  0
 22 23  2  0  0  0
 22 10  1  0  0  0
 10 11  1  0  0  0
 11 12  2  0  0  0
 12 13  1  0  0  0
 13 14  2  0  0  0
 14 15  1  0  0  0
 14 16  1  0  0  0
 16 17  2  0  0  0
 12  1  1  0  0  0
  1  2  2  0  0  0
  2  3  1  0  0  0
  3  4  2  0  0  0
  4  5  1  0  0  0
  5  6  2  0  0  0
  6  7  1  0  0  0
  3 28  1  0  0  0
 28 29  1  0  0  0
 29 30  2  0  0  0
 30 31  1  0  0  0
 31 32  1  0  0  0
 31 33  1  0  0  0
 33 34  1  0  0  0
 34 35  1  0  0  0
 35 36  1  0  0  0
 36 37  1  0  0  0
 37 38  1  0  0  0
 23 18  1  0  0  0
 16 10  1  0  0  0
  6  1  1  0  0  0
 32 28  2  0  0  0
 38 33  1  0  0  0
  7  8  1  0  0  0
  7  9  1  0  0  0
 36 39  1  0  0  0
M  END
> <minimizedAffinity>
-9.14228

> <CNNscore>
0.7386417389

> <CNNaffinity>
7.5358533859

> <CNN_VS>
5.5662956238

> <CNNaffinity_variance>
0.0824944451

$$$$
[H]c1nc(N([H])[H])c(-c2nn(-c3c([H])c(OC([H])([H])[H])c([H])c(OC([H])([H])[H])c3[H])c(=O)c(C([H])([H])[H])c2[H])nc1-c1c([H])nn(C2([H])C([H])([H])C([H])([H])N([H])C([H])([H])C2([H])[H])c1[H]


 39 43  0  0  0  0  0  0  0  0999 V2000
   -0.7665   21.9537  -24.2487 C   0  0  0  0  0  0  0  0  0  0  0  0
   -1.9581   22.3356  -24.8253 N   0  0  0  0  0  0  0  0  0  0  0  0
   -2.0948   22.6579  -26.0951 C   0  0  0  0  0  0  0  0  0  0  0  0
   -0.9814   22.6125  -26.9021 C   0  0  0  0  0  0  0  0  0  0  0  0
    0.2012   22.2555  -26.4247 N   0  0  0  0  0  0  0  0  0  0  0  0
    0.2923   21.9281  -25.0921 C   0  0  0  0  0  0  0  0  0  0  0  0
    1.5983   21.5641  -24.6966 N   0  0  0  0  0  0  0  0  0  0  0  0
    1.9682   20.5915  -24.7343 H   0  0  0  0  0  0  0  0  0  0  0  0
    2.2408   22.3082  -24.3528 H   0  0  0  0  0  0  0  0  0  0  0  0
    0.5318   20.7466  -21.0655 N   0  0  0  0  0  0  0  0  0  0  0  0
    0.3966   21.0851  -22.3155 N   0  0  0  0  0  0  0  0  0  0  0  0
   -0.7652   21.6261  -22.8348 C   0  0  0  0  0  0  0  0  0  0  0  0
   -1.8098   21.8083  -21.9874 C   0  0  0  0  0  0  0  0  0  0  0  0
   -1.6943   21.4554  -20.6438 C   0  0  0  0  0  0  0  0  0  0  0  0
   -2.8519   21.6695  -19.7581 C   0  0  0  0  0  0  0  0  0  0  0  0
   -0.4988   20.9242  -20.2198 C   0  0  0  0  0  0  0  0  0  0  0  0
   -0.3586   20.5940  -19.0131 O   0  0  0  0  0  0  0  0  0  0  0  0
    3.8979   20.4949  -19.6217 C   0  0  0  0  0  0  0  0  0  0  0  0
    4.1306   19.1347  -19.5911 C   0  0  0  0  0  0  0  0  0  0  0  0
    3.1576   18.2824  -20.0556 C   0  0  0  0  0  0  0  0  0  0  0  0
    1.9709   18.8253  -20.5407 C   0  0  0  0  0  0  0  0  0  0  0  0
    1.7575   20.1864  -20.5630 C   0  0  0  0  0  0  0  0  0  0  0  0
    2.7268   21.0355  -20.1003 C   0  0  0  0  0  0  0  0  0  0  0  0
    4.5529   22.6102  -18.6046 C   0  0  0  0  0  0  0  0  0  0  0  0
    4.8878   21.3649  -19.1490 O   0  0  0  0  0  0  0  0  0  0  0  0
    3.3867   16.9232  -20.0264 O   0  0  0  0  0  0  0  0  0  0  0  0
    2.6692   16.1260  -19.1110 C   0  0  0  0  0  0  0  0  0  0  0  0
   -3.3566   23.0610  -26.6986 C   0  0  0  0  0  0  0  0  0  0  0  0
   -4.6329   22.9725  -26.1436 C   0  0  0  0  0  0  0  0  0  0  0  0
   -5.5000   23.4575  -27.0463 N   0  0  0  0  0  0  0  0  0  0  0  0
   -4.8700   23.8479  -28.1340 N   0  0  0  0  0  0  0  0  0  0  0  0
   -3.5600   23.6148  -27.9432 C   0  0  0  0  0  0  0  0  0  0  0  0
   -5.4607   24.4226  -29.3211 C   0  0  0  0  0  0  0  0  0  0  0  0
   -5.3100   23.4841  -30.5005 C   0  0  0  0  0  0  0  0  0  0  0  0
   -6.2600   24.0047  -31.5805 C   0  0  0  0  0  0  0  0  0  0  0  0
   -6.0980   25.4305  -31.7193 N   0  0  0  0  0  0  0  0  0  0  0  0
   -4.8391   25.9079  -31.2007 C   0  0  0  0  0  0  0  0  0  0  0  0
   -4.8301   25.7518  -29.6943 C   0  0  0  0  0  0  0  0  0  0  0  0
   -6.8552   25.9692  -31.2559 H   0  0  0  0  0  0  0  0  0  0  0  0
 24 25  1  0  0  0
 25 18  1  0  0  0
 18 19  2  0  0  0
 19 20  1  0  0  0
 20 26  1  0  0  0
 26 27  1  0  0  0
 20 21  2  0  0  0
 21 22  1  0  0  0
 22 23  2  0  0  0
 22 10  1  0  0  0
 10 11  1  0  0  0
 11 12  2  0  0  0
 12 13  1  0  0  0
 13 14  2  0  0  0
 14 15  1  0  0  0
 14 16  1  0  0  0
 16 17  2  0  0  0
 12  1  1  0  0  0
  1  2  2  0  0  0
  2  3  1  0  0  0
  3  4  2  0  0  0
  4  5  1  0  0  0
  5  6  2  0  0  0
  6  7  1  0  0  0
  3 28  1  0  0  0
 28 29  1  0  0  0
 29 30  2  0  0  0
 30 31  1  0  0  0
 31 32  1  0  0  0
 31 33  1  0  0  0
 33 34  1  0  0  0
 34 35  1  0  0  0
 35 36  1  0  0  0
 36 37  1  0  0  0
 37 38  1  0  0  0
 23 18  1  0  0  0
 16 10  1  0  0  0
  6  1  1  0  0  0
 32 28  2  0  0  0
 38 33  1  0  0  0
  7  8  1  0  0  0
  7  9  1  0  0  0
 36 39  1  0  0  0
M  END
> <minimizedAffinity>
-8.55422

> <CNNscore>
0.3930205107

> <CNNaffinity>
7.3203063011

> <CNN_VS>
2.8770306110

> <CNNaffinity_variance>
0.3878521025

$$$$
[H]c1nc(N([H])[H])c(-c2nn(-c3c([H])c(OC([H])([H])[H])c([H])c(OC([H])([H])[H])c3[H])c(=O)c(C([H])([H])[H])c2[H])nc1-c1c([H])nn(C2([H])C([H])([H])C([H])([H])N([H])C([H])([H])C2([H])[H])c1[H]


 39 43  0  0  0  0  0  0  0  0999 V2000
   -0.5694   21.8706  -23.8790 C   0  0  0  0  0  0  0  0  0  0  0  0
   -1.7718   22.2461  -24.4371 N   0  0  0  0  0  0  0  0  0  0  0  0
   -1.9277   22.5781  -25.7022 C   0  0  0  0  0  0  0  0  0  0  0  0
   -0.8243   22.5503  -26.5236 C   0  0  0  0  0  0  0  0  0  0  0  0
    0.3675   22.2005  -26.0643 N   0  0  0  0  0  0  0  0  0  0  0  0
    0.4787   21.8625  -24.7359 C   0  0  0  0  0  0  0  0  0  0  0  0
    1.7931   21.5076  -24.3602 N   0  0  0  0  0  0  0  0  0  0  0  0
    2.1717   20.5389  -24.4111 H   0  0  0  0  0  0  0  0  0  0  0  0
    2.4328   22.2547  -24.0181 H   0  0  0  0  0  0  0  0  0  0  0  0
    0.1034   19.8914  -20.8948 N   0  0  0  0  0  0  0  0  0  0  0  0
    0.0193   20.3177  -22.1222 N   0  0  0  0  0  0  0  0  0  0  0  0
   -0.5469   21.5308  -22.4682 C   0  0  0  0  0  0  0  0  0  0  0  0
   -1.0360   22.3068  -21.4676 C   0  0  0  0  0  0  0  0  0  0  0  0
   -0.9600   21.8767  -20.1438 C   0  0  0  0  0  0  0  0  0  0  0  0
   -1.5028   22.7493  -19.0882 C   0  0  0  0  0  0  0  0  0  0  0  0
   -0.3789   20.6547  -19.8979 C   0  0  0  0  0  0  0  0  0  0  0  0
   -0.2931   20.2342  -18.7145 O   0  0  0  0  0  0  0  0  0  0  0  0
    2.6319   17.3142  -20.2290 C   0  0  0  0  0  0  0  0  0  0  0  0
    1.8777   16.1888  -19.9641 C   0  0  0  0  0  0  0  0  0  0  0  0
    0.5071   16.2814  -20.0052 C   0  0  0  0  0  0  0  0  0  0  0  0
   -0.0700   17.5103  -20.3135 C   0  0  0  0  0  0  0  0  0  0  0  0
    0.7002   18.6225  -20.5751 C   0  0  0  0  0  0  0  0  0  0  0  0
    2.0657   18.5304  -20.5342 C   0  0  0  0  0  0  0  0  0  0  0  0
    4.7111   17.1657  -18.9672 C   0  0  0  0  0  0  0  0  0  0  0  0
    4.0283   17.2221  -20.1878 O   0  0  0  0  0  0  0  0  0  0  0  0
   -0.2492   15.1593  -19.7410 O   0  0  0  0  0  0  0  0  0  0  0  0
   -1.6103   15.3127  -19.4056 C   0  0  0  0  0  0  0  0  0  0  0  0
   -3.2009   22.9743  -26.2861 C   0  0  0  0  0  0  0  0  0  0  0  0
   -4.4627   22.9202  -25.6948 C   0  0  0  0  0  0  0  0  0  0  0  0
   -5.3485   23.3832  -26.5909 N   0  0  0  0  0  0  0  0  0  0  0  0
   -4.7438   23.7277  -27.7080 N   0  0  0  0  0  0  0  0  0  0  0  0
   -3.4316   23.4862  -27.5438 C   0  0  0  0  0  0  0  0  0  0  0  0
   -5.3599   24.2669  -28.8988 C   0  0  0  0  0  0  0  0  0  0  0  0
   -5.0887   23.3737  -30.0917 C   0  0  0  0  0  0  0  0  0  0  0  0
   -6.0595   23.8214  -31.1858 C   0  0  0  0  0  0  0  0  0  0  0  0
   -6.0364   25.2590  -31.2929 N   0  0  0  0  0  0  0  0  0  0  0  0
   -4.8438   25.8468  -30.7326 C   0  0  0  0  0  0  0  0  0  0  0  0
   -4.8554   25.6596  -29.2298 C   0  0  0  0  0  0  0  0  0  0  0  0
   -6.8541   25.7102  -30.8390 H   0  0  0  0  0  0  0  0  0  0  0  0
 24 25  1  0  0  0
 25 18  1  0  0  0
 18 19  2  0  0  0
 19 20  1  0  0  0
 20 26  1  0  0  0
 26 27  1  0  0  0
 20 21  2  0  0  0
 21 22  1  0  0  0
 22 23  2  0  0  0
 22 10  1  0  0  0
 10 11  1  0  0  0
 11 12  2  0  0  0
 12 13  1  0  0  0
 13 14  2  0  0  0
 14 15  1  0  0  0
 14 16  1  0  0  0
 16 17  2  0  0  0
 12  1  1  0  0  0
  1  2  2  0  0  0
  2  3  1  0  0  0
  3  4  2  0  0  0
  4  5  1  0  0  0
  5  6  2  0  0  0
  6  7  1  0  0  0
  3 28  1  0  0  0
 28 29  1  0  0  0
 29 30  2  0  0  0
 30 31  1  0  0  0
 31 32  1  0  0  0
 31 33  1  0  0  0
 33 34  1  0  0  0
 34 35  1  0  0  0
 35 36  1  0  0  0
 36 37  1  0  0  0
 37 38  1  0  0  0
 23 18  1  0  0  0
 16 10  1  0  0  0
  6  1  1  0  0  0
 32 28  2  0  0  0
 38 33  1  0  0  0
  7  8  1  0  0  0
  7  9  1  0  0  0
 36 39  1  0  0  0
M  END
> <minimizedAffinity>
-8.50527

> <CNNscore>
0.2667914331

> <CNNaffinity>
7.0397768021

> <CNN_VS>
1.8781521320

> <CNNaffinity_variance>
0.2592009306

$$$$
[H]c1nc(N([H])[H])c(-c2nn(-c3c([H])c(OC([H])([H])[H])c([H])c(OC([H])([H])[H])c3[H])c(=O)c(C([H])([H])[H])c2[H])nc1-c1c([H])nn(C2([H])C([H])([H])C([H])([H])N([H])C([H])([H])C2([H])[H])c1[H]


 39 43  0  0  0  0  0  0  0  0999 V2000
   -1.0405   22.2882  -25.2010 C   0  0  0  0  0  0  0  0  0  0  0  0
   -2.3648   22.5857  -24.9642 N   0  0  0  0  0  0  0  0  0  0  0  0
   -3.2054   23.0026  -25.8886 C   0  0  0  0  0  0  0  0  0  0  0  0
   -2.7380   23.1526  -27.1739 C   0  0  0  0  0  0  0  0  0  0  0  0
   -1.4781   22.8875  -27.4840 N   0  0  0  0  0  0  0  0  0  0  0  0
   -0.6396   22.4550  -26.4833 C   0  0  0  0  0  0  0  0  0  0  0  0
    0.6765   22.2040  -26.9300 N   0  0  0  0  0  0  0  0  0  0  0  0
    1.0014   21.2855  -27.2976 H   0  0  0  0  0  0  0  0  0  0  0  0
    1.3693   22.9810  -26.9018 H   0  0  0  0  0  0  0  0  0  0  0  0
   -0.2601   21.2851  -21.7863 N   0  0  0  0  0  0  0  0  0  0  0  0
   -0.8683   21.6816  -22.8672 N   0  0  0  0  0  0  0  0  0  0  0  0
   -0.2304   21.8383  -24.0840 C   0  0  0  0  0  0  0  0  0  0  0  0
    1.0972   21.5612  -24.1404 C   0  0  0  0  0  0  0  0  0  0  0  0
    1.7750   21.1347  -22.9995 C   0  0  0  0  0  0  0  0  0  0  0  0
    3.2156   20.8447  -23.1041 C   0  0  0  0  0  0  0  0  0  0  0  0
    1.0552   21.0086  -21.8344 C   0  0  0  0  0  0  0  0  0  0  0  0
    1.6346   20.6258  -20.7844 O   0  0  0  0  0  0  0  0  0  0  0  0
   -2.5087   21.9599  -18.9637 C   0  0  0  0  0  0  0  0  0  0  0  0
   -2.3187   20.8706  -18.1375 C   0  0  0  0  0  0  0  0  0  0  0  0
   -1.4313   19.8929  -18.5188 C   0  0  0  0  0  0  0  0  0  0  0  0
   -0.7558   20.0390  -19.7274 C   0  0  0  0  0  0  0  0  0  0  0  0
   -0.9591   21.1341  -20.5385 C   0  0  0  0  0  0  0  0  0  0  0  0
   -1.8432   22.1082  -20.1587 C   0  0  0  0  0  0  0  0  0  0  0  0
   -4.7651   22.8792  -18.9277 C   0  0  0  0  0  0  0  0  0  0  0  0
   -3.4122   22.9572  -18.5772 O   0  0  0  0  0  0  0  0  0  0  0  0
   -1.2392   18.8034  -17.6960 O   0  0  0  0  0  0  0  0  0  0  0  0
   -0.8467   17.5744  -18.2652 C   0  0  0  0  0  0  0  0  0  0  0  0
   -4.6036   23.3156  -25.6321 C   0  0  0  0  0  0  0  0  0  0  0  0
   -5.6145   23.5283  -26.5688 C   0  0  0  0  0  0  0  0  0  0  0  0
   -6.7444   23.7868  -25.8917 N   0  0  0  0  0  0  0  0  0  0  0  0
   -6.5271   23.7542  -24.5940 N   0  0  0  0  0  0  0  0  0  0  0  0
   -5.2262   23.4682  -24.4130 C   0  0  0  0  0  0  0  0  0  0  0  0
   -7.4951   23.9809  -23.5451 C   0  0  0  0  0  0  0  0  0  0  0  0
   -7.8622   25.4482  -23.4652 C   0  0  0  0  0  0  0  0  0  0  0  0
   -9.1232   25.5234  -22.6025 C   0  0  0  0  0  0  0  0  0  0  0  0
   -8.9468   24.7193  -21.4189 N   0  0  0  0  0  0  0  0  0  0  0  0
   -7.5604   24.4569  -21.1173 C   0  0  0  0  0  0  0  0  0  0  0  0
   -6.9822   23.5497  -22.1832 C   0  0  0  0  0  0  0  0  0  0  0  0
   -9.4361   23.8053  -21.4759 H   0  0  0  0  0  0  0  0  0  0  0  0
 24 25  1  0  0  0
 25 18  1  0  0  0
 18 19  2  0  0  0
 19 20  1  0  0  0
 20 26  1  0  0  0
 26 27  1  0  0  0
 20 21  2  0  0  0
 21 22  1  0  0  0
 22 23  2  0  0  0
 22 10  1  0  0  0
 10 11  1  0  0  0
 11 12  2  0  0  0
 12 13  1  0  0  0
 13 14  2  0  0  0
 14 15  1  0  0  0
 14 16  1  0  0  0
 16 17  2  0  0  0
 12  1  1  0  0  0
  1  2  2  0  0  0
  2  3  1  0  0  0
  3  4  2  0  0  0
  4  5  1  0  0  0
  5  6  2  0  0  0
  6  7  1  0  0  0
  3 28  1  0  0  0
 28 29  1  0  0  0
 29 30  2  0  0  0
 30 31  1  0  0  0
 31 32  1  0  0  0
 31 33  1  0  0  0
 33 34  1  0  0  0
 34 35  1  0  0  0
 35 36  1  0  0  0
 36 37  1  0  0  0
 37 38  1  0  0  0
 23 18  1  0  0  0
 16 10  1  0  0  0
  6  1  1  0  0  0
 32 28  2  0  0  0
 38 33  1  0  0  0
  7  8  1  0  0  0
  7  9  1  0  0  0
 36 39  1  0  0  0
M  END
> <minimizedAffinity>
-8.20518

> <CNNscore>
0.2328364849

> <CNNaffinity>
7.0345306396

> <CNN_VS>
1.6378953457

> <CNNaffinity_variance>
0.2504226565

$$$$
[H]c1nc(N([H])[H])c(-c2nn(-c3c([H])c(OC([H])([H])[H])c([H])c(OC([H])([H])[H])c3[H])c(=O)c(C([H])([H])[H])c2[H])nc1-c1c([H])nn(C2([H])C([H])([H])C([H])([H])N([H])C([H])([H])C2([H])[H])c1[H]


 39 43  0  0  0  0  0  0  0  0999 V2000
   -0.6383   21.8607  -23.9410 C   0  0  0  0  0  0  0  0  0  0  0  0
   -1.8293   22.2294  -24.5275 N   0  0  0  0  0  0  0  0  0  0  0  0
   -1.9538   22.5782  -25.7915 C   0  0  0  0  0  0  0  0  0  0  0  0
   -0.8274   22.5763  -26.5816 C   0  0  0  0  0  0  0  0  0  0  0  0
    0.3554   22.2345  -26.0939 N   0  0  0  0  0  0  0  0  0  0  0  0
    0.4335   21.8782  -24.7679 C   0  0  0  0  0  0  0  0  0  0  0  0
    1.7412   21.5341  -24.3603 N   0  0  0  0  0  0  0  0  0  0  0  0
    2.1334   20.5710  -24.4145 H   0  0  0  0  0  0  0  0  0  0  0  0
    2.3614   22.2840  -23.9894 H   0  0  0  0  0  0  0  0  0  0  0  0
    0.0638   19.8953  -20.9544 N   0  0  0  0  0  0  0  0  0  0  0  0
   -0.0003   20.3336  -22.1788 N   0  0  0  0  0  0  0  0  0  0  0  0
   -0.6513   21.5003  -22.5352 C   0  0  0  0  0  0  0  0  0  0  0  0
   -1.2495   22.2153  -21.5486 C   0  0  0  0  0  0  0  0  0  0  0  0
   -1.1975   21.7710  -20.2283 C   0  0  0  0  0  0  0  0  0  0  0  0
   -1.8599   22.5768  -19.1881 C   0  0  0  0  0  0  0  0  0  0  0  0
   -0.5264   20.5984  -19.9714 C   0  0  0  0  0  0  0  0  0  0  0  0
   -0.4591   20.1668  -18.7908 O   0  0  0  0  0  0  0  0  0  0  0  0
    0.6738   16.3831  -20.0763 C   0  0  0  0  0  0  0  0  0  0  0  0
    2.0491   16.3125  -19.9819 C   0  0  0  0  0  0  0  0  0  0  0  0
    2.7911   17.4460  -20.2130 C   0  0  0  0  0  0  0  0  0  0  0  0
    2.1252   18.6257  -20.5343 C   0  0  0  0  0  0  0  0  0  0  0  0
    0.7511   18.6760  -20.6236 C   0  0  0  0  0  0  0  0  0  0  0  0
    0.0118   17.5468  -20.3935 C   0  0  0  0  0  0  0  0  0  0  0  0
    0.0078   14.5421  -18.6255 C   0  0  0  0  0  0  0  0  0  0  0  0
   -0.0841   15.2296  -19.8413 O   0  0  0  0  0  0  0  0  0  0  0  0
    4.1650   17.3790  -20.1196 O   0  0  0  0  0  0  0  0  0  0  0  0
    4.9355   18.4858  -20.5316 C   0  0  0  0  0  0  0  0  0  0  0  0
   -3.2150   22.9672  -26.4055 C   0  0  0  0  0  0  0  0  0  0  0  0
   -4.4954   22.8580  -25.8638 C   0  0  0  0  0  0  0  0  0  0  0  0
   -5.3601   23.3361  -26.7725 N   0  0  0  0  0  0  0  0  0  0  0  0
   -4.7248   23.7412  -27.8517 N   0  0  0  0  0  0  0  0  0  0  0  0
   -3.4136   23.5251  -27.6490 C   0  0  0  0  0  0  0  0  0  0  0  0
   -5.3115   24.3142  -29.0416 C   0  0  0  0  0  0  0  0  0  0  0  0
   -5.2001   23.3539  -30.2076 C   0  0  0  0  0  0  0  0  0  0  0  0
   -6.1463   23.8848  -31.2859 C   0  0  0  0  0  0  0  0  0  0  0  0
   -5.9454   25.3031  -31.4486 N   0  0  0  0  0  0  0  0  0  0  0  0
   -4.6679   25.7521  -30.9503 C   0  0  0  0  0  0  0  0  0  0  0  0
   -4.6473   25.6189  -29.4419 C   0  0  0  0  0  0  0  0  0  0  0  0
   -6.6819   25.8702  -30.9859 H   0  0  0  0  0  0  0  0  0  0  0  0
 24 25  1  0  0  0
 25 18  1  0  0  0
 18 19  2  0  0  0
 19 20  1  0  0  0
 20 26  1  0  0  0
 26 27  1  0  0  0
 20 21  2  0  0  0
 21 22  1  0  0  0
 22 23  2  0  0  0
 22 10  1  0  0  0
 10 11  1  0  0  0
 11 12  2  0  0  0
 12 13  1  0  0  0
 13 14  2  0  0  0
 14 15  1  0  0  0
 14 16  1  0  0  0
 16 17  2  0  0  0
 12  1  1  0  0  0
  1  2  2  0  0  0
  2  3  1  0  0  0
  3  4  2  0  0  0
  4  5  1  0  0  0
  5  6  2  0  0  0
  6  7  1  0  0  0
  3 28  1  0  0  0
 28 29  1  0  0  0
 29 30  2  0  0  0
 30 31  1  0  0  0
 31 32  1  0  0  0
 31 33  1  0  0  0
 33 34  1  0  0  0
 34 35  1  0  0  0
 35 36  1  0  0  0
 36 37  1  0  0  0
 37 38  1  0  0  0
 23 18  1  0  0  0
 16 10  1  0  0  0
  6  1  1  0  0  0
 32 28  2  0  0  0
 38 33  1  0  0  0
  7  8  1  0  0  0
  7  9  1  0  0  0
 36 39  1  0  0  0
M  END
> <minimizedAffinity>
-8.58142

> <CNNscore>
0.2097889036

> <CNNaffinity>
6.9854559898

> <CNN_VS>
1.4654711485

> <CNNaffinity_variance>
0.2611702383

$$$$
[H]c1nc(N([H])[H])c(-c2nn(-c3c([H])c(OC([H])([H])[H])c([H])c(OC([H])([H])[H])c3[H])c(=O)c(C([H])([H])[H])c2[H])nc1-c1c([H])nn(C2([H])C([H])([H])C([H])([H])N([H])C([H])([H])C2([H])[H])c1[H]


 39 43  0  0  0  0  0  0  0  0999 V2000
   -0.2014   21.6401  -23.0559 C   0  0  0  0  0  0  0  0  0  0  0  0
    0.3565   21.4075  -21.8178 N   0  0  0  0  0  0  0  0  0  0  0  0
    1.6261   21.1165  -21.6222 C   0  0  0  0  0  0  0  0  0  0  0  0
    2.4529   21.0384  -22.7192 C   0  0  0  0  0  0  0  0  0  0  0  0
    1.9943   21.2485  -23.9436 N   0  0  0  0  0  0  0  0  0  0  0  0
    0.6609   21.5492  -24.0956 C   0  0  0  0  0  0  0  0  0  0  0  0
    0.2864   21.7525  -25.4422 N   0  0  0  0  0  0  0  0  0  0  0  0
    0.3230   22.6750  -25.9237 H   0  0  0  0  0  0  0  0  0  0  0  0
   -0.0396   20.9344  -25.9980 H   0  0  0  0  0  0  0  0  0  0  0  0
   -3.3109   22.9448  -24.4360 N   0  0  0  0  0  0  0  0  0  0  0  0
   -2.0669   22.6072  -24.2513 N   0  0  0  0  0  0  0  0  0  0  0  0
   -1.6176   21.9509  -23.1202 C   0  0  0  0  0  0  0  0  0  0  0  0
   -2.5302   21.6492  -22.1617 C   0  0  0  0  0  0  0  0  0  0  0  0
   -3.8691   21.9980  -22.3317 C   0  0  0  0  0  0  0  0  0  0  0  0
   -4.8269   21.6521  -21.2672 C   0  0  0  0  0  0  0  0  0  0  0  0
   -4.2209   22.6492  -23.4908 C   0  0  0  0  0  0  0  0  0  0  0  0
   -5.4211   22.9796  -23.6782 O   0  0  0  0  0  0  0  0  0  0  0  0
   -4.1058   23.6139  -27.9572 C   0  0  0  0  0  0  0  0  0  0  0  0
   -4.5570   24.9183  -27.9397 C   0  0  0  0  0  0  0  0  0  0  0  0
   -4.6006   25.5914  -26.7422 C   0  0  0  0  0  0  0  0  0  0  0  0
   -4.1868   24.9298  -25.5892 C   0  0  0  0  0  0  0  0  0  0  0  0
   -3.7394   23.6272  -25.6273 C   0  0  0  0  0  0  0  0  0  0  0  0
   -3.6959   22.9566  -26.8202 C   0  0  0  0  0  0  0  0  0  0  0  0
   -5.2330   22.6315  -29.8812 C   0  0  0  0  0  0  0  0  0  0  0  0
   -4.0605   22.9264  -29.1760 O   0  0  0  0  0  0  0  0  0  0  0  0
   -5.0509   26.8944  -26.7211 O   0  0  0  0  0  0  0  0  0  0  0  0
   -5.2874   27.5184  -25.4789 C   0  0  0  0  0  0  0  0  0  0  0  0
    2.2098   20.8713  -20.3114 C   0  0  0  0  0  0  0  0  0  0  0  0
    2.7186   19.6709  -19.8167 C   0  0  0  0  0  0  0  0  0  0  0  0
    3.1541   19.9012  -18.5680 N   0  0  0  0  0  0  0  0  0  0  0  0
    2.9600   21.1589  -18.2319 N   0  0  0  0  0  0  0  0  0  0  0  0
    2.3843   21.7696  -19.2820 C   0  0  0  0  0  0  0  0  0  0  0  0
    3.2972   21.7837  -16.9732 C   0  0  0  0  0  0  0  0  0  0  0  0
    2.0447   22.2154  -16.2389 C   0  0  0  0  0  0  0  0  0  0  0  0
    2.4782   22.5193  -14.8037 C   0  0  0  0  0  0  0  0  0  0  0  0
    3.6672   23.3345  -14.8210 N   0  0  0  0  0  0  0  0  0  0  0  0
    3.8624   24.0198  -16.0756 C   0  0  0  0  0  0  0  0  0  0  0  0
    4.1810   23.0045  -17.1531 C   0  0  0  0  0  0  0  0  0  0  0  0
    4.5300   22.7931  -14.6193 H   0  0  0  0  0  0  0  0  0  0  0  0
 24 25  1  0  0  0
 25 18  1  0  0  0
 18 19  2  0  0  0
 19 20  1  0  0  0
 20 26  1  0  0  0
 26 27  1  0  0  0
 20 21  2  0  0  0
 21 22  1  0  0  0
 22 23  2  0  0  0
 22 10  1  0  0  0
 10 11  1  0  0  0
 11 12  2  0  0  0
 12 13  1  0  0  0
 13 14  2  0  0  0
 14 15  1  0  0  0
 14 16  1  0  0  0
 16 17  2  0  0  0
 12  1  1  0  0  0
  1  2  2  0  0  0
  2  3  1  0  0  0
  3  4  2  0  0  0
  4  5  1  0  0  0
  5  6  2  0  0  0
  6  7  1  0  0  0
  3 28  1  0  0  0
 28 29  1  0  0  0
 29 30  2  0  0  0
 30 31  1  0  0  0
 31 32  1  0  0  0
 31 33  1  0  0  0
 33 34  1  0  0  0
 34 35  1  0  0  0
 35 36  1  0  0  0
 36 37  1  0  0  0
 37 38  1  0  0  0
 23 18  1  0  0  0
 16 10  1  0  0  0
  6  1  1  0  0  0
 32 28  2  0  0  0
 38 33  1  0  0  0
  7  8  1  0  0  0
  7  9  1  0  0  0
 36 39  1  0  0  0
M  END
> <minimizedAffinity>
-7.88329

> <CNNscore>
0.1949810982

> <CNNaffinity>
6.9115247726

> <CNN_VS>
1.3476166725

> <CNNaffinity_variance>
0.2183810771

$$$$
[H]C([H])=C([H])C(=O)N1C([H])([H])C([H])(N2C([H])([H])C([H])([H])C([H])([H])[C@]2([H])C([H])([H])n2c(=O)c(-c3c(Cl)c(OC([H])([H])[H])c([H])c(OC([H])([H])[H])c3Cl)c([H])c3c([H])nc(N([H])C([H])([H])[H])nc32)C1([H])[H]


 40 44  0  0  0  0  0  0  0  0999 V2000
   -0.5223   22.2706  -24.9435 C   0  0  0  0  0  0  0  0  0  0  0  0
    0.5558   21.5181  -24.6360 N   0  0  0  0  0  0  0  0  0  0  0  0
    0.8631   21.2798  -23.3487 C   0  0  0  0  0  0  0  0  0  0  0  0
    0.0969   21.7898  -22.3256 C   0  0  0  0  0  0  0  0  0  0  0  0
    0.4197   21.5216  -21.0258 C   0  0  0  0  0  0  0  0  0  0  0  0
   -0.3672   22.0279  -20.0247 C   0  0  0  0  0  0  0  0  0  0  0  0
   -1.4630   22.7949  -20.3567 C   0  0  0  0  0  0  0  0  0  0  0  0
   -2.1692   23.2482  -19.4229 O   0  0  0  0  0  0  0  0  0  0  0  0
   -1.8002   23.0739  -21.6523 N   0  0  0  0  0  0  0  0  0  0  0  0
   -1.0239   22.5724  -22.6268 C   0  0  0  0  0  0  0  0  0  0  0  0
   -1.2491   22.7540  -23.9348 N   0  0  0  0  0  0  0  0  0  0  0  0
    0.0063   21.7134  -18.6523 C   0  0  0  0  0  0  0  0  0  0  0  0
    0.9253   22.4427  -17.9327 C   0  0  0  0  0  0  0  0  0  0  0  0
    1.6764   23.8149  -18.6890 Cl  0  0  0  0  0  0  0  0  0  0  0  0
    1.2564   22.1027  -16.6280 C   0  0  0  0  0  0  0  0  0  0  0  0
    0.6853   21.0325  -16.0058 C   0  0  0  0  0  0  0  0  0  0  0  0
   -0.2594   20.2645  -16.7142 C   0  0  0  0  0  0  0  0  0  0  0  0
   -0.5718   20.6407  -18.0406 C   0  0  0  0  0  0  0  0  0  0  0  0
   -1.7589   19.6781  -18.9338 Cl  0  0  0  0  0  0  0  0  0  0  0  0
    2.2006   22.8776  -15.9333 O   0  0  0  0  0  0  0  0  0  0  0  0
    3.5231   22.4457  -15.8166 C   0  0  0  0  0  0  0  0  0  0  0  0
   -0.8089   19.2539  -16.1507 O   0  0  0  0  0  0  0  0  0  0  0  0
   -1.3560   18.2456  -15.5859 C   0  0  0  0  0  0  0  0  0  0  0  0
    0.1541   22.6002  -27.3232 C   0  0  0  0  0  0  0  0  0  0  0  0
   -0.8573   22.5298  -26.3207 N   0  0  0  0  0  0  0  0  0  0  0  0
   -1.8561   22.6657  -26.5737 H   0  0  0  0  0  0  0  0  0  0  0  0
   -2.9486   23.8473  -21.9665 C   0  0  0  0  0  0  0  0  0  0  0  0
   -3.9670   23.2479  -22.8561 C   0  0  0  0  0  0  0  0  0  0  0  0
   -5.2242   22.7417  -22.2763 C   0  0  0  0  0  0  0  0  0  0  0  0
   -6.2264   23.8762  -22.2543 C   0  0  0  0  0  0  0  0  0  0  0  0
   -5.4565   24.9774  -22.9311 C   0  0  0  0  0  0  0  0  0  0  0  0
   -4.4465   24.2928  -23.7559 N   0  0  0  0  0  0  0  0  0  0  0  0
   -5.1780   23.7384  -24.8702 C   0  0  0  0  0  0  0  0  0  0  0  0
   -4.4182   22.9574  -25.8807 C   0  0  0  0  0  0  0  0  0  0  0  0
   -4.6293   23.9860  -26.9249 N   0  0  0  0  0  0  0  0  0  0  0  0
   -5.3420   24.7721  -25.9622 C   0  0  0  0  0  0  0  0  0  0  0  0
   -4.2308   24.0202  -28.2621 C   0  0  0  0  0  0  0  0  0  0  0  0
   -3.5676   23.0159  -28.7245 O   0  0  0  0  0  0  0  0  0  0  0  0
   -4.5257   25.1209  -29.1435 C   0  0  0  0  0  0  0  0  0  0  0  0
   -3.7348   25.6722  -30.0259 C   0  0  0  0  0  0  0  0  0  0  0  0
 24 25  1  0  0  0
 25  1  1  0  0  0
  1  2  2  0  0  0
  2  3  1  0  0  0
  3  4  2  0  0  0
  4  5  1  0  0  0
  5  6  2  0  0  0
  6 12  1  0  0  0
 12 13  2  0  0  0
 13 14  1  0  0  0
 13 15  1  0  0  0
 15 20  1  0  0  0
 20 21  1  0  0  0
 15 16  2  0  0  0
 16 17  1  0  0  0
 17 22  1  0  0  0
 22 23  1  0  0  0
 17 18  2  0  0  0
 18 19  1  0  0  0
  6  7  1  0  0  0
  7  8  2  0  0  0
  7  9  1  0  0  0
  9 27  1  0  0  0
 27 28  1  0  0  0
 28 29  1  0  0  0
 29 30  1  0  0  0
 30 31  1  0  0  0
 31 32  1  0  0  0
 32 33  1  0  0  0
 33 34  1  0  0  0
 34 35  1  0  0  0
 35 36  1  0  0  0
 35 37  1  0  0  0
 37 38  2  0  0  0
 37 39  1  0  0  0
 39 40  2  0  0  0
  9 10  1  0  0  0
 10 11  2  0  0  0
 11  1  1  0  0  0
 10  4  1  0  0  0
 18 12  1  0  0  0
 32 28  1  0  0  0
 36 33  1  0  0  0
 25 26  1  0  0  0
M  END
> <minimizedAffinity>
-7.57501

> <CNNscore>
0.1278155148

> <CNNaffinity>
7.0388574600

> <CNN_VS>
0.8996751904

> <CNNaffinity_variance>
0.2660693228

$$$$
[H]C([H])=C([H])C(=O)N1C([H])([H])C([H])(N2C([H])([H])C([H])([H])C([H])([H])[C@]2([H])C([H])([H])n2c(=O)c(-c3c(Cl)c(OC([H])([H])[H])c([H])c(OC([H])([H])[H])c3Cl)c([H])c3c([H])nc(N([H])C([H])([H])[H])nc32)C1([H])[H]


 40 44  0  0  0  0  0  0  0  0999 V2000
   -0.3123   22.2953  -24.8621 C   0  0  0  0  0  0  0  0  0  0  0  0
    0.7431   21.5242  -24.5235 N   0  0  0  0  0  0  0  0  0  0  0  0
    0.9888   21.2530  -23.2295 C   0  0  0  0  0  0  0  0  0  0  0  0
    0.1816   21.7477  -22.2307 C   0  0  0  0  0  0  0  0  0  0  0  0
    0.4420   21.4463  -20.9241 C   0  0  0  0  0  0  0  0  0  0  0  0
   -0.3849   21.9380  -19.9484 C   0  0  0  0  0  0  0  0  0  0  0  0
   -1.4567   22.7243  -20.3118 C   0  0  0  0  0  0  0  0  0  0  0  0
   -2.2005   23.1637  -19.4008 O   0  0  0  0  0  0  0  0  0  0  0  0
   -1.7316   23.0367  -21.6146 N   0  0  0  0  0  0  0  0  0  0  0  0
   -0.9164   22.5492  -22.5642 C   0  0  0  0  0  0  0  0  0  0  0  0
   -1.0797   22.7632  -23.8764 N   0  0  0  0  0  0  0  0  0  0  0  0
   -0.0777   21.5880  -18.5681 C   0  0  0  0  0  0  0  0  0  0  0  0
   -0.6858   20.5513  -17.8976 C   0  0  0  0  0  0  0  0  0  0  0  0
   -1.8752   19.6012  -18.7352 Cl  0  0  0  0  0  0  0  0  0  0  0  0
   -0.3667   20.2571  -16.5789 C   0  0  0  0  0  0  0  0  0  0  0  0
    0.5620   20.9827  -15.8936 C   0  0  0  0  0  0  0  0  0  0  0  0
    1.2033   22.0511  -16.5505 C   0  0  0  0  0  0  0  0  0  0  0  0
    0.8530   22.3211  -17.8931 C   0  0  0  0  0  0  0  0  0  0  0  0
    1.6572   23.6626  -18.7220 Cl  0  0  0  0  0  0  0  0  0  0  0  0
   -1.0144   19.1886  -15.9359 O   0  0  0  0  0  0  0  0  0  0  0  0
   -0.9558   19.0575  -14.5472 C   0  0  0  0  0  0  0  0  0  0  0  0
    2.0789   22.7477  -15.9268 O   0  0  0  0  0  0  0  0  0  0  0  0
    2.9524   23.4416  -15.3021 C   0  0  0  0  0  0  0  0  0  0  0  0
    0.3765   22.2955  -27.2609 C   0  0  0  0  0  0  0  0  0  0  0  0
   -0.5813   22.5896  -26.2467 N   0  0  0  0  0  0  0  0  0  0  0  0
   -1.4923   23.0233  -26.4962 H   0  0  0  0  0  0  0  0  0  0  0  0
   -2.8567   23.8295  -21.9626 C   0  0  0  0  0  0  0  0  0  0  0  0
   -3.8973   23.2199  -22.8189 C   0  0  0  0  0  0  0  0  0  0  0  0
   -5.2361   22.9642  -22.2574 C   0  0  0  0  0  0  0  0  0  0  0  0
   -6.0857   24.1977  -22.4779 C   0  0  0  0  0  0  0  0  0  0  0  0
   -5.1492   25.0783  -23.2594 C   0  0  0  0  0  0  0  0  0  0  0  0
   -4.1944   24.1568  -23.8984 N   0  0  0  0  0  0  0  0  0  0  0  0
   -4.9338   23.5218  -24.9633 C   0  0  0  0  0  0  0  0  0  0  0  0
   -4.1693   22.7419  -25.9710 C   0  0  0  0  0  0  0  0  0  0  0  0
   -4.4710   23.7161  -27.0446 N   0  0  0  0  0  0  0  0  0  0  0  0
   -5.1905   24.5017  -26.0866 C   0  0  0  0  0  0  0  0  0  0  0  0
   -4.1217   23.7180  -28.3960 C   0  0  0  0  0  0  0  0  0  0  0  0
   -3.4226   22.7319  -28.8444 O   0  0  0  0  0  0  0  0  0  0  0  0
   -4.5053   24.7663  -29.3067 C   0  0  0  0  0  0  0  0  0  0  0  0
   -3.7278   25.6318  -29.9022 C   0  0  0  0  0  0  0  0  0  0  0  0
 24 25  1  0  0  0
 25  1  1  0  0  0
  1  2  2  0  0  0
  2  3  1  0  0  0
  3  4  2  0  0  0
  4  5  1  0  0  0
  5  6  2  0  0  0
  6 12  1  0  0  0
 12 13  2  0  0  0
 13 14  1  0  0  0
 13 15  1  0  0  0
 15 20  1  0  0  0
 20 21  1  0  0  0
 15 16  2  0  0  0
 16 17  1  0  0  0
 17 22  1  0  0  0
 22 23  1  0  0  0
 17 18  2  0  0  0
 18 19  1  0  0  0
  6  7  1  0  0  0
  7  8  2  0  0  0
  7  9  1  0  0  0
  9 27  1  0  0  0
 27 28  1  0  0  0
 28 29  1  0  0  0
 29 30  1  0  0  0
 30 31  1  0  0  0
 31 32  1  0  0  0
 32 33  1  0  0  0
 33 34  1  0  0  0
 34 35  1  0  0  0
 35 36  1  0  0  0
 35 37  1  0  0  0
 37 38  2  0  0  0
 37 39  1  0  0  0
 39 40  2  0  0  0
  9 10  1  0  0  0
 10 11  2  0  0  0
 11  1  1  0  0  0
 10  4  1  0  0  0
 18 12  1  0  0  0
 32 28  1  0  0  0
 36 33  1  0  0  0
 25 26  1  0  0  0
M  END
> <minimizedAffinity>
-7.69532

> <CNNscore>
0.1245753169

> <CNNaffinity>
6.9621748924

> <CNN_VS>
0.8673151731

> <CNNaffinity_variance>
0.3256236315

$$$$
[H]C([H])=C([H])C(=O)N1C([H])([H])C([H])(N2C([H])([H])C([H])([H])C([H])([H])[C@]2([H])C([H])([H])n2c(=O)c(-c3c(Cl)c(OC([H])([H])[H])c([H])c(OC([H])([H])[H])c3Cl)c([H])c3c([H])nc(N([H])C([H])([H])[H])nc32)C1([H])[H]


 40 44  0  0  0  0  0  0  0  0999 V2000
   -1.3341   22.6461  -25.8002 C   0  0  0  0  0  0  0  0  0  0  0  0
   -0.6018   21.6477  -25.2618 N   0  0  0  0  0  0  0  0  0  0  0  0
   -0.7351   21.3450  -23.9583 C   0  0  0  0  0  0  0  0  0  0  0  0
   -1.6096   22.0357  -23.1508 C   0  0  0  0  0  0  0  0  0  0  0  0
   -1.7392   21.7003  -21.8331 C   0  0  0  0  0  0  0  0  0  0  0  0
   -2.6277   22.3925  -21.0526 C   0  0  0  0  0  0  0  0  0  0  0  0
   -3.3661   23.4093  -21.6184 C   0  0  0  0  0  0  0  0  0  0  0  0
   -4.1737   24.0296  -20.8842 O   0  0  0  0  0  0  0  0  0  0  0  0
   -3.2485   23.7589  -22.9353 N   0  0  0  0  0  0  0  0  0  0  0  0
   -2.3761   23.0740  -23.6929 C   0  0  0  0  0  0  0  0  0  0  0  0
   -2.1746   23.3010  -24.9976 N   0  0  0  0  0  0  0  0  0  0  0  0
   -2.7418   21.9998  -19.6546 C   0  0  0  0  0  0  0  0  0  0  0  0
   -1.7795   22.2767  -18.7104 C   0  0  0  0  0  0  0  0  0  0  0  0
   -0.3571   23.1459  -19.2005 Cl  0  0  0  0  0  0  0  0  0  0  0  0
   -1.9268   21.8771  -17.3890 C   0  0  0  0  0  0  0  0  0  0  0  0
   -3.0306   21.1940  -16.9720 C   0  0  0  0  0  0  0  0  0  0  0  0
   -4.0347   20.8942  -17.9132 C   0  0  0  0  0  0  0  0  0  0  0  0
   -3.8504   21.3171  -19.2494 C   0  0  0  0  0  0  0  0  0  0  0  0
   -5.1106   20.9426  -20.4349 Cl  0  0  0  0  0  0  0  0  0  0  0  0
   -0.9171   22.1828  -16.4608 O   0  0  0  0  0  0  0  0  0  0  0  0
   -0.0705   21.1820  -15.9802 C   0  0  0  0  0  0  0  0  0  0  0  0
   -5.0806   20.2527  -17.5451 O   0  0  0  0  0  0  0  0  0  0  0  0
   -6.1251   19.6118  -17.1802 C   0  0  0  0  0  0  0  0  0  0  0  0
   -2.3244   22.9709  -28.0681 C   0  0  0  0  0  0  0  0  0  0  0  0
   -1.1963   22.9756  -27.1962 N   0  0  0  0  0  0  0  0  0  0  0  0
   -0.2537   23.2187  -27.5602 H   0  0  0  0  0  0  0  0  0  0  0  0
   -4.0391   24.7951  -23.4981 C   0  0  0  0  0  0  0  0  0  0  0  0
   -5.2539   24.4112  -24.2494 C   0  0  0  0  0  0  0  0  0  0  0  0
   -6.5692   24.4991  -23.5895 C   0  0  0  0  0  0  0  0  0  0  0  0
   -7.1259   25.8870  -23.8258 C   0  0  0  0  0  0  0  0  0  0  0  0
   -6.0736   26.4912  -24.7152 C   0  0  0  0  0  0  0  0  0  0  0  0
   -5.4080   25.3464  -25.3599 N   0  0  0  0  0  0  0  0  0  0  0  0
   -6.3523   24.8587  -26.3368 C   0  0  0  0  0  0  0  0  0  0  0  0
   -5.9803   23.6524  -27.1210 C   0  0  0  0  0  0  0  0  0  0  0  0
   -5.8717   24.4275  -28.3782 N   0  0  0  0  0  0  0  0  0  0  0  0
   -6.2007   25.6107  -27.6404 C   0  0  0  0  0  0  0  0  0  0  0  0
   -5.5655   24.0168  -29.6766 C   0  0  0  0  0  0  0  0  0  0  0  0
   -5.3312   22.7653  -29.8789 O   0  0  0  0  0  0  0  0  0  0  0  0
   -5.5000   24.9236  -30.7940 C   0  0  0  0  0  0  0  0  0  0  0  0
   -4.5932   25.8343  -31.0322 C   0  0  0  0  0  0  0  0  0  0  0  0
 24 25  1  0  0  0
 25  1  1  0  0  0
  1  2  2  0  0  0
  2  3  1  0  0  0
  3  4  2  0  0  0
  4  5  1  0  0  0
  5  6  2  0  0  0
  6 12  1  0  0  0
 12 13  2  0  0  0
 13 14  1  0  0  0
 13 15  1  0  0  0
 15 20  1  0  0  0
 20 21  1  0  0  0
 15 16  2  0  0  0
 16 17  1  0  0  0
 17 22  1  0  0  0
 22 23  1  0  0  0
 17 18  2  0  0  0
 18 19  1  0  0  0
  6  7  1  0  0  0
  7  8  2  0  0  0
  7  9  1  0  0  0
  9 27  1  0  0  0
 27 28  1  0  0  0
 28 29  1  0  0  0
 29 30  1  0  0  0
 30 31  1  0  0  0
 31 32  1  0  0  0
 32 33  1  0  0  0
 33 34  1  0  0  0
 34 35  1  0  0  0
 35 36  1  0  0  0
 35 37  1  0  0  0
 37 38  2  0  0  0
 37 39  1  0  0  0
 39 40  2  0  0  0
  9 10  1  0  0  0
 10 11  2  0  0  0
 11  1  1  0  0  0
 10  4  1  0  0  0
 18 12  1  0  0  0
 32 28  1  0  0  0
 36 33  1  0  0  0
 25 26  1  0  0  0
M  END
> <minimizedAffinity>
-7.80186

> <CNNscore>
0.1136904210

> <CNNaffinity>
7.2655496597

> <CNN_VS>
0.8260233998

> <CNNaffinity_variance>
0.2697109878

$$$$
[H]C([H])=C([H])C(=O)N1C([H])([H])C([H])(N2C([H])([H])C([H])([H])C([H])([H])[C@]2([H])C([H])([H])n2c(=O)c(-c3c(Cl)c(OC([H])([H])[H])c([H])c(OC([H])([H])[H])c3Cl)c([H])c3c([H])nc(N([H])C([H])([H])[H])nc32)C1([H])[H]


 40 44  0  0  0  0  0  0  0  0999 V2000
    2.0110   20.8295  -22.5017 C   0  0  0  0  0  0  0  0  0  0  0  0
    2.3311   21.4551  -23.6547 N   0  0  0  0  0  0  0  0  0  0  0  0
    1.3723   22.0571  -24.3804 C   0  0  0  0  0  0  0  0  0  0  0  0
    0.0581   22.0513  -23.9720 C   0  0  0  0  0  0  0  0  0  0  0  0
   -0.8961   22.6827  -24.7179 C   0  0  0  0  0  0  0  0  0  0  0  0
   -2.1955   22.6762  -24.2828 C   0  0  0  0  0  0  0  0  0  0  0  0
   -2.5045   22.0320  -23.1044 C   0  0  0  0  0  0  0  0  0  0  0  0
   -3.7014   22.0391  -22.7256 O   0  0  0  0  0  0  0  0  0  0  0  0
   -1.5621   21.3943  -22.3457 N   0  0  0  0  0  0  0  0  0  0  0  0
   -0.2910   21.4069  -22.7794 C   0  0  0  0  0  0  0  0  0  0  0  0
    0.7308   20.8372  -22.1269 N   0  0  0  0  0  0  0  0  0  0  0  0
   -3.1820   23.3667  -25.1026 C   0  0  0  0  0  0  0  0  0  0  0  0
   -3.8643   24.4857  -24.6827 C   0  0  0  0  0  0  0  0  0  0  0  0
   -3.5321   25.1188  -23.0991 Cl  0  0  0  0  0  0  0  0  0  0  0  0
   -4.8019   25.1084  -25.4955 C   0  0  0  0  0  0  0  0  0  0  0  0
   -5.0855   24.6372  -26.7430 C   0  0  0  0  0  0  0  0  0  0  0  0
   -4.4049   23.4932  -27.2037 C   0  0  0  0  0  0  0  0  0  0  0  0
   -3.4571   22.8860  -26.3486 C   0  0  0  0  0  0  0  0  0  0  0  0
   -2.5995   21.4484  -26.9244 Cl  0  0  0  0  0  0  0  0  0  0  0  0
   -5.4734   26.2487  -25.0230 O   0  0  0  0  0  0  0  0  0  0  0  0
   -5.1677   27.5123  -25.5321 C   0  0  0  0  0  0  0  0  0  0  0  0
   -4.6552   23.0316  -28.3721 O   0  0  0  0  0  0  0  0  0  0  0  0
   -4.9032   22.5688  -29.5379 C   0  0  0  0  0  0  0  0  0  0  0  0
    3.5657   18.9177  -22.1058 C   0  0  0  0  0  0  0  0  0  0  0  0
    3.0334   20.1825  -21.7192 N   0  0  0  0  0  0  0  0  0  0  0  0
    3.3795   20.6566  -20.8615 H   0  0  0  0  0  0  0  0  0  0  0  0
   -1.9043   20.7586  -21.1233 C   0  0  0  0  0  0  0  0  0  0  0  0
   -1.8571   21.5652  -19.8844 C   0  0  0  0  0  0  0  0  0  0  0  0
   -2.9461   21.4394  -18.8988 C   0  0  0  0  0  0  0  0  0  0  0  0
   -2.5846   20.3318  -17.9323 C   0  0  0  0  0  0  0  0  0  0  0  0
   -1.2124   19.9435  -18.4115 C   0  0  0  0  0  0  0  0  0  0  0  0
   -0.6965   21.1320  -19.1119 N   0  0  0  0  0  0  0  0  0  0  0  0
   -0.3710   22.0760  -18.0694 C   0  0  0  0  0  0  0  0  0  0  0  0
    0.1521   23.4064  -18.4752 C   0  0  0  0  0  0  0  0  0  0  0  0
    1.4927   23.1185  -17.9160 N   0  0  0  0  0  0  0  0  0  0  0  0
    1.0220   21.8189  -17.5390 C   0  0  0  0  0  0  0  0  0  0  0  0
    2.6428   23.9073  -17.8578 C   0  0  0  0  0  0  0  0  0  0  0  0
    2.5904   25.0958  -18.3547 O   0  0  0  0  0  0  0  0  0  0  0  0
    3.8783   23.4554  -17.2708 C   0  0  0  0  0  0  0  0  0  0  0  0
    4.2957   23.6396  -16.0460 C   0  0  0  0  0  0  0  0  0  0  0  0
 24 25  1  0  0  0
 25  1  1  0  0  0
  1  2  2  0  0  0
  2  3  1  0  0  0
  3  4  2  0  0  0
  4  5  1  0  0  0
  5  6  2  0  0  0
  6 12  1  0  0  0
 12 13  2  0  0  0
 13 14  1  0  0  0
 13 15  1  0  0  0
 15 20  1  0  0  0
 20 21  1  0  0  0
 15 16  2  0  0  0
 16 17  1  0  0  0
 17 22  1  0  0  0
 22 23  1  0  0  0
 17 18  2  0  0  0
 18 19  1  0  0  0
  6  7  1  0  0  0
  7  8  2  0  0  0
  7  9  1  0  0  0
  9 27  1  0  0  0
 27 28  1  0  0  0
 28 29  1  0  0  0
 29 30  1  0  0  0
 30 31  1  0  0  0
 31 32  1  0  0  0
 32 33  1  0  0  0
 33 34  1  0  0  0
 34 35  1  0  0  0
 35 36  1  0  0  0
 35 37  1  0  0  0
 37 38  2  0  0  0
 37 39  1  0  0  0
 39 40  2  0  0  0
  9 10  1  0  0  0
 10 11  2  0  0  0
 11  1  1  0  0  0
 10  4  1  0  0  0
 18 12  1  0  0  0
 32 28  1  0  0  0
 36 33  1  0  0  0
 25 26  1  0  0  0
M  END
> <minimizedAffinity>
-6.89602

> <CNNscore>
0.1055891514

> <CNNaffinity>
6.9091615677

> <CNN_VS>
0.7295324802

> <CNNaffinity_variance>
0.1609029770

$$$$
[H]C([H])=C([H])C(=O)N1C([H])([H])C([H])(N2C([H])([H])C([H])([H])C([H])([H])[C@]2([H])C([H])([H])n2c(=O)c(-c3c(Cl)c(OC([H])([H])[H])c([H])c(OC([H])([H])[H])c3Cl)c([H])c3c([H])nc(N([H])C([H])([H])[H])nc32)C1([H])[H]


 40 44  0  0  0  0  0  0  0  0999 V2000
   -8.2049   25.4923  -22.5374 C   0  0  0  0  0  0  0  0  0  0  0  0
   -7.4661   26.4205  -23.1821 N   0  0  0  0  0  0  0  0  0  0  0  0
   -6.2338   26.1104  -23.6224 C   0  0  0  0  0  0  0  0  0  0  0  0
   -5.7016   24.8560  -23.4300 C   0  0  0  0  0  0  0  0  0  0  0  0
   -4.4537   24.5595  -23.8996 C   0  0  0  0  0  0  0  0  0  0  0  0
   -3.9512   23.2990  -23.7093 C   0  0  0  0  0  0  0  0  0  0  0  0
   -4.7185   22.3644  -23.0482 C   0  0  0  0  0  0  0  0  0  0  0  0
   -4.2375   21.2163  -22.8853 O   0  0  0  0  0  0  0  0  0  0  0  0
   -5.9691   22.6443  -22.5707 N   0  0  0  0  0  0  0  0  0  0  0  0
   -6.4539   23.8821  -22.7631 C   0  0  0  0  0  0  0  0  0  0  0  0
   -7.6674   24.2839  -22.3627 N   0  0  0  0  0  0  0  0  0  0  0  0
   -2.6201   23.0204  -24.2312 C   0  0  0  0  0  0  0  0  0  0  0  0
   -1.5241   22.7997  -23.4286 C   0  0  0  0  0  0  0  0  0  0  0  0
   -1.7315   22.8454  -21.7041 Cl  0  0  0  0  0  0  0  0  0  0  0  0
   -0.2713   22.5441  -23.9696 C   0  0  0  0  0  0  0  0  0  0  0  0
   -0.0749   22.5012  -25.3181 C   0  0  0  0  0  0  0  0  0  0  0  0
   -1.1759   22.7229  -26.1682 C   0  0  0  0  0  0  0  0  0  0  0  0
   -2.4361   22.9799  -25.5816 C   0  0  0  0  0  0  0  0  0  0  0  0
   -3.8221   23.2586  -26.6470 Cl  0  0  0  0  0  0  0  0  0  0  0  0
    0.8181   22.3249  -23.1096 O   0  0  0  0  0  0  0  0  0  0  0  0
    1.1957   21.0265  -22.7618 C   0  0  0  0  0  0  0  0  0  0  0  0
   -1.0157   22.6883  -27.4387 O   0  0  0  0  0  0  0  0  0  0  0  0
   -0.8555   22.6510  -28.7067 C   0  0  0  0  0  0  0  0  0  0  0  0
  -10.6809   25.5320  -22.8486 C   0  0  0  0  0  0  0  0  0  0  0  0
   -9.5259   25.8178  -22.0630 N   0  0  0  0  0  0  0  0  0  0  0  0
   -9.6242   26.2679  -21.1314 H   0  0  0  0  0  0  0  0  0  0  0  0
   -6.7476   21.6552  -21.9140 C   0  0  0  0  0  0  0  0  0  0  0  0
   -6.4471   21.3642  -20.4953 C   0  0  0  0  0  0  0  0  0  0  0  0
   -6.2325   22.4821  -19.5586 C   0  0  0  0  0  0  0  0  0  0  0  0
   -7.5718   22.8698  -18.9691 C   0  0  0  0  0  0  0  0  0  0  0  0
   -8.4842   21.8416  -19.5803 C   0  0  0  0  0  0  0  0  0  0  0  0
   -7.6130   20.7028  -19.9171 N   0  0  0  0  0  0  0  0  0  0  0  0
   -7.2970   20.0795  -18.6539 C   0  0  0  0  0  0  0  0  0  0  0  0
   -6.8020   18.6784  -18.6750 C   0  0  0  0  0  0  0  0  0  0  0  0
   -8.0321   18.1689  -18.0268 N   0  0  0  0  0  0  0  0  0  0  0  0
   -8.5450   19.5066  -18.0197 C   0  0  0  0  0  0  0  0  0  0  0  0
   -8.3888   16.8755  -17.6418 C   0  0  0  0  0  0  0  0  0  0  0  0
   -7.5470   15.9232  -17.8578 O   0  0  0  0  0  0  0  0  0  0  0  0
   -9.6480   16.5591  -17.0177 C   0  0  0  0  0  0  0  0  0  0  0  0
   -9.8527   16.1491  -15.7937 C   0  0  0  0  0  0  0  0  0  0  0  0
 24 25  1  0  0  0
 25  1  1  0  0  0
  1  2  2  0  0  0
  2  3  1  0  0  0
  3  4  2  0  0  0
  4  5  1  0  0  0
  5  6  2  0  0  0
  6 12  1  0  0  0
 12 13  2  0  0  0
 13 14  1  0  0  0
 13 15  1  0  0  0
 15 20  1  0  0  0
 20 21  1  0  0  0
 15 16  2  0  0  0
 16 17  1  0  0  0
 17 22  1  0  0  0
 22 23  1  0  0  0
 17 18  2  0  0  0
 18 19  1  0  0  0
  6  7  1  0  0  0
  7  8  2  0  0  0
  7  9  1  0  0  0
  9 27  1  0  0  0
 27 28  1  0  0  0
 28 29  1  0  0  0
 29 30  1  0  0  0
 30 31  1  0  0  0
 31 32  1  0  0  0
 32 33  1  0  0  0
 33 34  1  0  0  0
 34 35  1  0  0  0
 35 36  1  0  0  0
 35 37  1  0  0  0
 37 38  2  0  0  0
 37 39  1  0  0  0
 39 40  2  0  0  0
  9 10  1  0  0  0
 10 11  2  0  0  0
 11  1  1  0  0  0
 10  4  1  0  0  0
 18 12  1  0  0  0
 32 28  1  0  0  0
 36 33  1  0  0  0
 25 26  1  0  0  0
M  END
> <minimizedAffinity>
-6.55755

> <CNNscore>
0.1032055318

> <CNNaffinity>
6.6668176651

> <CNN_VS>
0.6880524755

> <CNNaffinity_variance>
0.2573411167

$$$$
[H]C([H])=C([H])C(=O)N1C([H])([H])C([H])(N2C([H])([H])C([H])([H])C([H])([H])[C@]2([H])C([H])([H])n2c(=O)c(-c3c(Cl)c(OC([H])([H])[H])c([H])c(OC([H])([H])[H])c3Cl)c([H])c3c([H])nc(N([H])C([H])([H])[H])nc32)C1([H])[H]


 40 44  0  0  0  0  0  0  0  0999 V2000
   -0.9596   22.3634  -25.7018 C   0  0  0  0  0  0  0  0  0  0  0  0
    0.3634   22.1124  -25.6034 N   0  0  0  0  0  0  0  0  0  0  0  0
    0.8837   21.7027  -24.4329 C   0  0  0  0  0  0  0  0  0  0  0  0
    0.0917   21.5310  -23.3207 C   0  0  0  0  0  0  0  0  0  0  0  0
    0.6401   21.0993  -22.1465 C   0  0  0  0  0  0  0  0  0  0  0  0
   -0.1713   20.9212  -21.0568 C   0  0  0  0  0  0  0  0  0  0  0  0
   -1.5191   21.1833  -21.1749 C   0  0  0  0  0  0  0  0  0  0  0  0
   -2.2430   21.0130  -20.1634 O   0  0  0  0  0  0  0  0  0  0  0  0
   -2.0846   21.6168  -22.3422 N   0  0  0  0  0  0  0  0  0  0  0  0
   -1.2817   21.7873  -23.4053 C   0  0  0  0  0  0  0  0  0  0  0  0
   -1.7065   22.1900  -24.6103 N   0  0  0  0  0  0  0  0  0  0  0  0
    0.4504   20.4529  -19.8255 C   0  0  0  0  0  0  0  0  0  0  0  0
    0.6798   19.1237  -19.5523 C   0  0  0  0  0  0  0  0  0  0  0  0
    0.2152   17.9379  -20.7343 Cl  0  0  0  0  0  0  0  0  0  0  0  0
    1.2697   18.7215  -18.3617 C   0  0  0  0  0  0  0  0  0  0  0  0
    1.6461   19.6263  -17.4139 C   0  0  0  0  0  0  0  0  0  0  0  0
    1.4253   20.9952  -17.6619 C   0  0  0  0  0  0  0  0  0  0  0  0
    0.8226   21.3674  -18.8852 C   0  0  0  0  0  0  0  0  0  0  0  0
    0.5441   23.0869  -19.2004 Cl  0  0  0  0  0  0  0  0  0  0  0  0
    1.4838   17.3525  -18.1276 O   0  0  0  0  0  0  0  0  0  0  0  0
    0.6095   16.6279  -17.3153 C   0  0  0  0  0  0  0  0  0  0  0  0
    1.7699   21.8640  -16.7859 O   0  0  0  0  0  0  0  0  0  0  0  0
    2.1158   22.7296  -15.9105 C   0  0  0  0  0  0  0  0  0  0  0  0
   -2.9106   23.1124  -27.0661 C   0  0  0  0  0  0  0  0  0  0  0  0
   -1.5236   22.8026  -26.9529 N   0  0  0  0  0  0  0  0  0  0  0  0
   -0.8980   22.8906  -27.7782 H   0  0  0  0  0  0  0  0  0  0  0  0
   -3.4804   21.8565  -22.4424 C   0  0  0  0  0  0  0  0  0  0  0  0
   -3.9970   23.1585  -21.9676 C   0  0  0  0  0  0  0  0  0  0  0  0
   -3.3364   24.4010  -22.4066 C   0  0  0  0  0  0  0  0  0  0  0  0
   -3.9915   24.8568  -23.6930 C   0  0  0  0  0  0  0  0  0  0  0  0
   -5.0846   23.8364  -23.8578 C   0  0  0  0  0  0  0  0  0  0  0  0
   -5.3456   23.3266  -22.5009 N   0  0  0  0  0  0  0  0  0  0  0  0
   -6.0543   24.3879  -21.8260 C   0  0  0  0  0  0  0  0  0  0  0  0
   -6.5984   24.1085  -20.4716 C   0  0  0  0  0  0  0  0  0  0  0  0
   -7.9976   24.1834  -20.9508 N   0  0  0  0  0  0  0  0  0  0  0  0
   -7.4992   24.4263  -22.2719 C   0  0  0  0  0  0  0  0  0  0  0  0
   -9.2038   24.0509  -20.2611 C   0  0  0  0  0  0  0  0  0  0  0  0
   -9.1570   23.8281  -18.9921 O   0  0  0  0  0  0  0  0  0  0  0  0
  -10.4910   24.1514  -20.9001 C   0  0  0  0  0  0  0  0  0  0  0  0
  -11.0225   25.2029  -21.4659 C   0  0  0  0  0  0  0  0  0  0  0  0
 24 25  1  0  0  0
 25  1  1  0  0  0
  1  2  2  0  0  0
  2  3  1  0  0  0
  3  4  2  0  0  0
  4  5  1  0  0  0
  5  6  2  0  0  0
  6 12  1  0  0  0
 12 13  2  0  0  0
 13 14  1  0  0  0
 13 15  1  0  0  0
 15 20  1  0  0  0
 20 21  1  0  0  0
 15 16  2  0  0  0
 16 17  1  0  0  0
 17 22  1  0  0  0
 22 23  1  0  0  0
 17 18  2  0  0  0
 18 19  1  0  0  0
  6  7  1  0  0  0
  7  8  2  0  0  0
  7  9  1  0  0  0
  9 27  1  0  0  0
 27 28  1  0  0  0
 28 29  1  0  0  0
 29 30  1  0  0  0
 30 31  1  0  0  0
 31 32  1  0  0  0
 32 33  1  0  0  0
 33 34  1  0  0  0
 34 35  1  0  0  0
 35 36  1  0  0  0
 35 37  1  0  0  0
 37 38  2  0  0  0
 37 39  1  0  0  0
 39 40  2  0  0  0
  9 10  1  0  0  0
 10 11  2  0  0  0
 11  1  1  0  0  0
 10  4  1  0  0  0
 18 12  1  0  0  0
 32 28  1  0  0  0
 36 33  1  0  0  0
 25 26  1  0  0  0
M  END
> <minimizedAffinity>
-7.09348

> <CNNscore>
0.0893769562

> <CNNaffinity>
6.8009309769

> <CNN_VS>
0.6078464985

> <CNNaffinity_variance>
0.1482711732

$$$$
[H]C([H])=C([H])C(=O)N1C([H])([H])C([H])(N2C([H])([H])C([H])([H])C([H])([H])[C@]2([H])C([H])([H])n2c(=O)c(-c3c(Cl)c(OC([H])([H])[H])c([H])c(OC([H])([H])[H])c3Cl)c([H])c3c([H])nc(N([H])C([H])([H])[H])nc32)C1([H])[H]


 40 44  0  0  0  0  0  0  0  0999 V2000
    1.9853   20.7918  -22.2167 C   0  0  0  0  0  0  0  0  0  0  0  0
    2.4212   21.3010  -23.3888 N   0  0  0  0  0  0  0  0  0  0  0  0
    1.5487   21.8696  -24.2396 C   0  0  0  0  0  0  0  0  0  0  0  0
    0.2074   21.9460  -23.9414 C   0  0  0  0  0  0  0  0  0  0  0  0
   -0.6577   22.5419  -24.8145 C   0  0  0  0  0  0  0  0  0  0  0  0
   -1.9864   22.6196  -24.4886 C   0  0  0  0  0  0  0  0  0  0  0  0
   -2.4141   22.0937  -23.2887 C   0  0  0  0  0  0  0  0  0  0  0  0
   -3.6357   22.1763  -23.0115 O   0  0  0  0  0  0  0  0  0  0  0  0
   -1.5620   21.4931  -22.4035 N   0  0  0  0  0  0  0  0  0  0  0  0
   -0.2613   21.4226  -22.7308 C   0  0  0  0  0  0  0  0  0  0  0  0
    0.6811   20.8776  -21.9502 N   0  0  0  0  0  0  0  0  0  0  0  0
   -2.8754   23.2688  -25.4427 C   0  0  0  0  0  0  0  0  0  0  0  0
   -3.0629   22.8177  -26.7293 C   0  0  0  0  0  0  0  0  0  0  0  0
   -2.2065   21.3975  -27.2475 Cl  0  0  0  0  0  0  0  0  0  0  0  0
   -3.9157   23.4721  -27.6079 C   0  0  0  0  0  0  0  0  0  0  0  0
   -4.6025   24.5885  -27.2327 C   0  0  0  0  0  0  0  0  0  0  0  0
   -4.4331   25.0769  -25.9224 C   0  0  0  0  0  0  0  0  0  0  0  0
   -3.5569   24.3846  -25.0557 C   0  0  0  0  0  0  0  0  0  0  0  0
   -3.3421   24.9953  -23.4082 Cl  0  0  0  0  0  0  0  0  0  0  0  0
   -4.0749   22.9738  -28.9121 O   0  0  0  0  0  0  0  0  0  0  0  0
   -5.2467   23.2255  -29.6282 C   0  0  0  0  0  0  0  0  0  0  0  0
   -5.0673   26.1248  -25.5472 O   0  0  0  0  0  0  0  0  0  0  0  0
   -5.6980   27.1721  -25.1727 C   0  0  0  0  0  0  0  0  0  0  0  0
    2.4885   19.7131  -20.0230 C   0  0  0  0  0  0  0  0  0  0  0  0
    2.9148   20.1813  -21.3004 N   0  0  0  0  0  0  0  0  0  0  0  0
    3.9091   20.0869  -21.5880 H   0  0  0  0  0  0  0  0  0  0  0  0
   -2.0259   20.9808  -21.1634 C   0  0  0  0  0  0  0  0  0  0  0  0
   -1.9478   21.8597  -19.9763 C   0  0  0  0  0  0  0  0  0  0  0  0
   -3.1298   22.0070  -19.1078 C   0  0  0  0  0  0  0  0  0  0  0  0
   -3.0732   20.9310  -18.0444 C   0  0  0  0  0  0  0  0  0  0  0  0
   -1.7575   20.2683  -18.3496 C   0  0  0  0  0  0  0  0  0  0  0  0
   -0.9663   21.2878  -19.0593 N   0  0  0  0  0  0  0  0  0  0  0  0
   -0.5720   22.2367  -18.0453 C   0  0  0  0  0  0  0  0  0  0  0  0
    0.3141   23.3587  -18.4506 C   0  0  0  0  0  0  0  0  0  0  0  0
    1.4488   22.8298  -17.6596 N   0  0  0  0  0  0  0  0  0  0  0  0
    0.6246   21.7224  -17.2762 C   0  0  0  0  0  0  0  0  0  0  0  0
    2.7366   23.3326  -17.4676 C   0  0  0  0  0  0  0  0  0  0  0  0
    3.0491   24.4408  -18.0474 O   0  0  0  0  0  0  0  0  0  0  0  0
    3.7263   22.6724  -16.6551 C   0  0  0  0  0  0  0  0  0  0  0  0
    3.9329   22.8164  -15.3726 C   0  0  0  0  0  0  0  0  0  0  0  0
 24 25  1  0  0  0
 25  1  1  0  0  0
  1  2  2  0  0  0
  2  3  1  0  0  0
  3  4  2  0  0  0
  4  5  1  0  0  0
  5  6  2  0  0  0
  6 12  1  0  0  0
 12 13  2  0  0  0
 13 14  1  0  0  0
 13 15  1  0  0  0
 15 20  1  0  0  0
 20 21  1  0  0  0
 15 16  2  0  0  0
 16 17  1  0  0  0
 17 22  1  0  0  0
 22 23  1  0  0  0
 17 18  2  0  0  0
 18 19  1  0  0  0
  6  7  1  0  0  0
  7  8  2  0  0  0
  7  9  1  0  0  0
  9 27  1  0  0  0
 27 28  1  0  0  0
 28 29  1  0  0  0
 29 30  1  0  0  0
 30 31  1  0  0  0
 31 32  1  0  0  0
 32 33  1  0  0  0
 33 34  1  0  0  0
 34 35  1  0  0  0
 35 36  1  0  0  0
 35 37  1  0  0  0
 37 38  2  0  0  0
 37 39  1  0  0  0
 39 40  2  0  0  0
  9 10  1  0  0  0
 10 11  2  0  0  0
 11  1  1  0  0  0
 10  4  1  0  0  0
 18 12  1  0  0  0
 32 28  1  0  0  0
 36 33  1  0  0  0
 25 26  1  0  0  0
M  END
> <minimizedAffinity>
-7.04625

> <CNNscore>
0.0881141275

> <CNNaffinity>
6.7673025131

> <CNN_VS>
0.5962949395

> <CNNaffinity_variance>
0.1977320015

$$$$
[H]C([H])=C([H])C(=O)N1C([H])([H])C([H])(N2C([H])([H])C([H])([H])C([H])([H])[C@]2([H])C([H])([H])n2c(=O)c(-c3c(Cl)c(OC([H])([H])[H])c([H])c(OC([H])([H])[H])c3Cl)c([H])c3c([H])nc(N([H])C([H])([H])[H])nc32)C1([H])[H]


 40 44  0  0  0  0  0  0  0  0999 V2000
   -7.8256   25.6257  -23.0413 C   0  0  0  0  0  0  0  0  0  0  0  0
   -7.0797   26.4703  -23.7853 N   0  0  0  0  0  0  0  0  0  0  0  0
   -5.8955   26.0647  -24.2768 C   0  0  0  0  0  0  0  0  0  0  0  0
   -5.4200   24.7957  -24.0373 C   0  0  0  0  0  0  0  0  0  0  0  0
   -4.2212   24.4011  -24.5598 C   0  0  0  0  0  0  0  0  0  0  0  0
   -3.7758   23.1275  -24.3203 C   0  0  0  0  0  0  0  0  0  0  0  0
   -4.5494   22.2793  -23.5579 C   0  0  0  0  0  0  0  0  0  0  0  0
   -4.1211   21.1173  -23.3516 O   0  0  0  0  0  0  0  0  0  0  0  0
   -5.7512   22.6580  -23.0264 N   0  0  0  0  0  0  0  0  0  0  0  0
   -6.1803   23.9077  -23.2675 C   0  0  0  0  0  0  0  0  0  0  0  0
   -7.3435   24.4013  -22.8227 N   0  0  0  0  0  0  0  0  0  0  0  0
   -2.4964   22.7428  -24.9009 C   0  0  0  0  0  0  0  0  0  0  0  0
   -2.2715   22.6739  -26.2569 C   0  0  0  0  0  0  0  0  0  0  0  0
   -3.5717   23.0725  -27.3384 Cl  0  0  0  0  0  0  0  0  0  0  0  0
   -1.0369   22.2957  -26.7668 C   0  0  0  0  0  0  0  0  0  0  0  0
    0.0037   21.9769  -25.9456 C   0  0  0  0  0  0  0  0  0  0  0  0
   -0.1929   22.0371  -24.5521 C   0  0  0  0  0  0  0  0  0  0  0  0
   -1.4631   22.4264  -24.0694 C   0  0  0  0  0  0  0  0  0  0  0  0
   -1.7136   22.5035  -22.3187 Cl  0  0  0  0  0  0  0  0  0  0  0  0
   -0.8550   22.2399  -28.1591 O   0  0  0  0  0  0  0  0  0  0  0  0
   -0.3898   23.3555  -28.8577 C   0  0  0  0  0  0  0  0  0  0  0  0
    0.7699   21.7414  -23.7606 O   0  0  0  0  0  0  0  0  0  0  0  0
    1.7322   21.4485  -22.9711 C   0  0  0  0  0  0  0  0  0  0  0  0
  -10.3209   25.5885  -23.0724 C   0  0  0  0  0  0  0  0  0  0  0  0
   -9.0954   26.0538  -22.5117 N   0  0  0  0  0  0  0  0  0  0  0  0
   -9.1037   26.7125  -21.7077 H   0  0  0  0  0  0  0  0  0  0  0  0
   -6.5391   21.7558  -22.2643 C   0  0  0  0  0  0  0  0  0  0  0  0
   -6.1560   21.5189  -20.8555 C   0  0  0  0  0  0  0  0  0  0  0  0
   -5.4531   22.5790  -20.1102 C   0  0  0  0  0  0  0  0  0  0  0  0
   -6.4909   23.4627  -19.4515 C   0  0  0  0  0  0  0  0  0  0  0  0
   -7.7691   22.7599  -19.8197 C   0  0  0  0  0  0  0  0  0  0  0  0
   -7.3818   21.3626  -20.0781 N   0  0  0  0  0  0  0  0  0  0  0  0
   -7.1163   20.7952  -18.7776 C   0  0  0  0  0  0  0  0  0  0  0  0
   -7.3613   19.3414  -18.5906 C   0  0  0  0  0  0  0  0  0  0  0  0
   -8.4993   19.5880  -17.6758 N   0  0  0  0  0  0  0  0  0  0  0  0
   -8.3027   20.9950  -17.8609 C   0  0  0  0  0  0  0  0  0  0  0  0
   -9.3248   18.6960  -16.9894 C   0  0  0  0  0  0  0  0  0  0  0  0
   -9.1077   17.4333  -17.1335 O   0  0  0  0  0  0  0  0  0  0  0  0
  -10.4021   19.1206  -16.1324 C   0  0  0  0  0  0  0  0  0  0  0  0
  -11.5528   19.6288  -16.4872 C   0  0  0  0  0  0  0  0  0  0  0  0
 24 25  1  0  0  0
 25  1  1  0  0  0
  1  2  2  0  0  0
  2  3  1  0  0  0
  3  4  2  0  0  0
  4  5  1  0  0  0
  5  6  2  0  0  0
  6 12  1  0  0  0
 12 13  2  0  0  0
 13 14  1  0  0  0
 13 15  1  0  0  0
 15 20  1  0  0  0
 20 21  1  0  0  0
 15 16  2  0  0  0
 16 17  1  0  0  0
 17 22  1  0  0  0
 22 23  1  0  0  0
 17 18  2  0  0  0
 18 19  1  0  0  0
  6  7  1  0  0  0
  7  8  2  0  0  0
  7  9  1  0  0  0
  9 27  1  0  0  0
 27 28  1  0  0  0
 28 29  1  0  0  0
 29 30  1  0  0  0
 30 31  1  0  0  0
 31 32  1  0  0  0
 32 33  1  0  0  0
 33 34  1  0  0  0
 34 35  1  0  0  0
 35 36  1  0  0  0
 35 37  1  0  0  0
 37 38  2  0  0  0
 37 39  1  0  0  0
 39 40  2  0  0  0
  9 10  1  0  0  0
 10 11  2  0  0  0
 11  1  1  0  0  0
 10  4  1  0  0  0
 18 12  1  0  0  0
 32 28  1  0  0  0
 36 33  1  0  0  0
 25 26  1  0  0  0
M  END
> <minimizedAffinity>
-7.30487

> <CNNscore>
0.0785401985

> <CNNaffinity>
6.6936178207

> <CNN_VS>
0.5257180929

> <CNNaffinity_variance>
0.1843029410

$$$$
[H]C([H])=C([H])C(=O)N1C([H])([H])C([H])(N2C([H])([H])C([H])([H])C([H])([H])[C@]2([H])C([H])([H])n2c(=O)c(-c3c(Cl)c(OC([H])([H])[H])c([H])c(OC([H])([H])[H])c3Cl)c([H])c3c([H])nc(N([H])C([H])([H])[H])nc32)C1([H])[H]


 40 44  0  0  0  0  0  0  0  0999 V2000
   -0.8977   22.2601  -25.7200 C   0  0  0  0  0  0  0  0  0  0  0  0
    0.4183   22.0121  -25.5475 N   0  0  0  0  0  0  0  0  0  0  0  0
    0.8850   21.6800  -24.3308 C   0  0  0  0  0  0  0  0  0  0  0  0
    0.0446   21.5855  -23.2451 C   0  0  0  0  0  0  0  0  0  0  0  0
    0.5391   21.2316  -22.0220 C   0  0  0  0  0  0  0  0  0  0  0  0
   -0.3199   21.1291  -20.9593 C   0  0  0  0  0  0  0  0  0  0  0  0
   -1.6597   21.3869  -21.1532 C   0  0  0  0  0  0  0  0  0  0  0  0
   -2.4277   21.2869  -20.1651 O   0  0  0  0  0  0  0  0  0  0  0  0
   -2.1716   21.7432  -22.3703 N   0  0  0  0  0  0  0  0  0  0  0  0
   -1.3224   21.8398  -23.4064 C   0  0  0  0  0  0  0  0  0  0  0  0
   -1.6921   22.1624  -24.6529 N   0  0  0  0  0  0  0  0  0  0  0  0
    0.2452   20.7423  -19.6736 C   0  0  0  0  0  0  0  0  0  0  0  0
    0.5482   21.6438  -18.6788 C   0  0  0  0  0  0  0  0  0  0  0  0
    0.2362   23.3299  -18.9591 Cl  0  0  0  0  0  0  0  0  0  0  0  0
    1.0923   21.2310  -17.4701 C   0  0  0  0  0  0  0  0  0  0  0  0
    1.3489   19.9158  -17.2185 C   0  0  0  0  0  0  0  0  0  0  0  0
    1.0505   18.9669  -18.2157 C   0  0  0  0  0  0  0  0  0  0  0  0
    0.4973   19.4240  -19.4336 C   0  0  0  0  0  0  0  0  0  0  0  0
    0.1206   18.2341  -20.6890 Cl  0  0  0  0  0  0  0  0  0  0  0  0
    1.3851   22.1886  -16.4843 O   0  0  0  0  0  0  0  0  0  0  0  0
    1.0597   21.9511  -15.1475 C   0  0  0  0  0  0  0  0  0  0  0  0
    1.2836   17.7254  -18.0026 O   0  0  0  0  0  0  0  0  0  0  0  0
    1.5188   16.4867  -17.7900 C   0  0  0  0  0  0  0  0  0  0  0  0
   -0.5253   23.0256  -28.0661 C   0  0  0  0  0  0  0  0  0  0  0  0
   -1.4044   22.6164  -27.0210 N   0  0  0  0  0  0  0  0  0  0  0  0
   -2.4293   22.5698  -27.1866 H   0  0  0  0  0  0  0  0  0  0  0  0
   -3.5602   21.9799  -22.5471 C   0  0  0  0  0  0  0  0  0  0  0  0
   -4.1001   23.2907  -22.1254 C   0  0  0  0  0  0  0  0  0  0  0  0
   -3.4953   24.5256  -22.6566 C   0  0  0  0  0  0  0  0  0  0  0  0
   -4.2104   24.8890  -23.9405 C   0  0  0  0  0  0  0  0  0  0  0  0
   -5.2761   23.8292  -24.0075 C   0  0  0  0  0  0  0  0  0  0  0  0
   -5.4718   23.3888  -22.6157 N   0  0  0  0  0  0  0  0  0  0  0  0
   -6.1887   24.4649  -21.9739 C   0  0  0  0  0  0  0  0  0  0  0  0
   -6.7212   24.2271  -20.6070 C   0  0  0  0  0  0  0  0  0  0  0  0
   -8.1240   24.2690  -21.0794 N   0  0  0  0  0  0  0  0  0  0  0  0
   -7.6366   24.4710  -22.4114 C   0  0  0  0  0  0  0  0  0  0  0  0
   -9.3244   24.1470  -20.3776 C   0  0  0  0  0  0  0  0  0  0  0  0
   -9.2672   23.9695  -19.1020 O   0  0  0  0  0  0  0  0  0  0  0  0
  -10.6166   24.2101  -21.0114 C   0  0  0  0  0  0  0  0  0  0  0  0
  -11.3916   25.2541  -21.1438 C   0  0  0  0  0  0  0  0  0  0  0  0
 24 25  1  0  0  0
 25  1  1  0  0  0
  1  2  2  0  0  0
  2  3  1  0  0  0
  3  4  2  0  0  0
  4  5  1  0  0  0
  5  6  2  0  0  0
  6 12  1  0  0  0
 12 13  2  0  0  0
 13 14  1  0  0  0
 13 15  1  0  0  0
 15 20  1  0  0  0
 20 21  1  0  0  0
 15 16  2  0  0  0
 16 17  1  0  0  0
 17 22  1  0  0  0
 22 23  1  0  0  0
 17 18  2  0  0  0
 18 19  1  0  0  0
  6  7  1  0  0  0
  7  8  2  0  0  0
  7  9  1  0  0  0
  9 27  1  0  0  0
 27 28  1  0  0  0
 28 29  1  0  0  0
 29 30  1  0  0  0
 30 31  1  0  0  0
 31 32  1  0  0  0
 32 33  1  0  0  0
 33 34  1  0  0  0
 34 35  1  0  0  0
 35 36  1  0  0  0
 35 37  1  0  0  0
 37 38  2  0  0  0
 37 39  1  0  0  0
 39 40  2  0  0  0
  9 10  1  0  0  0
 10 11  2  0  0  0
 11  1  1  0  0  0
 10  4  1  0  0  0
 18 12  1  0  0  0
 32 28  1  0  0  0
 36 33  1  0  0  0
 25 26  1  0  0  0
M  END
> <minimizedAffinity>
-7.17108

> <CNNscore>
0.0614276975

> <CNNaffinity>
6.6202597618

> <CNN_VS>
0.4066673219

> <CNNaffinity_variance>
0.2444302291

$$$$
[H]c1nc(-c2c(C([H])([H])[H])nn(C([H])([H])C#N)c2[H])c([H])c2c1C([H])([H])N(c1c(F)c(OC([H])([H])[H])c([H])c(OC([H])([H])[H])c1F)C(=O)C21C([H])([H])C1([H])[H]


 34 38  0  0  0  0  0  0  0  0999 V2000
   -0.2890   21.3388  -17.9398 N   0  0  0  0  0  0  0  0  0  0  0  0
   -0.1115   22.5469  -18.7108 C   0  0  0  0  0  0  0  0  0  0  0  0
   -0.6318   22.3756  -20.0861 C   0  0  0  0  0  0  0  0  0  0  0  0
   -1.2454   23.4064  -20.7785 C   0  0  0  0  0  0  0  0  0  0  0  0
   -1.7098   23.2451  -22.0090 N   0  0  0  0  0  0  0  0  0  0  0  0
   -1.6308   22.0643  -22.7061 C   0  0  0  0  0  0  0  0  0  0  0  0
   -1.0376   21.0349  -22.0620 C   0  0  0  0  0  0  0  0  0  0  0  0
   -0.5449   21.1871  -20.7702 C   0  0  0  0  0  0  0  0  0  0  0  0
    0.1047   20.0401  -20.0857 C   0  0  0  0  0  0  0  0  0  0  0  0
    1.4298   19.6622  -20.7006 C   0  0  0  0  0  0  0  0  0  0  0  0
    0.2711   18.7245  -20.7026 C   0  0  0  0  0  0  0  0  0  0  0  0
   -0.0307   20.1067  -18.6122 C   0  0  0  0  0  0  0  0  0  0  0  0
    0.0831   19.0574  -17.9269 O   0  0  0  0  0  0  0  0  0  0  0  0
   -0.1625   21.4848  -14.2129 C   0  0  0  0  0  0  0  0  0  0  0  0
   -1.4977   21.3700  -13.9012 C   0  0  0  0  0  0  0  0  0  0  0  0
   -2.4575   21.2442  -14.9038 C   0  0  0  0  0  0  0  0  0  0  0  0
   -2.0271   21.2381  -16.2187 C   0  0  0  0  0  0  0  0  0  0  0  0
   -2.9746   21.1149  -17.1741 F   0  0  0  0  0  0  0  0  0  0  0  0
   -0.7007   21.3503  -16.5789 C   0  0  0  0  0  0  0  0  0  0  0  0
    0.2047   21.4725  -15.5379 C   0  0  0  0  0  0  0  0  0  0  0  0
    1.5203   21.5865  -15.8304 F   0  0  0  0  0  0  0  0  0  0  0  0
    1.0782   22.7813  -12.5124 C   0  0  0  0  0  0  0  0  0  0  0  0
    0.7642   21.6088  -13.1890 O   0  0  0  0  0  0  0  0  0  0  0  0
   -3.7713   21.1342  -14.5492 O   0  0  0  0  0  0  0  0  0  0  0  0
   -4.3549   21.3710  -13.3148 C   0  0  0  0  0  0  0  0  0  0  0  0
   -2.1785   22.0455  -24.0589 C   0  0  0  0  0  0  0  0  0  0  0  0
   -1.4960   22.4895  -25.1918 C   0  0  0  0  0  0  0  0  0  0  0  0
   -2.2895   22.3539  -26.2642 N   0  0  0  0  0  0  0  0  0  0  0  0
   -3.4296   21.8490  -25.8583 N   0  0  0  0  0  0  0  0  0  0  0  0
   -3.3949   21.6484  -24.5138 C   0  0  0  0  0  0  0  0  0  0  0  0
   -4.5284   21.1049  -23.7677 C   0  0  0  0  0  0  0  0  0  0  0  0
   -1.9152   22.7115  -27.6101 C   0  0  0  0  0  0  0  0  0  0  0  0
   -0.4618   22.7583  -27.7454 C   0  0  0  0  0  0  0  0  0  0  0  0
    0.6888   22.7932  -27.8356 N   0  0  0  0  0  0  0  0  0  0  0  0
 22 23  1  0  0  0
 23 14  1  0  0  0
 14 15  2  0  0  0
 15 16  1  0  0  0
 16 24  1  0  0  0
 24 25  1  0  0  0
 16 17  2  0  0  0
 17 18  1  0  0  0
 17 19  1  0  0  0
 19  1  1  0  0  0
  1  2  1  0  0  0
  2  3  1  0  0  0
  3  4  2  0  0  0
  4  5  1  0  0  0
  5  6  2  0  0  0
  6  7  1  0  0  0
  7  8  2  0  0  0
  8  9  1  0  0  0
  9 10  1  0  0  0
 10 11  1  0  0  0
  9 12  1  0  0  0
 12 13  2  0  0  0
  6 26  1  0  0  0
 26 27  2  0  0  0
 27 28  1  0  0  0
 28 32  1  0  0  0
 32 33  1  0  0  0
 33 34  3  0  0  0
 28 29  1  0  0  0
 29 30  2  0  0  0
 30 31  1  0  0  0
 19 20  2  0  0  0
 20 21  1  0  0  0
 20 14  1  0  0  0
 12  1  1  0  0  0
 30 26  1  0  0  0
  8  3  1  0  0  0
 11  9  1  0  0  0
M  END
> <minimizedAffinity>
-6.08232

> <CNNscore>
0.3672251701

> <CNNaffinity>
6.6908926964

> <CNN_VS>
2.4570641518

> <CNNaffinity_variance>
0.3551615477

$$$$
[H]c1nc(-c2c(C([H])([H])[H])nn(C([H])([H])C#N)c2[H])c([H])c2c1C([H])([H])N(c1c(F)c(OC([H])([H])[H])c([H])c(OC([H])([H])[H])c1F)C(=O)C21C([H])([H])C1([H])[H]


 34 38  0  0  0  0  0  0  0  0999 V2000
   -0.2368   21.3877  -17.9685 N   0  0  0  0  0  0  0  0  0  0  0  0
   -0.0768   22.5907  -18.7513 C   0  0  0  0  0  0  0  0  0  0  0  0
   -0.6194   22.4071  -20.1163 C   0  0  0  0  0  0  0  0  0  0  0  0
   -1.2484   23.4305  -20.8060 C   0  0  0  0  0  0  0  0  0  0  0  0
   -1.7327   23.2582  -22.0274 N   0  0  0  0  0  0  0  0  0  0  0  0
   -1.6609   22.0725  -22.7168 C   0  0  0  0  0  0  0  0  0  0  0  0
   -1.0532   21.0501  -22.0752 C   0  0  0  0  0  0  0  0  0  0  0  0
   -0.5395   21.2139  -20.7930 C   0  0  0  0  0  0  0  0  0  0  0  0
    0.1258   20.0744  -20.1110 C   0  0  0  0  0  0  0  0  0  0  0  0
    1.4419   19.6967  -20.7451 C   0  0  0  0  0  0  0  0  0  0  0  0
    0.2868   18.7548  -20.7207 C   0  0  0  0  0  0  0  0  0  0  0  0
    0.0148   20.1515  -18.6359 C   0  0  0  0  0  0  0  0  0  0  0  0
    0.1441   19.1079  -17.9448 O   0  0  0  0  0  0  0  0  0  0  0  0
   -2.3529   21.2775  -14.8965 C   0  0  0  0  0  0  0  0  0  0  0  0
   -1.4018   21.4500  -13.9174 C   0  0  0  0  0  0  0  0  0  0  0  0
   -0.0564   21.6036  -14.2471 C   0  0  0  0  0  0  0  0  0  0  0  0
    0.2920   21.5778  -15.5857 C   0  0  0  0  0  0  0  0  0  0  0  0
    1.6015   21.7290  -15.8822 F   0  0  0  0  0  0  0  0  0  0  0  0
   -0.6257   21.4079  -16.6010 C   0  0  0  0  0  0  0  0  0  0  0  0
   -1.9461   21.2604  -16.2098 C   0  0  0  0  0  0  0  0  0  0  0  0
   -2.8912   21.0899  -17.1622 F   0  0  0  0  0  0  0  0  0  0  0  0
   -4.3530   21.8771  -13.5729 C   0  0  0  0  0  0  0  0  0  0  0  0
   -3.6820   21.1272  -14.5311 O   0  0  0  0  0  0  0  0  0  0  0  0
    0.8538   21.7709  -13.2432 O   0  0  0  0  0  0  0  0  0  0  0  0
    0.6759   21.6000  -11.8795 C   0  0  0  0  0  0  0  0  0  0  0  0
   -2.2312   22.0415  -24.0601 C   0  0  0  0  0  0  0  0  0  0  0  0
   -1.5535   22.4379  -25.2133 C   0  0  0  0  0  0  0  0  0  0  0  0
   -2.3684   22.3045  -26.2698 N   0  0  0  0  0  0  0  0  0  0  0  0
   -3.5173   21.8459  -25.8347 N   0  0  0  0  0  0  0  0  0  0  0  0
   -3.4670   21.6742  -24.4867 C   0  0  0  0  0  0  0  0  0  0  0  0
   -4.6049   21.1844  -23.7107 C   0  0  0  0  0  0  0  0  0  0  0  0
   -2.0050   22.6198  -27.6292 C   0  0  0  0  0  0  0  0  0  0  0  0
   -0.5606   22.8000  -27.7477 C   0  0  0  0  0  0  0  0  0  0  0  0
    0.5828   22.9416  -27.8246 N   0  0  0  0  0  0  0  0  0  0  0  0
 22 23  1  0  0  0
 23 14  1  0  0  0
 14 15  2  0  0  0
 15 16  1  0  0  0
 16 24  1  0  0  0
 24 25  1  0  0  0
 16 17  2  0  0  0
 17 18  1  0  0  0
 17 19  1  0  0  0
 19  1  1  0  0  0
  1  2  1  0  0  0
  2  3  1  0  0  0
  3  4  2  0  0  0
  4  5  1  0  0  0
  5  6  2  0  0  0
  6  7  1  0  0  0
  7  8  2  0  0  0
  8  9  1  0  0  0
  9 10  1  0  0  0
 10 11  1  0  0  0
  9 12  1  0  0  0
 12 13  2  0  0  0
  6 26  1  0  0  0
 26 27  2  0  0  0
 27 28  1  0  0  0
 28 32  1  0  0  0
 32 33  1  0  0  0
 33 34  3  0  0  0
 28 29  1  0  0  0
 29 30  2  0  0  0
 30 31  1  0  0  0
 19 20  2  0  0  0
 20 21  1  0  0  0
 20 14  1  0  0  0
 12  1  1  0  0  0
 30 26  1  0  0  0
  8  3  1  0  0  0
 11  9  1  0  0  0
M  END
> <minimizedAffinity>
-6.09759

> <CNNscore>
0.3508289158

> <CNNaffinity>
6.6870088577

> <CNN_VS>
2.3459961414

> <CNNaffinity_variance>
0.3767671287

$$$$
[H]c1nc(-c2c(C([H])([H])[H])nn(C([H])([H])C#N)c2[H])c([H])c2c1C([H])([H])N(c1c(F)c(OC([H])([H])[H])c([H])c(OC([H])([H])[H])c1F)C(=O)C21C([H])([H])C1([H])[H]


 34 38  0  0  0  0  0  0  0  0999 V2000
   -0.4291   21.7347  -22.3103 N   0  0  0  0  0  0  0  0  0  0  0  0
    0.4413   20.6333  -21.9717 C   0  0  0  0  0  0  0  0  0  0  0  0
    0.0401   20.0209  -20.6851 C   0  0  0  0  0  0  0  0  0  0  0  0
    0.1452   18.6601  -20.4491 C   0  0  0  0  0  0  0  0  0  0  0  0
   -0.2171   18.1190  -19.2950 N   0  0  0  0  0  0  0  0  0  0  0  0
   -0.7227   18.8384  -18.2399 C   0  0  0  0  0  0  0  0  0  0  0  0
   -0.8397   20.1708  -18.4334 C   0  0  0  0  0  0  0  0  0  0  0  0
   -0.4641   20.7549  -19.6386 C   0  0  0  0  0  0  0  0  0  0  0  0
   -0.6010   22.2221  -19.8245 C   0  0  0  0  0  0  0  0  0  0  0  0
    0.3620   23.0148  -18.9752 C   0  0  0  0  0  0  0  0  0  0  0  0
   -1.1133   23.1198  -18.7898 C   0  0  0  0  0  0  0  0  0  0  0  0
   -0.8144   22.5982  -21.2412 C   0  0  0  0  0  0  0  0  0  0  0  0
   -1.3473   23.7035  -21.5202 O   0  0  0  0  0  0  0  0  0  0  0  0
   -0.4669   22.6269  -25.9339 C   0  0  0  0  0  0  0  0  0  0  0  0
   -1.7946   22.4316  -26.2374 C   0  0  0  0  0  0  0  0  0  0  0  0
   -2.6953   22.0051  -25.2632 C   0  0  0  0  0  0  0  0  0  0  0  0
   -2.2143   21.7851  -23.9849 C   0  0  0  0  0  0  0  0  0  0  0  0
   -3.1050   21.3723  -23.0565 F   0  0  0  0  0  0  0  0  0  0  0  0
   -0.8932   21.9674  -23.6341 C   0  0  0  0  0  0  0  0  0  0  0  0
   -0.0477   22.3918  -24.6456 C   0  0  0  0  0  0  0  0  0  0  0  0
    1.2600   22.5874  -24.3608 F   0  0  0  0  0  0  0  0  0  0  0  0
    0.1390   23.0462  -28.2937 C   0  0  0  0  0  0  0  0  0  0  0  0
    0.4004   23.0512  -26.9290 O   0  0  0  0  0  0  0  0  0  0  0  0
   -4.0036   21.8229  -25.6088 O   0  0  0  0  0  0  0  0  0  0  0  0
   -5.0943   22.6249  -25.3126 C   0  0  0  0  0  0  0  0  0  0  0  0
   -1.0669   18.1010  -17.0282 C   0  0  0  0  0  0  0  0  0  0  0  0
   -0.3816   18.2099  -15.8178 C   0  0  0  0  0  0  0  0  0  0  0  0
   -0.9401   17.3845  -14.9207 N   0  0  0  0  0  0  0  0  0  0  0  0
   -1.9367   16.7679  -15.5090 N   0  0  0  0  0  0  0  0  0  0  0  0
   -2.0414   17.1832  -16.7996 C   0  0  0  0  0  0  0  0  0  0  0  0
   -3.0551   16.6637  -17.7159 C   0  0  0  0  0  0  0  0  0  0  0  0
   -0.4933   17.2331  -13.5580 C   0  0  0  0  0  0  0  0  0  0  0  0
    0.8697   17.7343  -13.4041 C   0  0  0  0  0  0  0  0  0  0  0  0
    1.9422   18.1408  -13.2698 N   0  0  0  0  0  0  0  0  0  0  0  0
 22 23  1  0  0  0
 23 14  1  0  0  0
 14 15  2  0  0  0
 15 16  1  0  0  0
 16 24  1  0  0  0
 24 25  1  0  0  0
 16 17  2  0  0  0
 17 18  1  0  0  0
 17 19  1  0  0  0
 19  1  1  0  0  0
  1  2  1  0  0  0
  2  3  1  0  0  0
  3  4  2  0  0  0
  4  5  1  0  0  0
  5  6  2  0  0  0
  6  7  1  0  0  0
  7  8  2  0  0  0
  8  9  1  0  0  0
  9 10  1  0  0  0
 10 11  1  0  0  0
  9 12  1  0  0  0
 12 13  2  0  0  0
  6 26  1  0  0  0
 26 27  2  0  0  0
 27 28  1  0  0  0
 28 32  1  0  0  0
 32 33  1  0  0  0
 33 34  3  0  0  0
 28 29  1  0  0  0
 29 30  2  0  0  0
 30 31  1  0  0  0
 19 20  2  0  0  0
 20 21  1  0  0  0
 20 14  1  0  0  0
 12  1  1  0  0  0
 30 26  1  0  0  0
  8  3  1  0  0  0
 11  9  1  0  0  0
M  END
> <minimizedAffinity>
-6.07228

> <CNNscore>
0.2592326105

> <CNNaffinity>
6.2499852180

> <CNN_VS>
1.6202000380

> <CNNaffinity_variance>
0.0268511586

$$$$
[H]c1nc(-c2c(C([H])([H])[H])nn(C([H])([H])C#N)c2[H])c([H])c2c1C([H])([H])N(c1c(F)c(OC([H])([H])[H])c([H])c(OC([H])([H])[H])c1F)C(=O)C21C([H])([H])C1([H])[H]


 34 38  0  0  0  0  0  0  0  0999 V2000
   -0.4874   21.7112  -22.2374 N   0  0  0  0  0  0  0  0  0  0  0  0
    0.3804   20.6047  -21.9087 C   0  0  0  0  0  0  0  0  0  0  0  0
    0.0053   20.0095  -20.6063 C   0  0  0  0  0  0  0  0  0  0  0  0
    0.1031   18.6503  -20.3586 C   0  0  0  0  0  0  0  0  0  0  0  0
   -0.2357   18.1247  -19.1903 N   0  0  0  0  0  0  0  0  0  0  0  0
   -0.7080   18.8599  -18.1306 C   0  0  0  0  0  0  0  0  0  0  0  0
   -0.8169   20.1913  -18.3352 C   0  0  0  0  0  0  0  0  0  0  0  0
   -0.4657   20.7592  -19.5554 C   0  0  0  0  0  0  0  0  0  0  0  0
   -0.5929   22.2257  -19.7533 C   0  0  0  0  0  0  0  0  0  0  0  0
    0.3984   23.0175  -18.9364 C   0  0  0  0  0  0  0  0  0  0  0  0
   -1.0707   23.1391  -18.7158 C   0  0  0  0  0  0  0  0  0  0  0  0
   -0.8377   22.5893  -21.1682 C   0  0  0  0  0  0  0  0  0  0  0  0
   -1.3667   23.6969  -21.4455 O   0  0  0  0  0  0  0  0  0  0  0  0
   -2.8200   21.9433  -25.1413 C   0  0  0  0  0  0  0  0  0  0  0  0
   -1.9637   22.3672  -26.1313 C   0  0  0  0  0  0  0  0  0  0  0  0
   -0.6133   22.5839  -25.8638 C   0  0  0  0  0  0  0  0  0  0  0  0
   -0.1616   22.3598  -24.5755 C   0  0  0  0  0  0  0  0  0  0  0  0
    1.1510   22.5758  -24.3389 F   0  0  0  0  0  0  0  0  0  0  0  0
   -0.9819   21.9348  -23.5516 C   0  0  0  0  0  0  0  0  0  0  0  0
   -2.3129   21.7375  -23.8799 C   0  0  0  0  0  0  0  0  0  0  0  0
   -3.1655   21.3210  -22.9159 F   0  0  0  0  0  0  0  0  0  0  0  0
   -5.1853   22.6540  -25.2518 C   0  0  0  0  0  0  0  0  0  0  0  0
   -4.1575   21.7387  -25.4440 O   0  0  0  0  0  0  0  0  0  0  0  0
    0.2003   23.0057  -26.8759 O   0  0  0  0  0  0  0  0  0  0  0  0
   -0.0461   23.0024  -28.2396 C   0  0  0  0  0  0  0  0  0  0  0  0
   -1.0292   18.1384  -16.9031 C   0  0  0  0  0  0  0  0  0  0  0  0
   -2.2110   17.4273  -16.6932 C   0  0  0  0  0  0  0  0  0  0  0  0
   -2.1960   16.9047  -15.4584 N   0  0  0  0  0  0  0  0  0  0  0  0
   -1.0673   17.2530  -14.8891 N   0  0  0  0  0  0  0  0  0  0  0  0
   -0.3301   18.0088  -15.7461 C   0  0  0  0  0  0  0  0  0  0  0  0
    0.9773   18.5572  -15.3899 C   0  0  0  0  0  0  0  0  0  0  0  0
   -3.2552   16.1046  -14.8950 C   0  0  0  0  0  0  0  0  0  0  0  0
   -3.6995   15.0923  -15.8493 C   0  0  0  0  0  0  0  0  0  0  0  0
   -4.0449   14.3015  -16.6166 N   0  0  0  0  0  0  0  0  0  0  0  0
 22 23  1  0  0  0
 23 14  1  0  0  0
 14 15  2  0  0  0
 15 16  1  0  0  0
 16 24  1  0  0  0
 24 25  1  0  0  0
 16 17  2  0  0  0
 17 18  1  0  0  0
 17 19  1  0  0  0
 19  1  1  0  0  0
  1  2  1  0  0  0
  2  3  1  0  0  0
  3  4  2  0  0  0
  4  5  1  0  0  0
  5  6  2  0  0  0
  6  7  1  0  0  0
  7  8  2  0  0  0
  8  9  1  0  0  0
  9 10  1  0  0  0
 10 11  1  0  0  0
  9 12  1  0  0  0
 12 13  2  0  0  0
  6 26  1  0  0  0
 26 27  2  0  0  0
 27 28  1  0  0  0
 28 32  1  0  0  0
 32 33  1  0  0  0
 33 34  3  0  0  0
 28 29  1  0  0  0
 29 30  2  0  0  0
 30 31  1  0  0  0
 19 20  2  0  0  0
 20 21  1  0  0  0
 20 14  1  0  0  0
 12  1  1  0  0  0
 30 26  1  0  0  0
  8  3  1  0  0  0
 11  9  1  0  0  0
M  END
> <minimizedAffinity>
-6.08125

> <CNNscore>
0.2564555407

> <CNNaffinity>
6.3060975075

> <CNN_VS>
1.6172336340

> <CNNaffinity_variance>
0.0733669773

$$$$
[H]c1nc(-c2c(C([H])([H])[H])nn(C([H])([H])C#N)c2[H])c([H])c2c1C([H])([H])N(c1c(F)c(OC([H])([H])[H])c([H])c(OC([H])([H])[H])c1F)C(=O)C21C([H])([H])C1([H])[H]


 34 38  0  0  0  0  0  0  0  0999 V2000
   -0.4176   21.7144  -22.3061 N   0  0  0  0  0  0  0  0  0  0  0  0
    0.4579   20.6169  -21.9679 C   0  0  0  0  0  0  0  0  0  0  0  0
    0.0508   19.9928  -20.6888 C   0  0  0  0  0  0  0  0  0  0  0  0
    0.1637   18.6313  -20.4611 C   0  0  0  0  0  0  0  0  0  0  0  0
   -0.2040   18.0798  -19.3137 N   0  0  0  0  0  0  0  0  0  0  0  0
   -0.7230   18.7884  -18.2578 C   0  0  0  0  0  0  0  0  0  0  0  0
   -0.8480   20.1212  -18.4433 C   0  0  0  0  0  0  0  0  0  0  0  0
   -0.4670   20.7161  -19.6414 C   0  0  0  0  0  0  0  0  0  0  0  0
   -0.6127   22.1836  -19.8185 C   0  0  0  0  0  0  0  0  0  0  0  0
    0.3378   22.9772  -18.9561 C   0  0  0  0  0  0  0  0  0  0  0  0
   -1.1397   23.0706  -18.7818 C   0  0  0  0  0  0  0  0  0  0  0  0
   -0.8175   22.5678  -21.2343 C   0  0  0  0  0  0  0  0  0  0  0  0
   -1.3561   23.6712  -21.5100 O   0  0  0  0  0  0  0  0  0  0  0  0
   -0.4255   22.5943  -25.9328 C   0  0  0  0  0  0  0  0  0  0  0  0
   -1.7565   22.4282  -26.2393 C   0  0  0  0  0  0  0  0  0  0  0  0
   -2.6692   22.0257  -25.2661 C   0  0  0  0  0  0  0  0  0  0  0  0
   -2.1968   21.7994  -23.9856 C   0  0  0  0  0  0  0  0  0  0  0  0
   -3.0991   21.4103  -23.0582 F   0  0  0  0  0  0  0  0  0  0  0  0
   -0.8727   21.9529  -23.6319 C   0  0  0  0  0  0  0  0  0  0  0  0
   -0.0151   22.3543  -24.6426 C   0  0  0  0  0  0  0  0  0  0  0  0
    1.2960   22.5211  -24.3549 F   0  0  0  0  0  0  0  0  0  0  0  0
    0.1800   23.0357  -28.2887 C   0  0  0  0  0  0  0  0  0  0  0  0
    0.4539   22.9952  -26.9270 O   0  0  0  0  0  0  0  0  0  0  0  0
   -3.9803   21.8720  -25.6146 O   0  0  0  0  0  0  0  0  0  0  0  0
   -4.8911   22.8437  -25.9980 C   0  0  0  0  0  0  0  0  0  0  0  0
   -1.0716   18.0403  -17.0540 C   0  0  0  0  0  0  0  0  0  0  0  0
   -2.2186   17.2578  -16.9167 C   0  0  0  0  0  0  0  0  0  0  0  0
   -2.2447   16.7284  -15.6850 N   0  0  0  0  0  0  0  0  0  0  0  0
   -1.1745   17.1401  -15.0488 N   0  0  0  0  0  0  0  0  0  0  0  0
   -0.4353   17.9448  -15.8581 C   0  0  0  0  0  0  0  0  0  0  0  0
    0.8134   18.5684  -15.4232 C   0  0  0  0  0  0  0  0  0  0  0  0
   -3.2848   15.8621  -15.1880 C   0  0  0  0  0  0  0  0  0  0  0  0
   -3.5764   14.8028  -16.1501 C   0  0  0  0  0  0  0  0  0  0  0  0
   -3.8210   13.9735  -16.9154 N   0  0  0  0  0  0  0  0  0  0  0  0
 22 23  1  0  0  0
 23 14  1  0  0  0
 14 15  2  0  0  0
 15 16  1  0  0  0
 16 24  1  0  0  0
 24 25  1  0  0  0
 16 17  2  0  0  0
 17 18  1  0  0  0
 17 19  1  0  0  0
 19  1  1  0  0  0
  1  2  1  0  0  0
  2  3  1  0  0  0
  3  4  2  0  0  0
  4  5  1  0  0  0
  5  6  2  0  0  0
  6  7  1  0  0  0
  7  8  2  0  0  0
  8  9  1  0  0  0
  9 10  1  0  0  0
 10 11  1  0  0  0
  9 12  1  0  0  0
 12 13  2  0  0  0
  6 26  1  0  0  0
 26 27  2  0  0  0
 27 28  1  0  0  0
 28 32  1  0  0  0
 32 33  1  0  0  0
 33 34  3  0  0  0
 28 29  1  0  0  0
 29 30  2  0  0  0
 30 31  1  0  0  0
 19 20  2  0  0  0
 20 21  1  0  0  0
 20 14  1  0  0  0
 12  1  1  0  0  0
 30 26  1  0  0  0
  8  3  1  0  0  0
 11  9  1  0  0  0
M  END
> <minimizedAffinity>
-6.13579

> <CNNscore>
0.2326362282

> <CNNaffinity>
6.2658395767

> <CNN_VS>
1.4576612711

> <CNNaffinity_variance>
0.0622680187

$$$$
[H]c1nc(-c2c(C([H])([H])[H])nn(C([H])([H])C#N)c2[H])c([H])c2c1C([H])([H])N(c1c(F)c(OC([H])([H])[H])c([H])c(OC([H])([H])[H])c1F)C(=O)C21C([H])([H])C1([H])[H]


 34 38  0  0  0  0  0  0  0  0999 V2000
   -2.5601   22.6408  -25.4829 N   0  0  0  0  0  0  0  0  0  0  0  0
   -3.0835   21.6705  -24.5501 C   0  0  0  0  0  0  0  0  0  0  0  0
   -2.3329   21.7074  -23.2747 C   0  0  0  0  0  0  0  0  0  0  0  0
   -2.9440   21.4926  -22.0504 C   0  0  0  0  0  0  0  0  0  0  0  0
   -2.2656   21.5284  -20.9127 N   0  0  0  0  0  0  0  0  0  0  0  0
   -0.9170   21.7772  -20.8355 C   0  0  0  0  0  0  0  0  0  0  0  0
   -0.2861   21.9916  -22.0112 C   0  0  0  0  0  0  0  0  0  0  0  0
   -0.9831   21.9576  -23.2144 C   0  0  0  0  0  0  0  0  0  0  0  0
   -0.2651   22.1945  -24.4928 C   0  0  0  0  0  0  0  0  0  0  0  0
    0.6873   21.0792  -24.8478 C   0  0  0  0  0  0  0  0  0  0  0  0
    1.1707   22.4619  -24.5716 C   0  0  0  0  0  0  0  0  0  0  0  0
   -1.1403   22.7753  -25.5372 C   0  0  0  0  0  0  0  0  0  0  0  0
   -0.6300   23.4045  -26.5002 O   0  0  0  0  0  0  0  0  0  0  0  0
   -4.3768   23.9028  -28.4886 C   0  0  0  0  0  0  0  0  0  0  0  0
   -5.0341   24.9896  -27.9597 C   0  0  0  0  0  0  0  0  0  0  0  0
   -4.8938   25.3245  -26.6142 C   0  0  0  0  0  0  0  0  0  0  0  0
   -4.0749   24.5326  -25.8291 C   0  0  0  0  0  0  0  0  0  0  0  0
   -3.9533   24.8759  -24.5280 F   0  0  0  0  0  0  0  0  0  0  0  0
   -3.3965   23.4346  -26.3148 C   0  0  0  0  0  0  0  0  0  0  0  0
   -3.5766   23.1532  -27.6589 C   0  0  0  0  0  0  0  0  0  0  0  0
   -2.9364   22.0874  -28.1916 F   0  0  0  0  0  0  0  0  0  0  0  0
   -5.6649   23.8801  -30.5986 C   0  0  0  0  0  0  0  0  0  0  0  0
   -4.5407   23.5993  -29.8316 O   0  0  0  0  0  0  0  0  0  0  0  0
   -5.5655   26.4106  -26.1312 O   0  0  0  0  0  0  0  0  0  0  0  0
   -5.0463   27.5871  -25.6147 C   0  0  0  0  0  0  0  0  0  0  0  0
   -0.3086   21.7732  -19.5088 C   0  0  0  0  0  0  0  0  0  0  0  0
    0.8262   22.5061  -19.1599 C   0  0  0  0  0  0  0  0  0  0  0  0
    1.1311   22.2601  -17.8775 N   0  0  0  0  0  0  0  0  0  0  0  0
    0.2459   21.4130  -17.4101 N   0  0  0  0  0  0  0  0  0  0  0  0
   -0.6492   21.0945  -18.3829 C   0  0  0  0  0  0  0  0  0  0  0  0
   -1.7516   20.1594  -18.1653 C   0  0  0  0  0  0  0  0  0  0  0  0
    2.2448   22.8465  -17.1737 C   0  0  0  0  0  0  0  0  0  0  0  0
    2.1438   22.5848  -15.7405 C   0  0  0  0  0  0  0  0  0  0  0  0
    2.0711   22.3930  -14.6041 N   0  0  0  0  0  0  0  0  0  0  0  0
 22 23  1  0  0  0
 23 14  1  0  0  0
 14 15  2  0  0  0
 15 16  1  0  0  0
 16 24  1  0  0  0
 24 25  1  0  0  0
 16 17  2  0  0  0
 17 18  1  0  0  0
 17 19  1  0  0  0
 19  1  1  0  0  0
  1  2  1  0  0  0
  2  3  1  0  0  0
  3  4  2  0  0  0
  4  5  1  0  0  0
  5  6  2  0  0  0
  6  7  1  0  0  0
  7  8  2  0  0  0
  8  9  1  0  0  0
  9 10  1  0  0  0
 10 11  1  0  0  0
  9 12  1  0  0  0
 12 13  2  0  0  0
  6 26  1  0  0  0
 26 27  2  0  0  0
 27 28  1  0  0  0
 28 32  1  0  0  0
 32 33  1  0  0  0
 33 34  3  0  0  0
 28 29  1  0  0  0
 29 30  2  0  0  0
 30 31  1  0  0  0
 19 20  2  0  0  0
 20 21  1  0  0  0
 20 14  1  0  0  0
 12  1  1  0  0  0
 30 26  1  0  0  0
  8  3  1  0  0  0
 11  9  1  0  0  0
M  END
> <minimizedAffinity>
-6.71491

> <CNNscore>
0.2303465009

> <CNNaffinity>
6.7938590050

> <CNN_VS>
1.5649416447

> <CNNaffinity_variance>
0.3143685460

$$$$
[H]c1nc(-c2c(C([H])([H])[H])nn(C([H])([H])C#N)c2[H])c([H])c2c1C([H])([H])N(c1c(F)c(OC([H])([H])[H])c([H])c(OC([H])([H])[H])c1F)C(=O)C21C([H])([H])C1([H])[H]


 34 38  0  0  0  0  0  0  0  0999 V2000
   -2.1773   22.2934  -24.5366 N   0  0  0  0  0  0  0  0  0  0  0  0
   -2.6887   21.4949  -23.4474 C   0  0  0  0  0  0  0  0  0  0  0  0
   -1.8476   21.6511  -22.2393 C   0  0  0  0  0  0  0  0  0  0  0  0
   -2.3807   21.6445  -20.9609 C   0  0  0  0  0  0  0  0  0  0  0  0
   -1.6214   21.7860  -19.8842 N   0  0  0  0  0  0  0  0  0  0  0  0
   -0.2584   21.9501  -19.9275 C   0  0  0  0  0  0  0  0  0  0  0  0
    0.2979   21.9615  -21.1590 C   0  0  0  0  0  0  0  0  0  0  0  0
   -0.4845   21.8143  -22.2995 C   0  0  0  0  0  0  0  0  0  0  0  0
    0.1525   21.8282  -23.6411 C   0  0  0  0  0  0  0  0  0  0  0  0
    1.0095   20.6129  -23.8978 C   0  0  0  0  0  0  0  0  0  0  0  0
    1.5922   21.9839  -23.8466 C   0  0  0  0  0  0  0  0  0  0  0  0
   -0.7596   22.3222  -24.6985 C   0  0  0  0  0  0  0  0  0  0  0  0
   -0.2836   22.7804  -25.7695 O   0  0  0  0  0  0  0  0  0  0  0  0
   -4.5135   24.8961  -25.8388 C   0  0  0  0  0  0  0  0  0  0  0  0
   -4.6901   24.4648  -27.1333 C   0  0  0  0  0  0  0  0  0  0  0  0
   -4.0480   23.3188  -27.5988 C   0  0  0  0  0  0  0  0  0  0  0  0
   -3.2300   22.6300  -26.7211 C   0  0  0  0  0  0  0  0  0  0  0  0
   -2.6179   21.5220  -27.1935 F   0  0  0  0  0  0  0  0  0  0  0  0
   -3.0230   23.0239  -25.4158 C   0  0  0  0  0  0  0  0  0  0  0  0
   -3.6882   24.1699  -25.0128 C   0  0  0  0  0  0  0  0  0  0  0  0
   -3.5231   24.6050  -23.7428 F   0  0  0  0  0  0  0  0  0  0  0  0
   -4.6892   27.3411  -25.5179 C   0  0  0  0  0  0  0  0  0  0  0  0
   -5.1680   26.0410  -25.4107 O   0  0  0  0  0  0  0  0  0  0  0  0
   -4.2508   22.9279  -28.8912 O   0  0  0  0  0  0  0  0  0  0  0  0
   -5.3692   23.1221  -29.6862 C   0  0  0  0  0  0  0  0  0  0  0  0
    0.4425   22.0824  -18.6540 C   0  0  0  0  0  0  0  0  0  0  0  0
    1.5220   22.9382  -18.4337 C   0  0  0  0  0  0  0  0  0  0  0  0
    1.9422   22.7989  -17.1680 N   0  0  0  0  0  0  0  0  0  0  0  0
    1.1810   21.9016  -16.5892 N   0  0  0  0  0  0  0  0  0  0  0  0
    0.2531   21.4429  -17.4710 C   0  0  0  0  0  0  0  0  0  0  0  0
   -0.7332   20.4229  -17.1193 C   0  0  0  0  0  0  0  0  0  0  0  0
    3.0412   23.5283  -16.5851 C   0  0  0  0  0  0  0  0  0  0  0  0
    4.2317   23.4236  -17.4243 C   0  0  0  0  0  0  0  0  0  0  0  0
    5.1631   23.3393  -18.1016 N   0  0  0  0  0  0  0  0  0  0  0  0
 22 23  1  0  0  0
 23 14  1  0  0  0
 14 15  2  0  0  0
 15 16  1  0  0  0
 16 24  1  0  0  0
 24 25  1  0  0  0
 16 17  2  0  0  0
 17 18  1  0  0  0
 17 19  1  0  0  0
 19  1  1  0  0  0
  1  2  1  0  0  0
  2  3  1  0  0  0
  3  4  2  0  0  0
  4  5  1  0  0  0
  5  6  2  0  0  0
  6  7  1  0  0  0
  7  8  2  0  0  0
  8  9  1  0  0  0
  9 10  1  0  0  0
 10 11  1  0  0  0
  9 12  1  0  0  0
 12 13  2  0  0  0
  6 26  1  0  0  0
 26 27  2  0  0  0
 27 28  1  0  0  0
 28 32  1  0  0  0
 32 33  1  0  0  0
 33 34  3  0  0  0
 28 29  1  0  0  0
 29 30  2  0  0  0
 30 31  1  0  0  0
 19 20  2  0  0  0
 20 21  1  0  0  0
 20 14  1  0  0  0
 12  1  1  0  0  0
 30 26  1  0  0  0
  8  3  1  0  0  0
 11  9  1  0  0  0
M  END
> <minimizedAffinity>
-6.50797

> <CNNscore>
0.1911143661

> <CNNaffinity>
6.6845283508

> <CNN_VS>
1.2775094509

> <CNNaffinity_variance>
0.3507354856

$$$$
[H]c1nc(-c2c(C([H])([H])[H])nn(C([H])([H])C#N)c2[H])c([H])c2c1C([H])([H])N(c1c(F)c(OC([H])([H])[H])c([H])c(OC([H])([H])[H])c1F)C(=O)C21C([H])([H])C1([H])[H]


 34 38  0  0  0  0  0  0  0  0999 V2000
   -7.0113   23.3537  -22.0387 N   0  0  0  0  0  0  0  0  0  0  0  0
   -7.0296   24.5913  -21.2948 C   0  0  0  0  0  0  0  0  0  0  0  0
   -6.7606   24.3476  -19.8596 C   0  0  0  0  0  0  0  0  0  0  0  0
   -6.0426   25.2391  -19.0799 C   0  0  0  0  0  0  0  0  0  0  0  0
   -5.8048   25.0134  -17.7959 N   0  0  0  0  0  0  0  0  0  0  0  0
   -6.2375   23.8962  -17.1243 C   0  0  0  0  0  0  0  0  0  0  0  0
   -6.9424   23.0029  -17.8533 C   0  0  0  0  0  0  0  0  0  0  0  0
   -7.2008   23.2243  -19.2020 C   0  0  0  0  0  0  0  0  0  0  0  0
   -7.9800   22.2273  -19.9797 C   0  0  0  0  0  0  0  0  0  0  0  0
   -9.4295   22.1609  -19.5654 C   0  0  0  0  0  0  0  0  0  0  0  0
   -8.5150   20.9953  -19.4009 C   0  0  0  0  0  0  0  0  0  0  0  0
   -7.6247   22.2245  -21.4177 C   0  0  0  0  0  0  0  0  0  0  0  0
   -7.8652   21.2071  -22.1182 O   0  0  0  0  0  0  0  0  0  0  0  0
   -4.6907   22.3417  -24.7806 C   0  0  0  0  0  0  0  0  0  0  0  0
   -5.2391   23.0135  -25.8487 C   0  0  0  0  0  0  0  0  0  0  0  0
   -6.3747   23.8053  -25.6882 C   0  0  0  0  0  0  0  0  0  0  0  0
   -6.9316   23.8949  -24.4249 C   0  0  0  0  0  0  0  0  0  0  0  0
   -8.0316   24.6682  -24.2924 F   0  0  0  0  0  0  0  0  0  0  0  0
   -6.4172   23.2403  -23.3255 C   0  0  0  0  0  0  0  0  0  0  0  0
   -5.2886   22.4692  -23.5490 C   0  0  0  0  0  0  0  0  0  0  0  0
   -4.7395   21.8033  -22.5076 F   0  0  0  0  0  0  0  0  0  0  0  0
   -2.3347   22.0117  -25.4532 C   0  0  0  0  0  0  0  0  0  0  0  0
   -3.5608   21.5625  -24.9779 O   0  0  0  0  0  0  0  0  0  0  0  0
   -6.8861   24.4534  -26.7757 O   0  0  0  0  0  0  0  0  0  0  0  0
   -6.3758   25.5560  -27.4423 C   0  0  0  0  0  0  0  0  0  0  0  0
   -5.9056   23.7948  -15.7066 C   0  0  0  0  0  0  0  0  0  0  0  0
   -6.6498   24.3757  -14.6794 C   0  0  0  0  0  0  0  0  0  0  0  0
   -6.0604   24.1094  -13.5048 N   0  0  0  0  0  0  0  0  0  0  0  0
   -4.9889   23.3933  -13.7469 N   0  0  0  0  0  0  0  0  0  0  0  0
   -4.8648   23.1830  -15.0846 C   0  0  0  0  0  0  0  0  0  0  0  0
   -3.7575   22.4253  -15.6649 C   0  0  0  0  0  0  0  0  0  0  0  0
   -6.5524   24.5507  -12.2231 C   0  0  0  0  0  0  0  0  0  0  0  0
   -6.3300   25.9839  -12.0517 C   0  0  0  0  0  0  0  0  0  0  0  0
   -6.1649   27.1170  -11.9029 N   0  0  0  0  0  0  0  0  0  0  0  0
 22 23  1  0  0  0
 23 14  1  0  0  0
 14 15  2  0  0  0
 15 16  1  0  0  0
 16 24  1  0  0  0
 24 25  1  0  0  0
 16 17  2  0  0  0
 17 18  1  0  0  0
 17 19  1  0  0  0
 19  1  1  0  0  0
  1  2  1  0  0  0
  2  3  1  0  0  0
  3  4  2  0  0  0
  4  5  1  0  0  0
  5  6  2  0  0  0
  6  7  1  0  0  0
  7  8  2  0  0  0
  8  9  1  0  0  0
  9 10  1  0  0  0
 10 11  1  0  0  0
  9 12  1  0  0  0
 12 13  2  0  0  0
  6 26  1  0  0  0
 26 27  2  0  0  0
 27 28  1  0  0  0
 28 32  1  0  0  0
 32 33  1  0  0  0
 33 34  3  0  0  0
 28 29  1  0  0  0
 29 30  2  0  0  0
 30 31  1  0  0  0
 19 20  2  0  0  0
 20 21  1  0  0  0
 20 14  1  0  0  0
 12  1  1  0  0  0
 30 26  1  0  0  0
  8  3  1  0  0  0
 11  9  1  0  0  0
M  END
> <minimizedAffinity>
-7.51212

> <CNNscore>
0.1833623648

> <CNNaffinity>
5.8625917435

> <CNN_VS>
1.0749787092

> <CNNaffinity_variance>
0.2451864779

$$$$
[H]c1nc(-c2c(C([H])([H])[H])nn(C([H])([H])C#N)c2[H])c([H])c2c1C([H])([H])N(c1c(F)c(OC([H])([H])[H])c([H])c(OC([H])([H])[H])c1F)C(=O)C21C([H])([H])C1([H])[H]


 34 38  0  0  0  0  0  0  0  0999 V2000
   -3.0244   22.9180  -26.5070 N   0  0  0  0  0  0  0  0  0  0  0  0
   -3.2990   21.8549  -25.5689 C   0  0  0  0  0  0  0  0  0  0  0  0
   -2.1972   21.7185  -24.5897 C   0  0  0  0  0  0  0  0  0  0  0  0
   -2.4214   21.3720  -23.2676 C   0  0  0  0  0  0  0  0  0  0  0  0
   -1.4300   21.2529  -22.3965 N   0  0  0  0  0  0  0  0  0  0  0  0
   -0.1087   21.4572  -22.7112 C   0  0  0  0  0  0  0  0  0  0  0  0
    0.1490   21.7970  -23.9935 C   0  0  0  0  0  0  0  0  0  0  0  0
   -0.8799   21.9263  -24.9205 C   0  0  0  0  0  0  0  0  0  0  0  0
   -0.5689   22.2987  -26.3243 C   0  0  0  0  0  0  0  0  0  0  0  0
    0.1623   21.2116  -27.0730 C   0  0  0  0  0  0  0  0  0  0  0  0
    0.7893   22.5384  -26.8112 C   0  0  0  0  0  0  0  0  0  0  0  0
   -1.6821   23.0232  -26.9801 C   0  0  0  0  0  0  0  0  0  0  0  0
   -1.4497   23.7518  -27.9795 O   0  0  0  0  0  0  0  0  0  0  0  0
   -5.4053   25.7910  -26.5768 C   0  0  0  0  0  0  0  0  0  0  0  0
   -5.9885   25.6174  -27.8108 C   0  0  0  0  0  0  0  0  0  0  0  0
   -5.6115   24.5604  -28.6372 C   0  0  0  0  0  0  0  0  0  0  0  0
   -4.6357   23.6932  -28.1793 C   0  0  0  0  0  0  0  0  0  0  0  0
   -4.2860   22.6757  -28.9966 F   0  0  0  0  0  0  0  0  0  0  0  0
   -4.0236   23.8272  -26.9508 C   0  0  0  0  0  0  0  0  0  0  0  0
   -4.4408   24.8967  -26.1761 C   0  0  0  0  0  0  0  0  0  0  0  0
   -3.8754   25.0791  -24.9609 F   0  0  0  0  0  0  0  0  0  0  0  0
   -6.4237   26.7565  -24.5415 C   0  0  0  0  0  0  0  0  0  0  0  0
   -5.8051   26.8544  -25.7819 O   0  0  0  0  0  0  0  0  0  0  0  0
   -6.2156   24.4267  -29.8543 O   0  0  0  0  0  0  0  0  0  0  0  0
   -5.7366   24.7970  -31.1010 C   0  0  0  0  0  0  0  0  0  0  0  0
    0.8709   21.2774  -21.6442 C   0  0  0  0  0  0  0  0  0  0  0  0
    0.6264   21.5437  -20.2967 C   0  0  0  0  0  0  0  0  0  0  0  0
    1.7386   21.2938  -19.5905 N   0  0  0  0  0  0  0  0  0  0  0  0
    2.6620   20.8860  -20.4274 N   0  0  0  0  0  0  0  0  0  0  0  0
    2.1638   20.8648  -21.6925 C   0  0  0  0  0  0  0  0  0  0  0  0
    2.9634   20.4639  -22.8488 C   0  0  0  0  0  0  0  0  0  0  0  0
    1.8556   21.4565  -18.1624 C   0  0  0  0  0  0  0  0  0  0  0  0
    2.4530   22.7492  -17.8385 C   0  0  0  0  0  0  0  0  0  0  0  0
    2.9203   23.7772  -17.5975 N   0  0  0  0  0  0  0  0  0  0  0  0
 22 23  1  0  0  0
 23 14  1  0  0  0
 14 15  2  0  0  0
 15 16  1  0  0  0
 16 24  1  0  0  0
 24 25  1  0  0  0
 16 17  2  0  0  0
 17 18  1  0  0  0
 17 19  1  0  0  0
 19  1  1  0  0  0
  1  2  1  0  0  0
  2  3  1  0  0  0
  3  4  2  0  0  0
  4  5  1  0  0  0
  5  6  2  0  0  0
  6  7  1  0  0  0
  7  8  2  0  0  0
  8  9  1  0  0  0
  9 10  1  0  0  0
 10 11  1  0  0  0
  9 12  1  0  0  0
 12 13  2  0  0  0
  6 26  1  0  0  0
 26 27  2  0  0  0
 27 28  1  0  0  0
 28 32  1  0  0  0
 32 33  1  0  0  0
 33 34  3  0  0  0
 28 29  1  0  0  0
 29 30  2  0  0  0
 30 31  1  0  0  0
 19 20  2  0  0  0
 20 21  1  0  0  0
 20 14  1  0  0  0
 12  1  1  0  0  0
 30 26  1  0  0  0
  8  3  1  0  0  0
 11  9  1  0  0  0
M  END
> <minimizedAffinity>
-8.54994

> <CNNscore>
0.1722626239

> <CNNaffinity>
6.9299445152

> <CNN_VS>
1.1937704086

> <CNNaffinity_variance>
0.1545926332

$$$$
[H]C([H])=C([H])C(=O)N1C([H])([H])C([H])([H])N(C([H])([H])C([H])([H])C([H])([H])n2c(=O)c(-c3c(Cl)c(OC([H])([H])[H])c([H])c(OC([H])([H])[H])c3Cl)c([H])c3c([H])nc(N([H])C([H])([H])C([H])([H])OC([H])([H])C([H])([H])[H])nc32)C([H])([H])C1([H])[H]


 43 46  0  0  0  0  0  0  0  0999 V2000
   -2.0790   22.3745  -25.2982 C   0  0  0  0  0  0  0  0  0  0  0  0
   -0.7552   22.2434  -25.4311 N   0  0  0  0  0  0  0  0  0  0  0  0
    0.0209   21.9018  -24.4001 C   0  0  0  0  0  0  0  0  0  0  0  0
   -0.5157   21.6694  -23.1504 C   0  0  0  0  0  0  0  0  0  0  0  0
    0.2789   21.3180  -22.0809 C   0  0  0  0  0  0  0  0  0  0  0  0
   -0.3425   21.1103  -20.8847 C   0  0  0  0  0  0  0  0  0  0  0  0
   -1.7142   21.2571  -20.7944 C   0  0  0  0  0  0  0  0  0  0  0  0
   -2.2080   21.0425  -19.6345 O   0  0  0  0  0  0  0  0  0  0  0  0
   -2.4874   21.5985  -21.8324 N   0  0  0  0  0  0  0  0  0  0  0  0
   -1.8829   21.8108  -23.0385 C   0  0  0  0  0  0  0  0  0  0  0  0
   -2.6313   22.1554  -24.0967 N   0  0  0  0  0  0  0  0  0  0  0  0
    0.4568   20.7356  -19.7190 C   0  0  0  0  0  0  0  0  0  0  0  0
    0.7876   19.3964  -19.5649 C   0  0  0  0  0  0  0  0  0  0  0  0
    0.2534   18.2094  -20.7457 Cl  0  0  0  0  0  0  0  0  0  0  0  0
    1.5382   19.0564  -18.4640 C   0  0  0  0  0  0  0  0  0  0  0  0
    1.9536   19.9930  -17.5414 C   0  0  0  0  0  0  0  0  0  0  0  0
    1.6265   21.3227  -17.6923 C   0  0  0  0  0  0  0  0  0  0  0  0
    0.8742   21.6758  -18.7925 C   0  0  0  0  0  0  0  0  0  0  0  0
    0.4282   23.3717  -19.0305 Cl  0  0  0  0  0  0  0  0  0  0  0  0
    1.8758   17.7200  -18.2988 O   0  0  0  0  0  0  0  0  0  0  0  0
    1.1788   16.8720  -17.4275 C   0  0  0  0  0  0  0  0  0  0  0  0
    2.0092   22.3137  -16.8070 O   0  0  0  0  0  0  0  0  0  0  0  0
    3.3513   22.7738  -16.8726 C   0  0  0  0  0  0  0  0  0  0  0  0
   -2.8514   22.7422  -26.4288 N   0  0  0  0  0  0  0  0  0  0  0  0
   -3.8715   22.9189  -26.2869 H   0  0  0  0  0  0  0  0  0  0  0  0
   -2.2010   22.8562  -27.7152 C   0  0  0  0  0  0  0  0  0  0  0  0
   -3.2305   23.3417  -28.7135 C   0  0  0  0  0  0  0  0  0  0  0  0
   -4.4901   22.8618  -28.4369 O   0  0  0  0  0  0  0  0  0  0  0  0
   -5.4711   24.1430  -30.1494 C   0  0  0  0  0  0  0  0  0  0  0  0
   -5.2669   22.7587  -29.5662 C   0  0  0  0  0  0  0  0  0  0  0  0
   -3.9240   21.7422  -21.6895 C   0  0  0  0  0  0  0  0  0  0  0  0
   -4.1899   23.1002  -21.0579 C   0  0  0  0  0  0  0  0  0  0  0  0
   -5.6792   23.2509  -20.8753 C   0  0  0  0  0  0  0  0  0  0  0  0
   -6.3408   23.8707  -21.9677 N   0  0  0  0  0  0  0  0  0  0  0  0
   -7.0003   23.0324  -22.8899 C   0  0  0  0  0  0  0  0  0  0  0  0
   -6.3534   22.8411  -24.2172 C   0  0  0  0  0  0  0  0  0  0  0  0
   -5.9302   24.1619  -24.6984 N   0  0  0  0  0  0  0  0  0  0  0  0
   -5.0925   24.9214  -23.8214 C   0  0  0  0  0  0  0  0  0  0  0  0
   -5.7323   25.0471  -22.4553 C   0  0  0  0  0  0  0  0  0  0  0  0
   -6.3729   24.5799  -25.9684 C   0  0  0  0  0  0  0  0  0  0  0  0
   -7.1236   23.8375  -26.6874 O   0  0  0  0  0  0  0  0  0  0  0  0
   -6.0188   25.8631  -26.5526 C   0  0  0  0  0  0  0  0  0  0  0  0
   -4.8238   26.0828  -27.0895 C   0  0  0  0  0  0  0  0  0  0  0  0
 29 30  1  0  0  0
 30 28  1  0  0  0
 28 27  1  0  0  0
 27 26  1  0  0  0
 26 24  1  0  0  0
 24  1  1  0  0  0
  1  2  2  0  0  0
  2  3  1  0  0  0
  3  4  2  0  0  0
  4  5  1  0  0  0
  5  6  2  0  0  0
  6 12  1  0  0  0
 12 13  2  0  0  0
 13 14  1  0  0  0
 13 15  1  0  0  0
 15 20  1  0  0  0
 20 21  1  0  0  0
 15 16  2  0  0  0
 16 17  1  0  0  0
 17 22  1  0  0  0
 22 23  1  0  0  0
 17 18  2  0  0  0
 18 19  1  0  0  0
  6  7  1  0  0  0
  7  8  2  0  0  0
  7  9  1  0  0  0
  9 31  1  0  0  0
 31 32  1  0  0  0
 32 33  1  0  0  0
 33 34  1  0  0  0
 34 35  1  0  0  0
 35 36  1  0  0  0
 36 37  1  0  0  0
 37 38  1  0  0  0
 38 39  1  0  0  0
 37 40  1  0  0  0
 40 41  2  0  0  0
 40 42  1  0  0  0
 42 43  2  0  0  0
  9 10  1  0  0  0
 10 11  2  0  0  0
 11  1  1  0  0  0
 10  4  1  0  0  0
 18 12  1  0  0  0
 39 34  1  0  0  0
 24 25  1  0  0  0
M  END
> <minimizedAffinity>
-7.11416

> <CNNscore>
0.1307444572

> <CNNaffinity>
7.4459509850

> <CNN_VS>
0.9735168219

> <CNNaffinity_variance>
0.3023226261

$$$$
[H]C([H])=C([H])C(=O)N1C([H])([H])C([H])([H])N(C([H])([H])C([H])([H])C([H])([H])n2c(=O)c(-c3c(Cl)c(OC([H])([H])[H])c([H])c(OC([H])([H])[H])c3Cl)c([H])c3c([H])nc(N([H])C([H])([H])C([H])([H])OC([H])([H])C([H])([H])[H])nc32)C([H])([H])C1([H])[H]


 43 46  0  0  0  0  0  0  0  0999 V2000
   -2.4687   22.3724  -25.2240 C   0  0  0  0  0  0  0  0  0  0  0  0
   -1.1489   22.3167  -25.4302 N   0  0  0  0  0  0  0  0  0  0  0  0
   -0.2988   22.0213  -24.4442 C   0  0  0  0  0  0  0  0  0  0  0  0
   -0.7513   21.7606  -23.1672 C   0  0  0  0  0  0  0  0  0  0  0  0
    0.1199   21.4566  -22.1439 C   0  0  0  0  0  0  0  0  0  0  0  0
   -0.4215   21.2155  -20.9155 C   0  0  0  0  0  0  0  0  0  0  0  0
   -1.7922   21.2841  -20.7491 C   0  0  0  0  0  0  0  0  0  0  0  0
   -2.2080   21.0434  -19.5641 O   0  0  0  0  0  0  0  0  0  0  0  0
   -2.6399   21.5795  -21.7423 N   0  0  0  0  0  0  0  0  0  0  0  0
   -2.1161   21.8240  -22.9795 C   0  0  0  0  0  0  0  0  0  0  0  0
   -2.9403   22.1240  -23.9942 N   0  0  0  0  0  0  0  0  0  0  0  0
    0.4612   20.8886  -19.7964 C   0  0  0  0  0  0  0  0  0  0  0  0
    0.7912   21.9080  -18.9139 C   0  0  0  0  0  0  0  0  0  0  0  0
    0.1556   23.5288  -19.1534 Cl  0  0  0  0  0  0  0  0  0  0  0  0
    1.6231   21.5885  -17.8666 C   0  0  0  0  0  0  0  0  0  0  0  0
    2.1184   20.3146  -17.6851 C   0  0  0  0  0  0  0  0  0  0  0  0
    1.7922   19.3014  -18.5597 C   0  0  0  0  0  0  0  0  0  0  0  0
    0.9585   19.6097  -19.6138 C   0  0  0  0  0  0  0  0  0  0  0  0
    0.5104   18.3424  -20.7648 Cl  0  0  0  0  0  0  0  0  0  0  0  0
    1.9605   22.5992  -16.9768 O   0  0  0  0  0  0  0  0  0  0  0  0
    3.1280   23.3620  -17.1149 C   0  0  0  0  0  0  0  0  0  0  0  0
    2.2521   18.0030  -18.4379 O   0  0  0  0  0  0  0  0  0  0  0  0
    3.5403   17.7085  -18.9584 C   0  0  0  0  0  0  0  0  0  0  0  0
   -3.3221   22.6939  -26.3095 N   0  0  0  0  0  0  0  0  0  0  0  0
   -4.3423   22.8052  -26.1123 H   0  0  0  0  0  0  0  0  0  0  0  0
   -2.7500   22.8527  -27.6279 C   0  0  0  0  0  0  0  0  0  0  0  0
   -3.8881   23.0562  -28.6055 C   0  0  0  0  0  0  0  0  0  0  0  0
   -3.7944   24.2575  -29.2701 O   0  0  0  0  0  0  0  0  0  0  0  0
   -4.8073   25.9403  -30.5657 C   0  0  0  0  0  0  0  0  0  0  0  0
   -4.9297   24.5431  -29.9904 C   0  0  0  0  0  0  0  0  0  0  0  0
   -4.0722   21.6413  -21.5198 C   0  0  0  0  0  0  0  0  0  0  0  0
   -4.3918   23.0192  -20.9603 C   0  0  0  0  0  0  0  0  0  0  0  0
   -5.8895   23.1396  -20.8326 C   0  0  0  0  0  0  0  0  0  0  0  0
   -6.5207   23.7644  -21.9400 N   0  0  0  0  0  0  0  0  0  0  0  0
   -7.0870   22.9279  -22.9237 C   0  0  0  0  0  0  0  0  0  0  0  0
   -6.3603   22.8135  -24.2182 C   0  0  0  0  0  0  0  0  0  0  0  0
   -5.9776   24.1687  -24.6328 N   0  0  0  0  0  0  0  0  0  0  0  0
   -5.2273   24.9366  -23.6868 C   0  0  0  0  0  0  0  0  0  0  0  0
   -5.9457   24.9846  -22.3552 C   0  0  0  0  0  0  0  0  0  0  0  0
   -6.3709   24.6086  -25.9117 C   0  0  0  0  0  0  0  0  0  0  0  0
   -7.0439   23.8565  -26.6947 O   0  0  0  0  0  0  0  0  0  0  0  0
   -6.0497   25.9267  -26.4342 C   0  0  0  0  0  0  0  0  0  0  0  0
   -4.8069   26.2699  -26.7537 C   0  0  0  0  0  0  0  0  0  0  0  0
 29 30  1  0  0  0
 30 28  1  0  0  0
 28 27  1  0  0  0
 27 26  1  0  0  0
 26 24  1  0  0  0
 24  1  1  0  0  0
  1  2  2  0  0  0
  2  3  1  0  0  0
  3  4  2  0  0  0
  4  5  1  0  0  0
  5  6  2  0  0  0
  6 12  1  0  0  0
 12 13  2  0  0  0
 13 14  1  0  0  0
 13 15  1  0  0  0
 15 20  1  0  0  0
 20 21  1  0  0  0
 15 16  2  0  0  0
 16 17  1  0  0  0
 17 22  1  0  0  0
 22 23  1  0  0  0
 17 18  2  0  0  0
 18 19  1  0  0  0
  6  7  1  0  0  0
  7  8  2  0  0  0
  7  9  1  0  0  0
  9 31  1  0  0  0
 31 32  1  0  0  0
 32 33  1  0  0  0
 33 34  1  0  0  0
 34 35  1  0  0  0
 35 36  1  0  0  0
 36 37  1  0  0  0
 37 38  1  0  0  0
 38 39  1  0  0  0
 37 40  1  0  0  0
 40 41  2  0  0  0
 40 42  1  0  0  0
 42 43  2  0  0  0
  9 10  1  0  0  0
 10 11  2  0  0  0
 11  1  1  0  0  0
 10  4  1  0  0  0
 18 12  1  0  0  0
 39 34  1  0  0  0
 24 25  1  0  0  0
M  END
> <minimizedAffinity>
-6.99388

> <CNNscore>
0.1075808406

> <CNNaffinity>
7.4860901833

> <CNN_VS>
0.8053599000

> <CNNaffinity_variance>
0.1342770457

$$$$
[H]C([H])=C([H])C(=O)N1C([H])([H])C([H])([H])N(C([H])([H])C([H])([H])C([H])([H])n2c(=O)c(-c3c(Cl)c(OC([H])([H])[H])c([H])c(OC([H])([H])[H])c3Cl)c([H])c3c([H])nc(N([H])C([H])([H])C([H])([H])OC([H])([H])C([H])([H])[H])nc32)C([H])([H])C1([H])[H]


 43 46  0  0  0  0  0  0  0  0999 V2000
    1.1221   21.4421  -23.9632 C   0  0  0  0  0  0  0  0  0  0  0  0
    2.1863   20.8020  -23.4681 N   0  0  0  0  0  0  0  0  0  0  0  0
    2.3670   20.6587  -22.1533 C   0  0  0  0  0  0  0  0  0  0  0  0
    1.4579   21.1681  -21.2491 C   0  0  0  0  0  0  0  0  0  0  0  0
    1.6382   21.0256  -19.8905 C   0  0  0  0  0  0  0  0  0  0  0  0
    0.6863   21.5643  -19.0757 C   0  0  0  0  0  0  0  0  0  0  0  0
   -0.3976   22.2173  -19.6324 C   0  0  0  0  0  0  0  0  0  0  0  0
   -1.2374   22.6895  -18.7917 O   0  0  0  0  0  0  0  0  0  0  0  0
   -0.5741   22.3567  -20.9521 N   0  0  0  0  0  0  0  0  0  0  0  0
    0.3689   21.8238  -21.7839 C   0  0  0  0  0  0  0  0  0  0  0  0
    0.2201   21.9487  -23.1110 N   0  0  0  0  0  0  0  0  0  0  0  0
    0.8320   21.4400  -17.6260 C   0  0  0  0  0  0  0  0  0  0  0  0
    1.6045   22.3883  -16.9700 C   0  0  0  0  0  0  0  0  0  0  0  0
    2.3705   23.6869  -17.8729 Cl  0  0  0  0  0  0  0  0  0  0  0  0
    1.7353   22.2598  -15.6071 C   0  0  0  0  0  0  0  0  0  0  0  0
    1.1316   21.2380  -14.9052 C   0  0  0  0  0  0  0  0  0  0  0  0
    0.3644   20.2957  -15.5542 C   0  0  0  0  0  0  0  0  0  0  0  0
    0.2259   20.4143  -16.9210 C   0  0  0  0  0  0  0  0  0  0  0  0
   -0.7496   19.2282  -17.8002 Cl  0  0  0  0  0  0  0  0  0  0  0  0
    2.5052   23.2022  -14.9392 O   0  0  0  0  0  0  0  0  0  0  0  0
    3.8343   22.9584  -14.5674 C   0  0  0  0  0  0  0  0  0  0  0  0
   -0.2688   19.2463  -14.9138 O   0  0  0  0  0  0  0  0  0  0  0  0
   -0.6431   19.4320  -13.5564 C   0  0  0  0  0  0  0  0  0  0  0  0
    0.9854   21.5653  -25.3690 N   0  0  0  0  0  0  0  0  0  0  0  0
    1.5395   20.9165  -25.9724 H   0  0  0  0  0  0  0  0  0  0  0  0
    0.0943   22.5721  -25.9011 C   0  0  0  0  0  0  0  0  0  0  0  0
    0.3929   22.7213  -27.3779 C   0  0  0  0  0  0  0  0  0  0  0  0
   -0.7372   23.0019  -28.1113 O   0  0  0  0  0  0  0  0  0  0  0  0
   -3.0767   22.9246  -28.3502 C   0  0  0  0  0  0  0  0  0  0  0  0
   -1.8868   22.6215  -27.4611 C   0  0  0  0  0  0  0  0  0  0  0  0
   -1.7279   23.0519  -21.4908 C   0  0  0  0  0  0  0  0  0  0  0  0
   -2.8529   22.0375  -21.6293 C   0  0  0  0  0  0  0  0  0  0  0  0
   -4.1159   22.6585  -21.0880 C   0  0  0  0  0  0  0  0  0  0  0  0
   -4.8372   23.4325  -22.0345 N   0  0  0  0  0  0  0  0  0  0  0  0
   -5.4623   22.7461  -23.0957 C   0  0  0  0  0  0  0  0  0  0  0  0
   -4.8322   22.8561  -24.4403 C   0  0  0  0  0  0  0  0  0  0  0  0
   -4.5020   24.2694  -24.6607 N   0  0  0  0  0  0  0  0  0  0  0  0
   -3.6952   24.8989  -23.6605 C   0  0  0  0  0  0  0  0  0  0  0  0
   -4.3133   24.7178  -22.2906 C   0  0  0  0  0  0  0  0  0  0  0  0
   -4.9960   24.8942  -25.8223 C   0  0  0  0  0  0  0  0  0  0  0  0
   -5.7139   24.2567  -26.6650 O   0  0  0  0  0  0  0  0  0  0  0  0
   -4.7346   26.2861  -26.1505 C   0  0  0  0  0  0  0  0  0  0  0  0
   -5.4729   27.2733  -25.6553 C   0  0  0  0  0  0  0  0  0  0  0  0
 29 30  1  0  0  0
 30 28  1  0  0  0
 28 27  1  0  0  0
 27 26  1  0  0  0
 26 24  1  0  0  0
 24  1  1  0  0  0
  1  2  2  0  0  0
  2  3  1  0  0  0
  3  4  2  0  0  0
  4  5  1  0  0  0
  5  6  2  0  0  0
  6 12  1  0  0  0
 12 13  2  0  0  0
 13 14  1  0  0  0
 13 15  1  0  0  0
 15 20  1  0  0  0
 20 21  1  0  0  0
 15 16  2  0  0  0
 16 17  1  0  0  0
 17 22  1  0  0  0
 22 23  1  0  0  0
 17 18  2  0  0  0
 18 19  1  0  0  0
  6  7  1  0  0  0
  7  8  2  0  0  0
  7  9  1  0  0  0
  9 31  1  0  0  0
 31 32  1  0  0  0
 32 33  1  0  0  0
 33 34  1  0  0  0
 34 35  1  0  0  0
 35 36  1  0  0  0
 36 37  1  0  0  0
 37 38  1  0  0  0
 38 39  1  0  0  0
 37 40  1  0  0  0
 40 41  2  0  0  0
 40 42  1  0  0  0
 42 43  2  0  0  0
  9 10  1  0  0  0
 10 11  2  0  0  0
 11  1  1  0  0  0
 10  4  1  0  0  0
 18 12  1  0  0  0
 39 34  1  0  0  0
 24 25  1  0  0  0
M  END
> <minimizedAffinity>
-6.46106

> <CNNscore>
0.1020048559

> <CNNaffinity>
6.8600440025

> <CNN_VS>
0.6997578144

> <CNNaffinity_variance>
0.4225184321

$$$$
[H]C([H])=C([H])C(=O)N1C([H])([H])C([H])([H])N(C([H])([H])C([H])([H])C([H])([H])n2c(=O)c(-c3c(Cl)c(OC([H])([H])[H])c([H])c(OC([H])([H])[H])c3Cl)c([H])c3c([H])nc(N([H])C([H])([H])C([H])([H])OC([H])([H])C([H])([H])[H])nc32)C([H])([H])C1([H])[H]


 43 46  0  0  0  0  0  0  0  0999 V2000
   -1.2005   22.4042  -25.6991 C   0  0  0  0  0  0  0  0  0  0  0  0
    0.1014   22.1077  -25.6332 N   0  0  0  0  0  0  0  0  0  0  0  0
    0.6742   21.7228  -24.4905 C   0  0  0  0  0  0  0  0  0  0  0  0
   -0.0590   21.6153  -23.3267 C   0  0  0  0  0  0  0  0  0  0  0  0
    0.5252   21.2201  -22.1429 C   0  0  0  0  0  0  0  0  0  0  0  0
   -0.2805   21.1448  -21.0451 C   0  0  0  0  0  0  0  0  0  0  0  0
   -1.6214   21.4607  -21.1605 C   0  0  0  0  0  0  0  0  0  0  0  0
   -2.2976   21.3614  -20.0798 O   0  0  0  0  0  0  0  0  0  0  0  0
   -2.1904   21.8448  -22.3098 N   0  0  0  0  0  0  0  0  0  0  0  0
   -1.3993   21.9262  -23.4199 C   0  0  0  0  0  0  0  0  0  0  0  0
   -1.9406   22.3095  -24.5856 N   0  0  0  0  0  0  0  0  0  0  0  0
    0.2919   20.7305  -19.7648 C   0  0  0  0  0  0  0  0  0  0  0  0
    0.5274   19.3766  -19.5696 C   0  0  0  0  0  0  0  0  0  0  0  0
    0.1440   18.2183  -20.8344 Cl  0  0  0  0  0  0  0  0  0  0  0  0
    1.0644   18.9993  -18.3612 C   0  0  0  0  0  0  0  0  0  0  0  0
    1.3625   19.9137  -17.3732 C   0  0  0  0  0  0  0  0  0  0  0  0
    1.1295   21.2579  -17.5647 C   0  0  0  0  0  0  0  0  0  0  0  0
    0.5914   21.6483  -18.7727 C   0  0  0  0  0  0  0  0  0  0  0  0
    0.2736   23.3641  -19.0668 Cl  0  0  0  0  0  0  0  0  0  0  0  0
    1.3050   17.6479  -18.1537 O   0  0  0  0  0  0  0  0  0  0  0  0
    0.3467   16.7923  -17.5937 C   0  0  0  0  0  0  0  0  0  0  0  0
    1.4043   22.2282  -16.6185 O   0  0  0  0  0  0  0  0  0  0  0  0
    1.1346   21.9182  -15.2590 C   0  0  0  0  0  0  0  0  0  0  0  0
   -1.7522   22.8100  -26.9405 N   0  0  0  0  0  0  0  0  0  0  0  0
   -1.1378   22.7690  -27.7848 H   0  0  0  0  0  0  0  0  0  0  0  0
   -3.1264   23.2576  -26.9841 C   0  0  0  0  0  0  0  0  0  0  0  0
   -3.4414   23.6483  -28.4125 C   0  0  0  0  0  0  0  0  0  0  0  0
   -4.2952   24.7253  -28.4810 O   0  0  0  0  0  0  0  0  0  0  0  0
   -5.5436   24.2745  -30.4239 C   0  0  0  0  0  0  0  0  0  0  0  0
   -4.4922   25.1514  -29.7729 C   0  0  0  0  0  0  0  0  0  0  0  0
   -3.6029   22.1678  -22.3826 C   0  0  0  0  0  0  0  0  0  0  0  0
   -3.7618   23.6281  -21.9873 C   0  0  0  0  0  0  0  0  0  0  0  0
   -4.6618   24.2939  -22.9976 C   0  0  0  0  0  0  0  0  0  0  0  0
   -5.7346   25.0287  -22.4279 N   0  0  0  0  0  0  0  0  0  0  0  0
   -6.0531   24.7750  -21.0780 C   0  0  0  0  0  0  0  0  0  0  0  0
   -7.2893   23.9903  -20.8078 C   0  0  0  0  0  0  0  0  0  0  0  0
   -8.3559   24.5381  -21.6548 N   0  0  0  0  0  0  0  0  0  0  0  0
   -8.0844   24.6050  -23.0581 C   0  0  0  0  0  0  0  0  0  0  0  0
   -6.7884   25.3449  -23.3119 C   0  0  0  0  0  0  0  0  0  0  0  0
   -9.5506   24.9524  -21.0344 C   0  0  0  0  0  0  0  0  0  0  0  0
   -9.7092   24.8594  -19.7703 O   0  0  0  0  0  0  0  0  0  0  0  0
  -10.6770   25.5077  -21.7666 C   0  0  0  0  0  0  0  0  0  0  0  0
  -10.8145   26.8155  -21.9545 C   0  0  0  0  0  0  0  0  0  0  0  0
 29 30  1  0  0  0
 30 28  1  0  0  0
 28 27  1  0  0  0
 27 26  1  0  0  0
 26 24  1  0  0  0
 24  1  1  0  0  0
  1  2  2  0  0  0
  2  3  1  0  0  0
  3  4  2  0  0  0
  4  5  1  0  0  0
  5  6  2  0  0  0
  6 12  1  0  0  0
 12 13  2  0  0  0
 13 14  1  0  0  0
 13 15  1  0  0  0
 15 20  1  0  0  0
 20 21  1  0  0  0
 15 16  2  0  0  0
 16 17  1  0  0  0
 17 22  1  0  0  0
 22 23  1  0  0  0
 17 18  2  0  0  0
 18 19  1  0  0  0
  6  7  1  0  0  0
  7  8  2  0  0  0
  7  9  1  0  0  0
  9 31  1  0  0  0
 31 32  1  0  0  0
 32 33  1  0  0  0
 33 34  1  0  0  0
 34 35  1  0  0  0
 35 36  1  0  0  0
 36 37  1  0  0  0
 37 38  1  0  0  0
 38 39  1  0  0  0
 37 40  1  0  0  0
 40 41  2  0  0  0
 40 42  1  0  0  0
 42 43  2  0  0  0
  9 10  1  0  0  0
 10 11  2  0  0  0
 11  1  1  0  0  0
 10  4  1  0  0  0
 18 12  1  0  0  0
 39 34  1  0  0  0
 24 25  1  0  0  0
M  END
> <minimizedAffinity>
-6.91376

> <CNNscore>
0.0926884711

> <CNNaffinity>
7.2135872841

> <CNN_VS>
0.6686163545

> <CNNaffinity_variance>
0.1822447479

$$$$
[H]C([H])=C([H])C(=O)N1C([H])([H])C([H])([H])N(C([H])([H])C([H])([H])C([H])([H])n2c(=O)c(-c3c(Cl)c(OC([H])([H])[H])c([H])c(OC([H])([H])[H])c3Cl)c([H])c3c([H])nc(N([H])C([H])([H])C([H])([H])OC([H])([H])C([H])([H])[H])nc32)C([H])([H])C1([H])[H]


 43 46  0  0  0  0  0  0  0  0999 V2000
   -1.1787   22.4860  -25.6267 C   0  0  0  0  0  0  0  0  0  0  0  0
    0.1269   22.2080  -25.5529 N   0  0  0  0  0  0  0  0  0  0  0  0
    0.6917   21.7989  -24.4146 C   0  0  0  0  0  0  0  0  0  0  0  0
   -0.0538   21.6462  -23.2638 C   0  0  0  0  0  0  0  0  0  0  0  0
    0.5221   21.2260  -22.0847 C   0  0  0  0  0  0  0  0  0  0  0  0
   -0.2957   21.1062  -20.9997 C   0  0  0  0  0  0  0  0  0  0  0  0
   -1.6400   21.4044  -21.1230 C   0  0  0  0  0  0  0  0  0  0  0  0
   -2.3277   21.2633  -20.0542 O   0  0  0  0  0  0  0  0  0  0  0  0
   -2.2009   21.8129  -22.2678 N   0  0  0  0  0  0  0  0  0  0  0  0
   -1.3977   21.9388  -23.3650 C   0  0  0  0  0  0  0  0  0  0  0  0
   -1.9308   22.3475  -24.5259 N   0  0  0  0  0  0  0  0  0  0  0  0
    0.2675   20.6638  -19.7248 C   0  0  0  0  0  0  0  0  0  0  0  0
    0.5429   21.6318  -18.7688 C   0  0  0  0  0  0  0  0  0  0  0  0
    0.2155   23.3259  -19.1021 Cl  0  0  0  0  0  0  0  0  0  0  0  0
    1.0738   21.2035  -17.5748 C   0  0  0  0  0  0  0  0  0  0  0  0
    1.3284   19.8725  -17.3203 C   0  0  0  0  0  0  0  0  0  0  0  0
    1.0558   18.9101  -18.2676 C   0  0  0  0  0  0  0  0  0  0  0  0
    0.5232   19.3275  -19.4690 C   0  0  0  0  0  0  0  0  0  0  0  0
    0.1558   18.1292  -20.7182 Cl  0  0  0  0  0  0  0  0  0  0  0  0
    1.3535   22.1619  -16.6102 O   0  0  0  0  0  0  0  0  0  0  0  0
    2.5991   22.7982  -16.5235 C   0  0  0  0  0  0  0  0  0  0  0  0
    1.2857   17.5596  -18.0796 O   0  0  0  0  0  0  0  0  0  0  0  0
    0.3664   16.8409  -17.2700 C   0  0  0  0  0  0  0  0  0  0  0  0
   -1.7216   22.9190  -26.8628 N   0  0  0  0  0  0  0  0  0  0  0  0
   -1.0630   23.3017  -27.5782 H   0  0  0  0  0  0  0  0  0  0  0  0
   -3.1475   22.8131  -27.0778 C   0  0  0  0  0  0  0  0  0  0  0  0
   -3.5032   23.6838  -28.2642 C   0  0  0  0  0  0  0  0  0  0  0  0
   -4.1516   24.8375  -27.8870 O   0  0  0  0  0  0  0  0  0  0  0  0
   -3.7548   25.6829  -30.0467 C   0  0  0  0  0  0  0  0  0  0  0  0
   -4.7724   25.4552  -28.9463 C   0  0  0  0  0  0  0  0  0  0  0  0
   -3.6174   22.1159  -22.3492 C   0  0  0  0  0  0  0  0  0  0  0  0
   -3.8021   23.5670  -21.9320 C   0  0  0  0  0  0  0  0  0  0  0  0
   -4.8134   24.1974  -22.8560 C   0  0  0  0  0  0  0  0  0  0  0  0
   -6.1618   24.0334  -22.4436 N   0  0  0  0  0  0  0  0  0  0  0  0
   -7.1523   24.0188  -23.4469 C   0  0  0  0  0  0  0  0  0  0  0  0
   -8.0084   25.2304  -23.5739 C   0  0  0  0  0  0  0  0  0  0  0  0
   -8.4314   25.6177  -22.2225 N   0  0  0  0  0  0  0  0  0  0  0  0
   -7.3901   25.8208  -21.2624 C   0  0  0  0  0  0  0  0  0  0  0  0
   -6.4872   24.6075  -21.1959 C   0  0  0  0  0  0  0  0  0  0  0  0
   -9.8103   25.7586  -21.9724 C   0  0  0  0  0  0  0  0  0  0  0  0
  -10.6757   25.5550  -22.8897 O   0  0  0  0  0  0  0  0  0  0  0  0
  -10.3499   26.1394  -20.6774 C   0  0  0  0  0  0  0  0  0  0  0  0
  -11.2579   27.1010  -20.5519 C   0  0  0  0  0  0  0  0  0  0  0  0
 29 30  1  0  0  0
 30 28  1  0  0  0
 28 27  1  0  0  0
 27 26  1  0  0  0
 26 24  1  0  0  0
 24  1  1  0  0  0
  1  2  2  0  0  0
  2  3  1  0  0  0
  3  4  2  0  0  0
  4  5  1  0  0  0
  5  6  2  0  0  0
  6 12  1  0  0  0
 12 13  2  0  0  0
 13 14  1  0  0  0
 13 15  1  0  0  0
 15 20  1  0  0  0
 20 21  1  0  0  0
 15 16  2  0  0  0
 16 17  1  0  0  0
 17 22  1  0  0  0
 22 23  1  0  0  0
 17 18  2  0  0  0
 18 19  1  0  0  0
  6  7  1  0  0  0
  7  8  2  0  0  0
  7  9  1  0  0  0
  9 31  1  0  0  0
 31 32  1  0  0  0
 32 33  1  0  0  0
 33 34  1  0  0  0
 34 35  1  0  0  0
 35 36  1  0  0  0
 36 37  1  0  0  0
 37 38  1  0  0  0
 38 39  1  0  0  0
 37 40  1  0  0  0
 40 41  2  0  0  0
 40 42  1  0  0  0
 42 43  2  0  0  0
  9 10  1  0  0  0
 10 11  2  0  0  0
 11  1  1  0  0  0
 10  4  1  0  0  0
 18 12  1  0  0  0
 39 34  1  0  0  0
 24 25  1  0  0  0
M  END
> <minimizedAffinity>
-6.91933

> <CNNscore>
0.0840946287

> <CNNaffinity>
7.1548814774

> <CNN_VS>
0.6016870737

> <CNNaffinity_variance>
0.1926682740

$$$$
[H]C([H])=C([H])C(=O)N1C([H])([H])C([H])([H])N(C([H])([H])C([H])([H])C([H])([H])n2c(=O)c(-c3c(Cl)c(OC([H])([H])[H])c([H])c(OC([H])([H])[H])c3Cl)c([H])c3c([H])nc(N([H])C([H])([H])C([H])([H])OC([H])([H])C([H])([H])[H])nc32)C([H])([H])C1([H])[H]


 43 46  0  0  0  0  0  0  0  0999 V2000
   -1.3807   22.4791  -25.6708 C   0  0  0  0  0  0  0  0  0  0  0  0
   -0.0656   22.2506  -25.5966 N   0  0  0  0  0  0  0  0  0  0  0  0
    0.5136   21.8614  -24.4586 C   0  0  0  0  0  0  0  0  0  0  0  0
   -0.2262   21.6789  -23.3084 C   0  0  0  0  0  0  0  0  0  0  0  0
    0.3646   21.2789  -22.1296 C   0  0  0  0  0  0  0  0  0  0  0  0
   -0.4487   21.1266  -21.0453 C   0  0  0  0  0  0  0  0  0  0  0  0
   -1.8032   21.3740  -21.1689 C   0  0  0  0  0  0  0  0  0  0  0  0
   -2.4856   21.2053  -20.1008 O   0  0  0  0  0  0  0  0  0  0  0  0
   -2.3786   21.7627  -22.3135 N   0  0  0  0  0  0  0  0  0  0  0  0
   -1.5801   21.9206  -23.4100 C   0  0  0  0  0  0  0  0  0  0  0  0
   -2.1276   22.3106  -24.5706 N   0  0  0  0  0  0  0  0  0  0  0  0
    0.1301   20.7039  -19.7708 C   0  0  0  0  0  0  0  0  0  0  0  0
    0.3993   21.6844  -18.8258 C   0  0  0  0  0  0  0  0  0  0  0  0
    0.0459   23.3707  -19.1721 Cl  0  0  0  0  0  0  0  0  0  0  0  0
    0.9450   21.2746  -17.6320 C   0  0  0  0  0  0  0  0  0  0  0  0
    1.2199   19.9497  -17.3673 C   0  0  0  0  0  0  0  0  0  0  0  0
    0.9536   18.9749  -18.3036 C   0  0  0  0  0  0  0  0  0  0  0  0
    0.4062   19.3737  -19.5046 C   0  0  0  0  0  0  0  0  0  0  0  0
    0.0462   18.1588  -20.7399 Cl  0  0  0  0  0  0  0  0  0  0  0  0
    1.2186   22.2457  -16.6784 O   0  0  0  0  0  0  0  0  0  0  0  0
    2.5268   22.6124  -16.3346 C   0  0  0  0  0  0  0  0  0  0  0  0
    1.2036   17.6294  -18.1050 O   0  0  0  0  0  0  0  0  0  0  0  0
    2.5484   17.2362  -17.8723 C   0  0  0  0  0  0  0  0  0  0  0  0
   -1.9389   22.8933  -26.9065 N   0  0  0  0  0  0  0  0  0  0  0  0
   -1.2833   23.2005  -27.6601 H   0  0  0  0  0  0  0  0  0  0  0  0
   -3.3755   22.8722  -27.0690 C   0  0  0  0  0  0  0  0  0  0  0  0
   -3.8559   24.3066  -27.1316 C   0  0  0  0  0  0  0  0  0  0  0  0
   -3.8662   24.9063  -25.8931 O   0  0  0  0  0  0  0  0  0  0  0  0
   -4.7851   27.0446  -25.5469 C   0  0  0  0  0  0  0  0  0  0  0  0
   -5.0511   25.5551  -25.6394 C   0  0  0  0  0  0  0  0  0  0  0  0
   -3.8055   22.0121  -22.3952 C   0  0  0  0  0  0  0  0  0  0  0  0
   -4.0374   23.4749  -22.0484 C   0  0  0  0  0  0  0  0  0  0  0  0
   -5.5126   23.6731  -21.8069 C   0  0  0  0  0  0  0  0  0  0  0  0
   -6.0909   22.7260  -20.9215 N   0  0  0  0  0  0  0  0  0  0  0  0
   -7.2906   22.1051  -21.3254 C   0  0  0  0  0  0  0  0  0  0  0  0
   -8.5435   22.5456  -20.6522 C   0  0  0  0  0  0  0  0  0  0  0  0
   -8.2742   22.6055  -19.2103 N   0  0  0  0  0  0  0  0  0  0  0  0
   -7.1610   23.4066  -18.8025 C   0  0  0  0  0  0  0  0  0  0  0  0
   -5.9098   22.9928  -19.5474 C   0  0  0  0  0  0  0  0  0  0  0  0
   -9.1177   21.8807  -18.3459 C   0  0  0  0  0  0  0  0  0  0  0  0
  -10.0910   21.1865  -18.7959 O   0  0  0  0  0  0  0  0  0  0  0  0
   -8.9532   21.8642  -16.9016 C   0  0  0  0  0  0  0  0  0  0  0  0
   -8.4232   20.8234  -16.2687 C   0  0  0  0  0  0  0  0  0  0  0  0
 29 30  1  0  0  0
 30 28  1  0  0  0
 28 27  1  0  0  0
 27 26  1  0  0  0
 26 24  1  0  0  0
 24  1  1  0  0  0
  1  2  2  0  0  0
  2  3  1  0  0  0
  3  4  2  0  0  0
  4  5  1  0  0  0
  5  6  2  0  0  0
  6 12  1  0  0  0
 12 13  2  0  0  0
 13 14  1  0  0  0
 13 15  1  0  0  0
 15 20  1  0  0  0
 20 21  1  0  0  0
 15 16  2  0  0  0
 16 17  1  0  0  0
 17 22  1  0  0  0
 22 23  1  0  0  0
 17 18  2  0  0  0
 18 19  1  0  0  0
  6  7  1  0  0  0
  7  8  2  0  0  0
  7  9  1  0  0  0
  9 31  1  0  0  0
 31 32  1  0  0  0
 32 33  1  0  0  0
 33 34  1  0  0  0
 34 35  1  0  0  0
 35 36  1  0  0  0
 36 37  1  0  0  0
 37 38  1  0  0  0
 38 39  1  0  0  0
 37 40  1  0  0  0
 40 41  2  0  0  0
 40 42  1  0  0  0
 42 43  2  0  0  0
  9 10  1  0  0  0
 10 11  2  0  0  0
 11  1  1  0  0  0
 10  4  1  0  0  0
 18 12  1  0  0  0
 39 34  1  0  0  0
 24 25  1  0  0  0
M  END
> <minimizedAffinity>
-6.19443

> <CNNscore>
0.0552306920

> <CNNaffinity>
6.7772188187

> <CNN_VS>
0.3743104935

> <CNNaffinity_variance>
0.1723561883

$$$$
[H]C([H])=C([H])C(=O)N1C([H])([H])C([H])([H])N(C([H])([H])C([H])([H])C([H])([H])n2c(=O)c(-c3c(Cl)c(OC([H])([H])[H])c([H])c(OC([H])([H])[H])c3Cl)c([H])c3c([H])nc(N([H])C([H])([H])C([H])([H])OC([H])([H])C([H])([H])[H])nc32)C([H])([H])C1([H])[H]


 43 46  0  0  0  0  0  0  0  0999 V2000
   -1.2537   22.5844  -25.3196 C   0  0  0  0  0  0  0  0  0  0  0  0
   -0.0218   22.0736  -25.4136 N   0  0  0  0  0  0  0  0  0  0  0  0
    0.6089   21.5685  -24.3511 C   0  0  0  0  0  0  0  0  0  0  0  0
    0.0110   21.5537  -23.1078 C   0  0  0  0  0  0  0  0  0  0  0  0
    0.6561   21.0356  -22.0059 C   0  0  0  0  0  0  0  0  0  0  0  0
   -0.0153   21.0664  -20.8191 C   0  0  0  0  0  0  0  0  0  0  0  0
   -1.2879   21.6041  -20.7694 C   0  0  0  0  0  0  0  0  0  0  0  0
   -1.8385   21.5902  -19.6155 O   0  0  0  0  0  0  0  0  0  0  0  0
   -1.9159   22.1080  -21.8390 N   0  0  0  0  0  0  0  0  0  0  0  0
   -1.2593   22.0859  -23.0362 C   0  0  0  0  0  0  0  0  0  0  0  0
   -1.8622   22.5848  -24.1254 N   0  0  0  0  0  0  0  0  0  0  0  0
    0.6264   20.5287  -19.6202 C   0  0  0  0  0  0  0  0  0  0  0  0
    1.1774   21.4316  -18.7214 C   0  0  0  0  0  0  0  0  0  0  0  0
    1.0927   23.1588  -19.0349 Cl  0  0  0  0  0  0  0  0  0  0  0  0
    1.7793   20.9138  -17.5987 C   0  0  0  0  0  0  0  0  0  0  0  0
    1.8424   19.5574  -17.3594 C   0  0  0  0  0  0  0  0  0  0  0  0
    1.2962   18.6594  -18.2500 C   0  0  0  0  0  0  0  0  0  0  0  0
    0.6897   19.1669  -19.3796 C   0  0  0  0  0  0  0  0  0  0  0  0
   -0.0266   18.0538  -20.5540 Cl  0  0  0  0  0  0  0  0  0  0  0  0
    2.3340   21.8066  -16.6918 O   0  0  0  0  0  0  0  0  0  0  0  0
    1.6428   22.2491  -15.5558 C   0  0  0  0  0  0  0  0  0  0  0  0
    1.3233   17.2882  -18.0732 O   0  0  0  0  0  0  0  0  0  0  0  0
    0.4005   16.7240  -17.1527 C   0  0  0  0  0  0  0  0  0  0  0  0
   -1.8720   23.1092  -26.4825 N   0  0  0  0  0  0  0  0  0  0  0  0
   -1.2629   23.5795  -27.1896 H   0  0  0  0  0  0  0  0  0  0  0  0
   -3.3029   22.9720  -26.6384 C   0  0  0  0  0  0  0  0  0  0  0  0
   -3.9115   24.3565  -26.5691 C   0  0  0  0  0  0  0  0  0  0  0  0
   -5.1625   24.4040  -27.1403 O   0  0  0  0  0  0  0  0  0  0  0  0
   -6.1433   25.9807  -25.6950 C   0  0  0  0  0  0  0  0  0  0  0  0
   -5.7000   25.6688  -27.1108 C   0  0  0  0  0  0  0  0  0  0  0  0
   -3.2523   22.6635  -21.7383 C   0  0  0  0  0  0  0  0  0  0  0  0
   -4.2369   21.5618  -22.0998 C   0  0  0  0  0  0  0  0  0  0  0  0
   -5.5198   22.2086  -22.5577 C   0  0  0  0  0  0  0  0  0  0  0  0
   -6.0938   23.0987  -21.6124 N   0  0  0  0  0  0  0  0  0  0  0  0
   -7.0511   22.5727  -20.7208 C   0  0  0  0  0  0  0  0  0  0  0  0
   -8.4757   22.9294  -20.9660 C   0  0  0  0  0  0  0  0  0  0  0  0
   -8.5319   24.3720  -21.2325 N   0  0  0  0  0  0  0  0  0  0  0  0
   -7.6906   24.8594  -22.2824 C   0  0  0  0  0  0  0  0  0  0  0  0
   -6.2572   24.4289  -22.0551 C   0  0  0  0  0  0  0  0  0  0  0  0
   -9.3959   25.1598  -20.4474 C   0  0  0  0  0  0  0  0  0  0  0  0
  -10.1128   24.6420  -19.5256 O   0  0  0  0  0  0  0  0  0  0  0  0
   -9.5396   26.5963  -20.6184 C   0  0  0  0  0  0  0  0  0  0  0  0
  -10.7281   27.1892  -20.5960 C   0  0  0  0  0  0  0  0  0  0  0  0
 29 30  1  0  0  0
 30 28  1  0  0  0
 28 27  1  0  0  0
 27 26  1  0  0  0
 26 24  1  0  0  0
 24  1  1  0  0  0
  1  2  2  0  0  0
  2  3  1  0  0  0
  3  4  2  0  0  0
  4  5  1  0  0  0
  5  6  2  0  0  0
  6 12  1  0  0  0
 12 13  2  0  0  0
 13 14  1  0  0  0
 13 15  1  0  0  0
 15 20  1  0  0  0
 20 21  1  0  0  0
 15 16  2  0  0  0
 16 17  1  0  0  0
 17 22  1  0  0  0
 22 23  1  0  0  0
 17 18  2  0  0  0
 18 19  1  0  0  0
  6  7  1  0  0  0
  7  8  2  0  0  0
  7  9  1  0  0  0
  9 31  1  0  0  0
 31 32  1  0  0  0
 32 33  1  0  0  0
 33 34  1  0  0  0
 34 35  1  0  0  0
 35 36  1  0  0  0
 36 37  1  0  0  0
 37 38  1  0  0  0
 38 39  1  0  0  0
 37 40  1  0  0  0
 40 41  2  0  0  0
 40 42  1  0  0  0
 42 43  2  0  0  0
  9 10  1  0  0  0
 10 11  2  0  0  0
 11  1  1  0  0  0
 10  4  1  0  0  0
 18 12  1  0  0  0
 39 34  1  0  0  0
 24 25  1  0  0  0
M  END
> <minimizedAffinity>
-6.15559

> <CNNscore>
0.0484305285

> <CNNaffinity>
6.9214162827

> <CNN_VS>
0.3352078497

> <CNNaffinity_variance>
0.1539789736

$$$$
[H]C([H])=C([H])C(=O)N1C([H])([H])C([H])([H])N(C([H])([H])C([H])([H])C([H])([H])n2c(=O)c(-c3c(Cl)c(OC([H])([H])[H])c([H])c(OC([H])([H])[H])c3Cl)c([H])c3c([H])nc(N([H])C([H])([H])C([H])([H])OC([H])([H])C([H])([H])[H])nc32)C([H])([H])C1([H])[H]


 43 46  0  0  0  0  0  0  0  0999 V2000
    0.9110   21.6075  -24.6960 C   0  0  0  0  0  0  0  0  0  0  0  0
    2.0917   21.2895  -24.1554 N   0  0  0  0  0  0  0  0  0  0  0  0
    2.2086   20.9825  -22.8615 C   0  0  0  0  0  0  0  0  0  0  0  0
    1.1098   20.9814  -22.0271 C   0  0  0  0  0  0  0  0  0  0  0  0
    1.2227   20.6673  -20.6903 C   0  0  0  0  0  0  0  0  0  0  0  0
    0.0806   20.6947  -19.9452 C   0  0  0  0  0  0  0  0  0  0  0  0
   -1.1182   21.0289  -20.5470 C   0  0  0  0  0  0  0  0  0  0  0  0
   -2.1342   21.0284  -19.7706 O   0  0  0  0  0  0  0  0  0  0  0  0
   -1.2295   21.3345  -21.8456 N   0  0  0  0  0  0  0  0  0  0  0  0
   -0.0965   21.3125  -22.6077 C   0  0  0  0  0  0  0  0  0  0  0  0
   -0.1761   21.6154  -23.9119 N   0  0  0  0  0  0  0  0  0  0  0  0
    0.1476   20.3692  -18.5212 C   0  0  0  0  0  0  0  0  0  0  0  0
    0.4145   21.4023  -17.6334 C   0  0  0  0  0  0  0  0  0  0  0  0
    0.6582   23.0391  -18.2250 Cl  0  0  0  0  0  0  0  0  0  0  0  0
    0.4765   21.0834  -16.2973 C   0  0  0  0  0  0  0  0  0  0  0  0
    0.2845   19.7968  -15.8403 C   0  0  0  0  0  0  0  0  0  0  0  0
    0.0195   18.7698  -16.7195 C   0  0  0  0  0  0  0  0  0  0  0  0
   -0.0452   19.0775  -18.0620 C   0  0  0  0  0  0  0  0  0  0  0  0
   -0.3827   17.7927  -19.2312 Cl  0  0  0  0  0  0  0  0  0  0  0  0
    0.7425   22.1080  -15.3991 O   0  0  0  0  0  0  0  0  0  0  0  0
    1.2286   21.8662  -14.1071 C   0  0  0  0  0  0  0  0  0  0  0  0
   -0.1832   17.4583  -16.3309 O   0  0  0  0  0  0  0  0  0  0  0  0
   -0.6428   17.2266  -15.0072 C   0  0  0  0  0  0  0  0  0  0  0  0
    0.8492   21.9271  -26.0758 N   0  0  0  0  0  0  0  0  0  0  0  0
    1.4578   21.3854  -26.7304 H   0  0  0  0  0  0  0  0  0  0  0  0
   -0.0437   22.9769  -26.5131 C   0  0  0  0  0  0  0  0  0  0  0  0
   -0.1779   22.8744  -28.0176 C   0  0  0  0  0  0  0  0  0  0  0  0
   -1.4602   23.1335  -28.4444 O   0  0  0  0  0  0  0  0  0  0  0  0
   -3.7278   23.3334  -27.8491 C   0  0  0  0  0  0  0  0  0  0  0  0
   -2.4062   22.6427  -27.5764 C   0  0  0  0  0  0  0  0  0  0  0  0
   -2.5099   21.6807  -22.4334 C   0  0  0  0  0  0  0  0  0  0  0  0
   -2.6027   23.1985  -22.4725 C   0  0  0  0  0  0  0  0  0  0  0  0
   -3.2131   23.5989  -23.7920 C   0  0  0  0  0  0  0  0  0  0  0  0
   -4.3019   24.5030  -23.6803 N   0  0  0  0  0  0  0  0  0  0  0  0
   -4.4637   25.1787  -22.4534 C   0  0  0  0  0  0  0  0  0  0  0  0
   -5.5764   24.7292  -21.5721 C   0  0  0  0  0  0  0  0  0  0  0  0
   -6.7706   24.5718  -22.4113 N   0  0  0  0  0  0  0  0  0  0  0  0
   -6.6399   23.7182  -23.5523 C   0  0  0  0  0  0  0  0  0  0  0  0
   -5.4616   24.1458  -24.4011 C   0  0  0  0  0  0  0  0  0  0  0  0
   -7.9404   25.2623  -22.0389 C   0  0  0  0  0  0  0  0  0  0  0  0
   -7.9696   26.0083  -21.0024 O   0  0  0  0  0  0  0  0  0  0  0  0
   -9.1840   25.1837  -22.7877 C   0  0  0  0  0  0  0  0  0  0  0  0
  -10.2279   25.9513  -22.4949 C   0  0  0  0  0  0  0  0  0  0  0  0
 29 30  1  0  0  0
 30 28  1  0  0  0
 28 27  1  0  0  0
 27 26  1  0  0  0
 26 24  1  0  0  0
 24  1  1  0  0  0
  1  2  2  0  0  0
  2  3  1  0  0  0
  3  4  2  0  0  0
  4  5  1  0  0  0
  5  6  2  0  0  0
  6 12  1  0  0  0
 12 13  2  0  0  0
 13 14  1  0  0  0
 13 15  1  0  0  0
 15 20  1  0  0  0
 20 21  1  0  0  0
 15 16  2  0  0  0
 16 17  1  0  0  0
 17 22  1  0  0  0
 22 23  1  0  0  0
 17 18  2  0  0  0
 18 19  1  0  0  0
  6  7  1  0  0  0
  7  8  2  0  0  0
  7  9  1  0  0  0
  9 31  1  0  0  0
 31 32  1  0  0  0
 32 33  1  0  0  0
 33 34  1  0  0  0
 34 35  1  0  0  0
 35 36  1  0  0  0
 36 37  1  0  0  0
 37 38  1  0  0  0
 38 39  1  0  0  0
 37 40  1  0  0  0
 40 41  2  0  0  0
 40 42  1  0  0  0
 42 43  2  0  0  0
  9 10  1  0  0  0
 10 11  2  0  0  0
 11  1  1  0  0  0
 10  4  1  0  0  0
 18 12  1  0  0  0
 39 34  1  0  0  0
 24 25  1  0  0  0
M  END
> <minimizedAffinity>
-6.25851

> <CNNscore>
0.0454014950

> <CNNaffinity>
6.7962121964

> <CNN_VS>
0.3085581958

> <CNNaffinity_variance>
0.0870466828

$$$$
[H]C([H])=C([H])C(=O)N1C([H])([H])C([H])([H])N(C([H])([H])C([H])([H])C([H])([H])n2c(=O)c(-c3c(Cl)c(OC([H])([H])[H])c([H])c(OC([H])([H])[H])c3Cl)c([H])c3c([H])nc(N([H])C([H])([H])C([H])([H])OC([H])([H])C([H])([H])[H])nc32)C([H])([H])C1([H])[H]


 43 46  0  0  0  0  0  0  0  0999 V2000
   -7.0987   21.6356  -20.7359 C   0  0  0  0  0  0  0  0  0  0  0  0
   -7.8133   21.1869  -21.7729 N   0  0  0  0  0  0  0  0  0  0  0  0
   -7.4810   21.4825  -23.0315 C   0  0  0  0  0  0  0  0  0  0  0  0
   -6.3813   22.2668  -23.3129 C   0  0  0  0  0  0  0  0  0  0  0  0
   -6.0327   22.5776  -24.6093 C   0  0  0  0  0  0  0  0  0  0  0  0
   -4.9301   23.3603  -24.7875 C   0  0  0  0  0  0  0  0  0  0  0  0
   -4.2215   23.8011  -23.6853 C   0  0  0  0  0  0  0  0  0  0  0  0
   -3.2039   24.5289  -23.9496 O   0  0  0  0  0  0  0  0  0  0  0  0
   -4.5590   23.5001  -22.4253 N   0  0  0  0  0  0  0  0  0  0  0  0
   -5.6603   22.7173  -22.2271 C   0  0  0  0  0  0  0  0  0  0  0  0
   -6.0241   22.4000  -20.9758 N   0  0  0  0  0  0  0  0  0  0  0  0
   -4.5188   23.7184  -26.1443 C   0  0  0  0  0  0  0  0  0  0  0  0
   -3.4640   23.0136  -26.7076 C   0  0  0  0  0  0  0  0  0  0  0  0
   -2.6663   21.7366  -25.8014 Cl  0  0  0  0  0  0  0  0  0  0  0  0
   -3.0856   23.3607  -27.9833 C   0  0  0  0  0  0  0  0  0  0  0  0
   -3.7159   24.3640  -28.6883 C   0  0  0  0  0  0  0  0  0  0  0  0
   -4.7630   25.0649  -28.1312 C   0  0  0  0  0  0  0  0  0  0  0  0
   -5.1515   24.7258  -26.8524 C   0  0  0  0  0  0  0  0  0  0  0  0
   -6.4916   25.5971  -26.0931 Cl  0  0  0  0  0  0  0  0  0  0  0  0
   -2.0320   22.6630  -28.5580 O   0  0  0  0  0  0  0  0  0  0  0  0
   -0.6957   23.0524  -28.3941 C   0  0  0  0  0  0  0  0  0  0  0  0
   -5.4393   26.0814  -28.7803 O   0  0  0  0  0  0  0  0  0  0  0  0
   -5.5867   25.9802  -30.1893 C   0  0  0  0  0  0  0  0  0  0  0  0
   -7.5020   21.2908  -19.4212 N   0  0  0  0  0  0  0  0  0  0  0  0
   -6.7581   21.1775  -18.6960 H   0  0  0  0  0  0  0  0  0  0  0  0
   -8.9099   21.1135  -19.1435 C   0  0  0  0  0  0  0  0  0  0  0  0
   -9.1383   21.4366  -17.6821 C   0  0  0  0  0  0  0  0  0  0  0  0
   -9.9504   22.5345  -17.5129 O   0  0  0  0  0  0  0  0  0  0  0  0
  -11.5328   20.9712  -16.7457 C   0  0  0  0  0  0  0  0  0  0  0  0
  -11.2843   22.2104  -17.5828 C   0  0  0  0  0  0  0  0  0  0  0  0
   -3.7850   23.9872  -21.2989 C   0  0  0  0  0  0  0  0  0  0  0  0
   -3.1542   22.7817  -20.6187 C   0  0  0  0  0  0  0  0  0  0  0  0
   -2.3594   22.0216  -21.6504 C   0  0  0  0  0  0  0  0  0  0  0  0
   -0.9701   22.3134  -21.6473 N   0  0  0  0  0  0  0  0  0  0  0  0
   -0.3132   22.3659  -22.8938 C   0  0  0  0  0  0  0  0  0  0  0  0
    0.5776   21.2244  -23.2407 C   0  0  0  0  0  0  0  0  0  0  0  0
    1.4025   20.9320  -22.0621 N   0  0  0  0  0  0  0  0  0  0  0  0
    0.7019   20.6858  -20.8390 C   0  0  0  0  0  0  0  0  0  0  0  0
   -0.2509   21.8225  -20.5366 C   0  0  0  0  0  0  0  0  0  0  0  0
    2.8023   20.9159  -22.2178 C   0  0  0  0  0  0  0  0  0  0  0  0
    3.3473   21.1500  -23.3492 O   0  0  0  0  0  0  0  0  0  0  0  0
    3.7218   20.6370  -21.1269 C   0  0  0  0  0  0  0  0  0  0  0  0
    4.1250   21.5868  -20.2903 C   0  0  0  0  0  0  0  0  0  0  0  0
 29 30  1  0  0  0
 30 28  1  0  0  0
 28 27  1  0  0  0
 27 26  1  0  0  0
 26 24  1  0  0  0
 24  1  1  0  0  0
  1  2  2  0  0  0
  2  3  1  0  0  0
  3  4  2  0  0  0
  4  5  1  0  0  0
  5  6  2  0  0  0
  6 12  1  0  0  0
 12 13  2  0  0  0
 13 14  1  0  0  0
 13 15  1  0  0  0
 15 20  1  0  0  0
 20 21  1  0  0  0
 15 16  2  0  0  0
 16 17  1  0  0  0
 17 22  1  0  0  0
 22 23  1  0  0  0
 17 18  2  0  0  0
 18 19  1  0  0  0
  6  7  1  0  0  0
  7  8  2  0  0  0
  7  9  1  0  0  0
  9 31  1  0  0  0
 31 32  1  0  0  0
 32 33  1  0  0  0
 33 34  1  0  0  0
 34 35  1  0  0  0
 35 36  1  0  0  0
 36 37  1  0  0  0
 37 38  1  0  0  0
 38 39  1  0  0  0
 37 40  1  0  0  0
 40 41  2  0  0  0
 40 42  1  0  0  0
 42 43  2  0  0  0
  9 10  1  0  0  0
 10 11  2  0  0  0
 11  1  1  0  0  0
 10  4  1  0  0  0
 18 12  1  0  0  0
 39 34  1  0  0  0
 24 25  1  0  0  0
M  END
> <minimizedAffinity>
-6.89513

> <CNNscore>
0.0445933081

> <CNNaffinity>
6.8893613815

> <CNN_VS>
0.3072194159

> <CNNaffinity_variance>
0.1812607348

$$$$
[H]OC([H])([H])[C@@]1([H])N(C(=O)C([H])=C([H])[H])C([H])([H])[C@@]([H])(n2nc(C#Cc3c([H])c(OC([H])([H])[H])c([H])c(OC([H])([H])[H])c3[H])c3c(N([H])[H])nc([H])nc32)C1([H])[H]


 36 39  0  0  0  0  0  0  0  0999 V2000
   -1.5598   21.7241  -24.0933 C   0  0  0  0  0  0  0  0  0  0  0  0
   -2.8681   21.8949  -24.2768 N   0  0  0  0  0  0  0  0  0  0  0  0
   -3.1251   22.3184  -25.5020 N   0  0  0  0  0  0  0  0  0  0  0  0
   -1.9552   22.4344  -26.1572 C   0  0  0  0  0  0  0  0  0  0  0  0
   -1.5793   22.8064  -27.3884 N   0  0  0  0  0  0  0  0  0  0  0  0
   -0.3060   22.8394  -27.8171 C   0  0  0  0  0  0  0  0  0  0  0  0
    0.6600   22.4792  -26.9681 N   0  0  0  0  0  0  0  0  0  0  0  0
    0.3494   22.0953  -25.7173 C   0  0  0  0  0  0  0  0  0  0  0  0
    1.4242   21.7245  -24.8637 N   0  0  0  0  0  0  0  0  0  0  0  0
   -0.9590   22.0632  -25.2821 C   0  0  0  0  0  0  0  0  0  0  0  0
    1.7749   22.4534  -24.2001 H   0  0  0  0  0  0  0  0  0  0  0  0
    1.8377   20.7540  -24.9104 H   0  0  0  0  0  0  0  0  0  0  0  0
   -4.4000   22.6103  -26.0630 C   0  0  0  0  0  0  0  0  0  0  0  0
   -5.1260   23.7303  -25.3233 C   0  0  0  0  0  0  0  0  0  0  0  0
   -6.1606   24.0799  -26.4164 C   0  0  0  0  0  0  0  0  0  0  0  0
   -5.2634   24.3087  -27.5028 N   0  0  0  0  0  0  0  0  0  0  0  0
   -4.3358   23.1427  -27.4706 C   0  0  0  0  0  0  0  0  0  0  0  0
   -5.1427   25.3390  -28.4274 C   0  0  0  0  0  0  0  0  0  0  0  0
   -5.8768   26.3528  -28.4429 O   0  0  0  0  0  0  0  0  0  0  0  0
   -7.1237   25.1113  -26.0324 C   0  0  0  0  0  0  0  0  0  0  0  0
   -8.4159   24.7423  -26.3467 O   0  0  0  0  0  0  0  0  0  0  0  0
   -8.6217   23.7957  -26.1019 H   0  0  0  0  0  0  0  0  0  0  0  0
   -4.1199   25.2888  -29.4609 C   0  0  0  0  0  0  0  0  0  0  0  0
   -4.3560   25.7226  -30.6780 C   0  0  0  0  0  0  0  0  0  0  0  0
   -0.2727   20.9011  -21.9174 C   0  0  0  0  0  0  0  0  0  0  0  0
   -0.8702   21.2762  -22.9049 C   0  0  0  0  0  0  0  0  0  0  0  0
    1.7462   20.9064  -18.7733 C   0  0  0  0  0  0  0  0  0  0  0  0
    1.8410   19.5506  -18.5497 C   0  0  0  0  0  0  0  0  0  0  0  0
    1.2691   18.6329  -19.3891 C   0  0  0  0  0  0  0  0  0  0  0  0
    0.5811   19.1033  -20.4871 C   0  0  0  0  0  0  0  0  0  0  0  0
    0.4522   20.4507  -20.7632 C   0  0  0  0  0  0  0  0  0  0  0  0
    1.0558   21.3353  -19.8725 C   0  0  0  0  0  0  0  0  0  0  0  0
    2.5913   23.1256  -18.1428 C   0  0  0  0  0  0  0  0  0  0  0  0
    2.3567   21.7566  -17.8701 O   0  0  0  0  0  0  0  0  0  0  0  0
    1.3901   17.2759  -19.1247 O   0  0  0  0  0  0  0  0  0  0  0  0
    2.2686   16.4829  -19.8800 C   0  0  0  0  0  0  0  0  0  0  0  0
 33 34  1  0  0  0
 34 27  1  0  0  0
 27 28  2  0  0  0
 28 29  1  0  0  0
 29 35  1  0  0  0
 35 36  1  0  0  0
 29 30  2  0  0  0
 30 31  1  0  0  0
 31 32  2  0  0  0
 31 25  1  0  0  0
 25 26  3  0  0  0
 26  1  1  0  0  0
  1  2  2  0  0  0
  2  3  1  0  0  0
  3 13  1  0  0  0
 13 14  1  0  0  0
 14 15  1  0  0  0
 15 20  1  0  0  0
 20 21  1  0  0  0
 15 16  1  0  0  0
 16 17  1  0  0  0
 16 18  1  0  0  0
 18 19  2  0  0  0
 18 23  1  0  0  0
 23 24  2  0  0  0
  3  4  1  0  0  0
  4  5  2  0  0  0
  5  6  1  0  0  0
  6  7  2  0  0  0
  7  8  1  0  0  0
  8  9  1  0  0  0
  8 10  2  0  0  0
 32 27  1  0  0  0
 10  1  1  0  0  0
 17 13  1  0  0  0
 10  4  1  0  0  0
 21 22  1  0  0  0
  9 11  1  0  0  0
  9 12  1  0  0  0
M  END
> <minimizedAffinity>
-8.75860

> <CNNscore>
0.9368409514

> <CNNaffinity>
7.4955673218

> <CNN_VS>
7.0221543312

> <CNNaffinity_variance>
0.0819329396

$$$$
[H]OC([H])([H])[C@@]1([H])N(C(=O)C([H])=C([H])[H])C([H])([H])[C@@]([H])(n2nc(C#Cc3c([H])c(OC([H])([H])[H])c([H])c(OC([H])([H])[H])c3[H])c3c(N([H])[H])nc([H])nc32)C1([H])[H]


 36 39  0  0  0  0  0  0  0  0999 V2000
   -1.5665   21.6989  -24.1063 C   0  0  0  0  0  0  0  0  0  0  0  0
   -2.8750   21.8720  -24.2860 N   0  0  0  0  0  0  0  0  0  0  0  0
   -3.1330   22.3171  -25.5034 N   0  0  0  0  0  0  0  0  0  0  0  0
   -1.9635   22.4455  -26.1571 C   0  0  0  0  0  0  0  0  0  0  0  0
   -1.5886   22.8394  -27.3817 N   0  0  0  0  0  0  0  0  0  0  0  0
   -0.3156   22.8808  -27.8105 C   0  0  0  0  0  0  0  0  0  0  0  0
    0.6512   22.5063  -26.9685 N   0  0  0  0  0  0  0  0  0  0  0  0
    0.3415   22.1000  -25.7245 C   0  0  0  0  0  0  0  0  0  0  0  0
    1.4171   21.7149  -24.8782 N   0  0  0  0  0  0  0  0  0  0  0  0
   -0.9666   22.0594  -25.2893 C   0  0  0  0  0  0  0  0  0  0  0  0
    1.7677   22.4321  -24.2020 H   0  0  0  0  0  0  0  0  0  0  0  0
    1.8311   20.7456  -24.9425 H   0  0  0  0  0  0  0  0  0  0  0  0
   -4.4084   22.6181  -26.0584 C   0  0  0  0  0  0  0  0  0  0  0  0
   -5.1135   23.7580  -25.3290 C   0  0  0  0  0  0  0  0  0  0  0  0
   -6.1522   24.1059  -26.4186 C   0  0  0  0  0  0  0  0  0  0  0  0
   -5.2609   24.3075  -27.5152 N   0  0  0  0  0  0  0  0  0  0  0  0
   -4.3485   23.1298  -27.4739 C   0  0  0  0  0  0  0  0  0  0  0  0
   -5.1339   25.3231  -28.4552 C   0  0  0  0  0  0  0  0  0  0  0  0
   -5.8547   26.3462  -28.4792 O   0  0  0  0  0  0  0  0  0  0  0  0
   -7.0984   25.1554  -26.0417 C   0  0  0  0  0  0  0  0  0  0  0  0
   -8.4040   24.7646  -26.2593 O   0  0  0  0  0  0  0  0  0  0  0  0
   -8.5896   23.8335  -25.9478 H   0  0  0  0  0  0  0  0  0  0  0  0
   -4.1203   25.2447  -29.4959 C   0  0  0  0  0  0  0  0  0  0  0  0
   -4.3216   25.7614  -30.6865 C   0  0  0  0  0  0  0  0  0  0  0  0
   -0.2874   20.8562  -21.9333 C   0  0  0  0  0  0  0  0  0  0  0  0
   -0.8760   21.2304  -22.9264 C   0  0  0  0  0  0  0  0  0  0  0  0
    1.0761   18.7083  -19.1967 C   0  0  0  0  0  0  0  0  0  0  0  0
    1.8063   19.6460  -18.5004 C   0  0  0  0  0  0  0  0  0  0  0  0
    1.8701   20.9561  -18.8919 C   0  0  0  0  0  0  0  0  0  0  0  0
    1.1734   21.3265  -20.0223 C   0  0  0  0  0  0  0  0  0  0  0  0
    0.4244   20.4315  -20.7613 C   0  0  0  0  0  0  0  0  0  0  0  0
    0.3984   19.1130  -20.3128 C   0  0  0  0  0  0  0  0  0  0  0  0
    1.6834   16.3380  -19.4189 C   0  0  0  0  0  0  0  0  0  0  0  0
    1.0715   17.4090  -18.7246 O   0  0  0  0  0  0  0  0  0  0  0  0
    2.6185   21.8669  -18.1597 O   0  0  0  0  0  0  0  0  0  0  0  0
    2.5185   23.2419  -18.4255 C   0  0  0  0  0  0  0  0  0  0  0  0
 33 34  1  0  0  0
 34 27  1  0  0  0
 27 28  2  0  0  0
 28 29  1  0  0  0
 29 35  1  0  0  0
 35 36  1  0  0  0
 29 30  2  0  0  0
 30 31  1  0  0  0
 31 32  2  0  0  0
 31 25  1  0  0  0
 25 26  3  0  0  0
 26  1  1  0  0  0
  1  2  2  0  0  0
  2  3  1  0  0  0
  3 13  1  0  0  0
 13 14  1  0  0  0
 14 15  1  0  0  0
 15 20  1  0  0  0
 20 21  1  0  0  0
 15 16  1  0  0  0
 16 17  1  0  0  0
 16 18  1  0  0  0
 18 19  2  0  0  0
 18 23  1  0  0  0
 23 24  2  0  0  0
  3  4  1  0  0  0
  4  5  2  0  0  0
  5  6  1  0  0  0
  6  7  2  0  0  0
  7  8  1  0  0  0
  8  9  1  0  0  0
  8 10  2  0  0  0
 32 27  1  0  0  0
 10  1  1  0  0  0
 17 13  1  0  0  0
 10  4  1  0  0  0
 21 22  1  0  0  0
  9 11  1  0  0  0
  9 12  1  0  0  0
M  END
> <minimizedAffinity>
-8.78517

> <CNNscore>
0.9332190156

> <CNNaffinity>
7.4743905067

> <CNN_VS>
6.9752435684

> <CNNaffinity_variance>
0.0848772302

$$$$
[H]OC([H])([H])[C@@]1([H])N(C(=O)C([H])=C([H])[H])C([H])([H])[C@@]([H])(n2nc(C#Cc3c([H])c(OC([H])([H])[H])c([H])c(OC([H])([H])[H])c3[H])c3c(N([H])[H])nc([H])nc32)C1([H])[H]


 36 39  0  0  0  0  0  0  0  0999 V2000
   -1.1952   21.9550  -23.4282 C   0  0  0  0  0  0  0  0  0  0  0  0
   -2.4494   22.3325  -23.1849 N   0  0  0  0  0  0  0  0  0  0  0  0
   -3.0242   22.8048  -24.2771 N   0  0  0  0  0  0  0  0  0  0  0  0
   -2.1291   22.7415  -25.2803 C   0  0  0  0  0  0  0  0  0  0  0  0
   -2.1234   23.0628  -26.5811 N   0  0  0  0  0  0  0  0  0  0  0  0
   -1.0707   22.8988  -27.4002 C   0  0  0  0  0  0  0  0  0  0  0  0
    0.0525   22.3811  -26.8958 N   0  0  0  0  0  0  0  0  0  0  0  0
    0.1123   22.0374  -25.5970 C   0  0  0  0  0  0  0  0  0  0  0  0
    1.3367   21.4920  -25.1231 N   0  0  0  0  0  0  0  0  0  0  0  0
   -0.9710   22.2079  -24.7605 C   0  0  0  0  0  0  0  0  0  0  0  0
    1.9920   22.1489  -24.6397 H   0  0  0  0  0  0  0  0  0  0  0  0
    1.5586   20.4689  -25.2611 H   0  0  0  0  0  0  0  0  0  0  0  0
   -4.3518   23.3007  -24.4065 C   0  0  0  0  0  0  0  0  0  0  0  0
   -4.4081   24.8247  -24.4600 C   0  0  0  0  0  0  0  0  0  0  0  0
   -5.8283   24.9708  -25.0509 C   0  0  0  0  0  0  0  0  0  0  0  0
   -5.6703   24.1494  -26.2076 N   0  0  0  0  0  0  0  0  0  0  0  0
   -5.0231   22.9081  -25.6965 C   0  0  0  0  0  0  0  0  0  0  0  0
   -5.9688   24.3421  -27.5511 C   0  0  0  0  0  0  0  0  0  0  0  0
   -6.4651   25.3948  -28.0120 O   0  0  0  0  0  0  0  0  0  0  0  0
   -6.2880   26.3520  -25.1909 C   0  0  0  0  0  0  0  0  0  0  0  0
   -7.1190   26.7188  -24.1519 O   0  0  0  0  0  0  0  0  0  0  0  0
   -6.7790   26.4272  -23.2588 H   0  0  0  0  0  0  0  0  0  0  0  0
   -5.7100   23.2917  -28.5239 C   0  0  0  0  0  0  0  0  0  0  0  0
   -4.6896   23.3597  -29.3481 C   0  0  0  0  0  0  0  0  0  0  0  0
    0.5914   20.9261  -21.7495 C   0  0  0  0  0  0  0  0  0  0  0  0
   -0.2326   21.3907  -22.5099 C   0  0  0  0  0  0  0  0  0  0  0  0
    3.3003   18.7530  -20.3708 C   0  0  0  0  0  0  0  0  0  0  0  0
    3.4838   19.3520  -19.1441 C   0  0  0  0  0  0  0  0  0  0  0  0
    2.7546   20.4412  -18.7496 C   0  0  0  0  0  0  0  0  0  0  0  0
    1.8117   20.9376  -19.6241 C   0  0  0  0  0  0  0  0  0  0  0  0
    1.5827   20.3797  -20.8669 C   0  0  0  0  0  0  0  0  0  0  0  0
    2.3561   19.2735  -21.2113 C   0  0  0  0  0  0  0  0  0  0  0  0
    3.8146   16.8077  -21.7806 C   0  0  0  0  0  0  0  0  0  0  0  0
    4.0841   17.6573  -20.6810 O   0  0  0  0  0  0  0  0  0  0  0  0
    2.9733   21.0126  -17.5040 O   0  0  0  0  0  0  0  0  0  0  0  0
    2.1931   22.0986  -17.0762 C   0  0  0  0  0  0  0  0  0  0  0  0
 33 34  1  0  0  0
 34 27  1  0  0  0
 27 28  2  0  0  0
 28 29  1  0  0  0
 29 35  1  0  0  0
 35 36  1  0  0  0
 29 30  2  0  0  0
 30 31  1  0  0  0
 31 32  2  0  0  0
 31 25  1  0  0  0
 25 26  3  0  0  0
 26  1  1  0  0  0
  1  2  2  0  0  0
  2  3  1  0  0  0
  3 13  1  0  0  0
 13 14  1  0  0  0
 14 15  1  0  0  0
 15 20  1  0  0  0
 20 21  1  0  0  0
 15 16  1  0  0  0
 16 17  1  0  0  0
 16 18  1  0  0  0
 18 19  2  0  0  0
 18 23  1  0  0  0
 23 24  2  0  0  0
  3  4  1  0  0  0
  4  5  2  0  0  0
  5  6  1  0  0  0
  6  7  2  0  0  0
  7  8  1  0  0  0
  8  9  1  0  0  0
  8 10  2  0  0  0
 32 27  1  0  0  0
 10  1  1  0  0  0
 17 13  1  0  0  0
 10  4  1  0  0  0
 21 22  1  0  0  0
  9 11  1  0  0  0
  9 12  1  0  0  0
M  END
> <minimizedAffinity>
-8.01008

> <CNNscore>
0.8212838173

> <CNNaffinity>
7.3848600388

> <CNN_VS>
6.0650658607

> <CNNaffinity_variance>
0.2833951116

$$$$
[H]OC([H])([H])[C@@]1([H])N(C(=O)C([H])=C([H])[H])C([H])([H])[C@@]([H])(n2nc(C#Cc3c([H])c(OC([H])([H])[H])c([H])c(OC([H])([H])[H])c3[H])c3c(N([H])[H])nc([H])nc32)C1([H])[H]


 36 39  0  0  0  0  0  0  0  0999 V2000
   -1.3920   21.8587  -23.8330 C   0  0  0  0  0  0  0  0  0  0  0  0
   -2.6853   22.0636  -23.5877 N   0  0  0  0  0  0  0  0  0  0  0  0
   -3.3198   22.4554  -24.6787 N   0  0  0  0  0  0  0  0  0  0  0  0
   -2.4256   22.5144  -25.6830 C   0  0  0  0  0  0  0  0  0  0  0  0
   -2.4650   22.8351  -26.9833 N   0  0  0  0  0  0  0  0  0  0  0  0
   -1.4008   22.8152  -27.8038 C   0  0  0  0  0  0  0  0  0  0  0  0
   -0.2175   22.4529  -27.3013 N   0  0  0  0  0  0  0  0  0  0  0  0
   -0.1103   22.1188  -26.0031 C   0  0  0  0  0  0  0  0  0  0  0  0
    1.1770   21.7427  -25.5313 N   0  0  0  0  0  0  0  0  0  0  0  0
   -1.2057   22.1410  -25.1652 C   0  0  0  0  0  0  0  0  0  0  0  0
    1.7385   22.4814  -25.0477 H   0  0  0  0  0  0  0  0  0  0  0  0
    1.5344   20.7590  -25.6708 H   0  0  0  0  0  0  0  0  0  0  0  0
   -4.7023   22.7683  -24.8059 C   0  0  0  0  0  0  0  0  0  0  0  0
   -5.3851   22.9765  -23.4572 C   0  0  0  0  0  0  0  0  0  0  0  0
   -6.6417   23.7214  -23.9606 C   0  0  0  0  0  0  0  0  0  0  0  0
   -5.9996   24.7697  -24.6862 N   0  0  0  0  0  0  0  0  0  0  0  0
   -4.9665   24.0756  -25.5060 C   0  0  0  0  0  0  0  0  0  0  0  0
   -6.1675   26.1491  -24.7007 C   0  0  0  0  0  0  0  0  0  0  0  0
   -6.9927   26.7595  -23.9841 O   0  0  0  0  0  0  0  0  0  0  0  0
   -7.6151   24.0426  -22.9176 C   0  0  0  0  0  0  0  0  0  0  0  0
   -7.0044   24.5672  -21.7966 O   0  0  0  0  0  0  0  0  0  0  0  0
   -6.3099   25.2514  -22.0149 H   0  0  0  0  0  0  0  0  0  0  0  0
   -5.3635   26.9825  -25.5814 C   0  0  0  0  0  0  0  0  0  0  0  0
   -4.2014   27.4597  -25.1981 C   0  0  0  0  0  0  0  0  0  0  0  0
    0.5178   21.0810  -22.1548 C   0  0  0  0  0  0  0  0  0  0  0  0
   -0.3611   21.4280  -22.9164 C   0  0  0  0  0  0  0  0  0  0  0  0
    2.8275   20.9545  -19.2204 C   0  0  0  0  0  0  0  0  0  0  0  0
    3.6145   19.8840  -19.5838 C   0  0  0  0  0  0  0  0  0  0  0  0
    3.4186   19.2007  -20.7535 C   0  0  0  0  0  0  0  0  0  0  0  0
    2.3952   19.6146  -21.5791 C   0  0  0  0  0  0  0  0  0  0  0  0
    1.5734   20.6805  -21.2684 C   0  0  0  0  0  0  0  0  0  0  0  0
    1.8222   21.3358  -20.0647 C   0  0  0  0  0  0  0  0  0  0  0  0
    4.1342   22.5387  -17.8716 C   0  0  0  0  0  0  0  0  0  0  0  0
    3.1013   21.5823  -18.0196 O   0  0  0  0  0  0  0  0  0  0  0  0
    4.2362   18.1276  -21.0793 O   0  0  0  0  0  0  0  0  0  0  0  0
    3.9206   17.3027  -22.1707 C   0  0  0  0  0  0  0  0  0  0  0  0
 33 34  1  0  0  0
 34 27  1  0  0  0
 27 28  2  0  0  0
 28 29  1  0  0  0
 29 35  1  0  0  0
 35 36  1  0  0  0
 29 30  2  0  0  0
 30 31  1  0  0  0
 31 32  2  0  0  0
 31 25  1  0  0  0
 25 26  3  0  0  0
 26  1  1  0  0  0
  1  2  2  0  0  0
  2  3  1  0  0  0
  3 13  1  0  0  0
 13 14  1  0  0  0
 14 15  1  0  0  0
 15 20  1  0  0  0
 20 21  1  0  0  0
 15 16  1  0  0  0
 16 17  1  0  0  0
 16 18  1  0  0  0
 18 19  2  0  0  0
 18 23  1  0  0  0
 23 24  2  0  0  0
  3  4  1  0  0  0
  4  5  2  0  0  0
  5  6  1  0  0  0
  6  7  2  0  0  0
  7  8  1  0  0  0
  8  9  1  0  0  0
  8 10  2  0  0  0
 32 27  1  0  0  0
 10  1  1  0  0  0
 17 13  1  0  0  0
 10  4  1  0  0  0
 21 22  1  0  0  0
  9 11  1  0  0  0
  9 12  1  0  0  0
M  END
> <minimizedAffinity>
-7.87024

> <CNNscore>
0.7709749341

> <CNNaffinity>
7.2118682861

> <CNN_VS>
5.5601696968

> <CNNaffinity_variance>
0.2042897642

$$$$
[H]OC([H])([H])[C@@]1([H])N(C(=O)C([H])=C([H])[H])C([H])([H])[C@@]([H])(n2nc(C#Cc3c([H])c(OC([H])([H])[H])c([H])c(OC([H])([H])[H])c3[H])c3c(N([H])[H])nc([H])nc32)C1([H])[H]


 36 39  0  0  0  0  0  0  0  0999 V2000
   -1.3349   21.8531  -24.0925 C   0  0  0  0  0  0  0  0  0  0  0  0
   -2.5930   21.9409  -23.6634 N   0  0  0  0  0  0  0  0  0  0  0  0
   -3.4009   22.3271  -24.6354 N   0  0  0  0  0  0  0  0  0  0  0  0
   -2.6624   22.5027  -25.7468 C   0  0  0  0  0  0  0  0  0  0  0  0
   -2.9065   22.8757  -27.0104 N   0  0  0  0  0  0  0  0  0  0  0  0
   -1.9685   22.9785  -27.9674 C   0  0  0  0  0  0  0  0  0  0  0  0
   -0.7030   22.6923  -27.6504 N   0  0  0  0  0  0  0  0  0  0  0  0
   -0.3913   22.3116  -26.3989 C   0  0  0  0  0  0  0  0  0  0  0  0
    0.9738   22.0214  -26.1270 N   0  0  0  0  0  0  0  0  0  0  0  0
   -1.3577   22.2076  -25.4203 C   0  0  0  0  0  0  0  0  0  0  0  0
    1.5403   22.7815  -25.6845 H   0  0  0  0  0  0  0  0  0  0  0  0
    1.3807   21.0771  -26.3673 H   0  0  0  0  0  0  0  0  0  0  0  0
   -4.8071   22.5315  -24.5568 C   0  0  0  0  0  0  0  0  0  0  0  0
   -5.2869   22.7799  -23.1297 C   0  0  0  0  0  0  0  0  0  0  0  0
   -6.6625   23.3982  -23.4655 C   0  0  0  0  0  0  0  0  0  0  0  0
   -6.2277   24.4389  -24.3405 N   0  0  0  0  0  0  0  0  0  0  0  0
   -5.2817   23.7671  -25.2758 C   0  0  0  0  0  0  0  0  0  0  0  0
   -6.5069   25.7987  -24.4031 C   0  0  0  0  0  0  0  0  0  0  0  0
   -7.2575   26.3952  -23.5982 O   0  0  0  0  0  0  0  0  0  0  0  0
   -7.4849   23.7179  -22.2994 C   0  0  0  0  0  0  0  0  0  0  0  0
   -6.7505   24.3520  -21.3180 O   0  0  0  0  0  0  0  0  0  0  0  0
   -6.1524   25.0665  -21.6786 H   0  0  0  0  0  0  0  0  0  0  0  0
   -5.9194   26.6268  -25.4452 C   0  0  0  0  0  0  0  0  0  0  0  0
   -4.7907   27.2702  -25.2520 C   0  0  0  0  0  0  0  0  0  0  0  0
    0.8436   21.1592  -22.7356 C   0  0  0  0  0  0  0  0  0  0  0  0
   -0.1570   21.4682  -23.3490 C   0  0  0  0  0  0  0  0  0  0  0  0
    4.1856   19.6930  -21.9340 C   0  0  0  0  0  0  0  0  0  0  0  0
    4.3332   20.1335  -20.6372 C   0  0  0  0  0  0  0  0  0  0  0  0
    3.3802   20.8929  -20.0137 C   0  0  0  0  0  0  0  0  0  0  0  0
    2.2444   21.2152  -20.7254 C   0  0  0  0  0  0  0  0  0  0  0  0
    2.0403   20.8026  -22.0278 C   0  0  0  0  0  0  0  0  0  0  0  0
    3.0458   20.0327  -22.6080 C   0  0  0  0  0  0  0  0  0  0  0  0
    5.6911   17.7525  -21.8668 C   0  0  0  0  0  0  0  0  0  0  0  0
    5.2019   18.9310  -22.4795 O   0  0  0  0  0  0  0  0  0  0  0  0
    3.5711   21.3148  -18.7055 O   0  0  0  0  0  0  0  0  0  0  0  0
    3.6941   22.6825  -18.4133 C   0  0  0  0  0  0  0  0  0  0  0  0
 33 34  1  0  0  0
 34 27  1  0  0  0
 27 28  2  0  0  0
 28 29  1  0  0  0
 29 35  1  0  0  0
 35 36  1  0  0  0
 29 30  2  0  0  0
 30 31  1  0  0  0
 31 32  2  0  0  0
 31 25  1  0  0  0
 25 26  3  0  0  0
 26  1  1  0  0  0
  1  2  2  0  0  0
  2  3  1  0  0  0
  3 13  1  0  0  0
 13 14  1  0  0  0
 14 15  1  0  0  0
 15 20  1  0  0  0
 20 21  1  0  0  0
 15 16  1  0  0  0
 16 17  1  0  0  0
 16 18  1  0  0  0
 18 19  2  0  0  0
 18 23  1  0  0  0
 23 24  2  0  0  0
  3  4  1  0  0  0
  4  5  2  0  0  0
  5  6  1  0  0  0
  6  7  2  0  0  0
  7  8  1  0  0  0
  8  9  1  0  0  0
  8 10  2  0  0  0
 32 27  1  0  0  0
 10  1  1  0  0  0
 17 13  1  0  0  0
 10  4  1  0  0  0
 21 22  1  0  0  0
  9 11  1  0  0  0
  9 12  1  0  0  0
M  END
> <minimizedAffinity>
-8.05724

> <CNNscore>
0.7439826727

> <CNNaffinity>
7.1756072044

> <CNN_VS>
5.3385272026

> <CNNaffinity_variance>
0.2033072710

$$$$
[H]OC([H])([H])[C@@]1([H])N(C(=O)C([H])=C([H])[H])C([H])([H])[C@@]([H])(n2nc(C#Cc3c([H])c(OC([H])([H])[H])c([H])c(OC([H])([H])[H])c3[H])c3c(N([H])[H])nc([H])nc32)C1([H])[H]


 36 39  0  0  0  0  0  0  0  0999 V2000
   -1.1387   21.6487  -22.8983 C   0  0  0  0  0  0  0  0  0  0  0  0
   -1.5009   21.3105  -21.6618 N   0  0  0  0  0  0  0  0  0  0  0  0
   -0.4647   20.8799  -20.9637 N   0  0  0  0  0  0  0  0  0  0  0  0
    0.6223   20.9315  -21.7558 C   0  0  0  0  0  0  0  0  0  0  0  0
    1.9220   20.6356  -21.6196 N   0  0  0  0  0  0  0  0  0  0  0  0
    2.8401   20.7788  -22.5906 C   0  0  0  0  0  0  0  0  0  0  0  0
    2.4431   21.2470  -23.7767 N   0  0  0  0  0  0  0  0  0  0  0  0
    1.1516   21.5630  -23.9786 C   0  0  0  0  0  0  0  0  0  0  0  0
    0.7947   22.0560  -25.2634 N   0  0  0  0  0  0  0  0  0  0  0  0
    0.2133   21.4142  -22.9788 C   0  0  0  0  0  0  0  0  0  0  0  0
    0.3901   21.3673  -25.9392 H   0  0  0  0  0  0  0  0  0  0  0  0
    0.9380   23.0733  -25.5078 H   0  0  0  0  0  0  0  0  0  0  0  0
   -0.4616   20.4332  -19.6126 C   0  0  0  0  0  0  0  0  0  0  0  0
    0.2142   21.4222  -18.6672 C   0  0  0  0  0  0  0  0  0  0  0  0
   -0.3617   20.8835  -17.3385 C   0  0  0  0  0  0  0  0  0  0  0  0
   -1.7504   20.9326  -17.6651 N   0  0  0  0  0  0  0  0  0  0  0  0
   -1.8376   20.3037  -19.0134 C   0  0  0  0  0  0  0  0  0  0  0  0
   -2.8596   21.4428  -17.0014 C   0  0  0  0  0  0  0  0  0  0  0  0
   -2.8048   22.0206  -15.8923 O   0  0  0  0  0  0  0  0  0  0  0  0
    0.1337   21.5639  -16.1425 C   0  0  0  0  0  0  0  0  0  0  0  0
    1.2778   22.2888  -16.4073 O   0  0  0  0  0  0  0  0  0  0  0  0
    1.2186   22.8155  -17.2543 H   0  0  0  0  0  0  0  0  0  0  0  0
   -4.1878   21.3264  -17.5837 C   0  0  0  0  0  0  0  0  0  0  0  0
   -5.2670   21.3540  -16.8355 C   0  0  0  0  0  0  0  0  0  0  0  0
   -2.6751   22.5835  -24.8564 C   0  0  0  0  0  0  0  0  0  0  0  0
   -1.9644   22.1611  -23.9679 C   0  0  0  0  0  0  0  0  0  0  0  0
   -3.8519   23.9743  -28.1187 C   0  0  0  0  0  0  0  0  0  0  0  0
   -5.2105   23.9933  -27.8924 C   0  0  0  0  0  0  0  0  0  0  0  0
   -5.7576   23.5680  -26.7119 C   0  0  0  0  0  0  0  0  0  0  0  0
   -4.9027   23.1102  -25.7322 C   0  0  0  0  0  0  0  0  0  0  0  0
   -3.5323   23.0674  -25.9011 C   0  0  0  0  0  0  0  0  0  0  0  0
   -3.0356   23.5134  -27.1236 C   0  0  0  0  0  0  0  0  0  0  0  0
   -3.8456   25.6248  -29.9386 C   0  0  0  0  0  0  0  0  0  0  0  0
   -3.3922   24.4238  -29.3425 O   0  0  0  0  0  0  0  0  0  0  0  0
   -7.1326   23.6050  -26.5275 O   0  0  0  0  0  0  0  0  0  0  0  0
   -7.7309   24.6965  -25.8781 C   0  0  0  0  0  0  0  0  0  0  0  0
 33 34  1  0  0  0
 34 27  1  0  0  0
 27 28  2  0  0  0
 28 29  1  0  0  0
 29 35  1  0  0  0
 35 36  1  0  0  0
 29 30  2  0  0  0
 30 31  1  0  0  0
 31 32  2  0  0  0
 31 25  1  0  0  0
 25 26  3  0  0  0
 26  1  1  0  0  0
  1  2  2  0  0  0
  2  3  1  0  0  0
  3 13  1  0  0  0
 13 14  1  0  0  0
 14 15  1  0  0  0
 15 20  1  0  0  0
 20 21  1  0  0  0
 15 16  1  0  0  0
 16 17  1  0  0  0
 16 18  1  0  0  0
 18 19  2  0  0  0
 18 23  1  0  0  0
 23 24  2  0  0  0
  3  4  1  0  0  0
  4  5  2  0  0  0
  5  6  1  0  0  0
  6  7  2  0  0  0
  7  8  1  0  0  0
  8  9  1  0  0  0
  8 10  2  0  0  0
 32 27  1  0  0  0
 10  1  1  0  0  0
 17 13  1  0  0  0
 10  4  1  0  0  0
 21 22  1  0  0  0
  9 11  1  0  0  0
  9 12  1  0  0  0
M  END
> <minimizedAffinity>
-7.18624

> <CNNscore>
0.2985864580

> <CNNaffinity>
6.6141366959

> <CNN_VS>
1.9748916626

> <CNNaffinity_variance>
0.5134413242

$$$$
[H]OC([H])([H])[C@@]1([H])N(C(=O)C([H])=C([H])[H])C([H])([H])[C@@]([H])(n2nc(C#Cc3c([H])c(OC([H])([H])[H])c([H])c(OC([H])([H])[H])c3[H])c3c(N([H])[H])nc([H])nc32)C1([H])[H]


 36 39  0  0  0  0  0  0  0  0999 V2000
   -0.8743   21.4252  -22.6072 C   0  0  0  0  0  0  0  0  0  0  0  0
   -1.1689   21.0746  -21.3562 N   0  0  0  0  0  0  0  0  0  0  0  0
   -0.0817   20.7224  -20.6925 N   0  0  0  0  0  0  0  0  0  0  0  0
    0.9708   20.8409  -21.5231 C   0  0  0  0  0  0  0  0  0  0  0  0
    2.2917   20.6359  -21.4312 N   0  0  0  0  0  0  0  0  0  0  0  0
    3.1633   20.8326  -22.4351 C   0  0  0  0  0  0  0  0  0  0  0  0
    2.6937   21.2615  -23.6096 N   0  0  0  0  0  0  0  0  0  0  0  0
    1.3773   21.4865  -23.7675 C   0  0  0  0  0  0  0  0  0  0  0  0
    0.9426   21.9420  -25.0423 N   0  0  0  0  0  0  0  0  0  0  0  0
    0.4870   21.2831  -22.7340 C   0  0  0  0  0  0  0  0  0  0  0  0
    0.5629   21.2209  -25.6985 H   0  0  0  0  0  0  0  0  0  0  0  0
    1.0070   22.9643  -25.2985 H   0  0  0  0  0  0  0  0  0  0  0  0
   -0.0007   20.2895  -19.3393 C   0  0  0  0  0  0  0  0  0  0  0  0
    0.5656   21.3606  -18.4116 C   0  0  0  0  0  0  0  0  0  0  0  0
    0.0829   20.7656  -17.0698 C   0  0  0  0  0  0  0  0  0  0  0  0
   -1.3069   20.6425  -17.3715 N   0  0  0  0  0  0  0  0  0  0  0  0
   -1.3400   19.9976  -18.7146 C   0  0  0  0  0  0  0  0  0  0  0  0
   -2.4584   21.0185  -16.6905 C   0  0  0  0  0  0  0  0  0  0  0  0
   -2.4554   21.6070  -15.5856 O   0  0  0  0  0  0  0  0  0  0  0  0
    0.5122   21.5103  -15.8866 C   0  0  0  0  0  0  0  0  0  0  0  0
    0.3692   20.7622  -14.7358 O   0  0  0  0  0  0  0  0  0  0  0  0
    0.6913   19.8221  -14.8390 H   0  0  0  0  0  0  0  0  0  0  0  0
   -3.7723   20.7365  -17.2479 C   0  0  0  0  0  0  0  0  0  0  0  0
   -4.8278   20.6047  -16.4775 C   0  0  0  0  0  0  0  0  0  0  0  0
   -2.5148   22.2631  -24.5243 C   0  0  0  0  0  0  0  0  0  0  0  0
   -1.7702   21.8700  -23.6502 C   0  0  0  0  0  0  0  0  0  0  0  0
   -5.6036   23.3348  -26.3332 C   0  0  0  0  0  0  0  0  0  0  0  0
   -5.0565   23.6924  -27.5457 C   0  0  0  0  0  0  0  0  0  0  0  0
   -3.7141   23.5964  -27.7951 C   0  0  0  0  0  0  0  0  0  0  0  0
   -2.9023   23.1240  -26.7859 C   0  0  0  0  0  0  0  0  0  0  0  0
   -3.3929   22.7503  -25.5499 C   0  0  0  0  0  0  0  0  0  0  0  0
   -4.7671   22.8708  -25.3565 C   0  0  0  0  0  0  0  0  0  0  0  0
   -7.5855   24.6847  -25.7981 C   0  0  0  0  0  0  0  0  0  0  0  0
   -6.9705   23.4666  -26.1745 O   0  0  0  0  0  0  0  0  0  0  0  0
   -3.2065   23.9681  -29.0321 O   0  0  0  0  0  0  0  0  0  0  0  0
   -3.6087   25.1733  -29.6295 C   0  0  0  0  0  0  0  0  0  0  0  0
 33 34  1  0  0  0
 34 27  1  0  0  0
 27 28  2  0  0  0
 28 29  1  0  0  0
 29 35  1  0  0  0
 35 36  1  0  0  0
 29 30  2  0  0  0
 30 31  1  0  0  0
 31 32  2  0  0  0
 31 25  1  0  0  0
 25 26  3  0  0  0
 26  1  1  0  0  0
  1  2  2  0  0  0
  2  3  1  0  0  0
  3 13  1  0  0  0
 13 14  1  0  0  0
 14 15  1  0  0  0
 15 20  1  0  0  0
 20 21  1  0  0  0
 15 16  1  0  0  0
 16 17  1  0  0  0
 16 18  1  0  0  0
 18 19  2  0  0  0
 18 23  1  0  0  0
 23 24  2  0  0  0
  3  4  1  0  0  0
  4  5  2  0  0  0
  5  6  1  0  0  0
  6  7  2  0  0  0
  7  8  1  0  0  0
  8  9  1  0  0  0
  8 10  2  0  0  0
 32 27  1  0  0  0
 10  1  1  0  0  0
 17 13  1  0  0  0
 10  4  1  0  0  0
 21 22  1  0  0  0
  9 11  1  0  0  0
  9 12  1  0  0  0
M  END
> <minimizedAffinity>
-6.86894

> <CNNscore>
0.2919382751

> <CNNaffinity>
6.3684701920

> <CNN_VS>
1.8592002392

> <CNNaffinity_variance>
0.2431687564

$$$$
[H]OC([H])([H])[C@@]1([H])N(C(=O)C([H])=C([H])[H])C([H])([H])[C@@]([H])(n2nc(C#Cc3c([H])c(OC([H])([H])[H])c([H])c(OC([H])([H])[H])c3[H])c3c(N([H])[H])nc([H])nc32)C1([H])[H]


 36 39  0  0  0  0  0  0  0  0999 V2000
   -1.1569   21.6817  -22.9001 C   0  0  0  0  0  0  0  0  0  0  0  0
   -1.5381   21.3109  -21.6787 N   0  0  0  0  0  0  0  0  0  0  0  0
   -0.5076   20.8905  -20.9661 N   0  0  0  0  0  0  0  0  0  0  0  0
    0.5949   20.9826  -21.7326 C   0  0  0  0  0  0  0  0  0  0  0  0
    1.8979   20.7139  -21.5732 N   0  0  0  0  0  0  0  0  0  0  0  0
    2.8334   20.8972  -22.5205 C   0  0  0  0  0  0  0  0  0  0  0  0
    2.4516   21.3796  -23.7060 N   0  0  0  0  0  0  0  0  0  0  0  0
    1.1578   21.6699  -23.9305 C   0  0  0  0  0  0  0  0  0  0  0  0
    0.8176   22.1798  -25.2133 N   0  0  0  0  0  0  0  0  0  0  0  0
    0.2016   21.4798  -22.9549 C   0  0  0  0  0  0  0  0  0  0  0  0
    0.4441   21.4955  -25.9110 H   0  0  0  0  0  0  0  0  0  0  0  0
    0.9425   23.2047  -25.4347 H   0  0  0  0  0  0  0  0  0  0  0  0
   -0.5237   20.4174  -19.6241 C   0  0  0  0  0  0  0  0  0  0  0  0
   -1.8921   20.5639  -18.9647 C   0  0  0  0  0  0  0  0  0  0  0  0
   -1.6774   19.5792  -17.7935 C   0  0  0  0  0  0  0  0  0  0  0  0
   -1.2854   18.4291  -18.5426 N   0  0  0  0  0  0  0  0  0  0  0  0
   -0.2624   18.9392  -19.4988 C   0  0  0  0  0  0  0  0  0  0  0  0
   -1.6959   17.1017  -18.5196 C   0  0  0  0  0  0  0  0  0  0  0  0
   -2.5889   16.6600  -17.7617 O   0  0  0  0  0  0  0  0  0  0  0  0
   -2.7979   19.4964  -16.8575 C   0  0  0  0  0  0  0  0  0  0  0  0
   -4.0066   19.4103  -17.5179 O   0  0  0  0  0  0  0  0  0  0  0  0
   -3.9881   18.7684  -18.2833 H   0  0  0  0  0  0  0  0  0  0  0  0
   -1.0860   16.1237  -19.4076 C   0  0  0  0  0  0  0  0  0  0  0  0
   -1.2647   14.8346  -19.2305 C   0  0  0  0  0  0  0  0  0  0  0  0
   -2.6717   22.6209  -24.8729 C   0  0  0  0  0  0  0  0  0  0  0  0
   -1.9708   22.1960  -23.9778 C   0  0  0  0  0  0  0  0  0  0  0  0
   -3.8154   24.0065  -28.1491 C   0  0  0  0  0  0  0  0  0  0  0  0
   -5.1749   24.0415  -27.9304 C   0  0  0  0  0  0  0  0  0  0  0  0
   -5.7331   23.6286  -26.7508 C   0  0  0  0  0  0  0  0  0  0  0  0
   -4.8886   23.1669  -25.7639 C   0  0  0  0  0  0  0  0  0  0  0  0
   -3.5179   23.1084  -25.9249 C   0  0  0  0  0  0  0  0  0  0  0  0
   -3.0096   23.5422  -27.1471 C   0  0  0  0  0  0  0  0  0  0  0  0
   -3.7640   25.6584  -29.9671 C   0  0  0  0  0  0  0  0  0  0  0  0
   -3.3441   24.4443  -29.3727 O   0  0  0  0  0  0  0  0  0  0  0  0
   -7.1086   23.6815  -26.5743 O   0  0  0  0  0  0  0  0  0  0  0  0
   -7.6749   24.6249  -25.7023 C   0  0  0  0  0  0  0  0  0  0  0  0
 33 34  1  0  0  0
 34 27  1  0  0  0
 27 28  2  0  0  0
 28 29  1  0  0  0
 29 35  1  0  0  0
 35 36  1  0  0  0
 29 30  2  0  0  0
 30 31  1  0  0  0
 31 32  2  0  0  0
 31 25  1  0  0  0
 25 26  3  0  0  0
 26  1  1  0  0  0
  1  2  2  0  0  0
  2  3  1  0  0  0
  3 13  1  0  0  0
 13 14  1  0  0  0
 14 15  1  0  0  0
 15 20  1  0  0  0
 20 21  1  0  0  0
 15 16  1  0  0  0
 16 17  1  0  0  0
 16 18  1  0  0  0
 18 19  2  0  0  0
 18 23  1  0  0  0
 23 24  2  0  0  0
  3  4  1  0  0  0
  4  5  2  0  0  0
  5  6  1  0  0  0
  6  7  2  0  0  0
  7  8  1  0  0  0
  8  9  1  0  0  0
  8 10  2  0  0  0
 32 27  1  0  0  0
 10  1  1  0  0  0
 17 13  1  0  0  0
 10  4  1  0  0  0
 21 22  1  0  0  0
  9 11  1  0  0  0
  9 12  1  0  0  0
M  END
> <minimizedAffinity>
-7.18033

> <CNNscore>
0.2902352512

> <CNNaffinity>
6.4389314651

> <CNN_VS>
1.8688049316

> <CNNaffinity_variance>
0.2421498001

$$$$
[H]OC([H])([H])[C@@]1([H])N(C(=O)C([H])=C([H])[H])C([H])([H])[C@@]([H])(n2nc(C#Cc3c([H])c(OC([H])([H])[H])c([H])c(OC([H])([H])[H])c3[H])c3c(N([H])[H])nc([H])nc32)C1([H])[H]


 36 39  0  0  0  0  0  0  0  0999 V2000
   -1.2835   21.7669  -22.9828 C   0  0  0  0  0  0  0  0  0  0  0  0
   -1.6603   21.3963  -21.7600 N   0  0  0  0  0  0  0  0  0  0  0  0
   -0.6297   20.9610  -21.0564 N   0  0  0  0  0  0  0  0  0  0  0  0
    0.4683   21.0427  -21.8306 C   0  0  0  0  0  0  0  0  0  0  0  0
    1.7690   20.7579  -21.6815 N   0  0  0  0  0  0  0  0  0  0  0  0
    2.6998   20.9334  -22.6349 C   0  0  0  0  0  0  0  0  0  0  0  0
    2.3152   21.4246  -23.8159 N   0  0  0  0  0  0  0  0  0  0  0  0
    1.0235   21.7311  -24.0300 C   0  0  0  0  0  0  0  0  0  0  0  0
    0.6802   22.2498  -25.3085 N   0  0  0  0  0  0  0  0  0  0  0  0
    0.0721   21.5490  -23.0482 C   0  0  0  0  0  0  0  0  0  0  0  0
    0.2935   21.5725  -26.0059 H   0  0  0  0  0  0  0  0  0  0  0  0
    0.8157   23.2739  -25.5272 H   0  0  0  0  0  0  0  0  0  0  0  0
   -0.6418   20.4833  -19.7160 C   0  0  0  0  0  0  0  0  0  0  0  0
    0.0947   19.1563  -19.5574 C   0  0  0  0  0  0  0  0  0  0  0  0
    0.2864   19.1938  -18.0248 C   0  0  0  0  0  0  0  0  0  0  0  0
    0.9258   20.4653  -17.9145 N   0  0  0  0  0  0  0  0  0  0  0  0
    0.0896   21.3754  -18.7474 C   0  0  0  0  0  0  0  0  0  0  0  0
    2.0723   20.8923  -17.2555 C   0  0  0  0  0  0  0  0  0  0  0  0
    2.8187   20.1370  -16.5924 O   0  0  0  0  0  0  0  0  0  0  0  0
    0.9231   18.0029  -17.4636 C   0  0  0  0  0  0  0  0  0  0  0  0
    0.7406   17.9247  -16.0979 O   0  0  0  0  0  0  0  0  0  0  0  0
   -0.1958   18.1308  -15.8170 H   0  0  0  0  0  0  0  0  0  0  0  0
    2.4768   22.2889  -17.3052 C   0  0  0  0  0  0  0  0  0  0  0  0
    3.5597   22.6645  -17.9466 C   0  0  0  0  0  0  0  0  0  0  0  0
   -2.7975   22.7223  -24.9484 C   0  0  0  0  0  0  0  0  0  0  0  0
   -2.0989   22.2948  -24.0528 C   0  0  0  0  0  0  0  0  0  0  0  0
   -3.9104   24.0942  -28.2409 C   0  0  0  0  0  0  0  0  0  0  0  0
   -5.2716   24.1331  -28.0340 C   0  0  0  0  0  0  0  0  0  0  0  0
   -5.8407   23.7273  -26.8571 C   0  0  0  0  0  0  0  0  0  0  0  0
   -5.0056   23.2687  -25.8608 C   0  0  0  0  0  0  0  0  0  0  0  0
   -3.6337   23.2064  -26.0099 C   0  0  0  0  0  0  0  0  0  0  0  0
   -3.1142   23.6331  -27.2299 C   0  0  0  0  0  0  0  0  0  0  0  0
   -3.9394   25.6623  -30.1322 C   0  0  0  0  0  0  0  0  0  0  0  0
   -3.4278   24.5249  -29.4627 O   0  0  0  0  0  0  0  0  0  0  0  0
   -7.2175   23.7840  -26.6925 O   0  0  0  0  0  0  0  0  0  0  0  0
   -7.7831   24.6629  -25.7550 C   0  0  0  0  0  0  0  0  0  0  0  0
 33 34  1  0  0  0
 34 27  1  0  0  0
 27 28  2  0  0  0
 28 29  1  0  0  0
 29 35  1  0  0  0
 35 36  1  0  0  0
 29 30  2  0  0  0
 30 31  1  0  0  0
 31 32  2  0  0  0
 31 25  1  0  0  0
 25 26  3  0  0  0
 26  1  1  0  0  0
  1  2  2  0  0  0
  2  3  1  0  0  0
  3 13  1  0  0  0
 13 14  1  0  0  0
 14 15  1  0  0  0
 15 20  1  0  0  0
 20 21  1  0  0  0
 15 16  1  0  0  0
 16 17  1  0  0  0
 16 18  1  0  0  0
 18 19  2  0  0  0
 18 23  1  0  0  0
 23 24  2  0  0  0
  3  4  1  0  0  0
  4  5  2  0  0  0
  5  6  1  0  0  0
  6  7  2  0  0  0
  7  8  1  0  0  0
  8  9  1  0  0  0
  8 10  2  0  0  0
 32 27  1  0  0  0
 10  1  1  0  0  0
 17 13  1  0  0  0
 10  4  1  0  0  0
 21 22  1  0  0  0
  9 11  1  0  0  0
  9 12  1  0  0  0
M  END
> <minimizedAffinity>
-7.15895

> <CNNscore>
0.2761000395

> <CNNaffinity>
6.4729700089

> <CNN_VS>
1.7871872187

> <CNNaffinity_variance>
0.2936108708

$$$$
[H]c1nc([H])c(Cl)c([C@]([H])(Oc2c([H])c([H])c3c(c(-c4nc5c([H])c(N6C([H])([H])C([H])([H])N(C([H])([H])[H])C([H])([H])C6([H])[H])c([H])c([H])c5n4[H])nn3[H])c2[H])C([H])([H])[H])c1Cl


 38 43  0  0  0  0  0  0  0  0999 V2000
   -4.2861   23.3177  -27.1286 C   0  0  0  0  0  0  0  0  0  0  0  0
   -4.2540   23.7140  -28.4622 C   0  0  0  0  0  0  0  0  0  0  0  0
   -3.0867   23.7252  -29.1807 C   0  0  0  0  0  0  0  0  0  0  0  0
   -1.9234   23.3399  -28.5779 C   0  0  0  0  0  0  0  0  0  0  0  0
   -0.6561   23.2756  -29.0749 N   0  0  0  0  0  0  0  0  0  0  0  0
    0.1204   22.8582  -28.1176 N   0  0  0  0  0  0  0  0  0  0  0  0
   -0.6098   22.6379  -26.9634 C   0  0  0  0  0  0  0  0  0  0  0  0
   -1.9175   22.9356  -27.2319 C   0  0  0  0  0  0  0  0  0  0  0  0
   -3.0905   22.9293  -26.5337 C   0  0  0  0  0  0  0  0  0  0  0  0
   -0.4175   23.5250  -30.0496 H   0  0  0  0  0  0  0  0  0  0  0  0
   -0.0142   22.2027  -25.7109 C   0  0  0  0  0  0  0  0  0  0  0  0
   -0.7910   22.0696  -24.5795 N   0  0  0  0  0  0  0  0  0  0  0  0
   -0.0731   21.6537  -23.5397 C   0  0  0  0  0  0  0  0  0  0  0  0
   -0.4278   21.3729  -22.2167 C   0  0  0  0  0  0  0  0  0  0  0  0
    0.5590   20.9288  -21.3397 C   0  0  0  0  0  0  0  0  0  0  0  0
    1.8279   20.7739  -21.7632 C   0  0  0  0  0  0  0  0  0  0  0  0
    2.1473   21.0648  -23.0877 C   0  0  0  0  0  0  0  0  0  0  0  0
    1.2026   21.5098  -23.9982 C   0  0  0  0  0  0  0  0  0  0  0  0
    1.1933   21.8528  -25.3115 N   0  0  0  0  0  0  0  0  0  0  0  0
    2.0412   21.8304  -25.8885 H   0  0  0  0  0  0  0  0  0  0  0  0
    0.1527   20.6891  -19.9985 N   0  0  0  0  0  0  0  0  0  0  0  0
    0.8997   19.9740  -19.0091 C   0  0  0  0  0  0  0  0  0  0  0  0
    0.8155   20.5602  -17.6151 C   0  0  0  0  0  0  0  0  0  0  0  0
   -0.5472   20.7922  -17.2497 N   0  0  0  0  0  0  0  0  0  0  0  0
   -1.3491   19.6289  -17.0587 C   0  0  0  0  0  0  0  0  0  0  0  0
   -1.1394   21.7439  -18.1689 C   0  0  0  0  0  0  0  0  0  0  0  0
   -1.1480   21.2277  -19.5855 C   0  0  0  0  0  0  0  0  0  0  0  0
   -5.4133   23.3213  -26.4816 O   0  0  0  0  0  0  0  0  0  0  0  0
   -7.3305   24.5058  -25.8788 C   0  0  0  0  0  0  0  0  0  0  0  0
   -6.2865   23.4787  -25.4822 C   0  0  0  0  0  0  0  0  0  0  0  0
   -5.6281   23.8974  -24.1781 C   0  0  0  0  0  0  0  0  0  0  0  0
   -5.6876   23.0215  -23.1009 C   0  0  0  0  0  0  0  0  0  0  0  0
   -6.6400   21.5323  -23.2284 Cl  0  0  0  0  0  0  0  0  0  0  0  0
   -5.0469   23.2412  -21.8980 C   0  0  0  0  0  0  0  0  0  0  0  0
   -4.3239   24.3638  -21.7568 N   0  0  0  0  0  0  0  0  0  0  0  0
   -4.2466   25.2207  -22.7640 C   0  0  0  0  0  0  0  0  0  0  0  0
   -4.8888   25.0143  -23.9896 C   0  0  0  0  0  0  0  0  0  0  0  0
   -4.6600   26.1873  -25.2222 Cl  0  0  0  0  0  0  0  0  0  0  0  0
 29 30  1  0  0  0
 30 28  1  0  0  0
 28  1  1  0  0  0
  1  2  2  0  0  0
  2  3  1  0  0  0
  3  4  2  0  0  0
  4  5  1  0  0  0
  5  6  1  0  0  0
  6  7  2  0  0  0
  7 11  1  0  0  0
 11 12  2  0  0  0
 12 13  1  0  0  0
 13 14  2  0  0  0
 14 15  1  0  0  0
 15 16  2  0  0  0
 16 17  1  0  0  0
 17 18  2  0  0  0
 18 19  1  0  0  0
 15 21  1  0  0  0
 21 22  1  0  0  0
 22 23  1  0  0  0
 23 24  1  0  0  0
 24 25  1  0  0  0
 24 26  1  0  0  0
 26 27  1  0  0  0
  7  8  1  0  0  0
  8  9  2  0  0  0
 30 31  1  0  0  0
 31 32  2  0  0  0
 32 33  1  0  0  0
 32 34  1  0  0  0
 34 35  2  0  0  0
 35 36  1  0  0  0
 36 37  2  0  0  0
 37 38  1  0  0  0
  9  1  1  0  0  0
 37 31  1  0  0  0
  8  4  1  0  0  0
 19 11  1  0  0  0
 27 21  1  0  0  0
 18 13  1  0  0  0
  5 10  1  0  0  0
 19 20  1  0  0  0
M  END
> <minimizedAffinity>
-10.07093

> <CNNscore>
0.9743809700

> <CNNaffinity>
8.2843036652

> <CNN_VS>
8.0720682144

> <CNNaffinity_variance>
0.1898787618

$$$$
[H]c1nc([H])c(Cl)c([C@]([H])(Oc2c([H])c([H])c3c(c(-c4nc5c([H])c(N6C([H])([H])C([H])([H])N(C([H])([H])[H])C([H])([H])C6([H])[H])c([H])c([H])c5n4[H])nn3[H])c2[H])C([H])([H])[H])c1Cl


 38 43  0  0  0  0  0  0  0  0999 V2000
   -3.8542   23.0034  -26.7759 C   0  0  0  0  0  0  0  0  0  0  0  0
   -3.6715   23.3546  -28.1099 C   0  0  0  0  0  0  0  0  0  0  0  0
   -2.4329   23.3291  -28.6967 C   0  0  0  0  0  0  0  0  0  0  0  0
   -1.3478   22.9515  -27.9585 C   0  0  0  0  0  0  0  0  0  0  0  0
   -0.0351   22.8569  -28.3118 N   0  0  0  0  0  0  0  0  0  0  0  0
    0.6266   22.4632  -27.2627 N   0  0  0  0  0  0  0  0  0  0  0  0
   -0.2279   22.2895  -26.1886 C   0  0  0  0  0  0  0  0  0  0  0  0
   -1.4942   22.5923  -26.6076 C   0  0  0  0  0  0  0  0  0  0  0  0
   -2.7361   22.6221  -26.0418 C   0  0  0  0  0  0  0  0  0  0  0  0
    0.3117   23.0711  -29.2622 H   0  0  0  0  0  0  0  0  0  0  0  0
    0.2217   21.8899  -24.8653 C   0  0  0  0  0  0  0  0  0  0  0  0
    1.5385   21.5404  -24.6532 N   0  0  0  0  0  0  0  0  0  0  0  0
    1.7595   21.2153  -23.3823 C   0  0  0  0  0  0  0  0  0  0  0  0
    2.9196   20.8148  -22.7126 C   0  0  0  0  0  0  0  0  0  0  0  0
    2.8462   20.5522  -21.3466 C   0  0  0  0  0  0  0  0  0  0  0  0
    1.6784   20.6840  -20.6889 C   0  0  0  0  0  0  0  0  0  0  0  0
    0.5411   21.0830  -21.3875 C   0  0  0  0  0  0  0  0  0  0  0  0
    0.5621   21.3551  -22.7459 C   0  0  0  0  0  0  0  0  0  0  0  0
   -0.3374   21.7619  -23.6775 N   0  0  0  0  0  0  0  0  0  0  0  0
   -1.3217   21.9370  -23.4474 H   0  0  0  0  0  0  0  0  0  0  0  0
    4.0460   20.1168  -20.7203 N   0  0  0  0  0  0  0  0  0  0  0  0
    4.8455   18.9995  -21.1211 C   0  0  0  0  0  0  0  0  0  0  0  0
    6.3390   19.2253  -21.0096 C   0  0  0  0  0  0  0  0  0  0  0  0
    6.6740   19.7376  -19.7174 N   0  0  0  0  0  0  0  0  0  0  0  0
    6.4951   18.8399  -18.6243 C   0  0  0  0  0  0  0  0  0  0  0  0
    6.0151   21.0131  -19.5167 C   0  0  0  0  0  0  0  0  0  0  0  0
    4.5135   20.8840  -19.5604 C   0  0  0  0  0  0  0  0  0  0  0  0
   -5.0448   23.0409  -26.2561 O   0  0  0  0  0  0  0  0  0  0  0  0
   -7.0801   24.1315  -25.9234 C   0  0  0  0  0  0  0  0  0  0  0  0
   -6.0160   23.2118  -25.3540 C   0  0  0  0  0  0  0  0  0  0  0  0
   -5.5099   23.7717  -24.0350 C   0  0  0  0  0  0  0  0  0  0  0  0
   -5.7158   23.0244  -22.8816 C   0  0  0  0  0  0  0  0  0  0  0  0
   -6.6762   21.5368  -22.9559 Cl  0  0  0  0  0  0  0  0  0  0  0  0
   -5.2192   23.3752  -21.6421 C   0  0  0  0  0  0  0  0  0  0  0  0
   -4.4957   24.5017  -21.5411 N   0  0  0  0  0  0  0  0  0  0  0  0
   -4.2809   25.2379  -22.6212 C   0  0  0  0  0  0  0  0  0  0  0  0
   -4.7759   24.8978  -23.8846 C   0  0  0  0  0  0  0  0  0  0  0  0
   -4.3774   25.9214  -25.2041 Cl  0  0  0  0  0  0  0  0  0  0  0  0
 29 30  1  0  0  0
 30 28  1  0  0  0
 28  1  1  0  0  0
  1  2  2  0  0  0
  2  3  1  0  0  0
  3  4  2  0  0  0
  4  5  1  0  0  0
  5  6  1  0  0  0
  6  7  2  0  0  0
  7 11  1  0  0  0
 11 12  2  0  0  0
 12 13  1  0  0  0
 13 14  2  0  0  0
 14 15  1  0  0  0
 15 16  2  0  0  0
 16 17  1  0  0  0
 17 18  2  0  0  0
 18 19  1  0  0  0
 15 21  1  0  0  0
 21 22  1  0  0  0
 22 23  1  0  0  0
 23 24  1  0  0  0
 24 25  1  0  0  0
 24 26  1  0  0  0
 26 27  1  0  0  0
  7  8  1  0  0  0
  8  9  2  0  0  0
 30 31  1  0  0  0
 31 32  2  0  0  0
 32 33  1  0  0  0
 32 34  1  0  0  0
 34 35  2  0  0  0
 35 36  1  0  0  0
 36 37  2  0  0  0
 37 38  1  0  0  0
  9  1  1  0  0  0
 37 31  1  0  0  0
  8  4  1  0  0  0
 19 11  1  0  0  0
 27 21  1  0  0  0
 18 13  1  0  0  0
  5 10  1  0  0  0
 19 20  1  0  0  0
M  END
> <minimizedAffinity>
-9.65098

> <CNNscore>
0.9555677772

> <CNNaffinity>
8.1280612946

> <CNN_VS>
7.7669134140

> <CNNaffinity_variance>
0.0294943396

$$$$
[H]c1nc([H])c(Cl)c([C@]([H])(Oc2c([H])c([H])c3c(c(-c4nc5c([H])c(N6C([H])([H])C([H])([H])N(C([H])([H])[H])C([H])([H])C6([H])[H])c([H])c([H])c5n4[H])nn3[H])c2[H])C([H])([H])[H])c1Cl


 38 43  0  0  0  0  0  0  0  0999 V2000
   -4.5891   23.3409  -24.8387 C   0  0  0  0  0  0  0  0  0  0  0  0
   -5.0378   23.6633  -26.1159 C   0  0  0  0  0  0  0  0  0  0  0  0
   -4.2236   23.5520  -27.2130 C   0  0  0  0  0  0  0  0  0  0  0  0
   -2.9393   23.1154  -27.0547 C   0  0  0  0  0  0  0  0  0  0  0  0
   -1.9535   22.9333  -27.9777 N   0  0  0  0  0  0  0  0  0  0  0  0
   -0.8969   22.5114  -27.3458 N   0  0  0  0  0  0  0  0  0  0  0  0
   -1.1536   22.4056  -25.9905 C   0  0  0  0  0  0  0  0  0  0  0  0
   -2.4512   22.7829  -25.7793 C   0  0  0  0  0  0  0  0  0  0  0  0
   -3.2780   22.8984  -24.6993 C   0  0  0  0  0  0  0  0  0  0  0  0
   -2.0839   23.1134  -28.9876 H   0  0  0  0  0  0  0  0  0  0  0  0
   -0.1554   21.9946  -25.0171 C   0  0  0  0  0  0  0  0  0  0  0  0
   -0.5191   21.7396  -23.7118 N   0  0  0  0  0  0  0  0  0  0  0  0
    0.5256   21.3683  -22.9767 C   0  0  0  0  0  0  0  0  0  0  0  0
    0.6345   21.0057  -21.6308 C   0  0  0  0  0  0  0  0  0  0  0  0
    1.8842   20.6409  -21.1355 C   0  0  0  0  0  0  0  0  0  0  0  0
    2.9628   20.6385  -21.9419 C   0  0  0  0  0  0  0  0  0  0  0  0
    2.8191   21.0074  -23.2776 C   0  0  0  0  0  0  0  0  0  0  0  0
    1.5985   21.3788  -23.8176 C   0  0  0  0  0  0  0  0  0  0  0  0
    1.1431   21.7636  -25.0370 N   0  0  0  0  0  0  0  0  0  0  0  0
    1.7635   21.8526  -25.8492 H   0  0  0  0  0  0  0  0  0  0  0  0
    1.9464   20.3130  -19.7535 N   0  0  0  0  0  0  0  0  0  0  0  0
    2.0839   18.9972  -19.2074 C   0  0  0  0  0  0  0  0  0  0  0  0
    2.9833   18.9141  -17.9916 C   0  0  0  0  0  0  0  0  0  0  0  0
    2.6140   19.9015  -17.0257 N   0  0  0  0  0  0  0  0  0  0  0  0
    1.3515   19.7125  -16.3909 C   0  0  0  0  0  0  0  0  0  0  0  0
    2.7662   21.2228  -17.6019 C   0  0  0  0  0  0  0  0  0  0  0  0
    1.8687   21.4226  -18.7969 C   0  0  0  0  0  0  0  0  0  0  0  0
   -5.3921   23.4602  -23.8237 O   0  0  0  0  0  0  0  0  0  0  0  0
   -6.8213   21.8977  -22.8448 C   0  0  0  0  0  0  0  0  0  0  0  0
   -6.0185   23.1745  -22.6782 C   0  0  0  0  0  0  0  0  0  0  0  0
   -6.9316   24.2934  -22.2051 C   0  0  0  0  0  0  0  0  0  0  0  0
   -6.8402   24.7000  -20.8795 C   0  0  0  0  0  0  0  0  0  0  0  0
   -5.7871   23.8193  -19.7588 Cl  0  0  0  0  0  0  0  0  0  0  0  0
   -7.5415   25.7673  -20.3549 C   0  0  0  0  0  0  0  0  0  0  0  0
   -8.3593   26.4541  -21.1688 N   0  0  0  0  0  0  0  0  0  0  0  0
   -8.4702   26.0927  -22.4383 C   0  0  0  0  0  0  0  0  0  0  0  0
   -7.7675   25.0146  -22.9867 C   0  0  0  0  0  0  0  0  0  0  0  0
   -7.9731   24.6914  -24.6603 Cl  0  0  0  0  0  0  0  0  0  0  0  0
 29 30  1  0  0  0
 30 28  1  0  0  0
 28  1  1  0  0  0
  1  2  2  0  0  0
  2  3  1  0  0  0
  3  4  2  0  0  0
  4  5  1  0  0  0
  5  6  1  0  0  0
  6  7  2  0  0  0
  7 11  1  0  0  0
 11 12  2  0  0  0
 12 13  1  0  0  0
 13 14  2  0  0  0
 14 15  1  0  0  0
 15 16  2  0  0  0
 16 17  1  0  0  0
 17 18  2  0  0  0
 18 19  1  0  0  0
 15 21  1  0  0  0
 21 22  1  0  0  0
 22 23  1  0  0  0
 23 24  1  0  0  0
 24 25  1  0  0  0
 24 26  1  0  0  0
 26 27  1  0  0  0
  7  8  1  0  0  0
  8  9  2  0  0  0
 30 31  1  0  0  0
 31 32  2  0  0  0
 32 33  1  0  0  0
 32 34  1  0  0  0
 34 35  2  0  0  0
 35 36  1  0  0  0
 36 37  2  0  0  0
 37 38  1  0  0  0
  9  1  1  0  0  0
 37 31  1  0  0  0
  8  4  1  0  0  0
 19 11  1  0  0  0
 27 21  1  0  0  0
 18 13  1  0  0  0
  5 10  1  0  0  0
 19 20  1  0  0  0
M  END
> <minimizedAffinity>
-8.86355

> <CNNscore>
0.4054424763

> <CNNaffinity>
7.4064302444

> <CNN_VS>
3.0028815269

> <CNNaffinity_variance>
0.0721685961

$$$$
[H]c1nc([H])c(Cl)c([C@]([H])(Oc2c([H])c([H])c3c(c(-c4nc5c([H])c(N6C([H])([H])C([H])([H])N(C([H])([H])[H])C([H])([H])C6([H])[H])c([H])c([H])c5n4[H])nn3[H])c2[H])C([H])([H])[H])c1Cl


 38 43  0  0  0  0  0  0  0  0999 V2000
    1.1939   20.7250  -19.5858 C   0  0  0  0  0  0  0  0  0  0  0  0
    2.4346   20.2227  -19.2050 C   0  0  0  0  0  0  0  0  0  0  0  0
    3.4417   20.0298  -20.1147 C   0  0  0  0  0  0  0  0  0  0  0  0
    3.2278   20.3353  -21.4284 C   0  0  0  0  0  0  0  0  0  0  0  0
    4.0588   20.2241  -22.5026 N   0  0  0  0  0  0  0  0  0  0  0  0
    3.4030   20.6311  -23.5504 N   0  0  0  0  0  0  0  0  0  0  0  0
    2.1224   21.0192  -23.1991 C   0  0  0  0  0  0  0  0  0  0  0  0
    1.9865   20.8426  -21.8497 C   0  0  0  0  0  0  0  0  0  0  0  0
    0.9967   21.0296  -20.9284 C   0  0  0  0  0  0  0  0  0  0  0  0
    5.0293   19.8738  -22.4331 H   0  0  0  0  0  0  0  0  0  0  0  0
    1.1365   21.4866  -24.1596 C   0  0  0  0  0  0  0  0  0  0  0  0
   -0.0743   21.9853  -23.7280 N   0  0  0  0  0  0  0  0  0  0  0  0
   -0.8362   22.3703  -24.7482 C   0  0  0  0  0  0  0  0  0  0  0  0
   -2.1140   22.9362  -24.7937 C   0  0  0  0  0  0  0  0  0  0  0  0
   -2.6599   23.2559  -26.0347 C   0  0  0  0  0  0  0  0  0  0  0  0
   -1.9660   23.0230  -27.1651 C   0  0  0  0  0  0  0  0  0  0  0  0
   -0.6961   22.4560  -27.0836 C   0  0  0  0  0  0  0  0  0  0  0  0
   -0.1098   22.1197  -25.8742 C   0  0  0  0  0  0  0  0  0  0  0  0
    1.0721   21.5859  -25.4733 N   0  0  0  0  0  0  0  0  0  0  0  0
    1.7999   21.3062  -26.1400 H   0  0  0  0  0  0  0  0  0  0  0  0
   -3.9741   23.7981  -26.0274 N   0  0  0  0  0  0  0  0  0  0  0  0
   -4.4635   24.8034  -25.1340 C   0  0  0  0  0  0  0  0  0  0  0  0
   -5.3921   25.8137  -25.7754 C   0  0  0  0  0  0  0  0  0  0  0  0
   -6.4214   25.1510  -26.5141 N   0  0  0  0  0  0  0  0  0  0  0  0
   -7.3729   24.4217  -25.7423 C   0  0  0  0  0  0  0  0  0  0  0  0
   -5.8250   24.3603  -27.5725 C   0  0  0  0  0  0  0  0  0  0  0  0
   -4.9160   23.2870  -27.0295 C   0  0  0  0  0  0  0  0  0  0  0  0
    0.2645   20.8934  -18.6930 O   0  0  0  0  0  0  0  0  0  0  0  0
   -1.1462   22.7192  -18.3492 C   0  0  0  0  0  0  0  0  0  0  0  0
   -0.9087   21.2337  -18.1512 C   0  0  0  0  0  0  0  0  0  0  0  0
   -1.0012   20.8947  -16.6726 C   0  0  0  0  0  0  0  0  0  0  0  0
   -0.0362   21.4136  -15.8179 C   0  0  0  0  0  0  0  0  0  0  0  0
    1.3357   22.3170  -16.4833 Cl  0  0  0  0  0  0  0  0  0  0  0  0
   -0.0654   21.2611  -14.4461 C   0  0  0  0  0  0  0  0  0  0  0  0
   -1.0826   20.5732  -13.9030 N   0  0  0  0  0  0  0  0  0  0  0  0
   -2.0194   20.0646  -14.6894 C   0  0  0  0  0  0  0  0  0  0  0  0
   -2.0059   20.2094  -16.0807 C   0  0  0  0  0  0  0  0  0  0  0  0
   -3.3125   19.5381  -16.9695 Cl  0  0  0  0  0  0  0  0  0  0  0  0
 29 30  1  0  0  0
 30 28  1  0  0  0
 28  1  1  0  0  0
  1  2  2  0  0  0
  2  3  1  0  0  0
  3  4  2  0  0  0
  4  5  1  0  0  0
  5  6  1  0  0  0
  6  7  2  0  0  0
  7 11  1  0  0  0
 11 12  2  0  0  0
 12 13  1  0  0  0
 13 14  2  0  0  0
 14 15  1  0  0  0
 15 16  2  0  0  0
 16 17  1  0  0  0
 17 18  2  0  0  0
 18 19  1  0  0  0
 15 21  1  0  0  0
 21 22  1  0  0  0
 22 23  1  0  0  0
 23 24  1  0  0  0
 24 25  1  0  0  0
 24 26  1  0  0  0
 26 27  1  0  0  0
  7  8  1  0  0  0
  8  9  2  0  0  0
 30 31  1  0  0  0
 31 32  2  0  0  0
 32 33  1  0  0  0
 32 34  1  0  0  0
 34 35  2  0  0  0
 35 36  1  0  0  0
 36 37  2  0  0  0
 37 38  1  0  0  0
  9  1  1  0  0  0
 37 31  1  0  0  0
  8  4  1  0  0  0
 19 11  1  0  0  0
 27 21  1  0  0  0
 18 13  1  0  0  0
  5 10  1  0  0  0
 19 20  1  0  0  0
M  END
> <minimizedAffinity>
-8.20947

> <CNNscore>
0.2552094460

> <CNNaffinity>
6.8882284164

> <CNN_VS>
1.7579410076

> <CNNaffinity_variance>
0.0984770209

$$$$
[H]c1nc([H])c(Cl)c([C@]([H])(Oc2c([H])c([H])c3c(c(-c4nc5c([H])c(N6C([H])([H])C([H])([H])N(C([H])([H])[H])C([H])([H])C6([H])[H])c([H])c([H])c5n4[H])nn3[H])c2[H])C([H])([H])[H])c1Cl


 38 43  0  0  0  0  0  0  0  0999 V2000
    1.4626   20.6597  -19.6011 C   0  0  0  0  0  0  0  0  0  0  0  0
    2.7136   20.1391  -19.2842 C   0  0  0  0  0  0  0  0  0  0  0  0
    3.6712   19.9350  -20.2436 C   0  0  0  0  0  0  0  0  0  0  0  0
    3.3959   20.2474  -21.5442 C   0  0  0  0  0  0  0  0  0  0  0  0
    4.1705   20.1280  -22.6590 N   0  0  0  0  0  0  0  0  0  0  0  0
    3.4687   20.5471  -23.6716 N   0  0  0  0  0  0  0  0  0  0  0  0
    2.2129   20.9518  -23.2557 C   0  0  0  0  0  0  0  0  0  0  0  0
    2.1423   20.7730  -21.9016 C   0  0  0  0  0  0  0  0  0  0  0  0
    1.2026   20.9710  -20.9315 C   0  0  0  0  0  0  0  0  0  0  0  0
    5.1382   19.7641  -22.6390 H   0  0  0  0  0  0  0  0  0  0  0  0
    1.1867   21.4357  -24.1645 C   0  0  0  0  0  0  0  0  0  0  0  0
   -0.0496   21.8107  -23.6828 N   0  0  0  0  0  0  0  0  0  0  0  0
   -0.8474   22.2332  -24.6598 C   0  0  0  0  0  0  0  0  0  0  0  0
   -2.1606   22.7131  -24.6468 C   0  0  0  0  0  0  0  0  0  0  0  0
   -2.7412   23.1051  -25.8507 C   0  0  0  0  0  0  0  0  0  0  0  0
   -2.0466   23.0220  -27.0014 C   0  0  0  0  0  0  0  0  0  0  0  0
   -0.7408   22.5371  -26.9787 C   0  0  0  0  0  0  0  0  0  0  0  0
   -0.1191   22.1342  -25.8079 C   0  0  0  0  0  0  0  0  0  0  0  0
    1.1004   21.6477  -25.4635 N   0  0  0  0  0  0  0  0  0  0  0  0
    1.8374   21.4788  -26.1569 H   0  0  0  0  0  0  0  0  0  0  0  0
   -4.0886   23.5543  -25.7870 N   0  0  0  0  0  0  0  0  0  0  0  0
   -4.8229   24.1627  -26.8542 C   0  0  0  0  0  0  0  0  0  0  0  0
   -6.2757   23.7422  -26.9349 C   0  0  0  0  0  0  0  0  0  0  0  0
   -6.9065   23.8688  -25.6581 N   0  0  0  0  0  0  0  0  0  0  0  0
   -7.0789   25.1996  -25.1761 C   0  0  0  0  0  0  0  0  0  0  0  0
   -6.2449   23.0018  -24.7033 C   0  0  0  0  0  0  0  0  0  0  0  0
   -4.7961   23.3742  -24.5144 C   0  0  0  0  0  0  0  0  0  0  0  0
    0.5815   20.8381  -18.6625 O   0  0  0  0  0  0  0  0  0  0  0  0
   -0.8677   22.6084  -18.2060 C   0  0  0  0  0  0  0  0  0  0  0  0
   -0.0900   21.4228  -17.6658 C   0  0  0  0  0  0  0  0  0  0  0  0
    0.8103   21.8780  -16.5293 C   0  0  0  0  0  0  0  0  0  0  0  0
    0.6225   21.3110  -15.2746 C   0  0  0  0  0  0  0  0  0  0  0  0
   -0.7337   20.2028  -15.0031 Cl  0  0  0  0  0  0  0  0  0  0  0  0
    1.4357   21.5661  -14.1886 C   0  0  0  0  0  0  0  0  0  0  0  0
    2.4681   22.4093  -14.3497 N   0  0  0  0  0  0  0  0  0  0  0  0
    2.6754   22.9678  -15.5329 C   0  0  0  0  0  0  0  0  0  0  0  0
    1.8621   22.7207  -16.6439 C   0  0  0  0  0  0  0  0  0  0  0  0
    2.2797   23.4773  -18.1274 Cl  0  0  0  0  0  0  0  0  0  0  0  0
 29 30  1  0  0  0
 30 28  1  0  0  0
 28  1  1  0  0  0
  1  2  2  0  0  0
  2  3  1  0  0  0
  3  4  2  0  0  0
  4  5  1  0  0  0
  5  6  1  0  0  0
  6  7  2  0  0  0
  7 11  1  0  0  0
 11 12  2  0  0  0
 12 13  1  0  0  0
 13 14  2  0  0  0
 14 15  1  0  0  0
 15 16  2  0  0  0
 16 17  1  0  0  0
 17 18  2  0  0  0
 18 19  1  0  0  0
 15 21  1  0  0  0
 21 22  1  0  0  0
 22 23  1  0  0  0
 23 24  1  0  0  0
 24 25  1  0  0  0
 24 26  1  0  0  0
 26 27  1  0  0  0
  7  8  1  0  0  0
  8  9  2  0  0  0
 30 31  1  0  0  0
 31 32  2  0  0  0
 32 33  1  0  0  0
 32 34  1  0  0  0
 34 35  2  0  0  0
 35 36  1  0  0  0
 36 37  2  0  0  0
 37 38  1  0  0  0
  9  1  1  0  0  0
 37 31  1  0  0  0
  8  4  1  0  0  0
 19 11  1  0  0  0
 27 21  1  0  0  0
 18 13  1  0  0  0
  5 10  1  0  0  0
 19 20  1  0  0  0
M  END
> <minimizedAffinity>
-8.58845

> <CNNscore>
0.2398635149

> <CNNaffinity>
6.9066324234

> <CNN_VS>
1.6566491127

> <CNNaffinity_variance>
0.1319327652

$$$$
[H]c1nc([H])c(Cl)c([C@]([H])(Oc2c([H])c([H])c3c(c(-c4nc5c([H])c(N6C([H])([H])C([H])([H])N(C([H])([H])[H])C([H])([H])C6([H])[H])c([H])c([H])c5n4[H])nn3[H])c2[H])C([H])([H])[H])c1Cl


 38 43  0  0  0  0  0  0  0  0999 V2000
    1.8491   20.6352  -19.6771 C   0  0  0  0  0  0  0  0  0  0  0  0
    3.1691   20.2334  -19.8576 C   0  0  0  0  0  0  0  0  0  0  0  0
    3.7565   20.2305  -21.0961 C   0  0  0  0  0  0  0  0  0  0  0  0
    3.0330   20.6298  -22.1834 C   0  0  0  0  0  0  0  0  0  0  0  0
    3.3896   20.7043  -23.4965 N   0  0  0  0  0  0  0  0  0  0  0  0
    2.3560   21.1335  -24.1605 N   0  0  0  0  0  0  0  0  0  0  0  0
    1.2891   21.3517  -23.3071 C   0  0  0  0  0  0  0  0  0  0  0  0
    1.6964   21.0401  -22.0392 C   0  0  0  0  0  0  0  0  0  0  0  0
    1.1299   21.0379  -20.7972 C   0  0  0  0  0  0  0  0  0  0  0  0
    4.3313   20.4529  -23.8420 H   0  0  0  0  0  0  0  0  0  0  0  0
   -0.0183   21.7982  -23.7591 C   0  0  0  0  0  0  0  0  0  0  0  0
   -0.2109   22.1728  -25.0719 N   0  0  0  0  0  0  0  0  0  0  0  0
   -1.4697   22.5399  -25.2961 C   0  0  0  0  0  0  0  0  0  0  0  0
   -2.1191   22.9774  -26.4544 C   0  0  0  0  0  0  0  0  0  0  0  0
   -3.4769   23.2807  -26.3857 C   0  0  0  0  0  0  0  0  0  0  0  0
   -4.1461   23.1526  -25.2241 C   0  0  0  0  0  0  0  0  0  0  0  0
   -3.4676   22.7160  -24.0884 C   0  0  0  0  0  0  0  0  0  0  0  0
   -2.1181   22.4026  -24.1048 C   0  0  0  0  0  0  0  0  0  0  0  0
   -1.2054   21.9546  -23.2056 N   0  0  0  0  0  0  0  0  0  0  0  0
   -1.4473   21.7726  -22.2254 H   0  0  0  0  0  0  0  0  0  0  0  0
   -4.0815   23.7523  -27.5829 N   0  0  0  0  0  0  0  0  0  0  0  0
   -4.2331   23.0096  -28.7969 C   0  0  0  0  0  0  0  0  0  0  0  0
   -5.5462   23.2430  -29.5147 C   0  0  0  0  0  0  0  0  0  0  0  0
   -5.7953   24.6431  -29.6627 N   0  0  0  0  0  0  0  0  0  0  0  0
   -4.9225   25.3425  -30.5470 C   0  0  0  0  0  0  0  0  0  0  0  0
   -5.8883   25.2592  -28.3539 C   0  0  0  0  0  0  0  0  0  0  0  0
   -4.6043   25.1231  -27.5752 C   0  0  0  0  0  0  0  0  0  0  0  0
    1.3283   20.6234  -18.4863 O   0  0  0  0  0  0  0  0  0  0  0  0
   -0.2955   21.8724  -17.3704 C   0  0  0  0  0  0  0  0  0  0  0  0
    0.9701   21.0417  -17.2686 C   0  0  0  0  0  0  0  0  0  0  0  0
    2.0553   21.8478  -16.5742 C   0  0  0  0  0  0  0  0  0  0  0  0
    2.6370   21.3173  -15.4291 C   0  0  0  0  0  0  0  0  0  0  0  0
    2.0063   19.8124  -14.7373 Cl  0  0  0  0  0  0  0  0  0  0  0  0
    3.6966   21.9030  -14.7657 C   0  0  0  0  0  0  0  0  0  0  0  0
    4.1965   23.0506  -15.2515 N   0  0  0  0  0  0  0  0  0  0  0  0
    3.6649   23.5839  -16.3413 C   0  0  0  0  0  0  0  0  0  0  0  0
    2.5916   23.0043  -17.0262 C   0  0  0  0  0  0  0  0  0  0  0  0
    2.0370   23.7820  -18.4528 Cl  0  0  0  0  0  0  0  0  0  0  0  0
 29 30  1  0  0  0
 30 28  1  0  0  0
 28  1  1  0  0  0
  1  2  2  0  0  0
  2  3  1  0  0  0
  3  4  2  0  0  0
  4  5  1  0  0  0
  5  6  1  0  0  0
  6  7  2  0  0  0
  7 11  1  0  0  0
 11 12  2  0  0  0
 12 13  1  0  0  0
 13 14  2  0  0  0
 14 15  1  0  0  0
 15 16  2  0  0  0
 16 17  1  0  0  0
 17 18  2  0  0  0
 18 19  1  0  0  0
 15 21  1  0  0  0
 21 22  1  0  0  0
 22 23  1  0  0  0
 23 24  1  0  0  0
 24 25  1  0  0  0
 24 26  1  0  0  0
 26 27  1  0  0  0
  7  8  1  0  0  0
  8  9  2  0  0  0
 30 31  1  0  0  0
 31 32  2  0  0  0
 32 33  1  0  0  0
 32 34  1  0  0  0
 34 35  2  0  0  0
 35 36  1  0  0  0
 36 37  2  0  0  0
 37 38  1  0  0  0
  9  1  1  0  0  0
 37 31  1  0  0  0
  8  4  1  0  0  0
 19 11  1  0  0  0
 27 21  1  0  0  0
 18 13  1  0  0  0
  5 10  1  0  0  0
 19 20  1  0  0  0
M  END
> <minimizedAffinity>
-8.41179

> <CNNscore>
0.1891565174

> <CNNaffinity>
7.0242972374

> <CNN_VS>
1.3286916018

> <CNNaffinity_variance>
0.1048751622

$$$$
[H]c1nc([H])c(Cl)c([C@]([H])(Oc2c([H])c([H])c3c(c(-c4nc5c([H])c(N6C([H])([H])C([H])([H])N(C([H])([H])[H])C([H])([H])C6([H])[H])c([H])c([H])c5n4[H])nn3[H])c2[H])C([H])([H])[H])c1Cl


 38 43  0  0  0  0  0  0  0  0999 V2000
    0.5108   21.1179  -21.7056 C   0  0  0  0  0  0  0  0  0  0  0  0
    1.7622   20.9139  -22.2792 C   0  0  0  0  0  0  0  0  0  0  0  0
    1.9903   21.1522  -23.6097 C   0  0  0  0  0  0  0  0  0  0  0  0
    0.9679   21.5999  -24.3967 C   0  0  0  0  0  0  0  0  0  0  0  0
    0.9480   21.8952  -25.7269 N   0  0  0  0  0  0  0  0  0  0  0  0
   -0.2597   22.2761  -26.0266 N   0  0  0  0  0  0  0  0  0  0  0  0
   -1.0704   22.2409  -24.9061 C   0  0  0  0  0  0  0  0  0  0  0  0
   -0.3098   21.8151  -23.8521 C   0  0  0  0  0  0  0  0  0  0  0  0
   -0.5166   21.5740  -22.5245 C   0  0  0  0  0  0  0  0  0  0  0  0
    1.7790   21.8136  -26.3369 H   0  0  0  0  0  0  0  0  0  0  0  0
   -2.4847   22.5757  -24.9312 C   0  0  0  0  0  0  0  0  0  0  0  0
   -3.1577   22.8443  -23.7581 N   0  0  0  0  0  0  0  0  0  0  0  0
   -4.4353   23.1383  -23.9837 C   0  0  0  0  0  0  0  0  0  0  0  0
   -5.4779   23.4820  -23.1178 C   0  0  0  0  0  0  0  0  0  0  0  0
   -6.7321   23.7575  -23.6576 C   0  0  0  0  0  0  0  0  0  0  0  0
   -6.9307   23.6932  -24.9880 C   0  0  0  0  0  0  0  0  0  0  0  0
   -5.8703   23.3455  -25.8219 C   0  0  0  0  0  0  0  0  0  0  0  0
   -4.6049   23.0619  -25.3342 C   0  0  0  0  0  0  0  0  0  0  0  0
   -3.4042   22.7184  -25.8660 N   0  0  0  0  0  0  0  0  0  0  0  0
   -3.2687   22.5940  -26.8753 H   0  0  0  0  0  0  0  0  0  0  0  0
   -7.7650   24.0695  -22.7319 N   0  0  0  0  0  0  0  0  0  0  0  0
   -8.0519   23.3602  -21.5224 C   0  0  0  0  0  0  0  0  0  0  0  0
   -8.4482   24.2429  -20.3571 C   0  0  0  0  0  0  0  0  0  0  0  0
   -9.4777   25.1555  -20.7461 N   0  0  0  0  0  0  0  0  0  0  0  0
  -10.7476   24.5766  -21.0381 C   0  0  0  0  0  0  0  0  0  0  0  0
   -8.9886   26.0131  -21.8075 C   0  0  0  0  0  0  0  0  0  0  0  0
   -8.6127   25.2271  -23.0381 C   0  0  0  0  0  0  0  0  0  0  0  0
    0.3348   20.8800  -20.4400 O   0  0  0  0  0  0  0  0  0  0  0  0
   -1.4893   20.3905  -19.0708 C   0  0  0  0  0  0  0  0  0  0  0  0
   -0.0005   20.2348  -19.3188 C   0  0  0  0  0  0  0  0  0  0  0  0
    0.7726   20.7161  -18.1022 C   0  0  0  0  0  0  0  0  0  0  0  0
    1.3470   19.7633  -17.2694 C   0  0  0  0  0  0  0  0  0  0  0  0
    1.0425   18.0417  -17.5595 Cl  0  0  0  0  0  0  0  0  0  0  0  0
    2.1536   20.0728  -16.1926 C   0  0  0  0  0  0  0  0  0  0  0  0
    2.3997   21.3668  -15.9319 N   0  0  0  0  0  0  0  0  0  0  0  0
    1.8673   22.3007  -16.7059 C   0  0  0  0  0  0  0  0  0  0  0  0
    1.0482   22.0055  -17.8008 C   0  0  0  0  0  0  0  0  0  0  0  0
    0.4675   23.3171  -18.7443 Cl  0  0  0  0  0  0  0  0  0  0  0  0
 29 30  1  0  0  0
 30 28  1  0  0  0
 28  1  1  0  0  0
  1  2  2  0  0  0
  2  3  1  0  0  0
  3  4  2  0  0  0
  4  5  1  0  0  0
  5  6  1  0  0  0
  6  7  2  0  0  0
  7 11  1  0  0  0
 11 12  2  0  0  0
 12 13  1  0  0  0
 13 14  2  0  0  0
 14 15  1  0  0  0
 15 16  2  0  0  0
 16 17  1  0  0  0
 17 18  2  0  0  0
 18 19  1  0  0  0
 15 21  1  0  0  0
 21 22  1  0  0  0
 22 23  1  0  0  0
 23 24  1  0  0  0
 24 25  1  0  0  0
 24 26  1  0  0  0
 26 27  1  0  0  0
  7  8  1  0  0  0
  8  9  2  0  0  0
 30 31  1  0  0  0
 31 32  2  0  0  0
 32 33  1  0  0  0
 32 34  1  0  0  0
 34 35  2  0  0  0
 35 36  1  0  0  0
 36 37  2  0  0  0
 37 38  1  0  0  0
  9  1  1  0  0  0
 37 31  1  0  0  0
  8  4  1  0  0  0
 19 11  1  0  0  0
 27 21  1  0  0  0
 18 13  1  0  0  0
  5 10  1  0  0  0
 19 20  1  0  0  0
M  END
> <minimizedAffinity>
-7.98802

> <CNNscore>
0.1691710800

> <CNNaffinity>
7.0702805519

> <CNN_VS>
1.1960870028

> <CNNaffinity_variance>
0.0959257036

$$$$
[H]c1nc([H])c(Cl)c([C@]([H])(Oc2c([H])c([H])c3c(c(-c4nc5c([H])c(N6C([H])([H])C([H])([H])N(C([H])([H])[H])C([H])([H])C6([H])[H])c([H])c([H])c5n4[H])nn3[H])c2[H])C([H])([H])[H])c1Cl


 38 43  0  0  0  0  0  0  0  0999 V2000
   -0.2665   20.4643  -19.6022 C   0  0  0  0  0  0  0  0  0  0  0  0
    0.8599   20.1585  -18.8445 C   0  0  0  0  0  0  0  0  0  0  0  0
    2.1220   20.2208  -19.3757 C   0  0  0  0  0  0  0  0  0  0  0  0
    2.2840   20.5906  -20.6803 C   0  0  0  0  0  0  0  0  0  0  0  0
    3.4195   20.7157  -21.4233 N   0  0  0  0  0  0  0  0  0  0  0  0
    3.0670   21.0854  -22.6202 N   0  0  0  0  0  0  0  0  0  0  0  0
    1.6918   21.2122  -22.7022 C   0  0  0  0  0  0  0  0  0  0  0  0
    1.1690   20.9044  -21.4764 C   0  0  0  0  0  0  0  0  0  0  0  0
   -0.0796   20.8384  -20.9286 C   0  0  0  0  0  0  0  0  0  0  0  0
    4.3653   20.5370  -21.0452 H   0  0  0  0  0  0  0  0  0  0  0  0
    0.9936   21.5760  -23.9241 C   0  0  0  0  0  0  0  0  0  0  0  0
   -0.2918   22.0719  -23.8704 N   0  0  0  0  0  0  0  0  0  0  0  0
   -0.7577   22.3554  -25.0838 C   0  0  0  0  0  0  0  0  0  0  0  0
   -1.9812   22.8796  -25.5117 C   0  0  0  0  0  0  0  0  0  0  0  0
   -2.1797   23.0870  -26.8747 C   0  0  0  0  0  0  0  0  0  0  0  0
   -1.2086   22.7875  -27.7584 C   0  0  0  0  0  0  0  0  0  0  0  0
   -0.0022   22.2647  -27.2979 C   0  0  0  0  0  0  0  0  0  0  0  0
    0.2437   22.0394  -25.9532 C   0  0  0  0  0  0  0  0  0  0  0  0
    1.2801   21.5718  -25.2117 N   0  0  0  0  0  0  0  0  0  0  0  0
    2.1609   21.2623  -25.6370 H   0  0  0  0  0  0  0  0  0  0  0  0
   -3.4523   23.5906  -27.2596 N   0  0  0  0  0  0  0  0  0  0  0  0
   -3.9393   23.7077  -28.6003 C   0  0  0  0  0  0  0  0  0  0  0  0
   -5.4074   23.3735  -28.7653 C   0  0  0  0  0  0  0  0  0  0  0  0
   -6.1943   24.0815  -27.8042 N   0  0  0  0  0  0  0  0  0  0  0  0
   -6.2604   25.4959  -27.9714 C   0  0  0  0  0  0  0  0  0  0  0  0
   -5.7959   23.6871  -26.4674 C   0  0  0  0  0  0  0  0  0  0  0  0
   -4.3537   24.0257  -26.1869 C   0  0  0  0  0  0  0  0  0  0  0  0
   -1.4464   20.3928  -19.0618 O   0  0  0  0  0  0  0  0  0  0  0  0
   -3.6956   20.9268  -18.7489 C   0  0  0  0  0  0  0  0  0  0  0  0
   -2.6054   19.8770  -18.6413 C   0  0  0  0  0  0  0  0  0  0  0  0
   -2.5403   19.3528  -17.2164 C   0  0  0  0  0  0  0  0  0  0  0  0
   -2.9836   18.0588  -16.9713 C   0  0  0  0  0  0  0  0  0  0  0  0
   -3.7373   17.1244  -18.2750 Cl  0  0  0  0  0  0  0  0  0  0  0  0
   -2.8854   17.4344  -15.7439 C   0  0  0  0  0  0  0  0  0  0  0  0
   -2.3305   18.1127  -14.7266 N   0  0  0  0  0  0  0  0  0  0  0  0
   -1.8979   19.3487  -14.9259 C   0  0  0  0  0  0  0  0  0  0  0  0
   -1.9891   19.9967  -16.1623 C   0  0  0  0  0  0  0  0  0  0  0  0
   -1.3424   21.5823  -16.2862 Cl  0  0  0  0  0  0  0  0  0  0  0  0
 29 30  1  0  0  0
 30 28  1  0  0  0
 28  1  1  0  0  0
  1  2  2  0  0  0
  2  3  1  0  0  0
  3  4  2  0  0  0
  4  5  1  0  0  0
  5  6  1  0  0  0
  6  7  2  0  0  0
  7 11  1  0  0  0
 11 12  2  0  0  0
 12 13  1  0  0  0
 13 14  2  0  0  0
 14 15  1  0  0  0
 15 16  2  0  0  0
 16 17  1  0  0  0
 17 18  2  0  0  0
 18 19  1  0  0  0
 15 21  1  0  0  0
 21 22  1  0  0  0
 22 23  1  0  0  0
 23 24  1  0  0  0
 24 25  1  0  0  0
 24 26  1  0  0  0
 26 27  1  0  0  0
  7  8  1  0  0  0
  8  9  2  0  0  0
 30 31  1  0  0  0
 31 32  2  0  0  0
 32 33  1  0  0  0
 32 34  1  0  0  0
 34 35  2  0  0  0
 35 36  1  0  0  0
 36 37  2  0  0  0
 37 38  1  0  0  0
  9  1  1  0  0  0
 37 31  1  0  0  0
  8  4  1  0  0  0
 19 11  1  0  0  0
 27 21  1  0  0  0
 18 13  1  0  0  0
  5 10  1  0  0  0
 19 20  1  0  0  0
M  END
> <minimizedAffinity>
-7.88426

> <CNNscore>
0.1563953161

> <CNNaffinity>
6.8872842789

> <CNN_VS>
1.0771390200

> <CNNaffinity_variance>
0.0085563352

$$$$
[H]c1nc([H])c(Cl)c([C@]([H])(Oc2c([H])c([H])c3c(c(-c4nc5c([H])c(N6C([H])([H])C([H])([H])N(C([H])([H])[H])C([H])([H])C6([H])[H])c([H])c([H])c5n4[H])nn3[H])c2[H])C([H])([H])[H])c1Cl


 38 43  0  0  0  0  0  0  0  0999 V2000
    1.7219   20.7828  -19.8212 C   0  0  0  0  0  0  0  0  0  0  0  0
    3.0825   20.5317  -19.9701 C   0  0  0  0  0  0  0  0  0  0  0  0
    3.6905   20.5709  -21.1981 C   0  0  0  0  0  0  0  0  0  0  0  0
    2.9474   20.8621  -22.3063 C   0  0  0  0  0  0  0  0  0  0  0  0
    3.3187   20.9502  -23.6144 N   0  0  0  0  0  0  0  0  0  0  0  0
    2.2559   21.2441  -24.3054 N   0  0  0  0  0  0  0  0  0  0  0  0
    1.1546   21.3557  -23.4756 C   0  0  0  0  0  0  0  0  0  0  0  0
    1.5701   21.1190  -22.1942 C   0  0  0  0  0  0  0  0  0  0  0  0
    0.9834   21.0772  -20.9623 C   0  0  0  0  0  0  0  0  0  0  0  0
    4.2895   20.8016  -23.9380 H   0  0  0  0  0  0  0  0  0  0  0  0
   -0.1863   21.6396  -23.9597 C   0  0  0  0  0  0  0  0  0  0  0  0
   -0.3700   22.2706  -25.1718 N   0  0  0  0  0  0  0  0  0  0  0  0
   -1.6611   22.4343  -25.4471 C   0  0  0  0  0  0  0  0  0  0  0  0
   -2.3136   23.0018  -26.5458 C   0  0  0  0  0  0  0  0  0  0  0  0
   -3.7063   23.0166  -26.5620 C   0  0  0  0  0  0  0  0  0  0  0  0
   -4.4056   22.4926  -25.5373 C   0  0  0  0  0  0  0  0  0  0  0  0
   -3.7236   21.9368  -24.4572 C   0  0  0  0  0  0  0  0  0  0  0  0
   -2.3401   21.8985  -24.3934 C   0  0  0  0  0  0  0  0  0  0  0  0
   -1.4122   21.4323  -23.5193 N   0  0  0  0  0  0  0  0  0  0  0  0
   -1.6719   20.9810  -22.6353 H   0  0  0  0  0  0  0  0  0  0  0  0
   -4.3198   23.6343  -27.6860 N   0  0  0  0  0  0  0  0  0  0  0  0
   -5.6882   24.0434  -27.7773 C   0  0  0  0  0  0  0  0  0  0  0  0
   -5.9038   25.3516  -28.5096 C   0  0  0  0  0  0  0  0  0  0  0  0
   -5.2220   25.3416  -29.7663 N   0  0  0  0  0  0  0  0  0  0  0  0
   -5.7337   24.4421  -30.7471 C   0  0  0  0  0  0  0  0  0  0  0  0
   -3.7982   25.1862  -29.5432 C   0  0  0  0  0  0  0  0  0  0  0  0
   -3.4746   23.8820  -28.8594 C   0  0  0  0  0  0  0  0  0  0  0  0
    1.1828   20.7356  -18.6396 O   0  0  0  0  0  0  0  0  0  0  0  0
    0.9120   20.4931  -16.3352 C   0  0  0  0  0  0  0  0  0  0  0  0
    0.2977   20.9201  -17.6553 C   0  0  0  0  0  0  0  0  0  0  0  0
   -1.0046   20.1694  -17.8788 C   0  0  0  0  0  0  0  0  0  0  0  0
   -0.9664   18.7805  -17.9054 C   0  0  0  0  0  0  0  0  0  0  0  0
    0.5924   17.9408  -17.8286 Cl  0  0  0  0  0  0  0  0  0  0  0  0
   -2.0902   17.9844  -18.0014 C   0  0  0  0  0  0  0  0  0  0  0  0
   -3.2903   18.5823  -18.0732 N   0  0  0  0  0  0  0  0  0  0  0  0
   -3.3624   19.9048  -18.0510 C   0  0  0  0  0  0  0  0  0  0  0  0
   -2.2347   20.7268  -17.9539 C   0  0  0  0  0  0  0  0  0  0  0  0
   -2.4832   22.4243  -17.8870 Cl  0  0  0  0  0  0  0  0  0  0  0  0
 29 30  1  0  0  0
 30 28  1  0  0  0
 28  1  1  0  0  0
  1  2  2  0  0  0
  2  3  1  0  0  0
  3  4  2  0  0  0
  4  5  1  0  0  0
  5  6  1  0  0  0
  6  7  2  0  0  0
  7 11  1  0  0  0
 11 12  2  0  0  0
 12 13  1  0  0  0
 13 14  2  0  0  0
 14 15  1  0  0  0
 15 16  2  0  0  0
 16 17  1  0  0  0
 17 18  2  0  0  0
 18 19  1  0  0  0
 15 21  1  0  0  0
 21 22  1  0  0  0
 22 23  1  0  0  0
 23 24  1  0  0  0
 24 25  1  0  0  0
 24 26  1  0  0  0
 26 27  1  0  0  0
  7  8  1  0  0  0
  8  9  2  0  0  0
 30 31  1  0  0  0
 31 32  2  0  0  0
 32 33  1  0  0  0
 32 34  1  0  0  0
 34 35  2  0  0  0
 35 36  1  0  0  0
 36 37  2  0  0  0
 37 38  1  0  0  0
  9  1  1  0  0  0
 37 31  1  0  0  0
  8  4  1  0  0  0
 19 11  1  0  0  0
 27 21  1  0  0  0
 18 13  1  0  0  0
  5 10  1  0  0  0
 19 20  1  0  0  0
M  END
> <minimizedAffinity>
-7.94403

> <CNNscore>
0.1432554573

> <CNNaffinity>
7.0454459190

> <CNN_VS>
1.0092985630

> <CNNaffinity_variance>
0.0752628595

$$$$
[H]c1c(OC([H])([H])[H])c([H])c(C([H])([H])C([H])([H])c2c([H])c(-c3nc4c([H])c([H])c(-c5nn(C([H])([H])C([H])([H])N6C([H])([H])C([H])([H])OC([H])([H])C6([H])[H])c([H])c5[H])c([H])c4n3[H])nn2[H])c([H])c1OC([H])([H])[H]


 41 46  0  0  0  0  0  0  0  0999 V2000
    0.4624   21.8631  -24.8532 C   0  0  0  0  0  0  0  0  0  0  0  0
   -0.3040   21.6447  -23.7701 N   0  0  0  0  0  0  0  0  0  0  0  0
    0.4874   21.2511  -22.7529 C   0  0  0  0  0  0  0  0  0  0  0  0
    0.2675   20.8966  -21.4344 C   0  0  0  0  0  0  0  0  0  0  0  0
    1.3249   20.5312  -20.6293 C   0  0  0  0  0  0  0  0  0  0  0  0
    2.6397   20.5015  -21.0933 C   0  0  0  0  0  0  0  0  0  0  0  0
    2.8409   20.8575  -22.4087 C   0  0  0  0  0  0  0  0  0  0  0  0
    1.7811   21.2248  -23.2197 C   0  0  0  0  0  0  0  0  0  0  0  0
    1.7321   21.6018  -24.4992 N   0  0  0  0  0  0  0  0  0  0  0  0
    2.5510   21.6826  -25.1303 H   0  0  0  0  0  0  0  0  0  0  0  0
   -1.2463   22.9673  -27.9206 C   0  0  0  0  0  0  0  0  0  0  0  0
   -1.2527   22.5831  -26.5894 C   0  0  0  0  0  0  0  0  0  0  0  0
    0.0342   22.3029  -26.1844 C   0  0  0  0  0  0  0  0  0  0  0  0
    0.7996   22.5199  -27.2694 N   0  0  0  0  0  0  0  0  0  0  0  0
    0.0391   22.9133  -28.2973 N   0  0  0  0  0  0  0  0  0  0  0  0
    0.3583   23.1541  -29.2692 H   0  0  0  0  0  0  0  0  0  0  0  0
   -2.4119   23.3508  -28.7389 C   0  0  0  0  0  0  0  0  0  0  0  0
   -3.6696   22.5949  -28.3570 C   0  0  0  0  0  0  0  0  0  0  0  0
   -5.2576   25.4015  -26.3639 C   0  0  0  0  0  0  0  0  0  0  0  0
   -4.6296   24.6885  -27.3779 C   0  0  0  0  0  0  0  0  0  0  0  0
   -4.3398   23.3462  -27.2661 C   0  0  0  0  0  0  0  0  0  0  0  0
   -4.7050   22.7111  -26.0755 C   0  0  0  0  0  0  0  0  0  0  0  0
   -5.3275   23.3974  -25.0581 C   0  0  0  0  0  0  0  0  0  0  0  0
   -5.6022   24.7357  -25.2022 C   0  0  0  0  0  0  0  0  0  0  0  0
   -5.2395   27.6494  -25.5008 C   0  0  0  0  0  0  0  0  0  0  0  0
   -5.5007   26.7402  -26.5799 O   0  0  0  0  0  0  0  0  0  0  0  0
   -5.6843   22.7601  -23.8859 O   0  0  0  0  0  0  0  0  0  0  0  0
   -6.3182   21.4747  -23.9508 C   0  0  0  0  0  0  0  0  0  0  0  0
    3.7360   20.1117  -20.2208 C   0  0  0  0  0  0  0  0  0  0  0  0
    4.4490   18.9397  -20.2641 C   0  0  0  0  0  0  0  0  0  0  0  0
    5.3861   19.0119  -19.2463 C   0  0  0  0  0  0  0  0  0  0  0  0
    5.2422   20.1921  -18.6086 N   0  0  0  0  0  0  0  0  0  0  0  0
    4.2515   20.8210  -19.2147 N   0  0  0  0  0  0  0  0  0  0  0  0
    6.0150   20.6751  -17.4852 C   0  0  0  0  0  0  0  0  0  0  0  0
    5.0986   21.2320  -16.4048 C   0  0  0  0  0  0  0  0  0  0  0  0
    5.3987   22.6251  -16.1610 N   0  0  0  0  0  0  0  0  0  0  0  0
    4.4086   23.4771  -16.7094 C   0  0  0  0  0  0  0  0  0  0  0  0
    4.9212   24.8544  -17.0409 C   0  0  0  0  0  0  0  0  0  0  0  0
    6.0066   24.6572  -17.9229 O   0  0  0  0  0  0  0  0  0  0  0  0
    7.0652   24.1133  -17.2369 C   0  0  0  0  0  0  0  0  0  0  0  0
    6.7574   22.9025  -16.4284 C   0  0  0  0  0  0  0  0  0  0  0  0
 25 26  1  0  0  0
 26 19  1  0  0  0
 19 20  2  0  0  0
 20 21  1  0  0  0
 21 18  1  0  0  0
 18 17  1  0  0  0
 17 11  1  0  0  0
 11 12  2  0  0  0
 12 13  1  0  0  0
 13 14  2  0  0  0
 14 15  1  0  0  0
 13  1  1  0  0  0
  1  2  2  0  0  0
  2  3  1  0  0  0
  3  4  2  0  0  0
  4  5  1  0  0  0
  5  6  2  0  0  0
  6  7  1  0  0  0
  7  8  2  0  0  0
  8  9  1  0  0  0
  6 29  1  0  0  0
 29 30  1  0  0  0
 30 31  2  0  0  0
 31 32  1  0  0  0
 32 34  1  0  0  0
 34 35  1  0  0  0
 35 36  1  0  0  0
 36 37  1  0  0  0
 37 38  1  0  0  0
 38 39  1  0  0  0
 39 40  1  0  0  0
 40 41  1  0  0  0
 32 33  1  0  0  0
 21 22  2  0  0  0
 22 23  1  0  0  0
 23 27  1  0  0  0
 27 28  1  0  0  0
 23 24  2  0  0  0
 24 19  1  0  0  0
 15 11  1  0  0  0
  9  1  1  0  0  0
 33 29  2  0  0  0
  8  3  1  0  0  0
 41 36  1  0  0  0
 15 16  1  0  0  0
  9 10  1  0  0  0
M  END
> <minimizedAffinity>
-8.03019

> <CNNscore>
0.8757190108

> <CNNaffinity>
7.6544008255

> <CNN_VS>
6.7031044960

> <CNNaffinity_variance>
0.0955587029

$$$$
[H]c1c(OC([H])([H])[H])c([H])c(C([H])([H])C([H])([H])c2c([H])c(-c3nc4c([H])c([H])c(-c5nn(C([H])([H])C([H])([H])N6C([H])([H])C([H])([H])OC([H])([H])C6([H])[H])c([H])c5[H])c([H])c4n3[H])nn2[H])c([H])c1OC([H])([H])[H]


 41 46  0  0  0  0  0  0  0  0999 V2000
    0.5236   21.8131  -24.5178 C   0  0  0  0  0  0  0  0  0  0  0  0
   -0.0779   21.5349  -23.3478 N   0  0  0  0  0  0  0  0  0  0  0  0
    0.8587   21.1384  -22.4637 C   0  0  0  0  0  0  0  0  0  0  0  0
    0.8350   20.7362  -21.1409 C   0  0  0  0  0  0  0  0  0  0  0  0
    2.0046   20.3838  -20.5024 C   0  0  0  0  0  0  0  0  0  0  0  0
    3.2426   20.4145  -21.1440 C   0  0  0  0  0  0  0  0  0  0  0  0
    3.2482   20.8174  -22.4612 C   0  0  0  0  0  0  0  0  0  0  0  0
    2.0753   21.1719  -23.1050 C   0  0  0  0  0  0  0  0  0  0  0  0
    1.8375   21.5859  -24.3515 N   0  0  0  0  0  0  0  0  0  0  0  0
    2.5579   21.7147  -25.0862 H   0  0  0  0  0  0  0  0  0  0  0  0
   -1.6200   22.9949  -27.2667 C   0  0  0  0  0  0  0  0  0  0  0  0
   -1.4251   22.5974  -25.9538 C   0  0  0  0  0  0  0  0  0  0  0  0
   -0.0986   22.2781  -25.7609 C   0  0  0  0  0  0  0  0  0  0  0  0
    0.4900   22.4853  -26.9529 N   0  0  0  0  0  0  0  0  0  0  0  0
   -0.4131   22.9099  -27.8440 N   0  0  0  0  0  0  0  0  0  0  0  0
   -0.2462   23.1519  -28.8530 H   0  0  0  0  0  0  0  0  0  0  0  0
   -2.8897   23.4184  -27.8862 C   0  0  0  0  0  0  0  0  0  0  0  0
   -4.0800   22.6256  -27.3825 C   0  0  0  0  0  0  0  0  0  0  0  0
   -6.1920   23.6378  -24.4016 C   0  0  0  0  0  0  0  0  0  0  0  0
   -5.5368   22.8783  -25.3633 C   0  0  0  0  0  0  0  0  0  0  0  0
   -4.7765   23.4477  -26.3613 C   0  0  0  0  0  0  0  0  0  0  0  0
   -4.6832   24.8425  -26.3762 C   0  0  0  0  0  0  0  0  0  0  0  0
   -5.3237   25.6142  -25.4340 C   0  0  0  0  0  0  0  0  0  0  0  0
   -6.0741   25.0144  -24.4520 C   0  0  0  0  0  0  0  0  0  0  0  0
   -6.3374   21.8032  -22.8488 C   0  0  0  0  0  0  0  0  0  0  0  0
   -6.9258   22.9666  -23.4481 O   0  0  0  0  0  0  0  0  0  0  0  0
   -5.2247   26.9916  -25.4577 O   0  0  0  0  0  0  0  0  0  0  0  0
   -3.9469   27.6072  -25.2419 C   0  0  0  0  0  0  0  0  0  0  0  0
    4.4608   20.0369  -20.4451 C   0  0  0  0  0  0  0  0  0  0  0  0
    5.5342   19.3577  -20.9649 C   0  0  0  0  0  0  0  0  0  0  0  0
    6.4516   19.2253  -19.9353 C   0  0  0  0  0  0  0  0  0  0  0  0
    5.9463   19.8073  -18.8280 N   0  0  0  0  0  0  0  0  0  0  0  0
    4.7606   20.2800  -19.1676 N   0  0  0  0  0  0  0  0  0  0  0  0
    6.5735   19.8970  -17.5276 C   0  0  0  0  0  0  0  0  0  0  0  0
    6.1863   21.1960  -16.8348 C   0  0  0  0  0  0  0  0  0  0  0  0
    7.1493   22.2317  -17.1355 N   0  0  0  0  0  0  0  0  0  0  0  0
    6.5950   23.2355  -17.9674 C   0  0  0  0  0  0  0  0  0  0  0  0
    7.6232   23.9626  -18.7943 C   0  0  0  0  0  0  0  0  0  0  0  0
    8.2952   22.9646  -19.5341 O   0  0  0  0  0  0  0  0  0  0  0  0
    9.0803   22.2159  -18.6914 C   0  0  0  0  0  0  0  0  0  0  0  0
    8.3982   21.6727  -17.4855 C   0  0  0  0  0  0  0  0  0  0  0  0
 25 26  1  0  0  0
 26 19  1  0  0  0
 19 20  2  0  0  0
 20 21  1  0  0  0
 21 18  1  0  0  0
 18 17  1  0  0  0
 17 11  1  0  0  0
 11 12  2  0  0  0
 12 13  1  0  0  0
 13 14  2  0  0  0
 14 15  1  0  0  0
 13  1  1  0  0  0
  1  2  2  0  0  0
  2  3  1  0  0  0
  3  4  2  0  0  0
  4  5  1  0  0  0
  5  6  2  0  0  0
  6  7  1  0  0  0
  7  8  2  0  0  0
  8  9  1  0  0  0
  6 29  1  0  0  0
 29 30  1  0  0  0
 30 31  2  0  0  0
 31 32  1  0  0  0
 32 34  1  0  0  0
 34 35  1  0  0  0
 35 36  1  0  0  0
 36 37  1  0  0  0
 37 38  1  0  0  0
 38 39  1  0  0  0
 39 40  1  0  0  0
 40 41  1  0  0  0
 32 33  1  0  0  0
 21 22  2  0  0  0
 22 23  1  0  0  0
 23 27  1  0  0  0
 27 28  1  0  0  0
 23 24  2  0  0  0
 24 19  1  0  0  0
 15 11  1  0  0  0
  9  1  1  0  0  0
 33 29  2  0  0  0
  8  3  1  0  0  0
 41 36  1  0  0  0
 15 16  1  0  0  0
  9 10  1  0  0  0
M  END
> <minimizedAffinity>
-7.49845

> <CNNscore>
0.7003264427

> <CNNaffinity>
7.3729324341

> <CNN_VS>
5.1634597778

> <CNNaffinity_variance>
0.1346139461

$$$$
[H]c1c(OC([H])([H])[H])c([H])c(C([H])([H])C([H])([H])c2c([H])c(-c3nc4c([H])c([H])c(-c5nn(C([H])([H])C([H])([H])N6C([H])([H])C([H])([H])OC([H])([H])C6([H])[H])c([H])c5[H])c([H])c4n3[H])nn2[H])c([H])c1OC([H])([H])[H]


 41 46  0  0  0  0  0  0  0  0999 V2000
   -0.5666   21.8049  -23.4975 C   0  0  0  0  0  0  0  0  0  0  0  0
   -1.6862   21.8120  -22.7528 N   0  0  0  0  0  0  0  0  0  0  0  0
   -1.3536   21.5687  -21.4698 C   0  0  0  0  0  0  0  0  0  0  0  0
   -2.0634   21.4597  -20.2880 C   0  0  0  0  0  0  0  0  0  0  0  0
   -1.4053   21.1959  -19.1060 C   0  0  0  0  0  0  0  0  0  0  0  0
   -0.0220   21.0296  -19.0440 C   0  0  0  0  0  0  0  0  0  0  0  0
    0.6695   21.1414  -20.2301 C   0  0  0  0  0  0  0  0  0  0  0  0
    0.0114   21.4063  -21.4186 C   0  0  0  0  0  0  0  0  0  0  0  0
    0.4599   21.5557  -22.6669 N   0  0  0  0  0  0  0  0  0  0  0  0
    1.4533   21.4900  -22.9570 H   0  0  0  0  0  0  0  0  0  0  0  0
   -0.9057   22.6001  -27.0753 C   0  0  0  0  0  0  0  0  0  0  0  0
   -1.3985   22.5584  -25.7811 C   0  0  0  0  0  0  0  0  0  0  0  0
   -0.4455   22.0232  -24.9419 C   0  0  0  0  0  0  0  0  0  0  0  0
    0.6068   21.7492  -25.7342 N   0  0  0  0  0  0  0  0  0  0  0  0
    0.3323   22.0914  -26.9980 N   0  0  0  0  0  0  0  0  0  0  0  0
    0.9613   21.9945  -27.8343 H   0  0  0  0  0  0  0  0  0  0  0  0
   -1.6039   23.0990  -28.2748 C   0  0  0  0  0  0  0  0  0  0  0  0
   -3.0578   22.6719  -28.3261 C   0  0  0  0  0  0  0  0  0  0  0  0
   -5.2874   25.6660  -28.9861 C   0  0  0  0  0  0  0  0  0  0  0  0
   -4.5003   24.5354  -29.1686 C   0  0  0  0  0  0  0  0  0  0  0  0
   -3.8956   23.8798  -28.1186 C   0  0  0  0  0  0  0  0  0  0  0  0
   -4.1030   24.3986  -26.8371 C   0  0  0  0  0  0  0  0  0  0  0  0
   -4.8785   25.5170  -26.6331 C   0  0  0  0  0  0  0  0  0  0  0  0
   -5.4674   26.1469  -27.7024 C   0  0  0  0  0  0  0  0  0  0  0  0
   -5.3448   25.8371  -31.3873 C   0  0  0  0  0  0  0  0  0  0  0  0
   -5.8454   26.2438  -30.1054 O   0  0  0  0  0  0  0  0  0  0  0  0
   -5.0773   26.0212  -25.3627 O   0  0  0  0  0  0  0  0  0  0  0  0
   -4.2461   27.0929  -24.8950 C   0  0  0  0  0  0  0  0  0  0  0  0
    0.6457   20.7519  -17.7822 C   0  0  0  0  0  0  0  0  0  0  0  0
    0.7543   19.5354  -17.1558 C   0  0  0  0  0  0  0  0  0  0  0  0
    1.4685   19.7563  -15.9894 C   0  0  0  0  0  0  0  0  0  0  0  0
    1.7810   21.0666  -15.9150 N   0  0  0  0  0  0  0  0  0  0  0  0
    1.2760   21.6289  -16.9982 N   0  0  0  0  0  0  0  0  0  0  0  0
    2.5199   21.7275  -14.8615 C   0  0  0  0  0  0  0  0  0  0  0  0
    2.9005   23.1408  -15.2798 C   0  0  0  0  0  0  0  0  0  0  0  0
    4.0686   23.1150  -16.1313 N   0  0  0  0  0  0  0  0  0  0  0  0
    5.2635   23.0142  -15.3770 C   0  0  0  0  0  0  0  0  0  0  0  0
    6.4666   23.5833  -16.0828 C   0  0  0  0  0  0  0  0  0  0  0  0
    6.1354   24.9226  -16.3852 O   0  0  0  0  0  0  0  0  0  0  0  0
    5.1818   24.9499  -17.3737 C   0  0  0  0  0  0  0  0  0  0  0  0
    3.9815   24.1028  -17.1369 C   0  0  0  0  0  0  0  0  0  0  0  0
 25 26  1  0  0  0
 26 19  1  0  0  0
 19 20  2  0  0  0
 20 21  1  0  0  0
 21 18  1  0  0  0
 18 17  1  0  0  0
 17 11  1  0  0  0
 11 12  2  0  0  0
 12 13  1  0  0  0
 13 14  2  0  0  0
 14 15  1  0  0  0
 13  1  1  0  0  0
  1  2  2  0  0  0
  2  3  1  0  0  0
  3  4  2  0  0  0
  4  5  1  0  0  0
  5  6  2  0  0  0
  6  7  1  0  0  0
  7  8  2  0  0  0
  8  9  1  0  0  0
  6 29  1  0  0  0
 29 30  1  0  0  0
 30 31  2  0  0  0
 31 32  1  0  0  0
 32 34  1  0  0  0
 34 35  1  0  0  0
 35 36  1  0  0  0
 36 37  1  0  0  0
 37 38  1  0  0  0
 38 39  1  0  0  0
 39 40  1  0  0  0
 40 41  1  0  0  0
 32 33  1  0  0  0
 21 22  2  0  0  0
 22 23  1  0  0  0
 23 27  1  0  0  0
 27 28  1  0  0  0
 23 24  2  0  0  0
 24 19  1  0  0  0
 15 11  1  0  0  0
  9  1  1  0  0  0
 33 29  2  0  0  0
  8  3  1  0  0  0
 41 36  1  0  0  0
 15 16  1  0  0  0
  9 10  1  0  0  0
M  END
> <minimizedAffinity>
-8.35341

> <CNNscore>
0.4360677600

> <CNNaffinity>
7.0721368790

> <CNN_VS>
3.0839309692

> <CNNaffinity_variance>
0.1937736273

$$$$
[H]c1c(OC([H])([H])[H])c([H])c(C([H])([H])C([H])([H])c2c([H])c(-c3nc4c([H])c([H])c(-c5nn(C([H])([H])C([H])([H])N6C([H])([H])C([H])([H])OC([H])([H])C6([H])[H])c([H])c5[H])c([H])c4n3[H])nn2[H])c([H])c1OC([H])([H])[H]


 41 46  0  0  0  0  0  0  0  0999 V2000
   -0.5125   21.6743  -23.3146 C   0  0  0  0  0  0  0  0  0  0  0  0
    0.3823   21.1579  -22.4538 N   0  0  0  0  0  0  0  0  0  0  0  0
   -0.1916   21.0644  -21.2381 C   0  0  0  0  0  0  0  0  0  0  0  0
    0.2302   20.6203  -19.9983 C   0  0  0  0  0  0  0  0  0  0  0  0
   -0.6273   20.6580  -18.9199 C   0  0  0  0  0  0  0  0  0  0  0  0
   -1.9338   21.1350  -19.0227 C   0  0  0  0  0  0  0  0  0  0  0  0
   -2.3377   21.5734  -20.2646 C   0  0  0  0  0  0  0  0  0  0  0  0
   -1.4788   21.5367  -21.3494 C   0  0  0  0  0  0  0  0  0  0  0  0
   -1.6426   21.8996  -22.6235 N   0  0  0  0  0  0  0  0  0  0  0  0
   -2.5124   22.2969  -23.0247 H   0  0  0  0  0  0  0  0  0  0  0  0
   -0.7112   22.5877  -26.8747 C   0  0  0  0  0  0  0  0  0  0  0  0
   -1.2660   22.4719  -25.6104 C   0  0  0  0  0  0  0  0  0  0  0  0
   -0.3300   21.9536  -24.7420 C   0  0  0  0  0  0  0  0  0  0  0  0
    0.7738   21.7632  -25.4872 N   0  0  0  0  0  0  0  0  0  0  0  0
    0.5461   22.1393  -26.7507 N   0  0  0  0  0  0  0  0  0  0  0  0
    1.2208   22.1061  -27.5558 H   0  0  0  0  0  0  0  0  0  0  0  0
   -1.3729   23.0964  -28.0907 C   0  0  0  0  0  0  0  0  0  0  0  0
   -2.8193   22.6544  -28.1986 C   0  0  0  0  0  0  0  0  0  0  0  0
   -4.7940   25.3836  -26.4599 C   0  0  0  0  0  0  0  0  0  0  0  0
   -3.9923   24.2726  -26.6924 C   0  0  0  0  0  0  0  0  0  0  0  0
   -3.6780   23.8422  -27.9629 C   0  0  0  0  0  0  0  0  0  0  0  0
   -4.2021   24.5735  -29.0329 C   0  0  0  0  0  0  0  0  0  0  0  0
   -4.9982   25.6767  -28.8260 C   0  0  0  0  0  0  0  0  0  0  0  0
   -5.2923   26.0792  -27.5459 C   0  0  0  0  0  0  0  0  0  0  0  0
   -6.3204   26.3113  -24.8451 C   0  0  0  0  0  0  0  0  0  0  0  0
   -5.0456   25.7272  -25.1497 O   0  0  0  0  0  0  0  0  0  0  0  0
   -5.5106   26.3924  -29.8903 O   0  0  0  0  0  0  0  0  0  0  0  0
   -5.3363   25.8899  -31.2228 C   0  0  0  0  0  0  0  0  0  0  0  0
   -2.8167   21.1631  -17.8674 C   0  0  0  0  0  0  0  0  0  0  0  0
   -3.8228   20.2763  -17.5753 C   0  0  0  0  0  0  0  0  0  0  0  0
   -4.3880   20.7016  -16.3841 C   0  0  0  0  0  0  0  0  0  0  0  0
   -3.7420   21.8115  -15.9706 N   0  0  0  0  0  0  0  0  0  0  0  0
   -2.8133   22.0575  -16.8769 N   0  0  0  0  0  0  0  0  0  0  0  0
   -4.0104   22.5813  -14.7757 C   0  0  0  0  0  0  0  0  0  0  0  0
   -5.1549   23.5566  -15.0128 C   0  0  0  0  0  0  0  0  0  0  0  0
   -5.6739   24.0377  -13.7521 N   0  0  0  0  0  0  0  0  0  0  0  0
   -4.8354   23.6758  -12.6691 C   0  0  0  0  0  0  0  0  0  0  0  0
   -5.5636   23.5828  -11.3536 C   0  0  0  0  0  0  0  0  0  0  0  0
   -6.6064   22.6523  -11.5578 O   0  0  0  0  0  0  0  0  0  0  0  0
   -7.5615   23.2027  -12.3775 C   0  0  0  0  0  0  0  0  0  0  0  0
   -7.0605   23.7894  -13.6500 C   0  0  0  0  0  0  0  0  0  0  0  0
 25 26  1  0  0  0
 26 19  1  0  0  0
 19 20  2  0  0  0
 20 21  1  0  0  0
 21 18  1  0  0  0
 18 17  1  0  0  0
 17 11  1  0  0  0
 11 12  2  0  0  0
 12 13  1  0  0  0
 13 14  2  0  0  0
 14 15  1  0  0  0
 13  1  1  0  0  0
  1  2  2  0  0  0
  2  3  1  0  0  0
  3  4  2  0  0  0
  4  5  1  0  0  0
  5  6  2  0  0  0
  6  7  1  0  0  0
  7  8  2  0  0  0
  8  9  1  0  0  0
  6 29  1  0  0  0
 29 30  1  0  0  0
 30 31  2  0  0  0
 31 32  1  0  0  0
 32 34  1  0  0  0
 34 35  1  0  0  0
 35 36  1  0  0  0
 36 37  1  0  0  0
 37 38  1  0  0  0
 38 39  1  0  0  0
 39 40  1  0  0  0
 40 41  1  0  0  0
 32 33  1  0  0  0
 21 22  2  0  0  0
 22 23  1  0  0  0
 23 27  1  0  0  0
 27 28  1  0  0  0
 23 24  2  0  0  0
 24 19  1  0  0  0
 15 11  1  0  0  0
  9  1  1  0  0  0
 33 29  2  0  0  0
  8  3  1  0  0  0
 41 36  1  0  0  0
 15 16  1  0  0  0
  9 10  1  0  0  0
M  END
> <minimizedAffinity>
-7.64757

> <CNNscore>
0.4096555412

> <CNNaffinity>
6.9977149963

> <CNN_VS>
2.8666527271

> <CNNaffinity_variance>
0.3406397998

$$$$
[H]c1c(OC([H])([H])[H])c([H])c(C([H])([H])C([H])([H])c2c([H])c(-c3nc4c([H])c([H])c(-c5nn(C([H])([H])C([H])([H])N6C([H])([H])C([H])([H])OC([H])([H])C6([H])[H])c([H])c5[H])c([H])c4n3[H])nn2[H])c([H])c1OC([H])([H])[H]


 41 46  0  0  0  0  0  0  0  0999 V2000
   -0.4263   21.6926  -23.2791 C   0  0  0  0  0  0  0  0  0  0  0  0
    0.4444   21.0891  -22.4510 N   0  0  0  0  0  0  0  0  0  0  0  0
   -0.1022   21.0253  -21.2209 C   0  0  0  0  0  0  0  0  0  0  0  0
    0.3138   20.5279  -19.9995 C   0  0  0  0  0  0  0  0  0  0  0  0
   -0.5080   20.6208  -18.8969 C   0  0  0  0  0  0  0  0  0  0  0  0
   -1.7717   21.2079  -18.9564 C   0  0  0  0  0  0  0  0  0  0  0  0
   -2.1703   21.6981  -20.1804 C   0  0  0  0  0  0  0  0  0  0  0  0
   -1.3473   21.6062  -21.2894 C   0  0  0  0  0  0  0  0  0  0  0  0
   -1.5141   22.0015  -22.5534 N   0  0  0  0  0  0  0  0  0  0  0  0
   -2.3576   22.4770  -22.9245 H   0  0  0  0  0  0  0  0  0  0  0  0
   -0.6735   22.5900  -26.8403 C   0  0  0  0  0  0  0  0  0  0  0  0
   -1.2202   22.4504  -25.5748 C   0  0  0  0  0  0  0  0  0  0  0  0
   -0.2595   21.9778  -24.7073 C   0  0  0  0  0  0  0  0  0  0  0  0
    0.8508   21.8380  -25.4542 N   0  0  0  0  0  0  0  0  0  0  0  0
    0.6036   22.2011  -26.7178 N   0  0  0  0  0  0  0  0  0  0  0  0
    1.2778   22.1982  -27.5240 H   0  0  0  0  0  0  0  0  0  0  0  0
   -1.3603   23.0653  -28.0558 C   0  0  0  0  0  0  0  0  0  0  0  0
   -2.8007   22.5984  -28.1350 C   0  0  0  0  0  0  0  0  0  0  0  0
   -4.8991   25.2772  -26.4641 C   0  0  0  0  0  0  0  0  0  0  0  0
   -4.0818   24.1726  -26.6706 C   0  0  0  0  0  0  0  0  0  0  0  0
   -3.6752   23.7799  -27.9271 C   0  0  0  0  0  0  0  0  0  0  0  0
   -4.1203   24.5436  -29.0101 C   0  0  0  0  0  0  0  0  0  0  0  0
   -4.9302   25.6412  -28.8290 C   0  0  0  0  0  0  0  0  0  0  0  0
   -5.3173   26.0057  -27.5623 C   0  0  0  0  0  0  0  0  0  0  0  0
   -5.3913   24.4949  -24.2406 C   0  0  0  0  0  0  0  0  0  0  0  0
   -5.2460   25.5819  -25.1661 O   0  0  0  0  0  0  0  0  0  0  0  0
   -5.3640   26.3891  -29.9060 O   0  0  0  0  0  0  0  0  0  0  0  0
   -5.3095   25.8212  -31.2224 C   0  0  0  0  0  0  0  0  0  0  0  0
   -2.6174   21.2922  -17.7763 C   0  0  0  0  0  0  0  0  0  0  0  0
   -2.2186   21.5708  -16.4928 C   0  0  0  0  0  0  0  0  0  0  0  0
   -3.3620   21.5426  -15.7111 C   0  0  0  0  0  0  0  0  0  0  0  0
   -4.4183   21.2557  -16.4997 N   0  0  0  0  0  0  0  0  0  0  0  0
   -3.9388   21.1132  -17.7220 N   0  0  0  0  0  0  0  0  0  0  0  0
   -5.8004   21.1277  -16.0920 C   0  0  0  0  0  0  0  0  0  0  0  0
   -6.4436   19.9167  -16.7530 C   0  0  0  0  0  0  0  0  0  0  0  0
   -7.8294   20.1901  -17.0616 N   0  0  0  0  0  0  0  0  0  0  0  0
   -7.9584   21.2476  -17.9954 C   0  0  0  0  0  0  0  0  0  0  0  0
   -9.2739   21.9752  -17.8975 C   0  0  0  0  0  0  0  0  0  0  0  0
   -9.3641   22.4258  -16.5619 O   0  0  0  0  0  0  0  0  0  0  0  0
   -9.5647   21.3542  -15.7262 C   0  0  0  0  0  0  0  0  0  0  0  0
   -8.6108   20.2232  -15.8856 C   0  0  0  0  0  0  0  0  0  0  0  0
 25 26  1  0  0  0
 26 19  1  0  0  0
 19 20  2  0  0  0
 20 21  1  0  0  0
 21 18  1  0  0  0
 18 17  1  0  0  0
 17 11  1  0  0  0
 11 12  2  0  0  0
 12 13  1  0  0  0
 13 14  2  0  0  0
 14 15  1  0  0  0
 13  1  1  0  0  0
  1  2  2  0  0  0
  2  3  1  0  0  0
  3  4  2  0  0  0
  4  5  1  0  0  0
  5  6  2  0  0  0
  6  7  1  0  0  0
  7  8  2  0  0  0
  8  9  1  0  0  0
  6 29  1  0  0  0
 29 30  1  0  0  0
 30 31  2  0  0  0
 31 32  1  0  0  0
 32 34  1  0  0  0
 34 35  1  0  0  0
 35 36  1  0  0  0
 36 37  1  0  0  0
 37 38  1  0  0  0
 38 39  1  0  0  0
 39 40  1  0  0  0
 40 41  1  0  0  0
 32 33  1  0  0  0
 21 22  2  0  0  0
 22 23  1  0  0  0
 23 27  1  0  0  0
 27 28  1  0  0  0
 23 24  2  0  0  0
 24 19  1  0  0  0
 15 11  1  0  0  0
  9  1  1  0  0  0
 33 29  2  0  0  0
  8  3  1  0  0  0
 41 36  1  0  0  0
 15 16  1  0  0  0
  9 10  1  0  0  0
M  END
> <minimizedAffinity>
-7.65220

> <CNNscore>
0.4079624414

> <CNNaffinity>
7.0819425583

> <CNN_VS>
2.8891665936

> <CNNaffinity_variance>
0.2160097361

$$$$
[H]c1c(OC([H])([H])[H])c([H])c(C([H])([H])C([H])([H])c2c([H])c(-c3nc4c([H])c([H])c(-c5nn(C([H])([H])C([H])([H])N6C([H])([H])C([H])([H])OC([H])([H])C6([H])[H])c([H])c5[H])c([H])c4n3[H])nn2[H])c([H])c1OC([H])([H])[H]


 41 46  0  0  0  0  0  0  0  0999 V2000
    0.9469   21.5276  -24.0763 C   0  0  0  0  0  0  0  0  0  0  0  0
    0.9427   21.7170  -25.4075 N   0  0  0  0  0  0  0  0  0  0  0  0
   -0.2860   22.1240  -25.7824 C   0  0  0  0  0  0  0  0  0  0  0  0
   -0.8689   22.4629  -26.9898 C   0  0  0  0  0  0  0  0  0  0  0  0
   -2.1908   22.8504  -27.0368 C   0  0  0  0  0  0  0  0  0  0  0  0
   -2.9887   22.9187  -25.8949 C   0  0  0  0  0  0  0  0  0  0  0  0
   -2.3924   22.5779  -24.7009 C   0  0  0  0  0  0  0  0  0  0  0  0
   -1.0652   22.1884  -24.6505 C   0  0  0  0  0  0  0  0  0  0  0  0
   -0.2867   21.8199  -23.6308 N   0  0  0  0  0  0  0  0  0  0  0  0
   -0.5860   21.7660  -22.6394 H   0  0  0  0  0  0  0  0  0  0  0  0
    3.3454   20.6199  -21.4359 C   0  0  0  0  0  0  0  0  0  0  0  0
    2.1252   21.1231  -21.8576 C   0  0  0  0  0  0  0  0  0  0  0  0
    2.0627   21.0875  -23.2337 C   0  0  0  0  0  0  0  0  0  0  0  0
    3.2393   20.5660  -23.6259 N   0  0  0  0  0  0  0  0  0  0  0  0
    3.9981   20.2897  -22.5593 N   0  0  0  0  0  0  0  0  0  0  0  0
    4.9643   19.8762  -22.5559 H   0  0  0  0  0  0  0  0  0  0  0  0
    3.8154   20.4826  -20.0447 C   0  0  0  0  0  0  0  0  0  0  0  0
    5.3087   20.7060  -19.9064 C   0  0  0  0  0  0  0  0  0  0  0  0
    6.9163   23.8238  -18.4692 C   0  0  0  0  0  0  0  0  0  0  0  0
    6.7140   22.6422  -19.1719 C   0  0  0  0  0  0  0  0  0  0  0  0
    5.5132   21.9671  -19.1504 C   0  0  0  0  0  0  0  0  0  0  0  0
    4.4834   22.5198  -18.3834 C   0  0  0  0  0  0  0  0  0  0  0  0
    4.6615   23.6888  -17.6795 C   0  0  0  0  0  0  0  0  0  0  0  0
    5.8719   24.3370  -17.7226 C   0  0  0  0  0  0  0  0  0  0  0  0
    9.2304   23.6398  -19.1091 C   0  0  0  0  0  0  0  0  0  0  0  0
    8.1563   24.4172  -18.5602 O   0  0  0  0  0  0  0  0  0  0  0  0
    3.6373   24.2265  -16.9249 O   0  0  0  0  0  0  0  0  0  0  0  0
    3.4513   23.7796  -15.5743 C   0  0  0  0  0  0  0  0  0  0  0  0
   -4.3810   23.3311  -25.9747 C   0  0  0  0  0  0  0  0  0  0  0  0
   -5.1849   23.3135  -27.0871 C   0  0  0  0  0  0  0  0  0  0  0  0
   -6.4210   23.7941  -26.6863 C   0  0  0  0  0  0  0  0  0  0  0  0
   -6.3638   24.0924  -25.3719 N   0  0  0  0  0  0  0  0  0  0  0  0
   -5.1355   23.8044  -24.9809 N   0  0  0  0  0  0  0  0  0  0  0  0
   -7.4310   24.6225  -24.5517 C   0  0  0  0  0  0  0  0  0  0  0  0
   -6.8835   25.1381  -23.2282 C   0  0  0  0  0  0  0  0  0  0  0  0
   -7.7798   24.7958  -22.1467 N   0  0  0  0  0  0  0  0  0  0  0  0
   -8.5418   25.9133  -21.7255 C   0  0  0  0  0  0  0  0  0  0  0  0
   -9.0002   25.8196  -20.2935 C   0  0  0  0  0  0  0  0  0  0  0  0
   -7.8267   25.6514  -19.5257 O   0  0  0  0  0  0  0  0  0  0  0  0
   -7.3080   24.3983  -19.7447 C   0  0  0  0  0  0  0  0  0  0  0  0
   -7.1186   24.0178  -21.1708 C   0  0  0  0  0  0  0  0  0  0  0  0
 25 26  1  0  0  0
 26 19  1  0  0  0
 19 20  2  0  0  0
 20 21  1  0  0  0
 21 18  1  0  0  0
 18 17  1  0  0  0
 17 11  1  0  0  0
 11 12  2  0  0  0
 12 13  1  0  0  0
 13 14  2  0  0  0
 14 15  1  0  0  0
 13  1  1  0  0  0
  1  2  2  0  0  0
  2  3  1  0  0  0
  3  4  2  0  0  0
  4  5  1  0  0  0
  5  6  2  0  0  0
  6  7  1  0  0  0
  7  8  2  0  0  0
  8  9  1  0  0  0
  6 29  1  0  0  0
 29 30  1  0  0  0
 30 31  2  0  0  0
 31 32  1  0  0  0
 32 34  1  0  0  0
 34 35  1  0  0  0
 35 36  1  0  0  0
 36 37  1  0  0  0
 37 38  1  0  0  0
 38 39  1  0  0  0
 39 40  1  0  0  0
 40 41  1  0  0  0
 32 33  1  0  0  0
 21 22  2  0  0  0
 22 23  1  0  0  0
 23 27  1  0  0  0
 27 28  1  0  0  0
 23 24  2  0  0  0
 24 19  1  0  0  0
 15 11  1  0  0  0
  9  1  1  0  0  0
 33 29  2  0  0  0
  8  3  1  0  0  0
 41 36  1  0  0  0
 15 16  1  0  0  0
  9 10  1  0  0  0
M  END
> <minimizedAffinity>
-8.77588

> <CNNscore>
0.3262943625

> <CNNaffinity>
6.7245941162

> <CNN_VS>
2.1941971779

> <CNNaffinity_variance>
0.0323665850

$$$$
[H]c1c(OC([H])([H])[H])c([H])c(C([H])([H])C([H])([H])c2c([H])c(-c3nc4c([H])c([H])c(-c5nn(C([H])([H])C([H])([H])N6C([H])([H])C([H])([H])OC([H])([H])C6([H])[H])c([H])c5[H])c([H])c4n3[H])nn2[H])c([H])c1OC([H])([H])[H]


 41 46  0  0  0  0  0  0  0  0999 V2000
    0.9427   21.5249  -24.0978 C   0  0  0  0  0  0  0  0  0  0  0  0
    0.9091   21.7190  -25.4280 N   0  0  0  0  0  0  0  0  0  0  0  0
   -0.3258   22.1334  -25.7733 C   0  0  0  0  0  0  0  0  0  0  0  0
   -0.9344   22.4793  -26.9659 C   0  0  0  0  0  0  0  0  0  0  0  0
   -2.2550   22.8735  -26.9814 C   0  0  0  0  0  0  0  0  0  0  0  0
   -3.0263   22.9418  -25.8214 C   0  0  0  0  0  0  0  0  0  0  0  0
   -2.4046   22.5939  -24.6424 C   0  0  0  0  0  0  0  0  0  0  0  0
   -1.0786   22.1977  -24.6237 C   0  0  0  0  0  0  0  0  0  0  0  0
   -0.2789   21.8217  -23.6233 N   0  0  0  0  0  0  0  0  0  0  0  0
   -0.5558   21.7659  -22.6255 H   0  0  0  0  0  0  0  0  0  0  0  0
    3.3989   20.6021  -21.5164 C   0  0  0  0  0  0  0  0  0  0  0  0
    2.1735   21.1163  -21.9086 C   0  0  0  0  0  0  0  0  0  0  0  0
    2.0753   21.0764  -23.2825 C   0  0  0  0  0  0  0  0  0  0  0  0
    3.2360   20.5413  -23.7027 N   0  0  0  0  0  0  0  0  0  0  0  0
    4.0191   20.2610  -22.6549 N   0  0  0  0  0  0  0  0  0  0  0  0
    4.9808   19.8376  -22.6746 H   0  0  0  0  0  0  0  0  0  0  0  0
    3.9030   20.4650  -20.1372 C   0  0  0  0  0  0  0  0  0  0  0  0
    5.3746   20.8095  -20.0147 C   0  0  0  0  0  0  0  0  0  0  0  0
    4.5266   23.6542  -17.6568 C   0  0  0  0  0  0  0  0  0  0  0  0
    4.4308   22.5102  -18.4399 C   0  0  0  0  0  0  0  0  0  0  0  0
    5.4887   22.0337  -19.1828 C   0  0  0  0  0  0  0  0  0  0  0  0
    6.6863   22.7523  -19.1228 C   0  0  0  0  0  0  0  0  0  0  0  0
    6.8037   23.8877  -18.3542 C   0  0  0  0  0  0  0  0  0  0  0  0
    5.7290   24.3358  -17.6252 C   0  0  0  0  0  0  0  0  0  0  0  0
    3.3778   23.7751  -15.5440 C   0  0  0  0  0  0  0  0  0  0  0  0
    3.4075   24.0427  -16.9535 O   0  0  0  0  0  0  0  0  0  0  0  0
    7.9917   24.5902  -18.3018 O   0  0  0  0  0  0  0  0  0  0  0  0
    9.2334   23.8757  -18.3785 C   0  0  0  0  0  0  0  0  0  0  0  0
   -4.4180   23.3613  -25.8679 C   0  0  0  0  0  0  0  0  0  0  0  0
   -5.2584   23.3153  -26.9521 C   0  0  0  0  0  0  0  0  0  0  0  0
   -6.4776   23.8166  -26.5259 C   0  0  0  0  0  0  0  0  0  0  0  0
   -6.3751   24.1547  -25.2239 N   0  0  0  0  0  0  0  0  0  0  0  0
   -5.1363   23.8702  -24.8649 N   0  0  0  0  0  0  0  0  0  0  0  0
   -7.4113   24.7172  -24.3858 C   0  0  0  0  0  0  0  0  0  0  0  0
   -7.4061   24.0588  -23.0133 C   0  0  0  0  0  0  0  0  0  0  0  0
   -7.0231   25.0153  -21.9991 N   0  0  0  0  0  0  0  0  0  0  0  0
   -6.4209   24.3822  -20.8840 C   0  0  0  0  0  0  0  0  0  0  0  0
   -6.5622   25.1636  -19.6037 C   0  0  0  0  0  0  0  0  0  0  0  0
   -7.9497   25.3578  -19.4246 O   0  0  0  0  0  0  0  0  0  0  0  0
   -8.4149   26.2502  -20.3596 C   0  0  0  0  0  0  0  0  0  0  0  0
   -8.0565   25.9511  -21.7726 C   0  0  0  0  0  0  0  0  0  0  0  0
 25 26  1  0  0  0
 26 19  1  0  0  0
 19 20  2  0  0  0
 20 21  1  0  0  0
 21 18  1  0  0  0
 18 17  1  0  0  0
 17 11  1  0  0  0
 11 12  2  0  0  0
 12 13  1  0  0  0
 13 14  2  0  0  0
 14 15  1  0  0  0
 13  1  1  0  0  0
  1  2  2  0  0  0
  2  3  1  0  0  0
  3  4  2  0  0  0
  4  5  1  0  0  0
  5  6  2  0  0  0
  6  7  1  0  0  0
  7  8  2  0  0  0
  8  9  1  0  0  0
  6 29  1  0  0  0
 29 30  1  0  0  0
 30 31  2  0  0  0
 31 32  1  0  0  0
 32 34  1  0  0  0
 34 35  1  0  0  0
 35 36  1  0  0  0
 36 37  1  0  0  0
 37 38  1  0  0  0
 38 39  1  0  0  0
 39 40  1  0  0  0
 40 41  1  0  0  0
 32 33  1  0  0  0
 21 22  2  0  0  0
 22 23  1  0  0  0
 23 27  1  0  0  0
 27 28  1  0  0  0
 23 24  2  0  0  0
 24 19  1  0  0  0
 15 11  1  0  0  0
  9  1  1  0  0  0
 33 29  2  0  0  0
  8  3  1  0  0  0
 41 36  1  0  0  0
 15 16  1  0  0  0
  9 10  1  0  0  0
M  END
> <minimizedAffinity>
-8.80753

> <CNNscore>
0.3199015856

> <CNNaffinity>
6.6850824356

> <CNN_VS>
2.1385684013

> <CNNaffinity_variance>
0.0653372556

$$$$
[H]c1c(OC([H])([H])[H])c([H])c(C([H])([H])C([H])([H])c2c([H])c(-c3nc4c([H])c([H])c(-c5nn(C([H])([H])C([H])([H])N6C([H])([H])C([H])([H])OC([H])([H])C6([H])[H])c([H])c5[H])c([H])c4n3[H])nn2[H])c([H])c1OC([H])([H])[H]


 41 46  0  0  0  0  0  0  0  0999 V2000
   -0.9890   22.2326  -25.1734 C   0  0  0  0  0  0  0  0  0  0  0  0
    0.3075   21.9733  -25.4188 N   0  0  0  0  0  0  0  0  0  0  0  0
    0.8985   21.5971  -24.2676 C   0  0  0  0  0  0  0  0  0  0  0  0
    2.1808   21.2186  -23.9145 C   0  0  0  0  0  0  0  0  0  0  0  0
    2.4699   20.8830  -22.6093 C   0  0  0  0  0  0  0  0  0  0  0  0
    1.5054   20.9076  -21.6022 C   0  0  0  0  0  0  0  0  0  0  0  0
    0.2336   21.2867  -21.9711 C   0  0  0  0  0  0  0  0  0  0  0  0
   -0.0597   21.6243  -23.2809 C   0  0  0  0  0  0  0  0  0  0  0  0
   -1.1955   22.0145  -23.8637 N   0  0  0  0  0  0  0  0  0  0  0  0
   -2.1053   22.1329  -23.3803 H   0  0  0  0  0  0  0  0  0  0  0  0
   -3.8416   23.6524  -27.0159 C   0  0  0  0  0  0  0  0  0  0  0  0
   -3.1106   23.4611  -25.8545 C   0  0  0  0  0  0  0  0  0  0  0  0
   -2.0144   22.6712  -26.1247 C   0  0  0  0  0  0  0  0  0  0  0  0
   -2.0947   22.3956  -27.4391 N   0  0  0  0  0  0  0  0  0  0  0  0
   -3.1781   22.9778  -27.9655 N   0  0  0  0  0  0  0  0  0  0  0  0
   -3.4986   22.9390  -28.9657 H   0  0  0  0  0  0  0  0  0  0  0  0
   -5.0841   24.4333  -27.1636 C   0  0  0  0  0  0  0  0  0  0  0  0
   -6.3289   23.6074  -26.9042 C   0  0  0  0  0  0  0  0  0  0  0  0
   -7.7701   24.8986  -23.6443 C   0  0  0  0  0  0  0  0  0  0  0  0
   -7.4444   24.7698  -24.9891 C   0  0  0  0  0  0  0  0  0  0  0  0
   -6.6692   23.7350  -25.4649 C   0  0  0  0  0  0  0  0  0  0  0  0
   -6.2111   22.7992  -24.5327 C   0  0  0  0  0  0  0  0  0  0  0  0
   -6.5213   22.9071  -23.1964 C   0  0  0  0  0  0  0  0  0  0  0  0
   -7.2968   23.9515  -22.7551 C   0  0  0  0  0  0  0  0  0  0  0  0
   -9.5632   25.7515  -22.2821 C   0  0  0  0  0  0  0  0  0  0  0  0
   -8.5518   25.9716  -23.2760 O   0  0  0  0  0  0  0  0  0  0  0  0
   -6.0637   21.9769  -22.2838 O   0  0  0  0  0  0  0  0  0  0  0  0
   -4.6627   21.6720  -22.2350 C   0  0  0  0  0  0  0  0  0  0  0  0
    1.8393   20.5483  -20.2330 C   0  0  0  0  0  0  0  0  0  0  0  0
    1.5448   19.3702  -19.5933 C   0  0  0  0  0  0  0  0  0  0  0  0
    2.0557   19.4812  -18.3104 C   0  0  0  0  0  0  0  0  0  0  0  0
    2.6407   20.6900  -18.1807 N   0  0  0  0  0  0  0  0  0  0  0  0
    2.4934   21.2983  -19.3438 N   0  0  0  0  0  0  0  0  0  0  0  0
    3.2975   21.2182  -17.0051 C   0  0  0  0  0  0  0  0  0  0  0  0
    3.7896   22.6363  -17.2583 C   0  0  0  0  0  0  0  0  0  0  0  0
    5.2349   22.6719  -17.2688 N   0  0  0  0  0  0  0  0  0  0  0  0
    5.7547   23.1664  -16.0473 C   0  0  0  0  0  0  0  0  0  0  0  0
    7.1162   23.7957  -16.1875 C   0  0  0  0  0  0  0  0  0  0  0  0
    6.9707   24.8115  -17.1581 O   0  0  0  0  0  0  0  0  0  0  0  0
    6.7869   24.2440  -18.3955 C   0  0  0  0  0  0  0  0  0  0  0  0
    5.7171   23.2131  -18.4810 C   0  0  0  0  0  0  0  0  0  0  0  0
 25 26  1  0  0  0
 26 19  1  0  0  0
 19 20  2  0  0  0
 20 21  1  0  0  0
 21 18  1  0  0  0
 18 17  1  0  0  0
 17 11  1  0  0  0
 11 12  2  0  0  0
 12 13  1  0  0  0
 13 14  2  0  0  0
 14 15  1  0  0  0
 13  1  1  0  0  0
  1  2  2  0  0  0
  2  3  1  0  0  0
  3  4  2  0  0  0
  4  5  1  0  0  0
  5  6  2  0  0  0
  6  7  1  0  0  0
  7  8  2  0  0  0
  8  9  1  0  0  0
  6 29  1  0  0  0
 29 30  1  0  0  0
 30 31  2  0  0  0
 31 32  1  0  0  0
 32 34  1  0  0  0
 34 35  1  0  0  0
 35 36  1  0  0  0
 36 37  1  0  0  0
 37 38  1  0  0  0
 38 39  1  0  0  0
 39 40  1  0  0  0
 40 41  1  0  0  0
 32 33  1  0  0  0
 21 22  2  0  0  0
 22 23  1  0  0  0
 23 27  1  0  0  0
 27 28  1  0  0  0
 23 24  2  0  0  0
 24 19  1  0  0  0
 15 11  1  0  0  0
  9  1  1  0  0  0
 33 29  2  0  0  0
  8  3  1  0  0  0
 41 36  1  0  0  0
 15 16  1  0  0  0
  9 10  1  0  0  0
M  END
> <minimizedAffinity>
-8.34580

> <CNNscore>
0.3129909933

> <CNNaffinity>
6.9222474098

> <CNN_VS>
2.1666011810

> <CNNaffinity_variance>
0.0632374659

$$$$
[H]c1c(OC([H])([H])[H])c([H])c(C([H])([H])C([H])([H])c2c([H])c(-c3nc4c([H])c([H])c(-c5nn(C([H])([H])C([H])([H])N6C([H])([H])C([H])([H])OC([H])([H])C6([H])[H])c([H])c5[H])c([H])c4n3[H])nn2[H])c([H])c1OC([H])([H])[H]


 41 46  0  0  0  0  0  0  0  0999 V2000
   -0.3614   21.6694  -23.3165 C   0  0  0  0  0  0  0  0  0  0  0  0
   -1.4530   21.5108  -22.5475 N   0  0  0  0  0  0  0  0  0  0  0  0
   -1.0600   21.3297  -21.2713 C   0  0  0  0  0  0  0  0  0  0  0  0
   -1.7196   21.1216  -20.0738 C   0  0  0  0  0  0  0  0  0  0  0  0
   -1.0041   20.9691  -18.9057 C   0  0  0  0  0  0  0  0  0  0  0  0
    0.3894   21.0160  -18.8735 C   0  0  0  0  0  0  0  0  0  0  0  0
    1.0304   21.2240  -20.0749 C   0  0  0  0  0  0  0  0  0  0  0  0
    0.3146   21.3775  -21.2495 C   0  0  0  0  0  0  0  0  0  0  0  0
    0.7084   21.5851  -22.5079 N   0  0  0  0  0  0  0  0  0  0  0  0
    1.6939   21.6697  -22.8195 H   0  0  0  0  0  0  0  0  0  0  0  0
   -0.8541   22.4982  -26.8688 C   0  0  0  0  0  0  0  0  0  0  0  0
   -1.2832   22.4619  -25.5519 C   0  0  0  0  0  0  0  0  0  0  0  0
   -0.3057   21.8940  -24.7640 C   0  0  0  0  0  0  0  0  0  0  0  0
    0.6977   21.5953  -25.6091 N   0  0  0  0  0  0  0  0  0  0  0  0
    0.3710   21.9539  -26.8558 N   0  0  0  0  0  0  0  0  0  0  0  0
    0.9548   21.8447  -27.7229 H   0  0  0  0  0  0  0  0  0  0  0  0
   -1.5961   23.0250  -28.0295 C   0  0  0  0  0  0  0  0  0  0  0  0
   -3.0569   22.6188  -28.0239 C   0  0  0  0  0  0  0  0  0  0  0  0
   -4.9016   25.4967  -26.3851 C   0  0  0  0  0  0  0  0  0  0  0  0
   -4.1423   24.3489  -26.5776 C   0  0  0  0  0  0  0  0  0  0  0  0
   -3.8706   23.8454  -27.8309 C   0  0  0  0  0  0  0  0  0  0  0  0
   -4.3940   24.5398  -28.9255 C   0  0  0  0  0  0  0  0  0  0  0  0
   -5.1486   25.6784  -28.7583 C   0  0  0  0  0  0  0  0  0  0  0  0
   -5.4008   26.1539  -27.4944 C   0  0  0  0  0  0  0  0  0  0  0  0
   -6.4547   26.2448  -24.7039 C   0  0  0  0  0  0  0  0  0  0  0  0
   -5.1127   25.9135  -25.0890 O   0  0  0  0  0  0  0  0  0  0  0  0
   -5.6607   26.3571  -29.8467 O   0  0  0  0  0  0  0  0  0  0  0  0
   -5.2417   25.9840  -31.1671 C   0  0  0  0  0  0  0  0  0  0  0  0
    1.1182   20.8517  -17.6257 C   0  0  0  0  0  0  0  0  0  0  0  0
    1.7892   19.7315  -17.2028 C   0  0  0  0  0  0  0  0  0  0  0  0
    2.3245   20.0389  -15.9626 C   0  0  0  0  0  0  0  0  0  0  0  0
    1.9865   21.3063  -15.6474 N   0  0  0  0  0  0  0  0  0  0  0  0
    1.2690   21.7597  -16.6594 N   0  0  0  0  0  0  0  0  0  0  0  0
    2.3364   22.0274  -14.4432 C   0  0  0  0  0  0  0  0  0  0  0  0
    2.9516   23.3768  -14.7869 C   0  0  0  0  0  0  0  0  0  0  0  0
    3.9841   23.2179  -15.7864 N   0  0  0  0  0  0  0  0  0  0  0  0
    5.2514   22.9867  -15.1970 C   0  0  0  0  0  0  0  0  0  0  0  0
    6.4035   23.4155  -16.0678 C   0  0  0  0  0  0  0  0  0  0  0  0
    6.1842   24.7825  -16.3476 O   0  0  0  0  0  0  0  0  0  0  0  0
    5.1148   24.9129  -17.1999 C   0  0  0  0  0  0  0  0  0  0  0  0
    3.8714   24.2060  -16.7892 C   0  0  0  0  0  0  0  0  0  0  0  0
 25 26  1  0  0  0
 26 19  1  0  0  0
 19 20  2  0  0  0
 20 21  1  0  0  0
 21 18  1  0  0  0
 18 17  1  0  0  0
 17 11  1  0  0  0
 11 12  2  0  0  0
 12 13  1  0  0  0
 13 14  2  0  0  0
 14 15  1  0  0  0
 13  1  1  0  0  0
  1  2  2  0  0  0
  2  3  1  0  0  0
  3  4  2  0  0  0
  4  5  1  0  0  0
  5  6  2  0  0  0
  6  7  1  0  0  0
  7  8  2  0  0  0
  8  9  1  0  0  0
  6 29  1  0  0  0
 29 30  1  0  0  0
 30 31  2  0  0  0
 31 32  1  0  0  0
 32 34  1  0  0  0
 34 35  1  0  0  0
 35 36  1  0  0  0
 36 37  1  0  0  0
 37 38  1  0  0  0
 38 39  1  0  0  0
 39 40  1  0  0  0
 40 41  1  0  0  0
 32 33  1  0  0  0
 21 22  2  0  0  0
 22 23  1  0  0  0
 23 27  1  0  0  0
 27 28  1  0  0  0
 23 24  2  0  0  0
 24 19  1  0  0  0
 15 11  1  0  0  0
  9  1  1  0  0  0
 33 29  2  0  0  0
  8  3  1  0  0  0
 41 36  1  0  0  0
 15 16  1  0  0  0
  9 10  1  0  0  0
M  END
> <minimizedAffinity>
-8.30984

> <CNNscore>
0.2771149874

> <CNNaffinity>
6.8465943336

> <CNN_VS>
1.8972939253

> <CNNaffinity_variance>
0.1428664029

$$$$
[H]c1nn(-c2c([H])c([H])c3c(nc(C4([H])C([H])([H])C4([H])[H])n3[H])c2[H])c(N([H])[H])c1C(=O)c1c([H])c2c([H])c([H])c(-c3c([H])nn(C([H])([H])C([H])([H])[H])c3[H])c([H])c2n1[H]


 40 46  0  0  0  0  0  0  0  0999 V2000
    0.5333   21.0997  -21.8752 C   0  0  0  0  0  0  0  0  0  0  0  0
   -0.8023   21.0535  -21.5303 C   0  0  0  0  0  0  0  0  0  0  0  0
   -1.4871   21.3839  -22.6302 N   0  0  0  0  0  0  0  0  0  0  0  0
   -0.6733   21.6343  -23.6414 N   0  0  0  0  0  0  0  0  0  0  0  0
    0.5831   21.4693  -23.2157 C   0  0  0  0  0  0  0  0  0  0  0  0
    1.7479   21.6532  -24.0336 N   0  0  0  0  0  0  0  0  0  0  0  0
    1.8727   21.0634  -24.8762 H   0  0  0  0  0  0  0  0  0  0  0  0
    2.4865   22.3580  -23.8231 H   0  0  0  0  0  0  0  0  0  0  0  0
   -1.1341   22.0106  -24.9252 C   0  0  0  0  0  0  0  0  0  0  0  0
   -0.2743   22.2043  -25.9805 C   0  0  0  0  0  0  0  0  0  0  0  0
   -0.7730   22.5761  -27.2366 C   0  0  0  0  0  0  0  0  0  0  0  0
   -2.1265   22.7492  -27.4187 C   0  0  0  0  0  0  0  0  0  0  0  0
   -2.9198   23.0906  -28.4485 N   0  0  0  0  0  0  0  0  0  0  0  0
   -4.2114   23.1136  -28.0725 C   0  0  0  0  0  0  0  0  0  0  0  0
   -4.2565   22.7838  -26.7864 N   0  0  0  0  0  0  0  0  0  0  0  0
   -3.0000   22.5557  -26.3590 C   0  0  0  0  0  0  0  0  0  0  0  0
   -2.4747   22.1888  -25.1318 C   0  0  0  0  0  0  0  0  0  0  0  0
   -2.5671   23.3038  -29.3953 H   0  0  0  0  0  0  0  0  0  0  0  0
   -5.3978   23.4490  -28.9155 C   0  0  0  0  0  0  0  0  0  0  0  0
   -5.3900   23.1416  -30.3729 C   0  0  0  0  0  0  0  0  0  0  0  0
   -5.2743   24.5547  -29.9064 C   0  0  0  0  0  0  0  0  0  0  0  0
    1.6805   20.8211  -21.0681 C   0  0  0  0  0  0  0  0  0  0  0  0
    2.5247   19.9600  -21.4957 O   0  0  0  0  0  0  0  0  0  0  0  0
    2.3542   22.8940  -15.4577 C   0  0  0  0  0  0  0  0  0  0  0  0
    3.4580   23.4958  -16.0250 C   0  0  0  0  0  0  0  0  0  0  0  0
    3.7823   23.3382  -17.3578 C   0  0  0  0  0  0  0  0  0  0  0  0
    2.9990   22.5592  -18.1822 C   0  0  0  0  0  0  0  0  0  0  0  0
    3.0896   22.2360  -19.5207 C   0  0  0  0  0  0  0  0  0  0  0  0
    2.0135   21.4153  -19.7813 C   0  0  0  0  0  0  0  0  0  0  0  0
    1.3146   21.2647  -18.6236 N   0  0  0  0  0  0  0  0  0  0  0  0
    1.8949   21.9536  -17.6282 C   0  0  0  0  0  0  0  0  0  0  0  0
    1.5681   22.1147  -16.2775 C   0  0  0  0  0  0  0  0  0  0  0  0
    0.4491   20.6917  -18.5281 H   0  0  0  0  0  0  0  0  0  0  0  0
    2.1345   23.7705  -11.9097 N   0  0  0  0  0  0  0  0  0  0  0  0
    2.7336   23.8498  -13.1133 C   0  0  0  0  0  0  0  0  0  0  0  0
    2.0418   23.0839  -14.0351 C   0  0  0  0  0  0  0  0  0  0  0  0
    0.9999   22.5443  -13.3197 C   0  0  0  0  0  0  0  0  0  0  0  0
    1.0734   22.9667  -12.0527 N   0  0  0  0  0  0  0  0  0  0  0  0
    1.2672   25.0663  -10.0434 C   0  0  0  0  0  0  0  0  0  0  0  0
    2.4804   24.3886  -10.6436 C   0  0  0  0  0  0  0  0  0  0  0  0
 39 40  1  0  0  0
 40 34  1  0  0  0
 34 35  1  0  0  0
 35 36  2  0  0  0
 36 37  1  0  0  0
 37 38  2  0  0  0
 36 24  1  0  0  0
 24 25  2  0  0  0
 25 26  1  0  0  0
 26 27  2  0  0  0
 27 28  1  0  0  0
 28 29  2  0  0  0
 29 30  1  0  0  0
 30 31  1  0  0  0
 31 32  2  0  0  0
 29 22  1  0  0  0
 22 23  2  0  0  0
 22  1  1  0  0  0
  1  2  1  0  0  0
  2  3  2  0  0  0
  3  4  1  0  0  0
  4  5  1  0  0  0
  5  6  1  0  0  0
  4  9  1  0  0  0
  9 10  2  0  0  0
 10 11  1  0  0  0
 11 12  2  0  0  0
 12 13  1  0  0  0
 13 14  1  0  0  0
 14 15  2  0  0  0
 15 16  1  0  0  0
 16 17  2  0  0  0
 14 19  1  0  0  0
 19 20  1  0  0  0
 20 21  1  0  0  0
 38 34  1  0  0  0
 32 24  1  0  0  0
  5  1  2  0  0  0
 17  9  1  0  0  0
 21 19  1  0  0  0
 31 27  1  0  0  0
 16 12  1  0  0  0
 30 33  1  0  0  0
  6  7  1  0  0  0
  6  8  1  0  0  0
 13 18  1  0  0  0
M  END
> <minimizedAffinity>
-9.46180

> <CNNscore>
0.2674403787

> <CNNaffinity>
6.3079657555

> <CNN_VS>
1.6870048046

> <CNNaffinity_variance>
0.0723987073

$$$$
[H]c1nn(-c2c([H])c([H])c3c(nc(C4([H])C([H])([H])C4([H])[H])n3[H])c2[H])c(N([H])[H])c1C(=O)c1c([H])c2c([H])c([H])c(-c3c([H])nn(C([H])([H])C([H])([H])[H])c3[H])c([H])c2n1[H]


 40 46  0  0  0  0  0  0  0  0999 V2000
   -7.3196   21.3890  -19.3257 C   0  0  0  0  0  0  0  0  0  0  0  0
   -7.3901   20.2259  -18.5860 C   0  0  0  0  0  0  0  0  0  0  0  0
   -6.9269   20.5254  -17.3680 N   0  0  0  0  0  0  0  0  0  0  0  0
   -6.5705   21.7961  -17.2924 N   0  0  0  0  0  0  0  0  0  0  0  0
   -6.7979   22.3639  -18.4811 C   0  0  0  0  0  0  0  0  0  0  0  0
   -6.5338   23.7410  -18.7866 N   0  0  0  0  0  0  0  0  0  0  0  0
   -7.0235   24.4808  -18.2515 H   0  0  0  0  0  0  0  0  0  0  0  0
   -5.8665   24.0423  -19.5286 H   0  0  0  0  0  0  0  0  0  0  0  0
   -6.0429   22.3790  -16.1159 C   0  0  0  0  0  0  0  0  0  0  0  0
   -4.7221   22.2376  -15.7613 C   0  0  0  0  0  0  0  0  0  0  0  0
   -4.2402   22.8324  -14.5872 C   0  0  0  0  0  0  0  0  0  0  0  0
   -5.0881   23.5608  -13.7837 C   0  0  0  0  0  0  0  0  0  0  0  0
   -4.9685   24.2406  -12.6305 N   0  0  0  0  0  0  0  0  0  0  0  0
   -6.1449   24.7847  -12.2696 C   0  0  0  0  0  0  0  0  0  0  0  0
   -7.0363   24.4547  -13.1978 N   0  0  0  0  0  0  0  0  0  0  0  0
   -6.4217   23.7078  -14.1348 C   0  0  0  0  0  0  0  0  0  0  0  0
   -6.8653   23.1077  -15.3007 C   0  0  0  0  0  0  0  0  0  0  0  0
   -4.0835   24.3234  -12.1051 H   0  0  0  0  0  0  0  0  0  0  0  0
   -6.4324   25.6063  -11.0559 C   0  0  0  0  0  0  0  0  0  0  0  0
   -7.4869   25.1770  -10.0955 C   0  0  0  0  0  0  0  0  0  0  0  0
   -7.7230   26.3479  -10.9907 C   0  0  0  0  0  0  0  0  0  0  0  0
   -7.7027   21.6147  -20.6849 C   0  0  0  0  0  0  0  0  0  0  0  0
   -8.9512   21.6511  -20.9620 O   0  0  0  0  0  0  0  0  0  0  0  0
   -4.7267   22.7713  -25.7871 C   0  0  0  0  0  0  0  0  0  0  0  0
   -3.6933   22.1895  -25.0827 C   0  0  0  0  0  0  0  0  0  0  0  0
   -3.8491   21.7231  -23.7926 C   0  0  0  0  0  0  0  0  0  0  0  0
   -5.0656   21.8250  -23.1526 C   0  0  0  0  0  0  0  0  0  0  0  0
   -5.4905   21.4517  -21.8939 C   0  0  0  0  0  0  0  0  0  0  0  0
   -6.8186   21.8132  -21.8246 C   0  0  0  0  0  0  0  0  0  0  0  0
   -7.1578   22.3829  -23.0129 N   0  0  0  0  0  0  0  0  0  0  0  0
   -6.1045   22.4034  -23.8448 C   0  0  0  0  0  0  0  0  0  0  0  0
   -5.9445   22.8754  -25.1521 C   0  0  0  0  0  0  0  0  0  0  0  0
   -8.1060   22.7513  -23.2403 H   0  0  0  0  0  0  0  0  0  0  0  0
   -4.9059   24.0110  -29.2274 N   0  0  0  0  0  0  0  0  0  0  0  0
   -5.4901   23.6155  -28.0803 C   0  0  0  0  0  0  0  0  0  0  0  0
   -4.5225   23.2572  -27.1581 C   0  0  0  0  0  0  0  0  0  0  0  0
   -3.3320   23.4596  -27.8141 C   0  0  0  0  0  0  0  0  0  0  0  0
   -3.5829   23.9098  -29.0484 N   0  0  0  0  0  0  0  0  0  0  0  0
   -4.9299   25.8300  -30.8415 C   0  0  0  0  0  0  0  0  0  0  0  0
   -5.4919   24.4741  -30.4712 C   0  0  0  0  0  0  0  0  0  0  0  0
 39 40  1  0  0  0
 40 34  1  0  0  0
 34 35  1  0  0  0
 35 36  2  0  0  0
 36 37  1  0  0  0
 37 38  2  0  0  0
 36 24  1  0  0  0
 24 25  2  0  0  0
 25 26  1  0  0  0
 26 27  2  0  0  0
 27 28  1  0  0  0
 28 29  2  0  0  0
 29 30  1  0  0  0
 30 31  1  0  0  0
 31 32  2  0  0  0
 29 22  1  0  0  0
 22 23  2  0  0  0
 22  1  1  0  0  0
  1  2  1  0  0  0
  2  3  2  0  0  0
  3  4  1  0  0  0
  4  5  1  0  0  0
  5  6  1  0  0  0
  4  9  1  0  0  0
  9 10  2  0  0  0
 10 11  1  0  0  0
 11 12  2  0  0  0
 12 13  1  0  0  0
 13 14  1  0  0  0
 14 15  2  0  0  0
 15 16  1  0  0  0
 16 17  2  0  0  0
 14 19  1  0  0  0
 19 20  1  0  0  0
 20 21  1  0  0  0
 38 34  1  0  0  0
 32 24  1  0  0  0
  5  1  2  0  0  0
 17  9  1  0  0  0
 21 19  1  0  0  0
 31 27  1  0  0  0
 16 12  1  0  0  0
 30 33  1  0  0  0
  6  7  1  0  0  0
  6  8  1  0  0  0
 13 18  1  0  0  0
M  END
> <minimizedAffinity>
-7.30824

> <CNNscore>
0.1591034532

> <CNNaffinity>
6.2743215561

> <CNN_VS>
0.9982662201

> <CNNaffinity_variance>
0.3031860888

$$$$
[H]c1nn(-c2c([H])c([H])c3c(nc(C4([H])C([H])([H])C4([H])[H])n3[H])c2[H])c(N([H])[H])c1C(=O)c1c([H])c2c([H])c([H])c(-c3c([H])nn(C([H])([H])C([H])([H])[H])c3[H])c([H])c2n1[H]


 40 46  0  0  0  0  0  0  0  0999 V2000
   -0.1354   20.9794  -21.4492 C   0  0  0  0  0  0  0  0  0  0  0  0
   -1.2220   21.6767  -20.9614 C   0  0  0  0  0  0  0  0  0  0  0  0
   -1.5377   21.1119  -19.7912 N   0  0  0  0  0  0  0  0  0  0  0  0
   -0.7242   20.1083  -19.5112 N   0  0  0  0  0  0  0  0  0  0  0  0
    0.1564   19.9945  -20.5106 C   0  0  0  0  0  0  0  0  0  0  0  0
    1.2017   19.0127  -20.5634 N   0  0  0  0  0  0  0  0  0  0  0  0
    1.9242   19.0024  -19.8210 H   0  0  0  0  0  0  0  0  0  0  0  0
    1.2751   18.2987  -21.3194 H   0  0  0  0  0  0  0  0  0  0  0  0
   -0.8355   19.3329  -18.3328 C   0  0  0  0  0  0  0  0  0  0  0  0
   -0.0948   19.6066  -17.2073 C   0  0  0  0  0  0  0  0  0  0  0  0
   -0.2365   18.8134  -16.0605 C   0  0  0  0  0  0  0  0  0  0  0  0
   -1.1182   17.7562  -16.0565 C   0  0  0  0  0  0  0  0  0  0  0  0
   -1.4923   16.8226  -15.1650 N   0  0  0  0  0  0  0  0  0  0  0  0
   -2.4183   16.0003  -15.6908 C   0  0  0  0  0  0  0  0  0  0  0  0
   -2.6474   16.4045  -16.9354 N   0  0  0  0  0  0  0  0  0  0  0  0
   -1.8688   17.4739  -17.1880 C   0  0  0  0  0  0  0  0  0  0  0  0
   -1.7049   18.2769  -18.3036 C   0  0  0  0  0  0  0  0  0  0  0  0
   -1.1089   16.7599  -14.2083 H   0  0  0  0  0  0  0  0  0  0  0  0
   -3.0815   14.8368  -15.0296 C   0  0  0  0  0  0  0  0  0  0  0  0
   -3.7251   15.0019  -13.6965 C   0  0  0  0  0  0  0  0  0  0  0  0
   -2.4418   14.2494  -13.8191 C   0  0  0  0  0  0  0  0  0  0  0  0
    0.5962   21.1871  -22.6603 C   0  0  0  0  0  0  0  0  0  0  0  0
    1.8574   20.9720  -22.6480 O   0  0  0  0  0  0  0  0  0  0  0  0
   -2.3609   23.0139  -27.5740 C   0  0  0  0  0  0  0  0  0  0  0  0
   -1.0955   22.9454  -28.1185 C   0  0  0  0  0  0  0  0  0  0  0  0
    0.0063   22.5598  -27.3812 C   0  0  0  0  0  0  0  0  0  0  0  0
   -0.1235   22.2239  -26.0507 C   0  0  0  0  0  0  0  0  0  0  0  0
    0.7890   21.8147  -25.0996 C   0  0  0  0  0  0  0  0  0  0  0  0
    0.0646   21.6270  -23.9423 C   0  0  0  0  0  0  0  0  0  0  0  0
   -1.2363   21.9197  -24.2130 N   0  0  0  0  0  0  0  0  0  0  0  0
   -1.3808   22.2881  -25.4957 C   0  0  0  0  0  0  0  0  0  0  0  0
   -2.4959   22.6791  -26.2448 C   0  0  0  0  0  0  0  0  0  0  0  0
   -2.0099   21.8646  -23.5165 H   0  0  0  0  0  0  0  0  0  0  0  0
   -5.0414   24.6891  -29.4214 N   0  0  0  0  0  0  0  0  0  0  0  0
   -3.9605   24.7181  -28.6185 C   0  0  0  0  0  0  0  0  0  0  0  0
   -3.5093   23.4300  -28.3898 C   0  0  0  0  0  0  0  0  0  0  0  0
   -4.3761   22.6322  -29.0973 C   0  0  0  0  0  0  0  0  0  0  0  0
   -5.2835   23.4036  -29.7063 N   0  0  0  0  0  0  0  0  0  0  0  0
   -5.4136   26.1401  -31.3374 C   0  0  0  0  0  0  0  0  0  0  0  0
   -5.8589   25.7705  -29.9385 C   0  0  0  0  0  0  0  0  0  0  0  0
 39 40  1  0  0  0
 40 34  1  0  0  0
 34 35  1  0  0  0
 35 36  2  0  0  0
 36 37  1  0  0  0
 37 38  2  0  0  0
 36 24  1  0  0  0
 24 25  2  0  0  0
 25 26  1  0  0  0
 26 27  2  0  0  0
 27 28  1  0  0  0
 28 29  2  0  0  0
 29 30  1  0  0  0
 30 31  1  0  0  0
 31 32  2  0  0  0
 29 22  1  0  0  0
 22 23  2  0  0  0
 22  1  1  0  0  0
  1  2  1  0  0  0
  2  3  2  0  0  0
  3  4  1  0  0  0
  4  5  1  0  0  0
  5  6  1  0  0  0
  4  9  1  0  0  0
  9 10  2  0  0  0
 10 11  1  0  0  0
 11 12  2  0  0  0
 12 13  1  0  0  0
 13 14  1  0  0  0
 14 15  2  0  0  0
 15 16  1  0  0  0
 16 17  2  0  0  0
 14 19  1  0  0  0
 19 20  1  0  0  0
 20 21  1  0  0  0
 38 34  1  0  0  0
 32 24  1  0  0  0
  5  1  2  0  0  0
 17  9  1  0  0  0
 21 19  1  0  0  0
 31 27  1  0  0  0
 16 12  1  0  0  0
 30 33  1  0  0  0
  6  7  1  0  0  0
  6  8  1  0  0  0
 13 18  1  0  0  0
M  END
> <minimizedAffinity>
-7.75761

> <CNNscore>
0.1344171315

> <CNNaffinity>
6.4548621178

> <CNN_VS>
0.8676440716

> <CNNaffinity_variance>
0.4592032433

$$$$
[H]c1nn(-c2c([H])c([H])c3c(nc(C4([H])C([H])([H])C4([H])[H])n3[H])c2[H])c(N([H])[H])c1C(=O)c1c([H])c2c([H])c([H])c(-c3c([H])nn(C([H])([H])C([H])([H])[H])c3[H])c([H])c2n1[H]


 40 46  0  0  0  0  0  0  0  0999 V2000
    2.2927   21.1784  -19.2992 C   0  0  0  0  0  0  0  0  0  0  0  0
    3.1917   22.1991  -19.5335 C   0  0  0  0  0  0  0  0  0  0  0  0
    3.6189   22.6075  -18.3341 N   0  0  0  0  0  0  0  0  0  0  0  0
    3.0499   21.9136  -17.3634 N   0  0  0  0  0  0  0  0  0  0  0  0
    2.2243   21.0206  -17.9184 C   0  0  0  0  0  0  0  0  0  0  0  0
    1.4265   20.0841  -17.1797 N   0  0  0  0  0  0  0  0  0  0  0  0
    1.8957   19.3891  -16.5711 H   0  0  0  0  0  0  0  0  0  0  0  0
    0.3852   20.0642  -17.2226 H   0  0  0  0  0  0  0  0  0  0  0  0
    3.3207   22.1415  -15.9934 C   0  0  0  0  0  0  0  0  0  0  0  0
    4.3389   21.4944  -15.3340 C   0  0  0  0  0  0  0  0  0  0  0  0
    4.5735   21.7502  -13.9761 C   0  0  0  0  0  0  0  0  0  0  0  0
    3.7846   22.6508  -13.2966 C   0  0  0  0  0  0  0  0  0  0  0  0
    3.7296   23.1191  -12.0380 N   0  0  0  0  0  0  0  0  0  0  0  0
    2.7339   24.0135  -11.9016 C   0  0  0  0  0  0  0  0  0  0  0  0
    2.1372   24.1267  -13.0832 N   0  0  0  0  0  0  0  0  0  0  0  0
    2.7557   23.3074  -13.9549 C   0  0  0  0  0  0  0  0  0  0  0  0
    2.5509   23.0319  -15.2960 C   0  0  0  0  0  0  0  0  0  0  0  0
    4.3740   22.8204  -11.2884 H   0  0  0  0  0  0  0  0  0  0  0  0
    2.3406   24.7549  -10.6661 C   0  0  0  0  0  0  0  0  0  0  0  0
    1.6377   24.0457   -9.5609 C   0  0  0  0  0  0  0  0  0  0  0  0
    0.8932   25.0106  -10.4227 C   0  0  0  0  0  0  0  0  0  0  0  0
    1.5583   20.3931  -20.2421 C   0  0  0  0  0  0  0  0  0  0  0  0
    1.3421   19.1630  -19.9646 O   0  0  0  0  0  0  0  0  0  0  0  0
   -1.4598   22.2117  -25.1216 C   0  0  0  0  0  0  0  0  0  0  0  0
   -0.1954   22.1793  -25.6716 C   0  0  0  0  0  0  0  0  0  0  0  0
    0.9180   21.8103  -24.9433 C   0  0  0  0  0  0  0  0  0  0  0  0
    0.8013   21.4550  -23.6166 C   0  0  0  0  0  0  0  0  0  0  0  0
    1.7267   21.0553  -22.6741 C   0  0  0  0  0  0  0  0  0  0  0  0
    1.0116   20.8364  -21.5166 C   0  0  0  0  0  0  0  0  0  0  0  0
   -0.2969   21.1023  -21.7788 N   0  0  0  0  0  0  0  0  0  0  0  0
   -0.4549   21.4831  -23.0563 C   0  0  0  0  0  0  0  0  0  0  0  0
   -1.5818   21.8574  -23.7962 C   0  0  0  0  0  0  0  0  0  0  0  0
   -1.0662   21.0206  -21.0802 H   0  0  0  0  0  0  0  0  0  0  0  0
   -3.8869   23.3358  -27.6217 N   0  0  0  0  0  0  0  0  0  0  0  0
   -2.6245   23.0751  -27.2317 C   0  0  0  0  0  0  0  0  0  0  0  0
   -2.6208   22.6112  -25.9279 C   0  0  0  0  0  0  0  0  0  0  0  0
   -3.9452   22.6087  -25.5610 C   0  0  0  0  0  0  0  0  0  0  0  0
   -4.6847   23.0448  -26.5867 N   0  0  0  0  0  0  0  0  0  0  0  0
   -5.1646   22.7457  -29.6051 C   0  0  0  0  0  0  0  0  0  0  0  0
   -4.3977   23.8341  -28.8849 C   0  0  0  0  0  0  0  0  0  0  0  0
 39 40  1  0  0  0
 40 34  1  0  0  0
 34 35  1  0  0  0
 35 36  2  0  0  0
 36 37  1  0  0  0
 37 38  2  0  0  0
 36 24  1  0  0  0
 24 25  2  0  0  0
 25 26  1  0  0  0
 26 27  2  0  0  0
 27 28  1  0  0  0
 28 29  2  0  0  0
 29 30  1  0  0  0
 30 31  1  0  0  0
 31 32  2  0  0  0
 29 22  1  0  0  0
 22 23  2  0  0  0
 22  1  1  0  0  0
  1  2  1  0  0  0
  2  3  2  0  0  0
  3  4  1  0  0  0
  4  5  1  0  0  0
  5  6  1  0  0  0
  4  9  1  0  0  0
  9 10  2  0  0  0
 10 11  1  0  0  0
 11 12  2  0  0  0
 12 13  1  0  0  0
 13 14  1  0  0  0
 14 15  2  0  0  0
 15 16  1  0  0  0
 16 17  2  0  0  0
 14 19  1  0  0  0
 19 20  1  0  0  0
 20 21  1  0  0  0
 38 34  1  0  0  0
 32 24  1  0  0  0
  5  1  2  0  0  0
 17  9  1  0  0  0
 21 19  1  0  0  0
 31 27  1  0  0  0
 16 12  1  0  0  0
 30 33  1  0  0  0
  6  7  1  0  0  0
  6  8  1  0  0  0
 13 18  1  0  0  0
M  END
> <minimizedAffinity>
-8.35887

> <CNNscore>
0.1328323334

> <CNNaffinity>
5.7938361168

> <CNN_VS>
0.7696087956

> <CNNaffinity_variance>
0.0184220877

$$$$
[H]c1nn(-c2c([H])c([H])c3c(nc(C4([H])C([H])([H])C4([H])[H])n3[H])c2[H])c(N([H])[H])c1C(=O)c1c([H])c2c([H])c([H])c(-c3c([H])nn(C([H])([H])C([H])([H])[H])c3[H])c([H])c2n1[H]


 40 46  0  0  0  0  0  0  0  0999 V2000
   -8.4509   24.3374  -21.1074 C   0  0  0  0  0  0  0  0  0  0  0  0
   -8.6976   25.6923  -21.1987 C   0  0  0  0  0  0  0  0  0  0  0  0
   -8.0216   26.1271  -22.2673 N   0  0  0  0  0  0  0  0  0  0  0  0
   -7.3679   25.1385  -22.8527 N   0  0  0  0  0  0  0  0  0  0  0  0
   -7.6076   24.0166  -22.1666 C   0  0  0  0  0  0  0  0  0  0  0  0
   -7.0673   22.7297  -22.5007 N   0  0  0  0  0  0  0  0  0  0  0  0
   -7.2938   22.3091  -23.4200 H   0  0  0  0  0  0  0  0  0  0  0  0
   -6.4505   22.1868  -21.8593 H   0  0  0  0  0  0  0  0  0  0  0  0
   -6.5683   25.3208  -24.0058 C   0  0  0  0  0  0  0  0  0  0  0  0
   -5.2108   25.5236  -23.9272 C   0  0  0  0  0  0  0  0  0  0  0  0
   -4.4557   25.6991  -25.0949 C   0  0  0  0  0  0  0  0  0  0  0  0
   -5.0708   25.6694  -26.3261 C   0  0  0  0  0  0  0  0  0  0  0  0
   -4.6691   25.7975  -27.6022 N   0  0  0  0  0  0  0  0  0  0  0  0
   -5.7100   25.6831  -28.4470 C   0  0  0  0  0  0  0  0  0  0  0  0
   -6.7975   25.4787  -27.7118 N   0  0  0  0  0  0  0  0  0  0  0  0
   -6.4398   25.4654  -26.4136 C   0  0  0  0  0  0  0  0  0  0  0  0
   -7.1560   25.2955  -25.2411 C   0  0  0  0  0  0  0  0  0  0  0  0
   -3.6879   25.9619  -27.8788 H   0  0  0  0  0  0  0  0  0  0  0  0
   -5.6849   25.7707  -29.9378 C   0  0  0  0  0  0  0  0  0  0  0  0
   -5.4442   24.5484  -30.7542 C   0  0  0  0  0  0  0  0  0  0  0  0
   -4.3818   25.5904  -30.6372 C   0  0  0  0  0  0  0  0  0  0  0  0
   -8.9439   23.3963  -20.1500 C   0  0  0  0  0  0  0  0  0  0  0  0
  -10.0671   22.8300  -20.3835 O   0  0  0  0  0  0  0  0  0  0  0  0
   -5.6274   22.1788  -15.2771 C   0  0  0  0  0  0  0  0  0  0  0  0
   -6.7532   21.4590  -14.9352 C   0  0  0  0  0  0  0  0  0  0  0  0
   -7.8678   21.4004  -15.7480 C   0  0  0  0  0  0  0  0  0  0  0  0
   -7.8937   22.0721  -16.9514 C   0  0  0  0  0  0  0  0  0  0  0  0
   -8.8548   22.1844  -17.9353 C   0  0  0  0  0  0  0  0  0  0  0  0
   -8.3042   22.9934  -18.9057 C   0  0  0  0  0  0  0  0  0  0  0  0
   -7.0545   23.3432  -18.4966 N   0  0  0  0  0  0  0  0  0  0  0  0
   -6.7766   22.7937  -17.3038 C   0  0  0  0  0  0  0  0  0  0  0  0
   -5.6482   22.8516  -16.4787 C   0  0  0  0  0  0  0  0  0  0  0  0
   -6.4067   23.9543  -19.0383 H   0  0  0  0  0  0  0  0  0  0  0  0
   -3.1699   22.4977  -12.5820 N   0  0  0  0  0  0  0  0  0  0  0  0
   -4.4272   22.5958  -13.0545 C   0  0  0  0  0  0  0  0  0  0  0  0
   -4.4607   22.2188  -14.3856 C   0  0  0  0  0  0  0  0  0  0  0  0
   -3.1595   21.8908  -14.6821 C   0  0  0  0  0  0  0  0  0  0  0  0
   -2.4047   22.0643  -13.5915 N   0  0  0  0  0  0  0  0  0  0  0  0
   -3.4441   23.8680  -10.5916 C   0  0  0  0  0  0  0  0  0  0  0  0
   -2.6358   22.7780  -11.2625 C   0  0  0  0  0  0  0  0  0  0  0  0
 39 40  1  0  0  0
 40 34  1  0  0  0
 34 35  1  0  0  0
 35 36  2  0  0  0
 36 37  1  0  0  0
 37 38  2  0  0  0
 36 24  1  0  0  0
 24 25  2  0  0  0
 25 26  1  0  0  0
 26 27  2  0  0  0
 27 28  1  0  0  0
 28 29  2  0  0  0
 29 30  1  0  0  0
 30 31  1  0  0  0
 31 32  2  0  0  0
 29 22  1  0  0  0
 22 23  2  0  0  0
 22  1  1  0  0  0
  1  2  1  0  0  0
  2  3  2  0  0  0
  3  4  1  0  0  0
  4  5  1  0  0  0
  5  6  1  0  0  0
  4  9  1  0  0  0
  9 10  2  0  0  0
 10 11  1  0  0  0
 11 12  2  0  0  0
 12 13  1  0  0  0
 13 14  1  0  0  0
 14 15  2  0  0  0
 15 16  1  0  0  0
 16 17  2  0  0  0
 14 19  1  0  0  0
 19 20  1  0  0  0
 20 21  1  0  0  0
 38 34  1  0  0  0
 32 24  1  0  0  0
  5  1  2  0  0  0
 17  9  1  0  0  0
 21 19  1  0  0  0
 31 27  1  0  0  0
 16 12  1  0  0  0
 30 33  1  0  0  0
  6  7  1  0  0  0
  6  8  1  0  0  0
 13 18  1  0  0  0
M  END
> <minimizedAffinity>
-7.63901

> <CNNscore>
0.1206420884

> <CNNaffinity>
5.9164090157

> <CNN_VS>
0.7137679458

> <CNNaffinity_variance>
0.1345239431

$$$$
[H]c1nn(-c2c([H])c([H])c3c(nc(C4([H])C([H])([H])C4([H])[H])n3[H])c2[H])c(N([H])[H])c1C(=O)c1c([H])c2c([H])c([H])c(-c3c([H])nn(C([H])([H])C([H])([H])[H])c3[H])c([H])c2n1[H]


 40 46  0  0  0  0  0  0  0  0999 V2000
    2.2976   20.9350  -20.2894 C   0  0  0  0  0  0  0  0  0  0  0  0
    3.5229   21.5231  -20.5298 C   0  0  0  0  0  0  0  0  0  0  0  0
    3.9624   21.9738  -19.3501 N   0  0  0  0  0  0  0  0  0  0  0  0
    3.0974   21.7091  -18.3862 N   0  0  0  0  0  0  0  0  0  0  0  0
    2.0558   21.0679  -18.9256 C   0  0  0  0  0  0  0  0  0  0  0  0
    0.9107   20.6157  -18.1883 N   0  0  0  0  0  0  0  0  0  0  0  0
    1.0400   19.9269  -17.4252 H   0  0  0  0  0  0  0  0  0  0  0  0
   -0.0586   20.9470  -18.3814 H   0  0  0  0  0  0  0  0  0  0  0  0
    3.3112   22.0788  -17.0372 C   0  0  0  0  0  0  0  0  0  0  0  0
    2.5497   23.0395  -16.4150 C   0  0  0  0  0  0  0  0  0  0  0  0
    2.7946   23.3751  -15.0763 C   0  0  0  0  0  0  0  0  0  0  0  0
    3.7996   22.7438  -14.3788 C   0  0  0  0  0  0  0  0  0  0  0  0
    4.2919   22.8155  -13.1303 N   0  0  0  0  0  0  0  0  0  0  0  0
    5.3089   21.9505  -12.9648 C   0  0  0  0  0  0  0  0  0  0  0  0
    5.4781   21.3113  -14.1170 N   0  0  0  0  0  0  0  0  0  0  0  0
    4.5721   21.7737  -14.9996 C   0  0  0  0  0  0  0  0  0  0  0  0
    4.3039   21.4659  -16.3224 C   0  0  0  0  0  0  0  0  0  0  0  0
    3.9257   23.4556  -12.4075 H   0  0  0  0  0  0  0  0  0  0  0  0
    6.1222   21.7286  -11.7318 C   0  0  0  0  0  0  0  0  0  0  0  0
    5.4876   21.1595  -10.5104 C   0  0  0  0  0  0  0  0  0  0  0  0
    5.8722   22.6012  -10.5504 C   0  0  0  0  0  0  0  0  0  0  0  0
    1.4138   20.2900  -21.2102 C   0  0  0  0  0  0  0  0  0  0  0  0
    1.0608   19.0850  -20.9648 O   0  0  0  0  0  0  0  0  0  0  0  0
   -1.6712   22.5123  -25.8761 C   0  0  0  0  0  0  0  0  0  0  0  0
   -0.4022   22.6309  -26.4033 C   0  0  0  0  0  0  0  0  0  0  0  0
    0.7261   22.2451  -25.7074 C   0  0  0  0  0  0  0  0  0  0  0  0
    0.6205   21.7184  -24.4379 C   0  0  0  0  0  0  0  0  0  0  0  0
    1.5613   21.2633  -23.5367 C   0  0  0  0  0  0  0  0  0  0  0  0
    0.8511   20.8546  -22.4286 C   0  0  0  0  0  0  0  0  0  0  0  0
   -0.4695   21.0669  -22.6786 N   0  0  0  0  0  0  0  0  0  0  0  0
   -0.6401   21.5949  -23.9009 C   0  0  0  0  0  0  0  0  0  0  0  0
   -1.7821   21.9865  -24.6079 C   0  0  0  0  0  0  0  0  0  0  0  0
   -1.2383   20.8485  -22.0095 H   0  0  0  0  0  0  0  0  0  0  0  0
   -4.1502   23.6934  -28.2978 N   0  0  0  0  0  0  0  0  0  0  0  0
   -2.8813   23.4126  -27.9449 C   0  0  0  0  0  0  0  0  0  0  0  0
   -2.8483   22.9350  -26.6465 C   0  0  0  0  0  0  0  0  0  0  0  0
   -4.1622   22.9455  -26.2437 C   0  0  0  0  0  0  0  0  0  0  0  0
   -4.9235   23.4017  -27.2444 N   0  0  0  0  0  0  0  0  0  0  0  0
   -3.9706   25.4857  -29.9319 C   0  0  0  0  0  0  0  0  0  0  0  0
   -4.6885   24.2114  -29.5415 C   0  0  0  0  0  0  0  0  0  0  0  0
 39 40  1  0  0  0
 40 34  1  0  0  0
 34 35  1  0  0  0
 35 36  2  0  0  0
 36 37  1  0  0  0
 37 38  2  0  0  0
 36 24  1  0  0  0
 24 25  2  0  0  0
 25 26  1  0  0  0
 26 27  2  0  0  0
 27 28  1  0  0  0
 28 29  2  0  0  0
 29 30  1  0  0  0
 30 31  1  0  0  0
 31 32  2  0  0  0
 29 22  1  0  0  0
 22 23  2  0  0  0
 22  1  1  0  0  0
  1  2  1  0  0  0
  2  3  2  0  0  0
  3  4  1  0  0  0
  4  5  1  0  0  0
  5  6  1  0  0  0
  4  9  1  0  0  0
  9 10  2  0  0  0
 10 11  1  0  0  0
 11 12  2  0  0  0
 12 13  1  0  0  0
 13 14  1  0  0  0
 14 15  2  0  0  0
 15 16  1  0  0  0
 16 17  2  0  0  0
 14 19  1  0  0  0
 19 20  1  0  0  0
 20 21  1  0  0  0
 38 34  1  0  0  0
 32 24  1  0  0  0
  5  1  2  0  0  0
 17  9  1  0  0  0
 21 19  1  0  0  0
 31 27  1  0  0  0
 16 12  1  0  0  0
 30 33  1  0  0  0
  6  7  1  0  0  0
  6  8  1  0  0  0
 13 18  1  0  0  0
M  END
> <minimizedAffinity>
-8.29394

> <CNNscore>
0.1185879111

> <CNNaffinity>
6.0235352516

> <CNN_VS>
0.7143184543

> <CNNaffinity_variance>
0.0752584040

$$$$
[H]c1nn(-c2c([H])c([H])c3c(nc(C4([H])C([H])([H])C4([H])[H])n3[H])c2[H])c(N([H])[H])c1C(=O)c1c([H])c2c([H])c([H])c(-c3c([H])nn(C([H])([H])C([H])([H])[H])c3[H])c([H])c2n1[H]


 40 46  0  0  0  0  0  0  0  0999 V2000
    0.4358   20.5169  -21.0586 C   0  0  0  0  0  0  0  0  0  0  0  0
   -0.5697   21.0295  -20.2641 C   0  0  0  0  0  0  0  0  0  0  0  0
   -0.8159   20.1082  -19.3268 N   0  0  0  0  0  0  0  0  0  0  0  0
   -0.0345   19.0529  -19.4785 N   0  0  0  0  0  0  0  0  0  0  0  0
    0.7534   19.2666  -20.5371 C   0  0  0  0  0  0  0  0  0  0  0  0
    1.7391   18.3398  -21.0155 N   0  0  0  0  0  0  0  0  0  0  0  0
    2.5191   18.0640  -20.3918 H   0  0  0  0  0  0  0  0  0  0  0  0
    1.7130   17.9228  -21.9705 H   0  0  0  0  0  0  0  0  0  0  0  0
   -0.0875   17.9266  -18.6236 C   0  0  0  0  0  0  0  0  0  0  0  0
   -0.9148   16.8579  -18.8761 C   0  0  0  0  0  0  0  0  0  0  0  0
   -0.9358   15.7614  -18.0034 C   0  0  0  0  0  0  0  0  0  0  0  0
   -0.1278   15.7502  -16.8889 C   0  0  0  0  0  0  0  0  0  0  0  0
    0.0979   14.8956  -15.8764 N   0  0  0  0  0  0  0  0  0  0  0  0
    1.0162   15.3900  -15.0265 C   0  0  0  0  0  0  0  0  0  0  0  0
    1.3901   16.5767  -15.4922 N   0  0  0  0  0  0  0  0  0  0  0  0
    0.7094   16.8245  -16.6274 C   0  0  0  0  0  0  0  0  0  0  0  0
    0.7059   17.8914  -17.5095 C   0  0  0  0  0  0  0  0  0  0  0  0
   -0.3796   13.9852  -15.7798 H   0  0  0  0  0  0  0  0  0  0  0  0
    1.5367   14.7537  -13.7795 C   0  0  0  0  0  0  0  0  0  0  0  0
    2.0806   13.3677  -13.8188 C   0  0  0  0  0  0  0  0  0  0  0  0
    0.7598   13.6344  -13.1766 C   0  0  0  0  0  0  0  0  0  0  0  0
    1.0744   21.1077  -22.1936 C   0  0  0  0  0  0  0  0  0  0  0  0
    2.3387   21.2975  -22.1439 O   0  0  0  0  0  0  0  0  0  0  0  0
   -2.2591   22.9162  -26.8674 C   0  0  0  0  0  0  0  0  0  0  0  0
   -1.0549   22.7764  -27.5253 C   0  0  0  0  0  0  0  0  0  0  0  0
    0.0953   22.3650  -26.8819 C   0  0  0  0  0  0  0  0  0  0  0  0
    0.0788   22.0745  -25.5345 C   0  0  0  0  0  0  0  0  0  0  0  0
    1.0600   21.6541  -24.6599 C   0  0  0  0  0  0  0  0  0  0  0  0
    0.4418   21.5324  -23.4343 C   0  0  0  0  0  0  0  0  0  0  0  0
   -0.8660   21.8736  -23.5916 N   0  0  0  0  0  0  0  0  0  0  0  0
   -1.1164   22.2099  -24.8668 C   0  0  0  0  0  0  0  0  0  0  0  0
   -2.2808   22.6270  -25.5209 C   0  0  0  0  0  0  0  0  0  0  0  0
   -1.5716   21.8729  -22.8244 H   0  0  0  0  0  0  0  0  0  0  0  0
   -4.8102   24.2863  -29.1077 N   0  0  0  0  0  0  0  0  0  0  0  0
   -3.5244   24.0739  -28.7681 C   0  0  0  0  0  0  0  0  0  0  0  0
   -3.4618   23.3579  -27.5856 C   0  0  0  0  0  0  0  0  0  0  0  0
   -4.7757   23.1542  -27.2380 C   0  0  0  0  0  0  0  0  0  0  0  0
   -5.5650   23.7164  -28.1600 N   0  0  0  0  0  0  0  0  0  0  0  0
   -5.9072   23.9810  -31.2567 C   0  0  0  0  0  0  0  0  0  0  0  0
   -5.3804   24.9791  -30.2478 C   0  0  0  0  0  0  0  0  0  0  0  0
 39 40  1  0  0  0
 40 34  1  0  0  0
 34 35  1  0  0  0
 35 36  2  0  0  0
 36 37  1  0  0  0
 37 38  2  0  0  0
 36 24  1  0  0  0
 24 25  2  0  0  0
 25 26  1  0  0  0
 26 27  2  0  0  0
 27 28  1  0  0  0
 28 29  2  0  0  0
 29 30  1  0  0  0
 30 31  1  0  0  0
 31 32  2  0  0  0
 29 22  1  0  0  0
 22 23  2  0  0  0
 22  1  1  0  0  0
  1  2  1  0  0  0
  2  3  2  0  0  0
  3  4  1  0  0  0
  4  5  1  0  0  0
  5  6  1  0  0  0
  4  9  1  0  0  0
  9 10  2  0  0  0
 10 11  1  0  0  0
 11 12  2  0  0  0
 12 13  1  0  0  0
 13 14  1  0  0  0
 14 15  2  0  0  0
 15 16  1  0  0  0
 16 17  2  0  0  0
 14 19  1  0  0  0
 19 20  1  0  0  0
 20 21  1  0  0  0
 38 34  1  0  0  0
 32 24  1  0  0  0
  5  1  2  0  0  0
 17  9  1  0  0  0
 21 19  1  0  0  0
 31 27  1  0  0  0
 16 12  1  0  0  0
 30 33  1  0  0  0
  6  7  1  0  0  0
  6  8  1  0  0  0
 13 18  1  0  0  0
M  END
> <minimizedAffinity>
-7.58205

> <CNNscore>
0.1122614890

> <CNNaffinity>
6.2901062965

> <CNN_VS>
0.7061367035

> <CNNaffinity_variance>
0.4509966969

$$$$
[H]c1nn(-c2c([H])c([H])c3c(nc(C4([H])C([H])([H])C4([H])[H])n3[H])c2[H])c(N([H])[H])c1C(=O)c1c([H])c2c([H])c([H])c(-c3c([H])nn(C([H])([H])C([H])([H])[H])c3[H])c([H])c2n1[H]


 40 46  0  0  0  0  0  0  0  0999 V2000
   -7.2741   22.7897  -20.5988 C   0  0  0  0  0  0  0  0  0  0  0  0
   -7.8083   21.6472  -21.1595 C   0  0  0  0  0  0  0  0  0  0  0  0
   -7.2674   21.5370  -22.3774 N   0  0  0  0  0  0  0  0  0  0  0  0
   -6.4309   22.5315  -22.6195 N   0  0  0  0  0  0  0  0  0  0  0  0
   -6.4069   23.3266  -21.5452 C   0  0  0  0  0  0  0  0  0  0  0  0
   -5.6113   24.5157  -21.4331 N   0  0  0  0  0  0  0  0  0  0  0  0
   -4.5800   24.4425  -21.4993 H   0  0  0  0  0  0  0  0  0  0  0  0
   -6.0203   25.4632  -21.2863 H   0  0  0  0  0  0  0  0  0  0  0  0
   -5.7219   22.6617  -23.8371 C   0  0  0  0  0  0  0  0  0  0  0  0
   -6.3051   23.1813  -24.9685 C   0  0  0  0  0  0  0  0  0  0  0  0
   -5.5662   23.2936  -26.1542 C   0  0  0  0  0  0  0  0  0  0  0  0
   -4.2526   22.8834  -26.1907 C   0  0  0  0  0  0  0  0  0  0  0  0
   -3.2848   22.8467  -27.1226 N   0  0  0  0  0  0  0  0  0  0  0  0
   -2.1492   22.3334  -26.6156 C   0  0  0  0  0  0  0  0  0  0  0  0
   -2.3825   22.0343  -25.3424 N   0  0  0  0  0  0  0  0  0  0  0  0
   -3.6573   22.3582  -25.0536 C   0  0  0  0  0  0  0  0  0  0  0  0
   -4.4151   22.2613  -23.8991 C   0  0  0  0  0  0  0  0  0  0  0  0
   -3.4139   23.1732  -28.0937 H   0  0  0  0  0  0  0  0  0  0  0  0
   -0.8522   22.1196  -27.3246 C   0  0  0  0  0  0  0  0  0  0  0  0
    0.4026   21.9277  -26.5454 C   0  0  0  0  0  0  0  0  0  0  0  0
    0.1675   23.2050  -27.2811 C   0  0  0  0  0  0  0  0  0  0  0  0
   -7.5125   23.3528  -19.3060 C   0  0  0  0  0  0  0  0  0  0  0  0
   -8.3792   24.2886  -19.2059 O   0  0  0  0  0  0  0  0  0  0  0  0
   -4.7800   22.6487  -13.9896 C   0  0  0  0  0  0  0  0  0  0  0  0
   -4.9224   21.3165  -14.3170 C   0  0  0  0  0  0  0  0  0  0  0  0
   -5.5165   20.9039  -15.4931 C   0  0  0  0  0  0  0  0  0  0  0  0
   -5.9968   21.8272  -16.3969 C   0  0  0  0  0  0  0  0  0  0  0  0
   -6.6223   21.6956  -17.6200 C   0  0  0  0  0  0  0  0  0  0  0  0
   -6.8695   22.9800  -18.0541 C   0  0  0  0  0  0  0  0  0  0  0  0
   -6.4000   23.8373  -17.1074 N   0  0  0  0  0  0  0  0  0  0  0  0
   -5.8607   23.1595  -16.0819 C   0  0  0  0  0  0  0  0  0  0  0  0
   -5.2582   23.5752  -14.8896 C   0  0  0  0  0  0  0  0  0  0  0  0
   -6.4547   24.8761  -17.1741 H   0  0  0  0  0  0  0  0  0  0  0  0
   -2.7777   23.1098  -10.9593 N   0  0  0  0  0  0  0  0  0  0  0  0
   -3.0691   22.4485  -12.0957 C   0  0  0  0  0  0  0  0  0  0  0  0
   -4.1434   23.0494  -12.7280 C   0  0  0  0  0  0  0  0  0  0  0  0
   -4.4772   24.1025  -11.9106 C   0  0  0  0  0  0  0  0  0  0  0  0
   -3.6496   24.1210  -10.8599 N   0  0  0  0  0  0  0  0  0  0  0  0
   -0.5231   22.2640  -10.6190 C   0  0  0  0  0  0  0  0  0  0  0  0
   -1.7489   22.8659   -9.9659 C   0  0  0  0  0  0  0  0  0  0  0  0
 39 40  1  0  0  0
 40 34  1  0  0  0
 34 35  1  0  0  0
 35 36  2  0  0  0
 36 37  1  0  0  0
 37 38  2  0  0  0
 36 24  1  0  0  0
 24 25  2  0  0  0
 25 26  1  0  0  0
 26 27  2  0  0  0
 27 28  1  0  0  0
 28 29  2  0  0  0
 29 30  1  0  0  0
 30 31  1  0  0  0
 31 32  2  0  0  0
 29 22  1  0  0  0
 22 23  2  0  0  0
 22  1  1  0  0  0
  1  2  1  0  0  0
  2  3  2  0  0  0
  3  4  1  0  0  0
  4  5  1  0  0  0
  5  6  1  0  0  0
  4  9  1  0  0  0
  9 10  2  0  0  0
 10 11  1  0  0  0
 11 12  2  0  0  0
 12 13  1  0  0  0
 13 14  1  0  0  0
 14 15  2  0  0  0
 15 16  1  0  0  0
 16 17  2  0  0  0
 14 19  1  0  0  0
 19 20  1  0  0  0
 20 21  1  0  0  0
 38 34  1  0  0  0
 32 24  1  0  0  0
  5  1  2  0  0  0
 17  9  1  0  0  0
 21 19  1  0  0  0
 31 27  1  0  0  0
 16 12  1  0  0  0
 30 33  1  0  0  0
  6  7  1  0  0  0
  6  8  1  0  0  0
 13 18  1  0  0  0
M  END
> <minimizedAffinity>
-7.54549

> <CNNscore>
0.1117467582

> <CNNaffinity>
6.0256056786

> <CNN_VS>
0.6733419299

> <CNNaffinity_variance>
0.0597239248

$$$$
[H]c1nn(-c2c([H])c([H])c3c(nc(C4([H])C([H])([H])C4([H])[H])n3[H])c2[H])c(N([H])[H])c1C(=O)c1c([H])c2c([H])c([H])c(-c3c([H])nn(C([H])([H])C([H])([H])[H])c3[H])c([H])c2n1[H]


 40 46  0  0  0  0  0  0  0  0999 V2000
   -0.6584   22.1645  -21.1057 C   0  0  0  0  0  0  0  0  0  0  0  0
    0.0851   21.0814  -21.5288 C   0  0  0  0  0  0  0  0  0  0  0  0
    0.0149   21.0747  -22.8640 N   0  0  0  0  0  0  0  0  0  0  0  0
   -0.7214   22.0788  -23.3079 N   0  0  0  0  0  0  0  0  0  0  0  0
   -1.1553   22.7755  -22.2527 C   0  0  0  0  0  0  0  0  0  0  0  0
   -1.9868   23.9422  -22.3367 N   0  0  0  0  0  0  0  0  0  0  0  0
   -1.6387   24.7762  -22.8433 H   0  0  0  0  0  0  0  0  0  0  0  0
   -2.9359   23.9974  -21.9092 H   0  0  0  0  0  0  0  0  0  0  0  0
   -0.9637   22.3065  -24.6832 C   0  0  0  0  0  0  0  0  0  0  0  0
    0.0577   22.3867  -25.6000 C   0  0  0  0  0  0  0  0  0  0  0  0
   -0.2266   22.6128  -26.9538 C   0  0  0  0  0  0  0  0  0  0  0  0
   -1.5306   22.7559  -27.3711 C   0  0  0  0  0  0  0  0  0  0  0  0
   -2.1426   22.9752  -28.5474 N   0  0  0  0  0  0  0  0  0  0  0  0
   -3.4777   23.0318  -28.3908 C   0  0  0  0  0  0  0  0  0  0  0  0
   -3.7343   22.8472  -27.1005 N   0  0  0  0  0  0  0  0  0  0  0  0
   -2.5664   22.6763  -26.4523 C   0  0  0  0  0  0  0  0  0  0  0  0
   -2.2511   22.4521  -25.1231 C   0  0  0  0  0  0  0  0  0  0  0  0
   -1.6388   23.0836  -29.4422 H   0  0  0  0  0  0  0  0  0  0  0  0
   -4.5080   23.2634  -29.4471 C   0  0  0  0  0  0  0  0  0  0  0  0
   -4.7670   24.6417  -29.9489 C   0  0  0  0  0  0  0  0  0  0  0  0
   -5.7659   23.9665  -29.0690 C   0  0  0  0  0  0  0  0  0  0  0  0
   -0.8964   22.6264  -19.7733 C   0  0  0  0  0  0  0  0  0  0  0  0
   -1.9811   23.2635  -19.5401 O   0  0  0  0  0  0  0  0  0  0  0  0
    3.2952   22.2865  -15.4673 C   0  0  0  0  0  0  0  0  0  0  0  0
    2.2618   21.6777  -14.7862 C   0  0  0  0  0  0  0  0  0  0  0  0
    1.0141   21.4931  -15.3478 C   0  0  0  0  0  0  0  0  0  0  0  0
    0.7540   21.9192  -16.6326 C   0  0  0  0  0  0  0  0  0  0  0  0
   -0.3772   21.8649  -17.4212 C   0  0  0  0  0  0  0  0  0  0  0  0
   -0.0286   22.4550  -18.6169 C   0  0  0  0  0  0  0  0  0  0  0  0
    1.2724   22.8432  -18.5261 N   0  0  0  0  0  0  0  0  0  0  0  0
    1.7768   22.5279  -17.3227 C   0  0  0  0  0  0  0  0  0  0  0  0
    3.0403   22.7139  -16.7516 C   0  0  0  0  0  0  0  0  0  0  0  0
    1.7997   23.3197  -19.2887 H   0  0  0  0  0  0  0  0  0  0  0  0
    6.7793   22.9057  -14.5279 N   0  0  0  0  0  0  0  0  0  0  0  0
    5.7915   22.8540  -15.4419 C   0  0  0  0  0  0  0  0  0  0  0  0
    4.6092   22.4666  -14.8360 C   0  0  0  0  0  0  0  0  0  0  0  0
    4.9427   22.2904  -13.5145 C   0  0  0  0  0  0  0  0  0  0  0  0
    6.2431   22.5577  -13.3515 N   0  0  0  0  0  0  0  0  0  0  0  0
    8.3787   24.1137  -15.9054 C   0  0  0  0  0  0  0  0  0  0  0  0
    8.1797   23.2554  -14.6744 C   0  0  0  0  0  0  0  0  0  0  0  0
 39 40  1  0  0  0
 40 34  1  0  0  0
 34 35  1  0  0  0
 35 36  2  0  0  0
 36 37  1  0  0  0
 37 38  2  0  0  0
 36 24  1  0  0  0
 24 25  2  0  0  0
 25 26  1  0  0  0
 26 27  2  0  0  0
 27 28  1  0  0  0
 28 29  2  0  0  0
 29 30  1  0  0  0
 30 31  1  0  0  0
 31 32  2  0  0  0
 29 22  1  0  0  0
 22 23  2  0  0  0
 22  1  1  0  0  0
  1  2  1  0  0  0
  2  3  2  0  0  0
  3  4  1  0  0  0
  4  5  1  0  0  0
  5  6  1  0  0  0
  4  9  1  0  0  0
  9 10  2  0  0  0
 10 11  1  0  0  0
 11 12  2  0  0  0
 12 13  1  0  0  0
 13 14  1  0  0  0
 14 15  2  0  0  0
 15 16  1  0  0  0
 16 17  2  0  0  0
 14 19  1  0  0  0
 19 20  1  0  0  0
 20 21  1  0  0  0
 38 34  1  0  0  0
 32 24  1  0  0  0
  5  1  2  0  0  0
 17  9  1  0  0  0
 21 19  1  0  0  0
 31 27  1  0  0  0
 16 12  1  0  0  0
 30 33  1  0  0  0
  6  7  1  0  0  0
  6  8  1  0  0  0
 13 18  1  0  0  0
M  END
> <minimizedAffinity>
-8.91203

> <CNNscore>
0.1032269746

> <CNNaffinity>
6.1355524063

> <CNN_VS>
0.6333544850

> <CNNaffinity_variance>
0.0801667348

$$$$
[H]c1nc(-c2c(C([H])([H])[H])nn(C([H])([H])C([H])([H])C#N)c2[H])c([H])c2c1C([H])([H])N(c1c(F)c(OC([H])([H])[H])c([H])c(OC([H])([H])[H])c1F)C(=O)C21C([H])([H])C1([H])[H]


 35 39  0  0  0  0  0  0  0  0999 V2000
    0.0659   22.0352  -20.0003 N   0  0  0  0  0  0  0  0  0  0  0  0
    0.6090   21.3754  -21.1498 C   0  0  0  0  0  0  0  0  0  0  0  0
   -0.1045   21.7262  -22.3992 C   0  0  0  0  0  0  0  0  0  0  0  0
    0.5890   21.4727  -23.5855 C   0  0  0  0  0  0  0  0  0  0  0  0
    0.0281   21.7440  -24.7402 N   0  0  0  0  0  0  0  0  0  0  0  0
   -1.2277   22.2734  -24.8607 C   0  0  0  0  0  0  0  0  0  0  0  0
   -1.8954   22.5177  -23.7072 C   0  0  0  0  0  0  0  0  0  0  0  0
   -1.3658   22.2565  -22.4347 C   0  0  0  0  0  0  0  0  0  0  0  0
   -2.0901   22.5302  -21.2020 C   0  0  0  0  0  0  0  0  0  0  0  0
   -3.2559   21.6724  -20.7623 C   0  0  0  0  0  0  0  0  0  0  0  0
   -3.4582   23.0870  -21.1433 C   0  0  0  0  0  0  0  0  0  0  0  0
   -1.1193   22.8069  -20.1127 C   0  0  0  0  0  0  0  0  0  0  0  0
   -1.3720   23.7259  -19.3079 O   0  0  0  0  0  0  0  0  0  0  0  0
    1.1622   20.5075  -16.7832 C   0  0  0  0  0  0  0  0  0  0  0  0
    2.0095   21.5142  -16.3146 C   0  0  0  0  0  0  0  0  0  0  0  0
    2.2181   22.6712  -17.0336 C   0  0  0  0  0  0  0  0  0  0  0  0
    1.5762   22.8627  -18.2642 C   0  0  0  0  0  0  0  0  0  0  0  0
    1.7930   24.0124  -18.9527 F   0  0  0  0  0  0  0  0  0  0  0  0
    0.7406   21.8859  -18.7425 C   0  0  0  0  0  0  0  0  0  0  0  0
    0.5585   20.7432  -17.9928 C   0  0  0  0  0  0  0  0  0  0  0  0
   -0.2643   19.8012  -18.4781 F   0  0  0  0  0  0  0  0  0  0  0  0
   -0.1029   19.1297  -15.1758 C   0  0  0  0  0  0  0  0  0  0  0  0
    0.9502   19.3412  -16.0608 O   0  0  0  0  0  0  0  0  0  0  0  0
    3.0438   23.6780  -16.6016 O   0  0  0  0  0  0  0  0  0  0  0  0
    4.4352   23.6999  -16.6089 C   0  0  0  0  0  0  0  0  0  0  0  0
   -1.7015   22.5217  -26.2138 C   0  0  0  0  0  0  0  0  0  0  0  0
   -3.0487   22.6981  -26.5553 C   0  0  0  0  0  0  0  0  0  0  0  0
   -3.1812   22.9238  -27.8586 N   0  0  0  0  0  0  0  0  0  0  0  0
   -1.9751   22.9012  -28.3786 N   0  0  0  0  0  0  0  0  0  0  0  0
   -1.0528   22.6607  -27.4156 C   0  0  0  0  0  0  0  0  0  0  0  0
    0.3956   22.5797  -27.6504 C   0  0  0  0  0  0  0  0  0  0  0  0
   -4.4057   23.1531  -28.6033 C   0  0  0  0  0  0  0  0  0  0  0  0
   -4.3755   24.4862  -29.3001 C   0  0  0  0  0  0  0  0  0  0  0  0
   -5.5295   25.2581  -28.8801 C   0  0  0  0  0  0  0  0  0  0  0  0
   -6.4392   25.8572  -28.5528 N   0  0  0  0  0  0  0  0  0  0  0  0
 22 23  1  0  0  0
 23 14  1  0  0  0
 14 15  2  0  0  0
 15 16  1  0  0  0
 16 24  1  0  0  0
 24 25  1  0  0  0
 16 17  2  0  0  0
 17 18  1  0  0  0
 17 19  1  0  0  0
 19  1  1  0  0  0
  1  2  1  0  0  0
  2  3  1  0  0  0
  3  4  2  0  0  0
  4  5  1  0  0  0
  5  6  2  0  0  0
  6  7  1  0  0  0
  7  8  2  0  0  0
  8  9  1  0  0  0
  9 10  1  0  0  0
 10 11  1  0  0  0
  9 12  1  0  0  0
 12 13  2  0  0  0
  6 26  1  0  0  0
 26 27  2  0  0  0
 27 28  1  0  0  0
 28 32  1  0  0  0
 32 33  1  0  0  0
 33 34  1  0  0  0
 34 35  3  0  0  0
 28 29  1  0  0  0
 29 30  2  0  0  0
 30 31  1  0  0  0
 19 20  2  0  0  0
 20 21  1  0  0  0
 20 14  1  0  0  0
 12  1  1  0  0  0
 30 26  1  0  0  0
  8  3  1  0  0  0
 11  9  1  0  0  0
M  END
> <minimizedAffinity>
-7.86091

> <CNNscore>
0.3628891110

> <CNNaffinity>
7.1249704361

> <CNN_VS>
2.5855741501

> <CNNaffinity_variance>
0.1256845146

$$$$
[H]c1nc(-c2c(C([H])([H])[H])nn(C([H])([H])C([H])([H])C#N)c2[H])c([H])c2c1C([H])([H])N(c1c(F)c(OC([H])([H])[H])c([H])c(OC([H])([H])[H])c1F)C(=O)C21C([H])([H])C1([H])[H]


 35 39  0  0  0  0  0  0  0  0999 V2000
   -1.0916   21.8841  -22.2036 N   0  0  0  0  0  0  0  0  0  0  0  0
   -1.2473   21.4037  -23.5439 C   0  0  0  0  0  0  0  0  0  0  0  0
   -2.1119   22.2800  -24.3672 C   0  0  0  0  0  0  0  0  0  0  0  0
   -1.9869   22.1287  -25.7507 C   0  0  0  0  0  0  0  0  0  0  0  0
   -2.7223   22.8581  -26.5562 N   0  0  0  0  0  0  0  0  0  0  0  0
   -3.6296   23.7827  -26.1160 C   0  0  0  0  0  0  0  0  0  0  0  0
   -3.7463   23.9256  -24.7736 C   0  0  0  0  0  0  0  0  0  0  0  0
   -2.9971   23.1852  -23.8472 C   0  0  0  0  0  0  0  0  0  0  0  0
   -3.1260   23.3529  -22.4069 C   0  0  0  0  0  0  0  0  0  0  0  0
   -4.3363   22.8429  -21.6563 C   0  0  0  0  0  0  0  0  0  0  0  0
   -4.0631   24.2930  -21.7563 C   0  0  0  0  0  0  0  0  0  0  0  0
   -1.8385   23.0036  -21.7543 C   0  0  0  0  0  0  0  0  0  0  0  0
   -1.4365   23.7133  -20.8104 O   0  0  0  0  0  0  0  0  0  0  0  0
    0.1708   19.9942  -19.2506 C   0  0  0  0  0  0  0  0  0  0  0  0
    1.5155   19.8633  -19.6050 C   0  0  0  0  0  0  0  0  0  0  0  0
    2.0023   20.3836  -20.7845 C   0  0  0  0  0  0  0  0  0  0  0  0
    1.1472   21.0626  -21.6624 C   0  0  0  0  0  0  0  0  0  0  0  0
    1.6500   21.5709  -22.8164 F   0  0  0  0  0  0  0  0  0  0  0  0
   -0.1771   21.2015  -21.3334 C   0  0  0  0  0  0  0  0  0  0  0  0
   -0.6247   20.6668  -20.1441 C   0  0  0  0  0  0  0  0  0  0  0  0
   -1.9230   20.8154  -19.8407 F   0  0  0  0  0  0  0  0  0  0  0  0
   -0.7184   20.2245  -16.9617 C   0  0  0  0  0  0  0  0  0  0  0  0
   -0.3222   19.4713  -18.0630 O   0  0  0  0  0  0  0  0  0  0  0  0
    3.3166   20.2716  -21.1617 O   0  0  0  0  0  0  0  0  0  0  0  0
    3.8691   19.3682  -22.0646 C   0  0  0  0  0  0  0  0  0  0  0  0
   -4.3612   24.5139  -27.1393 C   0  0  0  0  0  0  0  0  0  0  0  0
   -4.6290   24.0167  -28.4214 C   0  0  0  0  0  0  0  0  0  0  0  0
   -5.3271   24.8954  -29.1339 N   0  0  0  0  0  0  0  0  0  0  0  0
   -5.5241   25.9439  -28.3674 N   0  0  0  0  0  0  0  0  0  0  0  0
   -4.9549   25.7516  -27.1529 C   0  0  0  0  0  0  0  0  0  0  0  0
   -4.9948   26.7227  -26.0508 C   0  0  0  0  0  0  0  0  0  0  0  0
   -5.7980   24.7614  -30.5002 C   0  0  0  0  0  0  0  0  0  0  0  0
   -5.0898   25.7231  -31.4151 C   0  0  0  0  0  0  0  0  0  0  0  0
   -5.8401   26.9638  -31.4583 C   0  0  0  0  0  0  0  0  0  0  0  0
   -6.4284   27.9369  -31.4842 N   0  0  0  0  0  0  0  0  0  0  0  0
 22 23  1  0  0  0
 23 14  1  0  0  0
 14 15  2  0  0  0
 15 16  1  0  0  0
 16 24  1  0  0  0
 24 25  1  0  0  0
 16 17  2  0  0  0
 17 18  1  0  0  0
 17 19  1  0  0  0
 19  1  1  0  0  0
  1  2  1  0  0  0
  2  3  1  0  0  0
  3  4  2  0  0  0
  4  5  1  0  0  0
  5  6  2  0  0  0
  6  7  1  0  0  0
  7  8  2  0  0  0
  8  9  1  0  0  0
  9 10  1  0  0  0
 10 11  1  0  0  0
  9 12  1  0  0  0
 12 13  2  0  0  0
  6 26  1  0  0  0
 26 27  2  0  0  0
 27 28  1  0  0  0
 28 32  1  0  0  0
 32 33  1  0  0  0
 33 34  1  0  0  0
 34 35  3  0  0  0
 28 29  1  0  0  0
 29 30  2  0  0  0
 30 31  1  0  0  0
 19 20  2  0  0  0
 20 21  1  0  0  0
 20 14  1  0  0  0
 12  1  1  0  0  0
 30 26  1  0  0  0
  8  3  1  0  0  0
 11  9  1  0  0  0
M  END
> <minimizedAffinity>
-8.43471

> <CNNscore>
0.2354479879

> <CNNaffinity>
7.0645194054

> <CNN_VS>
1.6633268595

> <CNNaffinity_variance>
0.1788716018

$$$$
[H]c1nc(-c2c(C([H])([H])[H])nn(C([H])([H])C([H])([H])C#N)c2[H])c([H])c2c1C([H])([H])N(c1c(F)c(OC([H])([H])[H])c([H])c(OC([H])([H])[H])c1F)C(=O)C21C([H])([H])C1([H])[H]


 35 39  0  0  0  0  0  0  0  0999 V2000
   -1.7391   21.5682  -20.0430 N   0  0  0  0  0  0  0  0  0  0  0  0
   -0.9674   20.9931  -21.1037 C   0  0  0  0  0  0  0  0  0  0  0  0
   -1.3930   21.4669  -22.4407 C   0  0  0  0  0  0  0  0  0  0  0  0
   -0.4630   21.2955  -23.4694 C   0  0  0  0  0  0  0  0  0  0  0  0
   -0.7606   21.6780  -24.6888 N   0  0  0  0  0  0  0  0  0  0  0  0
   -1.9568   22.2493  -25.0272 C   0  0  0  0  0  0  0  0  0  0  0  0
   -2.8546   22.4136  -24.0257 C   0  0  0  0  0  0  0  0  0  0  0  0
   -2.6128   22.0321  -22.6976 C   0  0  0  0  0  0  0  0  0  0  0  0
   -3.5826   22.2206  -21.6284 C   0  0  0  0  0  0  0  0  0  0  0  0
   -4.8227   21.3605  -21.5246 C   0  0  0  0  0  0  0  0  0  0  0  0
   -4.9267   22.8071  -21.8141 C   0  0  0  0  0  0  0  0  0  0  0  0
   -2.8661   22.3783  -20.3372 C   0  0  0  0  0  0  0  0  0  0  0  0
   -3.2781   23.2329  -19.5271 O   0  0  0  0  0  0  0  0  0  0  0  0
   -1.7703   20.0584  -16.6365 C   0  0  0  0  0  0  0  0  0  0  0  0
   -0.6666   20.7052  -16.0759 C   0  0  0  0  0  0  0  0  0  0  0  0
    0.0734   21.6187  -16.7949 C   0  0  0  0  0  0  0  0  0  0  0  0
   -0.2714   21.9204  -18.1190 C   0  0  0  0  0  0  0  0  0  0  0  0
    0.4691   22.8270  -18.8064 F   0  0  0  0  0  0  0  0  0  0  0  0
   -1.3515   21.2955  -18.6884 C   0  0  0  0  0  0  0  0  0  0  0  0
   -2.0659   20.3881  -17.9354 C   0  0  0  0  0  0  0  0  0  0  0  0
   -3.1197   19.7897  -18.5109 F   0  0  0  0  0  0  0  0  0  0  0  0
   -2.1808   18.6461  -14.6566 C   0  0  0  0  0  0  0  0  0  0  0  0
   -2.5175   19.1379  -15.9143 O   0  0  0  0  0  0  0  0  0  0  0  0
    1.1624   22.2703  -16.2739 O   0  0  0  0  0  0  0  0  0  0  0  0
    2.4960   21.8760  -16.3270 C   0  0  0  0  0  0  0  0  0  0  0  0
   -2.1269   22.6232  -26.4230 C   0  0  0  0  0  0  0  0  0  0  0  0
   -3.3639   22.9080  -27.0158 C   0  0  0  0  0  0  0  0  0  0  0  0
   -3.2120   23.2344  -28.2954 N   0  0  0  0  0  0  0  0  0  0  0  0
   -1.9265   23.1734  -28.5590 N   0  0  0  0  0  0  0  0  0  0  0  0
   -1.2368   22.8070  -27.4518 C   0  0  0  0  0  0  0  0  0  0  0  0
    0.2234   22.6523  -27.3928 C   0  0  0  0  0  0  0  0  0  0  0  0
   -4.2430   23.5930  -29.2520 C   0  0  0  0  0  0  0  0  0  0  0  0
   -4.4059   25.0860  -29.3400 C   0  0  0  0  0  0  0  0  0  0  0  0
   -5.5036   25.4866  -28.4806 C   0  0  0  0  0  0  0  0  0  0  0  0
   -6.3591   25.8041  -27.8017 N   0  0  0  0  0  0  0  0  0  0  0  0
 22 23  1  0  0  0
 23 14  1  0  0  0
 14 15  2  0  0  0
 15 16  1  0  0  0
 16 24  1  0  0  0
 24 25  1  0  0  0
 16 17  2  0  0  0
 17 18  1  0  0  0
 17 19  1  0  0  0
 19  1  1  0  0  0
  1  2  1  0  0  0
  2  3  1  0  0  0
  3  4  2  0  0  0
  4  5  1  0  0  0
  5  6  2  0  0  0
  6  7  1  0  0  0
  7  8  2  0  0  0
  8  9  1  0  0  0
  9 10  1  0  0  0
 10 11  1  0  0  0
  9 12  1  0  0  0
 12 13  2  0  0  0
  6 26  1  0  0  0
 26 27  2  0  0  0
 27 28  1  0  0  0
 28 32  1  0  0  0
 32 33  1  0  0  0
 33 34  1  0  0  0
 34 35  3  0  0  0
 28 29  1  0  0  0
 29 30  2  0  0  0
 30 31  1  0  0  0
 19 20  2  0  0  0
 20 21  1  0  0  0
 20 14  1  0  0  0
 12  1  1  0  0  0
 30 26  1  0  0  0
  8  3  1  0  0  0
 11  9  1  0  0  0
M  END
> <minimizedAffinity>
-7.27951

> <CNNscore>
0.2324100733

> <CNNaffinity>
7.0733842850

> <CNN_VS>
1.6439257860

> <CNNaffinity_variance>
0.2332726270

$$$$
[H]c1nc(-c2c(C([H])([H])[H])nn(C([H])([H])C([H])([H])C#N)c2[H])c([H])c2c1C([H])([H])N(c1c(F)c(OC([H])([H])[H])c([H])c(OC([H])([H])[H])c1F)C(=O)C21C([H])([H])C1([H])[H]


 35 39  0  0  0  0  0  0  0  0999 V2000
    0.0182   22.0070  -19.8377 N   0  0  0  0  0  0  0  0  0  0  0  0
    0.5230   21.3963  -21.0309 C   0  0  0  0  0  0  0  0  0  0  0  0
   -0.2741   21.7423  -22.2301 C   0  0  0  0  0  0  0  0  0  0  0  0
    0.3614   21.5447  -23.4587 C   0  0  0  0  0  0  0  0  0  0  0  0
   -0.2748   21.8159  -24.5737 N   0  0  0  0  0  0  0  0  0  0  0  0
   -1.5567   22.2925  -24.6117 C   0  0  0  0  0  0  0  0  0  0  0  0
   -2.1680   22.4827  -23.4175 C   0  0  0  0  0  0  0  0  0  0  0  0
   -1.5568   22.2176  -22.1830 C   0  0  0  0  0  0  0  0  0  0  0  0
   -2.2213   22.4331  -20.9057 C   0  0  0  0  0  0  0  0  0  0  0  0
   -3.3230   21.5160  -20.4226 C   0  0  0  0  0  0  0  0  0  0  0  0
   -3.6063   22.9283  -20.7581 C   0  0  0  0  0  0  0  0  0  0  0  0
   -1.2031   22.7285  -19.8657 C   0  0  0  0  0  0  0  0  0  0  0  0
   -1.4486   23.6183  -19.0266 O   0  0  0  0  0  0  0  0  0  0  0  0
    2.3574   22.8269  -17.0554 C   0  0  0  0  0  0  0  0  0  0  0  0
    2.2413   21.6631  -16.2919 C   0  0  0  0  0  0  0  0  0  0  0  0
    1.4167   20.6287  -16.6782 C   0  0  0  0  0  0  0  0  0  0  0  0
    0.6693   20.7255  -17.8594 C   0  0  0  0  0  0  0  0  0  0  0  0
   -0.1327   19.6922  -18.2225 F   0  0  0  0  0  0  0  0  0  0  0  0
    0.7685   21.8605  -18.6232 C   0  0  0  0  0  0  0  0  0  0  0  0
    1.6048   22.8724  -18.2020 C   0  0  0  0  0  0  0  0  0  0  0  0
    1.6885   23.9729  -18.9647 F   0  0  0  0  0  0  0  0  0  0  0  0
    4.4764   24.0856  -17.1476 C   0  0  0  0  0  0  0  0  0  0  0  0
    3.1875   23.8701  -16.6686 O   0  0  0  0  0  0  0  0  0  0  0  0
    1.2801   19.4736  -15.9509 O   0  0  0  0  0  0  0  0  0  0  0  0
    1.9353   18.2616  -16.1471 C   0  0  0  0  0  0  0  0  0  0  0  0
   -2.1162   22.5487  -25.9302 C   0  0  0  0  0  0  0  0  0  0  0  0
   -3.4750   22.7860  -26.1753 C   0  0  0  0  0  0  0  0  0  0  0  0
   -3.6919   23.0038  -27.4686 N   0  0  0  0  0  0  0  0  0  0  0  0
   -2.5296   22.9177  -28.0746 N   0  0  0  0  0  0  0  0  0  0  0  0
   -1.5515   22.6435  -27.1778 C   0  0  0  0  0  0  0  0  0  0  0  0
   -0.1297   22.4906  -27.5162 C   0  0  0  0  0  0  0  0  0  0  0  0
   -4.9557   23.2836  -28.1254 C   0  0  0  0  0  0  0  0  0  0  0  0
   -4.9793   22.7189  -29.5197 C   0  0  0  0  0  0  0  0  0  0  0  0
   -5.4821   23.7342  -30.4254 C   0  0  0  0  0  0  0  0  0  0  0  0
   -5.8693   24.5302  -31.1396 N   0  0  0  0  0  0  0  0  0  0  0  0
 22 23  1  0  0  0
 23 14  1  0  0  0
 14 15  2  0  0  0
 15 16  1  0  0  0
 16 24  1  0  0  0
 24 25  1  0  0  0
 16 17  2  0  0  0
 17 18  1  0  0  0
 17 19  1  0  0  0
 19  1  1  0  0  0
  1  2  1  0  0  0
  2  3  1  0  0  0
  3  4  2  0  0  0
  4  5  1  0  0  0
  5  6  2  0  0  0
  6  7  1  0  0  0
  7  8  2  0  0  0
  8  9  1  0  0  0
  9 10  1  0  0  0
 10 11  1  0  0  0
  9 12  1  0  0  0
 12 13  2  0  0  0
  6 26  1  0  0  0
 26 27  2  0  0  0
 27 28  1  0  0  0
 28 32  1  0  0  0
 32 33  1  0  0  0
 33 34  1  0  0  0
 34 35  3  0  0  0
 28 29  1  0  0  0
 29 30  2  0  0  0
 30 31  1  0  0  0
 19 20  2  0  0  0
 20 21  1  0  0  0
 20 14  1  0  0  0
 12  1  1  0  0  0
 30 26  1  0  0  0
  8  3  1  0  0  0
 11  9  1  0  0  0
M  END
> <minimizedAffinity>
-7.88792

> <CNNscore>
0.2240177095

> <CNNaffinity>
6.8886475563

> <CNN_VS>
1.5431790352

> <CNNaffinity_variance>
0.0699801892

$$$$
[H]c1nc(-c2c(C([H])([H])[H])nn(C([H])([H])C([H])([H])C#N)c2[H])c([H])c2c1C([H])([H])N(c1c(F)c(OC([H])([H])[H])c([H])c(OC([H])([H])[H])c1F)C(=O)C21C([H])([H])C1([H])[H]


 35 39  0  0  0  0  0  0  0  0999 V2000
   -0.9701   21.8006  -22.0864 N   0  0  0  0  0  0  0  0  0  0  0  0
   -1.1498   21.3310  -23.4276 C   0  0  0  0  0  0  0  0  0  0  0  0
   -2.0107   22.2256  -24.2348 C   0  0  0  0  0  0  0  0  0  0  0  0
   -1.9052   22.0810  -25.6206 C   0  0  0  0  0  0  0  0  0  0  0  0
   -2.6390   22.8267  -26.4124 N   0  0  0  0  0  0  0  0  0  0  0  0
   -3.5264   23.7625  -25.9555 C   0  0  0  0  0  0  0  0  0  0  0  0
   -3.6242   23.8989  -24.6109 C   0  0  0  0  0  0  0  0  0  0  0  0
   -2.8752   23.1412  -23.6984 C   0  0  0  0  0  0  0  0  0  0  0  0
   -2.9837   23.3020  -22.2556 C   0  0  0  0  0  0  0  0  0  0  0  0
   -4.1924   22.8062  -21.4931 C   0  0  0  0  0  0  0  0  0  0  0  0
   -3.8979   24.2524  -21.5877 C   0  0  0  0  0  0  0  0  0  0  0  0
   -1.6938   22.9287  -21.6212 C   0  0  0  0  0  0  0  0  0  0  0  0
   -1.2692   23.6262  -20.6781 O   0  0  0  0  0  0  0  0  0  0  0  0
    2.2231   20.3495  -20.8281 C   0  0  0  0  0  0  0  0  0  0  0  0
    1.7734   19.7726  -19.6381 C   0  0  0  0  0  0  0  0  0  0  0  0
    0.4524   19.8536  -19.2539 C   0  0  0  0  0  0  0  0  0  0  0  0
   -0.4770   20.5245  -20.0595 C   0  0  0  0  0  0  0  0  0  0  0  0
   -1.7738   20.5874  -19.6632 F   0  0  0  0  0  0  0  0  0  0  0  0
   -0.0556   21.0985  -21.2318 C   0  0  0  0  0  0  0  0  0  0  0  0
    1.2742   20.9951  -21.5805 C   0  0  0  0  0  0  0  0  0  0  0  0
    1.6649   21.5620  -22.7319 F   0  0  0  0  0  0  0  0  0  0  0  0
    4.5780   19.7200  -20.4527 C   0  0  0  0  0  0  0  0  0  0  0  0
    3.5531   20.2692  -21.2176 O   0  0  0  0  0  0  0  0  0  0  0  0
   -0.0206   19.2986  -18.0919 O   0  0  0  0  0  0  0  0  0  0  0  0
   -0.0463   19.8713  -16.8239 C   0  0  0  0  0  0  0  0  0  0  0  0
   -4.2591   24.5113  -26.9652 C   0  0  0  0  0  0  0  0  0  0  0  0
   -4.5500   24.0264  -28.2469 C   0  0  0  0  0  0  0  0  0  0  0  0
   -5.2431   24.9202  -28.9454 N   0  0  0  0  0  0  0  0  0  0  0  0
   -5.4147   25.9667  -28.1701 N   0  0  0  0  0  0  0  0  0  0  0  0
   -4.8338   25.7579  -26.9639 C   0  0  0  0  0  0  0  0  0  0  0  0
   -4.8454   26.7225  -25.8553 C   0  0  0  0  0  0  0  0  0  0  0  0
   -5.7327   24.8020  -30.3066 C   0  0  0  0  0  0  0  0  0  0  0  0
   -4.9968   25.7337  -31.2307 C   0  0  0  0  0  0  0  0  0  0  0  0
   -5.7788   26.9447  -31.3916 C   0  0  0  0  0  0  0  0  0  0  0  0
   -6.3942   27.8939  -31.5100 N   0  0  0  0  0  0  0  0  0  0  0  0
 22 23  1  0  0  0
 23 14  1  0  0  0
 14 15  2  0  0  0
 15 16  1  0  0  0
 16 24  1  0  0  0
 24 25  1  0  0  0
 16 17  2  0  0  0
 17 18  1  0  0  0
 17 19  1  0  0  0
 19  1  1  0  0  0
  1  2  1  0  0  0
  2  3  1  0  0  0
  3  4  2  0  0  0
  4  5  1  0  0  0
  5  6  2  0  0  0
  6  7  1  0  0  0
  7  8  2  0  0  0
  8  9  1  0  0  0
  9 10  1  0  0  0
 10 11  1  0  0  0
  9 12  1  0  0  0
 12 13  2  0  0  0
  6 26  1  0  0  0
 26 27  2  0  0  0
 27 28  1  0  0  0
 28 32  1  0  0  0
 32 33  1  0  0  0
 33 34  1  0  0  0
 34 35  3  0  0  0
 28 29  1  0  0  0
 29 30  2  0  0  0
 30 31  1  0  0  0
 19 20  2  0  0  0
 20 21  1  0  0  0
 20 14  1  0  0  0
 12  1  1  0  0  0
 30 26  1  0  0  0
  8  3  1  0  0  0
 11  9  1  0  0  0
M  END
> <minimizedAffinity>
-8.24428

> <CNNscore>
0.2146048993

> <CNNaffinity>
7.0353875160

> <CNN_VS>
1.5098286867

> <CNNaffinity_variance>
0.2331118584

$$$$
[H]c1nc(-c2c(C([H])([H])[H])nn(C([H])([H])C([H])([H])C#N)c2[H])c([H])c2c1C([H])([H])N(c1c(F)c(OC([H])([H])[H])c([H])c(OC([H])([H])[H])c1F)C(=O)C21C([H])([H])C1([H])[H]


 35 39  0  0  0  0  0  0  0  0999 V2000
   -1.3884   21.5627  -20.5430 N   0  0  0  0  0  0  0  0  0  0  0  0
   -0.8627   21.0268  -21.7628 C   0  0  0  0  0  0  0  0  0  0  0  0
   -1.5233   21.5875  -22.9638 C   0  0  0  0  0  0  0  0  0  0  0  0
   -0.8205   21.4483  -24.1635 C   0  0  0  0  0  0  0  0  0  0  0  0
   -1.3362   21.9075  -25.2791 N   0  0  0  0  0  0  0  0  0  0  0  0
   -2.5523   22.5309  -25.3452 C   0  0  0  0  0  0  0  0  0  0  0  0
   -3.2292   22.6638  -24.1790 C   0  0  0  0  0  0  0  0  0  0  0  0
   -2.7467   22.2008  -22.9457 C   0  0  0  0  0  0  0  0  0  0  0  0
   -3.4800   22.3560  -21.6977 C   0  0  0  0  0  0  0  0  0  0  0  0
   -4.7084   21.5271  -21.3936 C   0  0  0  0  0  0  0  0  0  0  0  0
   -4.8105   22.9902  -21.5842 C   0  0  0  0  0  0  0  0  0  0  0  0
   -2.5187   22.4199  -20.5675 C   0  0  0  0  0  0  0  0  0  0  0  0
   -2.7301   23.2386  -19.6504 O   0  0  0  0  0  0  0  0  0  0  0  0
    1.1564   21.4579  -17.8230 C   0  0  0  0  0  0  0  0  0  0  0  0
    0.5327   20.5701  -16.9433 C   0  0  0  0  0  0  0  0  0  0  0  0
   -0.6946   20.0141  -17.2327 C   0  0  0  0  0  0  0  0  0  0  0  0
   -1.3489   20.3324  -18.4300 C   0  0  0  0  0  0  0  0  0  0  0  0
   -2.5550   19.7689  -18.6960 F   0  0  0  0  0  0  0  0  0  0  0  0
   -0.7537   21.2028  -19.3072 C   0  0  0  0  0  0  0  0  0  0  0  0
    0.4745   21.7372  -18.9807 C   0  0  0  0  0  0  0  0  0  0  0  0
    1.0399   22.5849  -19.8535 F   0  0  0  0  0  0  0  0  0  0  0  0
    2.6396   22.9213  -16.5034 C   0  0  0  0  0  0  0  0  0  0  0  0
    2.3927   22.0192  -17.5341 O   0  0  0  0  0  0  0  0  0  0  0  0
   -1.3335   19.1399  -16.3903 O   0  0  0  0  0  0  0  0  0  0  0  0
   -2.2582   19.4397  -15.3944 C   0  0  0  0  0  0  0  0  0  0  0  0
   -2.9780   22.9880  -26.6593 C   0  0  0  0  0  0  0  0  0  0  0  0
   -4.2901   23.3646  -26.9740 C   0  0  0  0  0  0  0  0  0  0  0  0
   -4.3803   23.7522  -28.2424 N   0  0  0  0  0  0  0  0  0  0  0  0
   -3.1803   23.6430  -28.7654 N   0  0  0  0  0  0  0  0  0  0  0  0
   -2.3043   23.1838  -27.8393 C   0  0  0  0  0  0  0  0  0  0  0  0
   -0.8739   22.9550  -28.0866 C   0  0  0  0  0  0  0  0  0  0  0  0
   -5.5601   24.2121  -28.9518 C   0  0  0  0  0  0  0  0  0  0  0  0
   -5.2415   24.5259  -30.3883 C   0  0  0  0  0  0  0  0  0  0  0  0
   -5.5197   25.9284  -30.6320 C   0  0  0  0  0  0  0  0  0  0  0  0
   -5.7323   27.0283  -30.8290 N   0  0  0  0  0  0  0  0  0  0  0  0
 22 23  1  0  0  0
 23 14  1  0  0  0
 14 15  2  0  0  0
 15 16  1  0  0  0
 16 24  1  0  0  0
 24 25  1  0  0  0
 16 17  2  0  0  0
 17 18  1  0  0  0
 17 19  1  0  0  0
 19  1  1  0  0  0
  1  2  1  0  0  0
  2  3  1  0  0  0
  3  4  2  0  0  0
  4  5  1  0  0  0
  5  6  2  0  0  0
  6  7  1  0  0  0
  7  8  2  0  0  0
  8  9  1  0  0  0
  9 10  1  0  0  0
 10 11  1  0  0  0
  9 12  1  0  0  0
 12 13  2  0  0  0
  6 26  1  0  0  0
 26 27  2  0  0  0
 27 28  1  0  0  0
 28 32  1  0  0  0
 32 33  1  0  0  0
 33 34  1  0  0  0
 34 35  3  0  0  0
 28 29  1  0  0  0
 29 30  2  0  0  0
 30 31  1  0  0  0
 19 20  2  0  0  0
 20 21  1  0  0  0
 20 14  1  0  0  0
 12  1  1  0  0  0
 30 26  1  0  0  0
  8  3  1  0  0  0
 11  9  1  0  0  0
M  END
> <minimizedAffinity>
-7.30416

> <CNNscore>
0.1726669818

> <CNNaffinity>
6.9396414757

> <CNN_VS>
1.1982469559

> <CNNaffinity_variance>
0.1376700550

$$$$
[H]c1nc(-c2c(C([H])([H])[H])nn(C([H])([H])C([H])([H])C#N)c2[H])c([H])c2c1C([H])([H])N(c1c(F)c(OC([H])([H])[H])c([H])c(OC([H])([H])[H])c1F)C(=O)C21C([H])([H])C1([H])[H]


 35 39  0  0  0  0  0  0  0  0999 V2000
   -3.1030   22.1257  -22.8832 N   0  0  0  0  0  0  0  0  0  0  0  0
   -3.3525   22.9417  -21.7328 C   0  0  0  0  0  0  0  0  0  0  0  0
   -4.7382   22.8074  -21.2278 C   0  0  0  0  0  0  0  0  0  0  0  0
   -4.9469   23.2240  -19.9105 C   0  0  0  0  0  0  0  0  0  0  0  0
   -6.1467   23.1496  -19.3846 N   0  0  0  0  0  0  0  0  0  0  0  0
   -7.2373   22.6778  -20.0627 C   0  0  0  0  0  0  0  0  0  0  0  0
   -7.0292   22.2747  -21.3395 C   0  0  0  0  0  0  0  0  0  0  0  0
   -5.7785   22.3217  -21.9730 C   0  0  0  0  0  0  0  0  0  0  0  0
   -5.5657   21.8787  -23.3433 C   0  0  0  0  0  0  0  0  0  0  0  0
   -6.0603   22.6876  -24.5220 C   0  0  0  0  0  0  0  0  0  0  0  0
   -6.6292   21.3549  -24.2263 C   0  0  0  0  0  0  0  0  0  0  0  0
   -4.1643   21.4115  -23.4967 C   0  0  0  0  0  0  0  0  0  0  0  0
   -3.9484   20.3855  -24.1726 O   0  0  0  0  0  0  0  0  0  0  0  0
   -0.2323   22.5780  -25.2155 C   0  0  0  0  0  0  0  0  0  0  0  0
    0.7850   21.9857  -24.4636 C   0  0  0  0  0  0  0  0  0  0  0  0
    0.5390   21.4468  -23.2193 C   0  0  0  0  0  0  0  0  0  0  0  0
   -0.7526   21.4828  -22.6775 C   0  0  0  0  0  0  0  0  0  0  0  0
   -0.9723   20.9414  -21.4522 F   0  0  0  0  0  0  0  0  0  0  0  0
   -1.7656   22.0606  -23.3995 C   0  0  0  0  0  0  0  0  0  0  0  0
   -1.4782   22.5883  -24.6404 C   0  0  0  0  0  0  0  0  0  0  0  0
   -2.4838   23.1470  -25.3307 F   0  0  0  0  0  0  0  0  0  0  0  0
    0.1872   22.3868  -27.6384 C   0  0  0  0  0  0  0  0  0  0  0  0
    0.0128   23.1214  -26.4692 O   0  0  0  0  0  0  0  0  0  0  0  0
    1.5155   20.8589  -22.4559 O   0  0  0  0  0  0  0  0  0  0  0  0
    2.8499   20.6520  -22.7925 C   0  0  0  0  0  0  0  0  0  0  0  0
   -8.4962   22.6548  -19.3335 C   0  0  0  0  0  0  0  0  0  0  0  0
   -8.6966   21.9625  -18.1321 C   0  0  0  0  0  0  0  0  0  0  0  0
   -9.9377   22.1342  -17.6880 N   0  0  0  0  0  0  0  0  0  0  0  0
  -10.5527   22.9098  -18.5516 N   0  0  0  0  0  0  0  0  0  0  0  0
   -9.7140   23.2460  -19.5613 C   0  0  0  0  0  0  0  0  0  0  0  0
  -10.0763   24.1117  -20.6922 C   0  0  0  0  0  0  0  0  0  0  0  0
  -10.5379   21.5851  -16.4859 C   0  0  0  0  0  0  0  0  0  0  0  0
  -11.5758   20.5492  -16.8221 C   0  0  0  0  0  0  0  0  0  0  0  0
  -10.9898   19.2323  -16.6599 C   0  0  0  0  0  0  0  0  0  0  0  0
  -10.5371   18.1963  -16.5354 N   0  0  0  0  0  0  0  0  0  0  0  0
 22 23  1  0  0  0
 23 14  1  0  0  0
 14 15  2  0  0  0
 15 16  1  0  0  0
 16 24  1  0  0  0
 24 25  1  0  0  0
 16 17  2  0  0  0
 17 18  1  0  0  0
 17 19  1  0  0  0
 19  1  1  0  0  0
  1  2  1  0  0  0
  2  3  1  0  0  0
  3  4  2  0  0  0
  4  5  1  0  0  0
  5  6  2  0  0  0
  6  7  1  0  0  0
  7  8  2  0  0  0
  8  9  1  0  0  0
  9 10  1  0  0  0
 10 11  1  0  0  0
  9 12  1  0  0  0
 12 13  2  0  0  0
  6 26  1  0  0  0
 26 27  2  0  0  0
 27 28  1  0  0  0
 28 32  1  0  0  0
 32 33  1  0  0  0
 33 34  1  0  0  0
 34 35  3  0  0  0
 28 29  1  0  0  0
 29 30  2  0  0  0
 30 31  1  0  0  0
 19 20  2  0  0  0
 20 21  1  0  0  0
 20 14  1  0  0  0
 12  1  1  0  0  0
 30 26  1  0  0  0
  8  3  1  0  0  0
 11  9  1  0  0  0
M  END
> <minimizedAffinity>
-7.02276

> <CNNscore>
0.1708378941

> <CNNaffinity>
6.3710927963

> <CNN_VS>
1.0884240866

> <CNNaffinity_variance>
0.0428526290

$$$$
[H]c1nc(-c2c(C([H])([H])[H])nn(C([H])([H])C([H])([H])C#N)c2[H])c([H])c2c1C([H])([H])N(c1c(F)c(OC([H])([H])[H])c([H])c(OC([H])([H])[H])c1F)C(=O)C21C([H])([H])C1([H])[H]


 35 39  0  0  0  0  0  0  0  0999 V2000
   -1.9256   22.5361  -24.3747 N   0  0  0  0  0  0  0  0  0  0  0  0
   -0.5438   22.6168  -24.7429 C   0  0  0  0  0  0  0  0  0  0  0  0
    0.3386   21.8746  -23.8135 C   0  0  0  0  0  0  0  0  0  0  0  0
    1.6064   21.5545  -24.3061 C   0  0  0  0  0  0  0  0  0  0  0  0
    2.4572   20.9060  -23.5465 N   0  0  0  0  0  0  0  0  0  0  0  0
    2.1751   20.5126  -22.2668 C   0  0  0  0  0  0  0  0  0  0  0  0
    0.9441   20.8251  -21.7944 C   0  0  0  0  0  0  0  0  0  0  0  0
   -0.0212   21.5151  -22.5428 C   0  0  0  0  0  0  0  0  0  0  0  0
   -1.3434   21.8387  -22.0269 C   0  0  0  0  0  0  0  0  0  0  0  0
   -1.5448   22.9220  -20.9904 C   0  0  0  0  0  0  0  0  0  0  0  0
   -1.8135   21.5044  -20.6659 C   0  0  0  0  0  0  0  0  0  0  0  0
   -2.3055   21.9179  -23.1555 C   0  0  0  0  0  0  0  0  0  0  0  0
   -3.4442   21.4317  -23.0036 O   0  0  0  0  0  0  0  0  0  0  0  0
   -4.6251   24.7832  -25.6192 C   0  0  0  0  0  0  0  0  0  0  0  0
   -4.8032   24.2589  -26.9016 C   0  0  0  0  0  0  0  0  0  0  0  0
   -4.0580   23.1906  -27.3517 C   0  0  0  0  0  0  0  0  0  0  0  0
   -3.0950   22.6022  -26.5213 C   0  0  0  0  0  0  0  0  0  0  0  0
   -2.3761   21.5478  -26.9843 F   0  0  0  0  0  0  0  0  0  0  0  0
   -2.9041   23.1025  -25.2586 C   0  0  0  0  0  0  0  0  0  0  0  0
   -3.6700   24.1721  -24.8461 C   0  0  0  0  0  0  0  0  0  0  0  0
   -3.4685   24.6448  -23.6068 F   0  0  0  0  0  0  0  0  0  0  0  0
   -5.2027   27.1803  -25.5653 C   0  0  0  0  0  0  0  0  0  0  0  0
   -5.3746   25.8590  -25.1633 O   0  0  0  0  0  0  0  0  0  0  0  0
   -4.2082   22.6530  -28.6048 O   0  0  0  0  0  0  0  0  0  0  0  0
   -5.1825   22.9576  -29.5506 C   0  0  0  0  0  0  0  0  0  0  0  0
    3.2260   19.7961  -21.5603 C   0  0  0  0  0  0  0  0  0  0  0  0
    3.5955   18.4725  -21.8326 C   0  0  0  0  0  0  0  0  0  0  0  0
    4.5931   18.0873  -21.0430 N   0  0  0  0  0  0  0  0  0  0  0  0
    4.8874   19.1064  -20.2681 N   0  0  0  0  0  0  0  0  0  0  0  0
    4.0823   20.1590  -20.5506 C   0  0  0  0  0  0  0  0  0  0  0  0
    4.1486   21.4632  -19.8766 C   0  0  0  0  0  0  0  0  0  0  0  0
    5.2558   16.7964  -21.0100 C   0  0  0  0  0  0  0  0  0  0  0  0
    4.6931   15.8707  -22.0540 C   0  0  0  0  0  0  0  0  0  0  0  0
    5.4501   14.6335  -22.0368 C   0  0  0  0  0  0  0  0  0  0  0  0
    6.0450   13.6641  -22.0314 N   0  0  0  0  0  0  0  0  0  0  0  0
 22 23  1  0  0  0
 23 14  1  0  0  0
 14 15  2  0  0  0
 15 16  1  0  0  0
 16 24  1  0  0  0
 24 25  1  0  0  0
 16 17  2  0  0  0
 17 18  1  0  0  0
 17 19  1  0  0  0
 19  1  1  0  0  0
  1  2  1  0  0  0
  2  3  1  0  0  0
  3  4  2  0  0  0
  4  5  1  0  0  0
  5  6  2  0  0  0
  6  7  1  0  0  0
  7  8  2  0  0  0
  8  9  1  0  0  0
  9 10  1  0  0  0
 10 11  1  0  0  0
  9 12  1  0  0  0
 12 13  2  0  0  0
  6 26  1  0  0  0
 26 27  2  0  0  0
 27 28  1  0  0  0
 28 32  1  0  0  0
 32 33  1  0  0  0
 33 34  1  0  0  0
 34 35  3  0  0  0
 28 29  1  0  0  0
 29 30  2  0  0  0
 30 31  1  0  0  0
 19 20  2  0  0  0
 20 21  1  0  0  0
 20 14  1  0  0  0
 12  1  1  0  0  0
 30 26  1  0  0  0
  8  3  1  0  0  0
 11  9  1  0  0  0
M  END
> <minimizedAffinity>
-7.39642

> <CNNscore>
0.1574868113

> <CNNaffinity>
6.6253929138

> <CNN_VS>
1.0434119701

> <CNNaffinity_variance>
0.1400371194

$$$$
[H]c1nc(-c2c(C([H])([H])[H])nn(C([H])([H])C([H])([H])C#N)c2[H])c([H])c2c1C([H])([H])N(c1c(F)c(OC([H])([H])[H])c([H])c(OC([H])([H])[H])c1F)C(=O)C21C([H])([H])C1([H])[H]


 35 39  0  0  0  0  0  0  0  0999 V2000
   -3.1988   22.1672  -23.0181 N   0  0  0  0  0  0  0  0  0  0  0  0
   -3.4625   23.0448  -21.9173 C   0  0  0  0  0  0  0  0  0  0  0  0
   -4.8418   22.9073  -21.3958 C   0  0  0  0  0  0  0  0  0  0  0  0
   -5.0538   23.3975  -20.1046 C   0  0  0  0  0  0  0  0  0  0  0  0
   -6.2486   23.3256  -19.5672 N   0  0  0  0  0  0  0  0  0  0  0  0
   -7.3308   22.7871  -20.2082 C   0  0  0  0  0  0  0  0  0  0  0  0
   -7.1194   22.3128  -21.4597 C   0  0  0  0  0  0  0  0  0  0  0  0
   -5.8735   22.3521  -22.1034 C   0  0  0  0  0  0  0  0  0  0  0  0
   -5.6569   21.8325  -23.4459 C   0  0  0  0  0  0  0  0  0  0  0  0
   -6.1777   22.5564  -24.6679 C   0  0  0  0  0  0  0  0  0  0  0  0
   -6.7117   21.2304  -24.2885 C   0  0  0  0  0  0  0  0  0  0  0  0
   -4.2452   21.3914  -23.5803 C   0  0  0  0  0  0  0  0  0  0  0  0
   -4.0074   20.3321  -24.1946 O   0  0  0  0  0  0  0  0  0  0  0  0
    0.4398   21.3888  -23.2182 C   0  0  0  0  0  0  0  0  0  0  0  0
    0.7338   21.9308  -24.4715 C   0  0  0  0  0  0  0  0  0  0  0  0
   -0.2364   22.5408  -25.2368 C   0  0  0  0  0  0  0  0  0  0  0  0
   -1.5532   22.6305  -24.7667 C   0  0  0  0  0  0  0  0  0  0  0  0
   -2.4912   23.2401  -25.5357 F   0  0  0  0  0  0  0  0  0  0  0  0
   -1.8629   22.1039  -23.5386 C   0  0  0  0  0  0  0  0  0  0  0  0
   -0.8636   21.5020  -22.8039 C   0  0  0  0  0  0  0  0  0  0  0  0
   -1.1875   20.9951  -21.6047 F   0  0  0  0  0  0  0  0  0  0  0  0
    2.7861   20.8652  -22.6674 C   0  0  0  0  0  0  0  0  0  0  0  0
    1.4152   20.7740  -22.4452 O   0  0  0  0  0  0  0  0  0  0  0  0
    0.0196   23.0821  -26.4711 O   0  0  0  0  0  0  0  0  0  0  0  0
    0.3228   22.4078  -27.6500 C   0  0  0  0  0  0  0  0  0  0  0  0
   -8.5848   22.7772  -19.4704 C   0  0  0  0  0  0  0  0  0  0  0  0
   -8.8173   22.0049  -18.3249 C   0  0  0  0  0  0  0  0  0  0  0  0
  -10.0442   22.2103  -17.8563 N   0  0  0  0  0  0  0  0  0  0  0  0
  -10.6192   23.0846  -18.6505 N   0  0  0  0  0  0  0  0  0  0  0  0
   -9.7685   23.4517  -19.6392 C   0  0  0  0  0  0  0  0  0  0  0  0
  -10.0876   24.4224  -20.6953 C   0  0  0  0  0  0  0  0  0  0  0  0
  -10.6677   21.6029  -16.6949 C   0  0  0  0  0  0  0  0  0  0  0  0
  -11.5791   20.4750  -17.0959 C   0  0  0  0  0  0  0  0  0  0  0  0
  -11.2457   19.3037  -16.3080 C   0  0  0  0  0  0  0  0  0  0  0  0
  -10.9773   18.3886  -15.6882 N   0  0  0  0  0  0  0  0  0  0  0  0
 22 23  1  0  0  0
 23 14  1  0  0  0
 14 15  2  0  0  0
 15 16  1  0  0  0
 16 24  1  0  0  0
 24 25  1  0  0  0
 16 17  2  0  0  0
 17 18  1  0  0  0
 17 19  1  0  0  0
 19  1  1  0  0  0
  1  2  1  0  0  0
  2  3  1  0  0  0
  3  4  2  0  0  0
  4  5  1  0  0  0
  5  6  2  0  0  0
  6  7  1  0  0  0
  7  8  2  0  0  0
  8  9  1  0  0  0
  9 10  1  0  0  0
 10 11  1  0  0  0
  9 12  1  0  0  0
 12 13  2  0  0  0
  6 26  1  0  0  0
 26 27  2  0  0  0
 27 28  1  0  0  0
 28 32  1  0  0  0
 32 33  1  0  0  0
 33 34  1  0  0  0
 34 35  3  0  0  0
 28 29  1  0  0  0
 29 30  2  0  0  0
 30 31  1  0  0  0
 19 20  2  0  0  0
 20 21  1  0  0  0
 20 14  1  0  0  0
 12  1  1  0  0  0
 30 26  1  0  0  0
  8  3  1  0  0  0
 11  9  1  0  0  0
M  END
> <minimizedAffinity>
-6.90643

> <CNNscore>
0.1476280689

> <CNNaffinity>
6.3237452507

> <CNN_VS>
0.9335622787

> <CNNaffinity_variance>
0.0401812829

$$$$
[H]c1c([H])c(Cl)c(-c2c([H])c3c([H])nc(N([H])c4c([H])c([H])c([H])c(SC([H])([H])[H])c4[H])nc3n(C([H])([H])[H])c2=O)c(Cl)c1[H]


 30 33  0  0  0  0  0  0  0  0999 V2000
   -1.7014   22.0975  -25.8573 C   0  0  0  0  0  0  0  0  0  0  0  0
   -0.3893   22.0477  -25.7620 N   0  0  0  0  0  0  0  0  0  0  0  0
    0.2553   21.8426  -24.6066 C   0  0  0  0  0  0  0  0  0  0  0  0
   -0.5088   21.6739  -23.4484 C   0  0  0  0  0  0  0  0  0  0  0  0
    0.0941   21.4612  -22.2396 C   0  0  0  0  0  0  0  0  0  0  0  0
   -0.6709   21.2987  -21.1207 C   0  0  0  0  0  0  0  0  0  0  0  0
   -2.0419   21.3507  -21.2195 C   0  0  0  0  0  0  0  0  0  0  0  0
   -2.7701   21.2045  -20.2059 O   0  0  0  0  0  0  0  0  0  0  0  0
   -2.6465   21.5572  -22.3897 N   0  0  0  0  0  0  0  0  0  0  0  0
   -4.0911   21.6175  -22.5287 C   0  0  0  0  0  0  0  0  0  0  0  0
   -1.8877   21.7207  -23.5147 C   0  0  0  0  0  0  0  0  0  0  0  0
   -2.4506   21.9300  -24.7089 N   0  0  0  0  0  0  0  0  0  0  0  0
    0.0036   21.0730  -19.8436 C   0  0  0  0  0  0  0  0  0  0  0  0
    0.4763   19.8137  -19.5445 C   0  0  0  0  0  0  0  0  0  0  0  0
    0.2911   18.4655  -20.6580 Cl  0  0  0  0  0  0  0  0  0  0  0  0
    1.1102   19.6418  -18.3227 C   0  0  0  0  0  0  0  0  0  0  0  0
    1.2633   20.6918  -17.4372 C   0  0  0  0  0  0  0  0  0  0  0  0
    0.7895   21.9471  -17.7410 C   0  0  0  0  0  0  0  0  0  0  0  0
    0.1608   22.1322  -18.9446 C   0  0  0  0  0  0  0  0  0  0  0  0
   -0.4676   23.7073  -19.3961 Cl  0  0  0  0  0  0  0  0  0  0  0  0
   -2.3587   22.3137  -27.0794 N   0  0  0  0  0  0  0  0  0  0  0  0
   -2.2452   21.5821  -27.8604 H   0  0  0  0  0  0  0  0  0  0  0  0
   -4.4059   25.2961  -26.3914 C   0  0  0  0  0  0  0  0  0  0  0  0
   -4.6936   25.6802  -27.6847 C   0  0  0  0  0  0  0  0  0  0  0  0
   -4.2397   24.9778  -28.7756 C   0  0  0  0  0  0  0  0  0  0  0  0
   -3.4549   23.8260  -28.6178 C   0  0  0  0  0  0  0  0  0  0  0  0
   -3.1587   23.4305  -27.3477 C   0  0  0  0  0  0  0  0  0  0  0  0
   -3.6395   24.1721  -26.2491 C   0  0  0  0  0  0  0  0  0  0  0  0
   -4.1911   25.6504  -23.4649 C   0  0  0  0  0  0  0  0  0  0  0  0
   -5.0117   26.2311  -24.9857 S   0  0  0  0  0  0  0  0  0  0  0  0
 29 30  1  0  0  0
 30 23  1  0  0  0
 23 24  2  0  0  0
 24 25  1  0  0  0
 25 26  2  0  0  0
 26 27  1  0  0  0
 27 21  1  0  0  0
 21  1  1  0  0  0
  1  2  2  0  0  0
  2  3  1  0  0  0
  3  4  2  0  0  0
  4  5  1  0  0  0
  5  6  2  0  0  0
  6 13  1  0  0  0
 13 14  2  0  0  0
 14 15  1  0  0  0
 14 16  1  0  0  0
 16 17  2  0  0  0
 17 18  1  0  0  0
 18 19  2  0  0  0
 19 20  1  0  0  0
  6  7  1  0  0  0
  7  8  2  0  0  0
  7  9  1  0  0  0
  9 10  1  0  0  0
  9 11  1  0  0  0
 11 12  2  0  0  0
 27 28  2  0  0  0
 28 23  1  0  0  0
 12  1  1  0  0  0
 11  4  1  0  0  0
 19 13  1  0  0  0
 21 22  1  0  0  0
M  END
> <minimizedAffinity>
-7.52844

> <CNNscore>
0.2812280655

> <CNNaffinity>
6.9392113686

> <CNN_VS>
1.9515010118

> <CNNaffinity_variance>
0.4174662530

$$$$
[H]c1c([H])c(Cl)c(-c2c([H])c3c([H])nc(N([H])c4c([H])c([H])c([H])c(SC([H])([H])[H])c4[H])nc3n(C([H])([H])[H])c2=O)c(Cl)c1[H]


 30 33  0  0  0  0  0  0  0  0999 V2000
   -1.8138   21.4680  -23.8160 C   0  0  0  0  0  0  0  0  0  0  0  0
   -0.9613   21.8744  -24.7334 N   0  0  0  0  0  0  0  0  0  0  0  0
   -1.3350   22.4997  -25.8568 C   0  0  0  0  0  0  0  0  0  0  0  0
   -2.6990   22.7289  -26.0591 C   0  0  0  0  0  0  0  0  0  0  0  0
   -3.1401   23.3629  -27.1875 C   0  0  0  0  0  0  0  0  0  0  0  0
   -4.4767   23.5769  -27.3653 C   0  0  0  0  0  0  0  0  0  0  0  0
   -5.3678   23.1525  -26.4073 C   0  0  0  0  0  0  0  0  0  0  0  0
   -6.6032   23.3363  -26.5453 O   0  0  0  0  0  0  0  0  0  0  0  0
   -4.9554   22.5328  -25.3012 N   0  0  0  0  0  0  0  0  0  0  0  0
   -5.8695   22.0722  -24.2705 C   0  0  0  0  0  0  0  0  0  0  0  0
   -3.6189   22.3148  -25.1156 C   0  0  0  0  0  0  0  0  0  0  0  0
   -3.1601   21.6976  -24.0222 N   0  0  0  0  0  0  0  0  0  0  0  0
   -4.9163   24.2573  -28.5820 C   0  0  0  0  0  0  0  0  0  0  0  0
   -5.0866   23.5274  -29.7384 C   0  0  0  0  0  0  0  0  0  0  0  0
   -4.7890   21.7951  -29.7932 Cl  0  0  0  0  0  0  0  0  0  0  0  0
   -5.5048   24.2107  -30.8706 C   0  0  0  0  0  0  0  0  0  0  0  0
   -5.7426   25.5719  -30.8431 C   0  0  0  0  0  0  0  0  0  0  0  0
   -5.5712   26.2958  -29.6859 C   0  0  0  0  0  0  0  0  0  0  0  0
   -5.1582   25.6342  -28.5590 C   0  0  0  0  0  0  0  0  0  0  0  0
   -4.9196   26.4958  -27.0489 Cl  0  0  0  0  0  0  0  0  0  0  0  0
   -1.4013   20.8137  -22.6439 N   0  0  0  0  0  0  0  0  0  0  0  0
   -1.4454   19.7389  -22.6126 H   0  0  0  0  0  0  0  0  0  0  0  0
    0.8658   21.6482  -19.8649 C   0  0  0  0  0  0  0  0  0  0  0  0
    0.1670   22.6981  -19.3061 C   0  0  0  0  0  0  0  0  0  0  0  0
   -1.0346   23.1312  -19.8141 C   0  0  0  0  0  0  0  0  0  0  0  0
   -1.6082   22.5159  -20.9365 C   0  0  0  0  0  0  0  0  0  0  0  0
   -0.9326   21.4773  -21.5040 C   0  0  0  0  0  0  0  0  0  0  0  0
    0.2978   21.0560  -20.9592 C   0  0  0  0  0  0  0  0  0  0  0  0
    3.7714   21.4481  -20.3683 C   0  0  0  0  0  0  0  0  0  0  0  0
    2.4318   21.1030  -19.1810 S   0  0  0  0  0  0  0  0  0  0  0  0
 29 30  1  0  0  0
 30 23  1  0  0  0
 23 24  2  0  0  0
 24 25  1  0  0  0
 25 26  2  0  0  0
 26 27  1  0  0  0
 27 21  1  0  0  0
 21  1  1  0  0  0
  1  2  2  0  0  0
  2  3  1  0  0  0
  3  4  2  0  0  0
  4  5  1  0  0  0
  5  6  2  0  0  0
  6 13  1  0  0  0
 13 14  2  0  0  0
 14 15  1  0  0  0
 14 16  1  0  0  0
 16 17  2  0  0  0
 17 18  1  0  0  0
 18 19  2  0  0  0
 19 20  1  0  0  0
  6  7  1  0  0  0
  7  8  2  0  0  0
  7  9  1  0  0  0
  9 10  1  0  0  0
  9 11  1  0  0  0
 11 12  2  0  0  0
 27 28  2  0  0  0
 28 23  1  0  0  0
 12  1  1  0  0  0
 11  4  1  0  0  0
 19 13  1  0  0  0
 21 22  1  0  0  0
M  END
> <minimizedAffinity>
-8.48160

> <CNNscore>
0.2082074136

> <CNNaffinity>
6.7692160606

> <CNN_VS>
1.4094009399

> <CNNaffinity_variance>
0.1551955938

$$$$
[H]c1c([H])c(Cl)c(-c2c([H])c3c([H])nc(N([H])c4c([H])c([H])c([H])c(SC([H])([H])[H])c4[H])nc3n(C([H])([H])[H])c2=O)c(Cl)c1[H]


 30 33  0  0  0  0  0  0  0  0999 V2000
   -2.1420   21.3054  -23.3550 C   0  0  0  0  0  0  0  0  0  0  0  0
   -3.4405   21.4804  -23.2252 N   0  0  0  0  0  0  0  0  0  0  0  0
   -4.2097   22.0068  -24.1863 C   0  0  0  0  0  0  0  0  0  0  0  0
   -3.5973   22.3873  -25.3838 C   0  0  0  0  0  0  0  0  0  0  0  0
   -4.3320   22.9306  -26.4013 C   0  0  0  0  0  0  0  0  0  0  0  0
   -3.7141   23.2953  -27.5627 C   0  0  0  0  0  0  0  0  0  0  0  0
   -2.3575   23.1128  -27.6989 C   0  0  0  0  0  0  0  0  0  0  0  0
   -1.7633   23.4395  -28.7568 O   0  0  0  0  0  0  0  0  0  0  0  0
   -1.6258   22.5847  -26.7174 N   0  0  0  0  0  0  0  0  0  0  0  0
   -0.1923   22.3786  -26.8288 C   0  0  0  0  0  0  0  0  0  0  0  0
   -2.2369   22.2169  -25.5514 C   0  0  0  0  0  0  0  0  0  0  0  0
   -1.5432   21.6836  -24.5408 N   0  0  0  0  0  0  0  0  0  0  0  0
   -4.5270   23.8731  -28.6313 C   0  0  0  0  0  0  0  0  0  0  0  0
   -4.8539   23.0988  -29.7232 C   0  0  0  0  0  0  0  0  0  0  0  0
   -4.3195   21.4299  -29.8693 Cl  0  0  0  0  0  0  0  0  0  0  0  0
   -5.6267   23.6849  -30.7149 C   0  0  0  0  0  0  0  0  0  0  0  0
   -6.0541   24.9953  -30.6142 C   0  0  0  0  0  0  0  0  0  0  0  0
   -5.7250   25.7639  -29.5217 C   0  0  0  0  0  0  0  0  0  0  0  0
   -4.9617   25.1985  -28.5338 C   0  0  0  0  0  0  0  0  0  0  0  0
   -4.5054   26.1216  -27.1128 Cl  0  0  0  0  0  0  0  0  0  0  0  0
   -1.3525   20.7511  -22.3343 N   0  0  0  0  0  0  0  0  0  0  0  0
   -1.1078   19.7043  -22.3851 H   0  0  0  0  0  0  0  0  0  0  0  0
    0.9808   21.7583  -19.6697 C   0  0  0  0  0  0  0  0  0  0  0  0
    0.2861   22.8306  -19.1496 C   0  0  0  0  0  0  0  0  0  0  0  0
   -0.9338   23.2237  -19.6466 C   0  0  0  0  0  0  0  0  0  0  0  0
   -1.5312   22.5423  -20.7172 C   0  0  0  0  0  0  0  0  0  0  0  0
   -0.8601   21.4806  -21.2460 C   0  0  0  0  0  0  0  0  0  0  0  0
    0.3894   21.1016  -20.7137 C   0  0  0  0  0  0  0  0  0  0  0  0
    3.8617   21.4834  -20.2703 C   0  0  0  0  0  0  0  0  0  0  0  0
    2.5710   21.2665  -19.0014 S   0  0  0  0  0  0  0  0  0  0  0  0
 29 30  1  0  0  0
 30 23  1  0  0  0
 23 24  2  0  0  0
 24 25  1  0  0  0
 25 26  2  0  0  0
 26 27  1  0  0  0
 27 21  1  0  0  0
 21  1  1  0  0  0
  1  2  2  0  0  0
  2  3  1  0  0  0
  3  4  2  0  0  0
  4  5  1  0  0  0
  5  6  2  0  0  0
  6 13  1  0  0  0
 13 14  2  0  0  0
 14 15  1  0  0  0
 14 16  1  0  0  0
 16 17  2  0  0  0
 17 18  1  0  0  0
 18 19  2  0  0  0
 19 20  1  0  0  0
  6  7  1  0  0  0
  7  8  2  0  0  0
  7  9  1  0  0  0
  9 10  1  0  0  0
  9 11  1  0  0  0
 11 12  2  0  0  0
 27 28  2  0  0  0
 28 23  1  0  0  0
 12  1  1  0  0  0
 11  4  1  0  0  0
 19 13  1  0  0  0
 21 22  1  0  0  0
M  END
> <minimizedAffinity>
-8.42316

> <CNNscore>
0.2026271373

> <CNNaffinity>
6.8128175735

> <CNN_VS>
1.3804616928

> <CNNaffinity_variance>
0.3313896656

$$$$
[H]c1c([H])c(Cl)c(-c2c([H])c3c([H])nc(N([H])c4c([H])c([H])c([H])c(SC([H])([H])[H])c4[H])nc3n(C([H])([H])[H])c2=O)c(Cl)c1[H]


 30 33  0  0  0  0  0  0  0  0999 V2000
   -1.8500   21.4874  -23.7624 C   0  0  0  0  0  0  0  0  0  0  0  0
   -0.9958   21.9170  -24.6675 N   0  0  0  0  0  0  0  0  0  0  0  0
   -1.3689   22.5513  -25.7860 C   0  0  0  0  0  0  0  0  0  0  0  0
   -2.7341   22.7644  -25.9968 C   0  0  0  0  0  0  0  0  0  0  0  0
   -3.1747   23.4066  -27.1208 C   0  0  0  0  0  0  0  0  0  0  0  0
   -4.5126   23.6045  -27.3071 C   0  0  0  0  0  0  0  0  0  0  0  0
   -5.4056   23.1558  -26.3619 C   0  0  0  0  0  0  0  0  0  0  0  0
   -6.6422   23.3244  -26.5080 O   0  0  0  0  0  0  0  0  0  0  0  0
   -4.9938   22.5278  -25.2603 N   0  0  0  0  0  0  0  0  0  0  0  0
   -5.9099   22.0418  -24.2432 C   0  0  0  0  0  0  0  0  0  0  0  0
   -3.6560   22.3257  -25.0663 C   0  0  0  0  0  0  0  0  0  0  0  0
   -3.1977   21.7011  -23.9769 N   0  0  0  0  0  0  0  0  0  0  0  0
   -4.9516   24.2942  -28.5188 C   0  0  0  0  0  0  0  0  0  0  0  0
   -5.2193   25.6449  -28.4660 C   0  0  0  0  0  0  0  0  0  0  0  0
   -5.0477   26.5663  -26.9781 Cl  0  0  0  0  0  0  0  0  0  0  0  0
   -5.6333   26.2614  -29.6376 C   0  0  0  0  0  0  0  0  0  0  0  0
   -5.7727   25.5505  -30.8145 C   0  0  0  0  0  0  0  0  0  0  0  0
   -5.5040   24.2021  -30.8617 C   0  0  0  0  0  0  0  0  0  0  0  0
   -5.0941   23.5792  -29.7119 C   0  0  0  0  0  0  0  0  0  0  0  0
   -4.7344   21.8616  -29.7007 Cl  0  0  0  0  0  0  0  0  0  0  0  0
   -1.4382   20.8239  -22.5952 N   0  0  0  0  0  0  0  0  0  0  0  0
   -1.5123   19.7508  -22.5607 H   0  0  0  0  0  0  0  0  0  0  0  0
    0.9089   21.6200  -19.8719 C   0  0  0  0  0  0  0  0  0  0  0  0
    0.2353   22.6733  -19.2890 C   0  0  0  0  0  0  0  0  0  0  0  0
   -0.9749   23.1210  -19.7630 C   0  0  0  0  0  0  0  0  0  0  0  0
   -1.5836   22.5179  -20.8734 C   0  0  0  0  0  0  0  0  0  0  0  0
   -0.9334   21.4762  -21.4643 C   0  0  0  0  0  0  0  0  0  0  0  0
    0.3067   21.0398  -20.9543 C   0  0  0  0  0  0  0  0  0  0  0  0
    3.8010   21.4110  -20.4450 C   0  0  0  0  0  0  0  0  0  0  0  0
    2.4869   21.0557  -19.2324 S   0  0  0  0  0  0  0  0  0  0  0  0
 29 30  1  0  0  0
 30 23  1  0  0  0
 23 24  2  0  0  0
 24 25  1  0  0  0
 25 26  2  0  0  0
 26 27  1  0  0  0
 27 21  1  0  0  0
 21  1  1  0  0  0
  1  2  2  0  0  0
  2  3  1  0  0  0
  3  4  2  0  0  0
  4  5  1  0  0  0
  5  6  2  0  0  0
  6 13  1  0  0  0
 13 14  2  0  0  0
 14 15  1  0  0  0
 14 16  1  0  0  0
 16 17  2  0  0  0
 17 18  1  0  0  0
 18 19  2  0  0  0
 19 20  1  0  0  0
  6  7  1  0  0  0
  7  8  2  0  0  0
  7  9  1  0  0  0
  9 10  1  0  0  0
  9 11  1  0  0  0
 11 12  2  0  0  0
 27 28  2  0  0  0
 28 23  1  0  0  0
 12  1  1  0  0  0
 11  4  1  0  0  0
 19 13  1  0  0  0
 21 22  1  0  0  0
M  END
> <minimizedAffinity>
-8.46360

> <CNNscore>
0.1921127439

> <CNNaffinity>
6.7470040321

> <CNN_VS>
1.2961854935

> <CNNaffinity_variance>
0.1443942487

$$$$
[H]c1c([H])c(Cl)c(-c2c([H])c3c([H])nc(N([H])c4c([H])c([H])c([H])c(SC([H])([H])[H])c4[H])nc3n(C([H])([H])[H])c2=O)c(Cl)c1[H]


 30 33  0  0  0  0  0  0  0  0999 V2000
   -2.0178   21.5791  -23.6640 C   0  0  0  0  0  0  0  0  0  0  0  0
   -1.1391   21.9697  -24.5633 N   0  0  0  0  0  0  0  0  0  0  0  0
   -1.4804   22.5717  -25.7095 C   0  0  0  0  0  0  0  0  0  0  0  0
   -2.8382   22.7931  -25.9570 C   0  0  0  0  0  0  0  0  0  0  0  0
   -3.2468   23.4036  -27.1104 C   0  0  0  0  0  0  0  0  0  0  0  0
   -4.5778   23.6103  -27.3322 C   0  0  0  0  0  0  0  0  0  0  0  0
   -5.4963   23.2023  -26.3931 C   0  0  0  0  0  0  0  0  0  0  0  0
   -6.7274   23.3799  -26.5715 O   0  0  0  0  0  0  0  0  0  0  0  0
   -5.1159   22.6056  -25.2631 N   0  0  0  0  0  0  0  0  0  0  0  0
   -6.0594   22.1629  -24.2514 C   0  0  0  0  0  0  0  0  0  0  0  0
   -3.7851   22.3950  -25.0334 C   0  0  0  0  0  0  0  0  0  0  0  0
   -3.3579   21.8008  -23.9148 N   0  0  0  0  0  0  0  0  0  0  0  0
   -4.9824   24.2653  -28.5748 C   0  0  0  0  0  0  0  0  0  0  0  0
   -5.0714   23.5211  -29.7310 C   0  0  0  0  0  0  0  0  0  0  0  0
   -4.7110   21.8001  -29.7556 Cl  0  0  0  0  0  0  0  0  0  0  0  0
   -5.4587   24.1806  -30.8882 C   0  0  0  0  0  0  0  0  0  0  0  0
   -5.7451   25.5326  -30.8846 C   0  0  0  0  0  0  0  0  0  0  0  0
   -5.6547   26.2709  -29.7274 C   0  0  0  0  0  0  0  0  0  0  0  0
   -5.2732   25.6330  -28.5760 C   0  0  0  0  0  0  0  0  0  0  0  0
   -5.1374   26.5140  -27.0644 Cl  0  0  0  0  0  0  0  0  0  0  0  0
   -1.6391   20.9490  -22.4673 N   0  0  0  0  0  0  0  0  0  0  0  0
   -1.3838   19.9040  -22.4952 H   0  0  0  0  0  0  0  0  0  0  0  0
   -2.7763   22.1872  -19.1913 C   0  0  0  0  0  0  0  0  0  0  0  0
   -1.6106   22.7802  -18.7528 C   0  0  0  0  0  0  0  0  0  0  0  0
   -0.4642   22.7914  -19.5113 C   0  0  0  0  0  0  0  0  0  0  0  0
   -0.4312   22.1928  -20.7793 C   0  0  0  0  0  0  0  0  0  0  0  0
   -1.5727   21.6005  -21.2302 C   0  0  0  0  0  0  0  0  0  0  0  0
   -2.7327   21.6060  -20.4287 C   0  0  0  0  0  0  0  0  0  0  0  0
   -4.1017   23.4394  -16.8650 C   0  0  0  0  0  0  0  0  0  0  0  0
   -4.2585   22.1876  -18.1809 S   0  0  0  0  0  0  0  0  0  0  0  0
 29 30  1  0  0  0
 30 23  1  0  0  0
 23 24  2  0  0  0
 24 25  1  0  0  0
 25 26  2  0  0  0
 26 27  1  0  0  0
 27 21  1  0  0  0
 21  1  1  0  0  0
  1  2  2  0  0  0
  2  3  1  0  0  0
  3  4  2  0  0  0
  4  5  1  0  0  0
  5  6  2  0  0  0
  6 13  1  0  0  0
 13 14  2  0  0  0
 14 15  1  0  0  0
 14 16  1  0  0  0
 16 17  2  0  0  0
 17 18  1  0  0  0
 18 19  2  0  0  0
 19 20  1  0  0  0
  6  7  1  0  0  0
  7  8  2  0  0  0
  7  9  1  0  0  0
  9 10  1  0  0  0
  9 11  1  0  0  0
 11 12  2  0  0  0
 27 28  2  0  0  0
 28 23  1  0  0  0
 12  1  1  0  0  0
 11  4  1  0  0  0
 19 13  1  0  0  0
 21 22  1  0  0  0
M  END
> <minimizedAffinity>
-8.23136

> <CNNscore>
0.1360875368

> <CNNaffinity>
6.5415802002

> <CNN_VS>
0.8902275562

> <CNNaffinity_variance>
0.1434835643

$$$$
[H]c1c([H])c(Cl)c(-c2c([H])c3c([H])nc(N([H])c4c([H])c([H])c([H])c(SC([H])([H])[H])c4[H])nc3n(C([H])([H])[H])c2=O)c(Cl)c1[H]


 30 33  0  0  0  0  0  0  0  0999 V2000
   -2.1714   22.1528  -25.3710 C   0  0  0  0  0  0  0  0  0  0  0  0
   -0.8584   22.0606  -25.4027 N   0  0  0  0  0  0  0  0  0  0  0  0
   -0.1130   21.8242  -24.3159 C   0  0  0  0  0  0  0  0  0  0  0  0
   -0.7676   21.6688  -23.0907 C   0  0  0  0  0  0  0  0  0  0  0  0
   -0.0588   21.4255  -21.9468 C   0  0  0  0  0  0  0  0  0  0  0  0
   -0.7179   21.2768  -20.7606 C   0  0  0  0  0  0  0  0  0  0  0  0
   -2.0897   21.3731  -20.7268 C   0  0  0  0  0  0  0  0  0  0  0  0
   -2.7217   21.2405  -19.6489 O   0  0  0  0  0  0  0  0  0  0  0  0
   -2.7966   21.6098  -21.8321 N   0  0  0  0  0  0  0  0  0  0  0  0
   -4.2452   21.7172  -21.8312 C   0  0  0  0  0  0  0  0  0  0  0  0
   -2.1443   21.7599  -23.0238 C   0  0  0  0  0  0  0  0  0  0  0  0
   -2.8120   21.9983  -24.1570 N   0  0  0  0  0  0  0  0  0  0  0  0
    0.0682   21.0177  -19.5558 C   0  0  0  0  0  0  0  0  0  0  0  0
    0.4971   19.7346  -19.2939 C   0  0  0  0  0  0  0  0  0  0  0  0
    0.1248   18.3951  -20.3706 Cl  0  0  0  0  0  0  0  0  0  0  0  0
    1.2404   19.5313  -18.1406 C   0  0  0  0  0  0  0  0  0  0  0  0
    1.5409   20.5740  -17.2848 C   0  0  0  0  0  0  0  0  0  0  0  0
    1.1103   21.8532  -17.5511 C   0  0  0  0  0  0  0  0  0  0  0  0
    0.3748   22.0695  -18.6871 C   0  0  0  0  0  0  0  0  0  0  0  0
   -0.2063   23.6761  -19.0878 Cl  0  0  0  0  0  0  0  0  0  0  0  0
   -2.9355   22.4014  -26.5228 N   0  0  0  0  0  0  0  0  0  0  0  0
   -3.0502   21.6108  -27.2439 H   0  0  0  0  0  0  0  0  0  0  0  0
   -4.4026   25.1186  -28.5285 C   0  0  0  0  0  0  0  0  0  0  0  0
   -4.8249   25.9512  -27.5130 C   0  0  0  0  0  0  0  0  0  0  0  0
   -4.6304   25.6459  -26.1868 C   0  0  0  0  0  0  0  0  0  0  0  0
   -3.9860   24.4599  -25.8056 C   0  0  0  0  0  0  0  0  0  0  0  0
   -3.5621   23.6232  -26.7943 C   0  0  0  0  0  0  0  0  0  0  0  0
   -3.7761   23.9646  -28.1455 C   0  0  0  0  0  0  0  0  0  0  0  0
   -5.8204   24.3460  -31.0042 C   0  0  0  0  0  0  0  0  0  0  0  0
   -4.6690   25.5419  -30.2511 S   0  0  0  0  0  0  0  0  0  0  0  0
 29 30  1  0  0  0
 30 23  1  0  0  0
 23 24  2  0  0  0
 24 25  1  0  0  0
 25 26  2  0  0  0
 26 27  1  0  0  0
 27 21  1  0  0  0
 21  1  1  0  0  0
  1  2  2  0  0  0
  2  3  1  0  0  0
  3  4  2  0  0  0
  4  5  1  0  0  0
  5  6  2  0  0  0
  6 13  1  0  0  0
 13 14  2  0  0  0
 14 15  1  0  0  0
 14 16  1  0  0  0
 16 17  2  0  0  0
 17 18  1  0  0  0
 18 19  2  0  0  0
 19 20  1  0  0  0
  6  7  1  0  0  0
  7  8  2  0  0  0
  7  9  1  0  0  0
  9 10  1  0  0  0
  9 11  1  0  0  0
 11 12  2  0  0  0
 27 28  2  0  0  0
 28 23  1  0  0  0
 12  1  1  0  0  0
 11  4  1  0  0  0
 19 13  1  0  0  0
 21 22  1  0  0  0
M  END
> <minimizedAffinity>
-7.69156

> <CNNscore>
0.1315534115

> <CNNaffinity>
6.6098794937

> <CNN_VS>
0.8695521951

> <CNNaffinity_variance>
0.4270019531

$$$$
[H]c1c([H])c(Cl)c(-c2c([H])c3c([H])nc(N([H])c4c([H])c([H])c([H])c(SC([H])([H])[H])c4[H])nc3n(C([H])([H])[H])c2=O)c(Cl)c1[H]


 30 33  0  0  0  0  0  0  0  0999 V2000
   -1.4917   21.9769  -25.1844 C   0  0  0  0  0  0  0  0  0  0  0  0
   -2.5533   21.9230  -24.4076 N   0  0  0  0  0  0  0  0  0  0  0  0
   -2.4920   21.6450  -23.0994 C   0  0  0  0  0  0  0  0  0  0  0  0
   -1.2357   21.4008  -22.5373 C   0  0  0  0  0  0  0  0  0  0  0  0
   -1.1109   21.1117  -21.2066 C   0  0  0  0  0  0  0  0  0  0  0  0
    0.1256   20.8766  -20.6778 C   0  0  0  0  0  0  0  0  0  0  0  0
    1.2352   20.9328  -21.4889 C   0  0  0  0  0  0  0  0  0  0  0  0
    2.3850   20.7206  -21.0287 O   0  0  0  0  0  0  0  0  0  0  0  0
    1.1321   21.2131  -22.7882 N   0  0  0  0  0  0  0  0  0  0  0  0
    2.2829   21.2803  -23.6720 C   0  0  0  0  0  0  0  0  0  0  0  0
   -0.1023   21.4498  -23.3254 C   0  0  0  0  0  0  0  0  0  0  0  0
   -0.2533   21.7347  -24.6227 N   0  0  0  0  0  0  0  0  0  0  0  0
    0.2256   20.5703  -19.2521 C   0  0  0  0  0  0  0  0  0  0  0  0
    0.3564   21.6024  -18.3485 C   0  0  0  0  0  0  0  0  0  0  0  0
    0.4068   23.2833  -18.8624 Cl  0  0  0  0  0  0  0  0  0  0  0  0
    0.4481   21.2690  -17.0052 C   0  0  0  0  0  0  0  0  0  0  0  0
    0.4100   19.9526  -16.5860 C   0  0  0  0  0  0  0  0  0  0  0  0
    0.2791   18.9260  -17.4924 C   0  0  0  0  0  0  0  0  0  0  0  0
    0.1875   19.2400  -18.8233 C   0  0  0  0  0  0  0  0  0  0  0  0
    0.0189   17.9801  -20.0333 Cl  0  0  0  0  0  0  0  0  0  0  0  0
   -1.5774   22.2705  -26.5551 N   0  0  0  0  0  0  0  0  0  0  0  0
   -0.7860   21.9356  -27.2028 H   0  0  0  0  0  0  0  0  0  0  0  0
   -4.2047   24.8291  -26.8865 C   0  0  0  0  0  0  0  0  0  0  0  0
   -4.6788   24.5099  -28.1420 C   0  0  0  0  0  0  0  0  0  0  0  0
   -4.1630   23.4690  -28.8770 C   0  0  0  0  0  0  0  0  0  0  0  0
   -3.1195   22.6776  -28.3749 C   0  0  0  0  0  0  0  0  0  0  0  0
   -2.6364   22.9776  -27.1364 C   0  0  0  0  0  0  0  0  0  0  0  0
   -3.1869   24.0513  -26.4069 C   0  0  0  0  0  0  0  0  0  0  0  0
   -6.5801   25.7633  -25.3962 C   0  0  0  0  0  0  0  0  0  0  0  0
   -4.8968   26.1926  -25.9487 S   0  0  0  0  0  0  0  0  0  0  0  0
 29 30  1  0  0  0
 30 23  1  0  0  0
 23 24  2  0  0  0
 24 25  1  0  0  0
 25 26  2  0  0  0
 26 27  1  0  0  0
 27 21  1  0  0  0
 21  1  1  0  0  0
  1  2  2  0  0  0
  2  3  1  0  0  0
  3  4  2  0  0  0
  4  5  1  0  0  0
  5  6  2  0  0  0
  6 13  1  0  0  0
 13 14  2  0  0  0
 14 15  1  0  0  0
 14 16  1  0  0  0
 16 17  2  0  0  0
 17 18  1  0  0  0
 18 19  2  0  0  0
 19 20  1  0  0  0
  6  7  1  0  0  0
  7  8  2  0  0  0
  7  9  1  0  0  0
  9 10  1  0  0  0
  9 11  1  0  0  0
 11 12  2  0  0  0
 27 28  2  0  0  0
 28 23  1  0  0  0
 12  1  1  0  0  0
 11  4  1  0  0  0
 19 13  1  0  0  0
 21 22  1  0  0  0
M  END
> <minimizedAffinity>
-7.15822

> <CNNscore>
0.1308327466

> <CNNaffinity>
6.3927145004

> <CNN_VS>
0.8363763690

> <CNNaffinity_variance>
0.2287464440

$$$$
[H]c1c([H])c(Cl)c(-c2c([H])c3c([H])nc(N([H])c4c([H])c([H])c([H])c(SC([H])([H])[H])c4[H])nc3n(C([H])([H])[H])c2=O)c(Cl)c1[H]


 30 33  0  0  0  0  0  0  0  0999 V2000
   -2.8233   21.9968  -25.3169 C   0  0  0  0  0  0  0  0  0  0  0  0
   -3.7453   21.8048  -24.3970 N   0  0  0  0  0  0  0  0  0  0  0  0
   -3.4600   21.5217  -23.1199 C   0  0  0  0  0  0  0  0  0  0  0  0
   -2.1148   21.4268  -22.7522 C   0  0  0  0  0  0  0  0  0  0  0  0
   -1.7625   21.1403  -21.4623 C   0  0  0  0  0  0  0  0  0  0  0  0
   -0.4427   21.0523  -21.1245 C   0  0  0  0  0  0  0  0  0  0  0  0
    0.5211   21.2527  -22.0851 C   0  0  0  0  0  0  0  0  0  0  0  0
    1.7431   21.1777  -21.8019 O   0  0  0  0  0  0  0  0  0  0  0  0
    0.1958   21.5329  -23.3474 N   0  0  0  0  0  0  0  0  0  0  0  0
    1.1883   21.7501  -24.3856 C   0  0  0  0  0  0  0  0  0  0  0  0
   -1.1233   21.6228  -23.6938 C   0  0  0  0  0  0  0  0  0  0  0  0
   -1.4959   21.9015  -24.9469 N   0  0  0  0  0  0  0  0  0  0  0  0
   -0.0988   20.7446  -19.7375 C   0  0  0  0  0  0  0  0  0  0  0  0
   -0.0679   21.7624  -18.8091 C   0  0  0  0  0  0  0  0  0  0  0  0
   -0.4312   23.4266  -19.2457 Cl  0  0  0  0  0  0  0  0  0  0  0  0
    0.2629   21.4282  -17.5041 C   0  0  0  0  0  0  0  0  0  0  0  0
    0.5509   20.1249  -17.1458 C   0  0  0  0  0  0  0  0  0  0  0  0
    0.5184   19.1125  -18.0767 C   0  0  0  0  0  0  0  0  0  0  0  0
    0.1933   19.4275  -19.3703 C   0  0  0  0  0  0  0  0  0  0  0  0
    0.1331   18.1855  -20.6086 Cl  0  0  0  0  0  0  0  0  0  0  0  0
   -3.1435   22.2929  -26.6519 N   0  0  0  0  0  0  0  0  0  0  0  0
   -2.9043   21.5683  -27.4107 H   0  0  0  0  0  0  0  0  0  0  0  0
   -4.9175   24.6350  -28.8715 C   0  0  0  0  0  0  0  0  0  0  0  0
   -5.0469   25.7089  -28.0156 C   0  0  0  0  0  0  0  0  0  0  0  0
   -4.5569   25.6854  -26.7314 C   0  0  0  0  0  0  0  0  0  0  0  0
   -3.8963   24.5539  -26.2310 C   0  0  0  0  0  0  0  0  0  0  0  0
   -3.7592   23.4816  -27.0609 C   0  0  0  0  0  0  0  0  0  0  0  0
   -4.2723   23.5367  -28.3731 C   0  0  0  0  0  0  0  0  0  0  0  0
   -5.5141   26.4073  -31.1604 C   0  0  0  0  0  0  0  0  0  0  0  0
   -5.5659   24.6929  -30.5429 S   0  0  0  0  0  0  0  0  0  0  0  0
 29 30  1  0  0  0
 30 23  1  0  0  0
 23 24  2  0  0  0
 24 25  1  0  0  0
 25 26  2  0  0  0
 26 27  1  0  0  0
 27 21  1  0  0  0
 21  1  1  0  0  0
  1  2  2  0  0  0
  2  3  1  0  0  0
  3  4  2  0  0  0
  4  5  1  0  0  0
  5  6  2  0  0  0
  6 13  1  0  0  0
 13 14  2  0  0  0
 14 15  1  0  0  0
 14 16  1  0  0  0
 16 17  2  0  0  0
 17 18  1  0  0  0
 18 19  2  0  0  0
 19 20  1  0  0  0
  6  7  1  0  0  0
  7  8  2  0  0  0
  7  9  1  0  0  0
  9 10  1  0  0  0
  9 11  1  0  0  0
 11 12  2  0  0  0
 27 28  2  0  0  0
 28 23  1  0  0  0
 12  1  1  0  0  0
 11  4  1  0  0  0
 19 13  1  0  0  0
 21 22  1  0  0  0
M  END
> <minimizedAffinity>
-7.68841

> <CNNscore>
0.1255322546

> <CNNaffinity>
6.4578042030

> <CNN_VS>
0.8106627464

> <CNNaffinity_variance>
0.2632492185

$$$$
[H]c1c([H])c(Cl)c(-c2c([H])c3c([H])nc(N([H])c4c([H])c([H])c([H])c(SC([H])([H])[H])c4[H])nc3n(C([H])([H])[H])c2=O)c(Cl)c1[H]


 30 33  0  0  0  0  0  0  0  0999 V2000
   -1.4682   21.7799  -22.3899 C   0  0  0  0  0  0  0  0  0  0  0  0
   -1.7909   22.9141  -21.8044 N   0  0  0  0  0  0  0  0  0  0  0  0
   -1.3207   23.2810  -20.6058 C   0  0  0  0  0  0  0  0  0  0  0  0
   -0.4445   22.4121  -19.9492 C   0  0  0  0  0  0  0  0  0  0  0  0
    0.0681   22.7332  -18.7227 C   0  0  0  0  0  0  0  0  0  0  0  0
    0.9224   21.8702  -18.0989 C   0  0  0  0  0  0  0  0  0  0  0  0
    1.2599   20.6850  -18.7100 C   0  0  0  0  0  0  0  0  0  0  0  0
    2.0437   19.8724  -18.1585 O   0  0  0  0  0  0  0  0  0  0  0  0
    0.7697   20.3558  -19.9053 N   0  0  0  0  0  0  0  0  0  0  0  0
    1.1056   19.1129  -20.5779 C   0  0  0  0  0  0  0  0  0  0  0  0
   -0.0862   21.2143  -20.5367 C   0  0  0  0  0  0  0  0  0  0  0  0
   -0.6020   20.9258  -21.7356 N   0  0  0  0  0  0  0  0  0  0  0  0
    1.4530   22.2424  -16.7887 C   0  0  0  0  0  0  0  0  0  0  0  0
    2.6298   22.9556  -16.7161 C   0  0  0  0  0  0  0  0  0  0  0  0
    3.5151   23.4326  -18.1586 Cl  0  0  0  0  0  0  0  0  0  0  0  0
    3.0991   23.2889  -15.4540 C   0  0  0  0  0  0  0  0  0  0  0  0
    2.4145   22.9210  -14.3112 C   0  0  0  0  0  0  0  0  0  0  0  0
    1.2400   22.2091  -14.3895 C   0  0  0  0  0  0  0  0  0  0  0  0
    0.7639   21.8725  -15.6298 C   0  0  0  0  0  0  0  0  0  0  0  0
   -0.7282   20.9651  -15.8026 Cl  0  0  0  0  0  0  0  0  0  0  0  0
   -1.9726   21.4134  -23.6483 N   0  0  0  0  0  0  0  0  0  0  0  0
   -2.8276   20.7611  -23.6892 H   0  0  0  0  0  0  0  0  0  0  0  0
   -1.9058   22.6131  -27.1290 C   0  0  0  0  0  0  0  0  0  0  0  0
   -0.5446   22.7632  -27.2939 C   0  0  0  0  0  0  0  0  0  0  0  0
    0.3512   22.4705  -26.2931 C   0  0  0  0  0  0  0  0  0  0  0  0
   -0.0868   22.0008  -25.0462 C   0  0  0  0  0  0  0  0  0  0  0  0
   -1.4284   21.8468  -24.8629 C   0  0  0  0  0  0  0  0  0  0  0  0
   -2.3220   22.1551  -25.9092 C   0  0  0  0  0  0  0  0  0  0  0  0
   -4.6841   23.4092  -27.7483 C   0  0  0  0  0  0  0  0  0  0  0  0
   -3.0526   23.0020  -28.4523 S   0  0  0  0  0  0  0  0  0  0  0  0
 29 30  1  0  0  0
 30 23  1  0  0  0
 23 24  2  0  0  0
 24 25  1  0  0  0
 25 26  2  0  0  0
 26 27  1  0  0  0
 27 21  1  0  0  0
 21  1  1  0  0  0
  1  2  2  0  0  0
  2  3  1  0  0  0
  3  4  2  0  0  0
  4  5  1  0  0  0
  5  6  2  0  0  0
  6 13  1  0  0  0
 13 14  2  0  0  0
 14 15  1  0  0  0
 14 16  1  0  0  0
 16 17  2  0  0  0
 17 18  1  0  0  0
 18 19  2  0  0  0
 19 20  1  0  0  0
  6  7  1  0  0  0
  7  8  2  0  0  0
  7  9  1  0  0  0
  9 10  1  0  0  0
  9 11  1  0  0  0
 11 12  2  0  0  0
 27 28  2  0  0  0
 28 23  1  0  0  0
 12  1  1  0  0  0
 11  4  1  0  0  0
 19 13  1  0  0  0
 21 22  1  0  0  0
M  END
> <minimizedAffinity>
-7.67827

> <CNNscore>
0.1211722195

> <CNNaffinity>
5.4999113083

> <CNN_VS>
0.6664364338

> <CNNaffinity_variance>
0.3232860565

$$$$
[H]c1nc(N([H])[H])c(-c2nn(-c3c(Cl)c(OC([H])([H])[H])c([H])c(OC([H])([H])[H])c3Cl)c(=O)c([H])c2[H])c([H])c1-c1c([H])nn(C([H])([H])[H])c1[H]


 34 37  0  0  0  0  0  0  0  0999 V2000
   -5.6416   23.5734  -25.3550 N   0  0  0  0  0  0  0  0  0  0  0  0
   -4.3618   23.2715  -25.3632 N   0  0  0  0  0  0  0  0  0  0  0  0
   -3.6498   23.1506  -26.5105 C   0  0  0  0  0  0  0  0  0  0  0  0
   -4.3264   23.3590  -27.6860 C   0  0  0  0  0  0  0  0  0  0  0  0
   -5.6753   23.6790  -27.7173 C   0  0  0  0  0  0  0  0  0  0  0  0
   -6.3088   23.7786  -26.5053 C   0  0  0  0  0  0  0  0  0  0  0  0
   -7.5306   24.0667  -26.4911 O   0  0  0  0  0  0  0  0  0  0  0  0
   -2.2337   22.8147  -26.4705 C   0  0  0  0  0  0  0  0  0  0  0  0
   -1.5919   22.4154  -25.3321 C   0  0  0  0  0  0  0  0  0  0  0  0
   -0.2176   22.1010  -25.3487 C   0  0  0  0  0  0  0  0  0  0  0  0
    0.4876   22.1969  -26.5247 C   0  0  0  0  0  0  0  0  0  0  0  0
   -0.1579   22.5909  -27.6349 N   0  0  0  0  0  0  0  0  0  0  0  0
   -1.4885   22.8985  -27.6332 C   0  0  0  0  0  0  0  0  0  0  0  0
   -2.1486   23.3127  -28.8195 N   0  0  0  0  0  0  0  0  0  0  0  0
   -2.5905   22.5988  -29.4371 H   0  0  0  0  0  0  0  0  0  0  0  0
   -2.2207   24.3059  -29.1181 H   0  0  0  0  0  0  0  0  0  0  0  0
    0.4496   21.6794  -24.1274 C   0  0  0  0  0  0  0  0  0  0  0  0
   -0.1338   21.4644  -22.8950 C   0  0  0  0  0  0  0  0  0  0  0  0
    0.8406   21.0878  -22.0562 N   0  0  0  0  0  0  0  0  0  0  0  0
    2.0039   21.0531  -22.6877 N   0  0  0  0  0  0  0  0  0  0  0  0
    3.2978   20.6898  -22.1117 C   0  0  0  0  0  0  0  0  0  0  0  0
    1.7970   21.4115  -23.9625 C   0  0  0  0  0  0  0  0  0  0  0  0
   -7.4127   25.0749  -22.4553 C   0  0  0  0  0  0  0  0  0  0  0  0
   -7.8211   23.9590  -21.7550 C   0  0  0  0  0  0  0  0  0  0  0  0
   -7.5132   22.7081  -22.2367 C   0  0  0  0  0  0  0  0  0  0  0  0
   -6.8091   22.6006  -23.3993 C   0  0  0  0  0  0  0  0  0  0  0  0
   -6.4078   21.0177  -24.0277 Cl  0  0  0  0  0  0  0  0  0  0  0  0
   -6.3819   23.6958  -24.1307 C   0  0  0  0  0  0  0  0  0  0  0  0
   -6.6902   24.9459  -23.6481 C   0  0  0  0  0  0  0  0  0  0  0  0
   -6.2181   26.4214  -24.4627 Cl  0  0  0  0  0  0  0  0  0  0  0  0
   -8.3347   26.4877  -20.7187 C   0  0  0  0  0  0  0  0  0  0  0  0
   -7.7230   26.3172  -21.9698 O   0  0  0  0  0  0  0  0  0  0  0  0
   -7.9395   21.6118  -21.5071 O   0  0  0  0  0  0  0  0  0  0  0  0
   -8.6959   21.6817  -20.3424 C   0  0  0  0  0  0  0  0  0  0  0  0
 31 32  1  0  0  0
 32 23  1  0  0  0
 23 24  2  0  0  0
 24 25  1  0  0  0
 25 33  1  0  0  0
 33 34  1  0  0  0
 25 26  2  0  0  0
 26 27  1  0  0  0
 26 28  1  0  0  0
 28 29  2  0  0  0
 29 30  1  0  0  0
 28  1  1  0  0  0
  1  2  1  0  0  0
  2  3  2  0  0  0
  3  4  1  0  0  0
  4  5  2  0  0  0
  5  6  1  0  0  0
  6  7  2  0  0  0
  3  8  1  0  0  0
  8  9  2  0  0  0
  9 10  1  0  0  0
 10 11  2  0  0  0
 11 12  1  0  0  0
 12 13  2  0  0  0
 13 14  1  0  0  0
 10 17  1  0  0  0
 17 18  1  0  0  0
 18 19  2  0  0  0
 19 20  1  0  0  0
 20 21  1  0  0  0
 20 22  1  0  0  0
 29 23  1  0  0  0
  6  1  1  0  0  0
 13  8  1  0  0  0
 22 17  2  0  0  0
 14 15  1  0  0  0
 14 16  1  0  0  0
M  END
> <minimizedAffinity>
-9.81462

> <CNNscore>
0.8093152642

> <CNNaffinity>
7.7166643143

> <CNN_VS>
6.2452139854

> <CNNaffinity_variance>
0.1187434793

$$$$
[H]c1nc(N([H])[H])c(-c2nn(-c3c(Cl)c(OC([H])([H])[H])c([H])c(OC([H])([H])[H])c3Cl)c(=O)c([H])c2[H])c([H])c1-c1c([H])nn(C([H])([H])[H])c1[H]


 34 37  0  0  0  0  0  0  0  0999 V2000
   -5.6928   23.6431  -25.3202 N   0  0  0  0  0  0  0  0  0  0  0  0
   -4.4140   23.3368  -25.3315 N   0  0  0  0  0  0  0  0  0  0  0  0
   -3.7143   23.1758  -26.4814 C   0  0  0  0  0  0  0  0  0  0  0  0
   -4.4024   23.3475  -27.6562 C   0  0  0  0  0  0  0  0  0  0  0  0
   -5.7506   23.6708  -27.6842 C   0  0  0  0  0  0  0  0  0  0  0  0
   -6.3712   23.8124  -26.4698 C   0  0  0  0  0  0  0  0  0  0  0  0
   -7.5919   24.1049  -26.4525 O   0  0  0  0  0  0  0  0  0  0  0  0
   -2.2988   22.8367  -26.4448 C   0  0  0  0  0  0  0  0  0  0  0  0
   -1.6557   22.4335  -25.3085 C   0  0  0  0  0  0  0  0  0  0  0  0
   -0.2822   22.1162  -25.3285 C   0  0  0  0  0  0  0  0  0  0  0  0
    0.4210   22.2131  -26.5056 C   0  0  0  0  0  0  0  0  0  0  0  0
   -0.2258   22.6109  -27.6137 N   0  0  0  0  0  0  0  0  0  0  0  0
   -1.5557   22.9214  -27.6087 C   0  0  0  0  0  0  0  0  0  0  0  0
   -2.2171   23.3396  -28.7929 N   0  0  0  0  0  0  0  0  0  0  0  0
   -2.6617   22.6280  -29.4112 H   0  0  0  0  0  0  0  0  0  0  0  0
   -2.2876   24.3336  -29.0893 H   0  0  0  0  0  0  0  0  0  0  0  0
    0.3865   21.6905  -24.1093 C   0  0  0  0  0  0  0  0  0  0  0  0
   -0.1964   21.4658  -22.8785 C   0  0  0  0  0  0  0  0  0  0  0  0
    0.7792   21.0887  -22.0414 N   0  0  0  0  0  0  0  0  0  0  0  0
    1.9430   21.0627  -22.6726 N   0  0  0  0  0  0  0  0  0  0  0  0
    3.2382   20.7017  -22.0983 C   0  0  0  0  0  0  0  0  0  0  0  0
    1.7349   21.4275  -23.9455 C   0  0  0  0  0  0  0  0  0  0  0  0
   -7.5260   22.8487  -22.1885 C   0  0  0  0  0  0  0  0  0  0  0  0
   -7.8320   24.1037  -21.7049 C   0  0  0  0  0  0  0  0  0  0  0  0
   -7.4352   25.2156  -22.4104 C   0  0  0  0  0  0  0  0  0  0  0  0
   -6.7460   25.0501  -23.5752 C   0  0  0  0  0  0  0  0  0  0  0  0
   -6.2330   26.4528  -24.4868 Cl  0  0  0  0  0  0  0  0  0  0  0  0
   -6.4199   23.8083  -24.0930 C   0  0  0  0  0  0  0  0  0  0  0  0
   -6.8173   22.6973  -23.3869 C   0  0  0  0  0  0  0  0  0  0  0  0
   -6.4775   21.0639  -23.9161 Cl  0  0  0  0  0  0  0  0  0  0  0  0
   -8.8248   21.8441  -20.4092 C   0  0  0  0  0  0  0  0  0  0  0  0
   -7.9242   21.7461  -21.4806 O   0  0  0  0  0  0  0  0  0  0  0  0
   -7.7601   26.4583  -21.8944 O   0  0  0  0  0  0  0  0  0  0  0  0
   -8.5062   26.6651  -20.7394 C   0  0  0  0  0  0  0  0  0  0  0  0
 31 32  1  0  0  0
 32 23  1  0  0  0
 23 24  2  0  0  0
 24 25  1  0  0  0
 25 33  1  0  0  0
 33 34  1  0  0  0
 25 26  2  0  0  0
 26 27  1  0  0  0
 26 28  1  0  0  0
 28 29  2  0  0  0
 29 30  1  0  0  0
 28  1  1  0  0  0
  1  2  1  0  0  0
  2  3  2  0  0  0
  3  4  1  0  0  0
  4  5  2  0  0  0
  5  6  1  0  0  0
  6  7  2  0  0  0
  3  8  1  0  0  0
  8  9  2  0  0  0
  9 10  1  0  0  0
 10 11  2  0  0  0
 11 12  1  0  0  0
 12 13  2  0  0  0
 13 14  1  0  0  0
 10 17  1  0  0  0
 17 18  1  0  0  0
 18 19  2  0  0  0
 19 20  1  0  0  0
 20 21  1  0  0  0
 20 22  1  0  0  0
 29 23  1  0  0  0
  6  1  1  0  0  0
 13  8  1  0  0  0
 22 17  2  0  0  0
 14 15  1  0  0  0
 14 16  1  0  0  0
M  END
> <minimizedAffinity>
-9.77461

> <CNNscore>
0.7721078396

> <CNNaffinity>
7.6788797379

> <CNN_VS>
5.9289231300

> <CNNaffinity_variance>
0.1251987070

$$$$
[H]c1nc(N([H])[H])c(-c2nn(-c3c(Cl)c(OC([H])([H])[H])c([H])c(OC([H])([H])[H])c3Cl)c(=O)c([H])c2[H])c([H])c1-c1c([H])nn(C([H])([H])[H])c1[H]


 34 37  0  0  0  0  0  0  0  0999 V2000
    0.7354   20.5705  -20.7475 N   0  0  0  0  0  0  0  0  0  0  0  0
    0.6421   20.8262  -22.0340 N   0  0  0  0  0  0  0  0  0  0  0  0
   -0.3120   21.6415  -22.5468 C   0  0  0  0  0  0  0  0  0  0  0  0
   -1.1941   22.2012  -21.6570 C   0  0  0  0  0  0  0  0  0  0  0  0
   -1.1272   21.9553  -20.2939 C   0  0  0  0  0  0  0  0  0  0  0  0
   -0.1274   21.1173  -19.8718 C   0  0  0  0  0  0  0  0  0  0  0  0
   -0.0332   20.8695  -18.6447 O   0  0  0  0  0  0  0  0  0  0  0  0
   -0.3763   21.8957  -23.9789 C   0  0  0  0  0  0  0  0  0  0  0  0
   -1.5333   22.2209  -24.6293 C   0  0  0  0  0  0  0  0  0  0  0  0
   -1.5398   22.4578  -26.0191 C   0  0  0  0  0  0  0  0  0  0  0  0
   -0.3679   22.3609  -26.7310 C   0  0  0  0  0  0  0  0  0  0  0  0
    0.7608   22.0403  -26.0768 N   0  0  0  0  0  0  0  0  0  0  0  0
    0.7816   21.8082  -24.7311 C   0  0  0  0  0  0  0  0  0  0  0  0
    1.9871   21.4708  -24.0622 N   0  0  0  0  0  0  0  0  0  0  0  0
    2.5847   22.2282  -23.6678 H   0  0  0  0  0  0  0  0  0  0  0  0
    2.3193   20.4935  -23.9380 H   0  0  0  0  0  0  0  0  0  0  0  0
   -2.7806   22.8011  -26.6953 C   0  0  0  0  0  0  0  0  0  0  0  0
   -2.9781   22.9212  -28.0561 C   0  0  0  0  0  0  0  0  0  0  0  0
   -4.2636   23.2494  -28.2420 N   0  0  0  0  0  0  0  0  0  0  0  0
   -4.8879   23.3434  -27.0780 N   0  0  0  0  0  0  0  0  0  0  0  0
   -6.2948   23.6811  -26.8682 C   0  0  0  0  0  0  0  0  0  0  0  0
   -4.0033   23.0734  -26.1078 C   0  0  0  0  0  0  0  0  0  0  0  0
    2.5022   17.4955  -19.6420 C   0  0  0  0  0  0  0  0  0  0  0  0
    3.7100   17.9965  -19.2031 C   0  0  0  0  0  0  0  0  0  0  0  0
    3.9452   19.3500  -19.2699 C   0  0  0  0  0  0  0  0  0  0  0  0
    2.9752   20.1671  -19.7705 C   0  0  0  0  0  0  0  0  0  0  0  0
    3.2559   21.8917  -19.8632 Cl  0  0  0  0  0  0  0  0  0  0  0  0
    1.7511   19.7028  -20.2207 C   0  0  0  0  0  0  0  0  0  0  0  0
    1.5171   18.3495  -20.1533 C   0  0  0  0  0  0  0  0  0  0  0  0
    0.0188   17.6172  -20.6849 Cl  0  0  0  0  0  0  0  0  0  0  0  0
    2.0390   15.5014  -18.3494 C   0  0  0  0  0  0  0  0  0  0  0  0
    2.2751   16.1468  -19.5726 O   0  0  0  0  0  0  0  0  0  0  0  0
    5.1685   19.8162  -18.8204 O   0  0  0  0  0  0  0  0  0  0  0  0
    6.0460   19.0924  -18.0207 C   0  0  0  0  0  0  0  0  0  0  0  0
 31 32  1  0  0  0
 32 23  1  0  0  0
 23 24  2  0  0  0
 24 25  1  0  0  0
 25 33  1  0  0  0
 33 34  1  0  0  0
 25 26  2  0  0  0
 26 27  1  0  0  0
 26 28  1  0  0  0
 28 29  2  0  0  0
 29 30  1  0  0  0
 28  1  1  0  0  0
  1  2  1  0  0  0
  2  3  2  0  0  0
  3  4  1  0  0  0
  4  5  2  0  0  0
  5  6  1  0  0  0
  6  7  2  0  0  0
  3  8  1  0  0  0
  8  9  2  0  0  0
  9 10  1  0  0  0
 10 11  2  0  0  0
 11 12  1  0  0  0
 12 13  2  0  0  0
 13 14  1  0  0  0
 10 17  1  0  0  0
 17 18  1  0  0  0
 18 19  2  0  0  0
 19 20  1  0  0  0
 20 21  1  0  0  0
 20 22  1  0  0  0
 29 23  1  0  0  0
  6  1  1  0  0  0
 13  8  1  0  0  0
 22 17  2  0  0  0
 14 15  1  0  0  0
 14 16  1  0  0  0
M  END
> <minimizedAffinity>
-7.20232

> <CNNscore>
0.3928338587

> <CNNaffinity>
6.8111343384

> <CNN_VS>
2.6756441593

> <CNNaffinity_variance>
0.3240159452

$$$$
[H]c1nc(N([H])[H])c(-c2nn(-c3c(Cl)c(OC([H])([H])[H])c([H])c(OC([H])([H])[H])c3Cl)c(=O)c([H])c2[H])c([H])c1-c1c([H])nn(C([H])([H])[H])c1[H]


 34 37  0  0  0  0  0  0  0  0999 V2000
    0.4154   20.5563  -20.7991 N   0  0  0  0  0  0  0  0  0  0  0  0
    0.3520   20.8800  -22.0720 N   0  0  0  0  0  0  0  0  0  0  0  0
   -0.7157   21.5211  -22.6077 C   0  0  0  0  0  0  0  0  0  0  0  0
   -1.7480   21.8259  -21.7566 C   0  0  0  0  0  0  0  0  0  0  0  0
   -1.7172   21.5010  -20.4089 C   0  0  0  0  0  0  0  0  0  0  0  0
   -0.5946   20.8534  -19.9612 C   0  0  0  0  0  0  0  0  0  0  0  0
   -0.5281   20.5419  -18.7469 O   0  0  0  0  0  0  0  0  0  0  0  0
   -0.7414   21.8596  -24.0235 C   0  0  0  0  0  0  0  0  0  0  0  0
   -1.8906   22.1577  -24.7002 C   0  0  0  0  0  0  0  0  0  0  0  0
   -1.8592   22.4797  -26.0725 C   0  0  0  0  0  0  0  0  0  0  0  0
   -0.6578   22.4946  -26.7402 C   0  0  0  0  0  0  0  0  0  0  0  0
    0.4627   22.1993  -26.0606 N   0  0  0  0  0  0  0  0  0  0  0  0
    0.4470   21.8856  -24.7315 C   0  0  0  0  0  0  0  0  0  0  0  0
    1.6447   21.5770  -24.0350 N   0  0  0  0  0  0  0  0  0  0  0  0
    2.1807   22.3414  -23.5719 H   0  0  0  0  0  0  0  0  0  0  0  0
    2.0297   20.6145  -23.9560 H   0  0  0  0  0  0  0  0  0  0  0  0
   -3.0921   22.7926  -26.7772 C   0  0  0  0  0  0  0  0  0  0  0  0
   -4.3322   23.0239  -26.2170 C   0  0  0  0  0  0  0  0  0  0  0  0
   -5.1807   23.2740  -27.2232 N   0  0  0  0  0  0  0  0  0  0  0  0
   -4.5479   23.2137  -28.3848 N   0  0  0  0  0  0  0  0  0  0  0  0
   -5.1324   23.4275  -29.7078 C   0  0  0  0  0  0  0  0  0  0  0  0
   -3.2625   22.9197  -28.1444 C   0  0  0  0  0  0  0  0  0  0  0  0
    3.6821   19.9509  -19.1373 C   0  0  0  0  0  0  0  0  0  0  0  0
    3.7729   18.5750  -19.1680 C   0  0  0  0  0  0  0  0  0  0  0  0
    2.7574   17.8427  -19.7374 C   0  0  0  0  0  0  0  0  0  0  0  0
    1.6811   18.4969  -20.2595 C   0  0  0  0  0  0  0  0  0  0  0  0
    0.3794   17.5825  -20.9882 Cl  0  0  0  0  0  0  0  0  0  0  0  0
    1.5531   19.8754  -20.2478 C   0  0  0  0  0  0  0  0  0  0  0  0
    2.5691   20.6064  -19.6784 C   0  0  0  0  0  0  0  0  0  0  0  0
    2.5473   22.3544  -19.5902 Cl  0  0  0  0  0  0  0  0  0  0  0  0
    5.7620   21.1747  -19.3322 C   0  0  0  0  0  0  0  0  0  0  0  0
    4.6970   20.6735  -18.5687 O   0  0  0  0  0  0  0  0  0  0  0  0
    2.8832   16.4643  -19.7500 O   0  0  0  0  0  0  0  0  0  0  0  0
    3.6802   15.7505  -20.6382 C   0  0  0  0  0  0  0  0  0  0  0  0
 31 32  1  0  0  0
 32 23  1  0  0  0
 23 24  2  0  0  0
 24 25  1  0  0  0
 25 33  1  0  0  0
 33 34  1  0  0  0
 25 26  2  0  0  0
 26 27  1  0  0  0
 26 28  1  0  0  0
 28 29  2  0  0  0
 29 30  1  0  0  0
 28  1  1  0  0  0
  1  2  1  0  0  0
  2  3  2  0  0  0
  3  4  1  0  0  0
  4  5  2  0  0  0
  5  6  1  0  0  0
  6  7  2  0  0  0
  3  8  1  0  0  0
  8  9  2  0  0  0
  9 10  1  0  0  0
 10 11  2  0  0  0
 11 12  1  0  0  0
 12 13  2  0  0  0
 13 14  1  0  0  0
 10 17  1  0  0  0
 17 18  1  0  0  0
 18 19  2  0  0  0
 19 20  1  0  0  0
 20 21  1  0  0  0
 20 22  1  0  0  0
 29 23  1  0  0  0
  6  1  1  0  0  0
 13  8  1  0  0  0
 22 17  2  0  0  0
 14 15  1  0  0  0
 14 16  1  0  0  0
M  END
> <minimizedAffinity>
-7.40913

> <CNNscore>
0.3242992163

> <CNNaffinity>
6.8608131409

> <CNN_VS>
2.2249562740

> <CNNaffinity_variance>
0.3473621309

$$$$
[H]c1nc(N([H])[H])c(-c2nn(-c3c(Cl)c(OC([H])([H])[H])c([H])c(OC([H])([H])[H])c3Cl)c(=O)c([H])c2[H])c([H])c1-c1c([H])nn(C([H])([H])[H])c1[H]


 34 37  0  0  0  0  0  0  0  0999 V2000
   -3.2600   22.0260  -23.6811 N   0  0  0  0  0  0  0  0  0  0  0  0
   -3.7398   22.7720  -22.7103 N   0  0  0  0  0  0  0  0  0  0  0  0
   -5.0431   22.7338  -22.3392 C   0  0  0  0  0  0  0  0  0  0  0  0
   -5.8595   21.8713  -23.0268 C   0  0  0  0  0  0  0  0  0  0  0  0
   -5.3899   21.0691  -24.0558 C   0  0  0  0  0  0  0  0  0  0  0  0
   -4.0570   21.1790  -24.3578 C   0  0  0  0  0  0  0  0  0  0  0  0
   -3.5930   20.4693  -25.2835 O   0  0  0  0  0  0  0  0  0  0  0  0
   -5.5294   23.5785  -21.2576 C   0  0  0  0  0  0  0  0  0  0  0  0
   -5.9315   23.0866  -20.0478 C   0  0  0  0  0  0  0  0  0  0  0  0
   -6.3940   23.9498  -19.0335 C   0  0  0  0  0  0  0  0  0  0  0  0
   -6.4418   25.3043  -19.2627 C   0  0  0  0  0  0  0  0  0  0  0  0
   -6.0430   25.7718  -20.4573 N   0  0  0  0  0  0  0  0  0  0  0  0
   -5.5929   24.9473  -21.4486 C   0  0  0  0  0  0  0  0  0  0  0  0
   -5.1770   25.4653  -22.7030 N   0  0  0  0  0  0  0  0  0  0  0  0
   -4.1793   25.7324  -22.8427 H   0  0  0  0  0  0  0  0  0  0  0  0
   -5.8194   25.5981  -23.5095 H   0  0  0  0  0  0  0  0  0  0  0  0
   -6.8196   23.4088  -17.7525 C   0  0  0  0  0  0  0  0  0  0  0  0
   -6.4435   23.8495  -16.4996 C   0  0  0  0  0  0  0  0  0  0  0  0
   -7.0670   23.0731  -15.6033 N   0  0  0  0  0  0  0  0  0  0  0  0
   -7.8140   22.1688  -16.2180 N   0  0  0  0  0  0  0  0  0  0  0  0
   -8.6427   21.1454  -15.5829 C   0  0  0  0  0  0  0  0  0  0  0  0
   -7.6833   22.3491  -17.5398 C   0  0  0  0  0  0  0  0  0  0  0  0
    0.4287   21.5950  -23.5930 C   0  0  0  0  0  0  0  0  0  0  0  0
    0.8168   22.1708  -24.7848 C   0  0  0  0  0  0  0  0  0  0  0  0
   -0.1368   22.7034  -25.6207 C   0  0  0  0  0  0  0  0  0  0  0  0
   -1.4478   22.6491  -25.2501 C   0  0  0  0  0  0  0  0  0  0  0  0
   -2.6752   23.3215  -26.3003 Cl  0  0  0  0  0  0  0  0  0  0  0  0
   -1.8769   22.0799  -24.0632 C   0  0  0  0  0  0  0  0  0  0  0  0
   -0.9227   21.5479  -23.2282 C   0  0  0  0  0  0  0  0  0  0  0  0
   -1.3135   20.7961  -21.6966 Cl  0  0  0  0  0  0  0  0  0  0  0  0
    2.7380   21.0344  -23.1302 C   0  0  0  0  0  0  0  0  0  0  0  0
    1.3835   21.0666  -22.7658 O   0  0  0  0  0  0  0  0  0  0  0  0
    0.2900   23.2728  -26.8080 O   0  0  0  0  0  0  0  0  0  0  0  0
    0.2595   22.6394  -28.0455 C   0  0  0  0  0  0  0  0  0  0  0  0
 31 32  1  0  0  0
 32 23  1  0  0  0
 23 24  2  0  0  0
 24 25  1  0  0  0
 25 33  1  0  0  0
 33 34  1  0  0  0
 25 26  2  0  0  0
 26 27  1  0  0  0
 26 28  1  0  0  0
 28 29  2  0  0  0
 29 30  1  0  0  0
 28  1  1  0  0  0
  1  2  1  0  0  0
  2  3  2  0  0  0
  3  4  1  0  0  0
  4  5  2  0  0  0
  5  6  1  0  0  0
  6  7  2  0  0  0
  3  8  1  0  0  0
  8  9  2  0  0  0
  9 10  1  0  0  0
 10 11  2  0  0  0
 11 12  1  0  0  0
 12 13  2  0  0  0
 13 14  1  0  0  0
 10 17  1  0  0  0
 17 18  1  0  0  0
 18 19  2  0  0  0
 19 20  1  0  0  0
 20 21  1  0  0  0
 20 22  1  0  0  0
 29 23  1  0  0  0
  6  1  1  0  0  0
 13  8  1  0  0  0
 22 17  2  0  0  0
 14 15  1  0  0  0
 14 16  1  0  0  0
M  END
> <minimizedAffinity>
-7.02396

> <CNNscore>
0.2278494537

> <CNNaffinity>
6.3799142838

> <CNN_VS>
1.4536600113

> <CNNaffinity_variance>
0.0405503884

$$$$
[H]c1nc(N([H])[H])c(-c2nn(-c3c(Cl)c(OC([H])([H])[H])c([H])c(OC([H])([H])[H])c3Cl)c(=O)c([H])c2[H])c([H])c1-c1c([H])nn(C([H])([H])[H])c1[H]


 34 37  0  0  0  0  0  0  0  0999 V2000
   -0.8347   21.4314  -22.4064 N   0  0  0  0  0  0  0  0  0  0  0  0
   -0.3859   20.2288  -22.1213 N   0  0  0  0  0  0  0  0  0  0  0  0
    0.0063   19.8752  -20.8727 C   0  0  0  0  0  0  0  0  0  0  0  0
   -0.0840   20.8369  -19.8980 C   0  0  0  0  0  0  0  0  0  0  0  0
   -0.5523   22.1155  -20.1603 C   0  0  0  0  0  0  0  0  0  0  0  0
   -0.9250   22.3772  -21.4536 C   0  0  0  0  0  0  0  0  0  0  0  0
   -1.3544   23.5235  -21.7319 O   0  0  0  0  0  0  0  0  0  0  0  0
    0.4966   18.5309  -20.6041 C   0  0  0  0  0  0  0  0  0  0  0  0
   -0.2882   17.5378  -20.0890 C   0  0  0  0  0  0  0  0  0  0  0  0
    0.2373   16.2519  -19.8483 C   0  0  0  0  0  0  0  0  0  0  0  0
    1.5563   15.9917  -20.1348 C   0  0  0  0  0  0  0  0  0  0  0  0
    2.3143   16.9787  -20.6407 N   0  0  0  0  0  0  0  0  0  0  0  0
    1.8184   18.2287  -20.8788 C   0  0  0  0  0  0  0  0  0  0  0  0
    2.6396   19.2554  -21.4139 N   0  0  0  0  0  0  0  0  0  0  0  0
    2.7016   19.3770  -22.4471 H   0  0  0  0  0  0  0  0  0  0  0  0
    3.1959   19.9086  -20.8267 H   0  0  0  0  0  0  0  0  0  0  0  0
   -0.6119   15.2075  -19.2981 C   0  0  0  0  0  0  0  0  0  0  0  0
   -0.2253   14.1762  -18.4661 C   0  0  0  0  0  0  0  0  0  0  0  0
   -1.3194   13.4498  -18.2014 N   0  0  0  0  0  0  0  0  0  0  0  0
   -2.3730   13.9628  -18.8181 N   0  0  0  0  0  0  0  0  0  0  0  0
   -3.7425   13.4529  -18.7739 C   0  0  0  0  0  0  0  0  0  0  0  0
   -1.9709   15.0441  -19.5004 C   0  0  0  0  0  0  0  0  0  0  0  0
   -2.9903   22.1325  -25.3495 C   0  0  0  0  0  0  0  0  0  0  0  0
   -2.0651   22.4861  -26.3094 C   0  0  0  0  0  0  0  0  0  0  0  0
   -0.7275   22.4938  -25.9891 C   0  0  0  0  0  0  0  0  0  0  0  0
   -0.3468   22.1507  -24.7256 C   0  0  0  0  0  0  0  0  0  0  0  0
    1.3503   22.1546  -24.2994 Cl  0  0  0  0  0  0  0  0  0  0  0  0
   -1.2444   21.7903  -23.7351 C   0  0  0  0  0  0  0  0  0  0  0  0
   -2.5813   21.7828  -24.0565 C   0  0  0  0  0  0  0  0  0  0  0  0
   -3.8312   21.3499  -22.9102 Cl  0  0  0  0  0  0  0  0  0  0  0  0
   -5.0517   23.3173  -25.8063 C   0  0  0  0  0  0  0  0  0  0  0  0
   -4.3203   22.1271  -25.6755 O   0  0  0  0  0  0  0  0  0  0  0  0
    0.1716   22.8540  -26.9779 O   0  0  0  0  0  0  0  0  0  0  0  0
   -0.1465   22.9930  -28.3244 C   0  0  0  0  0  0  0  0  0  0  0  0
 31 32  1  0  0  0
 32 23  1  0  0  0
 23 24  2  0  0  0
 24 25  1  0  0  0
 25 33  1  0  0  0
 33 34  1  0  0  0
 25 26  2  0  0  0
 26 27  1  0  0  0
 26 28  1  0  0  0
 28 29  2  0  0  0
 29 30  1  0  0  0
 28  1  1  0  0  0
  1  2  1  0  0  0
  2  3  2  0  0  0
  3  4  1  0  0  0
  4  5  2  0  0  0
  5  6  1  0  0  0
  6  7  2  0  0  0
  3  8  1  0  0  0
  8  9  2  0  0  0
  9 10  1  0  0  0
 10 11  2  0  0  0
 11 12  1  0  0  0
 12 13  2  0  0  0
 13 14  1  0  0  0
 10 17  1  0  0  0
 17 18  1  0  0  0
 18 19  2  0  0  0
 19 20  1  0  0  0
 20 21  1  0  0  0
 20 22  1  0  0  0
 29 23  1  0  0  0
  6  1  1  0  0  0
 13  8  1  0  0  0
 22 17  2  0  0  0
 14 15  1  0  0  0
 14 16  1  0  0  0
M  END
> <minimizedAffinity>
-6.76380

> <CNNscore>
0.2272565365

> <CNNaffinity>
6.4235115051

> <CNN_VS>
1.4597849846

> <CNNaffinity_variance>
0.0812983885

$$$$
[H]c1nc(N([H])[H])c(-c2nn(-c3c(Cl)c(OC([H])([H])[H])c([H])c(OC([H])([H])[H])c3Cl)c(=O)c([H])c2[H])c([H])c1-c1c([H])nn(C([H])([H])[H])c1[H]


 34 37  0  0  0  0  0  0  0  0999 V2000
   -3.2908   22.0078  -23.5387 N   0  0  0  0  0  0  0  0  0  0  0  0
   -3.7561   22.7583  -22.5643 N   0  0  0  0  0  0  0  0  0  0  0  0
   -5.0583   22.7375  -22.1879 C   0  0  0  0  0  0  0  0  0  0  0  0
   -5.8895   21.8881  -22.8740 C   0  0  0  0  0  0  0  0  0  0  0  0
   -5.4355   21.0817  -23.9067 C   0  0  0  0  0  0  0  0  0  0  0  0
   -4.1024   21.1736  -24.2139 C   0  0  0  0  0  0  0  0  0  0  0  0
   -3.6522   20.4595  -25.1431 O   0  0  0  0  0  0  0  0  0  0  0  0
   -5.5283   23.5866  -21.1025 C   0  0  0  0  0  0  0  0  0  0  0  0
   -5.7894   23.1176  -19.8458 C   0  0  0  0  0  0  0  0  0  0  0  0
   -6.2426   23.9840  -18.8300 C   0  0  0  0  0  0  0  0  0  0  0  0
   -6.4247   25.3183  -19.1056 C   0  0  0  0  0  0  0  0  0  0  0  0
   -6.1635   25.7634  -20.3458 N   0  0  0  0  0  0  0  0  0  0  0  0
   -5.7241   24.9355  -21.3391 C   0  0  0  0  0  0  0  0  0  0  0  0
   -5.4550   25.4296  -22.6423 N   0  0  0  0  0  0  0  0  0  0  0  0
   -4.4982   25.7718  -22.8740 H   0  0  0  0  0  0  0  0  0  0  0  0
   -6.1683   25.4728  -23.3973 H   0  0  0  0  0  0  0  0  0  0  0  0
   -6.5173   23.4674  -17.4988 C   0  0  0  0  0  0  0  0  0  0  0  0
   -6.0806   23.9918  -16.2989 C   0  0  0  0  0  0  0  0  0  0  0  0
   -6.5628   23.2079  -15.3254 N   0  0  0  0  0  0  0  0  0  0  0  0
   -7.2778   22.2200  -15.8415 N   0  0  0  0  0  0  0  0  0  0  0  0
   -7.9640   21.1619  -15.1017 C   0  0  0  0  0  0  0  0  0  0  0  0
   -7.2690   22.3518  -17.1753 C   0  0  0  0  0  0  0  0  0  0  0  0
   -0.2101   22.6624  -25.5085 C   0  0  0  0  0  0  0  0  0  0  0  0
    0.7706   22.1260  -24.7005 C   0  0  0  0  0  0  0  0  0  0  0  0
    0.4188   21.5463  -23.5038 C   0  0  0  0  0  0  0  0  0  0  0  0
   -0.8958   21.5159  -23.1435 C   0  0  0  0  0  0  0  0  0  0  0  0
   -1.3627   20.7826  -21.6250 Cl  0  0  0  0  0  0  0  0  0  0  0  0
   -1.9086   22.0432  -23.9264 C   0  0  0  0  0  0  0  0  0  0  0  0
   -1.5558   22.6223  -25.1226 C   0  0  0  0  0  0  0  0  0  0  0  0
   -2.7246   23.3300  -26.2165 Cl  0  0  0  0  0  0  0  0  0  0  0  0
    0.2901   22.4797  -27.8703 C   0  0  0  0  0  0  0  0  0  0  0  0
    0.1476   23.2380  -26.6985 O   0  0  0  0  0  0  0  0  0  0  0  0
    1.4300   21.0187  -22.7195 O   0  0  0  0  0  0  0  0  0  0  0  0
    2.7761   21.0047  -23.0675 C   0  0  0  0  0  0  0  0  0  0  0  0
 31 32  1  0  0  0
 32 23  1  0  0  0
 23 24  2  0  0  0
 24 25  1  0  0  0
 25 33  1  0  0  0
 33 34  1  0  0  0
 25 26  2  0  0  0
 26 27  1  0  0  0
 26 28  1  0  0  0
 28 29  2  0  0  0
 29 30  1  0  0  0
 28  1  1  0  0  0
  1  2  1  0  0  0
  2  3  2  0  0  0
  3  4  1  0  0  0
  4  5  2  0  0  0
  5  6  1  0  0  0
  6  7  2  0  0  0
  3  8  1  0  0  0
  8  9  2  0  0  0
  9 10  1  0  0  0
 10 11  2  0  0  0
 11 12  1  0  0  0
 12 13  2  0  0  0
 13 14  1  0  0  0
 10 17  1  0  0  0
 17 18  1  0  0  0
 18 19  2  0  0  0
 19 20  1  0  0  0
 20 21  1  0  0  0
 20 22  1  0  0  0
 29 23  1  0  0  0
  6  1  1  0  0  0
 13  8  1  0  0  0
 22 17  2  0  0  0
 14 15  1  0  0  0
 14 16  1  0  0  0
M  END
> <minimizedAffinity>
-6.98186

> <CNNscore>
0.2150019258

> <CNNaffinity>
6.2764749527

> <CNN_VS>
1.3494541645

> <CNNaffinity_variance>
0.0718917698

$$$$
[H]c1nc(N([H])[H])c(-c2nn(-c3c(Cl)c(OC([H])([H])[H])c([H])c(OC([H])([H])[H])c3Cl)c(=O)c([H])c2[H])c([H])c1-c1c([H])nn(C([H])([H])[H])c1[H]


 34 37  0  0  0  0  0  0  0  0999 V2000
   -0.8847   21.4647  -20.7184 N   0  0  0  0  0  0  0  0  0  0  0  0
   -0.6789   21.7247  -21.9908 N   0  0  0  0  0  0  0  0  0  0  0  0
   -1.6941   21.9343  -22.8644 C   0  0  0  0  0  0  0  0  0  0  0  0
   -2.9694   21.8640  -22.3626 C   0  0  0  0  0  0  0  0  0  0  0  0
   -3.2258   21.5924  -21.0272 C   0  0  0  0  0  0  0  0  0  0  0  0
   -2.1334   21.3949  -20.2223 C   0  0  0  0  0  0  0  0  0  0  0  0
   -2.3236   21.1465  -19.0065 O   0  0  0  0  0  0  0  0  0  0  0  0
   -1.4179   22.2194  -24.2652 C   0  0  0  0  0  0  0  0  0  0  0  0
   -2.3694   22.6637  -25.1396 C   0  0  0  0  0  0  0  0  0  0  0  0
   -2.0479   22.9253  -26.4871 C   0  0  0  0  0  0  0  0  0  0  0  0
   -0.7608   22.7316  -26.9291 C   0  0  0  0  0  0  0  0  0  0  0  0
    0.1628   22.2945  -26.0571 N   0  0  0  0  0  0  0  0  0  0  0  0
   -0.1347   22.0370  -24.7492 C   0  0  0  0  0  0  0  0  0  0  0  0
    0.8589   21.5756  -23.8467 N   0  0  0  0  0  0  0  0  0  0  0  0
    1.4187   22.2662  -23.3025 H   0  0  0  0  0  0  0  0  0  0  0  0
    1.0683   20.5693  -23.6906 H   0  0  0  0  0  0  0  0  0  0  0  0
   -3.0736   23.3960  -27.4042 C   0  0  0  0  0  0  0  0  0  0  0  0
   -3.3748   22.8792  -28.6482 C   0  0  0  0  0  0  0  0  0  0  0  0
   -4.3810   23.6095  -29.1471 N   0  0  0  0  0  0  0  0  0  0  0  0
   -4.7316   24.5564  -28.2905 N   0  0  0  0  0  0  0  0  0  0  0  0
   -5.7875   25.5508  -28.4746 C   0  0  0  0  0  0  0  0  0  0  0  0
   -3.9466   24.4515  -27.2091 C   0  0  0  0  0  0  0  0  0  0  0  0
    1.8626   19.7816  -18.8692 C   0  0  0  0  0  0  0  0  0  0  0  0
    2.3172   20.7891  -18.0442 C   0  0  0  0  0  0  0  0  0  0  0  0
    1.7187   22.0265  -18.0949 C   0  0  0  0  0  0  0  0  0  0  0  0
    0.6866   22.2282  -18.9628 C   0  0  0  0  0  0  0  0  0  0  0  0
   -0.0874   23.7955  -19.0414 Cl  0  0  0  0  0  0  0  0  0  0  0  0
    0.2022   21.2432  -19.8064 C   0  0  0  0  0  0  0  0  0  0  0  0
    0.8012   20.0066  -19.7548 C   0  0  0  0  0  0  0  0  0  0  0  0
    0.2981   18.6649  -20.7600 Cl  0  0  0  0  0  0  0  0  0  0  0  0
    3.7060   18.3113  -19.4187 C   0  0  0  0  0  0  0  0  0  0  0  0
    2.4633   18.5522  -18.8135 O   0  0  0  0  0  0  0  0  0  0  0  0
    2.2016   23.0128  -17.2524 O   0  0  0  0  0  0  0  0  0  0  0  0
    3.4148   22.9514  -16.5756 C   0  0  0  0  0  0  0  0  0  0  0  0
 31 32  1  0  0  0
 32 23  1  0  0  0
 23 24  2  0  0  0
 24 25  1  0  0  0
 25 33  1  0  0  0
 33 34  1  0  0  0
 25 26  2  0  0  0
 26 27  1  0  0  0
 26 28  1  0  0  0
 28 29  2  0  0  0
 29 30  1  0  0  0
 28  1  1  0  0  0
  1  2  1  0  0  0
  2  3  2  0  0  0
  3  4  1  0  0  0
  4  5  2  0  0  0
  5  6  1  0  0  0
  6  7  2  0  0  0
  3  8  1  0  0  0
  8  9  2  0  0  0
  9 10  1  0  0  0
 10 11  2  0  0  0
 11 12  1  0  0  0
 12 13  2  0  0  0
 13 14  1  0  0  0
 10 17  1  0  0  0
 17 18  1  0  0  0
 18 19  2  0  0  0
 19 20  1  0  0  0
 20 21  1  0  0  0
 20 22  1  0  0  0
 29 23  1  0  0  0
  6  1  1  0  0  0
 13  8  1  0  0  0
 22 17  2  0  0  0
 14 15  1  0  0  0
 14 16  1  0  0  0
M  END
> <minimizedAffinity>
-7.32940

> <CNNscore>
0.1835841238

> <CNNaffinity>
6.8617539406

> <CNN_VS>
1.2597091198

> <CNNaffinity_variance>
0.3714009523

$$$$
[H]c1nc(N([H])[H])c(-c2nn(-c3c(Cl)c(OC([H])([H])[H])c([H])c(OC([H])([H])[H])c3Cl)c(=O)c([H])c2[H])c([H])c1-c1c([H])nn(C([H])([H])[H])c1[H]


 34 37  0  0  0  0  0  0  0  0999 V2000
   -5.9726   21.9278  -20.1458 N   0  0  0  0  0  0  0  0  0  0  0  0
   -4.7487   21.8782  -20.6238 N   0  0  0  0  0  0  0  0  0  0  0  0
   -4.4883   21.8114  -21.9526 C   0  0  0  0  0  0  0  0  0  0  0  0
   -5.5698   21.7972  -22.7972 C   0  0  0  0  0  0  0  0  0  0  0  0
   -6.8745   21.8483  -22.3305 C   0  0  0  0  0  0  0  0  0  0  0  0
   -7.0357   21.9142  -20.9704 C   0  0  0  0  0  0  0  0  0  0  0  0
   -8.2019   21.9619  -20.5081 O   0  0  0  0  0  0  0  0  0  0  0  0
   -3.1159   21.7584  -22.4358 C   0  0  0  0  0  0  0  0  0  0  0  0
   -2.7655   22.0469  -23.7248 C   0  0  0  0  0  0  0  0  0  0  0  0
   -1.4200   21.9806  -24.1408 C   0  0  0  0  0  0  0  0  0  0  0  0
   -0.4465   21.6212  -23.2393 C   0  0  0  0  0  0  0  0  0  0  0  0
   -0.8074   21.3407  -21.9762 N   0  0  0  0  0  0  0  0  0  0  0  0
   -2.1067   21.4009  -21.5597 C   0  0  0  0  0  0  0  0  0  0  0  0
   -2.4634   21.0997  -20.2192 N   0  0  0  0  0  0  0  0  0  0  0  0
   -2.4833   21.8627  -19.5095 H   0  0  0  0  0  0  0  0  0  0  0  0
   -2.7117   20.1442  -19.8933 H   0  0  0  0  0  0  0  0  0  0  0  0
   -1.0653   22.2894  -25.5168 C   0  0  0  0  0  0  0  0  0  0  0  0
    0.1874   22.2029  -26.0901 C   0  0  0  0  0  0  0  0  0  0  0  0
    0.0635   22.5779  -27.3702 N   0  0  0  0  0  0  0  0  0  0  0  0
   -1.1939   22.8958  -27.6373 N   0  0  0  0  0  0  0  0  0  0  0  0
   -1.7238   23.3510  -28.9217 C   0  0  0  0  0  0  0  0  0  0  0  0
   -1.9127   22.7288  -26.5184 C   0  0  0  0  0  0  0  0  0  0  0  0
   -6.6190   20.8903  -16.6379 C   0  0  0  0  0  0  0  0  0  0  0  0
   -6.7318   22.1039  -15.9923 C   0  0  0  0  0  0  0  0  0  0  0  0
   -6.5955   23.2681  -16.7119 C   0  0  0  0  0  0  0  0  0  0  0  0
   -6.3512   23.1943  -18.0513 C   0  0  0  0  0  0  0  0  0  0  0  0
   -6.1750   24.6644  -18.9836 Cl  0  0  0  0  0  0  0  0  0  0  0  0
   -6.2312   21.9964  -18.7350 C   0  0  0  0  0  0  0  0  0  0  0  0
   -6.3678   20.8332  -18.0145 C   0  0  0  0  0  0  0  0  0  0  0  0
   -6.2414   19.2457  -18.7409 Cl  0  0  0  0  0  0  0  0  0  0  0  0
   -7.7289   19.6042  -14.9129 C   0  0  0  0  0  0  0  0  0  0  0  0
   -6.7557   19.7353  -15.9149 O   0  0  0  0  0  0  0  0  0  0  0  0
   -6.7149   24.4668  -16.0303 O   0  0  0  0  0  0  0  0  0  0  0  0
   -6.2395   24.6966  -14.7439 C   0  0  0  0  0  0  0  0  0  0  0  0
 31 32  1  0  0  0
 32 23  1  0  0  0
 23 24  2  0  0  0
 24 25  1  0  0  0
 25 33  1  0  0  0
 33 34  1  0  0  0
 25 26  2  0  0  0
 26 27  1  0  0  0
 26 28  1  0  0  0
 28 29  2  0  0  0
 29 30  1  0  0  0
 28  1  1  0  0  0
  1  2  1  0  0  0
  2  3  2  0  0  0
  3  4  1  0  0  0
  4  5  2  0  0  0
  5  6  1  0  0  0
  6  7  2  0  0  0
  3  8  1  0  0  0
  8  9  2  0  0  0
  9 10  1  0  0  0
 10 11  2  0  0  0
 11 12  1  0  0  0
 12 13  2  0  0  0
 13 14  1  0  0  0
 10 17  1  0  0  0
 17 18  1  0  0  0
 18 19  2  0  0  0
 19 20  1  0  0  0
 20 21  1  0  0  0
 20 22  1  0  0  0
 29 23  1  0  0  0
  6  1  1  0  0  0
 13  8  1  0  0  0
 22 17  2  0  0  0
 14 15  1  0  0  0
 14 16  1  0  0  0
M  END
> <minimizedAffinity>
-7.02023

> <CNNscore>
0.1770739108

> <CNNaffinity>
6.3281641006

> <CNN_VS>
1.1205527782

> <CNNaffinity_variance>
0.0085461466

$$$$
[H]c1nc2c([H])c([H])c3c([H])c([H])c(N([H])S(=O)(=O)N(C([H])([H])[H])C([H])([H])[C@@]4([H])OC([H])([H])C([H])([H])OC4([H])[H])c([H])c3c(=O)c2c([H])c1-c1c([H])nn(C([H])([H])[H])c1[H]


 36 40  0  0  0  0  0  0  0  0999 V2000
   -2.1825   21.5539  -21.3680 C   0  0  0  0  0  0  0  0  0  0  0  0
   -0.9011   21.0472  -21.3804 C   0  0  0  0  0  0  0  0  0  0  0  0
   -0.0862   21.1668  -22.4980 C   0  0  0  0  0  0  0  0  0  0  0  0
   -0.5135   21.7921  -23.6412 C   0  0  0  0  0  0  0  0  0  0  0  0
    0.4631   21.7979  -24.6342 C   0  0  0  0  0  0  0  0  0  0  0  0
    0.3092   22.1357  -25.9784 C   0  0  0  0  0  0  0  0  0  0  0  0
   -0.8135   22.6224  -26.6160 C   0  0  0  0  0  0  0  0  0  0  0  0
   -0.6867   22.7369  -27.9427 N   0  0  0  0  0  0  0  0  0  0  0  0
   -1.7020   23.1978  -28.6947 C   0  0  0  0  0  0  0  0  0  0  0  0
   -2.9240   23.5810  -28.1836 C   0  0  0  0  0  0  0  0  0  0  0  0
   -3.0841   23.4721  -26.8027 C   0  0  0  0  0  0  0  0  0  0  0  0
   -2.0214   22.9954  -26.0640 C   0  0  0  0  0  0  0  0  0  0  0  0
   -2.3819   22.9633  -24.7129 C   0  0  0  0  0  0  0  0  0  0  0  0
   -3.3952   23.6263  -24.3959 O   0  0  0  0  0  0  0  0  0  0  0  0
   -1.7916   22.3077  -23.6550 C   0  0  0  0  0  0  0  0  0  0  0  0
   -2.6002   22.1892  -22.5456 C   0  0  0  0  0  0  0  0  0  0  0  0
   -4.0099   24.0768  -29.0142 C   0  0  0  0  0  0  0  0  0  0  0  0
   -5.2182   23.4381  -29.1874 C   0  0  0  0  0  0  0  0  0  0  0  0
   -5.9627   24.1906  -30.0162 N   0  0  0  0  0  0  0  0  0  0  0  0
   -5.3011   25.2721  -30.3826 N   0  0  0  0  0  0  0  0  0  0  0  0
   -5.7960   26.3223  -31.2801 C   0  0  0  0  0  0  0  0  0  0  0  0
   -4.1025   25.2183  -29.7777 C   0  0  0  0  0  0  0  0  0  0  0  0
   -3.0508   21.4512  -20.2499 N   0  0  0  0  0  0  0  0  0  0  0  0
   -3.8639   20.7891  -20.3532 H   0  0  0  0  0  0  0  0  0  0  0  0
   -2.8621   22.3184  -18.7755 S   0  0  0  0  0  0  0  0  0  0  0  0
   -4.1135   23.0696  -18.4243 O   0  0  0  0  0  0  0  0  0  0  0  0
   -1.7919   23.3509  -18.9908 O   0  0  0  0  0  0  0  0  0  0  0  0
   -3.6055   21.0960  -16.5696 C   0  0  0  0  0  0  0  0  0  0  0  0
   -2.5127   21.2786  -17.4677 N   0  0  0  0  0  0  0  0  0  0  0  0
   -1.2264   21.4202  -16.8932 C   0  0  0  0  0  0  0  0  0  0  0  0
   -0.2044   20.4383  -17.3955 C   0  0  0  0  0  0  0  0  0  0  0  0
    0.9149   21.1249  -18.1501 C   0  0  0  0  0  0  0  0  0  0  0  0
    1.9286   20.2150  -18.3216 O   0  0  0  0  0  0  0  0  0  0  0  0
    1.4755   19.1849  -19.1232 C   0  0  0  0  0  0  0  0  0  0  0  0
    0.1937   18.5703  -18.6322 C   0  0  0  0  0  0  0  0  0  0  0  0
   -0.7630   19.5188  -18.2892 O   0  0  0  0  0  0  0  0  0  0  0  0
 28 29  1  0  0  0
 29 30  1  0  0  0
 30 31  1  0  0  0
 31 32  1  0  0  0
 32 33  1  0  0  0
 33 34  1  0  0  0
 34 35  1  0  0  0
 35 36  1  0  0  0
 29 25  1  0  0  0
 25 26  2  0  0  0
 25 27  2  0  0  0
 25 23  1  0  0  0
 23  1  1  0  0  0
  1  2  2  0  0  0
  2  3  1  0  0  0
  3  4  2  0  0  0
  4  5  1  0  0  0
  5  6  2  0  0  0
  6  7  1  0  0  0
  7  8  2  0  0  0
  8  9  1  0  0  0
  9 10  2  0  0  0
 10 11  1  0  0  0
 11 12  2  0  0  0
 12 13  1  0  0  0
 13 14  2  0  0  0
 13 15  1  0  0  0
 15 16  2  0  0  0
 10 17  1  0  0  0
 17 18  1  0  0  0
 18 19  2  0  0  0
 19 20  1  0  0  0
 20 21  1  0  0  0
 20 22  1  0  0  0
 36 31  1  0  0  0
 16  1  1  0  0  0
 22 17  2  0  0  0
 15  4  1  0  0  0
 12  7  1  0  0  0
 23 24  1  0  0  0
M  END
> <minimizedAffinity>
-8.86518

> <CNNscore>
0.7314117551

> <CNNaffinity>
7.2304306030

> <CNN_VS>
5.2884221077

> <CNNaffinity_variance>
0.1287758648

$$$$
[H]c1nc2c([H])c([H])c3c([H])c([H])c(N([H])S(=O)(=O)N(C([H])([H])[H])C([H])([H])[C@@]4([H])OC([H])([H])C([H])([H])OC4([H])[H])c([H])c3c(=O)c2c([H])c1-c1c([H])nn(C([H])([H])[H])c1[H]


 36 40  0  0  0  0  0  0  0  0999 V2000
   -2.4013   21.5581  -21.2416 C   0  0  0  0  0  0  0  0  0  0  0  0
   -1.1256   21.0372  -21.2207 C   0  0  0  0  0  0  0  0  0  0  0  0
   -0.2825   21.1429  -22.3186 C   0  0  0  0  0  0  0  0  0  0  0  0
   -0.6749   21.7679  -23.4744 C   0  0  0  0  0  0  0  0  0  0  0  0
    0.3255   21.7585  -24.4434 C   0  0  0  0  0  0  0  0  0  0  0  0
    0.2081   22.0921  -25.7923 C   0  0  0  0  0  0  0  0  0  0  0  0
   -0.8934   22.5883  -26.4590 C   0  0  0  0  0  0  0  0  0  0  0  0
   -0.7330   22.6956  -27.7828 N   0  0  0  0  0  0  0  0  0  0  0  0
   -1.7246   23.1644  -28.5611 C   0  0  0  0  0  0  0  0  0  0  0  0
   -2.9543   23.5632  -28.0816 C   0  0  0  0  0  0  0  0  0  0  0  0
   -3.1492   23.4622  -26.7046 C   0  0  0  0  0  0  0  0  0  0  0  0
   -2.1100   22.9771  -25.9382 C   0  0  0  0  0  0  0  0  0  0  0  0
   -2.5036   22.9549  -24.5962 C   0  0  0  0  0  0  0  0  0  0  0  0
   -3.5169   23.6304  -24.3067 O   0  0  0  0  0  0  0  0  0  0  0  0
   -1.9465   22.2975  -23.5215 C   0  0  0  0  0  0  0  0  0  0  0  0
   -2.7832   22.1928  -22.4317 C   0  0  0  0  0  0  0  0  0  0  0  0
   -4.0141   24.0673  -28.9404 C   0  0  0  0  0  0  0  0  0  0  0  0
   -5.2459   23.4706  -29.0971 C   0  0  0  0  0  0  0  0  0  0  0  0
   -5.9543   24.2174  -29.9619 N   0  0  0  0  0  0  0  0  0  0  0  0
   -5.2476   25.2558  -30.3667 N   0  0  0  0  0  0  0  0  0  0  0  0
   -5.6942   26.2871  -31.3103 C   0  0  0  0  0  0  0  0  0  0  0  0
   -4.0560   25.1793  -29.7505 C   0  0  0  0  0  0  0  0  0  0  0  0
   -3.2976   21.4699  -20.1445 N   0  0  0  0  0  0  0  0  0  0  0  0
   -4.1162   20.8178  -20.2656 H   0  0  0  0  0  0  0  0  0  0  0  0
   -3.1336   22.3394  -18.6686 S   0  0  0  0  0  0  0  0  0  0  0  0
   -4.2682   23.3039  -18.4786 O   0  0  0  0  0  0  0  0  0  0  0  0
   -1.8833   23.1669  -18.7665 O   0  0  0  0  0  0  0  0  0  0  0  0
   -1.8990   21.3166  -16.5847 C   0  0  0  0  0  0  0  0  0  0  0  0
   -3.1233   21.2981  -17.3161 N   0  0  0  0  0  0  0  0  0  0  0  0
   -3.7406   20.0377  -17.5028 C   0  0  0  0  0  0  0  0  0  0  0  0
   -5.2410   20.0818  -17.5904 C   0  0  0  0  0  0  0  0  0  0  0  0
   -5.8887   19.0264  -16.7184 C   0  0  0  0  0  0  0  0  0  0  0  0
   -7.2285   19.3134  -16.6330 O   0  0  0  0  0  0  0  0  0  0  0  0
   -7.7924   19.1991  -17.8892 C   0  0  0  0  0  0  0  0  0  0  0  0
   -7.0723   20.0008  -18.9383 C   0  0  0  0  0  0  0  0  0  0  0  0
   -5.6928   19.8361  -18.8910 O   0  0  0  0  0  0  0  0  0  0  0  0
 28 29  1  0  0  0
 29 30  1  0  0  0
 30 31  1  0  0  0
 31 32  1  0  0  0
 32 33  1  0  0  0
 33 34  1  0  0  0
 34 35  1  0  0  0
 35 36  1  0  0  0
 29 25  1  0  0  0
 25 26  2  0  0  0
 25 27  2  0  0  0
 25 23  1  0  0  0
 23  1  1  0  0  0
  1  2  2  0  0  0
  2  3  1  0  0  0
  3  4  2  0  0  0
  4  5  1  0  0  0
  5  6  2  0  0  0
  6  7  1  0  0  0
  7  8  2  0  0  0
  8  9  1  0  0  0
  9 10  2  0  0  0
 10 11  1  0  0  0
 11 12  2  0  0  0
 12 13  1  0  0  0
 13 14  2  0  0  0
 13 15  1  0  0  0
 15 16  2  0  0  0
 10 17  1  0  0  0
 17 18  1  0  0  0
 18 19  2  0  0  0
 19 20  1  0  0  0
 20 21  1  0  0  0
 20 22  1  0  0  0
 36 31  1  0  0  0
 16  1  1  0  0  0
 22 17  2  0  0  0
 15  4  1  0  0  0
 12  7  1  0  0  0
 23 24  1  0  0  0
M  END
> <minimizedAffinity>
-8.81825

> <CNNscore>
0.7182593346

> <CNNaffinity>
7.2479333878

> <CNN_VS>
5.2058959007

> <CNNaffinity_variance>
0.3274771571

$$$$
[H]c1nc2c([H])c([H])c3c([H])c([H])c(N([H])S(=O)(=O)N(C([H])([H])[H])C([H])([H])[C@@]4([H])OC([H])([H])C([H])([H])OC4([H])[H])c([H])c3c(=O)c2c([H])c1-c1c([H])nn(C([H])([H])[H])c1[H]


 36 40  0  0  0  0  0  0  0  0999 V2000
   -2.3473   21.3699  -21.2760 C   0  0  0  0  0  0  0  0  0  0  0  0
   -1.0382   20.9452  -21.2062 C   0  0  0  0  0  0  0  0  0  0  0  0
   -0.1613   21.1253  -22.2675 C   0  0  0  0  0  0  0  0  0  0  0  0
   -0.5520   21.7318  -23.4336 C   0  0  0  0  0  0  0  0  0  0  0  0
    0.4850   21.8075  -24.3603 C   0  0  0  0  0  0  0  0  0  0  0  0
    0.3981   22.1460  -25.7104 C   0  0  0  0  0  0  0  0  0  0  0  0
   -0.7093   22.5660  -26.4183 C   0  0  0  0  0  0  0  0  0  0  0  0
   -0.5036   22.6993  -27.7333 N   0  0  0  0  0  0  0  0  0  0  0  0
   -1.4950   23.1013  -28.5485 C   0  0  0  0  0  0  0  0  0  0  0  0
   -2.7696   23.4023  -28.1173 C   0  0  0  0  0  0  0  0  0  0  0  0
   -3.0123   23.2721  -26.7503 C   0  0  0  0  0  0  0  0  0  0  0  0
   -1.9719   22.8574  -25.9453 C   0  0  0  0  0  0  0  0  0  0  0  0
   -2.4171   22.7914  -24.6210 C   0  0  0  0  0  0  0  0  0  0  0  0
   -3.4891   23.3864  -24.3685 O   0  0  0  0  0  0  0  0  0  0  0  0
   -1.8567   22.1657  -23.5293 C   0  0  0  0  0  0  0  0  0  0  0  0
   -2.7268   21.9872  -22.4759 C   0  0  0  0  0  0  0  0  0  0  0  0
   -3.8283   23.8353  -29.0153 C   0  0  0  0  0  0  0  0  0  0  0  0
   -4.9439   23.0901  -29.3281 C   0  0  0  0  0  0  0  0  0  0  0  0
   -5.6914   23.8121  -30.1808 N   0  0  0  0  0  0  0  0  0  0  0  0
   -5.1190   24.9745  -30.4311 N   0  0  0  0  0  0  0  0  0  0  0  0
   -5.6447   26.0215  -31.3148 C   0  0  0  0  0  0  0  0  0  0  0  0
   -3.9763   25.0054  -29.7250 C   0  0  0  0  0  0  0  0  0  0  0  0
   -3.2785   21.2032  -20.2178 N   0  0  0  0  0  0  0  0  0  0  0  0
   -3.0552   20.4479  -19.5180 H   0  0  0  0  0  0  0  0  0  0  0  0
   -4.7113   22.1342  -20.0133 S   0  0  0  0  0  0  0  0  0  0  0  0
   -5.6808   21.8905  -21.1333 O   0  0  0  0  0  0  0  0  0  0  0  0
   -4.3250   23.5841  -20.0924 O   0  0  0  0  0  0  0  0  0  0  0  0
   -6.9254   21.9559  -18.6064 C   0  0  0  0  0  0  0  0  0  0  0  0
   -5.5148   21.7511  -18.5568 N   0  0  0  0  0  0  0  0  0  0  0  0
   -4.8518   22.1358  -17.3665 C   0  0  0  0  0  0  0  0  0  0  0  0
   -5.6679   23.0008  -16.4463 C   0  0  0  0  0  0  0  0  0  0  0  0
   -5.2245   24.4483  -16.4913 C   0  0  0  0  0  0  0  0  0  0  0  0
   -6.1814   25.2027  -15.8587 O   0  0  0  0  0  0  0  0  0  0  0  0
   -6.2314   24.8383  -14.5269 C   0  0  0  0  0  0  0  0  0  0  0  0
   -6.4018   23.3580  -14.3224 C   0  0  0  0  0  0  0  0  0  0  0  0
   -5.5430   22.6018  -15.1116 O   0  0  0  0  0  0  0  0  0  0  0  0
 28 29  1  0  0  0
 29 30  1  0  0  0
 30 31  1  0  0  0
 31 32  1  0  0  0
 32 33  1  0  0  0
 33 34  1  0  0  0
 34 35  1  0  0  0
 35 36  1  0  0  0
 29 25  1  0  0  0
 25 26  2  0  0  0
 25 27  2  0  0  0
 25 23  1  0  0  0
 23  1  1  0  0  0
  1  2  2  0  0  0
  2  3  1  0  0  0
  3  4  2  0  0  0
  4  5  1  0  0  0
  5  6  2  0  0  0
  6  7  1  0  0  0
  7  8  2  0  0  0
  8  9  1  0  0  0
  9 10  2  0  0  0
 10 11  1  0  0  0
 11 12  2  0  0  0
 12 13  1  0  0  0
 13 14  2  0  0  0
 13 15  1  0  0  0
 15 16  2  0  0  0
 10 17  1  0  0  0
 17 18  1  0  0  0
 18 19  2  0  0  0
 19 20  1  0  0  0
 20 21  1  0  0  0
 20 22  1  0  0  0
 36 31  1  0  0  0
 16  1  1  0  0  0
 22 17  2  0  0  0
 15  4  1  0  0  0
 12  7  1  0  0  0
 23 24  1  0  0  0
M  END
> <minimizedAffinity>
-9.22671

> <CNNscore>
0.6797705293

> <CNNaffinity>
7.1355667114

> <CNN_VS>
4.8505477905

> <CNNaffinity_variance>
0.2302522212

$$$$
[H]c1nc2c([H])c([H])c3c([H])c([H])c(N([H])S(=O)(=O)N(C([H])([H])[H])C([H])([H])[C@@]4([H])OC([H])([H])C([H])([H])OC4([H])[H])c([H])c3c(=O)c2c([H])c1-c1c([H])nn(C([H])([H])[H])c1[H]


 36 40  0  0  0  0  0  0  0  0999 V2000
   -1.9946   21.4702  -21.2387 C   0  0  0  0  0  0  0  0  0  0  0  0
   -0.7122   20.9670  -21.2717 C   0  0  0  0  0  0  0  0  0  0  0  0
    0.0844   21.0891  -22.4022 C   0  0  0  0  0  0  0  0  0  0  0  0
   -0.3628   21.7136  -23.5382 C   0  0  0  0  0  0  0  0  0  0  0  0
    0.5978   21.7223  -24.5467 C   0  0  0  0  0  0  0  0  0  0  0  0
    0.4215   22.0600  -25.8882 C   0  0  0  0  0  0  0  0  0  0  0  0
   -0.7127   22.5438  -26.5076 C   0  0  0  0  0  0  0  0  0  0  0  0
   -0.6073   22.6590  -27.8361 N   0  0  0  0  0  0  0  0  0  0  0  0
   -1.6358   23.1174  -28.5716 C   0  0  0  0  0  0  0  0  0  0  0  0
   -2.8505   23.4970  -28.0410 C   0  0  0  0  0  0  0  0  0  0  0  0
   -2.9882   23.3874  -26.6578 C   0  0  0  0  0  0  0  0  0  0  0  0
   -1.9125   22.9134  -25.9362 C   0  0  0  0  0  0  0  0  0  0  0  0
   -2.2513   22.8799  -24.5796 C   0  0  0  0  0  0  0  0  0  0  0  0
   -3.2612   23.5401  -24.2463 O   0  0  0  0  0  0  0  0  0  0  0  0
   -1.6424   22.2257  -23.5315 C   0  0  0  0  0  0  0  0  0  0  0  0
   -2.4329   22.1047  -22.4093 C   0  0  0  0  0  0  0  0  0  0  0  0
   -3.9509   23.9901  -28.8539 C   0  0  0  0  0  0  0  0  0  0  0  0
   -5.1863   23.3877  -28.9486 C   0  0  0  0  0  0  0  0  0  0  0  0
   -5.9369   24.1247  -29.7857 N   0  0  0  0  0  0  0  0  0  0  0  0
   -5.2537   25.1621  -30.2314 N   0  0  0  0  0  0  0  0  0  0  0  0
   -5.7476   26.1839  -31.1617 C   0  0  0  0  0  0  0  0  0  0  0  0
   -4.0346   25.0951  -29.6704 C   0  0  0  0  0  0  0  0  0  0  0  0
   -2.8447   21.3649  -20.1069 N   0  0  0  0  0  0  0  0  0  0  0  0
   -3.6232   20.6583  -20.1756 H   0  0  0  0  0  0  0  0  0  0  0  0
   -2.6859   22.2954  -18.6680 S   0  0  0  0  0  0  0  0  0  0  0  0
   -1.6333   23.3548  -18.8208 O   0  0  0  0  0  0  0  0  0  0  0  0
   -2.2075   21.3733  -17.5824 O   0  0  0  0  0  0  0  0  0  0  0  0
   -4.2274   23.4623  -16.8860 C   0  0  0  0  0  0  0  0  0  0  0  0
   -4.1428   23.0854  -18.2589 N   0  0  0  0  0  0  0  0  0  0  0  0
   -5.3162   22.5636  -18.8549 C   0  0  0  0  0  0  0  0  0  0  0  0
   -5.8499   23.3750  -20.0028 C   0  0  0  0  0  0  0  0  0  0  0  0
   -6.6393   22.5247  -20.9763 C   0  0  0  0  0  0  0  0  0  0  0  0
   -7.3180   23.3688  -21.8199 O   0  0  0  0  0  0  0  0  0  0  0  0
   -6.4036   24.0892  -22.5642 C   0  0  0  0  0  0  0  0  0  0  0  0
   -5.3697   24.7852  -21.7226 C   0  0  0  0  0  0  0  0  0  0  0  0
   -4.8209   23.9587  -20.7488 O   0  0  0  0  0  0  0  0  0  0  0  0
 28 29  1  0  0  0
 29 30  1  0  0  0
 30 31  1  0  0  0
 31 32  1  0  0  0
 32 33  1  0  0  0
 33 34  1  0  0  0
 34 35  1  0  0  0
 35 36  1  0  0  0
 29 25  1  0  0  0
 25 26  2  0  0  0
 25 27  2  0  0  0
 25 23  1  0  0  0
 23  1  1  0  0  0
  1  2  2  0  0  0
  2  3  1  0  0  0
  3  4  2  0  0  0
  4  5  1  0  0  0
  5  6  2  0  0  0
  6  7  1  0  0  0
  7  8  2  0  0  0
  8  9  1  0  0  0
  9 10  2  0  0  0
 10 11  1  0  0  0
 11 12  2  0  0  0
 12 13  1  0  0  0
 13 14  2  0  0  0
 13 15  1  0  0  0
 15 16  2  0  0  0
 10 17  1  0  0  0
 17 18  1  0  0  0
 18 19  2  0  0  0
 19 20  1  0  0  0
 20 21  1  0  0  0
 20 22  1  0  0  0
 36 31  1  0  0  0
 16  1  1  0  0  0
 22 17  2  0  0  0
 15  4  1  0  0  0
 12  7  1  0  0  0
 23 24  1  0  0  0
M  END
> <minimizedAffinity>
-9.76215

> <CNNscore>
0.6703360677

> <CNNaffinity>
7.3045554161

> <CNN_VS>
4.8965067863

> <CNNaffinity_variance>
0.0831515342

$$$$
[H]c1nc2c([H])c([H])c3c([H])c([H])c(N([H])S(=O)(=O)N(C([H])([H])[H])C([H])([H])[C@@]4([H])OC([H])([H])C([H])([H])OC4([H])[H])c([H])c3c(=O)c2c([H])c1-c1c([H])nn(C([H])([H])[H])c1[H]


 36 40  0  0  0  0  0  0  0  0999 V2000
   -1.2433   20.9870  -20.9282 C   0  0  0  0  0  0  0  0  0  0  0  0
    0.0913   20.6673  -21.0531 C   0  0  0  0  0  0  0  0  0  0  0  0
    0.7957   20.9424  -22.2174 C   0  0  0  0  0  0  0  0  0  0  0  0
    0.2015   21.5431  -23.2974 C   0  0  0  0  0  0  0  0  0  0  0  0
    1.0906   21.7239  -24.3541 C   0  0  0  0  0  0  0  0  0  0  0  0
    0.7911   22.0863  -25.6670 C   0  0  0  0  0  0  0  0  0  0  0  0
   -0.4328   22.4328  -26.2017 C   0  0  0  0  0  0  0  0  0  0  0  0
   -0.4229   22.6134  -27.5271 N   0  0  0  0  0  0  0  0  0  0  0  0
   -1.5458   22.9539  -28.1845 C   0  0  0  0  0  0  0  0  0  0  0  0
   -2.7672   23.1411  -27.5727 C   0  0  0  0  0  0  0  0  0  0  0  0
   -2.8067   22.9594  -26.1908 C   0  0  0  0  0  0  0  0  0  0  0  0
   -1.6358   22.6105  -25.5506 C   0  0  0  0  0  0  0  0  0  0  0  0
   -1.8861   22.4775  -24.1809 C   0  0  0  0  0  0  0  0  0  0  0  0
   -2.9547   22.9784  -23.7637 O   0  0  0  0  0  0  0  0  0  0  0  0
   -1.1331   21.8730  -23.1985 C   0  0  0  0  0  0  0  0  0  0  0  0
   -1.8320   21.6002  -22.0428 C   0  0  0  0  0  0  0  0  0  0  0  0
   -3.9704   23.5091  -28.3019 C   0  0  0  0  0  0  0  0  0  0  0  0
   -5.2550   23.2943  -27.8529 C   0  0  0  0  0  0  0  0  0  0  0  0
   -6.0985   23.7632  -28.7888 N   0  0  0  0  0  0  0  0  0  0  0  0
   -5.4284   24.2647  -29.8091 N   0  0  0  0  0  0  0  0  0  0  0  0
   -6.0140   24.8649  -31.0133 C   0  0  0  0  0  0  0  0  0  0  0  0
   -4.1229   24.1171  -29.5273 C   0  0  0  0  0  0  0  0  0  0  0  0
   -2.0028   20.7210  -19.7590 N   0  0  0  0  0  0  0  0  0  0  0  0
   -2.9580   21.1633  -19.7156 H   0  0  0  0  0  0  0  0  0  0  0  0
   -1.4730   19.7467  -18.4431 S   0  0  0  0  0  0  0  0  0  0  0  0
   -0.6126   18.6127  -18.9200 O   0  0  0  0  0  0  0  0  0  0  0  0
   -2.6910   19.1245  -17.8207 O   0  0  0  0  0  0  0  0  0  0  0  0
   -1.1866   21.8421  -16.8809 C   0  0  0  0  0  0  0  0  0  0  0  0
   -0.5515   20.6430  -17.3202 N   0  0  0  0  0  0  0  0  0  0  0  0
    0.8392   20.7102  -17.5769 C   0  0  0  0  0  0  0  0  0  0  0  0
    1.4536   22.0636  -17.3493 C   0  0  0  0  0  0  0  0  0  0  0  0
    1.9876   22.6643  -18.6329 C   0  0  0  0  0  0  0  0  0  0  0  0
    2.2648   23.9880  -18.3962 O   0  0  0  0  0  0  0  0  0  0  0  0
    3.2773   24.0735  -17.4600 C   0  0  0  0  0  0  0  0  0  0  0  0
    2.9981   23.2857  -16.2097 C   0  0  0  0  0  0  0  0  0  0  0  0
    2.5419   21.9992  -16.4731 O   0  0  0  0  0  0  0  0  0  0  0  0
 28 29  1  0  0  0
 29 30  1  0  0  0
 30 31  1  0  0  0
 31 32  1  0  0  0
 32 33  1  0  0  0
 33 34  1  0  0  0
 34 35  1  0  0  0
 35 36  1  0  0  0
 29 25  1  0  0  0
 25 26  2  0  0  0
 25 27  2  0  0  0
 25 23  1  0  0  0
 23  1  1  0  0  0
  1  2  2  0  0  0
  2  3  1  0  0  0
  3  4  2  0  0  0
  4  5  1  0  0  0
  5  6  2  0  0  0
  6  7  1  0  0  0
  7  8  2  0  0  0
  8  9  1  0  0  0
  9 10  2  0  0  0
 10 11  1  0  0  0
 11 12  2  0  0  0
 12 13  1  0  0  0
 13 14  2  0  0  0
 13 15  1  0  0  0
 15 16  2  0  0  0
 10 17  1  0  0  0
 17 18  1  0  0  0
 18 19  2  0  0  0
 19 20  1  0  0  0
 20 21  1  0  0  0
 20 22  1  0  0  0
 36 31  1  0  0  0
 16  1  1  0  0  0
 22 17  2  0  0  0
 15  4  1  0  0  0
 12  7  1  0  0  0
 23 24  1  0  0  0
M  END
> <minimizedAffinity>
-8.52988

> <CNNscore>
0.5575641990

> <CNNaffinity>
6.9510383606

> <CNN_VS>
3.8756501675

> <CNNaffinity_variance>
0.1600049883

$$$$
[H]c1nc2c([H])c([H])c3c([H])c([H])c(N([H])S(=O)(=O)N(C([H])([H])[H])C([H])([H])[C@@]4([H])OC([H])([H])C([H])([H])OC4([H])[H])c([H])c3c(=O)c2c([H])c1-c1c([H])nn(C([H])([H])[H])c1[H]


 36 40  0  0  0  0  0  0  0  0999 V2000
   -6.5840   24.1582  -26.0396 C   0  0  0  0  0  0  0  0  0  0  0  0
   -6.4991   24.5140  -27.3681 C   0  0  0  0  0  0  0  0  0  0  0  0
   -5.3648   24.2392  -28.1201 C   0  0  0  0  0  0  0  0  0  0  0  0
   -4.2762   23.6030  -27.5809 C   0  0  0  0  0  0  0  0  0  0  0  0
   -3.2541   23.4297  -28.5110 C   0  0  0  0  0  0  0  0  0  0  0  0
   -1.9385   23.0362  -28.2676 C   0  0  0  0  0  0  0  0  0  0  0  0
   -1.3687   22.6454  -27.0733 C   0  0  0  0  0  0  0  0  0  0  0  0
   -0.0479   22.4422  -27.1343 N   0  0  0  0  0  0  0  0  0  0  0  0
    0.6412   22.0582  -26.0450 C   0  0  0  0  0  0  0  0  0  0  0  0
    0.0683   21.8464  -24.8089 C   0  0  0  0  0  0  0  0  0  0  0  0
   -1.3079   22.0508  -24.7163 C   0  0  0  0  0  0  0  0  0  0  0  0
   -1.9813   22.4443  -25.8539 C   0  0  0  0  0  0  0  0  0  0  0  0
   -3.3390   22.5937  -25.5525 C   0  0  0  0  0  0  0  0  0  0  0  0
   -3.7285   22.0695  -24.4846 O   0  0  0  0  0  0  0  0  0  0  0  0
   -4.3354   23.2366  -26.2536 C   0  0  0  0  0  0  0  0  0  0  0  0
   -5.4613   23.5091  -25.5075 C   0  0  0  0  0  0  0  0  0  0  0  0
    0.8313   21.4314  -23.6426 C   0  0  0  0  0  0  0  0  0  0  0  0
    0.2968   21.2237  -22.3899 C   0  0  0  0  0  0  0  0  0  0  0  0
    1.2989   20.8506  -21.5750 N   0  0  0  0  0  0  0  0  0  0  0  0
    2.4418   20.8079  -22.2333 N   0  0  0  0  0  0  0  0  0  0  0  0
    3.7470   20.4423  -21.6710 C   0  0  0  0  0  0  0  0  0  0  0  0
    2.1736   21.1609  -23.5017 C   0  0  0  0  0  0  0  0  0  0  0  0
   -7.7215   24.4224  -25.2327 N   0  0  0  0  0  0  0  0  0  0  0  0
   -8.6539   24.1537  -25.6432 H   0  0  0  0  0  0  0  0  0  0  0  0
   -7.6724   25.1355  -23.6673 S   0  0  0  0  0  0  0  0  0  0  0  0
   -9.0509   25.4884  -23.1888 O   0  0  0  0  0  0  0  0  0  0  0  0
   -6.9173   26.4294  -23.7822 O   0  0  0  0  0  0  0  0  0  0  0  0
   -7.9503   23.2816  -21.8237 C   0  0  0  0  0  0  0  0  0  0  0  0
   -6.9901   24.0816  -22.5108 N   0  0  0  0  0  0  0  0  0  0  0  0
   -5.9292   24.6150  -21.7397 C   0  0  0  0  0  0  0  0  0  0  0  0
   -4.7537   23.6931  -21.5692 C   0  0  0  0  0  0  0  0  0  0  0  0
   -4.7590   23.0161  -20.2145 C   0  0  0  0  0  0  0  0  0  0  0  0
   -3.8372   21.9991  -20.2471 O   0  0  0  0  0  0  0  0  0  0  0  0
   -2.5782   22.5409  -20.4214 C   0  0  0  0  0  0  0  0  0  0  0  0
   -2.4895   23.4697  -21.6009 C   0  0  0  0  0  0  0  0  0  0  0  0
   -3.5384   24.3806  -21.6505 O   0  0  0  0  0  0  0  0  0  0  0  0
 28 29  1  0  0  0
 29 30  1  0  0  0
 30 31  1  0  0  0
 31 32  1  0  0  0
 32 33  1  0  0  0
 33 34  1  0  0  0
 34 35  1  0  0  0
 35 36  1  0  0  0
 29 25  1  0  0  0
 25 26  2  0  0  0
 25 27  2  0  0  0
 25 23  1  0  0  0
 23  1  1  0  0  0
  1  2  2  0  0  0
  2  3  1  0  0  0
  3  4  2  0  0  0
  4  5  1  0  0  0
  5  6  2  0  0  0
  6  7  1  0  0  0
  7  8  2  0  0  0
  8  9  1  0  0  0
  9 10  2  0  0  0
 10 11  1  0  0  0
 11 12  2  0  0  0
 12 13  1  0  0  0
 13 14  2  0  0  0
 13 15  1  0  0  0
 15 16  2  0  0  0
 10 17  1  0  0  0
 17 18  1  0  0  0
 18 19  2  0  0  0
 19 20  1  0  0  0
 20 21  1  0  0  0
 20 22  1  0  0  0
 36 31  1  0  0  0
 16  1  1  0  0  0
 22 17  2  0  0  0
 15  4  1  0  0  0
 12  7  1  0  0  0
 23 24  1  0  0  0
M  END
> <minimizedAffinity>
-9.73664

> <CNNscore>
0.5448105335

> <CNNaffinity>
7.1277885437

> <CNN_VS>
3.8832943439

> <CNNaffinity_variance>
0.1611235738

$$$$
[H]c1nc2c([H])c([H])c3c([H])c([H])c(N([H])S(=O)(=O)N(C([H])([H])[H])C([H])([H])[C@@]4([H])OC([H])([H])C([H])([H])OC4([H])[H])c([H])c3c(=O)c2c([H])c1-c1c([H])nn(C([H])([H])[H])c1[H]


 36 40  0  0  0  0  0  0  0  0999 V2000
   -1.1672   21.3838  -20.3083 C   0  0  0  0  0  0  0  0  0  0  0  0
    0.1239   20.9175  -20.4291 C   0  0  0  0  0  0  0  0  0  0  0  0
    0.8102   20.9906  -21.6338 C   0  0  0  0  0  0  0  0  0  0  0  0
    0.2403   21.5278  -22.7594 C   0  0  0  0  0  0  0  0  0  0  0  0
    1.1047   21.5005  -23.8511 C   0  0  0  0  0  0  0  0  0  0  0  0
    0.7960   21.7465  -25.1886 C   0  0  0  0  0  0  0  0  0  0  0  0
   -0.4059   22.1561  -25.7287 C   0  0  0  0  0  0  0  0  0  0  0  0
   -0.4253   22.1894  -27.0658 N   0  0  0  0  0  0  0  0  0  0  0  0
   -1.5316   22.5693  -27.7295 C   0  0  0  0  0  0  0  0  0  0  0  0
   -2.7060   22.9461  -27.1129 C   0  0  0  0  0  0  0  0  0  0  0  0
   -2.7140   22.9209  -25.7188 C   0  0  0  0  0  0  0  0  0  0  0  0
   -1.5614   22.5259  -25.0724 C   0  0  0  0  0  0  0  0  0  0  0  0
   -1.7746   22.5691  -23.6907 C   0  0  0  0  0  0  0  0  0  0  0  0
   -2.7729   23.2192  -23.3061 O   0  0  0  0  0  0  0  0  0  0  0  0
   -1.0507   22.0013  -22.6655 C   0  0  0  0  0  0  0  0  0  0  0  0
   -1.7316   21.9290  -21.4698 C   0  0  0  0  0  0  0  0  0  0  0  0
   -3.8920   23.3536  -27.8491 C   0  0  0  0  0  0  0  0  0  0  0  0
   -5.1441   23.5062  -27.2949 C   0  0  0  0  0  0  0  0  0  0  0  0
   -5.9804   23.8904  -28.2749 N   0  0  0  0  0  0  0  0  0  0  0  0
   -5.3363   23.9920  -29.4222 N   0  0  0  0  0  0  0  0  0  0  0  0
   -5.9233   24.3865  -30.7080 C   0  0  0  0  0  0  0  0  0  0  0  0
   -4.0554   23.6666  -29.1794 C   0  0  0  0  0  0  0  0  0  0  0  0
   -1.9071   21.3258  -19.0984 N   0  0  0  0  0  0  0  0  0  0  0  0
   -2.2996   22.2395  -18.7504 H   0  0  0  0  0  0  0  0  0  0  0  0
   -2.1946   19.8931  -18.1894 S   0  0  0  0  0  0  0  0  0  0  0  0
   -1.3881   18.7434  -18.7199 O   0  0  0  0  0  0  0  0  0  0  0  0
   -3.6387   19.5213  -18.3741 O   0  0  0  0  0  0  0  0  0  0  0  0
   -2.2403   19.0359  -15.7042 C   0  0  0  0  0  0  0  0  0  0  0  0
   -1.7757   20.0890  -16.5463 N   0  0  0  0  0  0  0  0  0  0  0  0
   -1.8712   21.4069  -16.0379 C   0  0  0  0  0  0  0  0  0  0  0  0
   -3.2282   21.7765  -15.5060 C   0  0  0  0  0  0  0  0  0  0  0  0
   -3.8947   22.8422  -16.3508 C   0  0  0  0  0  0  0  0  0  0  0  0
   -5.2135   22.9142  -15.9762 O   0  0  0  0  0  0  0  0  0  0  0  0
   -5.2841   23.3388  -14.6633 C   0  0  0  0  0  0  0  0  0  0  0  0
   -4.4382   22.5193  -13.7280 C   0  0  0  0  0  0  0  0  0  0  0  0
   -3.1533   22.3025  -14.2122 O   0  0  0  0  0  0  0  0  0  0  0  0
 28 29  1  0  0  0
 29 30  1  0  0  0
 30 31  1  0  0  0
 31 32  1  0  0  0
 32 33  1  0  0  0
 33 34  1  0  0  0
 34 35  1  0  0  0
 35 36  1  0  0  0
 29 25  1  0  0  0
 25 26  2  0  0  0
 25 27  2  0  0  0
 25 23  1  0  0  0
 23  1  1  0  0  0
  1  2  2  0  0  0
  2  3  1  0  0  0
  3  4  2  0  0  0
  4  5  1  0  0  0
  5  6  2  0  0  0
  6  7  1  0  0  0
  7  8  2  0  0  0
  8  9  1  0  0  0
  9 10  2  0  0  0
 10 11  1  0  0  0
 11 12  2  0  0  0
 12 13  1  0  0  0
 13 14  2  0  0  0
 13 15  1  0  0  0
 15 16  2  0  0  0
 10 17  1  0  0  0
 17 18  1  0  0  0
 18 19  2  0  0  0
 19 20  1  0  0  0
 20 21  1  0  0  0
 20 22  1  0  0  0
 36 31  1  0  0  0
 16  1  1  0  0  0
 22 17  2  0  0  0
 15  4  1  0  0  0
 12  7  1  0  0  0
 23 24  1  0  0  0
M  END
> <minimizedAffinity>
-7.83752

> <CNNscore>
0.5132107735

> <CNNaffinity>
6.9082694054

> <CNN_VS>
3.5453982353

> <CNNaffinity_variance>
0.5054796934

$$$$
[H]c1nc2c([H])c([H])c3c([H])c([H])c(N([H])S(=O)(=O)N(C([H])([H])[H])C([H])([H])[C@@]4([H])OC([H])([H])C([H])([H])OC4([H])[H])c([H])c3c(=O)c2c([H])c1-c1c([H])nn(C([H])([H])[H])c1[H]


 36 40  0  0  0  0  0  0  0  0999 V2000
   -2.9272   21.9137  -21.0925 C   0  0  0  0  0  0  0  0  0  0  0  0
   -1.6884   21.3174  -20.9982 C   0  0  0  0  0  0  0  0  0  0  0  0
   -0.8043   21.3120  -22.0687 C   0  0  0  0  0  0  0  0  0  0  0  0
   -1.1179   21.8968  -23.2687 C   0  0  0  0  0  0  0  0  0  0  0  0
   -0.0884   21.7741  -24.1987 C   0  0  0  0  0  0  0  0  0  0  0  0
   -0.1396   22.0412  -25.5665 C   0  0  0  0  0  0  0  0  0  0  0  0
   -1.1848   22.5675  -26.2976 C   0  0  0  0  0  0  0  0  0  0  0  0
   -0.9741   22.5935  -27.6184 N   0  0  0  0  0  0  0  0  0  0  0  0
   -1.9077   23.0797  -28.4555 C   0  0  0  0  0  0  0  0  0  0  0  0
   -3.1250   23.5785  -28.0424 C   0  0  0  0  0  0  0  0  0  0  0  0
   -3.3715   23.5637  -26.6700 C   0  0  0  0  0  0  0  0  0  0  0  0
   -2.3911   23.0576  -25.8423 C   0  0  0  0  0  0  0  0  0  0  0  0
   -2.8297   23.1317  -24.5162 C   0  0  0  0  0  0  0  0  0  0  0  0
   -3.8073   23.8828  -24.2991 O   0  0  0  0  0  0  0  0  0  0  0  0
   -2.3512   22.5001  -23.3894 C   0  0  0  0  0  0  0  0  0  0  0  0
   -3.2285   22.5057  -22.3269 C   0  0  0  0  0  0  0  0  0  0  0  0
   -4.1217   24.0997  -28.9641 C   0  0  0  0  0  0  0  0  0  0  0  0
   -5.2965   23.4592  -29.2921 C   0  0  0  0  0  0  0  0  0  0  0  0
   -5.9572   24.2395  -30.1650 N   0  0  0  0  0  0  0  0  0  0  0  0
   -5.2736   25.3406  -30.4139 N   0  0  0  0  0  0  0  0  0  0  0  0
   -5.6825   26.4233  -31.3161 C   0  0  0  0  0  0  0  0  0  0  0  0
   -4.1462   25.2713  -29.6863 C   0  0  0  0  0  0  0  0  0  0  0  0
   -3.8633   21.9396  -20.0258 N   0  0  0  0  0  0  0  0  0  0  0  0
   -3.5437   21.5116  -19.1177 H   0  0  0  0  0  0  0  0  0  0  0  0
   -5.4455   22.6094  -20.1224 S   0  0  0  0  0  0  0  0  0  0  0  0
   -6.1090   22.2483  -21.4197 O   0  0  0  0  0  0  0  0  0  0  0  0
   -5.3055   24.1055  -20.1177 O   0  0  0  0  0  0  0  0  0  0  0  0
   -6.8784   20.6931  -19.0324 C   0  0  0  0  0  0  0  0  0  0  0  0
   -6.4521   22.0439  -18.8651 N   0  0  0  0  0  0  0  0  0  0  0  0
   -7.4126   22.9649  -18.3818 C   0  0  0  0  0  0  0  0  0  0  0  0
   -8.7619   22.8651  -19.0378 C   0  0  0  0  0  0  0  0  0  0  0  0
   -9.0265   24.0326  -19.9654 C   0  0  0  0  0  0  0  0  0  0  0  0
  -10.1280   23.7267  -20.7256 O   0  0  0  0  0  0  0  0  0  0  0  0
  -11.2275   23.6141  -19.8965 C   0  0  0  0  0  0  0  0  0  0  0  0
  -11.0101   22.6691  -18.7469 C   0  0  0  0  0  0  0  0  0  0  0  0
   -9.7982   22.8778  -18.0986 O   0  0  0  0  0  0  0  0  0  0  0  0
 28 29  1  0  0  0
 29 30  1  0  0  0
 30 31  1  0  0  0
 31 32  1  0  0  0
 32 33  1  0  0  0
 33 34  1  0  0  0
 34 35  1  0  0  0
 35 36  1  0  0  0
 29 25  1  0  0  0
 25 26  2  0  0  0
 25 27  2  0  0  0
 25 23  1  0  0  0
 23  1  1  0  0  0
  1  2  2  0  0  0
  2  3  1  0  0  0
  3  4  2  0  0  0
  4  5  1  0  0  0
  5  6  2  0  0  0
  6  7  1  0  0  0
  7  8  2  0  0  0
  8  9  1  0  0  0
  9 10  2  0  0  0
 10 11  1  0  0  0
 11 12  2  0  0  0
 12 13  1  0  0  0
 13 14  2  0  0  0
 13 15  1  0  0  0
 15 16  2  0  0  0
 10 17  1  0  0  0
 17 18  1  0  0  0
 18 19  2  0  0  0
 19 20  1  0  0  0
 20 21  1  0  0  0
 20 22  1  0  0  0
 36 31  1  0  0  0
 16  1  1  0  0  0
 22 17  2  0  0  0
 15  4  1  0  0  0
 12  7  1  0  0  0
 23 24  1  0  0  0
M  END
> <minimizedAffinity>
-9.27761

> <CNNscore>
0.4337351918

> <CNNaffinity>
7.0206260681

> <CNN_VS>
3.0450925827

> <CNNaffinity_variance>
0.3048138320

$$$$
[H]c1nc2c([H])c([H])c3c([H])c([H])c(N([H])S(=O)(=O)N(C([H])([H])[H])C([H])([H])[C@@]4([H])OC([H])([H])C([H])([H])OC4([H])[H])c([H])c3c(=O)c2c([H])c1-c1c([H])nn(C([H])([H])[H])c1[H]


 36 40  0  0  0  0  0  0  0  0999 V2000
   -6.3313   23.9634  -25.7562 C   0  0  0  0  0  0  0  0  0  0  0  0
   -6.2547   24.3010  -27.0901 C   0  0  0  0  0  0  0  0  0  0  0  0
   -5.1225   24.0216  -27.8436 C   0  0  0  0  0  0  0  0  0  0  0  0
   -4.0280   23.3987  -27.3009 C   0  0  0  0  0  0  0  0  0  0  0  0
   -3.0094   23.2177  -28.2334 C   0  0  0  0  0  0  0  0  0  0  0  0
   -1.6907   22.8344  -27.9910 C   0  0  0  0  0  0  0  0  0  0  0  0
   -1.1131   22.4634  -26.7941 C   0  0  0  0  0  0  0  0  0  0  0  0
    0.2085   22.2663  -26.8587 N   0  0  0  0  0  0  0  0  0  0  0  0
    0.9048   21.9012  -25.7676 C   0  0  0  0  0  0  0  0  0  0  0  0
    0.3390   21.7038  -24.5258 C   0  0  0  0  0  0  0  0  0  0  0  0
   -1.0379   21.9023  -24.4293 C   0  0  0  0  0  0  0  0  0  0  0  0
   -1.7188   22.2763  -25.5690 C   0  0  0  0  0  0  0  0  0  0  0  0
   -3.0758   22.4229  -25.2632 C   0  0  0  0  0  0  0  0  0  0  0  0
   -3.4574   21.9117  -24.1861 O   0  0  0  0  0  0  0  0  0  0  0  0
   -4.0789   23.0506  -25.9683 C   0  0  0  0  0  0  0  0  0  0  0  0
   -5.2026   23.3277  -25.2206 C   0  0  0  0  0  0  0  0  0  0  0  0
    1.1098   21.3092  -23.3575 C   0  0  0  0  0  0  0  0  0  0  0  0
    2.4695   21.0874  -23.3544 C   0  0  0  0  0  0  0  0  0  0  0  0
    2.8241   20.7423  -22.1044 N   0  0  0  0  0  0  0  0  0  0  0  0
    1.7711   20.7306  -21.3090 N   0  0  0  0  0  0  0  0  0  0  0  0
    1.7749   20.4011  -19.8791 C   0  0  0  0  0  0  0  0  0  0  0  0
    0.7121   21.0756  -22.0606 C   0  0  0  0  0  0  0  0  0  0  0  0
   -7.4663   24.2329  -24.9477 N   0  0  0  0  0  0  0  0  0  0  0  0
   -8.4047   24.0418  -25.3869 H   0  0  0  0  0  0  0  0  0  0  0  0
   -7.4052   24.8366  -23.3373 S   0  0  0  0  0  0  0  0  0  0  0  0
   -8.3872   25.9547  -23.1397 O   0  0  0  0  0  0  0  0  0  0  0  0
   -6.0397   25.4269  -23.1260 O   0  0  0  0  0  0  0  0  0  0  0  0
   -8.3971   24.1276  -21.0077 C   0  0  0  0  0  0  0  0  0  0  0  0
   -7.7784   23.6276  -22.1915 N   0  0  0  0  0  0  0  0  0  0  0  0
   -6.8063   22.6114  -22.0276 C   0  0  0  0  0  0  0  0  0  0  0  0
   -6.0175   22.6991  -20.7505 C   0  0  0  0  0  0  0  0  0  0  0  0
   -4.5337   22.8510  -21.0127 C   0  0  0  0  0  0  0  0  0  0  0  0
   -3.9304   23.2054  -19.8314 O   0  0  0  0  0  0  0  0  0  0  0  0
   -4.0755   22.1717  -18.9262 C   0  0  0  0  0  0  0  0  0  0  0  0
   -5.5013   21.7227  -18.7611 C   0  0  0  0  0  0  0  0  0  0  0  0
   -6.1546   21.5432  -19.9750 O   0  0  0  0  0  0  0  0  0  0  0  0
 28 29  1  0  0  0
 29 30  1  0  0  0
 30 31  1  0  0  0
 31 32  1  0  0  0
 32 33  1  0  0  0
 33 34  1  0  0  0
 34 35  1  0  0  0
 35 36  1  0  0  0
 29 25  1  0  0  0
 25 26  2  0  0  0
 25 27  2  0  0  0
 25 23  1  0  0  0
 23  1  1  0  0  0
  1  2  2  0  0  0
  2  3  1  0  0  0
  3  4  2  0  0  0
  4  5  1  0  0  0
  5  6  2  0  0  0
  6  7  1  0  0  0
  7  8  2  0  0  0
  8  9  1  0  0  0
  9 10  2  0  0  0
 10 11  1  0  0  0
 11 12  2  0  0  0
 12 13  1  0  0  0
 13 14  2  0  0  0
 13 15  1  0  0  0
 15 16  2  0  0  0
 10 17  1  0  0  0
 17 18  1  0  0  0
 18 19  2  0  0  0
 19 20  1  0  0  0
 20 21  1  0  0  0
 20 22  1  0  0  0
 36 31  1  0  0  0
 16  1  1  0  0  0
 22 17  2  0  0  0
 15  4  1  0  0  0
 12  7  1  0  0  0
 23 24  1  0  0  0
M  END
> <minimizedAffinity>
-9.22446

> <CNNscore>
0.4302228987

> <CNNaffinity>
6.9904227257

> <CNN_VS>
3.0074398518

> <CNNaffinity_variance>
0.1686803252

$$$$
[H]c1nc(N([H])[H])c(-c2nn(-c3c([H])c(OC([H])([H])[H])c([H])c(OC([H])([H])[H])c3[H])c(=O)c(C3([H])C([H])([H])C3([H])[H])c2[H])nc1-c1c([H])nn(C([H])([H])[H])c1[H]


 35 39  0  0  0  0  0  0  0  0999 V2000
   -0.7828   21.5710  -22.6922 N   0  0  0  0  0  0  0  0  0  0  0  0
   -0.7446   21.5640  -24.0550 N   0  0  0  0  0  0  0  0  0  0  0  0
   -1.5981   22.3396  -24.7116 C   0  0  0  0  0  0  0  0  0  0  0  0
   -2.4993   23.1130  -24.0674 C   0  0  0  0  0  0  0  0  0  0  0  0
   -2.5874   23.1616  -22.6702 C   0  0  0  0  0  0  0  0  0  0  0  0
   -1.6532   22.3270  -22.0491 C   0  0  0  0  0  0  0  0  0  0  0  0
   -1.6645   22.3161  -20.7893 O   0  0  0  0  0  0  0  0  0  0  0  0
   -1.4427   22.5424  -26.1785 C   0  0  0  0  0  0  0  0  0  0  0  0
   -2.5261   22.8085  -26.9237 N   0  0  0  0  0  0  0  0  0  0  0  0
   -2.3644   23.1599  -28.2342 C   0  0  0  0  0  0  0  0  0  0  0  0
   -1.0921   23.2131  -28.7290 C   0  0  0  0  0  0  0  0  0  0  0  0
    0.0069   22.9423  -27.9992 N   0  0  0  0  0  0  0  0  0  0  0  0
   -0.1762   22.5987  -26.6849 C   0  0  0  0  0  0  0  0  0  0  0  0
    0.9412   22.2884  -25.8608 N   0  0  0  0  0  0  0  0  0  0  0  0
    1.1777   21.2907  -25.7040 H   0  0  0  0  0  0  0  0  0  0  0  0
    1.5596   22.9987  -25.4002 H   0  0  0  0  0  0  0  0  0  0  0  0
   -3.5337   23.5628  -29.0125 C   0  0  0  0  0  0  0  0  0  0  0  0
   -4.6926   22.9087  -29.3010 C   0  0  0  0  0  0  0  0  0  0  0  0
   -5.4744   23.7622  -29.9646 N   0  0  0  0  0  0  0  0  0  0  0  0
   -4.9029   24.9396  -30.1279 N   0  0  0  0  0  0  0  0  0  0  0  0
   -5.5229   26.0894  -30.8082 C   0  0  0  0  0  0  0  0  0  0  0  0
   -3.6856   24.8663  -29.5523 C   0  0  0  0  0  0  0  0  0  0  0  0
    2.4750   20.0710  -21.8193 C   0  0  0  0  0  0  0  0  0  0  0  0
    2.0575   19.1005  -20.9598 C   0  0  0  0  0  0  0  0  0  0  0  0
    0.7149   18.9179  -20.6053 C   0  0  0  0  0  0  0  0  0  0  0  0
   -0.2174   19.7637  -21.1612 C   0  0  0  0  0  0  0  0  0  0  0  0
    0.1688   20.7533  -22.0365 C   0  0  0  0  0  0  0  0  0  0  0  0
    1.5085   20.9023  -22.3573 C   0  0  0  0  0  0  0  0  0  0  0  0
    4.7645   19.3328  -21.8016 C   0  0  0  0  0  0  0  0  0  0  0  0
    3.7898   20.2818  -22.1893 O   0  0  0  0  0  0  0  0  0  0  0  0
    0.3864   17.9033  -19.7197 O   0  0  0  0  0  0  0  0  0  0  0  0
   -0.0700   16.6544  -20.1939 C   0  0  0  0  0  0  0  0  0  0  0  0
   -3.4408   24.1256  -22.0109 C   0  0  0  0  0  0  0  0  0  0  0  0
   -4.2013   25.1220  -22.8392 C   0  0  0  0  0  0  0  0  0  0  0  0
   -4.8595   24.2195  -21.8192 C   0  0  0  0  0  0  0  0  0  0  0  0
 29 30  1  0  0  0
 30 23  1  0  0  0
 23 24  2  0  0  0
 24 25  1  0  0  0
 25 31  1  0  0  0
 31 32  1  0  0  0
 25 26  2  0  0  0
 26 27  1  0  0  0
 27 28  2  0  0  0
 27  1  1  0  0  0
  1  2  1  0  0  0
  2  3  2  0  0  0
  3  4  1  0  0  0
  4  5  2  0  0  0
  5 33  1  0  0  0
 33 34  1  0  0  0
 34 35  1  0  0  0
  5  6  1  0  0  0
  6  7  2  0  0  0
  3  8  1  0  0  0
  8  9  2  0  0  0
  9 10  1  0  0  0
 10 11  2  0  0  0
 11 12  1  0  0  0
 12 13  2  0  0  0
 13 14  1  0  0  0
 10 17  1  0  0  0
 17 18  1  0  0  0
 18 19  2  0  0  0
 19 20  1  0  0  0
 20 21  1  0  0  0
 20 22  1  0  0  0
 28 23  1  0  0  0
  6  1  1  0  0  0
 13  8  1  0  0  0
 22 17  2  0  0  0
 35 33  1  0  0  0
 14 15  1  0  0  0
 14 16  1  0  0  0
M  END
> <minimizedAffinity>
-8.28481

> <CNNscore>
0.9048607349

> <CNNaffinity>
7.6800484657

> <CNN_VS>
6.9493741989

> <CNNaffinity_variance>
0.0888120309

$$$$
[H]c1nc(N([H])[H])c(-c2nn(-c3c([H])c(OC([H])([H])[H])c([H])c(OC([H])([H])[H])c3[H])c(=O)c(C3([H])C([H])([H])C3([H])[H])c2[H])nc1-c1c([H])nn(C([H])([H])[H])c1[H]


 35 39  0  0  0  0  0  0  0  0999 V2000
   -3.0162   22.4286  -22.7822 N   0  0  0  0  0  0  0  0  0  0  0  0
   -2.8298   22.7787  -24.0865 N   0  0  0  0  0  0  0  0  0  0  0  0
   -1.6688   22.4824  -24.6570 C   0  0  0  0  0  0  0  0  0  0  0  0
   -0.6782   21.8634  -23.9781 C   0  0  0  0  0  0  0  0  0  0  0  0
   -0.8099   21.4805  -22.6371 C   0  0  0  0  0  0  0  0  0  0  0  0
   -2.0598   21.8169  -22.1083 C   0  0  0  0  0  0  0  0  0  0  0  0
   -2.2602   21.5023  -20.9049 O   0  0  0  0  0  0  0  0  0  0  0  0
   -1.5031   22.6325  -26.1291 C   0  0  0  0  0  0  0  0  0  0  0  0
   -2.5784   22.8909  -26.8886 N   0  0  0  0  0  0  0  0  0  0  0  0
   -2.4047   23.1947  -28.2095 C   0  0  0  0  0  0  0  0  0  0  0  0
   -1.1293   23.2102  -28.6990 C   0  0  0  0  0  0  0  0  0  0  0  0
   -0.0385   22.9465  -27.9547 N   0  0  0  0  0  0  0  0  0  0  0  0
   -0.2335   22.6509  -26.6305 C   0  0  0  0  0  0  0  0  0  0  0  0
    0.8748   22.3505  -25.7904 N   0  0  0  0  0  0  0  0  0  0  0  0
    1.0940   21.3550  -25.5986 H   0  0  0  0  0  0  0  0  0  0  0  0
    1.5027   23.0659  -25.3509 H   0  0  0  0  0  0  0  0  0  0  0  0
   -3.5635   23.5899  -29.0072 C   0  0  0  0  0  0  0  0  0  0  0  0
   -4.7034   22.9203  -29.3330 C   0  0  0  0  0  0  0  0  0  0  0  0
   -5.4858   23.7709  -29.9995 N   0  0  0  0  0  0  0  0  0  0  0  0
   -4.9325   24.9610  -30.1299 N   0  0  0  0  0  0  0  0  0  0  0  0
   -5.5581   26.1112  -30.8044 C   0  0  0  0  0  0  0  0  0  0  0  0
   -3.7272   24.8997  -29.5281 C   0  0  0  0  0  0  0  0  0  0  0  0
   -5.6717   24.3290  -21.0614 C   0  0  0  0  0  0  0  0  0  0  0  0
   -6.6269   23.3620  -20.9758 C   0  0  0  0  0  0  0  0  0  0  0  0
   -6.4611   22.0738  -21.5000 C   0  0  0  0  0  0  0  0  0  0  0  0
   -5.2707   21.7832  -22.1263 C   0  0  0  0  0  0  0  0  0  0  0  0
   -4.2821   22.7354  -22.2278 C   0  0  0  0  0  0  0  0  0  0  0  0
   -4.4887   23.9993  -21.6988 C   0  0  0  0  0  0  0  0  0  0  0  0
   -7.0825   26.0538  -20.1546 C   0  0  0  0  0  0  0  0  0  0  0  0
   -5.8015   25.6098  -20.5586 O   0  0  0  0  0  0  0  0  0  0  0  0
   -7.4919   21.1568  -21.3664 O   0  0  0  0  0  0  0  0  0  0  0  0
   -8.6262   21.4588  -20.5820 C   0  0  0  0  0  0  0  0  0  0  0  0
    0.1982   20.6681  -21.9922 C   0  0  0  0  0  0  0  0  0  0  0  0
    1.6417   20.8549  -22.3643 C   0  0  0  0  0  0  0  0  0  0  0  0
    1.1399   20.9158  -20.9387 C   0  0  0  0  0  0  0  0  0  0  0  0
 29 30  1  0  0  0
 30 23  1  0  0  0
 23 24  2  0  0  0
 24 25  1  0  0  0
 25 31  1  0  0  0
 31 32  1  0  0  0
 25 26  2  0  0  0
 26 27  1  0  0  0
 27 28  2  0  0  0
 27  1  1  0  0  0
  1  2  1  0  0  0
  2  3  2  0  0  0
  3  4  1  0  0  0
  4  5  2  0  0  0
  5 33  1  0  0  0
 33 34  1  0  0  0
 34 35  1  0  0  0
  5  6  1  0  0  0
  6  7  2  0  0  0
  3  8  1  0  0  0
  8  9  2  0  0  0
  9 10  1  0  0  0
 10 11  2  0  0  0
 11 12  1  0  0  0
 12 13  2  0  0  0
 13 14  1  0  0  0
 10 17  1  0  0  0
 17 18  1  0  0  0
 18 19  2  0  0  0
 19 20  1  0  0  0
 20 21  1  0  0  0
 20 22  1  0  0  0
 28 23  1  0  0  0
  6  1  1  0  0  0
 13  8  1  0  0  0
 22 17  2  0  0  0
 35 33  1  0  0  0
 14 15  1  0  0  0
 14 16  1  0  0  0
M  END
> <minimizedAffinity>
-8.71784

> <CNNscore>
0.8862060905

> <CNNaffinity>
7.7031021118

> <CNN_VS>
6.8265361786

> <CNNaffinity_variance>
0.0323932283

$$$$
[H]c1nc(N([H])[H])c(-c2nn(-c3c([H])c(OC([H])([H])[H])c([H])c(OC([H])([H])[H])c3[H])c(=O)c(C3([H])C([H])([H])C3([H])[H])c2[H])nc1-c1c([H])nn(C([H])([H])[H])c1[H]


 35 39  0  0  0  0  0  0  0  0999 V2000
   -5.5865   23.3297  -25.4507 N   0  0  0  0  0  0  0  0  0  0  0  0
   -4.2774   22.9751  -25.3123 N   0  0  0  0  0  0  0  0  0  0  0  0
   -3.5284   22.8978  -26.4051 C   0  0  0  0  0  0  0  0  0  0  0  0
   -4.0324   23.1455  -27.6338 C   0  0  0  0  0  0  0  0  0  0  0  0
   -5.3686   23.5125  -27.8394 C   0  0  0  0  0  0  0  0  0  0  0  0
   -6.0910   23.5816  -26.6444 C   0  0  0  0  0  0  0  0  0  0  0  0
   -7.3034   23.9099  -26.7427 O   0  0  0  0  0  0  0  0  0  0  0  0
   -2.0522   22.7439  -26.2862 C   0  0  0  0  0  0  0  0  0  0  0  0
   -1.5182   22.4250  -25.0975 N   0  0  0  0  0  0  0  0  0  0  0  0
   -0.1884   22.1194  -25.0239 C   0  0  0  0  0  0  0  0  0  0  0  0
    0.5421   22.1644  -26.1775 C   0  0  0  0  0  0  0  0  0  0  0  0
    0.0261   22.4894  -27.3782 N   0  0  0  0  0  0  0  0  0  0  0  0
   -1.3112   22.7858  -27.4319 C   0  0  0  0  0  0  0  0  0  0  0  0
   -1.9178   23.1490  -28.6666 N   0  0  0  0  0  0  0  0  0  0  0  0
   -2.0646   24.1560  -28.8677 H   0  0  0  0  0  0  0  0  0  0  0  0
   -2.2242   22.4701  -29.4044 H   0  0  0  0  0  0  0  0  0  0  0  0
    0.3669   21.6592  -23.7531 C   0  0  0  0  0  0  0  0  0  0  0  0
   -0.2334   21.3073  -22.5826 C   0  0  0  0  0  0  0  0  0  0  0  0
    0.7227   20.8637  -21.7648 N   0  0  0  0  0  0  0  0  0  0  0  0
    1.9158   20.8986  -22.3259 N   0  0  0  0  0  0  0  0  0  0  0  0
    3.1641   20.4607  -21.6783 C   0  0  0  0  0  0  0  0  0  0  0  0
    1.7483   21.3911  -23.5701 C   0  0  0  0  0  0  0  0  0  0  0  0
   -7.3493   24.8588  -22.5908 C   0  0  0  0  0  0  0  0  0  0  0  0
   -7.6238   23.7393  -21.8655 C   0  0  0  0  0  0  0  0  0  0  0  0
   -7.2805   22.4493  -22.2895 C   0  0  0  0  0  0  0  0  0  0  0  0
   -6.6324   22.3208  -23.4966 C   0  0  0  0  0  0  0  0  0  0  0  0
   -6.3361   23.4312  -24.2540 C   0  0  0  0  0  0  0  0  0  0  0  0
   -6.6973   24.6893  -23.7994 C   0  0  0  0  0  0  0  0  0  0  0  0
   -8.1483   26.3606  -20.8897 C   0  0  0  0  0  0  0  0  0  0  0  0
   -7.6750   26.1455  -22.2053 O   0  0  0  0  0  0  0  0  0  0  0  0
   -7.6042   21.3692  -21.4832 O   0  0  0  0  0  0  0  0  0  0  0  0
   -8.4204   21.5409  -20.3443 C   0  0  0  0  0  0  0  0  0  0  0  0
   -5.8318   23.9385  -29.1419 C   0  0  0  0  0  0  0  0  0  0  0  0
   -5.0116   24.9208  -29.9288 C   0  0  0  0  0  0  0  0  0  0  0  0
   -5.4638   23.5882  -30.4834 C   0  0  0  0  0  0  0  0  0  0  0  0
 29 30  1  0  0  0
 30 23  1  0  0  0
 23 24  2  0  0  0
 24 25  1  0  0  0
 25 31  1  0  0  0
 31 32  1  0  0  0
 25 26  2  0  0  0
 26 27  1  0  0  0
 27 28  2  0  0  0
 27  1  1  0  0  0
  1  2  1  0  0  0
  2  3  2  0  0  0
  3  4  1  0  0  0
  4  5  2  0  0  0
  5 33  1  0  0  0
 33 34  1  0  0  0
 34 35  1  0  0  0
  5  6  1  0  0  0
  6  7  2  0  0  0
  3  8  1  0  0  0
  8  9  2  0  0  0
  9 10  1  0  0  0
 10 11  2  0  0  0
 11 12  1  0  0  0
 12 13  2  0  0  0
 13 14  1  0  0  0
 10 17  1  0  0  0
 17 18  1  0  0  0
 18 19  2  0  0  0
 19 20  1  0  0  0
 20 21  1  0  0  0
 20 22  1  0  0  0
 28 23  1  0  0  0
  6  1  1  0  0  0
 13  8  1  0  0  0
 22 17  2  0  0  0
 35 33  1  0  0  0
 14 15  1  0  0  0
 14 16  1  0  0  0
M  END
> <minimizedAffinity>
-9.73926

> <CNNscore>
0.8424442410

> <CNNaffinity>
7.8187775612

> <CNN_VS>
6.5868840218

> <CNNaffinity_variance>
0.2145689726

$$$$
[H]c1nc(N([H])[H])c(-c2nn(-c3c([H])c(OC([H])([H])[H])c([H])c(OC([H])([H])[H])c3[H])c(=O)c(C3([H])C([H])([H])C3([H])[H])c2[H])nc1-c1c([H])nn(C([H])([H])[H])c1[H]


 35 39  0  0  0  0  0  0  0  0999 V2000
   -5.5065   23.4446  -25.3576 N   0  0  0  0  0  0  0  0  0  0  0  0
   -4.2009   23.0714  -25.2352 N   0  0  0  0  0  0  0  0  0  0  0  0
   -3.4839   22.9212  -26.3418 C   0  0  0  0  0  0  0  0  0  0  0  0
   -4.0168   23.1137  -27.5683 C   0  0  0  0  0  0  0  0  0  0  0  0
   -5.3510   23.4963  -27.7577 C   0  0  0  0  0  0  0  0  0  0  0  0
   -6.0388   23.6432  -26.5493 C   0  0  0  0  0  0  0  0  0  0  0  0
   -7.2471   23.9903  -26.6328 O   0  0  0  0  0  0  0  0  0  0  0  0
   -2.0081   22.7439  -26.2541 C   0  0  0  0  0  0  0  0  0  0  0  0
   -1.4521   22.4369  -25.0724 N   0  0  0  0  0  0  0  0  0  0  0  0
   -0.1263   22.1096  -25.0239 C   0  0  0  0  0  0  0  0  0  0  0  0
    0.5778   22.1217  -26.1945 C   0  0  0  0  0  0  0  0  0  0  0  0
    0.0396   22.4343  -27.3887 N   0  0  0  0  0  0  0  0  0  0  0  0
   -1.2934   22.7528  -27.4171 C   0  0  0  0  0  0  0  0  0  0  0  0
   -1.9223   23.1046  -28.6438 N   0  0  0  0  0  0  0  0  0  0  0  0
   -2.0567   24.1102  -28.8597 H   0  0  0  0  0  0  0  0  0  0  0  0
   -2.2572   22.4182  -29.3621 H   0  0  0  0  0  0  0  0  0  0  0  0
    0.4505   21.6623  -23.7580 C   0  0  0  0  0  0  0  0  0  0  0  0
   -0.1273   21.3517  -22.5648 C   0  0  0  0  0  0  0  0  0  0  0  0
    0.8385   20.9007  -21.7624 N   0  0  0  0  0  0  0  0  0  0  0  0
    2.0167   20.8921  -22.3551 N   0  0  0  0  0  0  0  0  0  0  0  0
    3.2701   20.4354  -21.7307 C   0  0  0  0  0  0  0  0  0  0  0  0
    1.8289   21.3619  -23.6051 C   0  0  0  0  0  0  0  0  0  0  0  0
   -7.3756   22.6111  -22.2857 C   0  0  0  0  0  0  0  0  0  0  0  0
   -7.7552   23.8616  -21.9020 C   0  0  0  0  0  0  0  0  0  0  0  0
   -7.3931   25.0197  -22.6014 C   0  0  0  0  0  0  0  0  0  0  0  0
   -6.6194   24.8735  -23.7300 C   0  0  0  0  0  0  0  0  0  0  0  0
   -6.2207   23.6245  -24.1487 C   0  0  0  0  0  0  0  0  0  0  0  0
   -6.5977   22.5045  -23.4251 C   0  0  0  0  0  0  0  0  0  0  0  0
   -8.4902   21.5406  -20.4421 C   0  0  0  0  0  0  0  0  0  0  0  0
   -7.7117   21.4478  -21.6196 O   0  0  0  0  0  0  0  0  0  0  0  0
   -7.8255   26.2502  -22.1319 O   0  0  0  0  0  0  0  0  0  0  0  0
   -8.2843   26.3929  -20.8045 C   0  0  0  0  0  0  0  0  0  0  0  0
   -5.8419   23.8621  -29.0683 C   0  0  0  0  0  0  0  0  0  0  0  0
   -5.0768   24.8629  -29.8869 C   0  0  0  0  0  0  0  0  0  0  0  0
   -5.4631   23.4942  -30.4021 C   0  0  0  0  0  0  0  0  0  0  0  0
 29 30  1  0  0  0
 30 23  1  0  0  0
 23 24  2  0  0  0
 24 25  1  0  0  0
 25 31  1  0  0  0
 31 32  1  0  0  0
 25 26  2  0  0  0
 26 27  1  0  0  0
 27 28  2  0  0  0
 27  1  1  0  0  0
  1  2  1  0  0  0
  2  3  2  0  0  0
  3  4  1  0  0  0
  4  5  2  0  0  0
  5 33  1  0  0  0
 33 34  1  0  0  0
 34 35  1  0  0  0
  5  6  1  0  0  0
  6  7  2  0  0  0
  3  8  1  0  0  0
  8  9  2  0  0  0
  9 10  1  0  0  0
 10 11  2  0  0  0
 11 12  1  0  0  0
 12 13  2  0  0  0
 13 14  1  0  0  0
 10 17  1  0  0  0
 17 18  1  0  0  0
 18 19  2  0  0  0
 19 20  1  0  0  0
 20 21  1  0  0  0
 20 22  1  0  0  0
 28 23  1  0  0  0
  6  1  1  0  0  0
 13  8  1  0  0  0
 22 17  2  0  0  0
 35 33  1  0  0  0
 14 15  1  0  0  0
 14 16  1  0  0  0
M  END
> <minimizedAffinity>
-9.72136

> <CNNscore>
0.8206241131

> <CNNaffinity>
7.7917623520

> <CNN_VS>
6.3941082954

> <CNNaffinity_variance>
0.2468282729

$$$$
[H]c1nc(N([H])[H])c(-c2nn(-c3c([H])c(OC([H])([H])[H])c([H])c(OC([H])([H])[H])c3[H])c(=O)c(C3([H])C([H])([H])C3([H])[H])c2[H])nc1-c1c([H])nn(C([H])([H])[H])c1[H]


 35 39  0  0  0  0  0  0  0  0999 V2000
   -3.6576   23.1596  -25.3281 N   0  0  0  0  0  0  0  0  0  0  0  0
   -4.4134   23.1937  -24.1939 N   0  0  0  0  0  0  0  0  0  0  0  0
   -5.6794   23.5792  -24.2937 C   0  0  0  0  0  0  0  0  0  0  0  0
   -6.2218   23.9464  -25.4753 C   0  0  0  0  0  0  0  0  0  0  0  0
   -5.4958   23.9334  -26.6733 C   0  0  0  0  0  0  0  0  0  0  0  0
   -4.1762   23.5088  -26.4909 C   0  0  0  0  0  0  0  0  0  0  0  0
   -3.4557   23.4651  -27.5235 O   0  0  0  0  0  0  0  0  0  0  0  0
   -6.6015   23.4124  -23.1366 C   0  0  0  0  0  0  0  0  0  0  0  0
   -7.3522   24.4509  -22.7393 N   0  0  0  0  0  0  0  0  0  0  0  0
   -8.3165   24.2531  -21.7916 C   0  0  0  0  0  0  0  0  0  0  0  0
   -8.4627   22.9939  -21.2822 C   0  0  0  0  0  0  0  0  0  0  0  0
   -7.7143   21.9409  -21.6625 N   0  0  0  0  0  0  0  0  0  0  0  0
   -6.7572   22.1586  -22.6194 C   0  0  0  0  0  0  0  0  0  0  0  0
   -5.9236   21.0923  -23.0579 N   0  0  0  0  0  0  0  0  0  0  0  0
   -4.9721   21.0103  -22.6531 H   0  0  0  0  0  0  0  0  0  0  0  0
   -6.2022   20.3663  -23.7610 H   0  0  0  0  0  0  0  0  0  0  0  0
   -9.2104   25.3558  -21.4448 C   0  0  0  0  0  0  0  0  0  0  0  0
   -9.4580   25.9753  -20.2578 C   0  0  0  0  0  0  0  0  0  0  0  0
  -10.2866   26.9909  -20.5063 N   0  0  0  0  0  0  0  0  0  0  0  0
  -10.5975   27.0805  -21.7849 N   0  0  0  0  0  0  0  0  0  0  0  0
  -11.4794   28.1065  -22.3672 C   0  0  0  0  0  0  0  0  0  0  0  0
   -9.9517   26.0785  -22.4153 C   0  0  0  0  0  0  0  0  0  0  0  0
   -0.5702   21.9750  -23.6882 C   0  0  0  0  0  0  0  0  0  0  0  0
    0.2795   22.0024  -24.7521 C   0  0  0  0  0  0  0  0  0  0  0  0
   -0.1214   22.3710  -26.0425 C   0  0  0  0  0  0  0  0  0  0  0  0
   -1.4384   22.7230  -26.2304 C   0  0  0  0  0  0  0  0  0  0  0  0
   -2.3238   22.7100  -25.1767 C   0  0  0  0  0  0  0  0  0  0  0  0
   -1.8866   22.3349  -23.9165 C   0  0  0  0  0  0  0  0  0  0  0  0
   -1.2297   21.4347  -21.4386 C   0  0  0  0  0  0  0  0  0  0  0  0
   -0.2107   21.6147  -22.4033 O   0  0  0  0  0  0  0  0  0  0  0  0
    0.8159   22.3660  -27.0638 O   0  0  0  0  0  0  0  0  0  0  0  0
    0.4541   22.7475  -28.3739 C   0  0  0  0  0  0  0  0  0  0  0  0
   -6.1498   24.1638  -27.9428 C   0  0  0  0  0  0  0  0  0  0  0  0
   -5.9170   25.4603  -28.6651 C   0  0  0  0  0  0  0  0  0  0  0  0
   -5.7066   24.1064  -29.3060 C   0  0  0  0  0  0  0  0  0  0  0  0
 29 30  1  0  0  0
 30 23  1  0  0  0
 23 24  2  0  0  0
 24 25  1  0  0  0
 25 31  1  0  0  0
 31 32  1  0  0  0
 25 26  2  0  0  0
 26 27  1  0  0  0
 27 28  2  0  0  0
 27  1  1  0  0  0
  1  2  1  0  0  0
  2  3  2  0  0  0
  3  4  1  0  0  0
  4  5  2  0  0  0
  5 33  1  0  0  0
 33 34  1  0  0  0
 34 35  1  0  0  0
  5  6  1  0  0  0
  6  7  2  0  0  0
  3  8  1  0  0  0
  8  9  2  0  0  0
  9 10  1  0  0  0
 10 11  2  0  0  0
 11 12  1  0  0  0
 12 13  2  0  0  0
 13 14  1  0  0  0
 10 17  1  0  0  0
 17 18  1  0  0  0
 18 19  2  0  0  0
 19 20  1  0  0  0
 20 21  1  0  0  0
 20 22  1  0  0  0
 28 23  1  0  0  0
  6  1  1  0  0  0
 13  8  1  0  0  0
 22 17  2  0  0  0
 35 33  1  0  0  0
 14 15  1  0  0  0
 14 16  1  0  0  0
M  END
> <minimizedAffinity>
-8.11807

> <CNNscore>
0.2033989429

> <CNNaffinity>
6.9099869728

> <CNN_VS>
1.4054840803

> <CNNaffinity_variance>
0.1584048122

$$$$
[H]c1nc(N([H])[H])c(-c2nn(-c3c([H])c(OC([H])([H])[H])c([H])c(OC([H])([H])[H])c3[H])c(=O)c(C3([H])C([H])([H])C3([H])[H])c2[H])nc1-c1c([H])nn(C([H])([H])[H])c1[H]


 35 39  0  0  0  0  0  0  0  0999 V2000
   -4.5806   23.1919  -24.0725 N   0  0  0  0  0  0  0  0  0  0  0  0
   -3.4676   22.6426  -23.5086 N   0  0  0  0  0  0  0  0  0  0  0  0
   -2.4247   22.3932  -24.2905 C   0  0  0  0  0  0  0  0  0  0  0  0
   -2.4484   22.6553  -25.6156 C   0  0  0  0  0  0  0  0  0  0  0  0
   -3.5624   23.2178  -26.2519 C   0  0  0  0  0  0  0  0  0  0  0  0
   -4.6156   23.4600  -25.3648 C   0  0  0  0  0  0  0  0  0  0  0  0
   -5.6561   23.9703  -25.8589 O   0  0  0  0  0  0  0  0  0  0  0  0
   -1.1167   22.0144  -23.6883 C   0  0  0  0  0  0  0  0  0  0  0  0
   -1.0931   21.4367  -22.4777 N   0  0  0  0  0  0  0  0  0  0  0  0
    0.0856   20.9377  -21.9996 C   0  0  0  0  0  0  0  0  0  0  0  0
    1.1972   21.0629  -22.7838 C   0  0  0  0  0  0  0  0  0  0  0  0
    1.1952   21.6460  -23.9977 N   0  0  0  0  0  0  0  0  0  0  0  0
    0.0014   22.1339  -24.4623 C   0  0  0  0  0  0  0  0  0  0  0  0
   -0.0688   22.7726  -25.7317 N   0  0  0  0  0  0  0  0  0  0  0  0
   -0.0557   23.8092  -25.7647 H   0  0  0  0  0  0  0  0  0  0  0  0
   -0.1238   22.2711  -26.6508 H   0  0  0  0  0  0  0  0  0  0  0  0
    0.0877   20.2057  -20.7349 C   0  0  0  0  0  0  0  0  0  0  0  0
    0.3158   18.8929  -20.4544 C   0  0  0  0  0  0  0  0  0  0  0  0
    0.2973   18.7624  -19.1268 N   0  0  0  0  0  0  0  0  0  0  0  0
    0.0744   19.9095  -18.5153 N   0  0  0  0  0  0  0  0  0  0  0  0
    0.0113   20.0866  -17.0545 C   0  0  0  0  0  0  0  0  0  0  0  0
   -0.0664   20.8442  -19.4770 C   0  0  0  0  0  0  0  0  0  0  0  0
   -7.5027   22.6239  -21.8899 C   0  0  0  0  0  0  0  0  0  0  0  0
   -7.8521   23.9151  -21.6340 C   0  0  0  0  0  0  0  0  0  0  0  0
   -7.1376   25.0137  -22.1283 C   0  0  0  0  0  0  0  0  0  0  0  0
   -6.0339   24.7631  -22.9110 C   0  0  0  0  0  0  0  0  0  0  0  0
   -5.6541   23.4705  -23.1927 C   0  0  0  0  0  0  0  0  0  0  0  0
   -6.3868   22.4120  -22.6801 C   0  0  0  0  0  0  0  0  0  0  0  0
   -8.8349   21.6041  -20.1658 C   0  0  0  0  0  0  0  0  0  0  0  0
   -8.1817   21.5167  -21.4176 O   0  0  0  0  0  0  0  0  0  0  0  0
   -7.5689   26.2925  -21.8117 O   0  0  0  0  0  0  0  0  0  0  0  0
   -8.4822   26.5028  -20.7560 C   0  0  0  0  0  0  0  0  0  0  0  0
   -3.4944   23.6457  -27.6321 C   0  0  0  0  0  0  0  0  0  0  0  0
   -2.4685   23.0325  -28.5422 C   0  0  0  0  0  0  0  0  0  0  0  0
   -3.9453   23.0710  -28.8668 C   0  0  0  0  0  0  0  0  0  0  0  0
 29 30  1  0  0  0
 30 23  1  0  0  0
 23 24  2  0  0  0
 24 25  1  0  0  0
 25 31  1  0  0  0
 31 32  1  0  0  0
 25 26  2  0  0  0
 26 27  1  0  0  0
 27 28  2  0  0  0
 27  1  1  0  0  0
  1  2  1  0  0  0
  2  3  2  0  0  0
  3  4  1  0  0  0
  4  5  2  0  0  0
  5 33  1  0  0  0
 33 34  1  0  0  0
 34 35  1  0  0  0
  5  6  1  0  0  0
  6  7  2  0  0  0
  3  8  1  0  0  0
  8  9  2  0  0  0
  9 10  1  0  0  0
 10 11  2  0  0  0
 11 12  1  0  0  0
 12 13  2  0  0  0
 13 14  1  0  0  0
 10 17  1  0  0  0
 17 18  1  0  0  0
 18 19  2  0  0  0
 19 20  1  0  0  0
 20 21  1  0  0  0
 20 22  1  0  0  0
 28 23  1  0  0  0
  6  1  1  0  0  0
 13  8  1  0  0  0
 22 17  2  0  0  0
 35 33  1  0  0  0
 14 15  1  0  0  0
 14 16  1  0  0  0
M  END
> <minimizedAffinity>
-8.12474

> <CNNscore>
0.1470976770

> <CNNaffinity>
6.8364324570

> <CNN_VS>
1.0056233406

> <CNNaffinity_variance>
0.3634409010

$$$$
[H]c1nc(N([H])[H])c(-c2nn(-c3c([H])c(OC([H])([H])[H])c([H])c(OC([H])([H])[H])c3[H])c(=O)c(C3([H])C([H])([H])C3([H])[H])c2[H])nc1-c1c([H])nn(C([H])([H])[H])c1[H]


 35 39  0  0  0  0  0  0  0  0999 V2000
   -4.1197   23.6794  -21.8359 N   0  0  0  0  0  0  0  0  0  0  0  0
   -4.0675   23.7436  -23.1967 N   0  0  0  0  0  0  0  0  0  0  0  0
   -2.9558   23.3456  -23.8025 C   0  0  0  0  0  0  0  0  0  0  0  0
   -1.8865   22.8987  -23.1082 C   0  0  0  0  0  0  0  0  0  0  0  0
   -1.8797   22.8110  -21.7102 C   0  0  0  0  0  0  0  0  0  0  0  0
   -3.0850   23.2382  -21.1448 C   0  0  0  0  0  0  0  0  0  0  0  0
   -3.1617   23.1868  -19.8882 O   0  0  0  0  0  0  0  0  0  0  0  0
   -2.9334   23.1782  -25.2819 C   0  0  0  0  0  0  0  0  0  0  0  0
   -3.8399   23.8247  -26.0304 N   0  0  0  0  0  0  0  0  0  0  0  0
   -3.7165   23.8066  -27.3911 C   0  0  0  0  0  0  0  0  0  0  0  0
   -2.6689   23.1136  -27.9283 C   0  0  0  0  0  0  0  0  0  0  0  0
   -1.7535   22.4525  -27.1944 N   0  0  0  0  0  0  0  0  0  0  0  0
   -1.8909   22.4888  -25.8310 C   0  0  0  0  0  0  0  0  0  0  0  0
   -0.9656   21.8016  -24.9969 N   0  0  0  0  0  0  0  0  0  0  0  0
   -1.2307   20.8691  -24.6280 H   0  0  0  0  0  0  0  0  0  0  0  0
   -0.0190   22.1640  -24.7291 H   0  0  0  0  0  0  0  0  0  0  0  0
   -4.6342   24.6062  -28.1996 C   0  0  0  0  0  0  0  0  0  0  0  0
   -5.7644   25.2897  -27.8686 C   0  0  0  0  0  0  0  0  0  0  0  0
   -6.1706   25.9368  -28.9623 N   0  0  0  0  0  0  0  0  0  0  0  0
   -5.3754   25.7241  -29.9928 N   0  0  0  0  0  0  0  0  0  0  0  0
   -5.5555   26.3123  -31.3310 C   0  0  0  0  0  0  0  0  0  0  0  0
   -4.3994   24.8958  -29.5687 C   0  0  0  0  0  0  0  0  0  0  0  0
   -7.3197   25.4567  -21.3609 C   0  0  0  0  0  0  0  0  0  0  0  0
   -7.6169   25.0588  -20.0928 C   0  0  0  0  0  0  0  0  0  0  0  0
   -6.8134   24.1767  -19.3593 C   0  0  0  0  0  0  0  0  0  0  0  0
   -5.6704   23.6990  -19.9586 C   0  0  0  0  0  0  0  0  0  0  0  0
   -5.3376   24.0830  -21.2377 C   0  0  0  0  0  0  0  0  0  0  0  0
   -6.1627   24.9546  -21.9300 C   0  0  0  0  0  0  0  0  0  0  0  0
   -9.4687   26.0473  -22.2666 C   0  0  0  0  0  0  0  0  0  0  0  0
   -8.0895   26.3225  -22.1146 O   0  0  0  0  0  0  0  0  0  0  0  0
   -7.1996   23.8272  -18.0747 O   0  0  0  0  0  0  0  0  0  0  0  0
   -6.2429   23.7073  -17.0435 C   0  0  0  0  0  0  0  0  0  0  0  0
   -0.7896   22.1681  -21.0097 C   0  0  0  0  0  0  0  0  0  0  0  0
   -0.9068   20.7163  -20.6417 C   0  0  0  0  0  0  0  0  0  0  0  0
    0.2606   21.2812  -21.4201 C   0  0  0  0  0  0  0  0  0  0  0  0
 29 30  1  0  0  0
 30 23  1  0  0  0
 23 24  2  0  0  0
 24 25  1  0  0  0
 25 31  1  0  0  0
 31 32  1  0  0  0
 25 26  2  0  0  0
 26 27  1  0  0  0
 27 28  2  0  0  0
 27  1  1  0  0  0
  1  2  1  0  0  0
  2  3  2  0  0  0
  3  4  1  0  0  0
  4  5  2  0  0  0
  5 33  1  0  0  0
 33 34  1  0  0  0
 34 35  1  0  0  0
  5  6  1  0  0  0
  6  7  2  0  0  0
  3  8  1  0  0  0
  8  9  2  0  0  0
  9 10  1  0  0  0
 10 11  2  0  0  0
 11 12  1  0  0  0
 12 13  2  0  0  0
 13 14  1  0  0  0
 10 17  1  0  0  0
 17 18  1  0  0  0
 18 19  2  0  0  0
 19 20  1  0  0  0
 20 21  1  0  0  0
 20 22  1  0  0  0
 28 23  1  0  0  0
  6  1  1  0  0  0
 13  8  1  0  0  0
 22 17  2  0  0  0
 35 33  1  0  0  0
 14 15  1  0  0  0
 14 16  1  0  0  0
M  END
> <minimizedAffinity>
-8.53871

> <CNNscore>
0.1312245727

> <CNNaffinity>
6.9537162781

> <CNN_VS>
0.9124984741

> <CNNaffinity_variance>
0.2841593623

$$$$
[H]c1nc(N([H])[H])c(-c2nn(-c3c([H])c(OC([H])([H])[H])c([H])c(OC([H])([H])[H])c3[H])c(=O)c(C3([H])C([H])([H])C3([H])[H])c2[H])nc1-c1c([H])nn(C([H])([H])[H])c1[H]


 35 39  0  0  0  0  0  0  0  0999 V2000
   -3.3827   22.8874  -24.1272 N   0  0  0  0  0  0  0  0  0  0  0  0
   -3.8540   22.9114  -22.8482 N   0  0  0  0  0  0  0  0  0  0  0  0
   -5.1154   23.2730  -22.6499 C   0  0  0  0  0  0  0  0  0  0  0  0
   -5.9250   23.6258  -23.6723 C   0  0  0  0  0  0  0  0  0  0  0  0
   -5.4980   23.6220  -25.0065 C   0  0  0  0  0  0  0  0  0  0  0  0
   -4.1644   23.2227  -25.1368 C   0  0  0  0  0  0  0  0  0  0  0  0
   -3.7035   23.1888  -26.3089 O   0  0  0  0  0  0  0  0  0  0  0  0
   -5.7394   23.0931  -21.3100 C   0  0  0  0  0  0  0  0  0  0  0  0
   -5.9442   21.8528  -20.8414 N   0  0  0  0  0  0  0  0  0  0  0  0
   -6.3584   21.6876  -19.5498 C   0  0  0  0  0  0  0  0  0  0  0  0
   -6.5555   22.8084  -18.7939 C   0  0  0  0  0  0  0  0  0  0  0  0
   -6.3627   24.0614  -19.2483 N   0  0  0  0  0  0  0  0  0  0  0  0
   -5.9404   24.2054  -20.5445 C   0  0  0  0  0  0  0  0  0  0  0  0
   -5.7290   25.5016  -21.0916 N   0  0  0  0  0  0  0  0  0  0  0  0
   -6.4759   25.9180  -21.6787 H   0  0  0  0  0  0  0  0  0  0  0  0
   -4.8695   26.0820  -20.9385 H   0  0  0  0  0  0  0  0  0  0  0  0
   -6.4683   20.3362  -19.0050 C   0  0  0  0  0  0  0  0  0  0  0  0
   -5.5190   19.4519  -18.5914 C   0  0  0  0  0  0  0  0  0  0  0  0
   -6.1562   18.3949  -18.0848 N   0  0  0  0  0  0  0  0  0  0  0  0
   -7.4672   18.5301  -18.1362 N   0  0  0  0  0  0  0  0  0  0  0  0
   -8.4362   17.5374  -17.6414 C   0  0  0  0  0  0  0  0  0  0  0  0
   -7.7145   19.7271  -18.7059 C   0  0  0  0  0  0  0  0  0  0  0  0
   -0.0100   21.6631  -23.2607 C   0  0  0  0  0  0  0  0  0  0  0  0
    0.5997   21.7949  -24.4714 C   0  0  0  0  0  0  0  0  0  0  0  0
   -0.0643   22.2507  -25.6172 C   0  0  0  0  0  0  0  0  0  0  0  0
   -1.3951   22.5809  -25.5002 C   0  0  0  0  0  0  0  0  0  0  0  0
   -2.0421   22.4633  -24.2911 C   0  0  0  0  0  0  0  0  0  0  0  0
   -1.3487   22.0041  -23.1827 C   0  0  0  0  0  0  0  0  0  0  0  0
   -0.0181   20.2038  -21.3481 C   0  0  0  0  0  0  0  0  0  0  0  0
    0.6123   21.2147  -22.1110 O   0  0  0  0  0  0  0  0  0  0  0  0
    0.6403   22.3493  -26.8068 O   0  0  0  0  0  0  0  0  0  0  0  0
   -0.0099   22.7392  -27.9977 C   0  0  0  0  0  0  0  0  0  0  0  0
   -6.4339   23.8356  -26.0885 C   0  0  0  0  0  0  0  0  0  0  0  0
   -7.6360   24.7072  -25.8595 C   0  0  0  0  0  0  0  0  0  0  0  0
   -6.6616   24.9230  -26.9962 C   0  0  0  0  0  0  0  0  0  0  0  0
 29 30  1  0  0  0
 30 23  1  0  0  0
 23 24  2  0  0  0
 24 25  1  0  0  0
 25 31  1  0  0  0
 31 32  1  0  0  0
 25 26  2  0  0  0
 26 27  1  0  0  0
 27 28  2  0  0  0
 27  1  1  0  0  0
  1  2  1  0  0  0
  2  3  2  0  0  0
  3  4  1  0  0  0
  4  5  2  0  0  0
  5 33  1  0  0  0
 33 34  1  0  0  0
 34 35  1  0  0  0
  5  6  1  0  0  0
  6  7  2  0  0  0
  3  8  1  0  0  0
  8  9  2  0  0  0
  9 10  1  0  0  0
 10 11  2  0  0  0
 11 12  1  0  0  0
 12 13  2  0  0  0
 13 14  1  0  0  0
 10 17  1  0  0  0
 17 18  1  0  0  0
 18 19  2  0  0  0
 19 20  1  0  0  0
 20 21  1  0  0  0
 20 22  1  0  0  0
 28 23  1  0  0  0
  6  1  1  0  0  0
 13  8  1  0  0  0
 22 17  2  0  0  0
 35 33  1  0  0  0
 14 15  1  0  0  0
 14 16  1  0  0  0
M  END
> <minimizedAffinity>
-7.58247

> <CNNscore>
0.1119967625

> <CNNaffinity>
6.5304670334

> <CNN_VS>
0.7313911915

> <CNNaffinity_variance>
0.0956311896

$$$$
[H]c1nc(N([H])[H])c(-c2nn(-c3c([H])c(OC([H])([H])[H])c([H])c(OC([H])([H])[H])c3[H])c(=O)c(C3([H])C([H])([H])C3([H])[H])c2[H])nc1-c1c([H])nn(C([H])([H])[H])c1[H]


 35 39  0  0  0  0  0  0  0  0999 V2000
   -0.4301   21.6997  -22.2564 N   0  0  0  0  0  0  0  0  0  0  0  0
    0.6864   20.9350  -22.4214 N   0  0  0  0  0  0  0  0  0  0  0  0
    1.4863   20.7572  -21.3775 C   0  0  0  0  0  0  0  0  0  0  0  0
    1.2282   21.3215  -20.1774 C   0  0  0  0  0  0  0  0  0  0  0  0
    0.0987   22.1174  -19.9471 C   0  0  0  0  0  0  0  0  0  0  0  0
   -0.6989   22.2515  -21.0876 C   0  0  0  0  0  0  0  0  0  0  0  0
   -1.7392   22.9511  -20.9626 O   0  0  0  0  0  0  0  0  0  0  0  0
    2.5823   19.7514  -21.4424 C   0  0  0  0  0  0  0  0  0  0  0  0
    2.5945   18.7352  -20.5667 N   0  0  0  0  0  0  0  0  0  0  0  0
    3.4989   17.7241  -20.7306 C   0  0  0  0  0  0  0  0  0  0  0  0
    4.3631   17.8050  -21.7857 C   0  0  0  0  0  0  0  0  0  0  0  0
    4.3713   18.8200  -22.6706 N   0  0  0  0  0  0  0  0  0  0  0  0
    3.4516   19.8209  -22.4927 C   0  0  0  0  0  0  0  0  0  0  0  0
    3.4138   20.9289  -23.3842 N   0  0  0  0  0  0  0  0  0  0  0  0
    3.8790   21.8105  -23.0970 H   0  0  0  0  0  0  0  0  0  0  0  0
    2.9545   20.9223  -24.3266 H   0  0  0  0  0  0  0  0  0  0  0  0
    3.4349   16.5619  -19.8473 C   0  0  0  0  0  0  0  0  0  0  0  0
    4.3854   15.6613  -19.4735 C   0  0  0  0  0  0  0  0  0  0  0  0
    3.8310   14.8529  -18.5685 N   0  0  0  0  0  0  0  0  0  0  0  0
    2.5744   15.1677  -18.3207 N   0  0  0  0  0  0  0  0  0  0  0  0
    1.7048   14.4682  -17.3595 C   0  0  0  0  0  0  0  0  0  0  0  0
    2.2770   16.2292  -19.0975 C   0  0  0  0  0  0  0  0  0  0  0  0
   -3.3937   21.3450  -24.4281 C   0  0  0  0  0  0  0  0  0  0  0  0
   -2.8997   21.8795  -25.5792 C   0  0  0  0  0  0  0  0  0  0  0  0
   -1.6054   22.4041  -25.6857 C   0  0  0  0  0  0  0  0  0  0  0  0
   -0.8037   22.3688  -24.5678 C   0  0  0  0  0  0  0  0  0  0  0  0
   -1.2693   21.8326  -23.3888 C   0  0  0  0  0  0  0  0  0  0  0  0
   -2.5581   21.3278  -23.3253 C   0  0  0  0  0  0  0  0  0  0  0  0
   -5.7413   21.7077  -24.0474 C   0  0  0  0  0  0  0  0  0  0  0  0
   -4.6648   20.8213  -24.2859 O   0  0  0  0  0  0  0  0  0  0  0  0
   -1.1920   22.9300  -26.8998 O   0  0  0  0  0  0  0  0  0  0  0  0
    0.0708   22.5963  -27.4356 C   0  0  0  0  0  0  0  0  0  0  0  0
   -0.2396   22.5616  -18.6127 C   0  0  0  0  0  0  0  0  0  0  0  0
   -1.1515   21.7193  -17.7666 C   0  0  0  0  0  0  0  0  0  0  0  0
    0.2108   22.1858  -17.3036 C   0  0  0  0  0  0  0  0  0  0  0  0
 29 30  1  0  0  0
 30 23  1  0  0  0
 23 24  2  0  0  0
 24 25  1  0  0  0
 25 31  1  0  0  0
 31 32  1  0  0  0
 25 26  2  0  0  0
 26 27  1  0  0  0
 27 28  2  0  0  0
 27  1  1  0  0  0
  1  2  1  0  0  0
  2  3  2  0  0  0
  3  4  1  0  0  0
  4  5  2  0  0  0
  5 33  1  0  0  0
 33 34  1  0  0  0
 34 35  1  0  0  0
  5  6  1  0  0  0
  6  7  2  0  0  0
  3  8  1  0  0  0
  8  9  2  0  0  0
  9 10  1  0  0  0
 10 11  2  0  0  0
 11 12  1  0  0  0
 12 13  2  0  0  0
 13 14  1  0  0  0
 10 17  1  0  0  0
 17 18  1  0  0  0
 18 19  2  0  0  0
 19 20  1  0  0  0
 20 21  1  0  0  0
 20 22  1  0  0  0
 28 23  1  0  0  0
  6  1  1  0  0  0
 13  8  1  0  0  0
 22 17  2  0  0  0
 35 33  1  0  0  0
 14 15  1  0  0  0
 14 16  1  0  0  0
M  END
> <minimizedAffinity>
-7.12378

> <CNNscore>
0.1097939461

> <CNNaffinity>
6.0769729614

> <CNN_VS>
0.6672148705

> <CNNaffinity_variance>
0.0710752383

$$$$
[H]c1nc(N([H])c2nn([H])c(C([H])([H])C([H])([H])c3c([H])c(OC([H])([H])[H])c([H])c(OC([H])([H])[H])c3[H])c2[H])c2c([H])c([H])c(N([H])C([H])([H])C([H])([H])N3C([H])([H])C([H])([H])OC([H])([H])C3([H])[H])c([H])c2n1


 40 44  0  0  0  0  0  0  0  0999 V2000
   -3.1491   22.6401  -28.4502 N   0  0  0  0  0  0  0  0  0  0  0  0
   -3.4219   21.7583  -28.9125 H   0  0  0  0  0  0  0  0  0  0  0  0
   -3.9095   23.8206  -28.4899 C   0  0  0  0  0  0  0  0  0  0  0  0
   -3.6730   24.7489  -29.4506 N   0  0  0  0  0  0  0  0  0  0  0  0
   -4.3784   25.8861  -29.5407 C   0  0  0  0  0  0  0  0  0  0  0  0
   -5.3659   26.1446  -28.6572 N   0  0  0  0  0  0  0  0  0  0  0  0
   -5.6572   25.2774  -27.6822 C   0  0  0  0  0  0  0  0  0  0  0  0
   -6.6658   25.5240  -26.7578 C   0  0  0  0  0  0  0  0  0  0  0  0
   -6.9911   24.6617  -25.7383 C   0  0  0  0  0  0  0  0  0  0  0  0
   -6.2501   23.5035  -25.6709 C   0  0  0  0  0  0  0  0  0  0  0  0
   -5.2309   23.2273  -26.5857 C   0  0  0  0  0  0  0  0  0  0  0  0
   -4.9278   24.1081  -27.5942 C   0  0  0  0  0  0  0  0  0  0  0  0
   -7.9952   24.9056  -24.7972 N   0  0  0  0  0  0  0  0  0  0  0  0
   -8.9903   24.6122  -25.0552 H   0  0  0  0  0  0  0  0  0  0  0  0
   -7.8273   25.5207  -23.5026 C   0  0  0  0  0  0  0  0  0  0  0  0
   -8.3091   24.6188  -22.4104 C   0  0  0  0  0  0  0  0  0  0  0  0
   -9.2139   25.3194  -21.5021 N   0  0  0  0  0  0  0  0  0  0  0  0
   -8.4942   26.3901  -20.8907 C   0  0  0  0  0  0  0  0  0  0  0  0
   -9.4171   27.4603  -20.3354 C   0  0  0  0  0  0  0  0  0  0  0  0
  -10.7185   26.9641  -20.2452 O   0  0  0  0  0  0  0  0  0  0  0  0
  -11.1860   26.7981  -21.5465 C   0  0  0  0  0  0  0  0  0  0  0  0
  -10.3859   25.7277  -22.2125 C   0  0  0  0  0  0  0  0  0  0  0  0
   -0.4157   22.4393  -26.0691 C   0  0  0  0  0  0  0  0  0  0  0  0
   -1.7380   22.2473  -26.4179 C   0  0  0  0  0  0  0  0  0  0  0  0
   -1.9100   22.6657  -27.7176 C   0  0  0  0  0  0  0  0  0  0  0  0
   -0.7069   23.0966  -28.1247 N   0  0  0  0  0  0  0  0  0  0  0  0
    0.1784   22.9637  -27.1498 N   0  0  0  0  0  0  0  0  0  0  0  0
    1.1799   23.2371  -27.2436 H   0  0  0  0  0  0  0  0  0  0  0  0
    0.2807   22.1484  -24.7944 C   0  0  0  0  0  0  0  0  0  0  0  0
   -0.7194   21.8710  -23.6999 C   0  0  0  0  0  0  0  0  0  0  0  0
    1.9664   20.6438  -21.4422 C   0  0  0  0  0  0  0  0  0  0  0  0
    1.3193   21.1724  -22.5244 C   0  0  0  0  0  0  0  0  0  0  0  0
   -0.0755   21.2950  -22.4992 C   0  0  0  0  0  0  0  0  0  0  0  0
   -0.8141   20.8966  -21.4102 C   0  0  0  0  0  0  0  0  0  0  0  0
   -0.1675   20.3729  -20.3393 C   0  0  0  0  0  0  0  0  0  0  0  0
    1.2225   20.2441  -20.3494 C   0  0  0  0  0  0  0  0  0  0  0  0
    4.0777   19.5245  -22.0745 C   0  0  0  0  0  0  0  0  0  0  0  0
    3.3459   20.4784  -21.3639 O   0  0  0  0  0  0  0  0  0  0  0  0
   -0.8577   19.9620  -19.2334 O   0  0  0  0  0  0  0  0  0  0  0  0
   -0.3325   19.8305  -17.9469 C   0  0  0  0  0  0  0  0  0  0  0  0
 37 38  1  0  0  0
 38 31  1  0  0  0
 31 32  2  0  0  0
 32 33  1  0  0  0
 33 30  1  0  0  0
 30 29  1  0  0  0
 29 23  1  0  0  0
 23 24  2  0  0  0
 24 25  1  0  0  0
 25  1  1  0  0  0
  1  3  1  0  0  0
  3  4  2  0  0  0
  4  5  1  0  0  0
  5  6  2  0  0  0
  6  7  1  0  0  0
  7  8  2  0  0  0
  8  9  1  0  0  0
  9 13  1  0  0  0
 13 15  1  0  0  0
 15 16  1  0  0  0
 16 17  1  0  0  0
 17 18  1  0  0  0
 18 19  1  0  0  0
 19 20  1  0  0  0
 20 21  1  0  0  0
 21 22  1  0  0  0
  9 10  2  0  0  0
 10 11  1  0  0  0
 11 12  2  0  0  0
 25 26  2  0  0  0
 26 27  1  0  0  0
 33 34  2  0  0  0
 34 35  1  0  0  0
 35 39  1  0  0  0
 39 40  1  0  0  0
 35 36  2  0  0  0
 36 31  1  0  0  0
 27 23  1  0  0  0
 12  3  1  0  0  0
 12  7  1  0  0  0
 22 17  1  0  0  0
  1  2  1  0  0  0
 13 14  1  0  0  0
 27 28  1  0  0  0
M  END
> <minimizedAffinity>
-8.15364

> <CNNscore>
0.6871829629

> <CNNaffinity>
7.3491692543

> <CNN_VS>
5.0502238274

> <CNNaffinity_variance>
0.0373600200

$$$$
[H]c1nc(N([H])c2nn([H])c(C([H])([H])C([H])([H])c3c([H])c(OC([H])([H])[H])c([H])c(OC([H])([H])[H])c3[H])c2[H])c2c([H])c([H])c(N([H])C([H])([H])C([H])([H])N3C([H])([H])C([H])([H])OC([H])([H])C3([H])[H])c([H])c2n1


 40 44  0  0  0  0  0  0  0  0999 V2000
   -3.2063   22.6598  -28.3655 N   0  0  0  0  0  0  0  0  0  0  0  0
   -3.5208   21.7487  -28.7349 H   0  0  0  0  0  0  0  0  0  0  0  0
   -3.9572   23.8446  -28.4414 C   0  0  0  0  0  0  0  0  0  0  0  0
   -3.7311   24.7287  -29.4454 N   0  0  0  0  0  0  0  0  0  0  0  0
   -4.4284   25.8676  -29.5710 C   0  0  0  0  0  0  0  0  0  0  0  0
   -5.3966   26.1729  -28.6810 N   0  0  0  0  0  0  0  0  0  0  0  0
   -5.6766   25.3508  -27.6644 C   0  0  0  0  0  0  0  0  0  0  0  0
   -6.6652   25.6461  -26.7327 C   0  0  0  0  0  0  0  0  0  0  0  0
   -6.9783   24.8312  -25.6712 C   0  0  0  0  0  0  0  0  0  0  0  0
   -6.2460   23.6700  -25.5681 C   0  0  0  0  0  0  0  0  0  0  0  0
   -5.2469   23.3456  -26.4892 C   0  0  0  0  0  0  0  0  0  0  0  0
   -4.9556   24.1796  -27.5401 C   0  0  0  0  0  0  0  0  0  0  0  0
   -7.9620   25.1245  -24.7228 N   0  0  0  0  0  0  0  0  0  0  0  0
   -8.8010   25.7012  -25.0493 H   0  0  0  0  0  0  0  0  0  0  0  0
   -7.9618   24.7286  -23.3351 C   0  0  0  0  0  0  0  0  0  0  0  0
   -8.8473   25.6177  -22.5204 C   0  0  0  0  0  0  0  0  0  0  0  0
   -9.9445   24.8660  -21.9156 N   0  0  0  0  0  0  0  0  0  0  0  0
   -9.6938   24.7570  -20.5144 C   0  0  0  0  0  0  0  0  0  0  0  0
  -10.9555   24.4536  -19.7262 C   0  0  0  0  0  0  0  0  0  0  0  0
  -11.9589   24.0106  -20.5894 O   0  0  0  0  0  0  0  0  0  0  0  0
  -12.3377   25.0986  -21.3717 C   0  0  0  0  0  0  0  0  0  0  0  0
  -11.1901   25.4868  -22.2444 C   0  0  0  0  0  0  0  0  0  0  0  0
   -0.3099   22.6504  -26.1763 C   0  0  0  0  0  0  0  0  0  0  0  0
   -1.6611   22.4764  -26.4022 C   0  0  0  0  0  0  0  0  0  0  0  0
   -1.9152   22.7245  -27.7318 C   0  0  0  0  0  0  0  0  0  0  0  0
   -0.7310   23.0393  -28.2772 N   0  0  0  0  0  0  0  0  0  0  0  0
    0.2200   22.9963  -27.3576 N   0  0  0  0  0  0  0  0  0  0  0  0
    1.2211   23.2068  -27.5578 H   0  0  0  0  0  0  0  0  0  0  0  0
    0.4697   22.5002  -24.9256 C   0  0  0  0  0  0  0  0  0  0  0  0
   -0.1313   21.4232  -24.0572 C   0  0  0  0  0  0  0  0  0  0  0  0
   -0.5369   22.0480  -20.4156 C   0  0  0  0  0  0  0  0  0  0  0  0
   -0.0666   21.5717  -21.6078 C   0  0  0  0  0  0  0  0  0  0  0  0
   -0.6820   21.9739  -22.7997 C   0  0  0  0  0  0  0  0  0  0  0  0
   -1.7507   22.8389  -22.8025 C   0  0  0  0  0  0  0  0  0  0  0  0
   -2.2135   23.3084  -21.6172 C   0  0  0  0  0  0  0  0  0  0  0  0
   -1.6107   22.9167  -20.4206 C   0  0  0  0  0  0  0  0  0  0  0  0
    0.3657   22.6312  -18.1895 C   0  0  0  0  0  0  0  0  0  0  0  0
    0.0007   21.7130  -19.1765 O   0  0  0  0  0  0  0  0  0  0  0  0
   -3.2735   24.1699  -21.5682 O   0  0  0  0  0  0  0  0  0  0  0  0
   -3.9426   24.7028  -22.6711 C   0  0  0  0  0  0  0  0  0  0  0  0
 37 38  1  0  0  0
 38 31  1  0  0  0
 31 32  2  0  0  0
 32 33  1  0  0  0
 33 30  1  0  0  0
 30 29  1  0  0  0
 29 23  1  0  0  0
 23 24  2  0  0  0
 24 25  1  0  0  0
 25  1  1  0  0  0
  1  3  1  0  0  0
  3  4  2  0  0  0
  4  5  1  0  0  0
  5  6  2  0  0  0
  6  7  1  0  0  0
  7  8  2  0  0  0
  8  9  1  0  0  0
  9 13  1  0  0  0
 13 15  1  0  0  0
 15 16  1  0  0  0
 16 17  1  0  0  0
 17 18  1  0  0  0
 18 19  1  0  0  0
 19 20  1  0  0  0
 20 21  1  0  0  0
 21 22  1  0  0  0
  9 10  2  0  0  0
 10 11  1  0  0  0
 11 12  2  0  0  0
 25 26  2  0  0  0
 26 27  1  0  0  0
 33 34  2  0  0  0
 34 35  1  0  0  0
 35 39  1  0  0  0
 39 40  1  0  0  0
 35 36  2  0  0  0
 36 31  1  0  0  0
 27 23  1  0  0  0
 12  3  1  0  0  0
 12  7  1  0  0  0
 22 17  1  0  0  0
  1  2  1  0  0  0
 13 14  1  0  0  0
 27 28  1  0  0  0
M  END
> <minimizedAffinity>
-8.40197

> <CNNscore>
0.6397629976

> <CNNaffinity>
7.3514900208

> <CNN_VS>
4.7032113075

> <CNNaffinity_variance>
0.1168222055

$$$$
[H]c1nc(N([H])c2nn([H])c(C([H])([H])C([H])([H])c3c([H])c(OC([H])([H])[H])c([H])c(OC([H])([H])[H])c3[H])c2[H])c2c([H])c([H])c(N([H])C([H])([H])C([H])([H])N3C([H])([H])C([H])([H])OC([H])([H])C3([H])[H])c([H])c2n1


 40 44  0  0  0  0  0  0  0  0999 V2000
   -3.1873   22.6425  -28.4345 N   0  0  0  0  0  0  0  0  0  0  0  0
   -3.4893   21.7204  -28.7867 H   0  0  0  0  0  0  0  0  0  0  0  0
   -3.9667   23.8091  -28.5058 C   0  0  0  0  0  0  0  0  0  0  0  0
   -3.7828   24.6875  -29.5233 N   0  0  0  0  0  0  0  0  0  0  0  0
   -4.5086   25.8089  -29.6449 C   0  0  0  0  0  0  0  0  0  0  0  0
   -5.4641   26.1014  -28.7369 N   0  0  0  0  0  0  0  0  0  0  0  0
   -5.7030   25.2839  -27.7064 C   0  0  0  0  0  0  0  0  0  0  0  0
   -6.6776   25.5664  -26.7562 C   0  0  0  0  0  0  0  0  0  0  0  0
   -6.9488   24.7558  -25.6800 C   0  0  0  0  0  0  0  0  0  0  0  0
   -6.1880   23.6127  -25.5814 C   0  0  0  0  0  0  0  0  0  0  0  0
   -5.2019   23.3013  -26.5208 C   0  0  0  0  0  0  0  0  0  0  0  0
   -4.9528   24.1307  -27.5861 C   0  0  0  0  0  0  0  0  0  0  0  0
   -7.9183   25.0365  -24.7132 N   0  0  0  0  0  0  0  0  0  0  0  0
   -8.7203   25.6839  -24.9971 H   0  0  0  0  0  0  0  0  0  0  0  0
   -7.9481   24.5410  -23.3582 C   0  0  0  0  0  0  0  0  0  0  0  0
   -7.5631   25.6097  -22.3845 C   0  0  0  0  0  0  0  0  0  0  0  0
   -6.6225   25.1063  -21.3863 N   0  0  0  0  0  0  0  0  0  0  0  0
   -7.0463   25.5622  -20.1015 C   0  0  0  0  0  0  0  0  0  0  0  0
   -6.4700   24.7236  -18.9746 C   0  0  0  0  0  0  0  0  0  0  0  0
   -5.4058   23.9563  -19.4509 O   0  0  0  0  0  0  0  0  0  0  0  0
   -5.9415   22.9972  -20.3067 C   0  0  0  0  0  0  0  0  0  0  0  0
   -6.5160   23.6849  -21.5010 C   0  0  0  0  0  0  0  0  0  0  0  0
   -0.2462   22.7503  -26.3086 C   0  0  0  0  0  0  0  0  0  0  0  0
   -1.6006   22.5584  -26.4978 C   0  0  0  0  0  0  0  0  0  0  0  0
   -1.8838   22.7436  -27.8317 C   0  0  0  0  0  0  0  0  0  0  0  0
   -0.7133   23.0396  -28.4158 N   0  0  0  0  0  0  0  0  0  0  0  0
    0.2568   23.0444  -27.5154 N   0  0  0  0  0  0  0  0  0  0  0  0
    1.2522   23.2511  -27.7460 H   0  0  0  0  0  0  0  0  0  0  0  0
    0.5601   22.6622  -25.0689 C   0  0  0  0  0  0  0  0  0  0  0  0
    0.0747   21.5249  -24.2053 C   0  0  0  0  0  0  0  0  0  0  0  0
   -2.1253   23.4891  -21.9430 C   0  0  0  0  0  0  0  0  0  0  0  0
   -1.5240   23.0018  -23.0700 C   0  0  0  0  0  0  0  0  0  0  0  0
   -0.5420   22.0104  -22.9516 C   0  0  0  0  0  0  0  0  0  0  0  0
   -0.1657   21.5119  -21.7267 C   0  0  0  0  0  0  0  0  0  0  0  0
   -0.7652   21.9986  -20.6118 C   0  0  0  0  0  0  0  0  0  0  0  0
   -1.7457   22.9871  -20.7136 C   0  0  0  0  0  0  0  0  0  0  0  0
   -3.6236   25.0819  -23.0955 C   0  0  0  0  0  0  0  0  0  0  0  0
   -3.1104   24.4720  -21.9487 O   0  0  0  0  0  0  0  0  0  0  0  0
   -0.4250   21.5354  -19.3718 O   0  0  0  0  0  0  0  0  0  0  0  0
    0.5808   20.6078  -19.0957 C   0  0  0  0  0  0  0  0  0  0  0  0
 37 38  1  0  0  0
 38 31  1  0  0  0
 31 32  2  0  0  0
 32 33  1  0  0  0
 33 30  1  0  0  0
 30 29  1  0  0  0
 29 23  1  0  0  0
 23 24  2  0  0  0
 24 25  1  0  0  0
 25  1  1  0  0  0
  1  3  1  0  0  0
  3  4  2  0  0  0
  4  5  1  0  0  0
  5  6  2  0  0  0
  6  7  1  0  0  0
  7  8  2  0  0  0
  8  9  1  0  0  0
  9 13  1  0  0  0
 13 15  1  0  0  0
 15 16  1  0  0  0
 16 17  1  0  0  0
 17 18  1  0  0  0
 18 19  1  0  0  0
 19 20  1  0  0  0
 20 21  1  0  0  0
 21 22  1  0  0  0
  9 10  2  0  0  0
 10 11  1  0  0  0
 11 12  2  0  0  0
 25 26  2  0  0  0
 26 27  1  0  0  0
 33 34  2  0  0  0
 34 35  1  0  0  0
 35 39  1  0  0  0
 39 40  1  0  0  0
 35 36  2  0  0  0
 36 31  1  0  0  0
 27 23  1  0  0  0
 12  3  1  0  0  0
 12  7  1  0  0  0
 22 17  1  0  0  0
  1  2  1  0  0  0
 13 14  1  0  0  0
 27 28  1  0  0  0
M  END
> <minimizedAffinity>
-8.52068

> <CNNscore>
0.6046792865

> <CNNaffinity>
7.3065581322

> <CNN_VS>
4.4181241989

> <CNNaffinity_variance>
0.2825571895

$$$$
[H]c1nc(N([H])c2nn([H])c(C([H])([H])C([H])([H])c3c([H])c(OC([H])([H])[H])c([H])c(OC([H])([H])[H])c3[H])c2[H])c2c([H])c([H])c(N([H])C([H])([H])C([H])([H])N3C([H])([H])C([H])([H])OC([H])([H])C3([H])[H])c([H])c2n1


 40 44  0  0  0  0  0  0  0  0999 V2000
   -3.6239   22.5829  -28.6117 N   0  0  0  0  0  0  0  0  0  0  0  0
   -3.8826   21.6558  -28.9846 H   0  0  0  0  0  0  0  0  0  0  0  0
   -4.4829   23.6943  -28.5928 C   0  0  0  0  0  0  0  0  0  0  0  0
   -4.7039   24.4013  -29.7294 N   0  0  0  0  0  0  0  0  0  0  0  0
   -5.5241   25.4618  -29.7684 C   0  0  0  0  0  0  0  0  0  0  0  0
   -6.1672   25.8646  -28.6517 N   0  0  0  0  0  0  0  0  0  0  0  0
   -5.9994   25.2179  -27.4936 C   0  0  0  0  0  0  0  0  0  0  0  0
   -6.6464   25.6170  -26.3297 C   0  0  0  0  0  0  0  0  0  0  0  0
   -6.4954   24.9834  -25.1196 C   0  0  0  0  0  0  0  0  0  0  0  0
   -5.6474   23.8989  -25.1103 C   0  0  0  0  0  0  0  0  0  0  0  0
   -4.9837   23.4735  -26.2638 C   0  0  0  0  0  0  0  0  0  0  0  0
   -5.1537   24.1266  -27.4593 C   0  0  0  0  0  0  0  0  0  0  0  0
   -7.1322   25.3836  -23.9416 N   0  0  0  0  0  0  0  0  0  0  0  0
   -6.8894   26.3514  -23.5578 H   0  0  0  0  0  0  0  0  0  0  0  0
   -8.0902   24.6180  -23.1809 C   0  0  0  0  0  0  0  0  0  0  0  0
   -9.3083   25.4306  -22.8740 C   0  0  0  0  0  0  0  0  0  0  0  0
   -9.7475   25.2310  -21.4949 N   0  0  0  0  0  0  0  0  0  0  0  0
  -11.1504   24.9664  -21.5055 C   0  0  0  0  0  0  0  0  0  0  0  0
  -11.6137   24.2684  -20.2392 C   0  0  0  0  0  0  0  0  0  0  0  0
  -10.6356   24.3821  -19.2501 O   0  0  0  0  0  0  0  0  0  0  0  0
   -9.5523   23.6050  -19.6523 C   0  0  0  0  0  0  0  0  0  0  0  0
   -8.9595   24.2060  -20.8838 C   0  0  0  0  0  0  0  0  0  0  0  0
   -0.5687   22.7623  -26.6585 C   0  0  0  0  0  0  0  0  0  0  0  0
   -1.9082   22.4536  -26.7909 C   0  0  0  0  0  0  0  0  0  0  0  0
   -2.2981   22.7518  -28.0766 C   0  0  0  0  0  0  0  0  0  0  0  0
   -1.2039   23.2282  -28.6887 N   0  0  0  0  0  0  0  0  0  0  0  0
   -0.1797   23.2355  -27.8504 N   0  0  0  0  0  0  0  0  0  0  0  0
    0.7732   23.5672  -28.1122 H   0  0  0  0  0  0  0  0  0  0  0  0
    0.3249   22.6241  -25.4850 C   0  0  0  0  0  0  0  0  0  0  0  0
   -0.1448   21.5001  -24.5956 C   0  0  0  0  0  0  0  0  0  0  0  0
   -2.1039   23.4285  -22.0937 C   0  0  0  0  0  0  0  0  0  0  0  0
   -1.6421   22.9350  -23.2822 C   0  0  0  0  0  0  0  0  0  0  0  0
   -0.6040   21.9951  -23.2795 C   0  0  0  0  0  0  0  0  0  0  0  0
   -0.0351   21.5535  -22.1083 C   0  0  0  0  0  0  0  0  0  0  0  0
   -0.4967   22.0461  -20.9321 C   0  0  0  0  0  0  0  0  0  0  0  0
   -1.5309   22.9836  -20.9184 C   0  0  0  0  0  0  0  0  0  0  0  0
   -4.4522   24.0626  -21.6535 C   0  0  0  0  0  0  0  0  0  0  0  0
   -3.1290   24.3632  -21.9841 O   0  0  0  0  0  0  0  0  0  0  0  0
    0.0368   21.6384  -19.7416 O   0  0  0  0  0  0  0  0  0  0  0  0
   -0.2032   20.4131  -19.1177 C   0  0  0  0  0  0  0  0  0  0  0  0
 37 38  1  0  0  0
 38 31  1  0  0  0
 31 32  2  0  0  0
 32 33  1  0  0  0
 33 30  1  0  0  0
 30 29  1  0  0  0
 29 23  1  0  0  0
 23 24  2  0  0  0
 24 25  1  0  0  0
 25  1  1  0  0  0
  1  3  1  0  0  0
  3  4  2  0  0  0
  4  5  1  0  0  0
  5  6  2  0  0  0
  6  7  1  0  0  0
  7  8  2  0  0  0
  8  9  1  0  0  0
  9 13  1  0  0  0
 13 15  1  0  0  0
 15 16  1  0  0  0
 16 17  1  0  0  0
 17 18  1  0  0  0
 18 19  1  0  0  0
 19 20  1  0  0  0
 20 21  1  0  0  0
 21 22  1  0  0  0
  9 10  2  0  0  0
 10 11  1  0  0  0
 11 12  2  0  0  0
 25 26  2  0  0  0
 26 27  1  0  0  0
 33 34  2  0  0  0
 34 35  1  0  0  0
 35 39  1  0  0  0
 39 40  1  0  0  0
 35 36  2  0  0  0
 36 31  1  0  0  0
 27 23  1  0  0  0
 12  3  1  0  0  0
 12  7  1  0  0  0
 22 17  1  0  0  0
  1  2  1  0  0  0
 13 14  1  0  0  0
 27 28  1  0  0  0
M  END
> <minimizedAffinity>
-8.09140

> <CNNscore>
0.5518503785

> <CNNaffinity>
7.4410295486

> <CNN_VS>
4.1063351631

> <CNNaffinity_variance>
0.0899757817

$$$$
[H]c1nc(N([H])c2nn([H])c(C([H])([H])C([H])([H])c3c([H])c(OC([H])([H])[H])c([H])c(OC([H])([H])[H])c3[H])c2[H])c2c([H])c([H])c(N([H])C([H])([H])C([H])([H])N3C([H])([H])C([H])([H])OC([H])([H])C3([H])[H])c([H])c2n1


 40 44  0  0  0  0  0  0  0  0999 V2000
   -3.6083   22.7251  -28.6222 N   0  0  0  0  0  0  0  0  0  0  0  0
   -3.9364   21.8929  -29.1372 H   0  0  0  0  0  0  0  0  0  0  0  0
   -4.4100   23.8417  -28.3328 C   0  0  0  0  0  0  0  0  0  0  0  0
   -4.4372   24.8973  -29.1847 N   0  0  0  0  0  0  0  0  0  0  0  0
   -5.1948   25.9815  -28.9620 C   0  0  0  0  0  0  0  0  0  0  0  0
   -5.9690   26.0541  -27.8583 N   0  0  0  0  0  0  0  0  0  0  0  0
   -5.9946   25.0531  -26.9725 C   0  0  0  0  0  0  0  0  0  0  0  0
   -6.7795   25.1073  -25.8263 C   0  0  0  0  0  0  0  0  0  0  0  0
   -6.8284   24.1031  -24.8893 C   0  0  0  0  0  0  0  0  0  0  0  0
   -6.0403   23.0036  -25.1446 C   0  0  0  0  0  0  0  0  0  0  0  0
   -5.2416   22.9197  -26.2878 C   0  0  0  0  0  0  0  0  0  0  0  0
   -5.2126   23.9392  -27.2068 C   0  0  0  0  0  0  0  0  0  0  0  0
   -7.6051   24.1528  -23.7285 N   0  0  0  0  0  0  0  0  0  0  0  0
   -8.6661   24.2024  -23.8505 H   0  0  0  0  0  0  0  0  0  0  0  0
   -7.1192   24.1471  -22.3696 C   0  0  0  0  0  0  0  0  0  0  0  0
   -6.2123   25.3096  -22.1162 C   0  0  0  0  0  0  0  0  0  0  0  0
   -4.8911   24.8676  -21.6761 N   0  0  0  0  0  0  0  0  0  0  0  0
   -5.0168   23.5543  -21.1306 C   0  0  0  0  0  0  0  0  0  0  0  0
   -3.6921   22.8128  -21.1050 C   0  0  0  0  0  0  0  0  0  0  0  0
   -2.6410   23.7134  -21.2843 O   0  0  0  0  0  0  0  0  0  0  0  0
   -2.7126   24.1723  -22.5972 C   0  0  0  0  0  0  0  0  0  0  0  0
   -3.9651   24.9684  -22.7611 C   0  0  0  0  0  0  0  0  0  0  0  0
   -0.4288   22.5007  -26.8838 C   0  0  0  0  0  0  0  0  0  0  0  0
   -1.7943   22.3044  -26.9464 C   0  0  0  0  0  0  0  0  0  0  0  0
   -2.2414   22.7467  -28.1704 C   0  0  0  0  0  0  0  0  0  0  0  0
   -1.1547   23.1956  -28.8157 N   0  0  0  0  0  0  0  0  0  0  0  0
   -0.0811   23.0510  -28.0551 N   0  0  0  0  0  0  0  0  0  0  0  0
    0.8762   23.3346  -28.3547 H   0  0  0  0  0  0  0  0  0  0  0  0
    0.5250   22.1907  -25.7934 C   0  0  0  0  0  0  0  0  0  0  0  0
   -0.1357   22.3714  -24.4495 C   0  0  0  0  0  0  0  0  0  0  0  0
    2.5639   20.5081  -22.7011 C   0  0  0  0  0  0  0  0  0  0  0  0
    1.8773   21.2190  -23.6458 C   0  0  0  0  0  0  0  0  0  0  0  0
    0.5565   21.6072  -23.3889 C   0  0  0  0  0  0  0  0  0  0  0  0
   -0.0702   21.2912  -22.2067 C   0  0  0  0  0  0  0  0  0  0  0  0
    0.6152   20.5858  -21.2729 C   0  0  0  0  0  0  0  0  0  0  0  0
    1.9324   20.1916  -21.5142 C   0  0  0  0  0  0  0  0  0  0  0  0
    4.5770   19.3012  -21.9258 C   0  0  0  0  0  0  0  0  0  0  0  0
    3.8772   20.0744  -22.8547 O   0  0  0  0  0  0  0  0  0  0  0  0
    0.0353   20.2473  -20.0824 O   0  0  0  0  0  0  0  0  0  0  0  0
   -0.1115   18.9507  -19.5867 C   0  0  0  0  0  0  0  0  0  0  0  0
 37 38  1  0  0  0
 38 31  1  0  0  0
 31 32  2  0  0  0
 32 33  1  0  0  0
 33 30  1  0  0  0
 30 29  1  0  0  0
 29 23  1  0  0  0
 23 24  2  0  0  0
 24 25  1  0  0  0
 25  1  1  0  0  0
  1  3  1  0  0  0
  3  4  2  0  0  0
  4  5  1  0  0  0
  5  6  2  0  0  0
  6  7  1  0  0  0
  7  8  2  0  0  0
  8  9  1  0  0  0
  9 13  1  0  0  0
 13 15  1  0  0  0
 15 16  1  0  0  0
 16 17  1  0  0  0
 17 18  1  0  0  0
 18 19  1  0  0  0
 19 20  1  0  0  0
 20 21  1  0  0  0
 21 22  1  0  0  0
  9 10  2  0  0  0
 10 11  1  0  0  0
 11 12  2  0  0  0
 25 26  2  0  0  0
 26 27  1  0  0  0
 33 34  2  0  0  0
 34 35  1  0  0  0
 35 39  1  0  0  0
 39 40  1  0  0  0
 35 36  2  0  0  0
 36 31  1  0  0  0
 27 23  1  0  0  0
 12  3  1  0  0  0
 12  7  1  0  0  0
 22 17  1  0  0  0
  1  2  1  0  0  0
 13 14  1  0  0  0
 27 28  1  0  0  0
M  END
> <minimizedAffinity>
-8.43410

> <CNNscore>
0.4835032523

> <CNNaffinity>
7.2477989197

> <CNN_VS>
3.5043344498

> <CNNaffinity_variance>
0.2194928378

$$$$
[H]c1nc(N([H])c2nn([H])c(C([H])([H])C([H])([H])c3c([H])c(OC([H])([H])[H])c([H])c(OC([H])([H])[H])c3[H])c2[H])c2c([H])c([H])c(N([H])C([H])([H])C([H])([H])N3C([H])([H])C([H])([H])OC([H])([H])C3([H])[H])c([H])c2n1


 40 44  0  0  0  0  0  0  0  0999 V2000
   -3.8068   22.8743  -27.3186 N   0  0  0  0  0  0  0  0  0  0  0  0
   -4.4106   22.0760  -27.5711 H   0  0  0  0  0  0  0  0  0  0  0  0
   -2.4066   22.8723  -27.4315 C   0  0  0  0  0  0  0  0  0  0  0  0
   -1.8183   23.2585  -28.5914 N   0  0  0  0  0  0  0  0  0  0  0  0
   -0.4864   23.2871  -28.7472 C   0  0  0  0  0  0  0  0  0  0  0  0
    0.3244   22.9237  -27.7306 N   0  0  0  0  0  0  0  0  0  0  0  0
   -0.1822   22.5311  -26.5572 C   0  0  0  0  0  0  0  0  0  0  0  0
    0.6322   22.1474  -25.4979 C   0  0  0  0  0  0  0  0  0  0  0  0
    0.1506   21.7318  -24.2796 C   0  0  0  0  0  0  0  0  0  0  0  0
   -1.2197   21.7125  -24.1495 C   0  0  0  0  0  0  0  0  0  0  0  0
   -2.0639   22.0930  -25.1957 C   0  0  0  0  0  0  0  0  0  0  0  0
   -1.5542   22.5036  -26.4024 C   0  0  0  0  0  0  0  0  0  0  0  0
    0.9604   21.3331  -23.2125 N   0  0  0  0  0  0  0  0  0  0  0  0
    0.4876   21.1949  -22.2636 H   0  0  0  0  0  0  0  0  0  0  0  0
    2.3820   21.0892  -23.2581 C   0  0  0  0  0  0  0  0  0  0  0  0
    2.8143   20.2074  -22.1295 C   0  0  0  0  0  0  0  0  0  0  0  0
    3.8581   19.2762  -22.5515 N   0  0  0  0  0  0  0  0  0  0  0  0
    5.0069   19.4895  -21.7312 C   0  0  0  0  0  0  0  0  0  0  0  0
    5.9423   18.2935  -21.7293 C   0  0  0  0  0  0  0  0  0  0  0  0
    5.6289   17.4446  -22.7919 O   0  0  0  0  0  0  0  0  0  0  0  0
    4.3926   16.8700  -22.5078 C   0  0  0  0  0  0  0  0  0  0  0  0
    3.3508   17.9396  -22.5184 C   0  0  0  0  0  0  0  0  0  0  0  0
   -5.7222   25.4384  -25.6044 C   0  0  0  0  0  0  0  0  0  0  0  0
   -5.3379   24.1235  -25.7787 C   0  0  0  0  0  0  0  0  0  0  0  0
   -4.4367   24.0679  -26.8174 C   0  0  0  0  0  0  0  0  0  0  0  0
   -4.2950   25.3310  -27.2457 N   0  0  0  0  0  0  0  0  0  0  0  0
   -5.0556   26.1432  -26.5290 N   0  0  0  0  0  0  0  0  0  0  0  0
   -5.1046   27.1722  -26.6882 H   0  0  0  0  0  0  0  0  0  0  0  0
   -6.6617   26.0299  -24.6235 C   0  0  0  0  0  0  0  0  0  0  0  0
   -7.7456   25.0418  -24.2714 C   0  0  0  0  0  0  0  0  0  0  0  0
   -7.9007   25.6028  -20.6002 C   0  0  0  0  0  0  0  0  0  0  0  0
   -7.4241   25.3626  -21.8590 C   0  0  0  0  0  0  0  0  0  0  0  0
   -8.3195   25.3080  -22.9344 C   0  0  0  0  0  0  0  0  0  0  0  0
   -9.6706   25.4907  -22.7568 C   0  0  0  0  0  0  0  0  0  0  0  0
  -10.1382   25.7286  -21.5062 C   0  0  0  0  0  0  0  0  0  0  0  0
   -9.2582   25.7859  -20.4240 C   0  0  0  0  0  0  0  0  0  0  0  0
   -6.4201   24.5987  -18.8943 C   0  0  0  0  0  0  0  0  0  0  0  0
   -7.0991   25.6774  -19.4651 O   0  0  0  0  0  0  0  0  0  0  0  0
  -11.4729   25.9162  -21.2788 O   0  0  0  0  0  0  0  0  0  0  0  0
  -12.2616   26.9226  -21.8385 C   0  0  0  0  0  0  0  0  0  0  0  0
 37 38  1  0  0  0
 38 31  1  0  0  0
 31 32  2  0  0  0
 32 33  1  0  0  0
 33 30  1  0  0  0
 30 29  1  0  0  0
 29 23  1  0  0  0
 23 24  2  0  0  0
 24 25  1  0  0  0
 25  1  1  0  0  0
  1  3  1  0  0  0
  3  4  2  0  0  0
  4  5  1  0  0  0
  5  6  2  0  0  0
  6  7  1  0  0  0
  7  8  2  0  0  0
  8  9  1  0  0  0
  9 13  1  0  0  0
 13 15  1  0  0  0
 15 16  1  0  0  0
 16 17  1  0  0  0
 17 18  1  0  0  0
 18 19  1  0  0  0
 19 20  1  0  0  0
 20 21  1  0  0  0
 21 22  1  0  0  0
  9 10  2  0  0  0
 10 11  1  0  0  0
 11 12  2  0  0  0
 25 26  2  0  0  0
 26 27  1  0  0  0
 33 34  2  0  0  0
 34 35  1  0  0  0
 35 39  1  0  0  0
 39 40  1  0  0  0
 35 36  2  0  0  0
 36 31  1  0  0  0
 27 23  1  0  0  0
 12  3  1  0  0  0
 12  7  1  0  0  0
 22 17  1  0  0  0
  1  2  1  0  0  0
 13 14  1  0  0  0
 27 28  1  0  0  0
M  END
> <minimizedAffinity>
-8.33751

> <CNNscore>
0.4723186493

> <CNNaffinity>
7.0454435349

> <CNN_VS>
3.3276944160

> <CNNaffinity_variance>
0.0723651648

$$$$
[H]c1nc(N([H])c2nn([H])c(C([H])([H])C([H])([H])c3c([H])c(OC([H])([H])[H])c([H])c(OC([H])([H])[H])c3[H])c2[H])c2c([H])c([H])c(N([H])C([H])([H])C([H])([H])N3C([H])([H])C([H])([H])OC([H])([H])C3([H])[H])c([H])c2n1


 40 44  0  0  0  0  0  0  0  0999 V2000
   -3.2119   22.6673  -28.4567 N   0  0  0  0  0  0  0  0  0  0  0  0
   -3.4881   21.7607  -28.8657 H   0  0  0  0  0  0  0  0  0  0  0  0
   -4.0107   23.8225  -28.4845 C   0  0  0  0  0  0  0  0  0  0  0  0
   -3.8534   24.7332  -29.4779 N   0  0  0  0  0  0  0  0  0  0  0  0
   -4.5985   25.8455  -29.5579 C   0  0  0  0  0  0  0  0  0  0  0  0
   -5.5473   26.0958  -28.6306 N   0  0  0  0  0  0  0  0  0  0  0  0
   -5.7604   25.2448  -27.6217 C   0  0  0  0  0  0  0  0  0  0  0  0
   -6.7277   25.4835  -26.6522 C   0  0  0  0  0  0  0  0  0  0  0  0
   -6.9726   24.6376  -25.5971 C   0  0  0  0  0  0  0  0  0  0  0  0
   -6.1925   23.5047  -25.5411 C   0  0  0  0  0  0  0  0  0  0  0  0
   -5.2131   23.2371  -26.5008 C   0  0  0  0  0  0  0  0  0  0  0  0
   -4.9904   24.1010  -27.5442 C   0  0  0  0  0  0  0  0  0  0  0  0
   -7.9345   24.8741  -24.6112 N   0  0  0  0  0  0  0  0  0  0  0  0
   -8.9000   24.4374  -24.7536 H   0  0  0  0  0  0  0  0  0  0  0  0
   -7.7594   25.6561  -23.4110 C   0  0  0  0  0  0  0  0  0  0  0  0
   -8.1564   24.8771  -22.1970 C   0  0  0  0  0  0  0  0  0  0  0  0
   -7.0168   24.6575  -21.3095 N   0  0  0  0  0  0  0  0  0  0  0  0
   -7.3218   25.2316  -20.0385 C   0  0  0  0  0  0  0  0  0  0  0  0
   -6.4671   24.6521  -18.9255 C   0  0  0  0  0  0  0  0  0  0  0  0
   -5.3729   23.9778  -19.4699 O   0  0  0  0  0  0  0  0  0  0  0  0
   -5.8656   22.8406  -20.1049 C   0  0  0  0  0  0  0  0  0  0  0  0
   -6.7042   23.2628  -21.2659 C   0  0  0  0  0  0  0  0  0  0  0  0
   -0.3315   22.7429  -26.2477 C   0  0  0  0  0  0  0  0  0  0  0  0
   -1.6807   22.5578  -26.4769 C   0  0  0  0  0  0  0  0  0  0  0  0
   -1.9256   22.7576  -27.8163 C   0  0  0  0  0  0  0  0  0  0  0  0
   -0.7381   23.0556  -28.3641 N   0  0  0  0  0  0  0  0  0  0  0  0
    0.2062   23.0478  -27.4367 N   0  0  0  0  0  0  0  0  0  0  0  0
    1.2083   23.2533  -27.6370 H   0  0  0  0  0  0  0  0  0  0  0  0
    0.4392   22.6394  -24.9867 C   0  0  0  0  0  0  0  0  0  0  0  0
   -0.0358   21.4599  -24.1753 C   0  0  0  0  0  0  0  0  0  0  0  0
   -1.3334   21.4600  -20.6921 C   0  0  0  0  0  0  0  0  0  0  0  0
   -0.6478   21.1141  -21.8233 C   0  0  0  0  0  0  0  0  0  0  0  0
   -0.8003   21.8849  -22.9825 C   0  0  0  0  0  0  0  0  0  0  0  0
   -1.6245   22.9850  -23.0127 C   0  0  0  0  0  0  0  0  0  0  0  0
   -2.3024   23.3239  -21.8880 C   0  0  0  0  0  0  0  0  0  0  0  0
   -2.1608   22.5653  -20.7247 C   0  0  0  0  0  0  0  0  0  0  0  0
   -0.0958   20.1646  -18.9890 C   0  0  0  0  0  0  0  0  0  0  0  0
   -1.2535   20.7642  -19.4896 O   0  0  0  0  0  0  0  0  0  0  0  0
   -3.1339   24.4084  -21.8685 O   0  0  0  0  0  0  0  0  0  0  0  0
   -3.8176   24.9313  -22.9674 C   0  0  0  0  0  0  0  0  0  0  0  0
 37 38  1  0  0  0
 38 31  1  0  0  0
 31 32  2  0  0  0
 32 33  1  0  0  0
 33 30  1  0  0  0
 30 29  1  0  0  0
 29 23  1  0  0  0
 23 24  2  0  0  0
 24 25  1  0  0  0
 25  1  1  0  0  0
  1  3  1  0  0  0
  3  4  2  0  0  0
  4  5  1  0  0  0
  5  6  2  0  0  0
  6  7  1  0  0  0
  7  8  2  0  0  0
  8  9  1  0  0  0
  9 13  1  0  0  0
 13 15  1  0  0  0
 15 16  1  0  0  0
 16 17  1  0  0  0
 17 18  1  0  0  0
 18 19  1  0  0  0
 19 20  1  0  0  0
 20 21  1  0  0  0
 21 22  1  0  0  0
  9 10  2  0  0  0
 10 11  1  0  0  0
 11 12  2  0  0  0
 25 26  2  0  0  0
 26 27  1  0  0  0
 33 34  2  0  0  0
 34 35  1  0  0  0
 35 39  1  0  0  0
 39 40  1  0  0  0
 35 36  2  0  0  0
 36 31  1  0  0  0
 27 23  1  0  0  0
 12  3  1  0  0  0
 12  7  1  0  0  0
 22 17  1  0  0  0
  1  2  1  0  0  0
 13 14  1  0  0  0
 27 28  1  0  0  0
M  END
> <minimizedAffinity>
-8.36811

> <CNNscore>
0.4692125320

> <CNNaffinity>
7.1543149948

> <CNN_VS>
3.3568942547

> <CNNaffinity_variance>
0.2894514203

$$$$
[H]c1nc(N([H])c2nn([H])c(C([H])([H])C([H])([H])c3c([H])c(OC([H])([H])[H])c([H])c(OC([H])([H])[H])c3[H])c2[H])c2c([H])c([H])c(N([H])C([H])([H])C([H])([H])N3C([H])([H])C([H])([H])OC([H])([H])C3([H])[H])c([H])c2n1


 40 44  0  0  0  0  0  0  0  0999 V2000
   -3.7019   22.7844  -28.1745 N   0  0  0  0  0  0  0  0  0  0  0  0
   -4.1501   22.0554  -28.7517 H   0  0  0  0  0  0  0  0  0  0  0  0
   -2.3195   22.8654  -27.9378 C   0  0  0  0  0  0  0  0  0  0  0  0
   -1.4899   23.3224  -28.9091 N   0  0  0  0  0  0  0  0  0  0  0  0
   -0.1651   23.4315  -28.7303 C   0  0  0  0  0  0  0  0  0  0  0  0
    0.3924   23.0812  -27.5516 N   0  0  0  0  0  0  0  0  0  0  0  0
   -0.3610   22.6219  -26.5472 C   0  0  0  0  0  0  0  0  0  0  0  0
    0.1907   22.2501  -25.3265 C   0  0  0  0  0  0  0  0  0  0  0  0
   -0.5482   21.7678  -24.2728 C   0  0  0  0  0  0  0  0  0  0  0  0
   -1.9045   21.6666  -24.4859 C   0  0  0  0  0  0  0  0  0  0  0  0
   -2.4881   22.0331  -25.7011 C   0  0  0  0  0  0  0  0  0  0  0  0
   -1.7245   22.5117  -26.7368 C   0  0  0  0  0  0  0  0  0  0  0  0
   -0.0019   21.3805  -23.0461 N   0  0  0  0  0  0  0  0  0  0  0  0
    1.0321   21.5959  -22.8803 H   0  0  0  0  0  0  0  0  0  0  0  0
   -0.6940   20.7113  -21.9710 C   0  0  0  0  0  0  0  0  0  0  0  0
    0.2712   20.1452  -20.9780 C   0  0  0  0  0  0  0  0  0  0  0  0
    1.5652   20.8198  -21.0496 N   0  0  0  0  0  0  0  0  0  0  0  0
    1.7703   21.5264  -19.8262 C   0  0  0  0  0  0  0  0  0  0  0  0
    3.2358   21.8382  -19.5807 C   0  0  0  0  0  0  0  0  0  0  0  0
    3.9598   21.6756  -20.7629 O   0  0  0  0  0  0  0  0  0  0  0  0
    3.9778   20.3129  -21.0495 C   0  0  0  0  0  0  0  0  0  0  0  0
    2.5865   19.8675  -21.3579 C   0  0  0  0  0  0  0  0  0  0  0  0
   -6.1823   24.7447  -26.3895 C   0  0  0  0  0  0  0  0  0  0  0  0
   -5.6283   23.5352  -26.7599 C   0  0  0  0  0  0  0  0  0  0  0  0
   -4.5445   23.7836  -27.5709 C   0  0  0  0  0  0  0  0  0  0  0  0
   -4.4643   25.1184  -27.6745 N   0  0  0  0  0  0  0  0  0  0  0  0
   -5.4334   25.6885  -26.9762 N   0  0  0  0  0  0  0  0  0  0  0  0
   -5.5648   26.7208  -26.9146 H   0  0  0  0  0  0  0  0  0  0  0  0
   -7.3519   25.0272  -25.5252 C   0  0  0  0  0  0  0  0  0  0  0  0
   -6.9040   25.6089  -24.2076 C   0  0  0  0  0  0  0  0  0  0  0  0
   -6.9466   22.5733  -22.0628 C   0  0  0  0  0  0  0  0  0  0  0  0
   -7.3370   23.5639  -22.9205 C   0  0  0  0  0  0  0  0  0  0  0  0
   -6.4231   24.5625  -23.2793 C   0  0  0  0  0  0  0  0  0  0  0  0
   -5.1383   24.5726  -22.7900 C   0  0  0  0  0  0  0  0  0  0  0  0
   -4.7559   23.5878  -21.9396 C   0  0  0  0  0  0  0  0  0  0  0  0
   -5.6555   22.5854  -21.5725 C   0  0  0  0  0  0  0  0  0  0  0  0
   -8.5726   21.5644  -20.4981 C   0  0  0  0  0  0  0  0  0  0  0  0
   -7.7736   21.5358  -21.6431 O   0  0  0  0  0  0  0  0  0  0  0  0
   -3.4896   23.5549  -21.4262 O   0  0  0  0  0  0  0  0  0  0  0  0
   -2.3464   24.0654  -22.0432 C   0  0  0  0  0  0  0  0  0  0  0  0
 37 38  1  0  0  0
 38 31  1  0  0  0
 31 32  2  0  0  0
 32 33  1  0  0  0
 33 30  1  0  0  0
 30 29  1  0  0  0
 29 23  1  0  0  0
 23 24  2  0  0  0
 24 25  1  0  0  0
 25  1  1  0  0  0
  1  3  1  0  0  0
  3  4  2  0  0  0
  4  5  1  0  0  0
  5  6  2  0  0  0
  6  7  1  0  0  0
  7  8  2  0  0  0
  8  9  1  0  0  0
  9 13  1  0  0  0
 13 15  1  0  0  0
 15 16  1  0  0  0
 16 17  1  0  0  0
 17 18  1  0  0  0
 18 19  1  0  0  0
 19 20  1  0  0  0
 20 21  1  0  0  0
 21 22  1  0  0  0
  9 10  2  0  0  0
 10 11  1  0  0  0
 11 12  2  0  0  0
 25 26  2  0  0  0
 26 27  1  0  0  0
 33 34  2  0  0  0
 34 35  1  0  0  0
 35 39  1  0  0  0
 39 40  1  0  0  0
 35 36  2  0  0  0
 36 31  1  0  0  0
 27 23  1  0  0  0
 12  3  1  0  0  0
 12  7  1  0  0  0
 22 17  1  0  0  0
  1  2  1  0  0  0
 13 14  1  0  0  0
 27 28  1  0  0  0
M  END
> <minimizedAffinity>
-8.44571

> <CNNscore>
0.4414533675

> <CNNaffinity>
7.2612595558

> <CNN_VS>
3.2055075169

> <CNNaffinity_variance>
0.0894658118

$$$$
[H]c1nc(N([H])c2nn([H])c(C([H])([H])C([H])([H])c3c([H])c(OC([H])([H])[H])c([H])c(OC([H])([H])[H])c3[H])c2[H])c2c([H])c([H])c(N([H])C([H])([H])C([H])([H])N3C([H])([H])C([H])([H])OC([H])([H])C3([H])[H])c([H])c2n1


 40 44  0  0  0  0  0  0  0  0999 V2000
   -3.6719   22.7457  -28.2324 N   0  0  0  0  0  0  0  0  0  0  0  0
   -4.1492   21.9129  -28.6121 H   0  0  0  0  0  0  0  0  0  0  0  0
   -2.2876   22.8291  -28.0083 C   0  0  0  0  0  0  0  0  0  0  0  0
   -1.4660   23.2750  -28.9916 N   0  0  0  0  0  0  0  0  0  0  0  0
   -0.1398   23.3858  -28.8251 C   0  0  0  0  0  0  0  0  0  0  0  0
    0.4275   23.0486  -27.6472 N   0  0  0  0  0  0  0  0  0  0  0  0
   -0.3175   22.6008  -26.6314 C   0  0  0  0  0  0  0  0  0  0  0  0
    0.2443   22.2426  -25.4113 C   0  0  0  0  0  0  0  0  0  0  0  0
   -0.4857   21.7723  -24.3461 C   0  0  0  0  0  0  0  0  0  0  0  0
   -1.8438   21.6691  -24.5467 C   0  0  0  0  0  0  0  0  0  0  0  0
   -2.4375   22.0220  -25.7610 C   0  0  0  0  0  0  0  0  0  0  0  0
   -1.6825   22.4888  -26.8084 C   0  0  0  0  0  0  0  0  0  0  0  0
    0.0708   21.3987  -23.1197 N   0  0  0  0  0  0  0  0  0  0  0  0
    1.1326   21.4744  -23.0201 H   0  0  0  0  0  0  0  0  0  0  0  0
   -0.6451   20.9143  -21.9641 C   0  0  0  0  0  0  0  0  0  0  0  0
    0.2779   20.2308  -21.0054 C   0  0  0  0  0  0  0  0  0  0  0  0
    0.4167   20.9920  -19.7661 N   0  0  0  0  0  0  0  0  0  0  0  0
    1.8079   21.1191  -19.4719 C   0  0  0  0  0  0  0  0  0  0  0  0
    2.0930   22.2725  -18.5266 C   0  0  0  0  0  0  0  0  0  0  0  0
    0.9098   22.6854  -17.9120 O   0  0  0  0  0  0  0  0  0  0  0  0
    0.1219   23.2792  -18.8948 C   0  0  0  0  0  0  0  0  0  0  0  0
   -0.2756   22.2374  -19.8876 C   0  0  0  0  0  0  0  0  0  0  0  0
   -5.1680   25.7992  -26.9599 C   0  0  0  0  0  0  0  0  0  0  0  0
   -4.1458   24.8714  -26.9944 C   0  0  0  0  0  0  0  0  0  0  0  0
   -4.4732   23.8975  -27.9099 C   0  0  0  0  0  0  0  0  0  0  0  0
   -5.6693   24.2489  -28.4047 N   0  0  0  0  0  0  0  0  0  0  0  0
   -6.0820   25.3740  -27.8429 N   0  0  0  0  0  0  0  0  0  0  0  0
   -6.9887   25.8324  -28.0762 H   0  0  0  0  0  0  0  0  0  0  0  0
   -5.3015   27.0338  -26.1520 C   0  0  0  0  0  0  0  0  0  0  0  0
   -4.3492   27.0027  -24.9826 C   0  0  0  0  0  0  0  0  0  0  0  0
   -6.6059   24.9863  -22.8245 C   0  0  0  0  0  0  0  0  0  0  0  0
   -6.1550   25.8679  -23.7672 C   0  0  0  0  0  0  0  0  0  0  0  0
   -4.7765   26.0329  -23.9508 C   0  0  0  0  0  0  0  0  0  0  0  0
   -3.8610   25.3284  -23.2052 C   0  0  0  0  0  0  0  0  0  0  0  0
   -4.3134   24.4551  -22.2713 C   0  0  0  0  0  0  0  0  0  0  0  0
   -5.6846   24.2796  -22.0765 C   0  0  0  0  0  0  0  0  0  0  0  0
   -8.4321   23.9102  -21.5527 C   0  0  0  0  0  0  0  0  0  0  0  0
   -7.9514   24.7469  -22.5623 O   0  0  0  0  0  0  0  0  0  0  0  0
   -3.4427   23.7320  -21.5051 O   0  0  0  0  0  0  0  0  0  0  0  0
   -3.7806   22.6565  -20.6820 C   0  0  0  0  0  0  0  0  0  0  0  0
 37 38  1  0  0  0
 38 31  1  0  0  0
 31 32  2  0  0  0
 32 33  1  0  0  0
 33 30  1  0  0  0
 30 29  1  0  0  0
 29 23  1  0  0  0
 23 24  2  0  0  0
 24 25  1  0  0  0
 25  1  1  0  0  0
  1  3  1  0  0  0
  3  4  2  0  0  0
  4  5  1  0  0  0
  5  6  2  0  0  0
  6  7  1  0  0  0
  7  8  2  0  0  0
  8  9  1  0  0  0
  9 13  1  0  0  0
 13 15  1  0  0  0
 15 16  1  0  0  0
 16 17  1  0  0  0
 17 18  1  0  0  0
 18 19  1  0  0  0
 19 20  1  0  0  0
 20 21  1  0  0  0
 21 22  1  0  0  0
  9 10  2  0  0  0
 10 11  1  0  0  0
 11 12  2  0  0  0
 25 26  2  0  0  0
 26 27  1  0  0  0
 33 34  2  0  0  0
 34 35  1  0  0  0
 35 39  1  0  0  0
 39 40  1  0  0  0
 35 36  2  0  0  0
 36 31  1  0  0  0
 27 23  1  0  0  0
 12  3  1  0  0  0
 12  7  1  0  0  0
 22 17  1  0  0  0
  1  2  1  0  0  0
 13 14  1  0  0  0
 27 28  1  0  0  0
M  END
> <minimizedAffinity>
-8.39716

> <CNNscore>
0.3795301914

> <CNNaffinity>
7.1479110718

> <CNN_VS>
2.7128479481

> <CNNaffinity_variance>
0.2285535336

$$$$
[H]c1nc(N([H])[H])c(-c2nn(-c3c([H])c([H])c([H])c(OC([H])([H])[H])c3C(F)(F)F)c(=O)c([H])c2[H])nc1-c1c([H])nn(C([H])([H])[H])c1[H]


 34 37  0  0  0  0  0  0  0  0999 V2000
   -5.6603   23.8073  -25.4784 N   0  0  0  0  0  0  0  0  0  0  0  0
   -4.3718   23.5135  -25.4580 N   0  0  0  0  0  0  0  0  0  0  0  0
   -3.6584   23.1501  -26.5126 C   0  0  0  0  0  0  0  0  0  0  0  0
   -4.3085   23.0694  -27.7387 C   0  0  0  0  0  0  0  0  0  0  0  0
   -5.6528   23.3636  -27.8257 C   0  0  0  0  0  0  0  0  0  0  0  0
   -6.3083   23.7353  -26.6558 C   0  0  0  0  0  0  0  0  0  0  0  0
   -7.5329   24.0092  -26.7037 O   0  0  0  0  0  0  0  0  0  0  0  0
   -2.2370   22.8308  -26.4645 C   0  0  0  0  0  0  0  0  0  0  0  0
   -1.6287   22.4277  -25.3394 N   0  0  0  0  0  0  0  0  0  0  0  0
   -0.3033   22.1336  -25.3097 C   0  0  0  0  0  0  0  0  0  0  0  0
    0.4477   22.2498  -26.4662 C   0  0  0  0  0  0  0  0  0  0  0  0
   -0.1443   22.6528  -27.6060 N   0  0  0  0  0  0  0  0  0  0  0  0
   -1.4801   22.9428  -27.6091 C   0  0  0  0  0  0  0  0  0  0  0  0
   -2.1316   23.3715  -28.8020 N   0  0  0  0  0  0  0  0  0  0  0  0
   -2.5249   22.7306  -29.4999 H   0  0  0  0  0  0  0  0  0  0  0  0
   -2.2003   24.4036  -28.9519 H   0  0  0  0  0  0  0  0  0  0  0  0
    0.3516   21.6968  -24.0864 C   0  0  0  0  0  0  0  0  0  0  0  0
   -0.2615   21.4653  -22.8793 C   0  0  0  0  0  0  0  0  0  0  0  0
    0.6942   21.0770  -22.0091 N   0  0  0  0  0  0  0  0  0  0  0  0
    1.8635   21.0479  -22.5832 N   0  0  0  0  0  0  0  0  0  0  0  0
    3.1115   20.6796  -21.9565 C   0  0  0  0  0  0  0  0  0  0  0  0
    1.6861   21.4285  -23.8779 C   0  0  0  0  0  0  0  0  0  0  0  0
   -7.5232   23.8866  -22.2215 C   0  0  0  0  0  0  0  0  0  0  0  0
   -7.8628   25.2158  -22.1753 C   0  0  0  0  0  0  0  0  0  0  0  0
   -7.4970   26.0772  -23.1845 C   0  0  0  0  0  0  0  0  0  0  0  0
   -6.7925   25.5659  -24.2198 C   0  0  0  0  0  0  0  0  0  0  0  0
   -6.4084   24.2165  -24.3364 C   0  0  0  0  0  0  0  0  0  0  0  0
   -6.7909   23.3858  -23.3109 C   0  0  0  0  0  0  0  0  0  0  0  0
   -6.4573   21.9575  -23.2955 C   0  0  0  0  0  0  0  0  0  0  0  0
   -5.3530   21.6942  -22.4740 F   0  0  0  0  0  0  0  0  0  0  0  0
   -7.5063   21.2879  -22.6184 F   0  0  0  0  0  0  0  0  0  0  0  0
   -6.3855   21.3327  -24.5034 F   0  0  0  0  0  0  0  0  0  0  0  0
   -8.9033   23.1930  -20.3076 C   0  0  0  0  0  0  0  0  0  0  0  0
   -7.8741   22.9981  -21.2273 O   0  0  0  0  0  0  0  0  0  0  0  0
 33 34  1  0  0  0
 34 23  1  0  0  0
 23 24  2  0  0  0
 24 25  1  0  0  0
 25 26  2  0  0  0
 26 27  1  0  0  0
 27 28  2  0  0  0
 28 29  1  0  0  0
 29 30  1  0  0  0
 29 31  1  0  0  0
 29 32  1  0  0  0
 27  1  1  0  0  0
  1  2  1  0  0  0
  2  3  2  0  0  0
  3  4  1  0  0  0
  4  5  2  0  0  0
  5  6  1  0  0  0
  6  7  2  0  0  0
  3  8  1  0  0  0
  8  9  2  0  0  0
  9 10  1  0  0  0
 10 11  2  0  0  0
 11 12  1  0  0  0
 12 13  2  0  0  0
 13 14  1  0  0  0
 10 17  1  0  0  0
 17 18  1  0  0  0
 18 19  2  0  0  0
 19 20  1  0  0  0
 20 21  1  0  0  0
 20 22  1  0  0  0
 28 23  1  0  0  0
  6  1  1  0  0  0
 13  8  1  0  0  0
 22 17  2  0  0  0
 14 15  1  0  0  0
 14 16  1  0  0  0
M  END
> <minimizedAffinity>
-9.01680

> <CNNscore>
0.8900446296

> <CNNaffinity>
7.7197923660

> <CNN_VS>
6.8709597588

> <CNNaffinity_variance>
0.1840097010

$$$$
[H]c1nc(N([H])[H])c(-c2nn(-c3c([H])c([H])c([H])c(OC([H])([H])[H])c3C(F)(F)F)c(=O)c([H])c2[H])nc1-c1c([H])nn(C([H])([H])[H])c1[H]


 34 37  0  0  0  0  0  0  0  0999 V2000
   -5.2630   23.3121  -25.5490 N   0  0  0  0  0  0  0  0  0  0  0  0
   -3.9607   23.0955  -25.4863 N   0  0  0  0  0  0  0  0  0  0  0  0
   -3.1690   22.9149  -26.5321 C   0  0  0  0  0  0  0  0  0  0  0  0
   -3.7456   22.9550  -27.7964 C   0  0  0  0  0  0  0  0  0  0  0  0
   -5.0999   23.1773  -27.9285 C   0  0  0  0  0  0  0  0  0  0  0  0
   -5.8407   23.3547  -26.7639 C   0  0  0  0  0  0  0  0  0  0  0  0
   -7.0765   23.5590  -26.8524 O   0  0  0  0  0  0  0  0  0  0  0  0
   -1.7340   22.6773  -26.4369 C   0  0  0  0  0  0  0  0  0  0  0  0
   -1.1473   22.2664  -25.3032 N   0  0  0  0  0  0  0  0  0  0  0  0
    0.1911   22.0491  -25.2294 C   0  0  0  0  0  0  0  0  0  0  0  0
    0.9786   22.2543  -26.3487 C   0  0  0  0  0  0  0  0  0  0  0  0
    0.4088   22.6667  -27.4964 N   0  0  0  0  0  0  0  0  0  0  0  0
   -0.9408   22.8782  -27.5441 C   0  0  0  0  0  0  0  0  0  0  0  0
   -1.5695   23.3149  -28.7464 N   0  0  0  0  0  0  0  0  0  0  0  0
   -1.8961   22.6801  -29.4833 H   0  0  0  0  0  0  0  0  0  0  0  0
   -1.6939   24.3463  -28.8607 H   0  0  0  0  0  0  0  0  0  0  0  0
    0.8224   21.6034  -23.9970 C   0  0  0  0  0  0  0  0  0  0  0  0
    0.1969   21.4223  -22.7877 C   0  0  0  0  0  0  0  0  0  0  0  0
    1.1317   21.0046  -21.9083 N   0  0  0  0  0  0  0  0  0  0  0  0
    2.2994   20.9104  -22.4788 N   0  0  0  0  0  0  0  0  0  0  0  0
    3.5275   20.4946  -21.8425 C   0  0  0  0  0  0  0  0  0  0  0  0
    2.1425   21.2761  -23.7803 C   0  0  0  0  0  0  0  0  0  0  0  0
   -7.3307   24.8625  -22.8278 C   0  0  0  0  0  0  0  0  0  0  0  0
   -7.7462   23.7304  -22.1720 C   0  0  0  0  0  0  0  0  0  0  0  0
   -7.3621   22.4804  -22.6011 C   0  0  0  0  0  0  0  0  0  0  0  0
   -6.5625   22.4102  -23.6899 C   0  0  0  0  0  0  0  0  0  0  0  0
   -6.0970   23.5248  -24.4130 C   0  0  0  0  0  0  0  0  0  0  0  0
   -6.5002   24.7563  -23.9560 C   0  0  0  0  0  0  0  0  0  0  0  0
   -6.0967   26.0046  -24.6121 C   0  0  0  0  0  0  0  0  0  0  0  0
   -4.7734   25.9433  -25.0690 F   0  0  0  0  0  0  0  0  0  0  0  0
   -6.8311   26.1014  -25.8198 F   0  0  0  0  0  0  0  0  0  0  0  0
   -6.3811   27.1620  -23.9532 F   0  0  0  0  0  0  0  0  0  0  0  0
   -8.0093   26.4910  -21.1143 C   0  0  0  0  0  0  0  0  0  0  0  0
   -7.6976   26.1286  -22.4236 O   0  0  0  0  0  0  0  0  0  0  0  0
 33 34  1  0  0  0
 34 23  1  0  0  0
 23 24  2  0  0  0
 24 25  1  0  0  0
 25 26  2  0  0  0
 26 27  1  0  0  0
 27 28  2  0  0  0
 28 29  1  0  0  0
 29 30  1  0  0  0
 29 31  1  0  0  0
 29 32  1  0  0  0
 27  1  1  0  0  0
  1  2  1  0  0  0
  2  3  2  0  0  0
  3  4  1  0  0  0
  4  5  2  0  0  0
  5  6  1  0  0  0
  6  7  2  0  0  0
  3  8  1  0  0  0
  8  9  2  0  0  0
  9 10  1  0  0  0
 10 11  2  0  0  0
 11 12  1  0  0  0
 12 13  2  0  0  0
 13 14  1  0  0  0
 10 17  1  0  0  0
 17 18  1  0  0  0
 18 19  2  0  0  0
 19 20  1  0  0  0
 20 21  1  0  0  0
 20 22  1  0  0  0
 28 23  1  0  0  0
  6  1  1  0  0  0
 13  8  1  0  0  0
 22 17  2  0  0  0
 14 15  1  0  0  0
 14 16  1  0  0  0
M  END
> <minimizedAffinity>
-8.62351

> <CNNscore>
0.7570939660

> <CNNaffinity>
7.5508131981

> <CNN_VS>
5.7166752815

> <CNNaffinity_variance>
0.2189651728

$$$$
[H]c1nc(N([H])[H])c(-c2nn(-c3c([H])c([H])c([H])c(OC([H])([H])[H])c3C(F)(F)F)c(=O)c([H])c2[H])nc1-c1c([H])nn(C([H])([H])[H])c1[H]


 34 37  0  0  0  0  0  0  0  0999 V2000
    0.3312   21.1216  -21.0546 N   0  0  0  0  0  0  0  0  0  0  0  0
    0.2830   21.3578  -22.3542 N   0  0  0  0  0  0  0  0  0  0  0  0
   -0.7969   21.7413  -23.0175 C   0  0  0  0  0  0  0  0  0  0  0  0
   -1.9740   21.9104  -22.2976 C   0  0  0  0  0  0  0  0  0  0  0  0
   -1.9887   21.6796  -20.9383 C   0  0  0  0  0  0  0  0  0  0  0  0
   -0.7980   21.2796  -20.3394 C   0  0  0  0  0  0  0  0  0  0  0  0
   -0.7804   21.0619  -19.1028 O   0  0  0  0  0  0  0  0  0  0  0  0
   -0.8247   21.9958  -24.4525 C   0  0  0  0  0  0  0  0  0  0  0  0
   -1.9549   22.3021  -25.1061 N   0  0  0  0  0  0  0  0  0  0  0  0
   -1.9655   22.5367  -26.4437 C   0  0  0  0  0  0  0  0  0  0  0  0
   -0.7836   22.4601  -27.1594 C   0  0  0  0  0  0  0  0  0  0  0  0
    0.3616   22.1541  -26.5216 N   0  0  0  0  0  0  0  0  0  0  0  0
    0.3451   21.9224  -25.1746 C   0  0  0  0  0  0  0  0  0  0  0  0
    1.5432   21.5966  -24.4749 N   0  0  0  0  0  0  0  0  0  0  0  0
    2.1898   22.2958  -24.0930 H   0  0  0  0  0  0  0  0  0  0  0  0
    1.7536   20.5798  -24.3566 H   0  0  0  0  0  0  0  0  0  0  0  0
   -3.1943   22.8685  -27.1479 C   0  0  0  0  0  0  0  0  0  0  0  0
   -4.4045   23.1615  -26.5682 C   0  0  0  0  0  0  0  0  0  0  0  0
   -5.2797   23.4109  -27.5650 N   0  0  0  0  0  0  0  0  0  0  0  0
   -4.7057   23.2956  -28.7290 N   0  0  0  0  0  0  0  0  0  0  0  0
   -5.3369   23.4904  -30.0133 C   0  0  0  0  0  0  0  0  0  0  0  0
   -3.4061   22.9585  -28.5057 C   0  0  0  0  0  0  0  0  0  0  0  0
    3.0929   19.1423  -19.4612 C   0  0  0  0  0  0  0  0  0  0  0  0
    3.8581   20.1654  -18.9590 C   0  0  0  0  0  0  0  0  0  0  0  0
    3.4866   21.4795  -19.1304 C   0  0  0  0  0  0  0  0  0  0  0  0
    2.3429   21.7236  -19.8101 C   0  0  0  0  0  0  0  0  0  0  0  0
    1.5080   20.7288  -20.3533 C   0  0  0  0  0  0  0  0  0  0  0  0
    1.9098   19.4286  -20.1628 C   0  0  0  0  0  0  0  0  0  0  0  0
    1.1420   18.2893  -20.6765 C   0  0  0  0  0  0  0  0  0  0  0  0
    1.9318   17.4536  -21.4774 F   0  0  0  0  0  0  0  0  0  0  0  0
    0.8386   17.4546  -19.5727 F   0  0  0  0  0  0  0  0  0  0  0  0
   -0.0710   18.5681  -21.2292 F   0  0  0  0  0  0  0  0  0  0  0  0
    4.7400   17.3382  -19.1766 C   0  0  0  0  0  0  0  0  0  0  0  0
    3.4371   17.8162  -19.3068 O   0  0  0  0  0  0  0  0  0  0  0  0
 33 34  1  0  0  0
 34 23  1  0  0  0
 23 24  2  0  0  0
 24 25  1  0  0  0
 25 26  2  0  0  0
 26 27  1  0  0  0
 27 28  2  0  0  0
 28 29  1  0  0  0
 29 30  1  0  0  0
 29 31  1  0  0  0
 29 32  1  0  0  0
 27  1  1  0  0  0
  1  2  1  0  0  0
  2  3  2  0  0  0
  3  4  1  0  0  0
  4  5  2  0  0  0
  5  6  1  0  0  0
  6  7  2  0  0  0
  3  8  1  0  0  0
  8  9  2  0  0  0
  9 10  1  0  0  0
 10 11  2  0  0  0
 11 12  1  0  0  0
 12 13  2  0  0  0
 13 14  1  0  0  0
 10 17  1  0  0  0
 17 18  1  0  0  0
 18 19  2  0  0  0
 19 20  1  0  0  0
 20 21  1  0  0  0
 20 22  1  0  0  0
 28 23  1  0  0  0
  6  1  1  0  0  0
 13  8  1  0  0  0
 22 17  2  0  0  0
 14 15  1  0  0  0
 14 16  1  0  0  0
M  END
> <minimizedAffinity>
-7.42629

> <CNNscore>
0.5421273112

> <CNNaffinity>
6.8740053177

> <CNN_VS>
3.7265861034

> <CNNaffinity_variance>
0.1965133399

$$$$
[H]c1nc(N([H])[H])c(-c2nn(-c3c([H])c([H])c([H])c(OC([H])([H])[H])c3C(F)(F)F)c(=O)c([H])c2[H])nc1-c1c([H])nn(C([H])([H])[H])c1[H]


 34 37  0  0  0  0  0  0  0  0999 V2000
    0.0070   20.8435  -21.5995 N   0  0  0  0  0  0  0  0  0  0  0  0
   -0.4007   21.0859  -22.8331 N   0  0  0  0  0  0  0  0  0  0  0  0
   -1.0609   22.1677  -23.2167 C   0  0  0  0  0  0  0  0  0  0  0  0
   -1.3509   23.1261  -22.2525 C   0  0  0  0  0  0  0  0  0  0  0  0
   -0.9523   22.9317  -20.9469 C   0  0  0  0  0  0  0  0  0  0  0  0
   -0.2637   21.7592  -20.6510 C   0  0  0  0  0  0  0  0  0  0  0  0
    0.1122   21.5542  -19.4705 O   0  0  0  0  0  0  0  0  0  0  0  0
   -1.5003   22.4123  -24.5848 C   0  0  0  0  0  0  0  0  0  0  0  0
   -2.7526   22.7900  -24.8807 N   0  0  0  0  0  0  0  0  0  0  0  0
   -3.1477   23.0144  -26.1604 C   0  0  0  0  0  0  0  0  0  0  0  0
   -2.2410   22.8517  -27.1931 C   0  0  0  0  0  0  0  0  0  0  0  0
   -0.9791   22.4731  -26.9169 N   0  0  0  0  0  0  0  0  0  0  0  0
   -0.6068   22.2536  -25.6201 C   0  0  0  0  0  0  0  0  0  0  0  0
    0.7227   21.8522  -25.3000 N   0  0  0  0  0  0  0  0  0  0  0  0
    1.4965   22.5085  -25.1475 H   0  0  0  0  0  0  0  0  0  0  0  0
    0.8944   20.8243  -25.2214 H   0  0  0  0  0  0  0  0  0  0  0  0
   -4.5074   23.4238  -26.4759 C   0  0  0  0  0  0  0  0  0  0  0  0
   -5.0839   23.4215  -27.7225 C   0  0  0  0  0  0  0  0  0  0  0  0
   -6.3488   23.8709  -27.5831 N   0  0  0  0  0  0  0  0  0  0  0  0
   -6.6081   24.1551  -26.3382 N   0  0  0  0  0  0  0  0  0  0  0  0
   -7.8592   24.6593  -25.8221 C   0  0  0  0  0  0  0  0  0  0  0  0
   -5.4824   23.8882  -25.6213 C   0  0  0  0  0  0  0  0  0  0  0  0
    2.7283   18.3672  -20.8602 C   0  0  0  0  0  0  0  0  0  0  0  0
    1.9757   17.3251  -20.3787 C   0  0  0  0  0  0  0  0  0  0  0  0
    0.6051   17.4188  -20.2952 C   0  0  0  0  0  0  0  0  0  0  0  0
    0.0300   18.5728  -20.7041 C   0  0  0  0  0  0  0  0  0  0  0  0
    0.7348   19.6823  -21.2082 C   0  0  0  0  0  0  0  0  0  0  0  0
    2.1011   19.5532  -21.2774 C   0  0  0  0  0  0  0  0  0  0  0  0
    2.9641   20.6288  -21.7771 C   0  0  0  0  0  0  0  0  0  0  0  0
    3.5204   21.3735  -20.7285 F   0  0  0  0  0  0  0  0  0  0  0  0
    4.1047   20.0186  -22.3550 F   0  0  0  0  0  0  0  0  0  0  0  0
    2.4583   21.4060  -22.7744 F   0  0  0  0  0  0  0  0  0  0  0  0
    4.9681   18.0559  -19.8930 C   0  0  0  0  0  0  0  0  0  0  0  0
    4.1023   18.3052  -20.9566 O   0  0  0  0  0  0  0  0  0  0  0  0
 33 34  1  0  0  0
 34 23  1  0  0  0
 23 24  2  0  0  0
 24 25  1  0  0  0
 25 26  2  0  0  0
 26 27  1  0  0  0
 27 28  2  0  0  0
 28 29  1  0  0  0
 29 30  1  0  0  0
 29 31  1  0  0  0
 29 32  1  0  0  0
 27  1  1  0  0  0
  1  2  1  0  0  0
  2  3  2  0  0  0
  3  4  1  0  0  0
  4  5  2  0  0  0
  5  6  1  0  0  0
  6  7  2  0  0  0
  3  8  1  0  0  0
  8  9  2  0  0  0
  9 10  1  0  0  0
 10 11  2  0  0  0
 11 12  1  0  0  0
 12 13  2  0  0  0
 13 14  1  0  0  0
 10 17  1  0  0  0
 17 18  1  0  0  0
 18 19  2  0  0  0
 19 20  1  0  0  0
 20 21  1  0  0  0
 20 22  1  0  0  0
 28 23  1  0  0  0
  6  1  1  0  0  0
 13  8  1  0  0  0
 22 17  2  0  0  0
 14 15  1  0  0  0
 14 16  1  0  0  0
M  END
> <minimizedAffinity>
-7.63220

> <CNNscore>
0.4074087143

> <CNNaffinity>
6.7980546951

> <CNN_VS>
2.7695868015

> <CNNaffinity_variance>
0.2198031396

$$$$
[H]c1nc(N([H])[H])c(-c2nn(-c3c([H])c([H])c([H])c(OC([H])([H])[H])c3C(F)(F)F)c(=O)c([H])c2[H])nc1-c1c([H])nn(C([H])([H])[H])c1[H]


 34 37  0  0  0  0  0  0  0  0999 V2000
   -3.7713   23.2131  -25.0613 N   0  0  0  0  0  0  0  0  0  0  0  0
   -2.5342   22.9624  -24.6694 N   0  0  0  0  0  0  0  0  0  0  0  0
   -2.1568   21.8976  -23.9788 C   0  0  0  0  0  0  0  0  0  0  0  0
   -3.1318   20.9678  -23.6364 C   0  0  0  0  0  0  0  0  0  0  0  0
   -4.4415   21.1723  -24.0161 C   0  0  0  0  0  0  0  0  0  0  0  0
   -4.7303   22.3252  -24.7399 C   0  0  0  0  0  0  0  0  0  0  0  0
   -5.9143   22.5387  -25.0997 O   0  0  0  0  0  0  0  0  0  0  0  0
   -0.7846   21.6432  -23.5578 C   0  0  0  0  0  0  0  0  0  0  0  0
   -0.4700   21.3073  -22.2982 N   0  0  0  0  0  0  0  0  0  0  0  0
    0.8132   21.0733  -21.9204 C   0  0  0  0  0  0  0  0  0  0  0  0
    1.8298   21.1817  -22.8531 C   0  0  0  0  0  0  0  0  0  0  0  0
    1.5347   21.5178  -24.1227 N   0  0  0  0  0  0  0  0  0  0  0  0
    0.2347   21.7482  -24.4772 C   0  0  0  0  0  0  0  0  0  0  0  0
   -0.1052   22.1054  -25.8144 N   0  0  0  0  0  0  0  0  0  0  0  0
   -0.2858   21.4235  -26.5594 H   0  0  0  0  0  0  0  0  0  0  0  0
   -0.1682   23.1274  -26.0234 H   0  0  0  0  0  0  0  0  0  0  0  0
    1.1490   20.7093  -20.5527 C   0  0  0  0  0  0  0  0  0  0  0  0
    0.7233   19.5856  -19.8873 C   0  0  0  0  0  0  0  0  0  0  0  0
    1.2566   19.6240  -18.6481 N   0  0  0  0  0  0  0  0  0  0  0  0
    1.9868   20.6912  -18.4877 N   0  0  0  0  0  0  0  0  0  0  0  0
    2.7073   21.0587  -17.2911 C   0  0  0  0  0  0  0  0  0  0  0  0
    1.9414   21.3895  -19.6550 C   0  0  0  0  0  0  0  0  0  0  0  0
   -4.5803   25.5849  -27.8549 C   0  0  0  0  0  0  0  0  0  0  0  0
   -4.9567   26.6871  -27.1282 C   0  0  0  0  0  0  0  0  0  0  0  0
   -4.9477   26.6666  -25.7521 C   0  0  0  0  0  0  0  0  0  0  0  0
   -4.5554   25.5232  -25.1451 C   0  0  0  0  0  0  0  0  0  0  0  0
   -4.1565   24.3551  -25.8220 C   0  0  0  0  0  0  0  0  0  0  0  0
   -4.1776   24.4119  -27.1948 C   0  0  0  0  0  0  0  0  0  0  0  0
   -3.7925   23.2700  -28.0309 C   0  0  0  0  0  0  0  0  0  0  0  0
   -4.8949   22.7303  -28.7071 F   0  0  0  0  0  0  0  0  0  0  0  0
   -3.0016   23.7739  -29.0928 F   0  0  0  0  0  0  0  0  0  0  0  0
   -3.0069   22.3222  -27.4484 F   0  0  0  0  0  0  0  0  0  0  0  0
   -5.6763   25.8740  -30.0375 C   0  0  0  0  0  0  0  0  0  0  0  0
   -4.5781   25.5730  -29.2336 O   0  0  0  0  0  0  0  0  0  0  0  0
 33 34  1  0  0  0
 34 23  1  0  0  0
 23 24  2  0  0  0
 24 25  1  0  0  0
 25 26  2  0  0  0
 26 27  1  0  0  0
 27 28  2  0  0  0
 28 29  1  0  0  0
 29 30  1  0  0  0
 29 31  1  0  0  0
 29 32  1  0  0  0
 27  1  1  0  0  0
  1  2  1  0  0  0
  2  3  2  0  0  0
  3  4  1  0  0  0
  4  5  2  0  0  0
  5  6  1  0  0  0
  6  7  2  0  0  0
  3  8  1  0  0  0
  8  9  2  0  0  0
  9 10  1  0  0  0
 10 11  2  0  0  0
 11 12  1  0  0  0
 12 13  2  0  0  0
 13 14  1  0  0  0
 10 17  1  0  0  0
 17 18  1  0  0  0
 18 19  2  0  0  0
 19 20  1  0  0  0
 20 21  1  0  0  0
 20 22  1  0  0  0
 28 23  1  0  0  0
  6  1  1  0  0  0
 13  8  1  0  0  0
 22 17  2  0  0  0
 14 15  1  0  0  0
 14 16  1  0  0  0
M  END
> <minimizedAffinity>
-8.17867

> <CNNscore>
0.3593448997

> <CNNaffinity>
7.0420227051

> <CNN_VS>
2.5305149555

> <CNNaffinity_variance>
0.1764026433

$$$$
[H]c1nc(N([H])[H])c(-c2nn(-c3c([H])c([H])c([H])c(OC([H])([H])[H])c3C(F)(F)F)c(=O)c([H])c2[H])nc1-c1c([H])nn(C([H])([H])[H])c1[H]


 34 37  0  0  0  0  0  0  0  0999 V2000
   -3.5848   23.7795  -25.6806 N   0  0  0  0  0  0  0  0  0  0  0  0
   -2.6360   23.3308  -24.8772 N   0  0  0  0  0  0  0  0  0  0  0  0
   -1.7244   22.4290  -25.2070 C   0  0  0  0  0  0  0  0  0  0  0  0
   -1.7626   21.9099  -26.4960 C   0  0  0  0  0  0  0  0  0  0  0  0
   -2.7286   22.3377  -27.3820 C   0  0  0  0  0  0  0  0  0  0  0  0
   -3.6390   23.2896  -26.9330 C   0  0  0  0  0  0  0  0  0  0  0  0
   -4.5304   23.6985  -27.7173 O   0  0  0  0  0  0  0  0  0  0  0  0
   -0.6870   21.9498  -24.3021 C   0  0  0  0  0  0  0  0  0  0  0  0
   -0.9694   21.4030  -23.1105 N   0  0  0  0  0  0  0  0  0  0  0  0
    0.0079   20.9608  -22.2778 C   0  0  0  0  0  0  0  0  0  0  0  0
    1.3331   21.0731  -22.6604 C   0  0  0  0  0  0  0  0  0  0  0  0
    1.6373   21.6189  -23.8526 N   0  0  0  0  0  0  0  0  0  0  0  0
    0.6347   22.0563  -24.6723 C   0  0  0  0  0  0  0  0  0  0  0  0
    0.9290   22.6381  -25.9397 N   0  0  0  0  0  0  0  0  0  0  0  0
    1.0562   22.0959  -26.8014 H   0  0  0  0  0  0  0  0  0  0  0  0
    1.0153   23.6793  -25.9672 H   0  0  0  0  0  0  0  0  0  0  0  0
   -0.3039   20.3685  -20.9862 C   0  0  0  0  0  0  0  0  0  0  0  0
    0.1850   19.1795  -20.5029 C   0  0  0  0  0  0  0  0  0  0  0  0
   -0.3466   18.9933  -19.2764 N   0  0  0  0  0  0  0  0  0  0  0  0
   -1.1341   19.9803  -18.9549 N   0  0  0  0  0  0  0  0  0  0  0  0
   -1.8710   20.1150  -17.7200 C   0  0  0  0  0  0  0  0  0  0  0  0
   -1.1304   20.8548  -19.9978 C   0  0  0  0  0  0  0  0  0  0  0  0
   -6.5578   25.5676  -24.2497 C   0  0  0  0  0  0  0  0  0  0  0  0
   -6.3038   26.8417  -24.6930 C   0  0  0  0  0  0  0  0  0  0  0  0
   -5.1869   27.1211  -25.4472 C   0  0  0  0  0  0  0  0  0  0  0  0
   -4.3521   26.0962  -25.7338 C   0  0  0  0  0  0  0  0  0  0  0  0
   -4.5460   24.7662  -25.3150 C   0  0  0  0  0  0  0  0  0  0  0  0
   -5.6713   24.5241  -24.5643 C   0  0  0  0  0  0  0  0  0  0  0  0
   -5.9997   23.1882  -24.0555 C   0  0  0  0  0  0  0  0  0  0  0  0
   -5.8694   22.2104  -25.0508 F   0  0  0  0  0  0  0  0  0  0  0  0
   -4.9827   22.8257  -23.1383 F   0  0  0  0  0  0  0  0  0  0  0  0
   -7.1529   23.0721  -23.3404 F   0  0  0  0  0  0  0  0  0  0  0  0
   -8.0323   25.8922  -22.3081 C   0  0  0  0  0  0  0  0  0  0  0  0
   -7.6670   25.2549  -23.4927 O   0  0  0  0  0  0  0  0  0  0  0  0
 33 34  1  0  0  0
 34 23  1  0  0  0
 23 24  2  0  0  0
 24 25  1  0  0  0
 25 26  2  0  0  0
 26 27  1  0  0  0
 27 28  2  0  0  0
 28 29  1  0  0  0
 29 30  1  0  0  0
 29 31  1  0  0  0
 29 32  1  0  0  0
 27  1  1  0  0  0
  1  2  1  0  0  0
  2  3  2  0  0  0
  3  4  1  0  0  0
  4  5  2  0  0  0
  5  6  1  0  0  0
  6  7  2  0  0  0
  3  8  1  0  0  0
  8  9  2  0  0  0
  9 10  1  0  0  0
 10 11  2  0  0  0
 11 12  1  0  0  0
 12 13  2  0  0  0
 13 14  1  0  0  0
 10 17  1  0  0  0
 17 18  1  0  0  0
 18 19  2  0  0  0
 19 20  1  0  0  0
 20 21  1  0  0  0
 20 22  1  0  0  0
 28 23  1  0  0  0
  6  1  1  0  0  0
 13  8  1  0  0  0
 22 17  2  0  0  0
 14 15  1  0  0  0
 14 16  1  0  0  0
M  END
> <minimizedAffinity>
-8.47942

> <CNNscore>
0.3390151858

> <CNNaffinity>
6.8860449791

> <CNN_VS>
2.3344738483

> <CNNaffinity_variance>
0.0483277366

$$$$
[H]c1nc(N([H])[H])c(-c2nn(-c3c([H])c([H])c([H])c(OC([H])([H])[H])c3C(F)(F)F)c(=O)c([H])c2[H])nc1-c1c([H])nn(C([H])([H])[H])c1[H]


 34 37  0  0  0  0  0  0  0  0999 V2000
   -4.7480   23.1217  -21.9010 N   0  0  0  0  0  0  0  0  0  0  0  0
   -4.3374   22.7915  -23.1132 N   0  0  0  0  0  0  0  0  0  0  0  0
   -4.0338   23.6513  -24.0733 C   0  0  0  0  0  0  0  0  0  0  0  0
   -4.1541   25.0072  -23.7913 C   0  0  0  0  0  0  0  0  0  0  0  0
   -4.5778   25.4160  -22.5445 C   0  0  0  0  0  0  0  0  0  0  0  0
   -4.8710   24.4295  -21.6078 C   0  0  0  0  0  0  0  0  0  0  0  0
   -5.2592   24.7713  -20.4635 O   0  0  0  0  0  0  0  0  0  0  0  0
   -3.5827   23.2620  -25.4035 C   0  0  0  0  0  0  0  0  0  0  0  0
   -4.2045   23.6674  -26.5204 N   0  0  0  0  0  0  0  0  0  0  0  0
   -3.7727   23.2966  -27.7533 C   0  0  0  0  0  0  0  0  0  0  0  0
   -2.6623   22.4789  -27.8702 C   0  0  0  0  0  0  0  0  0  0  0  0
   -2.0241   22.0612  -26.7611 N   0  0  0  0  0  0  0  0  0  0  0  0
   -2.4792   22.4489  -25.5318 C   0  0  0  0  0  0  0  0  0  0  0  0
   -1.8222   22.0210  -24.3416 N   0  0  0  0  0  0  0  0  0  0  0  0
   -1.0238   22.5104  -23.9224 H   0  0  0  0  0  0  0  0  0  0  0  0
   -2.1937   21.1559  -23.8879 H   0  0  0  0  0  0  0  0  0  0  0  0
   -4.4509   23.7392  -28.9617 C   0  0  0  0  0  0  0  0  0  0  0  0
   -5.2597   22.9705  -29.7626 C   0  0  0  0  0  0  0  0  0  0  0  0
   -5.6879   23.7542  -30.7745 N   0  0  0  0  0  0  0  0  0  0  0  0
   -5.2060   24.9600  -30.6664 N   0  0  0  0  0  0  0  0  0  0  0  0
   -5.4524   26.0601  -31.5691 C   0  0  0  0  0  0  0  0  0  0  0  0
   -4.4311   24.9852  -29.5478 C   0  0  0  0  0  0  0  0  0  0  0  0
   -6.4802   20.6807  -19.6373 C   0  0  0  0  0  0  0  0  0  0  0  0
   -5.4403   20.3515  -18.8039 C   0  0  0  0  0  0  0  0  0  0  0  0
   -4.1942   20.9122  -18.9686 C   0  0  0  0  0  0  0  0  0  0  0  0
   -4.0338   21.7967  -19.9793 C   0  0  0  0  0  0  0  0  0  0  0  0
   -5.0511   22.1827  -20.8727 C   0  0  0  0  0  0  0  0  0  0  0  0
   -6.2818   21.6031  -20.6782 C   0  0  0  0  0  0  0  0  0  0  0  0
   -7.4334   21.9067  -21.5344 C   0  0  0  0  0  0  0  0  0  0  0  0
   -7.5842   23.2866  -21.7265 F   0  0  0  0  0  0  0  0  0  0  0  0
   -7.1197   21.4508  -22.8386 F   0  0  0  0  0  0  0  0  0  0  0  0
   -8.6033   21.2786  -21.2321 F   0  0  0  0  0  0  0  0  0  0  0  0
   -8.2328   19.5469  -18.3367 C   0  0  0  0  0  0  0  0  0  0  0  0
   -7.7398   20.1371  -19.4992 O   0  0  0  0  0  0  0  0  0  0  0  0
 33 34  1  0  0  0
 34 23  1  0  0  0
 23 24  2  0  0  0
 24 25  1  0  0  0
 25 26  2  0  0  0
 26 27  1  0  0  0
 27 28  2  0  0  0
 28 29  1  0  0  0
 29 30  1  0  0  0
 29 31  1  0  0  0
 29 32  1  0  0  0
 27  1  1  0  0  0
  1  2  1  0  0  0
  2  3  2  0  0  0
  3  4  1  0  0  0
  4  5  2  0  0  0
  5  6  1  0  0  0
  6  7  2  0  0  0
  3  8  1  0  0  0
  8  9  2  0  0  0
  9 10  1  0  0  0
 10 11  2  0  0  0
 11 12  1  0  0  0
 12 13  2  0  0  0
 13 14  1  0  0  0
 10 17  1  0  0  0
 17 18  1  0  0  0
 18 19  2  0  0  0
 19 20  1  0  0  0
 20 21  1  0  0  0
 20 22  1  0  0  0
 28 23  1  0  0  0
  6  1  1  0  0  0
 13  8  1  0  0  0
 22 17  2  0  0  0
 14 15  1  0  0  0
 14 16  1  0  0  0
M  END
> <minimizedAffinity>
-8.45002

> <CNNscore>
0.1503190696

> <CNNaffinity>
6.7576036453

> <CNN_VS>
1.0157966614

> <CNNaffinity_variance>
0.2215281725

$$$$
[H]c1nc(N([H])[H])c(-c2nn(-c3c([H])c([H])c([H])c(OC([H])([H])[H])c3C(F)(F)F)c(=O)c([H])c2[H])nc1-c1c([H])nn(C([H])([H])[H])c1[H]


 34 37  0  0  0  0  0  0  0  0999 V2000
   -5.0712   23.6356  -21.7762 N   0  0  0  0  0  0  0  0  0  0  0  0
   -4.7894   23.6141  -23.0674 N   0  0  0  0  0  0  0  0  0  0  0  0
   -3.6516   23.1836  -23.5900 C   0  0  0  0  0  0  0  0  0  0  0  0
   -2.6737   22.7170  -22.7192 C   0  0  0  0  0  0  0  0  0  0  0  0
   -2.9070   22.7135  -21.3602 C   0  0  0  0  0  0  0  0  0  0  0  0
   -4.1376   23.1879  -20.9162 C   0  0  0  0  0  0  0  0  0  0  0  0
   -4.3790   23.1971  -19.6840 O   0  0  0  0  0  0  0  0  0  0  0  0
   -3.3644   23.1700  -25.0190 C   0  0  0  0  0  0  0  0  0  0  0  0
   -4.0732   23.8895  -25.9013 N   0  0  0  0  0  0  0  0  0  0  0  0
   -3.7941   23.8669  -27.2300 C   0  0  0  0  0  0  0  0  0  0  0  0
   -2.7523   23.0838  -27.6954 C   0  0  0  0  0  0  0  0  0  0  0  0
   -2.0287   22.3542  -26.8258 N   0  0  0  0  0  0  0  0  0  0  0  0
   -2.3303   22.3946  -25.4932 C   0  0  0  0  0  0  0  0  0  0  0  0
   -1.5803   21.6320  -24.5512 N   0  0  0  0  0  0  0  0  0  0  0  0
   -0.7152   21.9616  -24.1090 H   0  0  0  0  0  0  0  0  0  0  0  0
   -1.9537   20.6853  -24.3133 H   0  0  0  0  0  0  0  0  0  0  0  0
   -4.5662   24.6493  -28.1828 C   0  0  0  0  0  0  0  0  0  0  0  0
   -5.7213   25.3416  -27.9127 C   0  0  0  0  0  0  0  0  0  0  0  0
   -6.1176   25.9292  -29.0613 N   0  0  0  0  0  0  0  0  0  0  0  0
   -5.2941   25.6556  -30.0332 N   0  0  0  0  0  0  0  0  0  0  0  0
   -5.4047   26.1142  -31.3983 C   0  0  0  0  0  0  0  0  0  0  0  0
   -4.3159   24.8602  -29.5205 C   0  0  0  0  0  0  0  0  0  0  0  0
   -8.5838   23.8198  -20.4680 C   0  0  0  0  0  0  0  0  0  0  0  0
   -8.6455   25.1519  -20.1423 C   0  0  0  0  0  0  0  0  0  0  0  0
   -7.5669   25.9826  -20.3443 C   0  0  0  0  0  0  0  0  0  0  0  0
   -6.4476   25.4383  -20.8740 C   0  0  0  0  0  0  0  0  0  0  0  0
   -6.3098   24.0838  -21.2322 C   0  0  0  0  0  0  0  0  0  0  0  0
   -7.4065   23.2843  -21.0169 C   0  0  0  0  0  0  0  0  0  0  0  0
   -7.4063   21.8531  -21.3378 C   0  0  0  0  0  0  0  0  0  0  0  0
   -8.7006   21.3169  -21.3066 F   0  0  0  0  0  0  0  0  0  0  0  0
   -7.0588   21.7289  -22.7057 F   0  0  0  0  0  0  0  0  0  0  0  0
   -6.4922   21.0803  -20.6883 F   0  0  0  0  0  0  0  0  0  0  0  0
  -10.9060   23.3386  -19.8165 C   0  0  0  0  0  0  0  0  0  0  0  0
   -9.6460   22.9616  -20.2782 O   0  0  0  0  0  0  0  0  0  0  0  0
 33 34  1  0  0  0
 34 23  1  0  0  0
 23 24  2  0  0  0
 24 25  1  0  0  0
 25 26  2  0  0  0
 26 27  1  0  0  0
 27 28  2  0  0  0
 28 29  1  0  0  0
 29 30  1  0  0  0
 29 31  1  0  0  0
 29 32  1  0  0  0
 27  1  1  0  0  0
  1  2  1  0  0  0
  2  3  2  0  0  0
  3  4  1  0  0  0
  4  5  2  0  0  0
  5  6  1  0  0  0
  6  7  2  0  0  0
  3  8  1  0  0  0
  8  9  2  0  0  0
  9 10  1  0  0  0
 10 11  2  0  0  0
 11 12  1  0  0  0
 12 13  2  0  0  0
 13 14  1  0  0  0
 10 17  1  0  0  0
 17 18  1  0  0  0
 18 19  2  0  0  0
 19 20  1  0  0  0
 20 21  1  0  0  0
 20 22  1  0  0  0
 28 23  1  0  0  0
  6  1  1  0  0  0
 13  8  1  0  0  0
 22 17  2  0  0  0
 14 15  1  0  0  0
 14 16  1  0  0  0
M  END
> <minimizedAffinity>
-8.64164

> <CNNscore>
0.1393767148

> <CNNaffinity>
6.7213997841

> <CNN_VS>
0.9368066192

> <CNNaffinity_variance>
0.0289630536

$$$$
[H]c1nc(N([H])[H])c(-c2nn(-c3c([H])c([H])c([H])c(OC([H])([H])[H])c3C(F)(F)F)c(=O)c([H])c2[H])nc1-c1c([H])nn(C([H])([H])[H])c1[H]


 34 37  0  0  0  0  0  0  0  0999 V2000
   -0.6833   21.8770  -22.9142 N   0  0  0  0  0  0  0  0  0  0  0  0
   -0.2477   20.7219  -22.4421 N   0  0  0  0  0  0  0  0  0  0  0  0
   -0.1029   20.4315  -21.1584 C   0  0  0  0  0  0  0  0  0  0  0  0
   -0.4325   21.4126  -20.2305 C   0  0  0  0  0  0  0  0  0  0  0  0
   -0.8930   22.6393  -20.6599 C   0  0  0  0  0  0  0  0  0  0  0  0
   -1.0080   22.8404  -22.0321 C   0  0  0  0  0  0  0  0  0  0  0  0
   -1.4246   23.9475  -22.4534 O   0  0  0  0  0  0  0  0  0  0  0  0
    0.3800   19.1488  -20.6622 C   0  0  0  0  0  0  0  0  0  0  0  0
   -0.4140   18.2840  -20.0141 N   0  0  0  0  0  0  0  0  0  0  0  0
    0.0500   17.0923  -19.5574 C   0  0  0  0  0  0  0  0  0  0  0  0
    1.3758   16.7525  -19.7617 C   0  0  0  0  0  0  0  0  0  0  0  0
    2.1891   17.6068  -20.4102 N   0  0  0  0  0  0  0  0  0  0  0  0
    1.6972   18.8003  -20.8598 C   0  0  0  0  0  0  0  0  0  0  0  0
    2.5365   19.7230  -21.5493 N   0  0  0  0  0  0  0  0  0  0  0  0
    2.7038   19.6970  -22.5612 H   0  0  0  0  0  0  0  0  0  0  0  0
    2.9972   20.4597  -20.9685 H   0  0  0  0  0  0  0  0  0  0  0  0
   -0.8157   16.1579  -18.8548 C   0  0  0  0  0  0  0  0  0  0  0  0
   -1.9176   15.5266  -19.3780 C   0  0  0  0  0  0  0  0  0  0  0  0
   -2.4370   14.7488  -18.4051 N   0  0  0  0  0  0  0  0  0  0  0  0
   -1.7402   14.8462  -17.3084 N   0  0  0  0  0  0  0  0  0  0  0  0
   -2.0041   14.1569  -16.0670 C   0  0  0  0  0  0  0  0  0  0  0  0
   -0.7226   15.7161  -17.5538 C   0  0  0  0  0  0  0  0  0  0  0  0
   -2.1207   22.4551  -26.3323 C   0  0  0  0  0  0  0  0  0  0  0  0
   -0.9762   22.7746  -27.0195 C   0  0  0  0  0  0  0  0  0  0  0  0
    0.2465   22.8013  -26.3882 C   0  0  0  0  0  0  0  0  0  0  0  0
    0.2773   22.5019  -25.0695 C   0  0  0  0  0  0  0  0  0  0  0  0
   -0.8524   22.1656  -24.2996 C   0  0  0  0  0  0  0  0  0  0  0  0
   -2.0558   22.1487  -24.9627 C   0  0  0  0  0  0  0  0  0  0  0  0
   -3.3161   21.8205  -24.2880 C   0  0  0  0  0  0  0  0  0  0  0  0
   -4.0890   22.9655  -24.0528 F   0  0  0  0  0  0  0  0  0  0  0  0
   -4.1128   21.1005  -25.2122 F   0  0  0  0  0  0  0  0  0  0  0  0
   -3.2346   20.9993  -23.2047 F   0  0  0  0  0  0  0  0  0  0  0  0
   -3.9335   23.4715  -27.6475 C   0  0  0  0  0  0  0  0  0  0  0  0
   -3.3603   22.4195  -26.9351 O   0  0  0  0  0  0  0  0  0  0  0  0
 33 34  1  0  0  0
 34 23  1  0  0  0
 23 24  2  0  0  0
 24 25  1  0  0  0
 25 26  2  0  0  0
 26 27  1  0  0  0
 27 28  2  0  0  0
 28 29  1  0  0  0
 29 30  1  0  0  0
 29 31  1  0  0  0
 29 32  1  0  0  0
 27  1  1  0  0  0
  1  2  1  0  0  0
  2  3  2  0  0  0
  3  4  1  0  0  0
  4  5  2  0  0  0
  5  6  1  0  0  0
  6  7  2  0  0  0
  3  8  1  0  0  0
  8  9  2  0  0  0
  9 10  1  0  0  0
 10 11  2  0  0  0
 11 12  1  0  0  0
 12 13  2  0  0  0
 13 14  1  0  0  0
 10 17  1  0  0  0
 17 18  1  0  0  0
 18 19  2  0  0  0
 19 20  1  0  0  0
 20 21  1  0  0  0
 20 22  1  0  0  0
 28 23  1  0  0  0
  6  1  1  0  0  0
 13  8  1  0  0  0
 22 17  2  0  0  0
 14 15  1  0  0  0
 14 16  1  0  0  0
M  END
> <minimizedAffinity>
-7.13219

> <CNNscore>
0.0856986120

> <CNNaffinity>
5.8452925682

> <CNN_VS>
0.5009334683

> <CNNaffinity_variance>
0.0470643714

$$$$
[H]C([H])=C([H])C(=O)N1C([H])([H])C([H])([H])N(C([H])([H])C([H])([H])C([H])([H])n2c(=O)c(-c3c(Cl)c(OC([H])([H])[H])c([H])c(OC([H])([H])[H])c3Cl)c([H])c3c([H])nc(N([H])C([H])([H])C([H])([H])C([H])([H])N4C(=O)C([H])([H])C([H])([H])C4([H])[H])nc32)C([H])([H])C1([H])[H]


 47 51  0  0  0  0  0  0  0  0999 V2000
   -0.3705   21.1076  -20.9922 C   0  0  0  0  0  0  0  0  0  0  0  0
    0.5279   21.2181  -22.0288 C   0  0  0  0  0  0  0  0  0  0  0  0
    0.0938   21.6404  -23.2855 C   0  0  0  0  0  0  0  0  0  0  0  0
    0.9474   21.7736  -24.3607 C   0  0  0  0  0  0  0  0  0  0  0  0
    0.4537   22.1879  -25.5320 N   0  0  0  0  0  0  0  0  0  0  0  0
   -0.8329   22.4958  -25.7666 C   0  0  0  0  0  0  0  0  0  0  0  0
   -1.6824   22.3642  -24.7022 N   0  0  0  0  0  0  0  0  0  0  0  0
   -1.2300   21.9516  -23.5092 C   0  0  0  0  0  0  0  0  0  0  0  0
   -2.0904   21.8286  -22.4546 N   0  0  0  0  0  0  0  0  0  0  0  0
   -1.6807   21.4220  -21.2388 C   0  0  0  0  0  0  0  0  0  0  0  0
   -2.5647   21.3446  -20.3354 O   0  0  0  0  0  0  0  0  0  0  0  0
    0.6796   18.8891  -18.1826 C   0  0  0  0  0  0  0  0  0  0  0  0
    0.9036   19.8091  -17.1862 C   0  0  0  0  0  0  0  0  0  0  0  0
    0.7196   21.1745  -17.3953 C   0  0  0  0  0  0  0  0  0  0  0  0
    0.3013   21.5693  -18.6486 C   0  0  0  0  0  0  0  0  0  0  0  0
    0.0619   23.2765  -18.9417 Cl  0  0  0  0  0  0  0  0  0  0  0  0
    0.0636   20.6734  -19.6829 C   0  0  0  0  0  0  0  0  0  0  0  0
    0.2625   19.3193  -19.4217 C   0  0  0  0  0  0  0  0  0  0  0  0
   -0.0317   18.2004  -20.7089 Cl  0  0  0  0  0  0  0  0  0  0  0  0
    2.1642   16.9869  -18.0100 C   0  0  0  0  0  0  0  0  0  0  0  0
    0.8601   17.5313  -17.9818 O   0  0  0  0  0  0  0  0  0  0  0  0
    0.9483   22.0933  -16.3845 O   0  0  0  0  0  0  0  0  0  0  0  0
    2.2790   22.4264  -16.0689 C   0  0  0  0  0  0  0  0  0  0  0  0
   -1.3221   22.9391  -27.0219 N   0  0  0  0  0  0  0  0  0  0  0  0
   -0.8655   23.7642  -27.4626 H   0  0  0  0  0  0  0  0  0  0  0  0
   -2.4096   22.3109  -27.7130 C   0  0  0  0  0  0  0  0  0  0  0  0
   -3.7162   22.8450  -27.2144 C   0  0  0  0  0  0  0  0  0  0  0  0
   -4.0194   24.2564  -27.6529 C   0  0  0  0  0  0  0  0  0  0  0  0
   -4.4526   24.2978  -29.0315 N   0  0  0  0  0  0  0  0  0  0  0  0
   -5.2590   23.3364  -29.7669 C   0  0  0  0  0  0  0  0  0  0  0  0
   -6.0875   24.2316  -30.6586 C   0  0  0  0  0  0  0  0  0  0  0  0
   -5.0938   25.2615  -31.1160 C   0  0  0  0  0  0  0  0  0  0  0  0
   -4.1529   25.3460  -29.9778 C   0  0  0  0  0  0  0  0  0  0  0  0
   -3.2099   26.1736  -29.7885 O   0  0  0  0  0  0  0  0  0  0  0  0
   -3.4884   22.1597  -22.7105 C   0  0  0  0  0  0  0  0  0  0  0  0
   -3.7747   23.5808  -22.3397 C   0  0  0  0  0  0  0  0  0  0  0  0
   -5.0892   24.0149  -22.9038 C   0  0  0  0  0  0  0  0  0  0  0  0
   -5.9714   24.4986  -21.8616 N   0  0  0  0  0  0  0  0  0  0  0  0
   -7.3131   24.6930  -22.3125 C   0  0  0  0  0  0  0  0  0  0  0  0
   -8.3942   24.5745  -21.3174 C   0  0  0  0  0  0  0  0  0  0  0  0
   -8.1775   23.4322  -20.3737 N   0  0  0  0  0  0  0  0  0  0  0  0
   -7.0177   22.6841  -20.7018 C   0  0  0  0  0  0  0  0  0  0  0  0
   -5.8589   23.7124  -20.6582 C   0  0  0  0  0  0  0  0  0  0  0  0
   -9.0722   23.2269  -19.3460 C   0  0  0  0  0  0  0  0  0  0  0  0
  -10.0820   24.1166  -19.3415 O   0  0  0  0  0  0  0  0  0  0  0  0
   -9.1463   22.2775  -18.3002 C   0  0  0  0  0  0  0  0  0  0  0  0
   -9.4066   21.0189  -18.3249 C   0  0  0  0  0  0  0  0  0  0  0  0
 20 21  1  0  0  0
 21 12  1  0  0  0
 12 13  2  0  0  0
 13 14  1  0  0  0
 14 22  1  0  0  0
 22 23  1  0  0  0
 14 15  2  0  0  0
 15 16  1  0  0  0
 15 17  1  0  0  0
 17 18  2  0  0  0
 18 19  1  0  0  0
 17  1  1  0  0  0
  1  2  2  0  0  0
  2  3  1  0  0  0
  3  4  2  0  0  0
  4  5  1  0  0  0
  5  6  2  0  0  0
  6 24  1  0  0  0
 24 26  1  0  0  0
 26 27  1  0  0  0
 27 28  1  0  0  0
 28 29  1  0  0  0
 29 30  1  0  0  0
 30 31  1  0  0  0
 31 32  1  0  0  0
 32 33  1  0  0  0
 33 34  2  0  0  0
  6  7  1  0  0  0
  7  8  2  0  0  0
  8  9  1  0  0  0
  9 35  1  0  0  0
 35 36  1  0  0  0
 36 37  1  0  0  0
 37 38  1  0  0  0
 38 39  1  0  0  0
 39 40  1  0  0  0
 40 41  1  0  0  0
 41 42  1  0  0  0
 42 43  1  0  0  0
 41 44  1  0  0  0
 44 45  2  0  0  0
 44 46  1  0  0  0
 46 47  2  0  0  0
  9 10  1  0  0  0
 10 11  2  0  0  0
 18 12  1  0  0  0
 10  1  1  0  0  0
  8  3  1  0  0  0
 43 38  1  0  0  0
 33 29  1  0  0  0
 24 25  1  0  0  0
M  END
> <minimizedAffinity>
-7.25905

> <CNNscore>
0.0873221681

> <CNNaffinity>
7.4009995461

> <CNN_VS>
0.6462713480

> <CNNaffinity_variance>
0.2177328318

$$$$
[H]C([H])=C([H])C(=O)N1C([H])([H])C([H])([H])N(C([H])([H])C([H])([H])C([H])([H])n2c(=O)c(-c3c(Cl)c(OC([H])([H])[H])c([H])c(OC([H])([H])[H])c3Cl)c([H])c3c([H])nc(N([H])C([H])([H])C([H])([H])C([H])([H])N4C(=O)C([H])([H])C([H])([H])C4([H])[H])nc32)C([H])([H])C1([H])[H]


 47 51  0  0  0  0  0  0  0  0999 V2000
    0.2228   20.8048  -20.9152 C   0  0  0  0  0  0  0  0  0  0  0  0
    0.9854   20.9437  -22.0524 C   0  0  0  0  0  0  0  0  0  0  0  0
    0.4128   21.4541  -23.2176 C   0  0  0  0  0  0  0  0  0  0  0  0
    1.1269   21.6195  -24.3860 C   0  0  0  0  0  0  0  0  0  0  0  0
    0.5059   22.1191  -25.4593 N   0  0  0  0  0  0  0  0  0  0  0  0
   -0.7857   22.4859  -25.5079 C   0  0  0  0  0  0  0  0  0  0  0  0
   -1.4971   22.3226  -24.3506 N   0  0  0  0  0  0  0  0  0  0  0  0
   -0.9141   21.8250  -23.2503 C   0  0  0  0  0  0  0  0  0  0  0  0
   -1.6372   21.6711  -22.1010 N   0  0  0  0  0  0  0  0  0  0  0  0
   -1.0933   21.1797  -20.9722 C   0  0  0  0  0  0  0  0  0  0  0  0
   -1.8572   21.0811  -19.9671 O   0  0  0  0  0  0  0  0  0  0  0  0
    1.4219   18.3864  -18.3400 C   0  0  0  0  0  0  0  0  0  0  0  0
    1.9128   19.2400  -17.3810 C   0  0  0  0  0  0  0  0  0  0  0  0
    1.8682   20.6237  -17.5402 C   0  0  0  0  0  0  0  0  0  0  0  0
    1.3089   21.1063  -18.7047 C   0  0  0  0  0  0  0  0  0  0  0  0
    1.2391   22.8385  -18.9336 Cl  0  0  0  0  0  0  0  0  0  0  0  0
    0.8016   20.2794  -19.6985 C   0  0  0  0  0  0  0  0  0  0  0  0
    0.8704   18.9035  -19.4902 C   0  0  0  0  0  0  0  0  0  0  0  0
    0.2401   17.8703  -20.7273 Cl  0  0  0  0  0  0  0  0  0  0  0  0
    2.6629   16.3128  -18.4528 C   0  0  0  0  0  0  0  0  0  0  0  0
    1.4626   17.0110  -18.1882 O   0  0  0  0  0  0  0  0  0  0  0  0
    2.3658   21.4752  -16.5677 O   0  0  0  0  0  0  0  0  0  0  0  0
    3.7537   21.7056  -16.5240 C   0  0  0  0  0  0  0  0  0  0  0  0
   -1.4117   23.0192  -26.6634 N   0  0  0  0  0  0  0  0  0  0  0  0
   -1.1564   23.9842  -26.9584 H   0  0  0  0  0  0  0  0  0  0  0  0
   -2.3749   22.2994  -27.4438 C   0  0  0  0  0  0  0  0  0  0  0  0
   -3.5967   23.1376  -27.6583 C   0  0  0  0  0  0  0  0  0  0  0  0
   -3.6879   24.3458  -26.7594 C   0  0  0  0  0  0  0  0  0  0  0  0
   -4.9631   24.4022  -26.0809 N   0  0  0  0  0  0  0  0  0  0  0  0
   -5.8625   25.5332  -25.9151 C   0  0  0  0  0  0  0  0  0  0  0  0
   -7.2202   24.8780  -26.0170 C   0  0  0  0  0  0  0  0  0  0  0  0
   -7.0436   23.6153  -25.2222 C   0  0  0  0  0  0  0  0  0  0  0  0
   -5.6110   23.2995  -25.4114 C   0  0  0  0  0  0  0  0  0  0  0  0
   -4.9779   22.2540  -25.0706 O   0  0  0  0  0  0  0  0  0  0  0  0
   -3.0409   22.0663  -22.1549 C   0  0  0  0  0  0  0  0  0  0  0  0
   -3.2467   23.3899  -21.4878 C   0  0  0  0  0  0  0  0  0  0  0  0
   -4.3585   24.1414  -22.1463 C   0  0  0  0  0  0  0  0  0  0  0  0
   -5.3413   24.5781  -21.1758 N   0  0  0  0  0  0  0  0  0  0  0  0
   -6.4421   25.2691  -21.7691 C   0  0  0  0  0  0  0  0  0  0  0  0
   -7.7381   25.2225  -21.0683 C   0  0  0  0  0  0  0  0  0  0  0  0
   -8.0374   23.8644  -20.5132 N   0  0  0  0  0  0  0  0  0  0  0  0
   -7.0365   22.9184  -20.8535 C   0  0  0  0  0  0  0  0  0  0  0  0
   -5.7227   23.5113  -20.2838 C   0  0  0  0  0  0  0  0  0  0  0  0
   -9.1867   23.6745  -19.7770 C   0  0  0  0  0  0  0  0  0  0  0  0
   -9.9318   24.7900  -19.6672 O   0  0  0  0  0  0  0  0  0  0  0  0
   -9.7408   22.5533  -19.1164 C   0  0  0  0  0  0  0  0  0  0  0  0
   -9.3133   21.8735  -18.1126 C   0  0  0  0  0  0  0  0  0  0  0  0
 20 21  1  0  0  0
 21 12  1  0  0  0
 12 13  2  0  0  0
 13 14  1  0  0  0
 14 22  1  0  0  0
 22 23  1  0  0  0
 14 15  2  0  0  0
 15 16  1  0  0  0
 15 17  1  0  0  0
 17 18  2  0  0  0
 18 19  1  0  0  0
 17  1  1  0  0  0
  1  2  2  0  0  0
  2  3  1  0  0  0
  3  4  2  0  0  0
  4  5  1  0  0  0
  5  6  2  0  0  0
  6 24  1  0  0  0
 24 26  1  0  0  0
 26 27  1  0  0  0
 27 28  1  0  0  0
 28 29  1  0  0  0
 29 30  1  0  0  0
 30 31  1  0  0  0
 31 32  1  0  0  0
 32 33  1  0  0  0
 33 34  2  0  0  0
  6  7  1  0  0  0
  7  8  2  0  0  0
  8  9  1  0  0  0
  9 35  1  0  0  0
 35 36  1  0  0  0
 36 37  1  0  0  0
 37 38  1  0  0  0
 38 39  1  0  0  0
 39 40  1  0  0  0
 40 41  1  0  0  0
 41 42  1  0  0  0
 42 43  1  0  0  0
 41 44  1  0  0  0
 44 45  2  0  0  0
 44 46  1  0  0  0
 46 47  2  0  0  0
  9 10  1  0  0  0
 10 11  2  0  0  0
 18 12  1  0  0  0
 10  1  1  0  0  0
  8  3  1  0  0  0
 43 38  1  0  0  0
 33 29  1  0  0  0
 24 25  1  0  0  0
M  END
> <minimizedAffinity>
-7.06124

> <CNNscore>
0.0779293701

> <CNNaffinity>
7.4173278809

> <CNN_VS>
0.5780276656

> <CNNaffinity_variance>
0.1198468059

$$$$
[H]C([H])=C([H])C(=O)N1C([H])([H])C([H])([H])N(C([H])([H])C([H])([H])C([H])([H])n2c(=O)c(-c3c(Cl)c(OC([H])([H])[H])c([H])c(OC([H])([H])[H])c3Cl)c([H])c3c([H])nc(N([H])C([H])([H])C([H])([H])C([H])([H])N4C(=O)C([H])([H])C([H])([H])C4([H])[H])nc32)C([H])([H])C1([H])[H]


 47 51  0  0  0  0  0  0  0  0999 V2000
   -0.1362   21.0582  -20.7264 C   0  0  0  0  0  0  0  0  0  0  0  0
    0.7620   21.1025  -21.7682 C   0  0  0  0  0  0  0  0  0  0  0  0
    0.3403   21.5052  -23.0355 C   0  0  0  0  0  0  0  0  0  0  0  0
    1.1943   21.5728  -24.1164 C   0  0  0  0  0  0  0  0  0  0  0  0
    0.7131   21.9725  -25.2979 N   0  0  0  0  0  0  0  0  0  0  0  0
   -0.5610   22.3248  -25.5380 C   0  0  0  0  0  0  0  0  0  0  0  0
   -1.4110   22.2584  -24.4679 N   0  0  0  0  0  0  0  0  0  0  0  0
   -0.9708   21.8627  -23.2646 C   0  0  0  0  0  0  0  0  0  0  0  0
   -1.8314   21.8049  -22.2046 N   0  0  0  0  0  0  0  0  0  0  0  0
   -1.4337   21.4177  -20.9785 C   0  0  0  0  0  0  0  0  0  0  0  0
   -2.3166   21.4020  -20.0709 O   0  0  0  0  0  0  0  0  0  0  0  0
    0.9915   21.2217  -17.1740 C   0  0  0  0  0  0  0  0  0  0  0  0
    1.0875   19.8861  -16.8633 C   0  0  0  0  0  0  0  0  0  0  0  0
    0.7911   18.8941  -17.7960 C   0  0  0  0  0  0  0  0  0  0  0  0
    0.3953   19.3070  -19.0507 C   0  0  0  0  0  0  0  0  0  0  0  0
    0.0161   18.0853  -20.2430 Cl  0  0  0  0  0  0  0  0  0  0  0  0
    0.2851   20.6451  -19.4062 C   0  0  0  0  0  0  0  0  0  0  0  0
    0.5931   21.5973  -18.4368 C   0  0  0  0  0  0  0  0  0  0  0  0
    0.4557   23.2656  -18.8761 Cl  0  0  0  0  0  0  0  0  0  0  0  0
    2.6315   22.5657  -16.0093 C   0  0  0  0  0  0  0  0  0  0  0  0
    1.2846   22.2122  -16.2524 O   0  0  0  0  0  0  0  0  0  0  0  0
    0.8909   17.5511  -17.4726 O   0  0  0  0  0  0  0  0  0  0  0  0
    2.1728   16.9956  -17.3013 C   0  0  0  0  0  0  0  0  0  0  0  0
   -1.0368   22.7509  -26.8043 N   0  0  0  0  0  0  0  0  0  0  0  0
   -0.4177   23.3553  -27.3829 H   0  0  0  0  0  0  0  0  0  0  0  0
   -2.3226   22.3926  -27.3269 C   0  0  0  0  0  0  0  0  0  0  0  0
   -3.3102   23.4868  -27.0650 C   0  0  0  0  0  0  0  0  0  0  0  0
   -4.5320   23.4469  -27.9491 C   0  0  0  0  0  0  0  0  0  0  0  0
   -4.6074   24.6157  -28.7964 N   0  0  0  0  0  0  0  0  0  0  0  0
   -3.5995   25.1655  -29.6894 C   0  0  0  0  0  0  0  0  0  0  0  0
   -4.4358   25.6647  -30.8446 C   0  0  0  0  0  0  0  0  0  0  0  0
   -5.6144   26.2942  -30.1577 C   0  0  0  0  0  0  0  0  0  0  0  0
   -5.7457   25.4947  -28.9203 C   0  0  0  0  0  0  0  0  0  0  0  0
   -6.6750   25.5176  -28.0565 O   0  0  0  0  0  0  0  0  0  0  0  0
   -3.2160   22.1843  -22.4663 C   0  0  0  0  0  0  0  0  0  0  0  0
   -3.4276   23.6414  -22.1996 C   0  0  0  0  0  0  0  0  0  0  0  0
   -4.0062   24.3156  -23.4018 C   0  0  0  0  0  0  0  0  0  0  0  0
   -5.1395   25.1432  -23.0426 N   0  0  0  0  0  0  0  0  0  0  0  0
   -6.0964   25.2662  -24.0964 C   0  0  0  0  0  0  0  0  0  0  0  0
   -7.4996   25.5182  -23.7216 C   0  0  0  0  0  0  0  0  0  0  0  0
   -7.9275   24.7079  -22.5372 N   0  0  0  0  0  0  0  0  0  0  0  0
   -6.9037   23.8311  -22.0949 C   0  0  0  0  0  0  0  0  0  0  0  0
   -5.7029   24.7565  -21.7729 C   0  0  0  0  0  0  0  0  0  0  0  0
   -9.1963   24.8767  -22.0269 C   0  0  0  0  0  0  0  0  0  0  0  0
   -9.9224   25.7810  -22.7099 O   0  0  0  0  0  0  0  0  0  0  0  0
   -9.8883   24.2974  -20.9379 C   0  0  0  0  0  0  0  0  0  0  0  0
  -11.1464   24.1257  -20.7374 C   0  0  0  0  0  0  0  0  0  0  0  0
 20 21  1  0  0  0
 21 12  1  0  0  0
 12 13  2  0  0  0
 13 14  1  0  0  0
 14 22  1  0  0  0
 22 23  1  0  0  0
 14 15  2  0  0  0
 15 16  1  0  0  0
 15 17  1  0  0  0
 17 18  2  0  0  0
 18 19  1  0  0  0
 17  1  1  0  0  0
  1  2  2  0  0  0
  2  3  1  0  0  0
  3  4  2  0  0  0
  4  5  1  0  0  0
  5  6  2  0  0  0
  6 24  1  0  0  0
 24 26  1  0  0  0
 26 27  1  0  0  0
 27 28  1  0  0  0
 28 29  1  0  0  0
 29 30  1  0  0  0
 30 31  1  0  0  0
 31 32  1  0  0  0
 32 33  1  0  0  0
 33 34  2  0  0  0
  6  7  1  0  0  0
  7  8  2  0  0  0
  8  9  1  0  0  0
  9 35  1  0  0  0
 35 36  1  0  0  0
 36 37  1  0  0  0
 37 38  1  0  0  0
 38 39  1  0  0  0
 39 40  1  0  0  0
 40 41  1  0  0  0
 41 42  1  0  0  0
 42 43  1  0  0  0
 41 44  1  0  0  0
 44 45  2  0  0  0
 44 46  1  0  0  0
 46 47  2  0  0  0
  9 10  1  0  0  0
 10 11  2  0  0  0
 18 12  1  0  0  0
 10  1  1  0  0  0
  8  3  1  0  0  0
 43 38  1  0  0  0
 33 29  1  0  0  0
 24 25  1  0  0  0
M  END
> <minimizedAffinity>
-7.93374

> <CNNscore>
0.0772079751

> <CNNaffinity>
7.5917119980

> <CNN_VS>
0.5861406922

> <CNNaffinity_variance>
0.2140355408

$$$$
[H]C([H])=C([H])C(=O)N1C([H])([H])C([H])([H])N(C([H])([H])C([H])([H])C([H])([H])n2c(=O)c(-c3c(Cl)c(OC([H])([H])[H])c([H])c(OC([H])([H])[H])c3Cl)c([H])c3c([H])nc(N([H])C([H])([H])C([H])([H])C([H])([H])N4C(=O)C([H])([H])C([H])([H])C4([H])[H])nc32)C([H])([H])C1([H])[H]


 47 51  0  0  0  0  0  0  0  0999 V2000
    1.1460   20.6174  -20.7268 C   0  0  0  0  0  0  0  0  0  0  0  0
    1.6889   20.9125  -21.9565 C   0  0  0  0  0  0  0  0  0  0  0  0
    0.8586   21.2846  -23.0140 C   0  0  0  0  0  0  0  0  0  0  0  0
    1.3446   21.5952  -24.2669 C   0  0  0  0  0  0  0  0  0  0  0  0
    0.4830   21.9467  -25.2268 N   0  0  0  0  0  0  0  0  0  0  0  0
   -0.8501   22.0284  -25.0812 C   0  0  0  0  0  0  0  0  0  0  0  0
   -1.3355   21.7206  -23.8396 N   0  0  0  0  0  0  0  0  0  0  0  0
   -0.5072   21.3629  -22.8475 C   0  0  0  0  0  0  0  0  0  0  0  0
   -1.0071   21.0617  -21.6118 N   0  0  0  0  0  0  0  0  0  0  0  0
   -0.2138   20.7017  -20.5858 C   0  0  0  0  0  0  0  0  0  0  0  0
   -0.7857   20.4453  -19.4855 O   0  0  0  0  0  0  0  0  0  0  0  0
    3.2235   20.8347  -17.6357 C   0  0  0  0  0  0  0  0  0  0  0  0
    3.6097   19.5245  -17.4817 C   0  0  0  0  0  0  0  0  0  0  0  0
    3.2095   18.5332  -18.3756 C   0  0  0  0  0  0  0  0  0  0  0  0
    2.4058   18.9201  -19.4272 C   0  0  0  0  0  0  0  0  0  0  0  0
    1.8869   17.6984  -20.5656 Cl  0  0  0  0  0  0  0  0  0  0  0  0
    1.9929   20.2321  -19.6198 C   0  0  0  0  0  0  0  0  0  0  0  0
    2.4209   21.1849  -18.6976 C   0  0  0  0  0  0  0  0  0  0  0  0
    1.9070   22.8205  -18.9340 Cl  0  0  0  0  0  0  0  0  0  0  0  0
    2.9282   21.9855  -15.5284 C   0  0  0  0  0  0  0  0  0  0  0  0
    3.6176   21.8245  -16.7518 O   0  0  0  0  0  0  0  0  0  0  0  0
    3.6041   17.2158  -18.2112 O   0  0  0  0  0  0  0  0  0  0  0  0
    2.9721   16.4450  -17.2174 C   0  0  0  0  0  0  0  0  0  0  0  0
   -1.7355   22.4116  -26.1208 N   0  0  0  0  0  0  0  0  0  0  0  0
   -1.3247   22.7587  -27.0119 H   0  0  0  0  0  0  0  0  0  0  0  0
   -3.1630   22.3453  -26.0077 C   0  0  0  0  0  0  0  0  0  0  0  0
   -3.7807   23.6130  -26.5103 C   0  0  0  0  0  0  0  0  0  0  0  0
   -5.2023   23.4635  -26.9931 C   0  0  0  0  0  0  0  0  0  0  0  0
   -5.4200   24.1912  -28.2230 N   0  0  0  0  0  0  0  0  0  0  0  0
   -5.8074   25.5809  -28.4081 C   0  0  0  0  0  0  0  0  0  0  0  0
   -5.0215   25.9694  -29.6388 C   0  0  0  0  0  0  0  0  0  0  0  0
   -5.1668   24.7639  -30.5236 C   0  0  0  0  0  0  0  0  0  0  0  0
   -5.2885   23.6521  -29.5557 C   0  0  0  0  0  0  0  0  0  0  0  0
   -5.2866   22.4030  -29.7788 O   0  0  0  0  0  0  0  0  0  0  0  0
   -2.4554   21.1472  -21.4548 C   0  0  0  0  0  0  0  0  0  0  0  0
   -2.8400   22.4088  -20.7481 C   0  0  0  0  0  0  0  0  0  0  0  0
   -4.3257   22.5743  -20.7426 C   0  0  0  0  0  0  0  0  0  0  0  0
   -4.8282   22.8313  -22.0767 N   0  0  0  0  0  0  0  0  0  0  0  0
   -6.2320   23.0959  -22.1025 C   0  0  0  0  0  0  0  0  0  0  0  0
   -6.7499   23.9405  -23.1939 C   0  0  0  0  0  0  0  0  0  0  0  0
   -5.8564   25.1061  -23.4858 N   0  0  0  0  0  0  0  0  0  0  0  0
   -4.7544   25.1676  -22.5945 C   0  0  0  0  0  0  0  0  0  0  0  0
   -4.0279   23.8098  -22.7703 C   0  0  0  0  0  0  0  0  0  0  0  0
   -6.1736   25.9567  -24.5225 C   0  0  0  0  0  0  0  0  0  0  0  0
   -7.3132   25.6165  -25.1527 O   0  0  0  0  0  0  0  0  0  0  0  0
   -5.5501   27.1081  -25.0573 C   0  0  0  0  0  0  0  0  0  0  0  0
   -4.3578   27.2875  -25.5029 C   0  0  0  0  0  0  0  0  0  0  0  0
 20 21  1  0  0  0
 21 12  1  0  0  0
 12 13  2  0  0  0
 13 14  1  0  0  0
 14 22  1  0  0  0
 22 23  1  0  0  0
 14 15  2  0  0  0
 15 16  1  0  0  0
 15 17  1  0  0  0
 17 18  2  0  0  0
 18 19  1  0  0  0
 17  1  1  0  0  0
  1  2  2  0  0  0
  2  3  1  0  0  0
  3  4  2  0  0  0
  4  5  1  0  0  0
  5  6  2  0  0  0
  6 24  1  0  0  0
 24 26  1  0  0  0
 26 27  1  0  0  0
 27 28  1  0  0  0
 28 29  1  0  0  0
 29 30  1  0  0  0
 30 31  1  0  0  0
 31 32  1  0  0  0
 32 33  1  0  0  0
 33 34  2  0  0  0
  6  7  1  0  0  0
  7  8  2  0  0  0
  8  9  1  0  0  0
  9 35  1  0  0  0
 35 36  1  0  0  0
 36 37  1  0  0  0
 37 38  1  0  0  0
 38 39  1  0  0  0
 39 40  1  0  0  0
 40 41  1  0  0  0
 41 42  1  0  0  0
 42 43  1  0  0  0
 41 44  1  0  0  0
 44 45  2  0  0  0
 44 46  1  0  0  0
 46 47  2  0  0  0
  9 10  1  0  0  0
 10 11  2  0  0  0
 18 12  1  0  0  0
 10  1  1  0  0  0
  8  3  1  0  0  0
 43 38  1  0  0  0
 33 29  1  0  0  0
 24 25  1  0  0  0
M  END
> <minimizedAffinity>
-7.43725

> <CNNscore>
0.0685189143

> <CNNaffinity>
7.4510092735

> <CNN_VS>
0.5105350614

> <CNNaffinity_variance>
0.0802546442

$$$$
[H]C([H])=C([H])C(=O)N1C([H])([H])C([H])([H])N(C([H])([H])C([H])([H])C([H])([H])n2c(=O)c(-c3c(Cl)c(OC([H])([H])[H])c([H])c(OC([H])([H])[H])c3Cl)c([H])c3c([H])nc(N([H])C([H])([H])C([H])([H])C([H])([H])N4C(=O)C([H])([H])C([H])([H])C4([H])[H])nc32)C([H])([H])C1([H])[H]


 47 51  0  0  0  0  0  0  0  0999 V2000
    1.3271   20.5691  -20.7582 C   0  0  0  0  0  0  0  0  0  0  0  0
    1.7604   20.8688  -22.0295 C   0  0  0  0  0  0  0  0  0  0  0  0
    0.8467   21.2887  -22.9965 C   0  0  0  0  0  0  0  0  0  0  0  0
    1.2217   21.6062  -24.2853 C   0  0  0  0  0  0  0  0  0  0  0  0
    0.2855   22.0046  -25.1525 N   0  0  0  0  0  0  0  0  0  0  0  0
   -1.0239   22.1286  -24.8785 C   0  0  0  0  0  0  0  0  0  0  0  0
   -1.3993   21.8140  -23.6009 N   0  0  0  0  0  0  0  0  0  0  0  0
   -0.4934   21.4098  -22.6986 C   0  0  0  0  0  0  0  0  0  0  0  0
   -0.8835   21.1025  -21.4255 N   0  0  0  0  0  0  0  0  0  0  0  0
   -0.0092   20.6967  -20.4861 C   0  0  0  0  0  0  0  0  0  0  0  0
   -0.4823   20.4390  -19.3400 O   0  0  0  0  0  0  0  0  0  0  0  0
    3.5018   18.3597  -18.6828 C   0  0  0  0  0  0  0  0  0  0  0  0
    4.0564   19.2706  -17.8154 C   0  0  0  0  0  0  0  0  0  0  0  0
    3.7407   20.6264  -17.8769 C   0  0  0  0  0  0  0  0  0  0  0  0
    2.8447   21.0214  -18.8479 C   0  0  0  0  0  0  0  0  0  0  0  0
    2.4290   22.7168  -18.9502 Cl  0  0  0  0  0  0  0  0  0  0  0  0
    2.2615   20.1346  -19.7436 C   0  0  0  0  0  0  0  0  0  0  0  0
    2.6108   18.7898  -19.6396 C   0  0  0  0  0  0  0  0  0  0  0  0
    1.8868   17.6823  -20.7552 Cl  0  0  0  0  0  0  0  0  0  0  0  0
    5.0229   16.5473  -19.1868 C   0  0  0  0  0  0  0  0  0  0  0  0
    3.8107   17.0114  -18.6271 O   0  0  0  0  0  0  0  0  0  0  0  0
    4.3053   21.5361  -16.9982 O   0  0  0  0  0  0  0  0  0  0  0  0
    3.7662   21.6404  -15.7022 C   0  0  0  0  0  0  0  0  0  0  0  0
   -1.9903   22.5610  -25.8223 N   0  0  0  0  0  0  0  0  0  0  0  0
   -2.7749   23.1552  -25.4837 H   0  0  0  0  0  0  0  0  0  0  0  0
   -1.9418   22.2229  -27.2144 C   0  0  0  0  0  0  0  0  0  0  0  0
   -2.5587   23.3139  -28.0331 C   0  0  0  0  0  0  0  0  0  0  0  0
   -3.8948   23.7946  -27.5232 C   0  0  0  0  0  0  0  0  0  0  0  0
   -4.6865   24.3733  -28.5853 N   0  0  0  0  0  0  0  0  0  0  0  0
   -5.0884   25.7579  -28.7772 C   0  0  0  0  0  0  0  0  0  0  0  0
   -5.0189   25.9044  -30.2795 C   0  0  0  0  0  0  0  0  0  0  0  0
   -5.6110   24.6137  -30.7699 C   0  0  0  0  0  0  0  0  0  0  0  0
   -5.2515   23.6548  -29.7026 C   0  0  0  0  0  0  0  0  0  0  0  0
   -5.3851   22.3930  -29.6926 O   0  0  0  0  0  0  0  0  0  0  0  0
   -2.3062   21.2338  -21.1289 C   0  0  0  0  0  0  0  0  0  0  0  0
   -2.6001   22.5651  -20.5120 C   0  0  0  0  0  0  0  0  0  0  0  0
   -4.0731   22.8186  -20.4897 C   0  0  0  0  0  0  0  0  0  0  0  0
   -4.4038   24.0428  -21.1900 N   0  0  0  0  0  0  0  0  0  0  0  0
   -3.4623   24.3716  -22.2132 C   0  0  0  0  0  0  0  0  0  0  0  0
   -3.9439   25.1662  -23.3575 C   0  0  0  0  0  0  0  0  0  0  0  0
   -5.2971   24.7285  -23.8261 N   0  0  0  0  0  0  0  0  0  0  0  0
   -5.7708   23.6021  -23.1055 C   0  0  0  0  0  0  0  0  0  0  0  0
   -5.7788   24.0561  -21.6236 C   0  0  0  0  0  0  0  0  0  0  0  0
   -5.9107   25.4147  -24.8516 C   0  0  0  0  0  0  0  0  0  0  0  0
   -5.1628   26.4264  -25.3295 O   0  0  0  0  0  0  0  0  0  0  0  0
   -7.1592   25.2744  -25.5013 C   0  0  0  0  0  0  0  0  0  0  0  0
   -7.5842   24.3797  -26.3206 C   0  0  0  0  0  0  0  0  0  0  0  0
 20 21  1  0  0  0
 21 12  1  0  0  0
 12 13  2  0  0  0
 13 14  1  0  0  0
 14 22  1  0  0  0
 22 23  1  0  0  0
 14 15  2  0  0  0
 15 16  1  0  0  0
 15 17  1  0  0  0
 17 18  2  0  0  0
 18 19  1  0  0  0
 17  1  1  0  0  0
  1  2  2  0  0  0
  2  3  1  0  0  0
  3  4  2  0  0  0
  4  5  1  0  0  0
  5  6  2  0  0  0
  6 24  1  0  0  0
 24 26  1  0  0  0
 26 27  1  0  0  0
 27 28  1  0  0  0
 28 29  1  0  0  0
 29 30  1  0  0  0
 30 31  1  0  0  0
 31 32  1  0  0  0
 32 33  1  0  0  0
 33 34  2  0  0  0
  6  7  1  0  0  0
  7  8  2  0  0  0
  8  9  1  0  0  0
  9 35  1  0  0  0
 35 36  1  0  0  0
 36 37  1  0  0  0
 37 38  1  0  0  0
 38 39  1  0  0  0
 39 40  1  0  0  0
 40 41  1  0  0  0
 41 42  1  0  0  0
 42 43  1  0  0  0
 41 44  1  0  0  0
 44 45  2  0  0  0
 44 46  1  0  0  0
 46 47  2  0  0  0
  9 10  1  0  0  0
 10 11  2  0  0  0
 18 12  1  0  0  0
 10  1  1  0  0  0
  8  3  1  0  0  0
 43 38  1  0  0  0
 33 29  1  0  0  0
 24 25  1  0  0  0
M  END
> <minimizedAffinity>
-7.61984

> <CNNscore>
0.0674524531

> <CNNaffinity>
7.5089960098

> <CNN_VS>
0.5065001845

> <CNNaffinity_variance>
0.1191218719

$$$$
[H]C([H])=C([H])C(=O)N1C([H])([H])C([H])([H])N(C([H])([H])C([H])([H])C([H])([H])n2c(=O)c(-c3c(Cl)c(OC([H])([H])[H])c([H])c(OC([H])([H])[H])c3Cl)c([H])c3c([H])nc(N([H])C([H])([H])C([H])([H])C([H])([H])N4C(=O)C([H])([H])C([H])([H])C4([H])[H])nc32)C([H])([H])C1([H])[H]


 47 51  0  0  0  0  0  0  0  0999 V2000
   -4.9706   22.8920  -23.4231 C   0  0  0  0  0  0  0  0  0  0  0  0
   -6.2233   22.3487  -23.2516 C   0  0  0  0  0  0  0  0  0  0  0  0
   -6.6606   21.9943  -21.9751 C   0  0  0  0  0  0  0  0  0  0  0  0
   -7.9058   21.4494  -21.7406 C   0  0  0  0  0  0  0  0  0  0  0  0
   -8.2516   21.1401  -20.4868 N   0  0  0  0  0  0  0  0  0  0  0  0
   -7.4778   21.3155  -19.4026 C   0  0  0  0  0  0  0  0  0  0  0  0
   -6.2417   21.8554  -19.6318 N   0  0  0  0  0  0  0  0  0  0  0  0
   -5.8536   22.1804  -20.8736 C   0  0  0  0  0  0  0  0  0  0  0  0
   -4.6170   22.7221  -21.0859 N   0  0  0  0  0  0  0  0  0  0  0  0
   -4.1867   23.0670  -22.3136 C   0  0  0  0  0  0  0  0  0  0  0  0
   -3.0232   23.5605  -22.3923 O   0  0  0  0  0  0  0  0  0  0  0  0
   -4.5467   24.7946  -26.6041 C   0  0  0  0  0  0  0  0  0  0  0  0
   -3.6202   24.0175  -27.2578 C   0  0  0  0  0  0  0  0  0  0  0  0
   -3.1073   22.8540  -26.6876 C   0  0  0  0  0  0  0  0  0  0  0  0
   -3.5682   22.5104  -25.4342 C   0  0  0  0  0  0  0  0  0  0  0  0
   -2.9427   21.0557  -24.6923 Cl  0  0  0  0  0  0  0  0  0  0  0  0
   -4.5029   23.2667  -24.7392 C   0  0  0  0  0  0  0  0  0  0  0  0
   -4.9842   24.4209  -25.3538 C   0  0  0  0  0  0  0  0  0  0  0  0
   -6.1483   25.3663  -24.4898 Cl  0  0  0  0  0  0  0  0  0  0  0  0
   -5.6770   25.8992  -28.4357 C   0  0  0  0  0  0  0  0  0  0  0  0
   -5.0606   25.9513  -27.1647 O   0  0  0  0  0  0  0  0  0  0  0  0
   -2.1740   22.0781  -27.3549 O   0  0  0  0  0  0  0  0  0  0  0  0
   -0.8774   22.5953  -27.5355 C   0  0  0  0  0  0  0  0  0  0  0  0
   -7.8794   20.9817  -18.0839 N   0  0  0  0  0  0  0  0  0  0  0  0
   -7.1747   21.0599  -17.3220 H   0  0  0  0  0  0  0  0  0  0  0  0
   -9.2023   20.5437  -17.7477 C   0  0  0  0  0  0  0  0  0  0  0  0
   -9.1384   19.3326  -16.8701 C   0  0  0  0  0  0  0  0  0  0  0  0
   -7.7431   18.9418  -16.4499 C   0  0  0  0  0  0  0  0  0  0  0  0
   -7.3212   17.7198  -17.0969 N   0  0  0  0  0  0  0  0  0  0  0  0
   -7.6649   16.3449  -16.7696 C   0  0  0  0  0  0  0  0  0  0  0  0
   -7.7579   15.7061  -18.1358 C   0  0  0  0  0  0  0  0  0  0  0  0
   -6.5840   16.2979  -18.8632 C   0  0  0  0  0  0  0  0  0  0  0  0
   -6.4414   17.6308  -18.2380 C   0  0  0  0  0  0  0  0  0  0  0  0
   -5.6919   18.5937  -18.5861 O   0  0  0  0  0  0  0  0  0  0  0  0
   -3.7753   22.9093  -19.9087 C   0  0  0  0  0  0  0  0  0  0  0  0
   -2.8797   21.7285  -19.7022 C   0  0  0  0  0  0  0  0  0  0  0  0
   -1.4648   22.1712  -19.5102 C   0  0  0  0  0  0  0  0  0  0  0  0
   -0.6381   21.0848  -19.0257 N   0  0  0  0  0  0  0  0  0  0  0  0
   -1.3875   19.9077  -18.7191 C   0  0  0  0  0  0  0  0  0  0  0  0
   -0.6957   18.6098  -18.8190 C   0  0  0  0  0  0  0  0  0  0  0  0
    0.1924   18.5284  -20.0219 N   0  0  0  0  0  0  0  0  0  0  0  0
    0.1061   19.6936  -20.8265 C   0  0  0  0  0  0  0  0  0  0  0  0
    0.5002   20.8567  -19.8809 C   0  0  0  0  0  0  0  0  0  0  0  0
    0.9552   17.3984  -20.2224 C   0  0  0  0  0  0  0  0  0  0  0  0
    0.7745   16.4654  -19.2693 O   0  0  0  0  0  0  0  0  0  0  0  0
    1.8844   17.0202  -21.2193 C   0  0  0  0  0  0  0  0  0  0  0  0
    2.6696   16.0052  -21.2944 C   0  0  0  0  0  0  0  0  0  0  0  0
 20 21  1  0  0  0
 21 12  1  0  0  0
 12 13  2  0  0  0
 13 14  1  0  0  0
 14 22  1  0  0  0
 22 23  1  0  0  0
 14 15  2  0  0  0
 15 16  1  0  0  0
 15 17  1  0  0  0
 17 18  2  0  0  0
 18 19  1  0  0  0
 17  1  1  0  0  0
  1  2  2  0  0  0
  2  3  1  0  0  0
  3  4  2  0  0  0
  4  5  1  0  0  0
  5  6  2  0  0  0
  6 24  1  0  0  0
 24 26  1  0  0  0
 26 27  1  0  0  0
 27 28  1  0  0  0
 28 29  1  0  0  0
 29 30  1  0  0  0
 30 31  1  0  0  0
 31 32  1  0  0  0
 32 33  1  0  0  0
 33 34  2  0  0  0
  6  7  1  0  0  0
  7  8  2  0  0  0
  8  9  1  0  0  0
  9 35  1  0  0  0
 35 36  1  0  0  0
 36 37  1  0  0  0
 37 38  1  0  0  0
 38 39  1  0  0  0
 39 40  1  0  0  0
 40 41  1  0  0  0
 41 42  1  0  0  0
 42 43  1  0  0  0
 41 44  1  0  0  0
 44 45  2  0  0  0
 44 46  1  0  0  0
 46 47  2  0  0  0
  9 10  1  0  0  0
 10 11  2  0  0  0
 18 12  1  0  0  0
 10  1  1  0  0  0
  8  3  1  0  0  0
 43 38  1  0  0  0
 33 29  1  0  0  0
 24 25  1  0  0  0
M  END
> <minimizedAffinity>
-6.43554

> <CNNscore>
0.0638242736

> <CNNaffinity>
6.3638582230

> <CNN_VS>
0.4061686397

> <CNNaffinity_variance>
0.8609313965

$$$$
[H]C([H])=C([H])C(=O)N1C([H])([H])C([H])([H])N(C([H])([H])C([H])([H])C([H])([H])n2c(=O)c(-c3c(Cl)c(OC([H])([H])[H])c([H])c(OC([H])([H])[H])c3Cl)c([H])c3c([H])nc(N([H])C([H])([H])C([H])([H])C([H])([H])N4C(=O)C([H])([H])C([H])([H])C4([H])[H])nc32)C([H])([H])C1([H])[H]


 47 51  0  0  0  0  0  0  0  0999 V2000
   -0.0178   20.9290  -20.9505 C   0  0  0  0  0  0  0  0  0  0  0  0
    0.7367   21.1189  -22.0857 C   0  0  0  0  0  0  0  0  0  0  0  0
    0.1345   21.5915  -23.2519 C   0  0  0  0  0  0  0  0  0  0  0  0
    0.8389   21.8047  -24.4184 C   0  0  0  0  0  0  0  0  0  0  0  0
    0.1889   22.2633  -25.4928 N   0  0  0  0  0  0  0  0  0  0  0  0
   -1.1239   22.5442  -25.5443 C   0  0  0  0  0  0  0  0  0  0  0  0
   -1.8258   22.3333  -24.3890 N   0  0  0  0  0  0  0  0  0  0  0  0
   -1.2139   21.8742  -23.2876 C   0  0  0  0  0  0  0  0  0  0  0  0
   -1.9280   21.6719  -22.1402 N   0  0  0  0  0  0  0  0  0  0  0  0
   -1.3557   21.2163  -21.0104 C   0  0  0  0  0  0  0  0  0  0  0  0
   -2.1138   21.0667  -20.0072 O   0  0  0  0  0  0  0  0  0  0  0  0
    1.5769   20.8887  -17.5780 C   0  0  0  0  0  0  0  0  0  0  0  0
    1.7545   19.5395  -17.3835 C   0  0  0  0  0  0  0  0  0  0  0  0
    1.3641   18.6042  -18.3398 C   0  0  0  0  0  0  0  0  0  0  0  0
    0.7891   19.0876  -19.4961 C   0  0  0  0  0  0  0  0  0  0  0  0
    0.2885   17.9380  -20.7149 Cl  0  0  0  0  0  0  0  0  0  0  0  0
    0.5914   20.4417  -19.7328 C   0  0  0  0  0  0  0  0  0  0  0  0
    0.9994   21.3354  -18.7448 C   0  0  0  0  0  0  0  0  0  0  0  0
    0.7533   23.0236  -19.0361 Cl  0  0  0  0  0  0  0  0  0  0  0  0
    1.1768   22.0110  -15.4726 C   0  0  0  0  0  0  0  0  0  0  0  0
    1.9626   21.8233  -16.6325 O   0  0  0  0  0  0  0  0  0  0  0  0
    1.5475   17.2468  -18.1338 O   0  0  0  0  0  0  0  0  0  0  0  0
    2.8254   16.7008  -18.3570 C   0  0  0  0  0  0  0  0  0  0  0  0
   -1.7810   23.0362  -26.7010 N   0  0  0  0  0  0  0  0  0  0  0  0
   -1.5087   23.9754  -27.0576 H   0  0  0  0  0  0  0  0  0  0  0  0
   -2.7975   22.3083  -27.4023 C   0  0  0  0  0  0  0  0  0  0  0  0
   -3.4849   23.2006  -28.3884 C   0  0  0  0  0  0  0  0  0  0  0  0
   -4.9654   23.3669  -28.1502 C   0  0  0  0  0  0  0  0  0  0  0  0
   -5.2320   24.4452  -27.2251 N   0  0  0  0  0  0  0  0  0  0  0  0
   -5.4247   24.3889  -25.7846 C   0  0  0  0  0  0  0  0  0  0  0  0
   -4.7602   25.6654  -25.3242 C   0  0  0  0  0  0  0  0  0  0  0  0
   -5.2038   26.6648  -26.3546 C   0  0  0  0  0  0  0  0  0  0  0  0
   -5.3630   25.8404  -27.5723 C   0  0  0  0  0  0  0  0  0  0  0  0
   -5.5809   26.2194  -28.7634 O   0  0  0  0  0  0  0  0  0  0  0  0
   -3.3546   21.9738  -22.1972 C   0  0  0  0  0  0  0  0  0  0  0  0
   -3.6523   23.2677  -21.5071 C   0  0  0  0  0  0  0  0  0  0  0  0
   -4.8256   23.9423  -22.1418 C   0  0  0  0  0  0  0  0  0  0  0  0
   -6.0370   23.7085  -21.3826 N   0  0  0  0  0  0  0  0  0  0  0  0
   -6.2588   24.6915  -20.3697 C   0  0  0  0  0  0  0  0  0  0  0  0
   -7.6512   24.9547  -19.9637 C   0  0  0  0  0  0  0  0  0  0  0  0
   -8.5880   24.9917  -21.1313 N   0  0  0  0  0  0  0  0  0  0  0  0
   -7.9059   24.8368  -22.3655 C   0  0  0  0  0  0  0  0  0  0  0  0
   -7.1710   23.4778  -22.2428 C   0  0  0  0  0  0  0  0  0  0  0  0
   -9.9366   25.1678  -20.9092 C   0  0  0  0  0  0  0  0  0  0  0  0
  -10.2414   25.3083  -19.6058 O   0  0  0  0  0  0  0  0  0  0  0  0
  -11.0602   25.2307  -21.7659 C   0  0  0  0  0  0  0  0  0  0  0  0
  -11.1994   25.7533  -22.9321 C   0  0  0  0  0  0  0  0  0  0  0  0
 20 21  1  0  0  0
 21 12  1  0  0  0
 12 13  2  0  0  0
 13 14  1  0  0  0
 14 22  1  0  0  0
 22 23  1  0  0  0
 14 15  2  0  0  0
 15 16  1  0  0  0
 15 17  1  0  0  0
 17 18  2  0  0  0
 18 19  1  0  0  0
 17  1  1  0  0  0
  1  2  2  0  0  0
  2  3  1  0  0  0
  3  4  2  0  0  0
  4  5  1  0  0  0
  5  6  2  0  0  0
  6 24  1  0  0  0
 24 26  1  0  0  0
 26 27  1  0  0  0
 27 28  1  0  0  0
 28 29  1  0  0  0
 29 30  1  0  0  0
 30 31  1  0  0  0
 31 32  1  0  0  0
 32 33  1  0  0  0
 33 34  2  0  0  0
  6  7  1  0  0  0
  7  8  2  0  0  0
  8  9  1  0  0  0
  9 35  1  0  0  0
 35 36  1  0  0  0
 36 37  1  0  0  0
 37 38  1  0  0  0
 38 39  1  0  0  0
 39 40  1  0  0  0
 40 41  1  0  0  0
 41 42  1  0  0  0
 42 43  1  0  0  0
 41 44  1  0  0  0
 44 45  2  0  0  0
 44 46  1  0  0  0
 46 47  2  0  0  0
  9 10  1  0  0  0
 10 11  2  0  0  0
 18 12  1  0  0  0
 10  1  1  0  0  0
  8  3  1  0  0  0
 43 38  1  0  0  0
 33 29  1  0  0  0
 24 25  1  0  0  0
M  END
> <minimizedAffinity>
-7.71355

> <CNNscore>
0.0536282212

> <CNNaffinity>
7.4375252724

> <CNN_VS>
0.3988612592

> <CNNaffinity_variance>
0.1844130158

$$$$
[H]C([H])=C([H])C(=O)N1C([H])([H])C([H])([H])N(C([H])([H])C([H])([H])C([H])([H])n2c(=O)c(-c3c(Cl)c(OC([H])([H])[H])c([H])c(OC([H])([H])[H])c3Cl)c([H])c3c([H])nc(N([H])C([H])([H])C([H])([H])C([H])([H])N4C(=O)C([H])([H])C([H])([H])C4([H])[H])nc32)C([H])([H])C1([H])[H]


 47 51  0  0  0  0  0  0  0  0999 V2000
    0.0131   20.9278  -20.8854 C   0  0  0  0  0  0  0  0  0  0  0  0
    0.7844   21.0437  -22.0192 C   0  0  0  0  0  0  0  0  0  0  0  0
    0.2223   21.5362  -23.1972 C   0  0  0  0  0  0  0  0  0  0  0  0
    0.9454   21.6784  -24.3631 C   0  0  0  0  0  0  0  0  0  0  0  0
    0.3342   22.1619  -25.4493 N   0  0  0  0  0  0  0  0  0  0  0  0
   -0.9554   22.5332  -25.5136 C   0  0  0  0  0  0  0  0  0  0  0  0
   -1.6758   22.3930  -24.3588 N   0  0  0  0  0  0  0  0  0  0  0  0
   -1.1027   21.9121  -23.2459 C   0  0  0  0  0  0  0  0  0  0  0  0
   -1.8347   21.7812  -22.0993 N   0  0  0  0  0  0  0  0  0  0  0  0
   -1.3010   21.3071  -20.9583 C   0  0  0  0  0  0  0  0  0  0  0  0
   -2.0724   21.2292  -19.9571 O   0  0  0  0  0  0  0  0  0  0  0  0
    1.2638   18.5497  -18.2971 C   0  0  0  0  0  0  0  0  0  0  0  0
    1.6734   19.4180  -17.3133 C   0  0  0  0  0  0  0  0  0  0  0  0
    1.5550   20.7988  -17.4595 C   0  0  0  0  0  0  0  0  0  0  0  0
    1.0074   21.2631  -18.6368 C   0  0  0  0  0  0  0  0  0  0  0  0
    0.8460   22.9913  -18.8497 Cl  0  0  0  0  0  0  0  0  0  0  0  0
    0.5809   20.4211  -19.6556 C   0  0  0  0  0  0  0  0  0  0  0  0
    0.7215   19.0489  -19.4595 C   0  0  0  0  0  0  0  0  0  0  0  0
    0.1922   17.9969  -20.7277 Cl  0  0  0  0  0  0  0  0  0  0  0  0
    0.6867   16.5189  -17.1159 C   0  0  0  0  0  0  0  0  0  0  0  0
    1.3782   17.1771  -18.1584 O   0  0  0  0  0  0  0  0  0  0  0  0
    1.9710   21.6651  -16.4621 O   0  0  0  0  0  0  0  0  0  0  0  0
    1.1773   21.7883  -15.3062 C   0  0  0  0  0  0  0  0  0  0  0  0
   -1.5709   23.0490  -26.6827 N   0  0  0  0  0  0  0  0  0  0  0  0
   -1.4205   24.0526  -26.9140 H   0  0  0  0  0  0  0  0  0  0  0  0
   -2.3866   22.2613  -27.5595 C   0  0  0  0  0  0  0  0  0  0  0  0
   -3.1798   23.1508  -28.4656 C   0  0  0  0  0  0  0  0  0  0  0  0
   -4.6574   23.1887  -28.1628 C   0  0  0  0  0  0  0  0  0  0  0  0
   -4.9852   24.2818  -27.2754 N   0  0  0  0  0  0  0  0  0  0  0  0
   -4.7217   24.4152  -25.8512 C   0  0  0  0  0  0  0  0  0  0  0  0
   -4.4137   25.8888  -25.7211 C   0  0  0  0  0  0  0  0  0  0  0  0
   -5.4416   26.5261  -26.6124 C   0  0  0  0  0  0  0  0  0  0  0  0
   -5.6651   25.4982  -27.6523 C   0  0  0  0  0  0  0  0  0  0  0  0
   -6.3316   25.5906  -28.7280 O   0  0  0  0  0  0  0  0  0  0  0  0
   -3.2362   22.1813  -22.1702 C   0  0  0  0  0  0  0  0  0  0  0  0
   -3.4038   23.6080  -21.7512 C   0  0  0  0  0  0  0  0  0  0  0  0
   -4.7066   24.1496  -22.2449 C   0  0  0  0  0  0  0  0  0  0  0  0
   -5.8211   23.5696  -21.5239 N   0  0  0  0  0  0  0  0  0  0  0  0
   -6.0604   24.2017  -20.2651 C   0  0  0  0  0  0  0  0  0  0  0  0
   -7.4349   24.1703  -19.7332 C   0  0  0  0  0  0  0  0  0  0  0  0
   -8.4626   24.4115  -20.7952 N   0  0  0  0  0  0  0  0  0  0  0  0
   -7.8711   24.6864  -22.0550 C   0  0  0  0  0  0  0  0  0  0  0  0
   -6.9913   23.4468  -22.3572 C   0  0  0  0  0  0  0  0  0  0  0  0
   -9.7995   24.3530  -20.4662 C   0  0  0  0  0  0  0  0  0  0  0  0
  -10.0099   24.0916  -19.1628 O   0  0  0  0  0  0  0  0  0  0  0  0
  -10.9897   24.5104  -21.2139 C   0  0  0  0  0  0  0  0  0  0  0  0
  -11.3846   25.4699  -21.9728 C   0  0  0  0  0  0  0  0  0  0  0  0
 20 21  1  0  0  0
 21 12  1  0  0  0
 12 13  2  0  0  0
 13 14  1  0  0  0
 14 22  1  0  0  0
 22 23  1  0  0  0
 14 15  2  0  0  0
 15 16  1  0  0  0
 15 17  1  0  0  0
 17 18  2  0  0  0
 18 19  1  0  0  0
 17  1  1  0  0  0
  1  2  2  0  0  0
  2  3  1  0  0  0
  3  4  2  0  0  0
  4  5  1  0  0  0
  5  6  2  0  0  0
  6 24  1  0  0  0
 24 26  1  0  0  0
 26 27  1  0  0  0
 27 28  1  0  0  0
 28 29  1  0  0  0
 29 30  1  0  0  0
 30 31  1  0  0  0
 31 32  1  0  0  0
 32 33  1  0  0  0
 33 34  2  0  0  0
  6  7  1  0  0  0
  7  8  2  0  0  0
  8  9  1  0  0  0
  9 35  1  0  0  0
 35 36  1  0  0  0
 36 37  1  0  0  0
 37 38  1  0  0  0
 38 39  1  0  0  0
 39 40  1  0  0  0
 40 41  1  0  0  0
 41 42  1  0  0  0
 42 43  1  0  0  0
 41 44  1  0  0  0
 44 45  2  0  0  0
 44 46  1  0  0  0
 46 47  2  0  0  0
  9 10  1  0  0  0
 10 11  2  0  0  0
 18 12  1  0  0  0
 10  1  1  0  0  0
  8  3  1  0  0  0
 43 38  1  0  0  0
 33 29  1  0  0  0
 24 25  1  0  0  0
M  END
> <minimizedAffinity>
-7.64980

> <CNNscore>
0.0535232276

> <CNNaffinity>
7.4050688744

> <CNN_VS>
0.3963432014

> <CNNaffinity_variance>
0.1569715887

$$$$
[H]C([H])=C([H])C(=O)N1C([H])([H])C([H])([H])N(C([H])([H])C([H])([H])C([H])([H])n2c(=O)c(-c3c(Cl)c(OC([H])([H])[H])c([H])c(OC([H])([H])[H])c3Cl)c([H])c3c([H])nc(N([H])C([H])([H])C([H])([H])C([H])([H])N4C(=O)C([H])([H])C([H])([H])C4([H])[H])nc32)C([H])([H])C1([H])[H]


 47 51  0  0  0  0  0  0  0  0999 V2000
   -4.9709   23.1656  -24.0804 C   0  0  0  0  0  0  0  0  0  0  0  0
   -6.1552   22.5159  -23.8172 C   0  0  0  0  0  0  0  0  0  0  0  0
   -6.4802   22.1623  -22.5075 C   0  0  0  0  0  0  0  0  0  0  0  0
   -7.6531   21.5137  -22.1819 C   0  0  0  0  0  0  0  0  0  0  0  0
   -7.8927   21.2126  -20.9016 N   0  0  0  0  0  0  0  0  0  0  0  0
   -7.0746   21.4906  -19.8727 C   0  0  0  0  0  0  0  0  0  0  0  0
   -5.9099   22.1335  -20.1923 N   0  0  0  0  0  0  0  0  0  0  0  0
   -5.6291   22.4545  -21.4637 C   0  0  0  0  0  0  0  0  0  0  0  0
   -4.4631   23.0997  -21.7665 N   0  0  0  0  0  0  0  0  0  0  0  0
   -4.1412   23.4449  -23.0269 C   0  0  0  0  0  0  0  0  0  0  0  0
   -3.0353   24.0396  -23.1907 O   0  0  0  0  0  0  0  0  0  0  0  0
   -3.3127   23.1616  -27.4224 C   0  0  0  0  0  0  0  0  0  0  0  0
   -3.9309   24.2297  -28.0277 C   0  0  0  0  0  0  0  0  0  0  0  0
   -4.9016   24.9828  -27.3702 C   0  0  0  0  0  0  0  0  0  0  0  0
   -5.2200   24.6126  -26.0806 C   0  0  0  0  0  0  0  0  0  0  0  0
   -6.4350   25.5385  -25.2296 Cl  0  0  0  0  0  0  0  0  0  0  0  0
   -4.6200   23.5410  -25.4321 C   0  0  0  0  0  0  0  0  0  0  0  0
   -3.6555   22.8206  -26.1337 C   0  0  0  0  0  0  0  0  0  0  0  0
   -2.9069   21.4839  -25.3289 Cl  0  0  0  0  0  0  0  0  0  0  0  0
   -0.9940   22.8142  -28.0186 C   0  0  0  0  0  0  0  0  0  0  0  0
   -2.3474   22.4093  -28.0694 O   0  0  0  0  0  0  0  0  0  0  0  0
   -5.5186   26.0572  -27.9894 O   0  0  0  0  0  0  0  0  0  0  0  0
   -5.8277   25.9556  -29.3588 C   0  0  0  0  0  0  0  0  0  0  0  0
   -7.3635   21.1619  -18.5236 N   0  0  0  0  0  0  0  0  0  0  0  0
   -8.1864   20.5539  -18.3323 H   0  0  0  0  0  0  0  0  0  0  0  0
   -6.5825   21.6225  -17.4133 C   0  0  0  0  0  0  0  0  0  0  0  0
   -6.3132   20.4938  -16.4673 C   0  0  0  0  0  0  0  0  0  0  0  0
   -5.6269   19.3061  -17.0953 C   0  0  0  0  0  0  0  0  0  0  0  0
   -6.4094   18.1010  -16.9362 N   0  0  0  0  0  0  0  0  0  0  0  0
   -6.3218   17.0827  -15.9013 C   0  0  0  0  0  0  0  0  0  0  0  0
   -7.7707   16.7004  -15.7074 C   0  0  0  0  0  0  0  0  0  0  0  0
   -8.2966   16.6547  -17.1140 C   0  0  0  0  0  0  0  0  0  0  0  0
   -7.4698   17.6630  -17.8123 C   0  0  0  0  0  0  0  0  0  0  0  0
   -7.6039   18.1218  -18.9877 O   0  0  0  0  0  0  0  0  0  0  0  0
   -3.5731   23.3985  -20.6493 C   0  0  0  0  0  0  0  0  0  0  0  0
   -2.6443   22.2546  -20.3888 C   0  0  0  0  0  0  0  0  0  0  0  0
   -1.2232   22.7179  -20.4110 C   0  0  0  0  0  0  0  0  0  0  0  0
   -0.3510   21.7609  -19.7615 N   0  0  0  0  0  0  0  0  0  0  0  0
   -1.0644   20.7699  -19.0198 C   0  0  0  0  0  0  0  0  0  0  0  0
   -0.4237   19.4543  -18.8417 C   0  0  0  0  0  0  0  0  0  0  0  0
    0.2569   18.9785  -20.0877 N   0  0  0  0  0  0  0  0  0  0  0  0
    0.0653   19.8722  -21.1727 C   0  0  0  0  0  0  0  0  0  0  0  0
    0.6298   21.2265  -20.6735 C   0  0  0  0  0  0  0  0  0  0  0  0
    0.9548   17.7905  -20.0639 C   0  0  0  0  0  0  0  0  0  0  0  0
    0.9116   17.1786  -18.8659 O   0  0  0  0  0  0  0  0  0  0  0  0
    1.7034   17.0862  -21.0354 C   0  0  0  0  0  0  0  0  0  0  0  0
    2.8793   17.3010  -21.5082 C   0  0  0  0  0  0  0  0  0  0  0  0
 20 21  1  0  0  0
 21 12  1  0  0  0
 12 13  2  0  0  0
 13 14  1  0  0  0
 14 22  1  0  0  0
 22 23  1  0  0  0
 14 15  2  0  0  0
 15 16  1  0  0  0
 15 17  1  0  0  0
 17 18  2  0  0  0
 18 19  1  0  0  0
 17  1  1  0  0  0
  1  2  2  0  0  0
  2  3  1  0  0  0
  3  4  2  0  0  0
  4  5  1  0  0  0
  5  6  2  0  0  0
  6 24  1  0  0  0
 24 26  1  0  0  0
 26 27  1  0  0  0
 27 28  1  0  0  0
 28 29  1  0  0  0
 29 30  1  0  0  0
 30 31  1  0  0  0
 31 32  1  0  0  0
 32 33  1  0  0  0
 33 34  2  0  0  0
  6  7  1  0  0  0
  7  8  2  0  0  0
  8  9  1  0  0  0
  9 35  1  0  0  0
 35 36  1  0  0  0
 36 37  1  0  0  0
 37 38  1  0  0  0
 38 39  1  0  0  0
 39 40  1  0  0  0
 40 41  1  0  0  0
 41 42  1  0  0  0
 42 43  1  0  0  0
 41 44  1  0  0  0
 44 45  2  0  0  0
 44 46  1  0  0  0
 46 47  2  0  0  0
  9 10  1  0  0  0
 10 11  2  0  0  0
 18 12  1  0  0  0
 10  1  1  0  0  0
  8  3  1  0  0  0
 43 38  1  0  0  0
 33 29  1  0  0  0
 24 25  1  0  0  0
M  END
> <minimizedAffinity>
-6.64191

> <CNNscore>
0.0491301715

> <CNNaffinity>
6.5433340073

> <CNN_VS>
0.3214751184

> <CNNaffinity_variance>
0.6263099313

$$$$
[H]c1nc2c([H])c([H])c(N(c3c(F)c([H])c([H])c([H])c3F)C([H])([H])c3nc([H])c([H])n3S(=O)(=O)N(C([H])([H])[H])C([H])([H])[H])nc2c([H])c1-c1c([H])nn(C([H])([H])[H])c1[H]


 37 41  0  0  0  0  0  0  0  0999 V2000
   -4.7147   23.4071  -27.3416 N   0  0  0  0  0  0  0  0  0  0  0  0
   -3.3906   23.0796  -26.9139 C   0  0  0  0  0  0  0  0  0  0  0  0
   -2.3980   23.0859  -27.8661 C   0  0  0  0  0  0  0  0  0  0  0  0
   -1.1072   22.7446  -27.5298 C   0  0  0  0  0  0  0  0  0  0  0  0
   -0.8230   22.3973  -26.2326 C   0  0  0  0  0  0  0  0  0  0  0  0
    0.4644   22.0656  -25.9282 N   0  0  0  0  0  0  0  0  0  0  0  0
    0.7374   21.7294  -24.6580 C   0  0  0  0  0  0  0  0  0  0  0  0
   -0.1942   21.6972  -23.6437 C   0  0  0  0  0  0  0  0  0  0  0  0
   -1.4932   22.0425  -23.9994 C   0  0  0  0  0  0  0  0  0  0  0  0
   -1.8148   22.3938  -25.2932 C   0  0  0  0  0  0  0  0  0  0  0  0
   -3.0602   22.7327  -25.6599 N   0  0  0  0  0  0  0  0  0  0  0  0
    0.1766   21.3233  -22.2861 C   0  0  0  0  0  0  0  0  0  0  0  0
    1.3845   20.8081  -21.8997 C   0  0  0  0  0  0  0  0  0  0  0  0
    1.3124   20.6012  -20.5817 N   0  0  0  0  0  0  0  0  0  0  0  0
    0.1397   20.9465  -20.0839 N   0  0  0  0  0  0  0  0  0  0  0  0
   -0.3070   20.8640  -18.6913 C   0  0  0  0  0  0  0  0  0  0  0  0
   -0.5916   21.4022  -21.1294 C   0  0  0  0  0  0  0  0  0  0  0  0
   -4.9519   24.1132  -28.5242 C   0  0  0  0  0  0  0  0  0  0  0  0
   -5.4313   23.4685  -29.6319 C   0  0  0  0  0  0  0  0  0  0  0  0
   -5.7451   22.1380  -29.6643 F   0  0  0  0  0  0  0  0  0  0  0  0
   -5.6521   24.1288  -30.8448 C   0  0  0  0  0  0  0  0  0  0  0  0
   -5.3972   25.4724  -30.9892 C   0  0  0  0  0  0  0  0  0  0  0  0
   -4.9169   26.1104  -29.8741 C   0  0  0  0  0  0  0  0  0  0  0  0
   -4.6901   25.4686  -28.6581 C   0  0  0  0  0  0  0  0  0  0  0  0
   -4.1802   26.1998  -27.6237 F   0  0  0  0  0  0  0  0  0  0  0  0
   -5.7348   22.9842  -26.3691 C   0  0  0  0  0  0  0  0  0  0  0  0
   -6.2144   24.0728  -24.1621 N   0  0  0  0  0  0  0  0  0  0  0  0
   -6.5484   25.3305  -23.7438 C   0  0  0  0  0  0  0  0  0  0  0  0
   -6.6265   26.1341  -24.8512 C   0  0  0  0  0  0  0  0  0  0  0  0
   -6.3473   25.3897  -25.9229 N   0  0  0  0  0  0  0  0  0  0  0  0
   -6.0937   24.1099  -25.4714 C   0  0  0  0  0  0  0  0  0  0  0  0
   -6.0248   22.7571  -23.0850 S   0  0  0  0  0  0  0  0  0  0  0  0
   -6.9996   22.9303  -21.9230 O   0  0  0  0  0  0  0  0  0  0  0  0
   -6.3675   21.4493  -23.7512 O   0  0  0  0  0  0  0  0  0  0  0  0
   -3.8848   23.8717  -21.9888 C   0  0  0  0  0  0  0  0  0  0  0  0
   -4.4752   22.6311  -22.3873 N   0  0  0  0  0  0  0  0  0  0  0  0
   -4.5220   21.6919  -21.2898 C   0  0  0  0  0  0  0  0  0  0  0  0
 35 36  1  0  0  0
 36 37  1  0  0  0
 36 32  1  0  0  0
 32 33  2  0  0  0
 32 34  2  0  0  0
 32 27  1  0  0  0
 27 28  1  0  0  0
 28 29  2  0  0  0
 29 30  1  0  0  0
 30 31  2  0  0  0
 31 26  1  0  0  0
 26  1  1  0  0  0
  1  2  1  0  0  0
  2  3  2  0  0  0
  3  4  1  0  0  0
  4  5  2  0  0  0
  5  6  1  0  0  0
  6  7  2  0  0  0
  7  8  1  0  0  0
  8  9  2  0  0  0
  9 10  1  0  0  0
 10 11  2  0  0  0
  8 12  1  0  0  0
 12 13  1  0  0  0
 13 14  2  0  0  0
 14 15  1  0  0  0
 15 16  1  0  0  0
 15 17  1  0  0  0
  1 18  1  0  0  0
 18 19  2  0  0  0
 19 20  1  0  0  0
 19 21  1  0  0  0
 21 22  2  0  0  0
 22 23  1  0  0  0
 23 24  2  0  0  0
 24 25  1  0  0  0
 31 27  1  0  0  0
 11  2  1  0  0  0
 17 12  2  0  0  0
 24 18  1  0  0  0
 10  5  1  0  0  0
M  END
> <minimizedAffinity>
-9.95991

> <CNNscore>
0.7683392763

> <CNNaffinity>
8.1472892761

> <CNN_VS>
6.2598824501

> <CNNaffinity_variance>
0.0720993131

$$$$
[H]c1nc2c([H])c([H])c(N(c3c(F)c([H])c([H])c([H])c3F)C([H])([H])c3nc([H])c([H])n3S(=O)(=O)N(C([H])([H])[H])C([H])([H])[H])nc2c([H])c1-c1c([H])nn(C([H])([H])[H])c1[H]


 37 41  0  0  0  0  0  0  0  0999 V2000
   -4.4799   23.1660  -27.0294 N   0  0  0  0  0  0  0  0  0  0  0  0
   -3.1329   22.8737  -26.6507 C   0  0  0  0  0  0  0  0  0  0  0  0
   -2.1727   22.9291  -27.6340 C   0  0  0  0  0  0  0  0  0  0  0  0
   -0.8614   22.6235  -27.3459 C   0  0  0  0  0  0  0  0  0  0  0  0
   -0.5241   22.2624  -26.0653 C   0  0  0  0  0  0  0  0  0  0  0  0
    0.7824   21.9668  -25.8088 N   0  0  0  0  0  0  0  0  0  0  0  0
    1.1073   21.6169  -24.5547 C   0  0  0  0  0  0  0  0  0  0  0  0
    0.2109   21.5366  -23.5117 C   0  0  0  0  0  0  0  0  0  0  0  0
   -1.1093   21.8461  -23.8189 C   0  0  0  0  0  0  0  0  0  0  0  0
   -1.4840   22.2101  -25.0948 C   0  0  0  0  0  0  0  0  0  0  0  0
   -2.7509   22.5152  -25.4148 N   0  0  0  0  0  0  0  0  0  0  0  0
    0.6376   21.1505  -22.1741 C   0  0  0  0  0  0  0  0  0  0  0  0
    1.9024   20.7678  -21.8169 C   0  0  0  0  0  0  0  0  0  0  0  0
    1.8689   20.4958  -20.5093 N   0  0  0  0  0  0  0  0  0  0  0  0
    0.6684   20.6752  -19.9909 N   0  0  0  0  0  0  0  0  0  0  0  0
    0.2489   20.4782  -18.6013 C   0  0  0  0  0  0  0  0  0  0  0  0
   -0.1229   21.0853  -21.0114 C   0  0  0  0  0  0  0  0  0  0  0  0
   -4.7753   23.9742  -28.1307 C   0  0  0  0  0  0  0  0  0  0  0  0
   -5.1846   23.4151  -29.3107 C   0  0  0  0  0  0  0  0  0  0  0  0
   -5.3710   22.0731  -29.4949 F   0  0  0  0  0  0  0  0  0  0  0  0
   -5.4591   24.1829  -30.4468 C   0  0  0  0  0  0  0  0  0  0  0  0
   -5.3314   25.5522  -30.4378 C   0  0  0  0  0  0  0  0  0  0  0  0
   -4.9207   26.1039  -29.2512 C   0  0  0  0  0  0  0  0  0  0  0  0
   -4.6420   25.3546  -28.1098 C   0  0  0  0  0  0  0  0  0  0  0  0
   -4.2101   26.0104  -26.9926 F   0  0  0  0  0  0  0  0  0  0  0  0
   -5.4590   22.5877  -26.0955 C   0  0  0  0  0  0  0  0  0  0  0  0
   -6.3828   24.3059  -24.5206 N   0  0  0  0  0  0  0  0  0  0  0  0
   -7.4532   25.1559  -24.5186 C   0  0  0  0  0  0  0  0  0  0  0  0
   -8.1440   24.9634  -25.6864 C   0  0  0  0  0  0  0  0  0  0  0  0
   -7.5144   24.0196  -26.3888 N   0  0  0  0  0  0  0  0  0  0  0  0
   -6.4206   23.6240  -25.6448 C   0  0  0  0  0  0  0  0  0  0  0  0
   -5.2631   24.2217  -23.2297 S   0  0  0  0  0  0  0  0  0  0  0  0
   -3.9317   24.8048  -23.6965 O   0  0  0  0  0  0  0  0  0  0  0  0
   -5.7160   25.0520  -22.0562 O   0  0  0  0  0  0  0  0  0  0  0  0
   -3.9909   22.5561  -21.6080 C   0  0  0  0  0  0  0  0  0  0  0  0
   -4.9236   22.6417  -22.6890 N   0  0  0  0  0  0  0  0  0  0  0  0
   -6.1634   21.9705  -22.3713 C   0  0  0  0  0  0  0  0  0  0  0  0
 35 36  1  0  0  0
 36 37  1  0  0  0
 36 32  1  0  0  0
 32 33  2  0  0  0
 32 34  2  0  0  0
 32 27  1  0  0  0
 27 28  1  0  0  0
 28 29  2  0  0  0
 29 30  1  0  0  0
 30 31  2  0  0  0
 31 26  1  0  0  0
 26  1  1  0  0  0
  1  2  1  0  0  0
  2  3  2  0  0  0
  3  4  1  0  0  0
  4  5  2  0  0  0
  5  6  1  0  0  0
  6  7  2  0  0  0
  7  8  1  0  0  0
  8  9  2  0  0  0
  9 10  1  0  0  0
 10 11  2  0  0  0
  8 12  1  0  0  0
 12 13  1  0  0  0
 13 14  2  0  0  0
 14 15  1  0  0  0
 15 16  1  0  0  0
 15 17  1  0  0  0
  1 18  1  0  0  0
 18 19  2  0  0  0
 19 20  1  0  0  0
 19 21  1  0  0  0
 21 22  2  0  0  0
 22 23  1  0  0  0
 23 24  2  0  0  0
 24 25  1  0  0  0
 31 27  1  0  0  0
 11  2  1  0  0  0
 17 12  2  0  0  0
 24 18  1  0  0  0
 10  5  1  0  0  0
M  END
> <minimizedAffinity>
-9.43502

> <CNNscore>
0.6980828643

> <CNNaffinity>
8.0963630676

> <CNN_VS>
5.6519322395

> <CNNaffinity_variance>
0.0997009650

$$$$
[H]c1nc2c([H])c([H])c(N(c3c(F)c([H])c([H])c([H])c3F)C([H])([H])c3nc([H])c([H])n3S(=O)(=O)N(C([H])([H])[H])C([H])([H])[H])nc2c([H])c1-c1c([H])nn(C([H])([H])[H])c1[H]


 37 41  0  0  0  0  0  0  0  0999 V2000
    0.3210   21.1152  -20.3162 N   0  0  0  0  0  0  0  0  0  0  0  0
    0.2771   21.3182  -21.7305 C   0  0  0  0  0  0  0  0  0  0  0  0
    1.4615   21.2139  -22.4221 C   0  0  0  0  0  0  0  0  0  0  0  0
    1.4970   21.4335  -23.7809 C   0  0  0  0  0  0  0  0  0  0  0  0
    0.3359   21.7583  -24.4370 C   0  0  0  0  0  0  0  0  0  0  0  0
    0.4008   21.9686  -25.7829 N   0  0  0  0  0  0  0  0  0  0  0  0
   -0.7376   22.2833  -26.4199 C   0  0  0  0  0  0  0  0  0  0  0  0
   -1.9645   22.4079  -25.8060 C   0  0  0  0  0  0  0  0  0  0  0  0
   -1.9836   22.1851  -24.4337 C   0  0  0  0  0  0  0  0  0  0  0  0
   -0.8361   21.8598  -23.7423 C   0  0  0  0  0  0  0  0  0  0  0  0
   -0.8299   21.6382  -22.4190 N   0  0  0  0  0  0  0  0  0  0  0  0
   -3.1594   22.7514  -26.5639 C   0  0  0  0  0  0  0  0  0  0  0  0
   -4.4008   22.9871  -26.0374 C   0  0  0  0  0  0  0  0  0  0  0  0
   -5.2099   23.2631  -27.0641 N   0  0  0  0  0  0  0  0  0  0  0  0
   -4.5799   23.2231  -28.2232 N   0  0  0  0  0  0  0  0  0  0  0  0
   -5.1326   23.4674  -29.5575 C   0  0  0  0  0  0  0  0  0  0  0  0
   -3.2938   22.9048  -27.9397 C   0  0  0  0  0  0  0  0  0  0  0  0
    1.3688   21.6097  -19.5345 C   0  0  0  0  0  0  0  0  0  0  0  0
    1.3088   22.8742  -19.0149 C   0  0  0  0  0  0  0  0  0  0  0  0
    0.2429   23.7155  -19.1760 F   0  0  0  0  0  0  0  0  0  0  0  0
    2.3478   23.4209  -18.2552 C   0  0  0  0  0  0  0  0  0  0  0  0
    3.4944   22.7102  -17.9876 C   0  0  0  0  0  0  0  0  0  0  0  0
    3.5459   21.4440  -18.5122 C   0  0  0  0  0  0  0  0  0  0  0  0
    2.5209   20.8835  -19.2720 C   0  0  0  0  0  0  0  0  0  0  0  0
    2.6962   19.6239  -19.7692 F   0  0  0  0  0  0  0  0  0  0  0  0
   -0.7969   20.2869  -19.8374 C   0  0  0  0  0  0  0  0  0  0  0  0
   -2.2605   21.5935  -18.2763 N   0  0  0  0  0  0  0  0  0  0  0  0
   -2.3500   21.7518  -16.9216 C   0  0  0  0  0  0  0  0  0  0  0  0
   -1.3704   20.9869  -16.3442 C   0  0  0  0  0  0  0  0  0  0  0  0
   -0.6962   20.3736  -17.3188 N   0  0  0  0  0  0  0  0  0  0  0  0
   -1.2667   20.7651  -18.5135 C   0  0  0  0  0  0  0  0  0  0  0  0
   -3.3032   22.3906  -19.3740 S   0  0  0  0  0  0  0  0  0  0  0  0
   -4.2662   23.2725  -18.5831 O   0  0  0  0  0  0  0  0  0  0  0  0
   -2.5348   23.3014  -20.2969 O   0  0  0  0  0  0  0  0  0  0  0  0
   -5.5232   20.9838  -19.7138 C   0  0  0  0  0  0  0  0  0  0  0  0
   -4.2754   21.3499  -20.3097 N   0  0  0  0  0  0  0  0  0  0  0  0
   -4.4655   21.9269  -21.6211 C   0  0  0  0  0  0  0  0  0  0  0  0
 35 36  1  0  0  0
 36 37  1  0  0  0
 36 32  1  0  0  0
 32 33  2  0  0  0
 32 34  2  0  0  0
 32 27  1  0  0  0
 27 28  1  0  0  0
 28 29  2  0  0  0
 29 30  1  0  0  0
 30 31  2  0  0  0
 31 26  1  0  0  0
 26  1  1  0  0  0
  1  2  1  0  0  0
  2  3  2  0  0  0
  3  4  1  0  0  0
  4  5  2  0  0  0
  5  6  1  0  0  0
  6  7  2  0  0  0
  7  8  1  0  0  0
  8  9  2  0  0  0
  9 10  1  0  0  0
 10 11  2  0  0  0
  8 12  1  0  0  0
 12 13  1  0  0  0
 13 14  2  0  0  0
 14 15  1  0  0  0
 15 16  1  0  0  0
 15 17  1  0  0  0
  1 18  1  0  0  0
 18 19  2  0  0  0
 19 20  1  0  0  0
 19 21  1  0  0  0
 21 22  2  0  0  0
 22 23  1  0  0  0
 23 24  2  0  0  0
 24 25  1  0  0  0
 31 27  1  0  0  0
 11  2  1  0  0  0
 17 12  2  0  0  0
 24 18  1  0  0  0
 10  5  1  0  0  0
M  END
> <minimizedAffinity>
-7.74260

> <CNNscore>
0.5676267743

> <CNNaffinity>
7.5325493813

> <CNN_VS>
4.2756767273

> <CNNaffinity_variance>
0.0257096328

$$$$
[H]c1nc2c([H])c([H])c(N(c3c(F)c([H])c([H])c([H])c3F)C([H])([H])c3nc([H])c([H])n3S(=O)(=O)N(C([H])([H])[H])C([H])([H])[H])nc2c([H])c1-c1c([H])nn(C([H])([H])[H])c1[H]


 37 41  0  0  0  0  0  0  0  0999 V2000
   -4.3125   23.2292  -25.9225 N   0  0  0  0  0  0  0  0  0  0  0  0
   -2.9487   22.8466  -25.7303 C   0  0  0  0  0  0  0  0  0  0  0  0
   -2.1309   22.8409  -26.8363 C   0  0  0  0  0  0  0  0  0  0  0  0
   -0.8158   22.4477  -26.7288 C   0  0  0  0  0  0  0  0  0  0  0  0
   -0.3307   22.0609  -25.5044 C   0  0  0  0  0  0  0  0  0  0  0  0
    0.9761   21.6781  -25.4276 N   0  0  0  0  0  0  0  0  0  0  0  0
    1.4459   21.3034  -24.2277 C   0  0  0  0  0  0  0  0  0  0  0  0
    0.6977   21.2797  -23.0712 C   0  0  0  0  0  0  0  0  0  0  0  0
   -0.6286   21.6775  -23.1965 C   0  0  0  0  0  0  0  0  0  0  0  0
   -1.1498   22.0697  -24.4111 C   0  0  0  0  0  0  0  0  0  0  0  0
   -2.4254   22.4595  -24.5563 N   0  0  0  0  0  0  0  0  0  0  0  0
    1.2772   20.8619  -21.8025 C   0  0  0  0  0  0  0  0  0  0  0  0
    0.6036   20.7378  -20.6173 C   0  0  0  0  0  0  0  0  0  0  0  0
    1.4952   20.3376  -19.7063 N   0  0  0  0  0  0  0  0  0  0  0  0
    2.7033   20.1928  -20.2176 N   0  0  0  0  0  0  0  0  0  0  0  0
    3.9273   19.7728  -19.5312 C   0  0  0  0  0  0  0  0  0  0  0  0
    2.5960   20.5147  -21.5293 C   0  0  0  0  0  0  0  0  0  0  0  0
   -4.6961   24.0914  -26.9536 C   0  0  0  0  0  0  0  0  0  0  0  0
   -4.7496   25.4424  -26.7434 C   0  0  0  0  0  0  0  0  0  0  0  0
   -4.4076   26.0453  -25.5647 F   0  0  0  0  0  0  0  0  0  0  0  0
   -5.1591   26.3384  -27.7360 C   0  0  0  0  0  0  0  0  0  0  0  0
   -5.5323   25.9050  -28.9867 C   0  0  0  0  0  0  0  0  0  0  0  0
   -5.4756   24.5495  -29.1885 C   0  0  0  0  0  0  0  0  0  0  0  0
   -5.0712   23.6423  -28.2111 C   0  0  0  0  0  0  0  0  0  0  0  0
   -5.0839   22.3114  -28.5162 F   0  0  0  0  0  0  0  0  0  0  0  0
   -5.1977   22.6759  -24.8855 C   0  0  0  0  0  0  0  0  0  0  0  0
   -5.8866   24.3409  -23.1422 N   0  0  0  0  0  0  0  0  0  0  0  0
   -5.3735   24.7830  -21.9549 C   0  0  0  0  0  0  0  0  0  0  0  0
   -4.1978   24.1154  -21.7314 C   0  0  0  0  0  0  0  0  0  0  0  0
   -3.9933   23.2837  -22.7547 N   0  0  0  0  0  0  0  0  0  0  0  0
   -5.0565   23.4401  -23.6214 C   0  0  0  0  0  0  0  0  0  0  0  0
   -7.3517   24.9337  -23.7973 S   0  0  0  0  0  0  0  0  0  0  0  0
   -7.2786   26.4572  -23.8629 O   0  0  0  0  0  0  0  0  0  0  0  0
   -7.5586   24.4454  -25.2082 O   0  0  0  0  0  0  0  0  0  0  0  0
   -8.4867   24.1974  -21.5186 C   0  0  0  0  0  0  0  0  0  0  0  0
   -8.7384   24.5662  -22.8776 N   0  0  0  0  0  0  0  0  0  0  0  0
   -9.6713   25.6668  -22.9621 C   0  0  0  0  0  0  0  0  0  0  0  0
 35 36  1  0  0  0
 36 37  1  0  0  0
 36 32  1  0  0  0
 32 33  2  0  0  0
 32 34  2  0  0  0
 32 27  1  0  0  0
 27 28  1  0  0  0
 28 29  2  0  0  0
 29 30  1  0  0  0
 30 31  2  0  0  0
 31 26  1  0  0  0
 26  1  1  0  0  0
  1  2  1  0  0  0
  2  3  2  0  0  0
  3  4  1  0  0  0
  4  5  2  0  0  0
  5  6  1  0  0  0
  6  7  2  0  0  0
  7  8  1  0  0  0
  8  9  2  0  0  0
  9 10  1  0  0  0
 10 11  2  0  0  0
  8 12  1  0  0  0
 12 13  1  0  0  0
 13 14  2  0  0  0
 14 15  1  0  0  0
 15 16  1  0  0  0
 15 17  1  0  0  0
  1 18  1  0  0  0
 18 19  2  0  0  0
 19 20  1  0  0  0
 19 21  1  0  0  0
 21 22  2  0  0  0
 22 23  1  0  0  0
 23 24  2  0  0  0
 24 25  1  0  0  0
 31 27  1  0  0  0
 11  2  1  0  0  0
 17 12  2  0  0  0
 24 18  1  0  0  0
 10  5  1  0  0  0
M  END
> <minimizedAffinity>
-8.49878

> <CNNscore>
0.4304864407

> <CNNaffinity>
7.5013360977

> <CNN_VS>
3.2292234898

> <CNNaffinity_variance>
0.1613602340

$$$$
[H]c1nc2c([H])c([H])c(N(c3c(F)c([H])c([H])c([H])c3F)C([H])([H])c3nc([H])c([H])n3S(=O)(=O)N(C([H])([H])[H])C([H])([H])[H])nc2c([H])c1-c1c([H])nn(C([H])([H])[H])c1[H]


 37 41  0  0  0  0  0  0  0  0999 V2000
   -2.1002   21.6335  -22.1460 N   0  0  0  0  0  0  0  0  0  0  0  0
   -1.8028   21.9060  -23.5173 C   0  0  0  0  0  0  0  0  0  0  0  0
   -0.4946   21.7711  -23.9203 C   0  0  0  0  0  0  0  0  0  0  0  0
   -0.1324   22.0533  -25.2184 C   0  0  0  0  0  0  0  0  0  0  0  0
   -1.0928   22.4714  -26.1055 C   0  0  0  0  0  0  0  0  0  0  0  0
   -0.7054   22.7421  -27.3848 N   0  0  0  0  0  0  0  0  0  0  0  0
   -1.6487   23.1480  -28.2487 C   0  0  0  0  0  0  0  0  0  0  0  0
   -2.9791   23.3092  -27.9298 C   0  0  0  0  0  0  0  0  0  0  0  0
   -3.3287   23.0223  -26.6150 C   0  0  0  0  0  0  0  0  0  0  0  0
   -2.3898   22.6027  -25.6968 C   0  0  0  0  0  0  0  0  0  0  0  0
   -2.7033   22.3180  -24.4237 N   0  0  0  0  0  0  0  0  0  0  0  0
   -3.9477   23.7527  -28.9224 C   0  0  0  0  0  0  0  0  0  0  0  0
   -5.0204   23.0309  -29.3720 C   0  0  0  0  0  0  0  0  0  0  0  0
   -5.6475   23.7918  -30.2737 N   0  0  0  0  0  0  0  0  0  0  0  0
   -5.0559   24.9596  -30.4418 N   0  0  0  0  0  0  0  0  0  0  0  0
   -5.4503   26.0480  -31.3394 C   0  0  0  0  0  0  0  0  0  0  0  0
   -3.9882   24.9623  -29.6078 C   0  0  0  0  0  0  0  0  0  0  0  0
   -1.1095   21.6547  -21.1604 C   0  0  0  0  0  0  0  0  0  0  0  0
   -0.3749   20.5319  -20.8920 C   0  0  0  0  0  0  0  0  0  0  0  0
   -0.5138   19.3501  -21.5656 F   0  0  0  0  0  0  0  0  0  0  0  0
    0.6032   20.4989  -19.8929 C   0  0  0  0  0  0  0  0  0  0  0  0
    0.8808   21.6028  -19.1212 C   0  0  0  0  0  0  0  0  0  0  0  0
    0.1398   22.7235  -19.3971 C   0  0  0  0  0  0  0  0  0  0  0  0
   -0.8390   22.7743  -20.3877 C   0  0  0  0  0  0  0  0  0  0  0  0
   -1.5358   23.9370  -20.5524 F   0  0  0  0  0  0  0  0  0  0  0  0
   -3.5116   21.2696  -21.9437 C   0  0  0  0  0  0  0  0  0  0  0  0
   -4.6235   22.8973  -20.3945 N   0  0  0  0  0  0  0  0  0  0  0  0
   -4.8857   22.9490  -19.0540 C   0  0  0  0  0  0  0  0  0  0  0  0
   -4.3886   21.8058  -18.4848 C   0  0  0  0  0  0  0  0  0  0  0  0
   -3.8352   21.0697  -19.4505 N   0  0  0  0  0  0  0  0  0  0  0  0
   -3.9926   21.7677  -20.6313 C   0  0  0  0  0  0  0  0  0  0  0  0
   -5.0732   24.1443  -21.4761 S   0  0  0  0  0  0  0  0  0  0  0  0
   -5.7364   25.2668  -20.6819 O   0  0  0  0  0  0  0  0  0  0  0  0
   -3.8676   24.7428  -22.1544 O   0  0  0  0  0  0  0  0  0  0  0  0
   -7.4213   23.1264  -22.1641 C   0  0  0  0  0  0  0  0  0  0  0  0
   -6.2002   23.6773  -22.6658 N   0  0  0  0  0  0  0  0  0  0  0  0
   -6.4483   24.7927  -23.5507 C   0  0  0  0  0  0  0  0  0  0  0  0
 35 36  1  0  0  0
 36 37  1  0  0  0
 36 32  1  0  0  0
 32 33  2  0  0  0
 32 34  2  0  0  0
 32 27  1  0  0  0
 27 28  1  0  0  0
 28 29  2  0  0  0
 29 30  1  0  0  0
 30 31  2  0  0  0
 31 26  1  0  0  0
 26  1  1  0  0  0
  1  2  1  0  0  0
  2  3  2  0  0  0
  3  4  1  0  0  0
  4  5  2  0  0  0
  5  6  1  0  0  0
  6  7  2  0  0  0
  7  8  1  0  0  0
  8  9  2  0  0  0
  9 10  1  0  0  0
 10 11  2  0  0  0
  8 12  1  0  0  0
 12 13  1  0  0  0
 13 14  2  0  0  0
 14 15  1  0  0  0
 15 16  1  0  0  0
 15 17  1  0  0  0
  1 18  1  0  0  0
 18 19  2  0  0  0
 19 20  1  0  0  0
 19 21  1  0  0  0
 21 22  2  0  0  0
 22 23  1  0  0  0
 23 24  2  0  0  0
 24 25  1  0  0  0
 31 27  1  0  0  0
 11  2  1  0  0  0
 17 12  2  0  0  0
 24 18  1  0  0  0
 10  5  1  0  0  0
M  END
> <minimizedAffinity>
-8.93398

> <CNNscore>
0.4212204218

> <CNNaffinity>
7.7931098938

> <CNN_VS>
3.2826170921

> <CNNaffinity_variance>
0.0808804780

$$$$
[H]c1nc2c([H])c([H])c(N(c3c(F)c([H])c([H])c([H])c3F)C([H])([H])c3nc([H])c([H])n3S(=O)(=O)N(C([H])([H])[H])C([H])([H])[H])nc2c([H])c1-c1c([H])nn(C([H])([H])[H])c1[H]


 37 41  0  0  0  0  0  0  0  0999 V2000
   -4.5950   22.6531  -23.5239 N   0  0  0  0  0  0  0  0  0  0  0  0
   -3.2313   22.4380  -23.8946 C   0  0  0  0  0  0  0  0  0  0  0  0
   -2.8996   22.6145  -25.2179 C   0  0  0  0  0  0  0  0  0  0  0  0
   -1.6120   22.3884  -25.6499 C   0  0  0  0  0  0  0  0  0  0  0  0
   -0.6633   21.9843  -24.7440 C   0  0  0  0  0  0  0  0  0  0  0  0
    0.6040   21.7696  -25.2001 N   0  0  0  0  0  0  0  0  0  0  0  0
    1.5283   21.3771  -24.3099 C   0  0  0  0  0  0  0  0  0  0  0  0
    1.2827   21.1771  -22.9692 C   0  0  0  0  0  0  0  0  0  0  0  0
   -0.0225   21.4075  -22.5488 C   0  0  0  0  0  0  0  0  0  0  0  0
   -1.0013   21.8115  -23.4317 C   0  0  0  0  0  0  0  0  0  0  0  0
   -2.2666   22.0420  -23.0494 N   0  0  0  0  0  0  0  0  0  0  0  0
    2.3381   20.7514  -22.0609 C   0  0  0  0  0  0  0  0  0  0  0  0
    2.3584   20.9532  -20.7072 C   0  0  0  0  0  0  0  0  0  0  0  0
    3.4949   20.4167  -20.2536 N   0  0  0  0  0  0  0  0  0  0  0  0
    4.2159   19.8797  -21.2199 N   0  0  0  0  0  0  0  0  0  0  0  0
    5.5116   19.2054  -21.1085 C   0  0  0  0  0  0  0  0  0  0  0  0
    3.5152   20.0749  -22.3630 C   0  0  0  0  0  0  0  0  0  0  0  0
   -5.3052   23.7776  -23.9534 C   0  0  0  0  0  0  0  0  0  0  0  0
   -6.2690   23.6619  -24.9179 C   0  0  0  0  0  0  0  0  0  0  0  0
   -6.6338   22.4764  -25.4935 F   0  0  0  0  0  0  0  0  0  0  0  0
   -6.9808   24.7647  -25.4004 C   0  0  0  0  0  0  0  0  0  0  0  0
   -6.7479   26.0346  -24.9266 C   0  0  0  0  0  0  0  0  0  0  0  0
   -5.7804   26.1412  -23.9602 C   0  0  0  0  0  0  0  0  0  0  0  0
   -5.0608   25.0539  -23.4684 C   0  0  0  0  0  0  0  0  0  0  0  0
   -4.0987   25.2847  -22.5274 F   0  0  0  0  0  0  0  0  0  0  0  0
   -5.0940   21.6144  -22.6089 C   0  0  0  0  0  0  0  0  0  0  0  0
   -6.2368   22.4797  -20.5520 N   0  0  0  0  0  0  0  0  0  0  0  0
   -5.8378   22.8924  -19.3115 C   0  0  0  0  0  0  0  0  0  0  0  0
   -4.4729   22.7839  -19.2522 C   0  0  0  0  0  0  0  0  0  0  0  0
   -4.0437   22.3162  -20.4259 N   0  0  0  0  0  0  0  0  0  0  0  0
   -5.1581   22.1337  -21.2203 C   0  0  0  0  0  0  0  0  0  0  0  0
   -7.8758   22.4686  -21.0427 S   0  0  0  0  0  0  0  0  0  0  0  0
   -8.0761   23.5439  -22.1078 O   0  0  0  0  0  0  0  0  0  0  0  0
   -8.2498   21.1526  -21.6752 O   0  0  0  0  0  0  0  0  0  0  0  0
  -10.1231   23.5939  -20.2022 C   0  0  0  0  0  0  0  0  0  0  0  0
   -8.9889   22.8199  -19.8012 N   0  0  0  0  0  0  0  0  0  0  0  0
   -9.3899   21.5889  -19.1589 C   0  0  0  0  0  0  0  0  0  0  0  0
 35 36  1  0  0  0
 36 37  1  0  0  0
 36 32  1  0  0  0
 32 33  2  0  0  0
 32 34  2  0  0  0
 32 27  1  0  0  0
 27 28  1  0  0  0
 28 29  2  0  0  0
 29 30  1  0  0  0
 30 31  2  0  0  0
 31 26  1  0  0  0
 26  1  1  0  0  0
  1  2  1  0  0  0
  2  3  2  0  0  0
  3  4  1  0  0  0
  4  5  2  0  0  0
  5  6  1  0  0  0
  6  7  2  0  0  0
  7  8  1  0  0  0
  8  9  2  0  0  0
  9 10  1  0  0  0
 10 11  2  0  0  0
  8 12  1  0  0  0
 12 13  1  0  0  0
 13 14  2  0  0  0
 14 15  1  0  0  0
 15 16  1  0  0  0
 15 17  1  0  0  0
  1 18  1  0  0  0
 18 19  2  0  0  0
 19 20  1  0  0  0
 19 21  1  0  0  0
 21 22  2  0  0  0
 22 23  1  0  0  0
 23 24  2  0  0  0
 24 25  1  0  0  0
 31 27  1  0  0  0
 11  2  1  0  0  0
 17 12  2  0  0  0
 24 18  1  0  0  0
 10  5  1  0  0  0
M  END
> <minimizedAffinity>
-7.92444

> <CNNscore>
0.3924500346

> <CNNaffinity>
7.1423721313

> <CNN_VS>
2.8030242920

> <CNNaffinity_variance>
0.0303335246

$$$$
[H]c1nc2c([H])c([H])c(N(c3c(F)c([H])c([H])c([H])c3F)C([H])([H])c3nc([H])c([H])n3S(=O)(=O)N(C([H])([H])[H])C([H])([H])[H])nc2c([H])c1-c1c([H])nn(C([H])([H])[H])c1[H]


 37 41  0  0  0  0  0  0  0  0999 V2000
   -2.7583   21.9921  -21.9707 N   0  0  0  0  0  0  0  0  0  0  0  0
   -2.3799   22.1204  -23.3431 C   0  0  0  0  0  0  0  0  0  0  0  0
   -1.0748   21.8337  -23.6694 C   0  0  0  0  0  0  0  0  0  0  0  0
   -0.6340   21.9718  -24.9665 C   0  0  0  0  0  0  0  0  0  0  0  0
   -1.5129   22.3996  -25.9302 C   0  0  0  0  0  0  0  0  0  0  0  0
   -1.0489   22.5255  -27.2064 N   0  0  0  0  0  0  0  0  0  0  0  0
   -1.9129   22.9416  -28.1452 C   0  0  0  0  0  0  0  0  0  0  0  0
   -3.2342   23.2493  -27.9058 C   0  0  0  0  0  0  0  0  0  0  0  0
   -3.6635   23.1068  -26.5911 C   0  0  0  0  0  0  0  0  0  0  0  0
   -2.8074   22.6821  -25.5974 C   0  0  0  0  0  0  0  0  0  0  0  0
   -3.1990   22.5350  -24.3225 N   0  0  0  0  0  0  0  0  0  0  0  0
   -4.1145   23.6942  -28.9770 C   0  0  0  0  0  0  0  0  0  0  0  0
   -5.0747   22.9358  -29.5906 C   0  0  0  0  0  0  0  0  0  0  0  0
   -5.6498   23.7128  -30.5129 N   0  0  0  0  0  0  0  0  0  0  0  0
   -5.1291   24.9253  -30.5417 N   0  0  0  0  0  0  0  0  0  0  0  0
   -5.4977   26.0431  -31.4136 C   0  0  0  0  0  0  0  0  0  0  0  0
   -4.1650   24.9416  -29.5899 C   0  0  0  0  0  0  0  0  0  0  0  0
   -3.8937   22.6263  -21.4586 C   0  0  0  0  0  0  0  0  0  0  0  0
   -4.1130   23.9553  -21.6992 C   0  0  0  0  0  0  0  0  0  0  0  0
   -3.2932   24.7375  -22.4647 F   0  0  0  0  0  0  0  0  0  0  0  0
   -5.2178   24.6374  -21.1796 C   0  0  0  0  0  0  0  0  0  0  0  0
   -6.1502   24.0026  -20.3929 C   0  0  0  0  0  0  0  0  0  0  0  0
   -5.9225   22.6708  -20.1569 C   0  0  0  0  0  0  0  0  0  0  0  0
   -4.8271   21.9755  -20.6655 C   0  0  0  0  0  0  0  0  0  0  0  0
   -4.6867   20.6572  -20.3385 F   0  0  0  0  0  0  0  0  0  0  0  0
   -1.7883   21.2012  -21.1970 C   0  0  0  0  0  0  0  0  0  0  0  0
    0.2216   21.9288  -19.8867 N   0  0  0  0  0  0  0  0  0  0  0  0
    0.5163   22.9606  -19.0400 C   0  0  0  0  0  0  0  0  0  0  0  0
   -0.6044   23.7407  -18.9233 C   0  0  0  0  0  0  0  0  0  0  0  0
   -1.5635   23.2027  -19.6791 N   0  0  0  0  0  0  0  0  0  0  0  0
   -1.0281   22.0756  -20.2700 C   0  0  0  0  0  0  0  0  0  0  0  0
    1.3532   20.7125  -20.2953 S   0  0  0  0  0  0  0  0  0  0  0  0
    0.9359   20.0795  -21.6203 O   0  0  0  0  0  0  0  0  0  0  0  0
    2.7295   21.2912  -20.5021 O   0  0  0  0  0  0  0  0  0  0  0  0
    2.1982   19.7260  -17.9853 C   0  0  0  0  0  0  0  0  0  0  0  0
    1.4554   19.4346  -19.1725 N   0  0  0  0  0  0  0  0  0  0  0  0
    0.1239   18.9669  -18.8610 C   0  0  0  0  0  0  0  0  0  0  0  0
 35 36  1  0  0  0
 36 37  1  0  0  0
 36 32  1  0  0  0
 32 33  2  0  0  0
 32 34  2  0  0  0
 32 27  1  0  0  0
 27 28  1  0  0  0
 28 29  2  0  0  0
 29 30  1  0  0  0
 30 31  2  0  0  0
 31 26  1  0  0  0
 26  1  1  0  0  0
  1  2  1  0  0  0
  2  3  2  0  0  0
  3  4  1  0  0  0
  4  5  2  0  0  0
  5  6  1  0  0  0
  6  7  2  0  0  0
  7  8  1  0  0  0
  8  9  2  0  0  0
  9 10  1  0  0  0
 10 11  2  0  0  0
  8 12  1  0  0  0
 12 13  1  0  0  0
 13 14  2  0  0  0
 14 15  1  0  0  0
 15 16  1  0  0  0
 15 17  1  0  0  0
  1 18  1  0  0  0
 18 19  2  0  0  0
 19 20  1  0  0  0
 19 21  1  0  0  0
 21 22  2  0  0  0
 22 23  1  0  0  0
 23 24  2  0  0  0
 24 25  1  0  0  0
 31 27  1  0  0  0
 11  2  1  0  0  0
 17 12  2  0  0  0
 24 18  1  0  0  0
 10  5  1  0  0  0
M  END
> <minimizedAffinity>
-8.36811

> <CNNscore>
0.3285630345

> <CNNaffinity>
7.6325721741

> <CNN_VS>
2.5077810287

> <CNNaffinity_variance>
0.1314016730

$$$$
[H]c1nc2c([H])c([H])c(N(c3c(F)c([H])c([H])c([H])c3F)C([H])([H])c3nc([H])c([H])n3S(=O)(=O)N(C([H])([H])[H])C([H])([H])[H])nc2c([H])c1-c1c([H])nn(C([H])([H])[H])c1[H]


 37 41  0  0  0  0  0  0  0  0999 V2000
    0.5968   20.9498  -20.5220 N   0  0  0  0  0  0  0  0  0  0  0  0
    0.4826   21.2121  -21.9225 C   0  0  0  0  0  0  0  0  0  0  0  0
    1.6353   21.1642  -22.6716 C   0  0  0  0  0  0  0  0  0  0  0  0
    1.6026   21.4424  -24.0197 C   0  0  0  0  0  0  0  0  0  0  0  0
    0.4057   21.7689  -24.6070 C   0  0  0  0  0  0  0  0  0  0  0  0
    0.4033   22.0379  -25.9440 N   0  0  0  0  0  0  0  0  0  0  0  0
   -0.7699   22.3539  -26.5138 C   0  0  0  0  0  0  0  0  0  0  0  0
   -1.9691   22.4245  -25.8394 C   0  0  0  0  0  0  0  0  0  0  0  0
   -1.9193   22.1428  -24.4787 C   0  0  0  0  0  0  0  0  0  0  0  0
   -0.7343   21.8141  -23.8556 C   0  0  0  0  0  0  0  0  0  0  0  0
   -0.6617   21.5363  -22.5449 N   0  0  0  0  0  0  0  0  0  0  0  0
   -3.2049   22.7732  -26.5259 C   0  0  0  0  0  0  0  0  0  0  0  0
   -4.3970   23.0743  -25.9242 C   0  0  0  0  0  0  0  0  0  0  0  0
   -5.2699   23.3304  -26.9028 N   0  0  0  0  0  0  0  0  0  0  0  0
   -4.7272   23.2162  -28.1005 N   0  0  0  0  0  0  0  0  0  0  0  0
   -5.3679   23.4178  -29.4023 C   0  0  0  0  0  0  0  0  0  0  0  0
   -3.4342   22.8680  -27.8944 C   0  0  0  0  0  0  0  0  0  0  0  0
    1.4856   21.6607  -19.7108 C   0  0  0  0  0  0  0  0  0  0  0  0
    2.7210   21.1485  -19.4214 C   0  0  0  0  0  0  0  0  0  0  0  0
    3.1896   19.9621  -19.9140 F   0  0  0  0  0  0  0  0  0  0  0  0
    3.6288   21.8100  -18.5883 C   0  0  0  0  0  0  0  0  0  0  0  0
    3.3251   23.0208  -18.0113 C   0  0  0  0  0  0  0  0  0  0  0  0
    2.0849   23.5266  -18.3067 C   0  0  0  0  0  0  0  0  0  0  0  0
    1.1676   22.8812  -19.1337 C   0  0  0  0  0  0  0  0  0  0  0  0
   -0.0505   23.4656  -19.3320 F   0  0  0  0  0  0  0  0  0  0  0  0
   -0.2549   19.8289  -20.0940 C   0  0  0  0  0  0  0  0  0  0  0  0
   -1.4371   19.9529  -17.8865 N   0  0  0  0  0  0  0  0  0  0  0  0
   -2.5160   20.6305  -17.3913 C   0  0  0  0  0  0  0  0  0  0  0  0
   -3.0254   21.4039  -18.4014 C   0  0  0  0  0  0  0  0  0  0  0  0
   -2.2787   21.2073  -19.4897 N   0  0  0  0  0  0  0  0  0  0  0  0
   -1.2956   20.3005  -19.1471 C   0  0  0  0  0  0  0  0  0  0  0  0
   -0.5150   18.8622  -16.9445 S   0  0  0  0  0  0  0  0  0  0  0  0
   -1.1829   18.7061  -15.5807 O   0  0  0  0  0  0  0  0  0  0  0  0
   -0.4774   17.4922  -17.5716 O   0  0  0  0  0  0  0  0  0  0  0  0
    1.2006   20.6417  -15.9888 C   0  0  0  0  0  0  0  0  0  0  0  0
    1.0816   19.3703  -16.6334 N   0  0  0  0  0  0  0  0  0  0  0  0
    1.7750   18.3379  -15.8972 C   0  0  0  0  0  0  0  0  0  0  0  0
 35 36  1  0  0  0
 36 37  1  0  0  0
 36 32  1  0  0  0
 32 33  2  0  0  0
 32 34  2  0  0  0
 32 27  1  0  0  0
 27 28  1  0  0  0
 28 29  2  0  0  0
 29 30  1  0  0  0
 30 31  2  0  0  0
 31 26  1  0  0  0
 26  1  1  0  0  0
  1  2  1  0  0  0
  2  3  2  0  0  0
  3  4  1  0  0  0
  4  5  2  0  0  0
  5  6  1  0  0  0
  6  7  2  0  0  0
  7  8  1  0  0  0
  8  9  2  0  0  0
  9 10  1  0  0  0
 10 11  2  0  0  0
  8 12  1  0  0  0
 12 13  1  0  0  0
 13 14  2  0  0  0
 14 15  1  0  0  0
 15 16  1  0  0  0
 15 17  1  0  0  0
  1 18  1  0  0  0
 18 19  2  0  0  0
 19 20  1  0  0  0
 19 21  1  0  0  0
 21 22  2  0  0  0
 22 23  1  0  0  0
 23 24  2  0  0  0
 24 25  1  0  0  0
 31 27  1  0  0  0
 11  2  1  0  0  0
 17 12  2  0  0  0
 24 18  1  0  0  0
 10  5  1  0  0  0
M  END
> <minimizedAffinity>
-6.92377

> <CNNscore>
0.2923485637

> <CNNaffinity>
7.2005338669

> <CNN_VS>
2.1050658226

> <CNNaffinity_variance>
0.0755083635

$$$$
[H]c1nc2c([H])c([H])c(N(c3c(F)c([H])c([H])c([H])c3F)C([H])([H])c3nc([H])c([H])n3S(=O)(=O)N(C([H])([H])[H])C([H])([H])[H])nc2c([H])c1-c1c([H])nn(C([H])([H])[H])c1[H]


 37 41  0  0  0  0  0  0  0  0999 V2000
   -3.0267   22.3558  -23.8667 N   0  0  0  0  0  0  0  0  0  0  0  0
   -1.6250   22.0788  -23.8266 C   0  0  0  0  0  0  0  0  0  0  0  0
   -0.9212   22.2033  -25.0019 C   0  0  0  0  0  0  0  0  0  0  0  0
    0.4249   21.9163  -25.0420 C   0  0  0  0  0  0  0  0  0  0  0  0
    1.0559   21.5040  -23.8949 C   0  0  0  0  0  0  0  0  0  0  0  0
    2.3898   21.2284  -23.9642 N   0  0  0  0  0  0  0  0  0  0  0  0
    3.0025   20.8282  -22.8393 C   0  0  0  0  0  0  0  0  0  0  0  0
    2.3750   20.6774  -21.6223 C   0  0  0  0  0  0  0  0  0  0  0  0
    1.0157   20.9690  -21.5984 C   0  0  0  0  0  0  0  0  0  0  0  0
    0.3493   21.3831  -22.7320 C   0  0  0  0  0  0  0  0  0  0  0  0
   -0.9609   21.6721  -22.7331 N   0  0  0  0  0  0  0  0  0  0  0  0
    3.1065   20.2396  -20.4418 C   0  0  0  0  0  0  0  0  0  0  0  0
    3.0058   19.0103  -19.8483 C   0  0  0  0  0  0  0  0  0  0  0  0
    3.8343   19.0182  -18.8002 N   0  0  0  0  0  0  0  0  0  0  0  0
    4.4673   20.1692  -18.6709 N   0  0  0  0  0  0  0  0  0  0  0  0
    5.4457   20.5489  -17.6490 C   0  0  0  0  0  0  0  0  0  0  0  0
    4.0305   20.9531  -19.6859 C   0  0  0  0  0  0  0  0  0  0  0  0
   -3.5257   23.5489  -24.3968 C   0  0  0  0  0  0  0  0  0  0  0  0
   -3.6515   24.6590  -23.6068 C   0  0  0  0  0  0  0  0  0  0  0  0
   -3.2774   24.7066  -22.2925 F   0  0  0  0  0  0  0  0  0  0  0  0
   -4.1760   25.8633  -24.0868 C   0  0  0  0  0  0  0  0  0  0  0  0
   -4.5962   25.9964  -25.3895 C   0  0  0  0  0  0  0  0  0  0  0  0
   -4.4664   24.8789  -26.1740 C   0  0  0  0  0  0  0  0  0  0  0  0
   -3.9471   23.6709  -25.7126 C   0  0  0  0  0  0  0  0  0  0  0  0
   -3.8943   22.6150  -26.5769 F   0  0  0  0  0  0  0  0  0  0  0  0
   -3.8229   21.2936  -23.2318 C   0  0  0  0  0  0  0  0  0  0  0  0
   -5.3944   22.1094  -21.4568 N   0  0  0  0  0  0  0  0  0  0  0  0
   -5.3117   22.3547  -20.1147 C   0  0  0  0  0  0  0  0  0  0  0  0
   -4.0329   22.0683  -19.7138 C   0  0  0  0  0  0  0  0  0  0  0  0
   -3.3469   21.6570  -20.7819 N   0  0  0  0  0  0  0  0  0  0  0  0
   -4.2134   21.6901  -21.8563 C   0  0  0  0  0  0  0  0  0  0  0  0
   -6.8290   22.3513  -22.3570 S   0  0  0  0  0  0  0  0  0  0  0  0
   -6.5351   22.0804  -23.8304 O   0  0  0  0  0  0  0  0  0  0  0  0
   -7.9068   21.3831  -21.9416 O   0  0  0  0  0  0  0  0  0  0  0  0
   -7.6881   24.5563  -23.5500 C   0  0  0  0  0  0  0  0  0  0  0  0
   -7.4525   23.9355  -22.2830 N   0  0  0  0  0  0  0  0  0  0  0  0
   -8.6423   23.9411  -21.4627 C   0  0  0  0  0  0  0  0  0  0  0  0
 35 36  1  0  0  0
 36 37  1  0  0  0
 36 32  1  0  0  0
 32 33  2  0  0  0
 32 34  2  0  0  0
 32 27  1  0  0  0
 27 28  1  0  0  0
 28 29  2  0  0  0
 29 30  1  0  0  0
 30 31  2  0  0  0
 31 26  1  0  0  0
 26  1  1  0  0  0
  1  2  1  0  0  0
  2  3  2  0  0  0
  3  4  1  0  0  0
  4  5  2  0  0  0
  5  6  1  0  0  0
  6  7  2  0  0  0
  7  8  1  0  0  0
  8  9  2  0  0  0
  9 10  1  0  0  0
 10 11  2  0  0  0
  8 12  1  0  0  0
 12 13  1  0  0  0
 13 14  2  0  0  0
 14 15  1  0  0  0
 15 16  1  0  0  0
 15 17  1  0  0  0
  1 18  1  0  0  0
 18 19  2  0  0  0
 19 20  1  0  0  0
 19 21  1  0  0  0
 21 22  2  0  0  0
 22 23  1  0  0  0
 23 24  2  0  0  0
 24 25  1  0  0  0
 31 27  1  0  0  0
 11  2  1  0  0  0
 17 12  2  0  0  0
 24 18  1  0  0  0
 10  5  1  0  0  0
M  END
> <minimizedAffinity>
-8.07666

> <CNNscore>
0.2876508236

> <CNNaffinity>
7.0488686562

> <CNN_VS>
2.0276129246

> <CNNaffinity_variance>
0.0737732500

$$$$
[H]/C(C(=O)N1C([H])([H])C([H])([H])C([H])(N2C(=O)N(c3c(Cl)c(OC([H])([H])[H])c([H])c(OC([H])([H])[H])c3Cl)C([H])([H])c3c([H])nc(N([H])c4c([H])c([H])c([H])c(C([H])([H])[H])c4[H])nc32)C([H])([H])C1([H])[H])=C(/[H])C([H])([H])N(C([H])([H])[H])C([H])([H])[H]


 46 50  0  0  0  0  0  0  0  0999 V2000
   -0.3251   21.2244  -21.0511 N   0  0  0  0  0  0  0  0  0  0  0  0
    0.5739   21.2404  -22.1664 C   0  0  0  0  0  0  0  0  0  0  0  0
   -0.0462   21.6905  -23.4117 C   0  0  0  0  0  0  0  0  0  0  0  0
    0.7700   21.7284  -24.5475 C   0  0  0  0  0  0  0  0  0  0  0  0
    0.3008   22.1240  -25.7221 N   0  0  0  0  0  0  0  0  0  0  0  0
   -0.9827   22.5022  -25.8501 C   0  0  0  0  0  0  0  0  0  0  0  0
   -1.7740   22.4652  -24.7482 N   0  0  0  0  0  0  0  0  0  0  0  0
   -1.3621   22.0759  -23.5341 C   0  0  0  0  0  0  0  0  0  0  0  0
   -2.2425   22.0549  -22.4015 N   0  0  0  0  0  0  0  0  0  0  0  0
   -1.6926   21.6241  -21.1790 C   0  0  0  0  0  0  0  0  0  0  0  0
   -2.4086   21.5862  -20.1750 O   0  0  0  0  0  0  0  0  0  0  0  0
    0.9617   21.2645  -17.5513 C   0  0  0  0  0  0  0  0  0  0  0  0
    1.1664   19.9038  -17.3524 C   0  0  0  0  0  0  0  0  0  0  0  0
    0.8910   18.9921  -18.3402 C   0  0  0  0  0  0  0  0  0  0  0  0
    0.3955   19.4640  -19.5604 C   0  0  0  0  0  0  0  0  0  0  0  0
    0.0415   18.3140  -20.8247 Cl  0  0  0  0  0  0  0  0  0  0  0  0
    0.1823   20.8056  -19.7863 C   0  0  0  0  0  0  0  0  0  0  0  0
    0.4705   21.6893  -18.7735 C   0  0  0  0  0  0  0  0  0  0  0  0
    0.2162   23.3902  -19.0467 Cl  0  0  0  0  0  0  0  0  0  0  0  0
    2.5737   22.5665  -16.3332 C   0  0  0  0  0  0  0  0  0  0  0  0
    1.2333   22.1914  -16.5692 O   0  0  0  0  0  0  0  0  0  0  0  0
    1.0717   17.6482  -18.2081 O   0  0  0  0  0  0  0  0  0  0  0  0
    2.3401   17.0564  -18.1181 C   0  0  0  0  0  0  0  0  0  0  0  0
   -3.5800   22.4832  -22.6052 C   0  0  0  0  0  0  0  0  0  0  0  0
   -3.6945   23.8831  -22.0525 C   0  0  0  0  0  0  0  0  0  0  0  0
   -5.0548   24.4837  -22.1129 C   0  0  0  0  0  0  0  0  0  0  0  0
   -6.1564   23.5781  -22.0884 N   0  0  0  0  0  0  0  0  0  0  0  0
   -5.9701   22.2231  -22.5431 C   0  0  0  0  0  0  0  0  0  0  0  0
   -4.6674   21.6376  -22.0404 C   0  0  0  0  0  0  0  0  0  0  0  0
   -7.4280   23.9994  -21.6344 C   0  0  0  0  0  0  0  0  0  0  0  0
   -8.4153   23.1958  -21.6051 O   0  0  0  0  0  0  0  0  0  0  0  0
   -7.6662   25.3488  -21.1876 C   0  0  0  0  0  0  0  0  0  0  0  0
   -8.9240   25.7940  -20.9889 C   0  0  0  0  0  0  0  0  0  0  0  0
   -9.2182   27.1728  -20.5295 C   0  0  0  0  0  0  0  0  0  0  0  0
  -10.1630   27.8340  -21.4263 N   0  0  0  0  0  0  0  0  0  0  0  0
  -11.0808   28.6611  -20.6265 C   0  0  0  0  0  0  0  0  0  0  0  0
  -10.9493   26.8135  -22.0907 C   0  0  0  0  0  0  0  0  0  0  0  0
   -1.5631   22.9358  -27.0507 N   0  0  0  0  0  0  0  0  0  0  0  0
   -0.8877   23.1421  -27.8520 H   0  0  0  0  0  0  0  0  0  0  0  0
   -2.9261   23.1259  -27.3402 C   0  0  0  0  0  0  0  0  0  0  0  0
   -3.3323   22.9422  -28.6558 C   0  0  0  0  0  0  0  0  0  0  0  0
   -4.6445   23.0907  -28.9977 C   0  0  0  0  0  0  0  0  0  0  0  0
   -5.5936   23.4251  -28.0469 C   0  0  0  0  0  0  0  0  0  0  0  0
   -5.2349   23.6146  -26.7379 C   0  0  0  0  0  0  0  0  0  0  0  0
   -6.2290   23.9689  -25.6969 C   0  0  0  0  0  0  0  0  0  0  0  0
   -3.8869   23.4576  -26.4099 C   0  0  0  0  0  0  0  0  0  0  0  0
 20 21  1  0  0  0
 21 12  1  0  0  0
 12 13  2  0  0  0
 13 14  1  0  0  0
 14 22  1  0  0  0
 22 23  1  0  0  0
 14 15  2  0  0  0
 15 16  1  0  0  0
 15 17  1  0  0  0
 17  1  1  0  0  0
  1  2  1  0  0  0
  2  3  1  0  0  0
  3  4  2  0  0  0
  4  5  1  0  0  0
  5  6  2  0  0  0
  6 38  1  0  0  0
 38 40  1  0  0  0
 40 41  2  0  0  0
 41 42  1  0  0  0
 42 43  2  0  0  0
 43 44  1  0  0  0
 44 45  1  0  0  0
 44 46  2  0  0  0
  6  7  1  0  0  0
  7  8  2  0  0  0
  8  9  1  0  0  0
  9 24  1  0  0  0
 24 25  1  0  0  0
 25 26  1  0  0  0
 26 27  1  0  0  0
 27 28  1  0  0  0
 28 29  1  0  0  0
 27 30  1  0  0  0
 30 31  2  0  0  0
 30 32  1  0  0  0
 32 33  2  0  0  0
 33 34  1  0  0  0
 34 35  1  0  0  0
 35 36  1  0  0  0
 35 37  1  0  0  0
  9 10  1  0  0  0
 10 11  2  0  0  0
 17 18  2  0  0  0
 18 19  1  0  0  0
 18 12  1  0  0  0
 10  1  1  0  0  0
  8  3  1  0  0  0
 29 24  1  0  0  0
 46 40  1  0  0  0
 38 39  1  0  0  0
M  END
> <minimizedAffinity>
-9.03971

> <CNNscore>
0.1992513835

> <CNNaffinity>
7.7413978577

> <CNN_VS>
1.5424842834

> <CNNaffinity_variance>
0.0598631725

$$$$
[H]/C(C(=O)N1C([H])([H])C([H])([H])C([H])(N2C(=O)N(c3c(Cl)c(OC([H])([H])[H])c([H])c(OC([H])([H])[H])c3Cl)C([H])([H])c3c([H])nc(N([H])c4c([H])c([H])c([H])c(C([H])([H])[H])c4[H])nc32)C([H])([H])C1([H])[H])=C(/[H])C([H])([H])N(C([H])([H])[H])C([H])([H])[H]


 46 50  0  0  0  0  0  0  0  0999 V2000
   -0.2900   21.1638  -21.0522 N   0  0  0  0  0  0  0  0  0  0  0  0
    0.6017   21.2256  -22.1717 C   0  0  0  0  0  0  0  0  0  0  0  0
   -0.0343   21.6963  -23.4013 C   0  0  0  0  0  0  0  0  0  0  0  0
    0.7741   21.7791  -24.5403 C   0  0  0  0  0  0  0  0  0  0  0  0
    0.2905   22.1962  -25.7015 N   0  0  0  0  0  0  0  0  0  0  0  0
   -1.0007   22.5536  -25.8123 C   0  0  0  0  0  0  0  0  0  0  0  0
   -1.7844   22.4730  -24.7073 N   0  0  0  0  0  0  0  0  0  0  0  0
   -1.3579   22.0600  -23.5062 C   0  0  0  0  0  0  0  0  0  0  0  0
   -2.2308   21.9930  -22.3696 N   0  0  0  0  0  0  0  0  0  0  0  0
   -1.6654   21.5409  -21.1618 C   0  0  0  0  0  0  0  0  0  0  0  0
   -2.3745   21.4634  -20.1552 O   0  0  0  0  0  0  0  0  0  0  0  0
    0.9661   18.9841  -18.2995 C   0  0  0  0  0  0  0  0  0  0  0  0
    1.2554   19.9477  -17.3398 C   0  0  0  0  0  0  0  0  0  0  0  0
    1.0441   21.2809  -17.5856 C   0  0  0  0  0  0  0  0  0  0  0  0
    0.5285   21.6533  -18.8316 C   0  0  0  0  0  0  0  0  0  0  0  0
    0.2552   23.3463  -19.1560 Cl  0  0  0  0  0  0  0  0  0  0  0  0
    0.2328   20.7217  -19.8016 C   0  0  0  0  0  0  0  0  0  0  0  0
    0.4570   19.3951  -19.5190 C   0  0  0  0  0  0  0  0  0  0  0  0
    0.0787   18.2036  -20.7313 Cl  0  0  0  0  0  0  0  0  0  0  0  0
    0.2426   16.9321  -17.2782 C   0  0  0  0  0  0  0  0  0  0  0  0
    1.1732   17.6422  -18.0674 O   0  0  0  0  0  0  0  0  0  0  0  0
    1.3049   22.2715  -16.6873 O   0  0  0  0  0  0  0  0  0  0  0  0
    2.5370   22.3963  -16.0287 C   0  0  0  0  0  0  0  0  0  0  0  0
   -3.5772   22.4012  -22.5545 C   0  0  0  0  0  0  0  0  0  0  0  0
   -3.6826   23.8329  -22.0878 C   0  0  0  0  0  0  0  0  0  0  0  0
   -5.0482   24.4221  -22.1399 C   0  0  0  0  0  0  0  0  0  0  0  0
   -6.1422   23.5147  -22.0208 N   0  0  0  0  0  0  0  0  0  0  0  0
   -5.9621   22.1345  -22.3949 C   0  0  0  0  0  0  0  0  0  0  0  0
   -4.6393   21.5882  -21.9007 C   0  0  0  0  0  0  0  0  0  0  0  0
   -7.4007   23.9581  -21.5515 C   0  0  0  0  0  0  0  0  0  0  0  0
   -8.3809   23.1534  -21.4379 O   0  0  0  0  0  0  0  0  0  0  0  0
   -7.6329   25.3320  -21.1832 C   0  0  0  0  0  0  0  0  0  0  0  0
   -8.8840   25.7766  -20.9450 C   0  0  0  0  0  0  0  0  0  0  0  0
   -9.1720   27.1802  -20.5629 C   0  0  0  0  0  0  0  0  0  0  0  0
  -10.5750   27.3452  -20.1910 N   0  0  0  0  0  0  0  0  0  0  0  0
  -11.4097   26.5686  -21.1218 C   0  0  0  0  0  0  0  0  0  0  0  0
  -10.9239   28.7439  -20.3427 C   0  0  0  0  0  0  0  0  0  0  0  0
   -1.5963   23.0073  -26.9979 N   0  0  0  0  0  0  0  0  0  0  0  0
   -0.9285   23.2757  -27.7870 H   0  0  0  0  0  0  0  0  0  0  0  0
   -2.9657   23.1463  -27.2865 C   0  0  0  0  0  0  0  0  0  0  0  0
   -3.3581   23.0011  -28.6111 C   0  0  0  0  0  0  0  0  0  0  0  0
   -4.6747   23.1032  -28.9536 C   0  0  0  0  0  0  0  0  0  0  0  0
   -5.6417   23.3519  -27.9946 C   0  0  0  0  0  0  0  0  0  0  0  0
   -5.2969   23.5010  -26.6767 C   0  0  0  0  0  0  0  0  0  0  0  0
   -6.3102   23.7634  -25.6271 C   0  0  0  0  0  0  0  0  0  0  0  0
   -3.9442   23.3926  -26.3483 C   0  0  0  0  0  0  0  0  0  0  0  0
 20 21  1  0  0  0
 21 12  1  0  0  0
 12 13  2  0  0  0
 13 14  1  0  0  0
 14 22  1  0  0  0
 22 23  1  0  0  0
 14 15  2  0  0  0
 15 16  1  0  0  0
 15 17  1  0  0  0
 17  1  1  0  0  0
  1  2  1  0  0  0
  2  3  1  0  0  0
  3  4  2  0  0  0
  4  5  1  0  0  0
  5  6  2  0  0  0
  6 38  1  0  0  0
 38 40  1  0  0  0
 40 41  2  0  0  0
 41 42  1  0  0  0
 42 43  2  0  0  0
 43 44  1  0  0  0
 44 45  1  0  0  0
 44 46  2  0  0  0
  6  7  1  0  0  0
  7  8  2  0  0  0
  8  9  1  0  0  0
  9 24  1  0  0  0
 24 25  1  0  0  0
 25 26  1  0  0  0
 26 27  1  0  0  0
 27 28  1  0  0  0
 28 29  1  0  0  0
 27 30  1  0  0  0
 30 31  2  0  0  0
 30 32  1  0  0  0
 32 33  2  0  0  0
 33 34  1  0  0  0
 34 35  1  0  0  0
 35 36  1  0  0  0
 35 37  1  0  0  0
  9 10  1  0  0  0
 10 11  2  0  0  0
 17 18  2  0  0  0
 18 19  1  0  0  0
 18 12  1  0  0  0
 10  1  1  0  0  0
  8  3  1  0  0  0
 29 24  1  0  0  0
 46 40  1  0  0  0
 38 39  1  0  0  0
M  END
> <minimizedAffinity>
-8.95692

> <CNNscore>
0.1909850389

> <CNNaffinity>
7.6624770164

> <CNN_VS>
1.4634184837

> <CNNaffinity_variance>
0.0548670515

$$$$
[H]/C(C(=O)N1C([H])([H])C([H])([H])C([H])(N2C(=O)N(c3c(Cl)c(OC([H])([H])[H])c([H])c(OC([H])([H])[H])c3Cl)C([H])([H])c3c([H])nc(N([H])c4c([H])c([H])c([H])c(C([H])([H])[H])c4[H])nc32)C([H])([H])C1([H])[H])=C(/[H])C([H])([H])N(C([H])([H])[H])C([H])([H])[H]


 46 50  0  0  0  0  0  0  0  0999 V2000
    0.7310   20.4144  -18.9591 N   0  0  0  0  0  0  0  0  0  0  0  0
    1.9168   20.4230  -19.7629 C   0  0  0  0  0  0  0  0  0  0  0  0
    1.6781   20.8042  -21.1543 C   0  0  0  0  0  0  0  0  0  0  0  0
    2.7902   20.8309  -22.0029 C   0  0  0  0  0  0  0  0  0  0  0  0
    2.6764   21.1657  -23.2800 N   0  0  0  0  0  0  0  0  0  0  0  0
    1.4778   21.4913  -23.7942 C   0  0  0  0  0  0  0  0  0  0  0  0
    0.3994   21.4651  -22.9708 N   0  0  0  0  0  0  0  0  0  0  0  0
    0.4468   21.1358  -21.6729 C   0  0  0  0  0  0  0  0  0  0  0  0
   -0.7262   21.1236  -20.8468 N   0  0  0  0  0  0  0  0  0  0  0  0
   -0.5483   20.7582  -19.4986 C   0  0  0  0  0  0  0  0  0  0  0  0
   -1.5261   20.7304  -18.7467 O   0  0  0  0  0  0  0  0  0  0  0  0
    1.2924   20.6150  -15.2780 C   0  0  0  0  0  0  0  0  0  0  0  0
    1.0763   19.2872  -14.9268 C   0  0  0  0  0  0  0  0  0  0  0  0
    0.7548   18.3458  -15.8719 C   0  0  0  0  0  0  0  0  0  0  0  0
    0.6475   18.7532  -17.2059 C   0  0  0  0  0  0  0  0  0  0  0  0
    0.2393   17.5648  -18.4172 Cl  0  0  0  0  0  0  0  0  0  0  0  0
    0.8555   20.0610  -17.5835 C   0  0  0  0  0  0  0  0  0  0  0  0
    1.1767   20.9760  -16.6091 C   0  0  0  0  0  0  0  0  0  0  0  0
    1.4530   22.6319  -17.0715 Cl  0  0  0  0  0  0  0  0  0  0  0  0
    2.9418   21.6406  -13.8620 C   0  0  0  0  0  0  0  0  0  0  0  0
    1.6155   21.5712  -14.3406 O   0  0  0  0  0  0  0  0  0  0  0  0
    0.5333   17.0309  -15.5923 O   0  0  0  0  0  0  0  0  0  0  0  0
   -0.3190   16.6051  -14.5629 C   0  0  0  0  0  0  0  0  0  0  0  0
   -1.9553   21.4942  -21.4514 C   0  0  0  0  0  0  0  0  0  0  0  0
   -1.7804   22.8842  -22.0135 C   0  0  0  0  0  0  0  0  0  0  0  0
   -2.9954   23.4792  -22.6337 C   0  0  0  0  0  0  0  0  0  0  0  0
   -4.2542   23.0257  -22.1398 N   0  0  0  0  0  0  0  0  0  0  0  0
   -4.3481   21.7240  -21.5281 C   0  0  0  0  0  0  0  0  0  0  0  0
   -3.1792   21.4533  -20.6046 C   0  0  0  0  0  0  0  0  0  0  0  0
   -5.4090   23.8343  -22.2547 C   0  0  0  0  0  0  0  0  0  0  0  0
   -6.5355   23.4386  -21.8121 O   0  0  0  0  0  0  0  0  0  0  0  0
   -5.3672   25.1346  -22.8748 C   0  0  0  0  0  0  0  0  0  0  0  0
   -5.9380   25.3389  -24.0798 C   0  0  0  0  0  0  0  0  0  0  0  0
   -5.9210   26.6583  -24.7564 C   0  0  0  0  0  0  0  0  0  0  0  0
   -5.4064   26.5425  -26.1187 N   0  0  0  0  0  0  0  0  0  0  0  0
   -6.4071   25.8540  -26.9496 C   0  0  0  0  0  0  0  0  0  0  0  0
   -4.2139   25.7191  -26.0856 C   0  0  0  0  0  0  0  0  0  0  0  0
    1.2644   21.8590  -25.1304 N   0  0  0  0  0  0  0  0  0  0  0  0
    2.1392   21.9726  -25.7325 H   0  0  0  0  0  0  0  0  0  0  0  0
    0.0414   22.0895  -25.7854 C   0  0  0  0  0  0  0  0  0  0  0  0
    0.0906   22.6704  -27.0463 C   0  0  0  0  0  0  0  0  0  0  0  0
   -1.0594   22.9005  -27.7430 C   0  0  0  0  0  0  0  0  0  0  0  0
   -2.2923   22.5621  -27.2120 C   0  0  0  0  0  0  0  0  0  0  0  0
   -2.3849   21.9866  -25.9717 C   0  0  0  0  0  0  0  0  0  0  0  0
   -3.6901   21.6094  -25.3789 C   0  0  0  0  0  0  0  0  0  0  0  0
   -1.1957   21.7599  -25.2761 C   0  0  0  0  0  0  0  0  0  0  0  0
 20 21  1  0  0  0
 21 12  1  0  0  0
 12 13  2  0  0  0
 13 14  1  0  0  0
 14 22  1  0  0  0
 22 23  1  0  0  0
 14 15  2  0  0  0
 15 16  1  0  0  0
 15 17  1  0  0  0
 17  1  1  0  0  0
  1  2  1  0  0  0
  2  3  1  0  0  0
  3  4  2  0  0  0
  4  5  1  0  0  0
  5  6  2  0  0  0
  6 38  1  0  0  0
 38 40  1  0  0  0
 40 41  2  0  0  0
 41 42  1  0  0  0
 42 43  2  0  0  0
 43 44  1  0  0  0
 44 45  1  0  0  0
 44 46  2  0  0  0
  6  7  1  0  0  0
  7  8  2  0  0  0
  8  9  1  0  0  0
  9 24  1  0  0  0
 24 25  1  0  0  0
 25 26  1  0  0  0
 26 27  1  0  0  0
 27 28  1  0  0  0
 28 29  1  0  0  0
 27 30  1  0  0  0
 30 31  2  0  0  0
 30 32  1  0  0  0
 32 33  2  0  0  0
 33 34  1  0  0  0
 34 35  1  0  0  0
 35 36  1  0  0  0
 35 37  1  0  0  0
  9 10  1  0  0  0
 10 11  2  0  0  0
 17 18  2  0  0  0
 18 19  1  0  0  0
 18 12  1  0  0  0
 10  1  1  0  0  0
  8  3  1  0  0  0
 29 24  1  0  0  0
 46 40  1  0  0  0
 38 39  1  0  0  0
M  END
> <minimizedAffinity>
-8.03820

> <CNNscore>
0.1264908612

> <CNNaffinity>
7.1864595413

> <CNN_VS>
0.9090214372

> <CNNaffinity_variance>
0.1969625503

$$$$
[H]/C(C(=O)N1C([H])([H])C([H])([H])C([H])(N2C(=O)N(c3c(Cl)c(OC([H])([H])[H])c([H])c(OC([H])([H])[H])c3Cl)C([H])([H])c3c([H])nc(N([H])c4c([H])c([H])c([H])c(C([H])([H])[H])c4[H])nc32)C([H])([H])C1([H])[H])=C(/[H])C([H])([H])N(C([H])([H])[H])C([H])([H])[H]


 46 50  0  0  0  0  0  0  0  0999 V2000
   -0.3652   21.3174  -20.8028 N   0  0  0  0  0  0  0  0  0  0  0  0
    0.3329   21.3976  -22.0512 C   0  0  0  0  0  0  0  0  0  0  0  0
   -0.5244   21.7595  -23.1791 C   0  0  0  0  0  0  0  0  0  0  0  0
    0.0868   21.8530  -24.4342 C   0  0  0  0  0  0  0  0  0  0  0  0
   -0.6054   22.1768  -25.5169 N   0  0  0  0  0  0  0  0  0  0  0  0
   -1.9236   22.4259  -25.4329 C   0  0  0  0  0  0  0  0  0  0  0  0
   -2.5161   22.3350  -24.2154 N   0  0  0  0  0  0  0  0  0  0  0  0
   -1.8743   22.0126  -23.0843 C   0  0  0  0  0  0  0  0  0  0  0  0
   -2.5508   21.9297  -21.8218 N   0  0  0  0  0  0  0  0  0  0  0  0
   -1.7679   21.5796  -20.7049 C   0  0  0  0  0  0  0  0  0  0  0  0
   -2.3024   21.4931  -19.5964 O   0  0  0  0  0  0  0  0  0  0  0  0
    1.5221   21.5641  -17.5961 C   0  0  0  0  0  0  0  0  0  0  0  0
    1.8314   20.2239  -17.3928 C   0  0  0  0  0  0  0  0  0  0  0  0
    1.4330   19.2598  -18.2841 C   0  0  0  0  0  0  0  0  0  0  0  0
    0.7030   19.6565  -19.4097 C   0  0  0  0  0  0  0  0  0  0  0  0
    0.1908   18.4393  -20.5508 Cl  0  0  0  0  0  0  0  0  0  0  0  0
    0.3816   20.9760  -19.6373 C   0  0  0  0  0  0  0  0  0  0  0  0
    0.7985   21.9139  -18.7228 C   0  0  0  0  0  0  0  0  0  0  0  0
    0.4091   23.5882  -19.0013 Cl  0  0  0  0  0  0  0  0  0  0  0  0
    3.2782   22.9046  -16.6491 C   0  0  0  0  0  0  0  0  0  0  0  0
    1.9149   22.5430  -16.7101 O   0  0  0  0  0  0  0  0  0  0  0  0
    1.7059   17.9325  -18.1427 O   0  0  0  0  0  0  0  0  0  0  0  0
    1.0531   17.1172  -17.2065 C   0  0  0  0  0  0  0  0  0  0  0  0
   -3.9393   22.2217  -21.8038 C   0  0  0  0  0  0  0  0  0  0  0  0
   -4.2991   22.6155  -20.3917 C   0  0  0  0  0  0  0  0  0  0  0  0
   -5.7415   22.8955  -20.1552 C   0  0  0  0  0  0  0  0  0  0  0  0
   -6.6715   22.2259  -21.0044 N   0  0  0  0  0  0  0  0  0  0  0  0
   -6.2499   21.7883  -22.3114 C   0  0  0  0  0  0  0  0  0  0  0  0
   -4.8722   21.1613  -22.2747 C   0  0  0  0  0  0  0  0  0  0  0  0
   -8.0020   21.9987  -20.5815 C   0  0  0  0  0  0  0  0  0  0  0  0
   -8.8369   21.3977  -21.3318 O   0  0  0  0  0  0  0  0  0  0  0  0
   -8.4736   22.4343  -19.2911 C   0  0  0  0  0  0  0  0  0  0  0  0
   -8.6408   21.5493  -18.2870 C   0  0  0  0  0  0  0  0  0  0  0  0
   -9.1227   21.9502  -16.9431 C   0  0  0  0  0  0  0  0  0  0  0  0
  -10.1661   21.0446  -16.4684 N   0  0  0  0  0  0  0  0  0  0  0  0
   -9.8570   19.6799  -16.9247 C   0  0  0  0  0  0  0  0  0  0  0  0
  -11.4222   21.4415  -17.0733 C   0  0  0  0  0  0  0  0  0  0  0  0
   -2.7330   22.7761  -26.5232 N   0  0  0  0  0  0  0  0  0  0  0  0
   -2.7328   22.0960  -27.3467 H   0  0  0  0  0  0  0  0  0  0  0  0
   -3.5556   23.9075  -26.6690 C   0  0  0  0  0  0  0  0  0  0  0  0
   -3.7734   24.6895  -25.5418 C   0  0  0  0  0  0  0  0  0  0  0  0
   -4.5444   25.8120  -25.6218 C   0  0  0  0  0  0  0  0  0  0  0  0
   -5.1224   26.1937  -26.8205 C   0  0  0  0  0  0  0  0  0  0  0  0
   -4.9320   25.4505  -27.9561 C   0  0  0  0  0  0  0  0  0  0  0  0
   -5.5342   25.8362  -29.2545 C   0  0  0  0  0  0  0  0  0  0  0  0
   -4.1395   24.3057  -27.8517 C   0  0  0  0  0  0  0  0  0  0  0  0
 20 21  1  0  0  0
 21 12  1  0  0  0
 12 13  2  0  0  0
 13 14  1  0  0  0
 14 22  1  0  0  0
 22 23  1  0  0  0
 14 15  2  0  0  0
 15 16  1  0  0  0
 15 17  1  0  0  0
 17  1  1  0  0  0
  1  2  1  0  0  0
  2  3  1  0  0  0
  3  4  2  0  0  0
  4  5  1  0  0  0
  5  6  2  0  0  0
  6 38  1  0  0  0
 38 40  1  0  0  0
 40 41  2  0  0  0
 41 42  1  0  0  0
 42 43  2  0  0  0
 43 44  1  0  0  0
 44 45  1  0  0  0
 44 46  2  0  0  0
  6  7  1  0  0  0
  7  8  2  0  0  0
  8  9  1  0  0  0
  9 24  1  0  0  0
 24 25  1  0  0  0
 25 26  1  0  0  0
 26 27  1  0  0  0
 27 28  1  0  0  0
 28 29  1  0  0  0
 27 30  1  0  0  0
 30 31  2  0  0  0
 30 32  1  0  0  0
 32 33  2  0  0  0
 33 34  1  0  0  0
 34 35  1  0  0  0
 35 36  1  0  0  0
 35 37  1  0  0  0
  9 10  1  0  0  0
 10 11  2  0  0  0
 17 18  2  0  0  0
 18 19  1  0  0  0
 18 12  1  0  0  0
 10  1  1  0  0  0
  8  3  1  0  0  0
 29 24  1  0  0  0
 46 40  1  0  0  0
 38 39  1  0  0  0
M  END
> <minimizedAffinity>
-7.78763

> <CNNscore>
0.0905894414

> <CNNaffinity>
7.3001861572

> <CNN_VS>
0.6613197923

> <CNNaffinity_variance>
0.0547586270

$$$$
[H]/C(C(=O)N1C([H])([H])C([H])([H])C([H])(N2C(=O)N(c3c(Cl)c(OC([H])([H])[H])c([H])c(OC([H])([H])[H])c3Cl)C([H])([H])c3c([H])nc(N([H])c4c([H])c([H])c([H])c(C([H])([H])[H])c4[H])nc32)C([H])([H])C1([H])[H])=C(/[H])C([H])([H])N(C([H])([H])[H])C([H])([H])[H]


 46 50  0  0  0  0  0  0  0  0999 V2000
   -6.6571   22.2596  -18.0012 N   0  0  0  0  0  0  0  0  0  0  0  0
   -7.3305   23.0668  -18.9745 C   0  0  0  0  0  0  0  0  0  0  0  0
   -6.4363   23.6403  -19.9792 C   0  0  0  0  0  0  0  0  0  0  0  0
   -7.0221   24.4455  -20.9621 C   0  0  0  0  0  0  0  0  0  0  0  0
   -6.2956   25.0086  -21.9168 N   0  0  0  0  0  0  0  0  0  0  0  0
   -4.9661   24.8163  -21.9634 C   0  0  0  0  0  0  0  0  0  0  0  0
   -4.3983   24.0353  -21.0098 N   0  0  0  0  0  0  0  0  0  0  0  0
   -5.0751   23.4385  -20.0193 C   0  0  0  0  0  0  0  0  0  0  0  0
   -4.4236   22.6227  -19.0353 N   0  0  0  0  0  0  0  0  0  0  0  0
   -5.2427   22.0510  -18.0428 C   0  0  0  0  0  0  0  0  0  0  0  0
   -4.7308   21.3424  -17.1722 O   0  0  0  0  0  0  0  0  0  0  0  0
   -8.3700   21.6035  -14.7544 C   0  0  0  0  0  0  0  0  0  0  0  0
   -8.9849   20.3908  -15.0451 C   0  0  0  0  0  0  0  0  0  0  0  0
   -8.8428   19.7991  -16.2749 C   0  0  0  0  0  0  0  0  0  0  0  0
   -8.0611   20.4468  -17.2375 C   0  0  0  0  0  0  0  0  0  0  0  0
   -7.8727   19.7040  -18.8056 Cl  0  0  0  0  0  0  0  0  0  0  0  0
   -7.4404   21.6485  -16.9786 C   0  0  0  0  0  0  0  0  0  0  0  0
   -7.6050   22.2107  -15.7349 C   0  0  0  0  0  0  0  0  0  0  0  0
   -6.8183   23.7250  -15.3881 Cl  0  0  0  0  0  0  0  0  0  0  0  0
   -7.8009   21.6808  -12.4204 C   0  0  0  0  0  0  0  0  0  0  0  0
   -8.5037   22.2096  -13.5247 O   0  0  0  0  0  0  0  0  0  0  0  0
   -9.4170   18.6128  -16.6201 O   0  0  0  0  0  0  0  0  0  0  0  0
   -8.9655   17.3782  -16.1311 C   0  0  0  0  0  0  0  0  0  0  0  0
   -3.0203   22.4493  -19.1550 C   0  0  0  0  0  0  0  0  0  0  0  0
   -2.7741   21.0073  -19.5272 C   0  0  0  0  0  0  0  0  0  0  0  0
   -1.3436   20.6108  -19.6323 C   0  0  0  0  0  0  0  0  0  0  0  0
   -0.4149   21.3468  -18.8385 N   0  0  0  0  0  0  0  0  0  0  0  0
   -0.7392   22.6912  -18.4324 C   0  0  0  0  0  0  0  0  0  0  0  0
   -2.1794   22.8076  -17.9798 C   0  0  0  0  0  0  0  0  0  0  0  0
    0.8216   20.7755  -18.4574 C   0  0  0  0  0  0  0  0  0  0  0  0
    1.6540   21.4243  -17.7450 O   0  0  0  0  0  0  0  0  0  0  0  0
    1.1969   19.4420  -18.8551 C   0  0  0  0  0  0  0  0  0  0  0  0
    0.8724   18.3805  -18.0887 C   0  0  0  0  0  0  0  0  0  0  0  0
    1.2360   16.9907  -18.4568 C   0  0  0  0  0  0  0  0  0  0  0  0
    1.1889   16.1103  -17.2920 N   0  0  0  0  0  0  0  0  0  0  0  0
    1.3327   14.7163  -17.7417 C   0  0  0  0  0  0  0  0  0  0  0  0
   -0.1147   16.2451  -16.6728 C   0  0  0  0  0  0  0  0  0  0  0  0
   -4.1209   25.3698  -22.9359 N   0  0  0  0  0  0  0  0  0  0  0  0
   -3.2362   25.8462  -22.5740 H   0  0  0  0  0  0  0  0  0  0  0  0
   -4.2839   25.3704  -24.3327 C   0  0  0  0  0  0  0  0  0  0  0  0
   -4.8166   26.5141  -24.9140 C   0  0  0  0  0  0  0  0  0  0  0  0
   -4.9801   26.5861  -26.2664 C   0  0  0  0  0  0  0  0  0  0  0  0
   -4.6208   25.5278  -27.0835 C   0  0  0  0  0  0  0  0  0  0  0  0
   -4.0912   24.3818  -26.5503 C   0  0  0  0  0  0  0  0  0  0  0  0
   -3.6931   23.2341  -27.3998 C   0  0  0  0  0  0  0  0  0  0  0  0
   -3.9324   24.3294  -25.1641 C   0  0  0  0  0  0  0  0  0  0  0  0
 20 21  1  0  0  0
 21 12  1  0  0  0
 12 13  2  0  0  0
 13 14  1  0  0  0
 14 22  1  0  0  0
 22 23  1  0  0  0
 14 15  2  0  0  0
 15 16  1  0  0  0
 15 17  1  0  0  0
 17  1  1  0  0  0
  1  2  1  0  0  0
  2  3  1  0  0  0
  3  4  2  0  0  0
  4  5  1  0  0  0
  5  6  2  0  0  0
  6 38  1  0  0  0
 38 40  1  0  0  0
 40 41  2  0  0  0
 41 42  1  0  0  0
 42 43  2  0  0  0
 43 44  1  0  0  0
 44 45  1  0  0  0
 44 46  2  0  0  0
  6  7  1  0  0  0
  7  8  2  0  0  0
  8  9  1  0  0  0
  9 24  1  0  0  0
 24 25  1  0  0  0
 25 26  1  0  0  0
 26 27  1  0  0  0
 27 28  1  0  0  0
 28 29  1  0  0  0
 27 30  1  0  0  0
 30 31  2  0  0  0
 30 32  1  0  0  0
 32 33  2  0  0  0
 33 34  1  0  0  0
 34 35  1  0  0  0
 35 36  1  0  0  0
 35 37  1  0  0  0
  9 10  1  0  0  0
 10 11  2  0  0  0
 17 18  2  0  0  0
 18 19  1  0  0  0
 18 12  1  0  0  0
 10  1  1  0  0  0
  8  3  1  0  0  0
 29 24  1  0  0  0
 46 40  1  0  0  0
 38 39  1  0  0  0
M  END
> <minimizedAffinity>
-6.52173

> <CNNscore>
0.0808748826

> <CNNaffinity>
6.6802816391

> <CNN_VS>
0.5402669907

> <CNNaffinity_variance>
0.4951542914

$$$$
[H]/C(C(=O)N1C([H])([H])C([H])([H])C([H])(N2C(=O)N(c3c(Cl)c(OC([H])([H])[H])c([H])c(OC([H])([H])[H])c3Cl)C([H])([H])c3c([H])nc(N([H])c4c([H])c([H])c([H])c(C([H])([H])[H])c4[H])nc32)C([H])([H])C1([H])[H])=C(/[H])C([H])([H])N(C([H])([H])[H])C([H])([H])[H]


 46 50  0  0  0  0  0  0  0  0999 V2000
   -0.5780   21.4296  -19.9851 N   0  0  0  0  0  0  0  0  0  0  0  0
   -0.3988   21.5791  -21.3985 C   0  0  0  0  0  0  0  0  0  0  0  0
   -1.6542   21.6116  -22.1476 C   0  0  0  0  0  0  0  0  0  0  0  0
   -1.5590   21.7511  -23.5365 C   0  0  0  0  0  0  0  0  0  0  0  0
   -2.6399   21.7929  -24.3020 N   0  0  0  0  0  0  0  0  0  0  0  0
   -3.8648   21.7021  -23.7558 C   0  0  0  0  0  0  0  0  0  0  0  0
   -3.9567   21.5667  -22.4087 N   0  0  0  0  0  0  0  0  0  0  0  0
   -2.9048   21.5174  -21.5801 C   0  0  0  0  0  0  0  0  0  0  0  0
   -3.0591   21.3720  -20.1612 N   0  0  0  0  0  0  0  0  0  0  0  0
   -1.8777   21.3310  -19.3960 C   0  0  0  0  0  0  0  0  0  0  0  0
   -1.9559   21.2053  -18.1711 O   0  0  0  0  0  0  0  0  0  0  0  0
    2.2027   22.4475  -17.7185 C   0  0  0  0  0  0  0  0  0  0  0  0
    2.8572   21.2292  -17.5751 C   0  0  0  0  0  0  0  0  0  0  0  0
    2.4010   20.0992  -18.2058 C   0  0  0  0  0  0  0  0  0  0  0  0
    1.2546   20.1992  -19.0012 C   0  0  0  0  0  0  0  0  0  0  0  0
    0.6647   18.7687  -19.8086 Cl  0  0  0  0  0  0  0  0  0  0  0  0
    0.5852   21.3919  -19.1616 C   0  0  0  0  0  0  0  0  0  0  0  0
    1.0722   22.5029  -18.5150 C   0  0  0  0  0  0  0  0  0  0  0  0
    0.2432   24.0211  -18.7157 Cl  0  0  0  0  0  0  0  0  0  0  0  0
    3.8497   24.1880  -17.5307 C   0  0  0  0  0  0  0  0  0  0  0  0
    2.6486   23.5901  -17.0915 O   0  0  0  0  0  0  0  0  0  0  0  0
    2.9980   18.8785  -18.1071 O   0  0  0  0  0  0  0  0  0  0  0  0
    3.9900   18.5912  -17.1581 C   0  0  0  0  0  0  0  0  0  0  0  0
   -4.3814   21.2988  -19.6515 C   0  0  0  0  0  0  0  0  0  0  0  0
   -4.5745   22.4769  -18.7276 C   0  0  0  0  0  0  0  0  0  0  0  0
   -5.8907   22.5360  -18.0356 C   0  0  0  0  0  0  0  0  0  0  0  0
   -6.5519   21.2926  -17.8096 N   0  0  0  0  0  0  0  0  0  0  0  0
   -6.2629   20.1703  -18.6664 C   0  0  0  0  0  0  0  0  0  0  0  0
   -4.7804   20.0483  -18.9489 C   0  0  0  0  0  0  0  0  0  0  0  0
   -7.4937   21.1550  -16.7632 C   0  0  0  0  0  0  0  0  0  0  0  0
   -8.0848   20.0472  -16.5520 O   0  0  0  0  0  0  0  0  0  0  0  0
   -7.8282   22.2541  -15.8930 C   0  0  0  0  0  0  0  0  0  0  0  0
   -8.4363   22.0319  -14.7096 C   0  0  0  0  0  0  0  0  0  0  0  0
   -8.7990   23.1299  -13.7813 C   0  0  0  0  0  0  0  0  0  0  0  0
   -8.3902   22.8173  -12.4141 N   0  0  0  0  0  0  0  0  0  0  0  0
   -9.0150   23.7838  -11.4967 C   0  0  0  0  0  0  0  0  0  0  0  0
   -6.9530   22.9813  -12.3207 C   0  0  0  0  0  0  0  0  0  0  0  0
   -5.0610   21.7388  -24.4867 N   0  0  0  0  0  0  0  0  0  0  0  0
   -5.3120   20.8498  -25.0228 H   0  0  0  0  0  0  0  0  0  0  0  0
   -5.9814   22.7963  -24.5979 C   0  0  0  0  0  0  0  0  0  0  0  0
   -6.2339   23.2933  -25.8702 C   0  0  0  0  0  0  0  0  0  0  0  0
   -7.1322   24.3045  -26.0479 C   0  0  0  0  0  0  0  0  0  0  0  0
   -7.8073   24.8533  -24.9710 C   0  0  0  0  0  0  0  0  0  0  0  0
   -7.5878   24.3914  -23.6996 C   0  0  0  0  0  0  0  0  0  0  0  0
   -8.2987   24.9560  -22.5277 C   0  0  0  0  0  0  0  0  0  0  0  0
   -6.6646   23.3562  -23.5405 C   0  0  0  0  0  0  0  0  0  0  0  0
 20 21  1  0  0  0
 21 12  1  0  0  0
 12 13  2  0  0  0
 13 14  1  0  0  0
 14 22  1  0  0  0
 22 23  1  0  0  0
 14 15  2  0  0  0
 15 16  1  0  0  0
 15 17  1  0  0  0
 17  1  1  0  0  0
  1  2  1  0  0  0
  2  3  1  0  0  0
  3  4  2  0  0  0
  4  5  1  0  0  0
  5  6  2  0  0  0
  6 38  1  0  0  0
 38 40  1  0  0  0
 40 41  2  0  0  0
 41 42  1  0  0  0
 42 43  2  0  0  0
 43 44  1  0  0  0
 44 45  1  0  0  0
 44 46  2  0  0  0
  6  7  1  0  0  0
  7  8  2  0  0  0
  8  9  1  0  0  0
  9 24  1  0  0  0
 24 25  1  0  0  0
 25 26  1  0  0  0
 26 27  1  0  0  0
 27 28  1  0  0  0
 28 29  1  0  0  0
 27 30  1  0  0  0
 30 31  2  0  0  0
 30 32  1  0  0  0
 32 33  2  0  0  0
 33 34  1  0  0  0
 34 35  1  0  0  0
 35 36  1  0  0  0
 35 37  1  0  0  0
  9 10  1  0  0  0
 10 11  2  0  0  0
 17 18  2  0  0  0
 18 19  1  0  0  0
 18 12  1  0  0  0
 10  1  1  0  0  0
  8  3  1  0  0  0
 29 24  1  0  0  0
 46 40  1  0  0  0
 38 39  1  0  0  0
M  END
> <minimizedAffinity>
-6.45624

> <CNNscore>
0.0788830221

> <CNNaffinity>
6.5010285378

> <CNN_VS>
0.5128207803

> <CNNaffinity_variance>
0.1203148589

$$$$
[H]/C(C(=O)N1C([H])([H])C([H])([H])C([H])(N2C(=O)N(c3c(Cl)c(OC([H])([H])[H])c([H])c(OC([H])([H])[H])c3Cl)C([H])([H])c3c([H])nc(N([H])c4c([H])c([H])c([H])c(C([H])([H])[H])c4[H])nc32)C([H])([H])C1([H])[H])=C(/[H])C([H])([H])N(C([H])([H])[H])C([H])([H])[H]


 46 50  0  0  0  0  0  0  0  0999 V2000
    0.1356   21.0473  -20.3756 N   0  0  0  0  0  0  0  0  0  0  0  0
    0.3497   21.2867  -21.7716 C   0  0  0  0  0  0  0  0  0  0  0  0
   -0.8756   21.5959  -22.5072 C   0  0  0  0  0  0  0  0  0  0  0  0
   -0.7462   21.8376  -23.8793 C   0  0  0  0  0  0  0  0  0  0  0  0
   -1.7980   22.1280  -24.6314 N   0  0  0  0  0  0  0  0  0  0  0  0
   -3.0253   22.1981  -24.0877 C   0  0  0  0  0  0  0  0  0  0  0  0
   -3.1503   21.9634  -22.7569 N   0  0  0  0  0  0  0  0  0  0  0  0
   -2.1291   21.6653  -21.9423 C   0  0  0  0  0  0  0  0  0  0  0  0
   -2.3180   21.4250  -20.5406 N   0  0  0  0  0  0  0  0  0  0  0  0
   -1.1671   21.1186  -19.7893 C   0  0  0  0  0  0  0  0  0  0  0  0
   -1.2760   20.9019  -18.5796 O   0  0  0  0  0  0  0  0  0  0  0  0
    2.9976   21.3691  -18.0068 C   0  0  0  0  0  0  0  0  0  0  0  0
    3.4692   20.0612  -18.0168 C   0  0  0  0  0  0  0  0  0  0  0  0
    2.8663   19.0946  -18.7814 C   0  0  0  0  0  0  0  0  0  0  0  0
    1.7583   19.4550  -19.5557 C   0  0  0  0  0  0  0  0  0  0  0  0
    0.9829   18.2342  -20.5326 Cl  0  0  0  0  0  0  0  0  0  0  0  0
    1.2686   20.7420  -19.5658 C   0  0  0  0  0  0  0  0  0  0  0  0
    1.8992   21.6837  -18.7877 C   0  0  0  0  0  0  0  0  0  0  0  0
    1.2986   23.3182  -18.7971 Cl  0  0  0  0  0  0  0  0  0  0  0  0
    4.7379   23.0063  -17.7444 C   0  0  0  0  0  0  0  0  0  0  0  0
    3.5923   22.3502  -17.2442 O   0  0  0  0  0  0  0  0  0  0  0  0
    3.2812   17.7980  -18.8359 O   0  0  0  0  0  0  0  0  0  0  0  0
    4.4281   17.3950  -19.5356 C   0  0  0  0  0  0  0  0  0  0  0  0
   -3.6380   21.5322  -20.0310 C   0  0  0  0  0  0  0  0  0  0  0  0
   -3.6788   22.7471  -19.1361 C   0  0  0  0  0  0  0  0  0  0  0  0
   -4.9758   22.9891  -18.4475 C   0  0  0  0  0  0  0  0  0  0  0  0
   -5.7887   21.8453  -18.1924 N   0  0  0  0  0  0  0  0  0  0  0  0
   -5.6456   20.6750  -19.0215 C   0  0  0  0  0  0  0  0  0  0  0  0
   -4.1909   20.3596  -19.2990 C   0  0  0  0  0  0  0  0  0  0  0  0
   -6.7384   21.8532  -17.1443 C   0  0  0  0  0  0  0  0  0  0  0  0
   -7.4647   20.8346  -16.9072 O   0  0  0  0  0  0  0  0  0  0  0  0
   -6.9296   23.0065  -16.3013 C   0  0  0  0  0  0  0  0  0  0  0  0
   -6.7282   22.9244  -14.9700 C   0  0  0  0  0  0  0  0  0  0  0  0
   -6.9114   24.0832  -14.0632 C   0  0  0  0  0  0  0  0  0  0  0  0
   -8.3259   24.4201  -13.9219 N   0  0  0  0  0  0  0  0  0  0  0  0
   -8.4455   25.6521  -13.1256 C   0  0  0  0  0  0  0  0  0  0  0  0
   -8.9764   23.3523  -13.1887 C   0  0  0  0  0  0  0  0  0  0  0  0
   -4.1917   22.4998  -24.8051 N   0  0  0  0  0  0  0  0  0  0  0  0
   -4.9950   21.8022  -24.7117 H   0  0  0  0  0  0  0  0  0  0  0  0
   -4.4448   23.6120  -25.6279 C   0  0  0  0  0  0  0  0  0  0  0  0
   -4.7725   23.3645  -26.9549 C   0  0  0  0  0  0  0  0  0  0  0  0
   -5.0501   24.3992  -27.7993 C   0  0  0  0  0  0  0  0  0  0  0  0
   -5.0119   25.7098  -27.3547 C   0  0  0  0  0  0  0  0  0  0  0  0
   -4.6938   25.9972  -26.0531 C   0  0  0  0  0  0  0  0  0  0  0  0
   -4.6491   27.3897  -25.5470 C   0  0  0  0  0  0  0  0  0  0  0  0
   -4.4133   24.9233  -25.2061 C   0  0  0  0  0  0  0  0  0  0  0  0
 20 21  1  0  0  0
 21 12  1  0  0  0
 12 13  2  0  0  0
 13 14  1  0  0  0
 14 22  1  0  0  0
 22 23  1  0  0  0
 14 15  2  0  0  0
 15 16  1  0  0  0
 15 17  1  0  0  0
 17  1  1  0  0  0
  1  2  1  0  0  0
  2  3  1  0  0  0
  3  4  2  0  0  0
  4  5  1  0  0  0
  5  6  2  0  0  0
  6 38  1  0  0  0
 38 40  1  0  0  0
 40 41  2  0  0  0
 41 42  1  0  0  0
 42 43  2  0  0  0
 43 44  1  0  0  0
 44 45  1  0  0  0
 44 46  2  0  0  0
  6  7  1  0  0  0
  7  8  2  0  0  0
  8  9  1  0  0  0
  9 24  1  0  0  0
 24 25  1  0  0  0
 25 26  1  0  0  0
 26 27  1  0  0  0
 27 28  1  0  0  0
 28 29  1  0  0  0
 27 30  1  0  0  0
 30 31  2  0  0  0
 30 32  1  0  0  0
 32 33  2  0  0  0
 33 34  1  0  0  0
 34 35  1  0  0  0
 35 36  1  0  0  0
 35 37  1  0  0  0
  9 10  1  0  0  0
 10 11  2  0  0  0
 17 18  2  0  0  0
 18 19  1  0  0  0
 18 12  1  0  0  0
 10  1  1  0  0  0
  8  3  1  0  0  0
 29 24  1  0  0  0
 46 40  1  0  0  0
 38 39  1  0  0  0
M  END
> <minimizedAffinity>
-7.00251

> <CNNscore>
0.0585232265

> <CNNaffinity>
6.6851301193

> <CNN_VS>
0.3912353814

> <CNNaffinity_variance>
0.0754772648

$$$$
[H]/C(C(=O)N1C([H])([H])C([H])([H])C([H])(N2C(=O)N(c3c(Cl)c(OC([H])([H])[H])c([H])c(OC([H])([H])[H])c3Cl)C([H])([H])c3c([H])nc(N([H])c4c([H])c([H])c([H])c(C([H])([H])[H])c4[H])nc32)C([H])([H])C1([H])[H])=C(/[H])C([H])([H])N(C([H])([H])[H])C([H])([H])[H]


 46 50  0  0  0  0  0  0  0  0999 V2000
   -3.4434   23.2506  -23.0153 N   0  0  0  0  0  0  0  0  0  0  0  0
   -2.2180   23.5250  -22.3259 C   0  0  0  0  0  0  0  0  0  0  0  0
   -2.2475   23.1576  -20.9109 C   0  0  0  0  0  0  0  0  0  0  0  0
   -1.0860   23.4006  -20.1696 C   0  0  0  0  0  0  0  0  0  0  0  0
   -1.0138   23.1004  -18.8809 N   0  0  0  0  0  0  0  0  0  0  0  0
   -2.0654   22.5494  -18.2504 C   0  0  0  0  0  0  0  0  0  0  0  0
   -3.1918   22.3140  -18.9697 N   0  0  0  0  0  0  0  0  0  0  0  0
   -3.3293   22.5940  -20.2728 C   0  0  0  0  0  0  0  0  0  0  0  0
   -4.5449   22.3249  -20.9856 N   0  0  0  0  0  0  0  0  0  0  0  0
   -4.5675   22.6657  -22.3516 C   0  0  0  0  0  0  0  0  0  0  0  0
   -5.5901   22.4561  -23.0092 O   0  0  0  0  0  0  0  0  0  0  0  0
   -4.3555   24.8845  -26.2409 C   0  0  0  0  0  0  0  0  0  0  0  0
   -3.6031   24.1172  -27.1229 C   0  0  0  0  0  0  0  0  0  0  0  0
   -2.8151   23.0873  -26.6745 C   0  0  0  0  0  0  0  0  0  0  0  0
   -2.7837   22.8242  -25.3008 C   0  0  0  0  0  0  0  0  0  0  0  0
   -1.7852   21.5167  -24.7182 Cl  0  0  0  0  0  0  0  0  0  0  0  0
   -3.5177   23.5673  -24.4034 C   0  0  0  0  0  0  0  0  0  0  0  0
   -4.2963   24.5906  -24.8898 C   0  0  0  0  0  0  0  0  0  0  0  0
   -5.2386   25.5333  -23.7691 Cl  0  0  0  0  0  0  0  0  0  0  0  0
   -5.8034   25.8076  -27.9229 C   0  0  0  0  0  0  0  0  0  0  0  0
   -5.1509   25.9215  -26.6762 O   0  0  0  0  0  0  0  0  0  0  0  0
   -2.0573   22.2987  -27.4870 O   0  0  0  0  0  0  0  0  0  0  0  0
   -0.7700   22.6590  -27.9117 C   0  0  0  0  0  0  0  0  0  0  0  0
   -5.6087   21.7270  -20.2613 C   0  0  0  0  0  0  0  0  0  0  0  0
   -6.3068   22.8251  -19.4963 C   0  0  0  0  0  0  0  0  0  0  0  0
   -7.4196   22.3801  -18.6141 C   0  0  0  0  0  0  0  0  0  0  0  0
   -7.3424   21.0490  -18.1076 N   0  0  0  0  0  0  0  0  0  0  0  0
   -6.5853   20.0584  -18.8309 C   0  0  0  0  0  0  0  0  0  0  0  0
   -5.2692   20.6148  -19.3316 C   0  0  0  0  0  0  0  0  0  0  0  0
   -8.0090   20.6910  -16.9126 C   0  0  0  0  0  0  0  0  0  0  0  0
   -7.9411   19.5061  -16.4514 O   0  0  0  0  0  0  0  0  0  0  0  0
   -8.7924   21.6425  -16.1655 C   0  0  0  0  0  0  0  0  0  0  0  0
   -8.6020   21.7973  -14.8391 C   0  0  0  0  0  0  0  0  0  0  0  0
   -9.3827   22.7633  -14.0291 C   0  0  0  0  0  0  0  0  0  0  0  0
   -8.8034   22.9198  -12.6972 N   0  0  0  0  0  0  0  0  0  0  0  0
   -7.8866   24.0710  -12.7080 C   0  0  0  0  0  0  0  0  0  0  0  0
   -8.0246   21.7344  -12.3982 C   0  0  0  0  0  0  0  0  0  0  0  0
   -2.0780   22.1983  -16.8928 N   0  0  0  0  0  0  0  0  0  0  0  0
   -1.2018   22.4464  -16.3348 H   0  0  0  0  0  0  0  0  0  0  0  0
   -3.1034   21.5674  -16.1661 C   0  0  0  0  0  0  0  0  0  0  0  0
   -3.8923   22.3662  -15.3481 C   0  0  0  0  0  0  0  0  0  0  0  0
   -4.9171   21.8184  -14.6334 C   0  0  0  0  0  0  0  0  0  0  0  0
   -5.1913   20.4634  -14.7077 C   0  0  0  0  0  0  0  0  0  0  0  0
   -4.4375   19.6405  -15.5031 C   0  0  0  0  0  0  0  0  0  0  0  0
   -4.7097   18.1870  -15.6065 C   0  0  0  0  0  0  0  0  0  0  0  0
   -3.3939   20.2219  -16.2259 C   0  0  0  0  0  0  0  0  0  0  0  0
 20 21  1  0  0  0
 21 12  1  0  0  0
 12 13  2  0  0  0
 13 14  1  0  0  0
 14 22  1  0  0  0
 22 23  1  0  0  0
 14 15  2  0  0  0
 15 16  1  0  0  0
 15 17  1  0  0  0
 17  1  1  0  0  0
  1  2  1  0  0  0
  2  3  1  0  0  0
  3  4  2  0  0  0
  4  5  1  0  0  0
  5  6  2  0  0  0
  6 38  1  0  0  0
 38 40  1  0  0  0
 40 41  2  0  0  0
 41 42  1  0  0  0
 42 43  2  0  0  0
 43 44  1  0  0  0
 44 45  1  0  0  0
 44 46  2  0  0  0
  6  7  1  0  0  0
  7  8  2  0  0  0
  8  9  1  0  0  0
  9 24  1  0  0  0
 24 25  1  0  0  0
 25 26  1  0  0  0
 26 27  1  0  0  0
 27 28  1  0  0  0
 28 29  1  0  0  0
 27 30  1  0  0  0
 30 31  2  0  0  0
 30 32  1  0  0  0
 32 33  2  0  0  0
 33 34  1  0  0  0
 34 35  1  0  0  0
 35 36  1  0  0  0
 35 37  1  0  0  0
  9 10  1  0  0  0
 10 11  2  0  0  0
 17 18  2  0  0  0
 18 19  1  0  0  0
 18 12  1  0  0  0
 10  1  1  0  0  0
  8  3  1  0  0  0
 29 24  1  0  0  0
 46 40  1  0  0  0
 38 39  1  0  0  0
M  END
> <minimizedAffinity>
-6.48111

> <CNNscore>
0.0574959405

> <CNNaffinity>
6.4825301170

> <CNN_VS>
0.3727191687

> <CNNaffinity_variance>
0.1826502234

$$$$
[H]/C(C(=O)N1C([H])([H])C([H])([H])C([H])(N2C(=O)N(c3c(Cl)c(OC([H])([H])[H])c([H])c(OC([H])([H])[H])c3Cl)C([H])([H])c3c([H])nc(N([H])c4c([H])c([H])c([H])c(C([H])([H])[H])c4[H])nc32)C([H])([H])C1([H])[H])=C(/[H])C([H])([H])N(C([H])([H])[H])C([H])([H])[H]


 46 50  0  0  0  0  0  0  0  0999 V2000
    0.3674   20.5703  -20.3426 N   0  0  0  0  0  0  0  0  0  0  0  0
   -0.7777   20.7233  -19.4955 C   0  0  0  0  0  0  0  0  0  0  0  0
   -1.8498   21.5147  -20.0976 C   0  0  0  0  0  0  0  0  0  0  0  0
   -3.0007   21.7114  -19.3268 C   0  0  0  0  0  0  0  0  0  0  0  0
   -4.0275   22.4126  -19.7854 N   0  0  0  0  0  0  0  0  0  0  0  0
   -3.9863   22.9557  -21.0143 C   0  0  0  0  0  0  0  0  0  0  0  0
   -2.8697   22.7648  -21.7616 N   0  0  0  0  0  0  0  0  0  0  0  0
   -1.7991   22.0679  -21.3572 C   0  0  0  0  0  0  0  0  0  0  0  0
   -0.6424   21.8978  -22.1887 N   0  0  0  0  0  0  0  0  0  0  0  0
    0.4199   21.1460  -21.6510 C   0  0  0  0  0  0  0  0  0  0  0  0
    1.4382   20.9719  -22.3254 O   0  0  0  0  0  0  0  0  0  0  0  0
    2.6418   17.7269  -19.5377 C   0  0  0  0  0  0  0  0  0  0  0  0
    3.6499   18.4060  -18.8627 C   0  0  0  0  0  0  0  0  0  0  0  0
    3.5882   19.7636  -18.6734 C   0  0  0  0  0  0  0  0  0  0  0  0
    2.4820   20.4553  -19.1783 C   0  0  0  0  0  0  0  0  0  0  0  0
    2.3922   22.1825  -18.9436 Cl  0  0  0  0  0  0  0  0  0  0  0  0
    1.4686   19.8099  -19.8512 C   0  0  0  0  0  0  0  0  0  0  0  0
    1.5645   18.4490  -20.0209 C   0  0  0  0  0  0  0  0  0  0  0  0
    0.2864   17.6163  -20.8606 Cl  0  0  0  0  0  0  0  0  0  0  0  0
    3.7329   15.8224  -20.5175 C   0  0  0  0  0  0  0  0  0  0  0  0
    2.6899   16.3645  -19.7356 O   0  0  0  0  0  0  0  0  0  0  0  0
    4.5411   20.4854  -18.0197 O   0  0  0  0  0  0  0  0  0  0  0  0
    5.7747   20.8174  -18.5989 C   0  0  0  0  0  0  0  0  0  0  0  0
   -0.6740   22.4842  -23.4805 C   0  0  0  0  0  0  0  0  0  0  0  0
   -2.0560   22.2587  -24.0445 C   0  0  0  0  0  0  0  0  0  0  0  0
   -2.2654   22.7476  -25.4344 C   0  0  0  0  0  0  0  0  0  0  0  0
   -1.1145   22.8002  -26.2752 N   0  0  0  0  0  0  0  0  0  0  0  0
    0.1925   22.9246  -25.6804 C   0  0  0  0  0  0  0  0  0  0  0  0
    0.3436   22.0303  -24.4680 C   0  0  0  0  0  0  0  0  0  0  0  0
   -1.2447   22.7433  -27.6825 C   0  0  0  0  0  0  0  0  0  0  0  0
   -0.2219   22.7850  -28.4397 O   0  0  0  0  0  0  0  0  0  0  0  0
   -2.5317   22.6374  -28.3225 C   0  0  0  0  0  0  0  0  0  0  0  0
   -3.3096   23.7275  -28.4838 C   0  0  0  0  0  0  0  0  0  0  0  0
   -4.6399   23.6680  -29.1363 C   0  0  0  0  0  0  0  0  0  0  0  0
   -4.9936   24.9574  -29.7247 N   0  0  0  0  0  0  0  0  0  0  0  0
   -5.6888   24.7247  -31.0009 C   0  0  0  0  0  0  0  0  0  0  0  0
   -3.7686   25.6777  -30.0110 C   0  0  0  0  0  0  0  0  0  0  0  0
   -5.0243   23.7095  -21.5807 N   0  0  0  0  0  0  0  0  0  0  0  0
   -5.7631   24.0765  -20.9024 H   0  0  0  0  0  0  0  0  0  0  0  0
   -5.2137   24.0539  -22.9310 C   0  0  0  0  0  0  0  0  0  0  0  0
   -5.9596   23.1827  -23.7147 C   0  0  0  0  0  0  0  0  0  0  0  0
   -6.1975   23.4701  -25.0269 C   0  0  0  0  0  0  0  0  0  0  0  0
   -5.7041   24.6289  -25.6019 C   0  0  0  0  0  0  0  0  0  0  0  0
   -4.9642   25.5152  -24.8635 C   0  0  0  0  0  0  0  0  0  0  0  0
   -4.4266   26.7658  -25.4501 C   0  0  0  0  0  0  0  0  0  0  0  0
   -4.7328   25.2015  -23.5228 C   0  0  0  0  0  0  0  0  0  0  0  0
 20 21  1  0  0  0
 21 12  1  0  0  0
 12 13  2  0  0  0
 13 14  1  0  0  0
 14 22  1  0  0  0
 22 23  1  0  0  0
 14 15  2  0  0  0
 15 16  1  0  0  0
 15 17  1  0  0  0
 17  1  1  0  0  0
  1  2  1  0  0  0
  2  3  1  0  0  0
  3  4  2  0  0  0
  4  5  1  0  0  0
  5  6  2  0  0  0
  6 38  1  0  0  0
 38 40  1  0  0  0
 40 41  2  0  0  0
 41 42  1  0  0  0
 42 43  2  0  0  0
 43 44  1  0  0  0
 44 45  1  0  0  0
 44 46  2  0  0  0
  6  7  1  0  0  0
  7  8  2  0  0  0
  8  9  1  0  0  0
  9 24  1  0  0  0
 24 25  1  0  0  0
 25 26  1  0  0  0
 26 27  1  0  0  0
 27 28  1  0  0  0
 28 29  1  0  0  0
 27 30  1  0  0  0
 30 31  2  0  0  0
 30 32  1  0  0  0
 32 33  2  0  0  0
 33 34  1  0  0  0
 34 35  1  0  0  0
 35 36  1  0  0  0
 35 37  1  0  0  0
  9 10  1  0  0  0
 10 11  2  0  0  0
 17 18  2  0  0  0
 18 19  1  0  0  0
 18 12  1  0  0  0
 10  1  1  0  0  0
  8  3  1  0  0  0
 29 24  1  0  0  0
 46 40  1  0  0  0
 38 39  1  0  0  0
M  END
> <minimizedAffinity>
-8.79888

> <CNNscore>
0.0502434894

> <CNNaffinity>
7.5214362144

> <CNN_VS>
0.3779031932

> <CNNaffinity_variance>
0.0843614563

$$$$
[H]C([H])=C([H])C(=O)N1C([H])([H])C([H])([H])C([H])(OC([H])([H])C([H])([H])n2c(=O)c(-c3c(Cl)c(OC([H])([H])[H])c([H])c(OC([H])([H])[H])c3Cl)c([H])c3c([H])nc(N([H])C([H])([H])[H])nc32)C1([H])[H]


 38 41  0  0  0  0  0  0  0  0999 V2000
   -7.6917   25.7006  -23.2952 C   0  0  0  0  0  0  0  0  0  0  0  0
   -6.8572   26.6404  -23.7514 N   0  0  0  0  0  0  0  0  0  0  0  0
   -5.5839   26.3042  -24.1156 C   0  0  0  0  0  0  0  0  0  0  0  0
   -5.1636   25.0065  -24.0142 C   0  0  0  0  0  0  0  0  0  0  0  0
   -3.8857   24.5699  -24.3643 C   0  0  0  0  0  0  0  0  0  0  0  0
   -3.5163   23.2543  -24.2455 C   0  0  0  0  0  0  0  0  0  0  0  0
   -4.4269   22.3285  -23.7660 C   0  0  0  0  0  0  0  0  0  0  0  0
   -4.1002   21.0968  -23.6467 O   0  0  0  0  0  0  0  0  0  0  0  0
   -5.6672   22.7575  -23.4271 N   0  0  0  0  0  0  0  0  0  0  0  0
   -6.0357   24.0445  -23.5410 C   0  0  0  0  0  0  0  0  0  0  0  0
   -7.2991   24.4400  -23.1910 N   0  0  0  0  0  0  0  0  0  0  0  0
   -2.1893   22.7654  -24.5953 C   0  0  0  0  0  0  0  0  0  0  0  0
   -1.8428   22.5782  -25.9173 C   0  0  0  0  0  0  0  0  0  0  0  0
   -3.0522   22.9276  -27.1496 Cl  0  0  0  0  0  0  0  0  0  0  0  0
   -0.5733   22.1281  -26.2853 C   0  0  0  0  0  0  0  0  0  0  0  0
    0.3716   21.8583  -25.3164 C   0  0  0  0  0  0  0  0  0  0  0  0
    0.0020   22.0537  -23.9836 C   0  0  0  0  0  0  0  0  0  0  0  0
   -1.2523   22.4981  -23.6250 C   0  0  0  0  0  0  0  0  0  0  0  0
   -1.6263   22.7141  -21.9167 Cl  0  0  0  0  0  0  0  0  0  0  0  0
   -0.2959   21.9638  -27.6252 O   0  0  0  0  0  0  0  0  0  0  0  0
    0.1573   23.0840  -28.3918 C   0  0  0  0  0  0  0  0  0  0  0  0
    0.9446   21.7871  -22.9932 O   0  0  0  0  0  0  0  0  0  0  0  0
    2.1441   21.0736  -23.2989 C   0  0  0  0  0  0  0  0  0  0  0  0
  -10.1331   25.1872  -23.1443 C   0  0  0  0  0  0  0  0  0  0  0  0
   -9.0022   26.0650  -22.9269 N   0  0  0  0  0  0  0  0  0  0  0  0
   -9.1982   26.9967  -22.4804 H   0  0  0  0  0  0  0  0  0  0  0  0
   -6.6371   21.7789  -22.9305 C   0  0  0  0  0  0  0  0  0  0  0  0
   -6.4233   21.7141  -21.4369 C   0  0  0  0  0  0  0  0  0  0  0  0
   -7.5233   21.1175  -20.8440 O   0  0  0  0  0  0  0  0  0  0  0  0
   -7.4571   21.1941  -19.4464 C   0  0  0  0  0  0  0  0  0  0  0  0
   -8.7955   21.1325  -18.8001 C   0  0  0  0  0  0  0  0  0  0  0  0
   -8.7926   19.9233  -17.9217 C   0  0  0  0  0  0  0  0  0  0  0  0
   -7.6706   19.1140  -18.3988 N   0  0  0  0  0  0  0  0  0  0  0  0
   -6.6973   19.9945  -18.9778 C   0  0  0  0  0  0  0  0  0  0  0  0
   -7.5686   17.7118  -18.3037 C   0  0  0  0  0  0  0  0  0  0  0  0
   -6.5558   17.1098  -18.7518 O   0  0  0  0  0  0  0  0  0  0  0  0
   -8.6192   16.9322  -17.6932 C   0  0  0  0  0  0  0  0  0  0  0  0
   -8.5408   16.4892  -16.4553 C   0  0  0  0  0  0  0  0  0  0  0  0
 24 25  1  0  0  0
 25  1  1  0  0  0
  1  2  2  0  0  0
  2  3  1  0  0  0
  3  4  2  0  0  0
  4  5  1  0  0  0
  5  6  2  0  0  0
  6 12  1  0  0  0
 12 13  2  0  0  0
 13 14  1  0  0  0
 13 15  1  0  0  0
 15 20  1  0  0  0
 20 21  1  0  0  0
 15 16  2  0  0  0
 16 17  1  0  0  0
 17 22  1  0  0  0
 22 23  1  0  0  0
 17 18  2  0  0  0
 18 19  1  0  0  0
  6  7  1  0  0  0
  7  8  2  0  0  0
  7  9  1  0  0  0
  9 27  1  0  0  0
 27 28  1  0  0  0
 28 29  1  0  0  0
 29 30  1  0  0  0
 30 31  1  0  0  0
 31 32  1  0  0  0
 32 33  1  0  0  0
 33 34  1  0  0  0
 33 35  1  0  0  0
 35 36  2  0  0  0
 35 37  1  0  0  0
 37 38  2  0  0  0
  9 10  1  0  0  0
 10 11  2  0  0  0
 11  1  1  0  0  0
 10  4  1  0  0  0
 18 12  1  0  0  0
 34 30  1  0  0  0
 25 26  1  0  0  0
M  END
> <minimizedAffinity>
-7.21463

> <CNNscore>
0.3242075145

> <CNNaffinity>
6.7727775574

> <CNN_VS>
2.1957852840

> <CNNaffinity_variance>
0.0945662409

$$$$
[H]C([H])=C([H])C(=O)N1C([H])([H])C([H])([H])C([H])(OC([H])([H])C([H])([H])n2c(=O)c(-c3c(Cl)c(OC([H])([H])[H])c([H])c(OC([H])([H])[H])c3Cl)c([H])c3c([H])nc(N([H])C([H])([H])[H])nc32)C1([H])[H]


 38 41  0  0  0  0  0  0  0  0999 V2000
   -7.8043   25.4993  -23.6342 C   0  0  0  0  0  0  0  0  0  0  0  0
   -6.9643   26.4623  -24.0274 N   0  0  0  0  0  0  0  0  0  0  0  0
   -5.6652   26.1570  -24.3208 C   0  0  0  0  0  0  0  0  0  0  0  0
   -5.2247   24.8666  -24.2130 C   0  0  0  0  0  0  0  0  0  0  0  0
   -3.9197   24.4610  -24.4935 C   0  0  0  0  0  0  0  0  0  0  0  0
   -3.5306   23.1512  -24.3716 C   0  0  0  0  0  0  0  0  0  0  0  0
   -4.4483   22.2004  -23.9593 C   0  0  0  0  0  0  0  0  0  0  0  0
   -4.1036   20.9738  -23.8382 O   0  0  0  0  0  0  0  0  0  0  0  0
   -5.7149   22.5994  -23.6879 N   0  0  0  0  0  0  0  0  0  0  0  0
   -6.1028   23.8804  -23.8054 C   0  0  0  0  0  0  0  0  0  0  0  0
   -7.3924   24.2453  -23.5246 N   0  0  0  0  0  0  0  0  0  0  0  0
   -2.1756   22.6943  -24.6496 C   0  0  0  0  0  0  0  0  0  0  0  0
   -1.7560   22.5117  -25.9509 C   0  0  0  0  0  0  0  0  0  0  0  0
   -2.9076   22.8274  -27.2461 Cl  0  0  0  0  0  0  0  0  0  0  0  0
   -0.4584   22.0920  -26.2503 C   0  0  0  0  0  0  0  0  0  0  0  0
    0.4410   21.8486  -25.2323 C   0  0  0  0  0  0  0  0  0  0  0  0
   -0.0024   22.0387  -23.9214 C   0  0  0  0  0  0  0  0  0  0  0  0
   -1.2843   22.4531  -23.6306 C   0  0  0  0  0  0  0  0  0  0  0  0
   -1.7522   22.6649  -21.9451 Cl  0  0  0  0  0  0  0  0  0  0  0  0
   -0.1075   21.9305  -27.5732 O   0  0  0  0  0  0  0  0  0  0  0  0
    0.1458   23.0855  -28.3793 C   0  0  0  0  0  0  0  0  0  0  0  0
    0.8934   21.7985  -22.8820 O   0  0  0  0  0  0  0  0  0  0  0  0
    2.1008   21.0699  -23.1116 C   0  0  0  0  0  0  0  0  0  0  0  0
   -9.8351   25.2792  -22.1938 C   0  0  0  0  0  0  0  0  0  0  0  0
   -9.1414   25.8319  -23.3384 N   0  0  0  0  0  0  0  0  0  0  0  0
   -9.6800   26.4971  -23.9492 H   0  0  0  0  0  0  0  0  0  0  0  0
   -6.6917   21.5942  -23.2629 C   0  0  0  0  0  0  0  0  0  0  0  0
   -6.7806   21.7213  -21.7607 C   0  0  0  0  0  0  0  0  0  0  0  0
   -7.9469   21.1188  -21.3201 O   0  0  0  0  0  0  0  0  0  0  0  0
   -8.6790   21.9702  -20.4819 C   0  0  0  0  0  0  0  0  0  0  0  0
   -9.0477   21.3322  -19.1896 C   0  0  0  0  0  0  0  0  0  0  0  0
   -8.4131   22.1496  -18.1111 C   0  0  0  0  0  0  0  0  0  0  0  0
   -7.3833   22.9359  -18.7912 N   0  0  0  0  0  0  0  0  0  0  0  0
   -7.7927   23.1286  -20.1525 C   0  0  0  0  0  0  0  0  0  0  0  0
   -6.1958   23.4183  -18.2056 C   0  0  0  0  0  0  0  0  0  0  0  0
   -5.3701   24.0861  -18.8848 O   0  0  0  0  0  0  0  0  0  0  0  0
   -5.8961   23.1595  -16.8173 C   0  0  0  0  0  0  0  0  0  0  0  0
   -4.8077   23.6168  -16.2332 C   0  0  0  0  0  0  0  0  0  0  0  0
 24 25  1  0  0  0
 25  1  1  0  0  0
  1  2  2  0  0  0
  2  3  1  0  0  0
  3  4  2  0  0  0
  4  5  1  0  0  0
  5  6  2  0  0  0
  6 12  1  0  0  0
 12 13  2  0  0  0
 13 14  1  0  0  0
 13 15  1  0  0  0
 15 20  1  0  0  0
 20 21  1  0  0  0
 15 16  2  0  0  0
 16 17  1  0  0  0
 17 22  1  0  0  0
 22 23  1  0  0  0
 17 18  2  0  0  0
 18 19  1  0  0  0
  6  7  1  0  0  0
  7  8  2  0  0  0
  7  9  1  0  0  0
  9 27  1  0  0  0
 27 28  1  0  0  0
 28 29  1  0  0  0
 29 30  1  0  0  0
 30 31  1  0  0  0
 31 32  1  0  0  0
 32 33  1  0  0  0
 33 34  1  0  0  0
 33 35  1  0  0  0
 35 36  2  0  0  0
 35 37  1  0  0  0
 37 38  2  0  0  0
  9 10  1  0  0  0
 10 11  2  0  0  0
 11  1  1  0  0  0
 10  4  1  0  0  0
 18 12  1  0  0  0
 34 30  1  0  0  0
 25 26  1  0  0  0
M  END
> <minimizedAffinity>
-8.09796

> <CNNscore>
0.2085633129

> <CNNaffinity>
6.6189851761

> <CNN_VS>
1.3804774284

> <CNNaffinity_variance>
0.3988138437

$$$$
[H]C([H])=C([H])C(=O)N1C([H])([H])C([H])([H])C([H])(OC([H])([H])C([H])([H])n2c(=O)c(-c3c(Cl)c(OC([H])([H])[H])c([H])c(OC([H])([H])[H])c3Cl)c([H])c3c([H])nc(N([H])C([H])([H])[H])nc32)C1([H])[H]


 38 41  0  0  0  0  0  0  0  0999 V2000
   -1.5745   22.3149  -25.6556 C   0  0  0  0  0  0  0  0  0  0  0  0
   -0.2487   22.1435  -25.6816 N   0  0  0  0  0  0  0  0  0  0  0  0
    0.4176   21.7992  -24.5395 C   0  0  0  0  0  0  0  0  0  0  0  0
   -0.2717   21.6292  -23.3704 C   0  0  0  0  0  0  0  0  0  0  0  0
    0.3218   21.2759  -22.1582 C   0  0  0  0  0  0  0  0  0  0  0  0
   -0.4176   21.1152  -21.0141 C   0  0  0  0  0  0  0  0  0  0  0  0
   -1.7879   21.3073  -21.0523 C   0  0  0  0  0  0  0  0  0  0  0  0
   -2.4943   21.1635  -19.9948 O   0  0  0  0  0  0  0  0  0  0  0  0
   -2.3599   21.6506  -22.2322 N   0  0  0  0  0  0  0  0  0  0  0  0
   -1.6418   21.8094  -23.3567 C   0  0  0  0  0  0  0  0  0  0  0  0
   -2.2555   22.1543  -24.5311 N   0  0  0  0  0  0  0  0  0  0  0  0
    0.1699   20.7535  -19.7310 C   0  0  0  0  0  0  0  0  0  0  0  0
    0.4140   21.7221  -18.7796 C   0  0  0  0  0  0  0  0  0  0  0  0
    0.0138   23.3918  -19.1738 Cl  0  0  0  0  0  0  0  0  0  0  0  0
    0.9594   21.4047  -17.5341 C   0  0  0  0  0  0  0  0  0  0  0  0
    1.2686   20.0949  -17.2290 C   0  0  0  0  0  0  0  0  0  0  0  0
    1.0146   19.1285  -18.2051 C   0  0  0  0  0  0  0  0  0  0  0  0
    0.4762   19.4464  -19.4333 C   0  0  0  0  0  0  0  0  0  0  0  0
    0.1917   18.1579  -20.6010 Cl  0  0  0  0  0  0  0  0  0  0  0  0
    1.1763   22.4233  -16.6316 O   0  0  0  0  0  0  0  0  0  0  0  0
    2.3237   22.3735  -15.7776 C   0  0  0  0  0  0  0  0  0  0  0  0
    1.3200   17.8012  -17.9126 O   0  0  0  0  0  0  0  0  0  0  0  0
    0.4446   17.0105  -17.1064 C   0  0  0  0  0  0  0  0  0  0  0  0
   -1.5340   22.9485  -28.0730 C   0  0  0  0  0  0  0  0  0  0  0  0
   -2.2455   22.6672  -26.8437 N   0  0  0  0  0  0  0  0  0  0  0  0
   -3.2943   22.7385  -26.8705 H   0  0  0  0  0  0  0  0  0  0  0  0
   -3.8110   21.8431  -22.2791 C   0  0  0  0  0  0  0  0  0  0  0  0
   -4.0309   23.3285  -22.1175 C   0  0  0  0  0  0  0  0  0  0  0  0
   -5.3024   23.6522  -22.5604 O   0  0  0  0  0  0  0  0  0  0  0  0
   -5.3136   24.8815  -23.2330 C   0  0  0  0  0  0  0  0  0  0  0  0
   -4.0187   25.1883  -23.8980 C   0  0  0  0  0  0  0  0  0  0  0  0
   -4.3053   25.3095  -25.3598 C   0  0  0  0  0  0  0  0  0  0  0  0
   -5.6062   24.6649  -25.5433 N   0  0  0  0  0  0  0  0  0  0  0  0
   -6.3397   24.7788  -24.3157 C   0  0  0  0  0  0  0  0  0  0  0  0
   -6.0560   24.0410  -26.7240 C   0  0  0  0  0  0  0  0  0  0  0  0
   -7.1983   23.5105  -26.7748 O   0  0  0  0  0  0  0  0  0  0  0  0
   -5.2215   23.9935  -27.9011 C   0  0  0  0  0  0  0  0  0  0  0  0
   -5.6096   23.4137  -29.0183 C   0  0  0  0  0  0  0  0  0  0  0  0
 24 25  1  0  0  0
 25  1  1  0  0  0
  1  2  2  0  0  0
  2  3  1  0  0  0
  3  4  2  0  0  0
  4  5  1  0  0  0
  5  6  2  0  0  0
  6 12  1  0  0  0
 12 13  2  0  0  0
 13 14  1  0  0  0
 13 15  1  0  0  0
 15 20  1  0  0  0
 20 21  1  0  0  0
 15 16  2  0  0  0
 16 17  1  0  0  0
 17 22  1  0  0  0
 22 23  1  0  0  0
 17 18  2  0  0  0
 18 19  1  0  0  0
  6  7  1  0  0  0
  7  8  2  0  0  0
  7  9  1  0  0  0
  9 27  1  0  0  0
 27 28  1  0  0  0
 28 29  1  0  0  0
 29 30  1  0  0  0
 30 31  1  0  0  0
 31 32  1  0  0  0
 32 33  1  0  0  0
 33 34  1  0  0  0
 33 35  1  0  0  0
 35 36  2  0  0  0
 35 37  1  0  0  0
 37 38  2  0  0  0
  9 10  1  0  0  0
 10 11  2  0  0  0
 11  1  1  0  0  0
 10  4  1  0  0  0
 18 12  1  0  0  0
 34 30  1  0  0  0
 25 26  1  0  0  0
M  END
> <minimizedAffinity>
-7.12305

> <CNNscore>
0.1987102777

> <CNNaffinity>
7.0991487503

> <CNN_VS>
1.4106738567

> <CNNaffinity_variance>
0.3184255958

$$$$
[H]C([H])=C([H])C(=O)N1C([H])([H])C([H])([H])C([H])(OC([H])([H])C([H])([H])n2c(=O)c(-c3c(Cl)c(OC([H])([H])[H])c([H])c(OC([H])([H])[H])c3Cl)c([H])c3c([H])nc(N([H])C([H])([H])[H])nc32)C1([H])[H]


 38 41  0  0  0  0  0  0  0  0999 V2000
   -7.9417   25.3817  -23.5645 C   0  0  0  0  0  0  0  0  0  0  0  0
   -7.1364   26.3723  -23.9617 N   0  0  0  0  0  0  0  0  0  0  0  0
   -5.8339   26.1077  -24.2786 C   0  0  0  0  0  0  0  0  0  0  0  0
   -5.3545   24.8297  -24.1902 C   0  0  0  0  0  0  0  0  0  0  0  0
   -4.0430   24.4648  -24.4952 C   0  0  0  0  0  0  0  0  0  0  0  0
   -3.6143   23.1659  -24.3921 C   0  0  0  0  0  0  0  0  0  0  0  0
   -4.4973   22.1850  -23.9746 C   0  0  0  0  0  0  0  0  0  0  0  0
   -4.1154   20.9678  -23.8708 O   0  0  0  0  0  0  0  0  0  0  0  0
   -5.7704   22.5445  -23.6793 N   0  0  0  0  0  0  0  0  0  0  0  0
   -6.1970   23.8147  -23.7782 C   0  0  0  0  0  0  0  0  0  0  0  0
   -7.4920   24.1393  -23.4736 N   0  0  0  0  0  0  0  0  0  0  0  0
   -2.2513   22.7511  -24.6960 C   0  0  0  0  0  0  0  0  0  0  0  0
   -1.3534   22.5111  -23.6767 C   0  0  0  0  0  0  0  0  0  0  0  0
   -1.9003   22.7402  -22.0179 Cl  0  0  0  0  0  0  0  0  0  0  0  0
   -0.0457   22.0952  -23.9351 C   0  0  0  0  0  0  0  0  0  0  0  0
    0.3773   21.9145  -25.2362 C   0  0  0  0  0  0  0  0  0  0  0  0
   -0.5461   22.1627  -26.2544 C   0  0  0  0  0  0  0  0  0  0  0  0
   -1.8359   22.5731  -25.9947 C   0  0  0  0  0  0  0  0  0  0  0  0
   -2.9292   22.8620  -27.3461 Cl  0  0  0  0  0  0  0  0  0  0  0  0
    0.7976   21.8737  -22.8679 O   0  0  0  0  0  0  0  0  0  0  0  0
    1.9875   21.1023  -23.0605 C   0  0  0  0  0  0  0  0  0  0  0  0
   -0.1355   21.9839  -27.5735 O   0  0  0  0  0  0  0  0  0  0  0  0
    0.1377   23.1077  -28.4126 C   0  0  0  0  0  0  0  0  0  0  0  0
   -9.6564   26.2896  -21.9888 C   0  0  0  0  0  0  0  0  0  0  0  0
   -9.2830   25.6726  -23.2444 N   0  0  0  0  0  0  0  0  0  0  0  0
  -10.0598   25.4450  -23.9157 H   0  0  0  0  0  0  0  0  0  0  0  0
   -6.7107   21.5075  -23.2486 C   0  0  0  0  0  0  0  0  0  0  0  0
   -6.9023   21.7209  -21.7658 C   0  0  0  0  0  0  0  0  0  0  0  0
   -8.0815   21.1147  -21.3664 O   0  0  0  0  0  0  0  0  0  0  0  0
   -8.8342   21.9550  -20.5352 C   0  0  0  0  0  0  0  0  0  0  0  0
   -9.1075   21.3550  -19.2017 C   0  0  0  0  0  0  0  0  0  0  0  0
   -8.4857   22.2605  -18.1881 C   0  0  0  0  0  0  0  0  0  0  0  0
   -7.5384   23.0793  -18.9456 N   0  0  0  0  0  0  0  0  0  0  0  0
   -8.0141   23.1820  -20.2951 C   0  0  0  0  0  0  0  0  0  0  0  0
   -6.3630   23.6637  -18.4333 C   0  0  0  0  0  0  0  0  0  0  0  0
   -5.6113   24.3512  -19.1758 O   0  0  0  0  0  0  0  0  0  0  0  0
   -5.9912   23.4892  -17.0492 C   0  0  0  0  0  0  0  0  0  0  0  0
   -5.6110   24.4949  -16.2884 C   0  0  0  0  0  0  0  0  0  0  0  0
 24 25  1  0  0  0
 25  1  1  0  0  0
  1  2  2  0  0  0
  2  3  1  0  0  0
  3  4  2  0  0  0
  4  5  1  0  0  0
  5  6  2  0  0  0
  6 12  1  0  0  0
 12 13  2  0  0  0
 13 14  1  0  0  0
 13 15  1  0  0  0
 15 20  1  0  0  0
 20 21  1  0  0  0
 15 16  2  0  0  0
 16 17  1  0  0  0
 17 22  1  0  0  0
 22 23  1  0  0  0
 17 18  2  0  0  0
 18 19  1  0  0  0
  6  7  1  0  0  0
  7  8  2  0  0  0
  7  9  1  0  0  0
  9 27  1  0  0  0
 27 28  1  0  0  0
 28 29  1  0  0  0
 29 30  1  0  0  0
 30 31  1  0  0  0
 31 32  1  0  0  0
 32 33  1  0  0  0
 33 34  1  0  0  0
 33 35  1  0  0  0
 35 36  2  0  0  0
 35 37  1  0  0  0
 37 38  2  0  0  0
  9 10  1  0  0  0
 10 11  2  0  0  0
 11  1  1  0  0  0
 10  4  1  0  0  0
 18 12  1  0  0  0
 34 30  1  0  0  0
 25 26  1  0  0  0
M  END
> <minimizedAffinity>
-8.14802

> <CNNscore>
0.1864519268

> <CNNaffinity>
6.6007089615

> <CNN_VS>
1.2307149172

> <CNNaffinity_variance>
0.3286314011

$$$$
[H]C([H])=C([H])C(=O)N1C([H])([H])C([H])([H])C([H])(OC([H])([H])C([H])([H])n2c(=O)c(-c3c(Cl)c(OC([H])([H])[H])c([H])c(OC([H])([H])[H])c3Cl)c([H])c3c([H])nc(N([H])C([H])([H])[H])nc32)C1([H])[H]


 38 41  0  0  0  0  0  0  0  0999 V2000
   -1.7481   22.3448  -25.6862 C   0  0  0  0  0  0  0  0  0  0  0  0
   -0.4219   22.1881  -25.7509 N   0  0  0  0  0  0  0  0  0  0  0  0
    0.2814   21.8531  -24.6284 C   0  0  0  0  0  0  0  0  0  0  0  0
   -0.3713   21.6774  -23.4393 C   0  0  0  0  0  0  0  0  0  0  0  0
    0.2614   21.3327  -22.2446 C   0  0  0  0  0  0  0  0  0  0  0  0
   -0.4422   21.1657  -21.0791 C   0  0  0  0  0  0  0  0  0  0  0  0
   -1.8151   21.3425  -21.0773 C   0  0  0  0  0  0  0  0  0  0  0  0
   -2.4886   21.1925  -19.9993 O   0  0  0  0  0  0  0  0  0  0  0  0
   -2.4253   21.6774  -22.2404 N   0  0  0  0  0  0  0  0  0  0  0  0
   -1.7423   21.8424  -23.3856 C   0  0  0  0  0  0  0  0  0  0  0  0
   -2.3940   22.1784  -24.5420 N   0  0  0  0  0  0  0  0  0  0  0  0
    0.1867   20.8127  -19.8133 C   0  0  0  0  0  0  0  0  0  0  0  0
    0.5283   19.5030  -19.5473 C   0  0  0  0  0  0  0  0  0  0  0  0
    0.1638   18.2862  -20.7678 Cl  0  0  0  0  0  0  0  0  0  0  0  0
    1.1483   19.1360  -18.3512 C   0  0  0  0  0  0  0  0  0  0  0  0
    1.4342   20.0933  -17.3993 C   0  0  0  0  0  0  0  0  0  0  0  0
    1.0805   21.4137  -17.6867 C   0  0  0  0  0  0  0  0  0  0  0  0
    0.4686   21.7714  -18.8686 C   0  0  0  0  0  0  0  0  0  0  0  0
    0.0596   23.4636  -19.1412 Cl  0  0  0  0  0  0  0  0  0  0  0  0
    1.4617   17.8088  -18.1525 O   0  0  0  0  0  0  0  0  0  0  0  0
    2.3687   17.4498  -17.1054 C   0  0  0  0  0  0  0  0  0  0  0  0
    1.3632   22.3926  -16.7368 O   0  0  0  0  0  0  0  0  0  0  0  0
    2.6827   22.9252  -16.6067 C   0  0  0  0  0  0  0  0  0  0  0  0
   -1.7861   22.9677  -28.1064 C   0  0  0  0  0  0  0  0  0  0  0  0
   -2.4577   22.6876  -26.8546 N   0  0  0  0  0  0  0  0  0  0  0  0
   -3.5072   22.7524  -26.8493 H   0  0  0  0  0  0  0  0  0  0  0  0
   -3.8792   21.8536  -22.2449 C   0  0  0  0  0  0  0  0  0  0  0  0
   -4.1113   23.3345  -22.0605 C   0  0  0  0  0  0  0  0  0  0  0  0
   -5.3460   23.6720  -22.5888 O   0  0  0  0  0  0  0  0  0  0  0  0
   -5.3158   24.9339  -23.1972 C   0  0  0  0  0  0  0  0  0  0  0  0
   -4.0341   25.2053  -23.9019 C   0  0  0  0  0  0  0  0  0  0  0  0
   -4.3732   25.4189  -25.3418 C   0  0  0  0  0  0  0  0  0  0  0  0
   -5.7146   24.8559  -25.5003 N   0  0  0  0  0  0  0  0  0  0  0  0
   -6.3896   24.9442  -24.2376 C   0  0  0  0  0  0  0  0  0  0  0  0
   -6.2468   24.3206  -26.6902 C   0  0  0  0  0  0  0  0  0  0  0  0
   -7.4182   23.8558  -26.7176 O   0  0  0  0  0  0  0  0  0  0  0  0
   -5.4652   24.2905  -27.9037 C   0  0  0  0  0  0  0  0  0  0  0  0
   -5.5784   23.3247  -28.7921 C   0  0  0  0  0  0  0  0  0  0  0  0
 24 25  1  0  0  0
 25  1  1  0  0  0
  1  2  2  0  0  0
  2  3  1  0  0  0
  3  4  2  0  0  0
  4  5  1  0  0  0
  5  6  2  0  0  0
  6 12  1  0  0  0
 12 13  2  0  0  0
 13 14  1  0  0  0
 13 15  1  0  0  0
 15 20  1  0  0  0
 20 21  1  0  0  0
 15 16  2  0  0  0
 16 17  1  0  0  0
 17 22  1  0  0  0
 22 23  1  0  0  0
 17 18  2  0  0  0
 18 19  1  0  0  0
  6  7  1  0  0  0
  7  8  2  0  0  0
  7  9  1  0  0  0
  9 27  1  0  0  0
 27 28  1  0  0  0
 28 29  1  0  0  0
 29 30  1  0  0  0
 30 31  1  0  0  0
 31 32  1  0  0  0
 32 33  1  0  0  0
 33 34  1  0  0  0
 33 35  1  0  0  0
 35 36  2  0  0  0
 35 37  1  0  0  0
 37 38  2  0  0  0
  9 10  1  0  0  0
 10 11  2  0  0  0
 11  1  1  0  0  0
 10  4  1  0  0  0
 18 12  1  0  0  0
 34 30  1  0  0  0
 25 26  1  0  0  0
M  END
> <minimizedAffinity>
-7.14390

> <CNNscore>
0.1836116761

> <CNNaffinity>
7.0721726418

> <CNN_VS>
1.2985334396

> <CNNaffinity_variance>
0.2851200402

$$$$
[H]C([H])=C([H])C(=O)N1C([H])([H])C([H])([H])C([H])(OC([H])([H])C([H])([H])n2c(=O)c(-c3c(Cl)c(OC([H])([H])[H])c([H])c(OC([H])([H])[H])c3Cl)c([H])c3c([H])nc(N([H])C([H])([H])[H])nc32)C1([H])[H]


 38 41  0  0  0  0  0  0  0  0999 V2000
   -1.2240   22.3735  -25.8909 C   0  0  0  0  0  0  0  0  0  0  0  0
    0.0990   22.1906  -25.8275 N   0  0  0  0  0  0  0  0  0  0  0  0
    0.6830   21.8364  -24.6441 C   0  0  0  0  0  0  0  0  0  0  0  0
   -0.0856   21.6682  -23.5253 C   0  0  0  0  0  0  0  0  0  0  0  0
    0.4210   21.3054  -22.2771 C   0  0  0  0  0  0  0  0  0  0  0  0
   -0.3959   21.1471  -21.1865 C   0  0  0  0  0  0  0  0  0  0  0  0
   -1.7587   21.3514  -21.3170 C   0  0  0  0  0  0  0  0  0  0  0  0
   -2.5367   21.2100  -20.3106 O   0  0  0  0  0  0  0  0  0  0  0  0
   -2.2461   21.7039  -22.5317 N   0  0  0  0  0  0  0  0  0  0  0  0
   -1.4519   21.8605  -23.6040 C   0  0  0  0  0  0  0  0  0  0  0  0
   -1.9813   22.2149  -24.8161 N   0  0  0  0  0  0  0  0  0  0  0  0
    0.0999   20.7758  -19.8680 C   0  0  0  0  0  0  0  0  0  0  0  0
    0.4029   19.4605  -19.5835 C   0  0  0  0  0  0  0  0  0  0  0  0
    0.1536   18.2594  -20.8478 Cl  0  0  0  0  0  0  0  0  0  0  0  0
    0.8966   19.0758  -18.3353 C   0  0  0  0  0  0  0  0  0  0  0  0
    1.0928   20.0208  -17.3490 C   0  0  0  0  0  0  0  0  0  0  0  0
    0.7800   21.3471  -17.6558 C   0  0  0  0  0  0  0  0  0  0  0  0
    0.2928   21.7222  -18.8892 C   0  0  0  0  0  0  0  0  0  0  0  0
   -0.0737   23.4206  -19.1828 Cl  0  0  0  0  0  0  0  0  0  0  0  0
    1.1783   17.7439  -18.1208 O   0  0  0  0  0  0  0  0  0  0  0  0
    0.2696   16.9479  -17.3535 C   0  0  0  0  0  0  0  0  0  0  0  0
    0.9734   22.3137  -16.6716 O   0  0  0  0  0  0  0  0  0  0  0  0
    1.5752   21.9734  -15.4212 C   0  0  0  0  0  0  0  0  0  0  0  0
   -3.2232   23.0252  -27.2420 C   0  0  0  0  0  0  0  0  0  0  0  0
   -1.8096   22.7359  -27.1204 N   0  0  0  0  0  0  0  0  0  0  0  0
   -1.2298   22.8052  -27.9950 H   0  0  0  0  0  0  0  0  0  0  0  0
   -3.6890   21.9093  -22.6764 C   0  0  0  0  0  0  0  0  0  0  0  0
   -3.9492   23.3210  -22.2072 C   0  0  0  0  0  0  0  0  0  0  0  0
   -5.3121   23.5654  -22.2298 O   0  0  0  0  0  0  0  0  0  0  0  0
   -5.6676   24.3889  -23.3063 C   0  0  0  0  0  0  0  0  0  0  0  0
   -6.6436   23.7469  -24.2274 C   0  0  0  0  0  0  0  0  0  0  0  0
   -7.8674   24.6049  -24.2215 C   0  0  0  0  0  0  0  0  0  0  0  0
   -7.7408   25.4332  -23.0218 N   0  0  0  0  0  0  0  0  0  0  0  0
   -6.3448   25.5920  -22.7322 C   0  0  0  0  0  0  0  0  0  0  0  0
   -8.8091   25.9783  -22.2820 C   0  0  0  0  0  0  0  0  0  0  0  0
   -8.5891   26.6783  -21.2570 O   0  0  0  0  0  0  0  0  0  0  0  0
  -10.1782   25.7483  -22.6782 C   0  0  0  0  0  0  0  0  0  0  0  0
  -11.0608   25.1901  -21.8755 C   0  0  0  0  0  0  0  0  0  0  0  0
 24 25  1  0  0  0
 25  1  1  0  0  0
  1  2  2  0  0  0
  2  3  1  0  0  0
  3  4  2  0  0  0
  4  5  1  0  0  0
  5  6  2  0  0  0
  6 12  1  0  0  0
 12 13  2  0  0  0
 13 14  1  0  0  0
 13 15  1  0  0  0
 15 20  1  0  0  0
 20 21  1  0  0  0
 15 16  2  0  0  0
 16 17  1  0  0  0
 17 22  1  0  0  0
 22 23  1  0  0  0
 17 18  2  0  0  0
 18 19  1  0  0  0
  6  7  1  0  0  0
  7  8  2  0  0  0
  7  9  1  0  0  0
  9 27  1  0  0  0
 27 28  1  0  0  0
 28 29  1  0  0  0
 29 30  1  0  0  0
 30 31  1  0  0  0
 31 32  1  0  0  0
 32 33  1  0  0  0
 33 34  1  0  0  0
 33 35  1  0  0  0
 35 36  2  0  0  0
 35 37  1  0  0  0
 37 38  2  0  0  0
  9 10  1  0  0  0
 10 11  2  0  0  0
 11  1  1  0  0  0
 10  4  1  0  0  0
 18 12  1  0  0  0
 34 30  1  0  0  0
 25 26  1  0  0  0
M  END
> <minimizedAffinity>
-6.69479

> <CNNscore>
0.1804020852

> <CNNaffinity>
6.8334784508

> <CNN_VS>
1.2327737808

> <CNNaffinity_variance>
0.2798366547

$$$$
[H]C([H])=C([H])C(=O)N1C([H])([H])C([H])([H])C([H])(OC([H])([H])C([H])([H])n2c(=O)c(-c3c(Cl)c(OC([H])([H])[H])c([H])c(OC([H])([H])[H])c3Cl)c([H])c3c([H])nc(N([H])C([H])([H])[H])nc32)C1([H])[H]


 38 41  0  0  0  0  0  0  0  0999 V2000
   -8.1137   25.4335  -23.2579 C   0  0  0  0  0  0  0  0  0  0  0  0
   -7.3209   26.4414  -23.6364 N   0  0  0  0  0  0  0  0  0  0  0  0
   -6.0368   26.1892  -24.0294 C   0  0  0  0  0  0  0  0  0  0  0  0
   -5.5631   24.9060  -24.0363 C   0  0  0  0  0  0  0  0  0  0  0  0
   -4.2702   24.5530  -24.4236 C   0  0  0  0  0  0  0  0  0  0  0  0
   -3.8465   23.2484  -24.4146 C   0  0  0  0  0  0  0  0  0  0  0  0
   -4.7159   22.2494  -24.0114 C   0  0  0  0  0  0  0  0  0  0  0  0
   -4.3383   21.0266  -23.9949 O   0  0  0  0  0  0  0  0  0  0  0  0
   -5.9710   22.5974  -23.6360 N   0  0  0  0  0  0  0  0  0  0  0  0
   -6.3925   23.8731  -23.6426 C   0  0  0  0  0  0  0  0  0  0  0  0
   -7.6692   24.1859  -23.2588 N   0  0  0  0  0  0  0  0  0  0  0  0
   -2.5025   22.8453  -24.8060 C   0  0  0  0  0  0  0  0  0  0  0  0
   -1.5497   22.5750  -23.8458 C   0  0  0  0  0  0  0  0  0  0  0  0
   -2.0041   22.7517  -22.1530 Cl  0  0  0  0  0  0  0  0  0  0  0  0
   -0.2583   22.1694  -24.1888 C   0  0  0  0  0  0  0  0  0  0  0  0
    0.0921   22.0298  -25.5162 C   0  0  0  0  0  0  0  0  0  0  0  0
   -0.8861   22.3082  -26.4737 C   0  0  0  0  0  0  0  0  0  0  0  0
   -2.1594   22.7084  -26.1306 C   0  0  0  0  0  0  0  0  0  0  0  0
   -3.3257   23.0375  -27.4098 Cl  0  0  0  0  0  0  0  0  0  0  0  0
    0.6426   21.9160  -23.1772 O   0  0  0  0  0  0  0  0  0  0  0  0
    1.8839   21.2742  -23.4857 C   0  0  0  0  0  0  0  0  0  0  0  0
   -0.5490   22.1711  -27.8184 O   0  0  0  0  0  0  0  0  0  0  0  0
    0.1329   23.2182  -28.5113 C   0  0  0  0  0  0  0  0  0  0  0  0
   -9.7367   26.6557  -21.8022 C   0  0  0  0  0  0  0  0  0  0  0  0
   -9.4362   25.7118  -22.8583 N   0  0  0  0  0  0  0  0  0  0  0  0
  -10.2514   25.2345  -23.3201 H   0  0  0  0  0  0  0  0  0  0  0  0
   -6.8973   21.5420  -23.2202 C   0  0  0  0  0  0  0  0  0  0  0  0
   -6.8590   21.5370  -21.7105 C   0  0  0  0  0  0  0  0  0  0  0  0
   -8.1499   21.4262  -21.2217 O   0  0  0  0  0  0  0  0  0  0  0  0
   -8.2945   22.0952  -19.9991 C   0  0  0  0  0  0  0  0  0  0  0  0
   -9.7168   22.2651  -19.5979 C   0  0  0  0  0  0  0  0  0  0  0  0
   -9.8842   21.5485  -18.2970 C   0  0  0  0  0  0  0  0  0  0  0  0
   -8.7279   20.6561  -18.2072 N   0  0  0  0  0  0  0  0  0  0  0  0
   -7.6516   21.2408  -18.9538 C   0  0  0  0  0  0  0  0  0  0  0  0
   -8.6844   19.4340  -17.5070 C   0  0  0  0  0  0  0  0  0  0  0  0
   -7.6341   18.7371  -17.4964 O   0  0  0  0  0  0  0  0  0  0  0  0
   -9.8388   18.9509  -16.7871 C   0  0  0  0  0  0  0  0  0  0  0  0
  -10.0298   19.2036  -15.5086 C   0  0  0  0  0  0  0  0  0  0  0  0
 24 25  1  0  0  0
 25  1  1  0  0  0
  1  2  2  0  0  0
  2  3  1  0  0  0
  3  4  2  0  0  0
  4  5  1  0  0  0
  5  6  2  0  0  0
  6 12  1  0  0  0
 12 13  2  0  0  0
 13 14  1  0  0  0
 13 15  1  0  0  0
 15 20  1  0  0  0
 20 21  1  0  0  0
 15 16  2  0  0  0
 16 17  1  0  0  0
 17 22  1  0  0  0
 22 23  1  0  0  0
 17 18  2  0  0  0
 18 19  1  0  0  0
  6  7  1  0  0  0
  7  8  2  0  0  0
  7  9  1  0  0  0
  9 27  1  0  0  0
 27 28  1  0  0  0
 28 29  1  0  0  0
 29 30  1  0  0  0
 30 31  1  0  0  0
 31 32  1  0  0  0
 32 33  1  0  0  0
 33 34  1  0  0  0
 33 35  1  0  0  0
 35 36  2  0  0  0
 35 37  1  0  0  0
 37 38  2  0  0  0
  9 10  1  0  0  0
 10 11  2  0  0  0
 11  1  1  0  0  0
 10  4  1  0  0  0
 18 12  1  0  0  0
 34 30  1  0  0  0
 25 26  1  0  0  0
M  END
> <minimizedAffinity>
-7.23699

> <CNNscore>
0.1787215024

> <CNNaffinity>
6.6384963989

> <CNN_VS>
1.1864420176

> <CNNaffinity_variance>
0.1126614958

$$$$
[H]C([H])=C([H])C(=O)N1C([H])([H])C([H])([H])C([H])(OC([H])([H])C([H])([H])n2c(=O)c(-c3c(Cl)c(OC([H])([H])[H])c([H])c(OC([H])([H])[H])c3Cl)c([H])c3c([H])nc(N([H])C([H])([H])[H])nc32)C1([H])[H]


 38 41  0  0  0  0  0  0  0  0999 V2000
   -0.2424   22.3081  -24.9225 C   0  0  0  0  0  0  0  0  0  0  0  0
    0.7771   21.4792  -24.6749 N   0  0  0  0  0  0  0  0  0  0  0  0
    1.0821   21.1380  -23.3874 C   0  0  0  0  0  0  0  0  0  0  0  0
    0.3442   21.6435  -22.3527 C   0  0  0  0  0  0  0  0  0  0  0  0
    0.5793   21.3497  -21.0093 C   0  0  0  0  0  0  0  0  0  0  0  0
   -0.1942   21.8825  -20.0095 C   0  0  0  0  0  0  0  0  0  0  0  0
   -1.2360   22.7353  -20.3310 C   0  0  0  0  0  0  0  0  0  0  0  0
   -1.9677   23.2434  -19.4120 O   0  0  0  0  0  0  0  0  0  0  0  0
   -1.4604   23.0177  -21.6376 N   0  0  0  0  0  0  0  0  0  0  0  0
   -0.7069   22.4994  -22.6219 C   0  0  0  0  0  0  0  0  0  0  0  0
   -0.9657   22.8060  -23.9311 N   0  0  0  0  0  0  0  0  0  0  0  0
    0.0272   21.6026  -18.5971 C   0  0  0  0  0  0  0  0  0  0  0  0
    0.9460   22.3381  -17.8776 C   0  0  0  0  0  0  0  0  0  0  0  0
    1.8440   23.5974  -18.7207 Cl  0  0  0  0  0  0  0  0  0  0  0  0
    1.1677   22.1058  -16.5186 C   0  0  0  0  0  0  0  0  0  0  0  0
    0.4597   21.1200  -15.8619 C   0  0  0  0  0  0  0  0  0  0  0  0
   -0.4657   20.3859  -16.6073 C   0  0  0  0  0  0  0  0  0  0  0  0
   -0.6813   20.6185  -17.9485 C   0  0  0  0  0  0  0  0  0  0  0  0
   -1.8700   19.6400  -18.8053 Cl  0  0  0  0  0  0  0  0  0  0  0  0
    2.1008   22.8790  -15.8624 O   0  0  0  0  0  0  0  0  0  0  0  0
    2.3912   22.6137  -14.4864 C   0  0  0  0  0  0  0  0  0  0  0  0
   -1.1896   19.3877  -15.9591 O   0  0  0  0  0  0  0  0  0  0  0  0
   -2.3128   19.7151  -15.1389 C   0  0  0  0  0  0  0  0  0  0  0  0
    0.3380   22.3081  -27.3536 C   0  0  0  0  0  0  0  0  0  0  0  0
   -0.5444   22.6469  -26.2567 N   0  0  0  0  0  0  0  0  0  0  0  0
   -1.4287   23.1633  -26.4955 H   0  0  0  0  0  0  0  0  0  0  0  0
   -2.5692   23.9102  -21.9825 C   0  0  0  0  0  0  0  0  0  0  0  0
   -3.7377   23.0066  -22.2970 C   0  0  0  0  0  0  0  0  0  0  0  0
   -4.7219   23.7400  -22.9381 O   0  0  0  0  0  0  0  0  0  0  0  0
   -5.6006   22.9097  -23.6465 C   0  0  0  0  0  0  0  0  0  0  0  0
   -6.7050   23.6614  -24.3009 C   0  0  0  0  0  0  0  0  0  0  0  0
   -6.5802   23.4152  -25.7698 C   0  0  0  0  0  0  0  0  0  0  0  0
   -5.2165   22.9170  -25.9535 N   0  0  0  0  0  0  0  0  0  0  0  0
   -4.8096   22.2675  -24.7409 C   0  0  0  0  0  0  0  0  0  0  0  0
   -4.4409   23.0544  -27.1219 C   0  0  0  0  0  0  0  0  0  0  0  0
   -3.2705   22.5891  -27.1742 O   0  0  0  0  0  0  0  0  0  0  0  0
   -4.9660   23.7302  -28.2846 C   0  0  0  0  0  0  0  0  0  0  0  0
   -5.2833   23.0888  -29.3904 C   0  0  0  0  0  0  0  0  0  0  0  0
 24 25  1  0  0  0
 25  1  1  0  0  0
  1  2  2  0  0  0
  2  3  1  0  0  0
  3  4  2  0  0  0
  4  5  1  0  0  0
  5  6  2  0  0  0
  6 12  1  0  0  0
 12 13  2  0  0  0
 13 14  1  0  0  0
 13 15  1  0  0  0
 15 20  1  0  0  0
 20 21  1  0  0  0
 15 16  2  0  0  0
 16 17  1  0  0  0
 17 22  1  0  0  0
 22 23  1  0  0  0
 17 18  2  0  0  0
 18 19  1  0  0  0
  6  7  1  0  0  0
  7  8  2  0  0  0
  7  9  1  0  0  0
  9 27  1  0  0  0
 27 28  1  0  0  0
 28 29  1  0  0  0
 29 30  1  0  0  0
 30 31  1  0  0  0
 31 32  1  0  0  0
 32 33  1  0  0  0
 33 34  1  0  0  0
 33 35  1  0  0  0
 35 36  2  0  0  0
 35 37  1  0  0  0
 37 38  2  0  0  0
  9 10  1  0  0  0
 10 11  2  0  0  0
 11  1  1  0  0  0
 10  4  1  0  0  0
 18 12  1  0  0  0
 34 30  1  0  0  0
 25 26  1  0  0  0
M  END
> <minimizedAffinity>
-6.83051

> <CNNscore>
0.1290643513

> <CNNaffinity>
6.6794037819

> <CNN_VS>
0.8620729446

> <CNNaffinity_variance>
0.1754011363

$$$$
[H]C([H])=C([H])C(=O)N1C([H])([H])C([H])([H])C([H])(OC([H])([H])C([H])([H])n2c(=O)c(-c3c(Cl)c(OC([H])([H])[H])c([H])c(OC([H])([H])[H])c3Cl)c([H])c3c([H])nc(N([H])C([H])([H])[H])nc32)C1([H])[H]


 38 41  0  0  0  0  0  0  0  0999 V2000
   -1.2201   22.4455  -25.7789 C   0  0  0  0  0  0  0  0  0  0  0  0
    0.0916   22.1894  -25.7398 N   0  0  0  0  0  0  0  0  0  0  0  0
    0.6753   21.7939  -24.5694 C   0  0  0  0  0  0  0  0  0  0  0  0
   -0.0823   21.6593  -23.4386 C   0  0  0  0  0  0  0  0  0  0  0  0
    0.4247   21.2590  -22.2020 C   0  0  0  0  0  0  0  0  0  0  0  0
   -0.3809   21.1372  -21.0985 C   0  0  0  0  0  0  0  0  0  0  0  0
   -1.7324   21.4174  -21.2037 C   0  0  0  0  0  0  0  0  0  0  0  0
   -2.4997   21.3109  -20.1849 O   0  0  0  0  0  0  0  0  0  0  0  0
   -2.2203   21.8060  -22.4072 N   0  0  0  0  0  0  0  0  0  0  0  0
   -1.4369   21.9272  -23.4920 C   0  0  0  0  0  0  0  0  0  0  0  0
   -1.9666   22.3201  -24.6921 N   0  0  0  0  0  0  0  0  0  0  0  0
    0.1159   20.7284  -19.7915 C   0  0  0  0  0  0  0  0  0  0  0  0
    0.3514   21.6696  -18.8110 C   0  0  0  0  0  0  0  0  0  0  0  0
    0.0529   23.3623  -19.1968 Cl  0  0  0  0  0  0  0  0  0  0  0  0
    0.8105   21.3075  -17.5430 C   0  0  0  0  0  0  0  0  0  0  0  0
    1.0402   19.9799  -17.2447 C   0  0  0  0  0  0  0  0  0  0  0  0
    0.7963   19.0418  -18.2504 C   0  0  0  0  0  0  0  0  0  0  0  0
    0.3433   19.4037  -19.5007 C   0  0  0  0  0  0  0  0  0  0  0  0
    0.0646   18.1482  -20.7052 Cl  0  0  0  0  0  0  0  0  0  0  0  0
    1.0240   22.3007  -16.6118 O   0  0  0  0  0  0  0  0  0  0  0  0
    2.2919   22.3865  -15.9536 C   0  0  0  0  0  0  0  0  0  0  0  0
    1.0221   17.6971  -17.9652 O   0  0  0  0  0  0  0  0  0  0  0  0
    0.5691   17.1244  -16.7371 C   0  0  0  0  0  0  0  0  0  0  0  0
   -3.1972   23.2399  -27.0854 C   0  0  0  0  0  0  0  0  0  0  0  0
   -1.8057   22.8496  -26.9953 N   0  0  0  0  0  0  0  0  0  0  0  0
   -1.2423   22.8773  -27.8828 H   0  0  0  0  0  0  0  0  0  0  0  0
   -3.6518   22.0918  -22.5252 C   0  0  0  0  0  0  0  0  0  0  0  0
   -3.7739   23.5959  -22.4643 C   0  0  0  0  0  0  0  0  0  0  0  0
   -4.4382   23.9531  -21.3029 O   0  0  0  0  0  0  0  0  0  0  0  0
   -5.5353   24.7816  -21.5738 C   0  0  0  0  0  0  0  0  0  0  0  0
   -6.4593   24.2044  -22.5867 C   0  0  0  0  0  0  0  0  0  0  0  0
   -7.7842   24.0401  -21.9147 C   0  0  0  0  0  0  0  0  0  0  0  0
   -7.4908   24.1068  -20.4825 N   0  0  0  0  0  0  0  0  0  0  0  0
   -6.3136   24.9068  -20.3031 C   0  0  0  0  0  0  0  0  0  0  0  0
   -8.2386   23.4898  -19.4600 C   0  0  0  0  0  0  0  0  0  0  0  0
   -7.8956   23.6082  -18.2528 O   0  0  0  0  0  0  0  0  0  0  0  0
   -9.4124   22.7081  -19.7690 C   0  0  0  0  0  0  0  0  0  0  0  0
   -9.7514   21.6402  -19.0766 C   0  0  0  0  0  0  0  0  0  0  0  0
 24 25  1  0  0  0
 25  1  1  0  0  0
  1  2  2  0  0  0
  2  3  1  0  0  0
  3  4  2  0  0  0
  4  5  1  0  0  0
  5  6  2  0  0  0
  6 12  1  0  0  0
 12 13  2  0  0  0
 13 14  1  0  0  0
 13 15  1  0  0  0
 15 20  1  0  0  0
 20 21  1  0  0  0
 15 16  2  0  0  0
 16 17  1  0  0  0
 17 22  1  0  0  0
 22 23  1  0  0  0
 17 18  2  0  0  0
 18 19  1  0  0  0
  6  7  1  0  0  0
  7  8  2  0  0  0
  7  9  1  0  0  0
  9 27  1  0  0  0
 27 28  1  0  0  0
 28 29  1  0  0  0
 29 30  1  0  0  0
 30 31  1  0  0  0
 31 32  1  0  0  0
 32 33  1  0  0  0
 33 34  1  0  0  0
 33 35  1  0  0  0
 35 36  2  0  0  0
 35 37  1  0  0  0
 37 38  2  0  0  0
  9 10  1  0  0  0
 10 11  2  0  0  0
 11  1  1  0  0  0
 10  4  1  0  0  0
 18 12  1  0  0  0
 34 30  1  0  0  0
 25 26  1  0  0  0
M  END
> <minimizedAffinity>
-6.51667

> <CNNscore>
0.1094760522

> <CNNaffinity>
6.5249567032

> <CNN_VS>
0.7143265009

> <CNNaffinity_variance>
0.0850806236

$$$$
[H]/C(C(=O)N1C([H])([H])C([H])([H])C([H])(N2C(=O)N(c3c(Cl)c(OC([H])([H])[H])c([H])c(OC([H])([H])[H])c3Cl)C([H])([H])c3c([H])nc(N([H])C([H])([H])[H])nc32)C([H])([H])C1([H])[H])=C(/[H])C([H])([H])N(C([H])([H])[H])C([H])([H])[H]


 40 43  0  0  0  0  0  0  0  0999 V2000
   -4.5291   24.1406  -22.2302 C   0  0  0  0  0  0  0  0  0  0  0  0
   -3.5093   24.2919  -23.0817 N   0  0  0  0  0  0  0  0  0  0  0  0
   -2.2524   23.8845  -22.8633 C   0  0  0  0  0  0  0  0  0  0  0  0
   -1.9868   23.2446  -21.6344 C   0  0  0  0  0  0  0  0  0  0  0  0
   -0.6162   22.8180  -21.3345 C   0  0  0  0  0  0  0  0  0  0  0  0
   -0.5295   22.0620  -20.1266 N   0  0  0  0  0  0  0  0  0  0  0  0
   -1.6104   21.9171  -19.2340 C   0  0  0  0  0  0  0  0  0  0  0  0
   -1.4337   21.3148  -18.1295 O   0  0  0  0  0  0  0  0  0  0  0  0
   -2.8831   22.4141  -19.5138 N   0  0  0  0  0  0  0  0  0  0  0  0
   -3.0511   23.0959  -20.7690 C   0  0  0  0  0  0  0  0  0  0  0  0
   -4.2964   23.5310  -21.0513 N   0  0  0  0  0  0  0  0  0  0  0  0
   -3.9963   22.2848  -18.6390 C   0  0  0  0  0  0  0  0  0  0  0  0
   -4.3344   20.9197  -18.1639 C   0  0  0  0  0  0  0  0  0  0  0  0
   -5.5889   20.9819  -17.3291 C   0  0  0  0  0  0  0  0  0  0  0  0
   -5.8677   22.1824  -16.6347 N   0  0  0  0  0  0  0  0  0  0  0  0
   -5.0072   23.3706  -16.6922 C   0  0  0  0  0  0  0  0  0  0  0  0
   -3.7206   23.0936  -17.3624 C   0  0  0  0  0  0  0  0  0  0  0  0
   -7.0119   22.3441  -15.8265 C   0  0  0  0  0  0  0  0  0  0  0  0
   -7.0969   23.5141  -15.2502 O   0  0  0  0  0  0  0  0  0  0  0  0
   -8.1003   21.4851  -15.5094 C   0  0  0  0  0  0  0  0  0  0  0  0
   -8.4083   20.8201  -14.4280 C   0  0  0  0  0  0  0  0  0  0  0  0
   -9.6386   19.9595  -14.3180 C   0  0  0  0  0  0  0  0  0  0  0  0
   -9.4640   18.7709  -13.5482 N   0  0  0  0  0  0  0  0  0  0  0  0
  -10.2008   19.0266  -12.2811 C   0  0  0  0  0  0  0  0  0  0  0  0
  -10.2354   17.6490  -14.1348 C   0  0  0  0  0  0  0  0  0  0  0  0
    0.7305   21.4135  -19.8105 C   0  0  0  0  0  0  0  0  0  0  0  0
    0.9343   20.1484  -20.2801 C   0  0  0  0  0  0  0  0  0  0  0  0
   -0.2452   19.2821  -21.2334 Cl  0  0  0  0  0  0  0  0  0  0  0  0
    2.1459   19.5119  -19.9866 C   0  0  0  0  0  0  0  0  0  0  0  0
    3.1090   20.1826  -19.2264 C   0  0  0  0  0  0  0  0  0  0  0  0
    2.8933   21.4529  -18.7603 C   0  0  0  0  0  0  0  0  0  0  0  0
    1.6773   22.0574  -19.0700 C   0  0  0  0  0  0  0  0  0  0  0  0
    1.4259   23.6749  -18.4741 Cl  0  0  0  0  0  0  0  0  0  0  0  0
    2.3219   18.2358  -20.4741 O   0  0  0  0  0  0  0  0  0  0  0  0
    3.2742   17.9120  -21.4519 C   0  0  0  0  0  0  0  0  0  0  0  0
    3.8427   22.1185  -18.0080 O   0  0  0  0  0  0  0  0  0  0  0  0
    5.0030   22.5983  -18.6582 C   0  0  0  0  0  0  0  0  0  0  0  0
   -6.9269   23.7315  -22.8730 C   0  0  0  0  0  0  0  0  0  0  0  0
   -5.8213   24.6246  -22.5896 N   0  0  0  0  0  0  0  0  0  0  0  0
   -6.0055   25.6469  -22.6580 H   0  0  0  0  0  0  0  0  0  0  0  0
 38 39  1  0  0  0
 39  1  1  0  0  0
  1  2  2  0  0  0
  2  3  1  0  0  0
  3  4  2  0  0  0
  4  5  1  0  0  0
  5  6  1  0  0  0
  6  7  1  0  0  0
  7  8  2  0  0  0
  7  9  1  0  0  0
  9 12  1  0  0  0
 12 13  1  0  0  0
 13 14  1  0  0  0
 14 15  1  0  0  0
 15 16  1  0  0  0
 16 17  1  0  0  0
 15 18  1  0  0  0
 18 19  2  0  0  0
 18 20  1  0  0  0
 20 21  2  0  0  0
 21 22  1  0  0  0
 22 23  1  0  0  0
 23 24  1  0  0  0
 23 25  1  0  0  0
  9 10  1  0  0  0
 10 11  2  0  0  0
  6 26  1  0  0  0
 26 27  2  0  0  0
 27 28  1  0  0  0
 27 29  1  0  0  0
 29 34  1  0  0  0
 34 35  1  0  0  0
 29 30  2  0  0  0
 30 31  1  0  0  0
 31 36  1  0  0  0
 36 37  1  0  0  0
 31 32  2  0  0  0
 32 33  1  0  0  0
 11  1  1  0  0  0
 32 26  1  0  0  0
 10  4  1  0  0  0
 17 12  1  0  0  0
 39 40  1  0  0  0
M  END
> <minimizedAffinity>
-5.12427

> <CNNscore>
0.1771322936

> <CNNaffinity>
6.2116694450

> <CNN_VS>
1.1002871990

> <CNNaffinity_variance>
0.2596731782

$$$$
[H]/C(C(=O)N1C([H])([H])C([H])([H])C([H])(N2C(=O)N(c3c(Cl)c(OC([H])([H])[H])c([H])c(OC([H])([H])[H])c3Cl)C([H])([H])c3c([H])nc(N([H])C([H])([H])[H])nc32)C([H])([H])C1([H])[H])=C(/[H])C([H])([H])N(C([H])([H])[H])C([H])([H])[H]


 40 43  0  0  0  0  0  0  0  0999 V2000
   -4.6184   17.4518  -18.0684 C   0  0  0  0  0  0  0  0  0  0  0  0
   -3.5463   16.7564  -17.6750 N   0  0  0  0  0  0  0  0  0  0  0  0
   -2.3020   17.2422  -17.5786 C   0  0  0  0  0  0  0  0  0  0  0  0
   -2.1110   18.5974  -17.9208 C   0  0  0  0  0  0  0  0  0  0  0  0
   -0.7585   19.1618  -17.8695 C   0  0  0  0  0  0  0  0  0  0  0  0
   -0.7434   20.5704  -18.1013 N   0  0  0  0  0  0  0  0  0  0  0  0
   -1.8794   21.2899  -18.5234 C   0  0  0  0  0  0  0  0  0  0  0  0
   -1.7694   22.5232  -18.8073 O   0  0  0  0  0  0  0  0  0  0  0  0
   -3.1363   20.6982  -18.6458 N   0  0  0  0  0  0  0  0  0  0  0  0
   -3.2286   19.2997  -18.3230 C   0  0  0  0  0  0  0  0  0  0  0  0
   -4.4573   18.7482  -18.3987 N   0  0  0  0  0  0  0  0  0  0  0  0
   -4.3035   21.3926  -19.0662 C   0  0  0  0  0  0  0  0  0  0  0  0
   -4.6386   22.6532  -18.3575 C   0  0  0  0  0  0  0  0  0  0  0  0
   -5.9488   23.1839  -18.8829 C   0  0  0  0  0  0  0  0  0  0  0  0
   -6.3053   22.8755  -20.2166 N   0  0  0  0  0  0  0  0  0  0  0  0
   -5.4735   22.0596  -21.1100 C   0  0  0  0  0  0  0  0  0  0  0  0
   -4.1371   21.7963  -20.5391 C   0  0  0  0  0  0  0  0  0  0  0  0
   -7.5063   23.3233  -20.8046 C   0  0  0  0  0  0  0  0  0  0  0  0
   -7.6606   22.9549  -22.0492 O   0  0  0  0  0  0  0  0  0  0  0  0
   -8.5916   24.1004  -20.3137 C   0  0  0  0  0  0  0  0  0  0  0  0
   -9.5747   24.7154  -20.9153 C   0  0  0  0  0  0  0  0  0  0  0  0
  -10.6319   25.4902  -20.1750 C   0  0  0  0  0  0  0  0  0  0  0  0
  -11.2751   26.5029  -20.9474 N   0  0  0  0  0  0  0  0  0  0  0  0
  -10.4983   27.7418  -20.6725 C   0  0  0  0  0  0  0  0  0  0  0  0
  -11.0263   26.2953  -22.3941 C   0  0  0  0  0  0  0  0  0  0  0  0
    0.5002   21.2888  -17.8883 C   0  0  0  0  0  0  0  0  0  0  0  0
    0.7601   21.7599  -16.6340 C   0  0  0  0  0  0  0  0  0  0  0  0
   -0.3298   21.5410  -15.2870 Cl  0  0  0  0  0  0  0  0  0  0  0  0
    1.9570   22.4510  -16.4127 C   0  0  0  0  0  0  0  0  0  0  0  0
    2.8490   22.6396  -17.4729 C   0  0  0  0  0  0  0  0  0  0  0  0
    2.5773   22.1619  -18.7281 C   0  0  0  0  0  0  0  0  0  0  0  0
    1.3779   21.4789  -18.9144 C   0  0  0  0  0  0  0  0  0  0  0  0
    1.0550   20.8737  -20.5156 Cl  0  0  0  0  0  0  0  0  0  0  0  0
    2.1907   22.9143  -15.1368 O   0  0  0  0  0  0  0  0  0  0  0  0
    3.4779   23.1121  -14.6156 C   0  0  0  0  0  0  0  0  0  0  0  0
    3.4563   22.3472  -19.7786 O   0  0  0  0  0  0  0  0  0  0  0  0
    4.6428   21.5787  -19.8084 C   0  0  0  0  0  0  0  0  0  0  0  0
   -6.9474   17.1041  -17.1825 C   0  0  0  0  0  0  0  0  0  0  0  0
   -5.8895   16.8082  -18.1277 N   0  0  0  0  0  0  0  0  0  0  0  0
   -6.0921   16.0994  -18.8627 H   0  0  0  0  0  0  0  0  0  0  0  0
 38 39  1  0  0  0
 39  1  1  0  0  0
  1  2  2  0  0  0
  2  3  1  0  0  0
  3  4  2  0  0  0
  4  5  1  0  0  0
  5  6  1  0  0  0
  6  7  1  0  0  0
  7  8  2  0  0  0
  7  9  1  0  0  0
  9 12  1  0  0  0
 12 13  1  0  0  0
 13 14  1  0  0  0
 14 15  1  0  0  0
 15 16  1  0  0  0
 16 17  1  0  0  0
 15 18  1  0  0  0
 18 19  2  0  0  0
 18 20  1  0  0  0
 20 21  2  0  0  0
 21 22  1  0  0  0
 22 23  1  0  0  0
 23 24  1  0  0  0
 23 25  1  0  0  0
  9 10  1  0  0  0
 10 11  2  0  0  0
  6 26  1  0  0  0
 26 27  2  0  0  0
 27 28  1  0  0  0
 27 29  1  0  0  0
 29 34  1  0  0  0
 34 35  1  0  0  0
 29 30  2  0  0  0
 30 31  1  0  0  0
 31 36  1  0  0  0
 36 37  1  0  0  0
 31 32  2  0  0  0
 32 33  1  0  0  0
 11  1  1  0  0  0
 32 26  1  0  0  0
 10  4  1  0  0  0
 17 12  1  0  0  0
 39 40  1  0  0  0
M  END
> <minimizedAffinity>
-5.20554

> <CNNscore>
0.1602118313

> <CNNaffinity>
6.1214141846

> <CNN_VS>
0.9807229638

> <CNNaffinity_variance>
0.2672261596

$$$$
[H]/C(C(=O)N1C([H])([H])C([H])([H])C([H])(N2C(=O)N(c3c(Cl)c(OC([H])([H])[H])c([H])c(OC([H])([H])[H])c3Cl)C([H])([H])c3c([H])nc(N([H])C([H])([H])[H])nc32)C([H])([H])C1([H])[H])=C(/[H])C([H])([H])N(C([H])([H])[H])C([H])([H])[H]


 40 43  0  0  0  0  0  0  0  0999 V2000
   -4.8960   17.4713  -18.3709 C   0  0  0  0  0  0  0  0  0  0  0  0
   -3.8482   16.7465  -17.9654 N   0  0  0  0  0  0  0  0  0  0  0  0
   -2.6255   17.2299  -17.7107 C   0  0  0  0  0  0  0  0  0  0  0  0
   -2.4314   18.6163  -17.8857 C   0  0  0  0  0  0  0  0  0  0  0  0
   -1.0985   19.1837  -17.6579 C   0  0  0  0  0  0  0  0  0  0  0  0
   -1.0898   20.6094  -17.7328 N   0  0  0  0  0  0  0  0  0  0  0  0
   -2.1993   21.3606  -18.1696 C   0  0  0  0  0  0  0  0  0  0  0  0
   -2.0885   22.6186  -18.3071 O   0  0  0  0  0  0  0  0  0  0  0  0
   -3.4305   20.7747  -18.4627 N   0  0  0  0  0  0  0  0  0  0  0  0
   -3.5239   19.3484  -18.3031 C   0  0  0  0  0  0  0  0  0  0  0  0
   -4.7316   18.7975  -18.5431 N   0  0  0  0  0  0  0  0  0  0  0  0
   -4.5708   21.5006  -18.9032 C   0  0  0  0  0  0  0  0  0  0  0  0
   -4.9092   22.7471  -18.1717 C   0  0  0  0  0  0  0  0  0  0  0  0
   -6.1916   23.3149  -18.7265 C   0  0  0  0  0  0  0  0  0  0  0  0
   -6.5068   23.0490  -20.0796 N   0  0  0  0  0  0  0  0  0  0  0  0
   -5.6583   22.2432  -20.9664 C   0  0  0  0  0  0  0  0  0  0  0  0
   -4.3470   21.9411  -20.3578 C   0  0  0  0  0  0  0  0  0  0  0  0
   -7.6792   23.5336  -20.6955 C   0  0  0  0  0  0  0  0  0  0  0  0
   -7.7966   23.2018  -21.9544 O   0  0  0  0  0  0  0  0  0  0  0  0
   -8.7678   24.3160  -20.2205 C   0  0  0  0  0  0  0  0  0  0  0  0
   -9.9058   24.6586  -20.7627 C   0  0  0  0  0  0  0  0  0  0  0  0
  -10.9276   25.5082  -20.0552 C   0  0  0  0  0  0  0  0  0  0  0  0
  -11.5777   26.4690  -20.8860 N   0  0  0  0  0  0  0  0  0  0  0  0
  -10.7936   27.7206  -20.7054 C   0  0  0  0  0  0  0  0  0  0  0  0
  -11.3485   26.1632  -22.3184 C   0  0  0  0  0  0  0  0  0  0  0  0
    0.1182   21.3111  -17.3374 C   0  0  0  0  0  0  0  0  0  0  0  0
    1.0132   21.6435  -18.3126 C   0  0  0  0  0  0  0  0  0  0  0  0
    0.7724   21.2621  -19.9999 Cl  0  0  0  0  0  0  0  0  0  0  0  0
    2.1805   22.3237  -17.9469 C   0  0  0  0  0  0  0  0  0  0  0  0
    2.3985   22.6433  -16.6031 C   0  0  0  0  0  0  0  0  0  0  0  0
    1.4926   22.3045  -15.6326 C   0  0  0  0  0  0  0  0  0  0  0  0
    0.3417   21.6281  -16.0301 C   0  0  0  0  0  0  0  0  0  0  0  0
   -0.8003   21.2129  -14.7820 Cl  0  0  0  0  0  0  0  0  0  0  0  0
    3.0643   22.6452  -18.9532 O   0  0  0  0  0  0  0  0  0  0  0  0
    4.4383   22.3709  -18.8851 C   0  0  0  0  0  0  0  0  0  0  0  0
    1.7051   22.6180  -14.3033 O   0  0  0  0  0  0  0  0  0  0  0  0
    2.6009   23.6670  -13.9930 C   0  0  0  0  0  0  0  0  0  0  0  0
   -7.4114   17.5050  -18.4135 C   0  0  0  0  0  0  0  0  0  0  0  0
   -6.1456   16.8267  -18.6083 N   0  0  0  0  0  0  0  0  0  0  0  0
   -6.1801   15.8381  -18.9327 H   0  0  0  0  0  0  0  0  0  0  0  0
 38 39  1  0  0  0
 39  1  1  0  0  0
  1  2  2  0  0  0
  2  3  1  0  0  0
  3  4  2  0  0  0
  4  5  1  0  0  0
  5  6  1  0  0  0
  6  7  1  0  0  0
  7  8  2  0  0  0
  7  9  1  0  0  0
  9 12  1  0  0  0
 12 13  1  0  0  0
 13 14  1  0  0  0
 14 15  1  0  0  0
 15 16  1  0  0  0
 16 17  1  0  0  0
 15 18  1  0  0  0
 18 19  2  0  0  0
 18 20  1  0  0  0
 20 21  2  0  0  0
 21 22  1  0  0  0
 22 23  1  0  0  0
 23 24  1  0  0  0
 23 25  1  0  0  0
  9 10  1  0  0  0
 10 11  2  0  0  0
  6 26  1  0  0  0
 26 27  2  0  0  0
 27 28  1  0  0  0
 27 29  1  0  0  0
 29 34  1  0  0  0
 34 35  1  0  0  0
 29 30  2  0  0  0
 30 31  1  0  0  0
 31 36  1  0  0  0
 36 37  1  0  0  0
 31 32  2  0  0  0
 32 33  1  0  0  0
 11  1  1  0  0  0
 32 26  1  0  0  0
 10  4  1  0  0  0
 17 12  1  0  0  0
 39 40  1  0  0  0
M  END
> <minimizedAffinity>
-5.30599

> <CNNscore>
0.1500945091

> <CNNaffinity>
6.0279784203

> <CNN_VS>
0.9047664404

> <CNNaffinity_variance>
0.3281975091

$$$$
[H]/C(C(=O)N1C([H])([H])C([H])([H])C([H])(N2C(=O)N(c3c(Cl)c(OC([H])([H])[H])c([H])c(OC([H])([H])[H])c3Cl)C([H])([H])c3c([H])nc(N([H])C([H])([H])[H])nc32)C([H])([H])C1([H])[H])=C(/[H])C([H])([H])N(C([H])([H])[H])C([H])([H])[H]


 40 43  0  0  0  0  0  0  0  0999 V2000
   -9.1384   25.7631  -21.0376 C   0  0  0  0  0  0  0  0  0  0  0  0
   -8.7493   26.5483  -22.0475 N   0  0  0  0  0  0  0  0  0  0  0  0
   -7.6638   26.3511  -22.8066 C   0  0  0  0  0  0  0  0  0  0  0  0
   -6.8690   25.2229  -22.5137 C   0  0  0  0  0  0  0  0  0  0  0  0
   -5.6485   24.9893  -23.2922 C   0  0  0  0  0  0  0  0  0  0  0  0
   -5.0301   23.7409  -22.9805 N   0  0  0  0  0  0  0  0  0  0  0  0
   -5.4455   22.9267  -21.9077 C   0  0  0  0  0  0  0  0  0  0  0  0
   -4.7864   21.8779  -21.6261 O   0  0  0  0  0  0  0  0  0  0  0  0
   -6.5638   23.2271  -21.1304 N   0  0  0  0  0  0  0  0  0  0  0  0
   -7.2865   24.4235  -21.4694 C   0  0  0  0  0  0  0  0  0  0  0  0
   -8.3934   24.6799  -20.7424 N   0  0  0  0  0  0  0  0  0  0  0  0
   -7.0131   22.4287  -20.0432 C   0  0  0  0  0  0  0  0  0  0  0  0
   -7.5306   21.0742  -20.3609 C   0  0  0  0  0  0  0  0  0  0  0  0
   -8.0387   20.4284  -19.0962 C   0  0  0  0  0  0  0  0  0  0  0  0
   -7.4480   20.8117  -17.8693 N   0  0  0  0  0  0  0  0  0  0  0  0
   -6.3764   21.8096  -17.7623 C   0  0  0  0  0  0  0  0  0  0  0  0
   -5.8373   22.1905  -19.0835 C   0  0  0  0  0  0  0  0  0  0  0  0
   -7.8482   20.2680  -16.6312 C   0  0  0  0  0  0  0  0  0  0  0  0
   -7.1811   20.7284  -15.6058 O   0  0  0  0  0  0  0  0  0  0  0  0
   -8.8384   19.3130  -16.2700 C   0  0  0  0  0  0  0  0  0  0  0  0
   -8.8626   18.0082  -16.3272 C   0  0  0  0  0  0  0  0  0  0  0  0
  -10.0431   17.1900  -15.8760 C   0  0  0  0  0  0  0  0  0  0  0  0
  -10.0049   16.8005  -14.5040 N   0  0  0  0  0  0  0  0  0  0  0  0
  -11.3454   17.1617  -13.9686 C   0  0  0  0  0  0  0  0  0  0  0  0
  -10.0085   15.3232  -14.3787 C   0  0  0  0  0  0  0  0  0  0  0  0
   -3.9261   23.2942  -23.8110 C   0  0  0  0  0  0  0  0  0  0  0  0
   -4.1986   22.9385  -25.1001 C   0  0  0  0  0  0  0  0  0  0  0  0
   -5.8033   22.9938  -25.7871 Cl  0  0  0  0  0  0  0  0  0  0  0  0
   -3.1436   22.5095  -25.9138 C   0  0  0  0  0  0  0  0  0  0  0  0
   -1.8481   22.4569  -25.3903 C   0  0  0  0  0  0  0  0  0  0  0  0
   -1.5866   22.8166  -24.0942 C   0  0  0  0  0  0  0  0  0  0  0  0
   -2.6585   23.2386  -23.3115 C   0  0  0  0  0  0  0  0  0  0  0  0
   -2.3035   23.6982  -21.6692 Cl  0  0  0  0  0  0  0  0  0  0  0  0
   -3.4501   22.1573  -27.2097 O   0  0  0  0  0  0  0  0  0  0  0  0
   -3.1186   22.9488  -28.3193 C   0  0  0  0  0  0  0  0  0  0  0  0
   -0.3074   22.7651  -23.5732 O   0  0  0  0  0  0  0  0  0  0  0  0
    0.6131   21.8506  -24.1350 C   0  0  0  0  0  0  0  0  0  0  0  0
  -11.2080   27.1584  -20.7212 C   0  0  0  0  0  0  0  0  0  0  0  0
  -10.3186   26.0915  -20.3077 N   0  0  0  0  0  0  0  0  0  0  0  0
  -10.5746   25.5648  -19.4471 H   0  0  0  0  0  0  0  0  0  0  0  0
 38 39  1  0  0  0
 39  1  1  0  0  0
  1  2  2  0  0  0
  2  3  1  0  0  0
  3  4  2  0  0  0
  4  5  1  0  0  0
  5  6  1  0  0  0
  6  7  1  0  0  0
  7  8  2  0  0  0
  7  9  1  0  0  0
  9 12  1  0  0  0
 12 13  1  0  0  0
 13 14  1  0  0  0
 14 15  1  0  0  0
 15 16  1  0  0  0
 16 17  1  0  0  0
 15 18  1  0  0  0
 18 19  2  0  0  0
 18 20  1  0  0  0
 20 21  2  0  0  0
 21 22  1  0  0  0
 22 23  1  0  0  0
 23 24  1  0  0  0
 23 25  1  0  0  0
  9 10  1  0  0  0
 10 11  2  0  0  0
  6 26  1  0  0  0
 26 27  2  0  0  0
 27 28  1  0  0  0
 27 29  1  0  0  0
 29 34  1  0  0  0
 34 35  1  0  0  0
 29 30  2  0  0  0
 30 31  1  0  0  0
 31 36  1  0  0  0
 36 37  1  0  0  0
 31 32  2  0  0  0
 32 33  1  0  0  0
 11  1  1  0  0  0
 32 26  1  0  0  0
 10  4  1  0  0  0
 17 12  1  0  0  0
 39 40  1  0  0  0
M  END
> <minimizedAffinity>
-6.17309

> <CNNscore>
0.1461043507

> <CNNaffinity>
6.5496397018

> <CNN_VS>
0.9569308758

> <CNNaffinity_variance>
0.3608011305

$$$$
[H]/C(C(=O)N1C([H])([H])C([H])([H])C([H])(N2C(=O)N(c3c(Cl)c(OC([H])([H])[H])c([H])c(OC([H])([H])[H])c3Cl)C([H])([H])c3c([H])nc(N([H])C([H])([H])[H])nc32)C([H])([H])C1([H])[H])=C(/[H])C([H])([H])N(C([H])([H])[H])C([H])([H])[H]


 40 43  0  0  0  0  0  0  0  0999 V2000
   -9.0403   25.7674  -21.0391 C   0  0  0  0  0  0  0  0  0  0  0  0
   -8.6598   26.5510  -22.0534 N   0  0  0  0  0  0  0  0  0  0  0  0
   -7.5861   26.3472  -22.8275 C   0  0  0  0  0  0  0  0  0  0  0  0
   -6.7952   25.2133  -22.5467 C   0  0  0  0  0  0  0  0  0  0  0  0
   -5.5871   24.9722  -23.3422 C   0  0  0  0  0  0  0  0  0  0  0  0
   -4.9730   23.7192  -23.0402 N   0  0  0  0  0  0  0  0  0  0  0  0
   -5.3793   22.9067  -21.9627 C   0  0  0  0  0  0  0  0  0  0  0  0
   -4.7236   21.8531  -21.6912 O   0  0  0  0  0  0  0  0  0  0  0  0
   -6.4848   23.2139  -21.1698 N   0  0  0  0  0  0  0  0  0  0  0  0
   -7.2038   24.4155  -21.4976 C   0  0  0  0  0  0  0  0  0  0  0  0
   -8.2988   24.6788  -20.7553 N   0  0  0  0  0  0  0  0  0  0  0  0
   -6.9246   22.4174  -20.0773 C   0  0  0  0  0  0  0  0  0  0  0  0
   -7.5280   21.0988  -20.3951 C   0  0  0  0  0  0  0  0  0  0  0  0
   -8.0100   20.4541  -19.1197 C   0  0  0  0  0  0  0  0  0  0  0  0
   -7.3428   20.7798  -17.9156 N   0  0  0  0  0  0  0  0  0  0  0  0
   -6.2156   21.7176  -17.8416 C   0  0  0  0  0  0  0  0  0  0  0  0
   -5.7195   22.0976  -19.1798 C   0  0  0  0  0  0  0  0  0  0  0  0
   -7.7130   20.2318  -16.6701 C   0  0  0  0  0  0  0  0  0  0  0  0
   -6.9750   20.6348  -15.6695 O   0  0  0  0  0  0  0  0  0  0  0  0
   -8.7347   19.3227  -16.2796 C   0  0  0  0  0  0  0  0  0  0  0  0
   -9.8101   19.4692  -15.5526 C   0  0  0  0  0  0  0  0  0  0  0  0
  -10.7677   18.3425  -15.2698 C   0  0  0  0  0  0  0  0  0  0  0  0
  -10.1734   17.1985  -14.6583 N   0  0  0  0  0  0  0  0  0  0  0  0
  -10.8692   17.0618  -13.3502 C   0  0  0  0  0  0  0  0  0  0  0  0
  -10.5833   15.9579  -15.3589 C   0  0  0  0  0  0  0  0  0  0  0  0
   -3.8837   23.2659  -23.8862 C   0  0  0  0  0  0  0  0  0  0  0  0
   -2.6302   23.2249  -23.3480 C   0  0  0  0  0  0  0  0  0  0  0  0
   -2.2821   23.6930  -21.7018 Cl  0  0  0  0  0  0  0  0  0  0  0  0
   -1.5706   22.7863  -24.1505 C   0  0  0  0  0  0  0  0  0  0  0  0
   -1.8208   22.4039  -25.4721 C   0  0  0  0  0  0  0  0  0  0  0  0
   -3.0837   22.4492  -26.0017 C   0  0  0  0  0  0  0  0  0  0  0  0
   -4.1154   22.8905  -25.1765 C   0  0  0  0  0  0  0  0  0  0  0  0
   -5.7141   22.9337  -25.8667 Cl  0  0  0  0  0  0  0  0  0  0  0  0
   -0.3177   22.7563  -23.5792 O   0  0  0  0  0  0  0  0  0  0  0  0
    0.6483   21.7902  -23.8975 C   0  0  0  0  0  0  0  0  0  0  0  0
   -3.3345   22.0728  -27.3077 O   0  0  0  0  0  0  0  0  0  0  0  0
   -2.8869   22.9166  -28.3503 C   0  0  0  0  0  0  0  0  0  0  0  0
  -11.0902   27.1832  -20.6871 C   0  0  0  0  0  0  0  0  0  0  0  0
  -10.2081   26.1030  -20.2927 N   0  0  0  0  0  0  0  0  0  0  0  0
  -10.4600   25.5723  -19.4333 H   0  0  0  0  0  0  0  0  0  0  0  0
 38 39  1  0  0  0
 39  1  1  0  0  0
  1  2  2  0  0  0
  2  3  1  0  0  0
  3  4  2  0  0  0
  4  5  1  0  0  0
  5  6  1  0  0  0
  6  7  1  0  0  0
  7  8  2  0  0  0
  7  9  1  0  0  0
  9 12  1  0  0  0
 12 13  1  0  0  0
 13 14  1  0  0  0
 14 15  1  0  0  0
 15 16  1  0  0  0
 16 17  1  0  0  0
 15 18  1  0  0  0
 18 19  2  0  0  0
 18 20  1  0  0  0
 20 21  2  0  0  0
 21 22  1  0  0  0
 22 23  1  0  0  0
 23 24  1  0  0  0
 23 25  1  0  0  0
  9 10  1  0  0  0
 10 11  2  0  0  0
  6 26  1  0  0  0
 26 27  2  0  0  0
 27 28  1  0  0  0
 27 29  1  0  0  0
 29 34  1  0  0  0
 34 35  1  0  0  0
 29 30  2  0  0  0
 30 31  1  0  0  0
 31 36  1  0  0  0
 36 37  1  0  0  0
 31 32  2  0  0  0
 32 33  1  0  0  0
 11  1  1  0  0  0
 32 26  1  0  0  0
 10  4  1  0  0  0
 17 12  1  0  0  0
 39 40  1  0  0  0
M  END
> <minimizedAffinity>
-6.16249

> <CNNscore>
0.1444395632

> <CNNaffinity>
6.5520248413

> <CNN_VS>
0.9463716149

> <CNNaffinity_variance>
0.3737970293

$$$$
[H]/C(C(=O)N1C([H])([H])C([H])([H])C([H])(N2C(=O)N(c3c(Cl)c(OC([H])([H])[H])c([H])c(OC([H])([H])[H])c3Cl)C([H])([H])c3c([H])nc(N([H])C([H])([H])[H])nc32)C([H])([H])C1([H])[H])=C(/[H])C([H])([H])N(C([H])([H])[H])C([H])([H])[H]


 40 43  0  0  0  0  0  0  0  0999 V2000
   -0.8632   22.3668  -25.5360 C   0  0  0  0  0  0  0  0  0  0  0  0
    0.3905   21.9071  -25.6047 N   0  0  0  0  0  0  0  0  0  0  0  0
    1.1105   21.4659  -24.5653 C   0  0  0  0  0  0  0  0  0  0  0  0
    0.4930   21.4898  -23.2971 C   0  0  0  0  0  0  0  0  0  0  0  0
    1.2573   21.0544  -22.1238 C   0  0  0  0  0  0  0  0  0  0  0  0
    0.4603   20.9978  -20.9407 N   0  0  0  0  0  0  0  0  0  0  0  0
   -0.8577   21.4934  -20.8801 C   0  0  0  0  0  0  0  0  0  0  0  0
   -1.4728   21.5018  -19.7687 O   0  0  0  0  0  0  0  0  0  0  0  0
   -1.5248   21.9829  -22.0028 N   0  0  0  0  0  0  0  0  0  0  0  0
   -0.8011   21.9659  -23.2455 C   0  0  0  0  0  0  0  0  0  0  0  0
   -1.4713   22.3969  -24.3339 N   0  0  0  0  0  0  0  0  0  0  0  0
   -2.8536   22.4881  -21.9796 C   0  0  0  0  0  0  0  0  0  0  0  0
   -3.0690   23.8624  -22.4975 C   0  0  0  0  0  0  0  0  0  0  0  0
   -4.5149   24.2445  -22.3028 C   0  0  0  0  0  0  0  0  0  0  0  0
   -5.4814   23.2116  -22.2966 N   0  0  0  0  0  0  0  0  0  0  0  0
   -5.1502   21.7905  -22.4592 C   0  0  0  0  0  0  0  0  0  0  0  0
   -3.7413   21.5896  -22.8541 C   0  0  0  0  0  0  0  0  0  0  0  0
   -6.8585   23.4612  -22.1238 C   0  0  0  0  0  0  0  0  0  0  0  0
   -7.6040   22.3882  -22.1613 O   0  0  0  0  0  0  0  0  0  0  0  0
   -7.6059   24.6532  -21.9151 C   0  0  0  0  0  0  0  0  0  0  0  0
   -8.8503   24.8619  -21.5770 C   0  0  0  0  0  0  0  0  0  0  0  0
   -9.4334   26.2395  -21.4081 C   0  0  0  0  0  0  0  0  0  0  0  0
  -10.2162   26.4115  -20.2277 N   0  0  0  0  0  0  0  0  0  0  0  0
  -11.3511   27.2778  -20.6466 C   0  0  0  0  0  0  0  0  0  0  0  0
  -10.9057   25.1493  -19.8680 C   0  0  0  0  0  0  0  0  0  0  0  0
    1.0379   20.3993  -19.7507 C   0  0  0  0  0  0  0  0  0  0  0  0
    1.6121   21.2290  -18.8317 C   0  0  0  0  0  0  0  0  0  0  0  0
    1.6844   22.9633  -19.0246 Cl  0  0  0  0  0  0  0  0  0  0  0  0
    2.1696   20.6667  -17.6775 C   0  0  0  0  0  0  0  0  0  0  0  0
    2.1245   19.2809  -17.4963 C   0  0  0  0  0  0  0  0  0  0  0  0
    1.5452   18.4577  -18.4260 C   0  0  0  0  0  0  0  0  0  0  0  0
    1.0000   19.0492  -19.5630 C   0  0  0  0  0  0  0  0  0  0  0  0
    0.2621   17.9860  -20.7289 Cl  0  0  0  0  0  0  0  0  0  0  0  0
    2.7417   21.5295  -16.7690 O   0  0  0  0  0  0  0  0  0  0  0  0
    4.1285   21.6659  -16.6078 C   0  0  0  0  0  0  0  0  0  0  0  0
    1.4995   17.0874  -18.2506 O   0  0  0  0  0  0  0  0  0  0  0  0
    0.5286   16.5522  -17.3731 C   0  0  0  0  0  0  0  0  0  0  0  0
   -2.9353   23.0937  -26.7640 C   0  0  0  0  0  0  0  0  0  0  0  0
   -1.5149   22.8088  -26.7248 N   0  0  0  0  0  0  0  0  0  0  0  0
   -0.9784   22.9400  -27.6072 H   0  0  0  0  0  0  0  0  0  0  0  0
 38 39  1  0  0  0
 39  1  1  0  0  0
  1  2  2  0  0  0
  2  3  1  0  0  0
  3  4  2  0  0  0
  4  5  1  0  0  0
  5  6  1  0  0  0
  6  7  1  0  0  0
  7  8  2  0  0  0
  7  9  1  0  0  0
  9 12  1  0  0  0
 12 13  1  0  0  0
 13 14  1  0  0  0
 14 15  1  0  0  0
 15 16  1  0  0  0
 16 17  1  0  0  0
 15 18  1  0  0  0
 18 19  2  0  0  0
 18 20  1  0  0  0
 20 21  2  0  0  0
 21 22  1  0  0  0
 22 23  1  0  0  0
 23 24  1  0  0  0
 23 25  1  0  0  0
  9 10  1  0  0  0
 10 11  2  0  0  0
  6 26  1  0  0  0
 26 27  2  0  0  0
 27 28  1  0  0  0
 27 29  1  0  0  0
 29 34  1  0  0  0
 34 35  1  0  0  0
 29 30  2  0  0  0
 30 31  1  0  0  0
 31 36  1  0  0  0
 36 37  1  0  0  0
 31 32  2  0  0  0
 32 33  1  0  0  0
 11  1  1  0  0  0
 32 26  1  0  0  0
 10  4  1  0  0  0
 17 12  1  0  0  0
 39 40  1  0  0  0
M  END
> <minimizedAffinity>
-6.78035

> <CNNscore>
0.1407365054

> <CNNaffinity>
6.8317389488

> <CNN_VS>
0.9614750743

> <CNNaffinity_variance>
0.0249800440

$$$$
[H]/C(C(=O)N1C([H])([H])C([H])([H])C([H])(N2C(=O)N(c3c(Cl)c(OC([H])([H])[H])c([H])c(OC([H])([H])[H])c3Cl)C([H])([H])c3c([H])nc(N([H])C([H])([H])[H])nc32)C([H])([H])C1([H])[H])=C(/[H])C([H])([H])N(C([H])([H])[H])C([H])([H])[H]


 40 43  0  0  0  0  0  0  0  0999 V2000
   -4.2642   23.9860  -22.3028 C   0  0  0  0  0  0  0  0  0  0  0  0
   -3.2268   24.0459  -23.1443 N   0  0  0  0  0  0  0  0  0  0  0  0
   -1.9912   23.6011  -22.8816 C   0  0  0  0  0  0  0  0  0  0  0  0
   -1.7703   23.0235  -21.6136 C   0  0  0  0  0  0  0  0  0  0  0  0
   -0.4231   22.5596  -21.2666 C   0  0  0  0  0  0  0  0  0  0  0  0
   -0.3854   21.8723  -20.0158 N   0  0  0  0  0  0  0  0  0  0  0  0
   -1.4843   21.8238  -19.1347 C   0  0  0  0  0  0  0  0  0  0  0  0
   -1.3489   21.2802  -17.9945 O   0  0  0  0  0  0  0  0  0  0  0  0
   -2.7310   22.3551  -19.4641 N   0  0  0  0  0  0  0  0  0  0  0  0
   -2.8523   22.9689  -20.7591 C   0  0  0  0  0  0  0  0  0  0  0  0
   -4.0741   23.4372  -21.0870 N   0  0  0  0  0  0  0  0  0  0  0  0
   -3.8612   22.3224  -18.6022 C   0  0  0  0  0  0  0  0  0  0  0  0
   -4.2870   20.9969  -18.0871 C   0  0  0  0  0  0  0  0  0  0  0  0
   -5.5462   21.1624  -17.2738 C   0  0  0  0  0  0  0  0  0  0  0  0
   -5.7611   22.4003  -16.6238 N   0  0  0  0  0  0  0  0  0  0  0  0
   -4.8299   23.5324  -16.7079 C   0  0  0  0  0  0  0  0  0  0  0  0
   -3.5537   23.1562  -17.3491 C   0  0  0  0  0  0  0  0  0  0  0  0
   -6.9038   22.6575  -15.8386 C   0  0  0  0  0  0  0  0  0  0  0  0
   -6.9256   23.8495  -15.3027 O   0  0  0  0  0  0  0  0  0  0  0  0
   -8.0460   21.8764  -15.5094 C   0  0  0  0  0  0  0  0  0  0  0  0
   -8.1820   20.6294  -15.1448 C   0  0  0  0  0  0  0  0  0  0  0  0
   -9.5178   20.0066  -14.8380 C   0  0  0  0  0  0  0  0  0  0  0  0
   -9.7946   18.8095  -15.5634 N   0  0  0  0  0  0  0  0  0  0  0  0
  -10.7126   19.2304  -16.6560 C   0  0  0  0  0  0  0  0  0  0  0  0
   -8.5978   18.3655  -16.3174 C   0  0  0  0  0  0  0  0  0  0  0  0
    0.8417   21.1926  -19.6416 C   0  0  0  0  0  0  0  0  0  0  0  0
    1.7772   21.8995  -18.9434 C   0  0  0  0  0  0  0  0  0  0  0  0
    1.5658   23.5721  -18.4873 Cl  0  0  0  0  0  0  0  0  0  0  0  0
    2.9637   21.2562  -18.5724 C   0  0  0  0  0  0  0  0  0  0  0  0
    3.1589   19.9167  -18.9231 C   0  0  0  0  0  0  0  0  0  0  0  0
    2.2123   19.2170  -19.6243 C   0  0  0  0  0  0  0  0  0  0  0  0
    1.0434   19.8866  -19.9780 C   0  0  0  0  0  0  0  0  0  0  0  0
   -0.1500   18.9771  -20.8628 Cl  0  0  0  0  0  0  0  0  0  0  0  0
    3.8883   21.9958  -17.8688 O   0  0  0  0  0  0  0  0  0  0  0  0
    5.0267   22.5643  -18.4593 C   0  0  0  0  0  0  0  0  0  0  0  0
    2.4023   17.8931  -19.9733 O   0  0  0  0  0  0  0  0  0  0  0  0
    3.2405   17.5996  -21.0735 C   0  0  0  0  0  0  0  0  0  0  0  0
   -6.6648   23.6374  -22.9702 C   0  0  0  0  0  0  0  0  0  0  0  0
   -5.5298   24.5005  -22.7112 N   0  0  0  0  0  0  0  0  0  0  0  0
   -5.6720   25.5243  -22.8351 H   0  0  0  0  0  0  0  0  0  0  0  0
 38 39  1  0  0  0
 39  1  1  0  0  0
  1  2  2  0  0  0
  2  3  1  0  0  0
  3  4  2  0  0  0
  4  5  1  0  0  0
  5  6  1  0  0  0
  6  7  1  0  0  0
  7  8  2  0  0  0
  7  9  1  0  0  0
  9 12  1  0  0  0
 12 13  1  0  0  0
 13 14  1  0  0  0
 14 15  1  0  0  0
 15 16  1  0  0  0
 16 17  1  0  0  0
 15 18  1  0  0  0
 18 19  2  0  0  0
 18 20  1  0  0  0
 20 21  2  0  0  0
 21 22  1  0  0  0
 22 23  1  0  0  0
 23 24  1  0  0  0
 23 25  1  0  0  0
  9 10  1  0  0  0
 10 11  2  0  0  0
  6 26  1  0  0  0
 26 27  2  0  0  0
 27 28  1  0  0  0
 27 29  1  0  0  0
 29 34  1  0  0  0
 34 35  1  0  0  0
 29 30  2  0  0  0
 30 31  1  0  0  0
 31 36  1  0  0  0
 36 37  1  0  0  0
 31 32  2  0  0  0
 32 33  1  0  0  0
 11  1  1  0  0  0
 32 26  1  0  0  0
 10  4  1  0  0  0
 17 12  1  0  0  0
 39 40  1  0  0  0
M  END
> <minimizedAffinity>
-5.31818

> <CNNscore>
0.1387512982

> <CNNaffinity>
6.1472444534

> <CNN_VS>
0.8529381752

> <CNNaffinity_variance>
0.1998178661

$$$$
[H]/C(C(=O)N1C([H])([H])C([H])([H])C([H])(N2C(=O)N(c3c(Cl)c(OC([H])([H])[H])c([H])c(OC([H])([H])[H])c3Cl)C([H])([H])c3c([H])nc(N([H])C([H])([H])[H])nc32)C([H])([H])C1([H])[H])=C(/[H])C([H])([H])N(C([H])([H])[H])C([H])([H])[H]


 40 43  0  0  0  0  0  0  0  0999 V2000
   -1.3978   17.0261  -18.7764 C   0  0  0  0  0  0  0  0  0  0  0  0
   -0.2613   16.6065  -18.2106 N   0  0  0  0  0  0  0  0  0  0  0  0
    0.6706   17.3996  -17.6665 C   0  0  0  0  0  0  0  0  0  0  0  0
    0.4302   18.7895  -17.6948 C   0  0  0  0  0  0  0  0  0  0  0  0
    1.4418   19.6990  -17.1473 C   0  0  0  0  0  0  0  0  0  0  0  0
    0.9987   21.0558  -17.1147 N   0  0  0  0  0  0  0  0  0  0  0  0
   -0.1980   21.4859  -17.7223 C   0  0  0  0  0  0  0  0  0  0  0  0
   -0.4806   22.7243  -17.7412 O   0  0  0  0  0  0  0  0  0  0  0  0
   -1.0976   20.5988  -18.3131 N   0  0  0  0  0  0  0  0  0  0  0  0
   -0.7480   19.2040  -18.2812 C   0  0  0  0  0  0  0  0  0  0  0  0
   -1.6466   18.3499  -18.8127 N   0  0  0  0  0  0  0  0  0  0  0  0
   -2.3139   20.9961  -18.9327 C   0  0  0  0  0  0  0  0  0  0  0  0
   -3.1575   21.9800  -18.2089 C   0  0  0  0  0  0  0  0  0  0  0  0
   -4.4352   22.1993  -18.9795 C   0  0  0  0  0  0  0  0  0  0  0  0
   -4.4048   22.0232  -20.3828 N   0  0  0  0  0  0  0  0  0  0  0  0
   -3.2005   21.6293  -21.1245 C   0  0  0  0  0  0  0  0  0  0  0  0
   -1.9905   21.6630  -20.2783 C   0  0  0  0  0  0  0  0  0  0  0  0
   -5.5427   22.2049  -21.1957 C   0  0  0  0  0  0  0  0  0  0  0  0
   -5.3237   22.0143  -22.4702 O   0  0  0  0  0  0  0  0  0  0  0  0
   -6.8904   22.5560  -20.9072 C   0  0  0  0  0  0  0  0  0  0  0  0
   -7.7550   23.3096  -21.5326 C   0  0  0  0  0  0  0  0  0  0  0  0
   -9.1560   23.5386  -21.0313 C   0  0  0  0  0  0  0  0  0  0  0  0
   -9.5778   24.9014  -21.0520 N   0  0  0  0  0  0  0  0  0  0  0  0
   -8.5089   25.6416  -20.3287 C   0  0  0  0  0  0  0  0  0  0  0  0
   -9.4717   25.4618  -22.4205 C   0  0  0  0  0  0  0  0  0  0  0  0
    1.8206   22.0310  -16.4208 C   0  0  0  0  0  0  0  0  0  0  0  0
    1.6395   22.1791  -15.0762 C   0  0  0  0  0  0  0  0  0  0  0  0
    0.4705   21.2574  -14.1628 Cl  0  0  0  0  0  0  0  0  0  0  0  0
    2.4274   23.1127  -14.3930 C   0  0  0  0  0  0  0  0  0  0  0  0
    3.3725   23.8635  -15.0991 C   0  0  0  0  0  0  0  0  0  0  0  0
    3.5454   23.7060  -16.4492 C   0  0  0  0  0  0  0  0  0  0  0  0
    2.7454   22.7689  -17.0986 C   0  0  0  0  0  0  0  0  0  0  0  0
    2.9860   22.5791  -18.8133 Cl  0  0  0  0  0  0  0  0  0  0  0  0
    2.2214   23.2395  -13.0371 O   0  0  0  0  0  0  0  0  0  0  0  0
    2.2252   24.4745  -12.3720 C   0  0  0  0  0  0  0  0  0  0  0  0
    4.4780   24.4470  -17.1504 O   0  0  0  0  0  0  0  0  0  0  0  0
    5.8446   24.1089  -17.0189 C   0  0  0  0  0  0  0  0  0  0  0  0
   -2.0006   14.6542  -19.3600 C   0  0  0  0  0  0  0  0  0  0  0  0
   -2.3052   16.0705  -19.3212 N   0  0  0  0  0  0  0  0  0  0  0  0
   -3.2228   16.3711  -19.7101 H   0  0  0  0  0  0  0  0  0  0  0  0
 38 39  1  0  0  0
 39  1  1  0  0  0
  1  2  2  0  0  0
  2  3  1  0  0  0
  3  4  2  0  0  0
  4  5  1  0  0  0
  5  6  1  0  0  0
  6  7  1  0  0  0
  7  8  2  0  0  0
  7  9  1  0  0  0
  9 12  1  0  0  0
 12 13  1  0  0  0
 13 14  1  0  0  0
 14 15  1  0  0  0
 15 16  1  0  0  0
 16 17  1  0  0  0
 15 18  1  0  0  0
 18 19  2  0  0  0
 18 20  1  0  0  0
 20 21  2  0  0  0
 21 22  1  0  0  0
 22 23  1  0  0  0
 23 24  1  0  0  0
 23 25  1  0  0  0
  9 10  1  0  0  0
 10 11  2  0  0  0
  6 26  1  0  0  0
 26 27  2  0  0  0
 27 28  1  0  0  0
 27 29  1  0  0  0
 29 34  1  0  0  0
 34 35  1  0  0  0
 29 30  2  0  0  0
 30 31  1  0  0  0
 31 36  1  0  0  0
 36 37  1  0  0  0
 31 32  2  0  0  0
 32 33  1  0  0  0
 11  1  1  0  0  0
 32 26  1  0  0  0
 10  4  1  0  0  0
 17 12  1  0  0  0
 39 40  1  0  0  0
M  END
> <minimizedAffinity>
-5.33837

> <CNNscore>
0.1301781237

> <CNNaffinity>
5.8968343735

> <CNN_VS>
0.7676388621

> <CNNaffinity_variance>
0.3298880160

$$$$
[H]/C(C(=O)N1C([H])([H])C([H])([H])C([H])(N2C(=O)N(c3c(Cl)c(OC([H])([H])[H])c([H])c(OC([H])([H])[H])c3Cl)C([H])([H])c3c([H])nc(N([H])C([H])([H])[H])nc32)C([H])([H])C1([H])[H])=C(/[H])C([H])([H])N(C([H])([H])[H])C([H])([H])[H]


 40 43  0  0  0  0  0  0  0  0999 V2000
   -0.8447   22.3493  -25.4575 C   0  0  0  0  0  0  0  0  0  0  0  0
    0.4110   21.8925  -25.5068 N   0  0  0  0  0  0  0  0  0  0  0  0
    1.1239   21.4747  -24.4529 C   0  0  0  0  0  0  0  0  0  0  0  0
    0.4959   21.5220  -23.1905 C   0  0  0  0  0  0  0  0  0  0  0  0
    1.2519   21.1128  -22.0025 C   0  0  0  0  0  0  0  0  0  0  0  0
    0.4455   21.0774  -20.8250 N   0  0  0  0  0  0  0  0  0  0  0  0
   -0.8745   21.5698  -20.7851 C   0  0  0  0  0  0  0  0  0  0  0  0
   -1.4987   21.5985  -19.6791 O   0  0  0  0  0  0  0  0  0  0  0  0
   -1.5340   22.0344  -21.9228 N   0  0  0  0  0  0  0  0  0  0  0  0
   -0.8001   21.9948  -23.1590 C   0  0  0  0  0  0  0  0  0  0  0  0
   -1.4626   22.4016  -24.2613 N   0  0  0  0  0  0  0  0  0  0  0  0
   -2.8644   22.5355  -21.9205 C   0  0  0  0  0  0  0  0  0  0  0  0
   -3.0780   23.9036  -22.4556 C   0  0  0  0  0  0  0  0  0  0  0  0
   -4.5272   24.2831  -22.2820 C   0  0  0  0  0  0  0  0  0  0  0  0
   -5.4906   23.2473  -22.2761 N   0  0  0  0  0  0  0  0  0  0  0  0
   -5.1531   21.8256  -22.4196 C   0  0  0  0  0  0  0  0  0  0  0  0
   -3.7390   21.6250  -22.7958 C   0  0  0  0  0  0  0  0  0  0  0  0
   -6.8704   23.4943  -22.1221 C   0  0  0  0  0  0  0  0  0  0  0  0
   -7.6121   22.4186  -22.1570 O   0  0  0  0  0  0  0  0  0  0  0  0
   -7.6238   24.6860  -21.9349 C   0  0  0  0  0  0  0  0  0  0  0  0
   -8.8717   24.8944  -21.6097 C   0  0  0  0  0  0  0  0  0  0  0  0
   -9.4613   26.2719  -21.4633 C   0  0  0  0  0  0  0  0  0  0  0  0
  -10.2613   26.4535  -20.2960 N   0  0  0  0  0  0  0  0  0  0  0  0
  -11.3990   27.3020  -20.7428 C   0  0  0  0  0  0  0  0  0  0  0  0
  -10.9431   25.1899  -19.9265 C   0  0  0  0  0  0  0  0  0  0  0  0
    1.0152   20.5049  -19.6185 C   0  0  0  0  0  0  0  0  0  0  0  0
    0.9756   19.1484  -19.4737 C   0  0  0  0  0  0  0  0  0  0  0  0
    0.2729   18.0812  -20.6643 Cl  0  0  0  0  0  0  0  0  0  0  0  0
    1.5245   18.5819  -18.3175 C   0  0  0  0  0  0  0  0  0  0  0  0
    2.0952   19.4126  -17.3483 C   0  0  0  0  0  0  0  0  0  0  0  0
    2.1293   20.7735  -17.5046 C   0  0  0  0  0  0  0  0  0  0  0  0
    1.5744   21.3049  -18.6663 C   0  0  0  0  0  0  0  0  0  0  0  0
    1.6343   23.0362  -18.8489 Cl  0  0  0  0  0  0  0  0  0  0  0  0
    1.4694   17.2106  -18.2002 O   0  0  0  0  0  0  0  0  0  0  0  0
    0.5865   16.5490  -17.3338 C   0  0  0  0  0  0  0  0  0  0  0  0
    2.6918   21.5977  -16.5483 O   0  0  0  0  0  0  0  0  0  0  0  0
    4.1000   21.7169  -16.5049 C   0  0  0  0  0  0  0  0  0  0  0  0
   -2.9117   23.0294  -26.7205 C   0  0  0  0  0  0  0  0  0  0  0  0
   -1.4880   22.7652  -26.6603 N   0  0  0  0  0  0  0  0  0  0  0  0
   -0.9427   22.8915  -27.5380 H   0  0  0  0  0  0  0  0  0  0  0  0
 38 39  1  0  0  0
 39  1  1  0  0  0
  1  2  2  0  0  0
  2  3  1  0  0  0
  3  4  2  0  0  0
  4  5  1  0  0  0
  5  6  1  0  0  0
  6  7  1  0  0  0
  7  8  2  0  0  0
  7  9  1  0  0  0
  9 12  1  0  0  0
 12 13  1  0  0  0
 13 14  1  0  0  0
 14 15  1  0  0  0
 15 16  1  0  0  0
 16 17  1  0  0  0
 15 18  1  0  0  0
 18 19  2  0  0  0
 18 20  1  0  0  0
 20 21  2  0  0  0
 21 22  1  0  0  0
 22 23  1  0  0  0
 23 24  1  0  0  0
 23 25  1  0  0  0
  9 10  1  0  0  0
 10 11  2  0  0  0
  6 26  1  0  0  0
 26 27  2  0  0  0
 27 28  1  0  0  0
 27 29  1  0  0  0
 29 34  1  0  0  0
 34 35  1  0  0  0
 29 30  2  0  0  0
 30 31  1  0  0  0
 31 36  1  0  0  0
 36 37  1  0  0  0
 31 32  2  0  0  0
 32 33  1  0  0  0
 11  1  1  0  0  0
 32 26  1  0  0  0
 10  4  1  0  0  0
 17 12  1  0  0  0
 39 40  1  0  0  0
M  END
> <minimizedAffinity>
-6.80200

> <CNNscore>
0.1281350255

> <CNNaffinity>
6.8028206825

> <CNN_VS>
0.8716796041

> <CNNaffinity_variance>
0.0130473524

$$$$
[H]c1nc2c([H])c([H])c(N(c3c([H])c(OC([H])([H])[H])c([H])c(OC([H])([H])[H])c3[H])C([H])([H])C([H])([H])N([H])C([H])(C([H])([H])[H])C([H])([H])[H])nc2c([H])c1-c1c([H])nn(C([H])([H])[H])c1[H]


 34 37  0  0  0  0  0  0  0  0999 V2000
   -1.4193   22.0657  -22.1636 N   0  0  0  0  0  0  0  0  0  0  0  0
   -1.2761   22.2186  -23.5572 C   0  0  0  0  0  0  0  0  0  0  0  0
   -0.0556   21.8684  -24.1316 C   0  0  0  0  0  0  0  0  0  0  0  0
    0.1885   21.9732  -25.4777 C   0  0  0  0  0  0  0  0  0  0  0  0
   -0.8600   22.4548  -26.2633 C   0  0  0  0  0  0  0  0  0  0  0  0
   -0.6836   22.5779  -27.5733 N   0  0  0  0  0  0  0  0  0  0  0  0
   -1.6552   23.0350  -28.3817 C   0  0  0  0  0  0  0  0  0  0  0  0
   -2.9030   23.4023  -27.8633 C   0  0  0  0  0  0  0  0  0  0  0  0
   -3.0855   23.2759  -26.5137 C   0  0  0  0  0  0  0  0  0  0  0  0
   -2.0708   22.8018  -25.6946 C   0  0  0  0  0  0  0  0  0  0  0  0
   -2.2753   22.6845  -24.3552 N   0  0  0  0  0  0  0  0  0  0  0  0
   -3.9592   23.8951  -28.7395 C   0  0  0  0  0  0  0  0  0  0  0  0
   -5.2047   23.3149  -28.8924 C   0  0  0  0  0  0  0  0  0  0  0  0
   -5.9027   24.0623  -29.7886 N   0  0  0  0  0  0  0  0  0  0  0  0
   -5.1547   25.0846  -30.2058 N   0  0  0  0  0  0  0  0  0  0  0  0
   -5.6115   26.0730  -31.1697 C   0  0  0  0  0  0  0  0  0  0  0  0
   -3.9733   24.9923  -29.5750 C   0  0  0  0  0  0  0  0  0  0  0  0
    0.4498   19.1847  -20.7396 C   0  0  0  0  0  0  0  0  0  0  0  0
    1.3392   19.8066  -19.8893 C   0  0  0  0  0  0  0  0  0  0  0  0
    1.3430   21.1713  -19.7846 C   0  0  0  0  0  0  0  0  0  0  0  0
    0.4310   21.9017  -20.5543 C   0  0  0  0  0  0  0  0  0  0  0  0
   -0.4735   21.3269  -21.4142 C   0  0  0  0  0  0  0  0  0  0  0  0
   -0.4373   19.9311  -21.4855 C   0  0  0  0  0  0  0  0  0  0  0  0
   -0.2713   16.9960  -19.9231 C   0  0  0  0  0  0  0  0  0  0  0  0
    0.4269   17.7921  -20.8642 O   0  0  0  0  0  0  0  0  0  0  0  0
    2.2305   21.7982  -18.9352 O   0  0  0  0  0  0  0  0  0  0  0  0
    3.5790   21.9971  -19.2973 C   0  0  0  0  0  0  0  0  0  0  0  0
   -2.5185   22.7295  -21.4939 C   0  0  0  0  0  0  0  0  0  0  0  0
   -3.8145   21.9677  -21.6088 C   0  0  0  0  0  0  0  0  0  0  0  0
   -4.7868   22.7459  -22.3720 N   0  0  0  0  0  0  0  0  0  0  0  0
   -5.2465   23.4242  -21.7407 H   0  0  0  0  0  0  0  0  0  0  0  0
   -5.7418   21.7890  -22.8908 C   0  0  0  0  0  0  0  0  0  0  0  0
   -7.0568   21.8474  -22.1663 C   0  0  0  0  0  0  0  0  0  0  0  0
   -5.9366   22.0516  -24.3900 C   0  0  0  0  0  0  0  0  0  0  0  0
 24 25  1  0  0  0
 25 18  1  0  0  0
 18 19  2  0  0  0
 19 20  1  0  0  0
 20 26  1  0  0  0
 26 27  1  0  0  0
 20 21  2  0  0  0
 21 22  1  0  0  0
 22 23  2  0  0  0
 22  1  1  0  0  0
  1 28  1  0  0  0
 28 29  1  0  0  0
 29 30  1  0  0  0
 30 32  1  0  0  0
 32 33  1  0  0  0
 32 34  1  0  0  0
  1  2  1  0  0  0
  2  3  2  0  0  0
  3  4  1  0  0  0
  4  5  2  0  0  0
  5  6  1  0  0  0
  6  7  2  0  0  0
  7  8  1  0  0  0
  8  9  2  0  0  0
  9 10  1  0  0  0
 10 11  2  0  0  0
  8 12  1  0  0  0
 12 13  1  0  0  0
 13 14  2  0  0  0
 14 15  1  0  0  0
 15 16  1  0  0  0
 15 17  1  0  0  0
 23 18  1  0  0  0
 11  2  1  0  0  0
 17 12  2  0  0  0
 10  5  1  0  0  0
 30 31  1  0  0  0
M  END
> <minimizedAffinity>
-7.63890

> <CNNscore>
0.8385612965

> <CNNaffinity>
7.6236443520

> <CNN_VS>
6.3928933144

> <CNNaffinity_variance>
0.1732689440

$$$$
[H]c1nc2c([H])c([H])c(N(c3c([H])c(OC([H])([H])[H])c([H])c(OC([H])([H])[H])c3[H])C([H])([H])C([H])([H])N([H])C([H])(C([H])([H])[H])C([H])([H])[H])nc2c([H])c1-c1c([H])nn(C([H])([H])[H])c1[H]


 34 37  0  0  0  0  0  0  0  0999 V2000
   -1.6415   22.4550  -22.1153 N   0  0  0  0  0  0  0  0  0  0  0  0
   -1.4813   22.5063  -23.5146 C   0  0  0  0  0  0  0  0  0  0  0  0
   -0.2798   22.0490  -24.0524 C   0  0  0  0  0  0  0  0  0  0  0  0
   -0.0219   22.0498  -25.4001 C   0  0  0  0  0  0  0  0  0  0  0  0
   -1.0360   22.5376  -26.2261 C   0  0  0  0  0  0  0  0  0  0  0  0
   -0.8449   22.5628  -27.5395 N   0  0  0  0  0  0  0  0  0  0  0  0
   -1.7834   23.0202  -28.3860 C   0  0  0  0  0  0  0  0  0  0  0  0
   -3.0109   23.4923  -27.9052 C   0  0  0  0  0  0  0  0  0  0  0  0
   -3.2085   23.4667  -26.5521 C   0  0  0  0  0  0  0  0  0  0  0  0
   -2.2280   22.9907  -25.6936 C   0  0  0  0  0  0  0  0  0  0  0  0
   -2.4470   22.9747  -24.3513 N   0  0  0  0  0  0  0  0  0  0  0  0
   -4.0315   23.9856  -28.8225 C   0  0  0  0  0  0  0  0  0  0  0  0
   -5.2530   23.3821  -29.0564 C   0  0  0  0  0  0  0  0  0  0  0  0
   -5.9210   24.1384  -29.9678 N   0  0  0  0  0  0  0  0  0  0  0  0
   -5.1770   25.1886  -30.3175 N   0  0  0  0  0  0  0  0  0  0  0  0
   -5.6063   26.1931  -31.2773 C   0  0  0  0  0  0  0  0  0  0  0  0
   -4.0282   25.1052  -29.6278 C   0  0  0  0  0  0  0  0  0  0  0  0
    0.8434   21.4404  -19.5429 C   0  0  0  0  0  0  0  0  0  0  0  0
    0.9427   20.0817  -19.7542 C   0  0  0  0  0  0  0  0  0  0  0  0
    0.1897   19.4858  -20.7297 C   0  0  0  0  0  0  0  0  0  0  0  0
   -0.6683   20.2860  -21.4920 C   0  0  0  0  0  0  0  0  0  0  0  0
   -0.8007   21.6426  -21.3185 C   0  0  0  0  0  0  0  0  0  0  0  0
   -0.0109   22.2033  -20.3102 C   0  0  0  0  0  0  0  0  0  0  0  0
    2.8834   22.5965  -18.8511 C   0  0  0  0  0  0  0  0  0  0  0  0
    1.6018   22.0721  -18.5524 O   0  0  0  0  0  0  0  0  0  0  0  0
    0.2856   18.1270  -20.9453 O   0  0  0  0  0  0  0  0  0  0  0  0
    1.3814   17.3816  -20.4627 C   0  0  0  0  0  0  0  0  0  0  0  0
   -2.6423   23.2959  -21.4922 C   0  0  0  0  0  0  0  0  0  0  0  0
   -3.9554   22.5836  -21.2884 C   0  0  0  0  0  0  0  0  0  0  0  0
   -4.8998   22.9652  -22.3351 N   0  0  0  0  0  0  0  0  0  0  0  0
   -5.4823   23.7494  -21.9947 H   0  0  0  0  0  0  0  0  0  0  0  0
   -5.7073   21.7902  -22.5889 C   0  0  0  0  0  0  0  0  0  0  0  0
   -7.1195   21.9543  -22.1029 C   0  0  0  0  0  0  0  0  0  0  0  0
   -5.6830   21.4922  -24.0940 C   0  0  0  0  0  0  0  0  0  0  0  0
 24 25  1  0  0  0
 25 18  1  0  0  0
 18 19  2  0  0  0
 19 20  1  0  0  0
 20 26  1  0  0  0
 26 27  1  0  0  0
 20 21  2  0  0  0
 21 22  1  0  0  0
 22 23  2  0  0  0
 22  1  1  0  0  0
  1 28  1  0  0  0
 28 29  1  0  0  0
 29 30  1  0  0  0
 30 32  1  0  0  0
 32 33  1  0  0  0
 32 34  1  0  0  0
  1  2  1  0  0  0
  2  3  2  0  0  0
  3  4  1  0  0  0
  4  5  2  0  0  0
  5  6  1  0  0  0
  6  7  2  0  0  0
  7  8  1  0  0  0
  8  9  2  0  0  0
  9 10  1  0  0  0
 10 11  2  0  0  0
  8 12  1  0  0  0
 12 13  1  0  0  0
 13 14  2  0  0  0
 14 15  1  0  0  0
 15 16  1  0  0  0
 15 17  1  0  0  0
 23 18  1  0  0  0
 11  2  1  0  0  0
 17 12  2  0  0  0
 10  5  1  0  0  0
 30 31  1  0  0  0
M  END
> <minimizedAffinity>
-7.67034

> <CNNscore>
0.7645294666

> <CNNaffinity>
7.5638909340

> <CNN_VS>
5.7828173637

> <CNNaffinity_variance>
0.2110981494

$$$$
[H]c1nc2c([H])c([H])c(N(c3c([H])c(OC([H])([H])[H])c([H])c(OC([H])([H])[H])c3[H])C([H])([H])C([H])([H])N([H])C([H])(C([H])([H])[H])C([H])([H])[H])nc2c([H])c1-c1c([H])nn(C([H])([H])[H])c1[H]


 34 37  0  0  0  0  0  0  0  0999 V2000
   -4.6882   23.1683  -26.7819 N   0  0  0  0  0  0  0  0  0  0  0  0
   -3.3582   22.8587  -26.4335 C   0  0  0  0  0  0  0  0  0  0  0  0
   -2.3802   22.9738  -27.4197 C   0  0  0  0  0  0  0  0  0  0  0  0
   -1.0557   22.7021  -27.1866 C   0  0  0  0  0  0  0  0  0  0  0  0
   -0.7230   22.2979  -25.8926 C   0  0  0  0  0  0  0  0  0  0  0  0
    0.5435   22.0214  -25.6064 N   0  0  0  0  0  0  0  0  0  0  0  0
    0.9257   21.6281  -24.3793 C   0  0  0  0  0  0  0  0  0  0  0  0
   -0.0111   21.4945  -23.3472 C   0  0  0  0  0  0  0  0  0  0  0  0
   -1.3161   21.7791  -23.6413 C   0  0  0  0  0  0  0  0  0  0  0  0
   -1.6921   22.1840  -24.9141 C   0  0  0  0  0  0  0  0  0  0  0  0
   -2.9960   22.4618  -25.1832 N   0  0  0  0  0  0  0  0  0  0  0  0
    0.4025   21.0713  -22.0145 C   0  0  0  0  0  0  0  0  0  0  0  0
   -0.4510   20.8206  -20.9562 C   0  0  0  0  0  0  0  0  0  0  0  0
    0.3080   20.4494  -19.8908 N   0  0  0  0  0  0  0  0  0  0  0  0
    1.5978   20.4550  -20.2297 N   0  0  0  0  0  0  0  0  0  0  0  0
    2.6707   20.1048  -19.3126 C   0  0  0  0  0  0  0  0  0  0  0  0
    1.6660   20.8309  -21.5167 C   0  0  0  0  0  0  0  0  0  0  0  0
   -5.4016   23.1390  -30.4304 C   0  0  0  0  0  0  0  0  0  0  0  0
   -5.5771   24.4790  -30.7032 C   0  0  0  0  0  0  0  0  0  0  0  0
   -5.4760   25.3998  -29.6955 C   0  0  0  0  0  0  0  0  0  0  0  0
   -5.1935   24.9452  -28.4028 C   0  0  0  0  0  0  0  0  0  0  0  0
   -5.0103   23.6216  -28.0829 C   0  0  0  0  0  0  0  0  0  0  0  0
   -5.1239   22.7211  -29.1464 C   0  0  0  0  0  0  0  0  0  0  0  0
   -6.1325   22.4909  -32.6715 C   0  0  0  0  0  0  0  0  0  0  0  0
   -5.5002   22.1794  -31.4427 O   0  0  0  0  0  0  0  0  0  0  0  0
   -5.6505   26.7413  -29.9634 O   0  0  0  0  0  0  0  0  0  0  0  0
   -5.7929   27.2149  -31.2842 C   0  0  0  0  0  0  0  0  0  0  0  0
   -5.7368   22.9567  -25.8057 C   0  0  0  0  0  0  0  0  0  0  0  0
   -6.0811   24.2098  -25.0412 C   0  0  0  0  0  0  0  0  0  0  0  0
   -4.8697   24.9791  -24.7692 N   0  0  0  0  0  0  0  0  0  0  0  0
   -4.6544   24.9236  -23.7590 H   0  0  0  0  0  0  0  0  0  0  0  0
   -5.1673   26.3405  -25.1631 C   0  0  0  0  0  0  0  0  0  0  0  0
   -6.4530   26.8378  -24.5655 C   0  0  0  0  0  0  0  0  0  0  0  0
   -3.9942   27.2396  -24.7507 C   0  0  0  0  0  0  0  0  0  0  0  0
 24 25  1  0  0  0
 25 18  1  0  0  0
 18 19  2  0  0  0
 19 20  1  0  0  0
 20 26  1  0  0  0
 26 27  1  0  0  0
 20 21  2  0  0  0
 21 22  1  0  0  0
 22 23  2  0  0  0
 22  1  1  0  0  0
  1 28  1  0  0  0
 28 29  1  0  0  0
 29 30  1  0  0  0
 30 32  1  0  0  0
 32 33  1  0  0  0
 32 34  1  0  0  0
  1  2  1  0  0  0
  2  3  2  0  0  0
  3  4  1  0  0  0
  4  5  2  0  0  0
  5  6  1  0  0  0
  6  7  2  0  0  0
  7  8  1  0  0  0
  8  9  2  0  0  0
  9 10  1  0  0  0
 10 11  2  0  0  0
  8 12  1  0  0  0
 12 13  1  0  0  0
 13 14  2  0  0  0
 14 15  1  0  0  0
 15 16  1  0  0  0
 15 17  1  0  0  0
 23 18  1  0  0  0
 11  2  1  0  0  0
 17 12  2  0  0  0
 10  5  1  0  0  0
 30 31  1  0  0  0
M  END
> <minimizedAffinity>
-7.11793

> <CNNscore>
0.6946247220

> <CNNaffinity>
7.7395811081

> <CNN_VS>
5.3761043549

> <CNNaffinity_variance>
0.1288530529

$$$$
[H]c1nc2c([H])c([H])c(N(c3c([H])c(OC([H])([H])[H])c([H])c(OC([H])([H])[H])c3[H])C([H])([H])C([H])([H])N([H])C([H])(C([H])([H])[H])C([H])([H])[H])nc2c([H])c1-c1c([H])nn(C([H])([H])[H])c1[H]


 34 37  0  0  0  0  0  0  0  0999 V2000
   -1.5874   21.5298  -22.2859 N   0  0  0  0  0  0  0  0  0  0  0  0
   -1.3412   21.8520  -23.6357 C   0  0  0  0  0  0  0  0  0  0  0  0
   -0.0369   21.7269  -24.1104 C   0  0  0  0  0  0  0  0  0  0  0  0
    0.3111   22.0094  -25.4072 C   0  0  0  0  0  0  0  0  0  0  0  0
   -0.7186   22.4354  -26.2479 C   0  0  0  0  0  0  0  0  0  0  0  0
   -0.4431   22.7232  -27.5142 N   0  0  0  0  0  0  0  0  0  0  0  0
   -1.3915   23.1375  -28.3718 C   0  0  0  0  0  0  0  0  0  0  0  0
   -2.7200   23.2819  -27.9535 C   0  0  0  0  0  0  0  0  0  0  0  0
   -3.0046   22.9857  -26.6490 C   0  0  0  0  0  0  0  0  0  0  0  0
   -2.0123   22.5591  -25.7780 C   0  0  0  0  0  0  0  0  0  0  0  0
   -2.3190   22.2701  -24.4849 N   0  0  0  0  0  0  0  0  0  0  0  0
   -3.7507   23.7279  -28.8836 C   0  0  0  0  0  0  0  0  0  0  0  0
   -4.8387   22.9774  -29.2887 C   0  0  0  0  0  0  0  0  0  0  0  0
   -5.5663   23.7351  -30.1520 N   0  0  0  0  0  0  0  0  0  0  0  0
   -4.9870   24.9262  -30.3083 N   0  0  0  0  0  0  0  0  0  0  0  0
   -5.5180   25.9707  -31.1695 C   0  0  0  0  0  0  0  0  0  0  0  0
   -3.8843   24.9320  -29.5426 C   0  0  0  0  0  0  0  0  0  0  0  0
    0.7721   19.3124  -20.4590 C   0  0  0  0  0  0  0  0  0  0  0  0
    1.4966   20.2139  -19.7086 C   0  0  0  0  0  0  0  0  0  0  0  0
    1.2280   21.5527  -19.8034 C   0  0  0  0  0  0  0  0  0  0  0  0
    0.2122   21.9692  -20.6708 C   0  0  0  0  0  0  0  0  0  0  0  0
   -0.5362   21.1090  -21.4375 C   0  0  0  0  0  0  0  0  0  0  0  0
   -0.2233   19.7528  -21.3051 C   0  0  0  0  0  0  0  0  0  0  0  0
    2.3058   17.4252  -20.7098 C   0  0  0  0  0  0  0  0  0  0  0  0
    1.0280   17.9400  -20.3797 O   0  0  0  0  0  0  0  0  0  0  0  0
    1.9497   22.4585  -19.0547 O   0  0  0  0  0  0  0  0  0  0  0  0
    1.9936   22.3795  -17.6472 C   0  0  0  0  0  0  0  0  0  0  0  0
   -2.9256   21.6949  -21.7578 C   0  0  0  0  0  0  0  0  0  0  0  0
   -2.9456   22.4385  -20.4464 C   0  0  0  0  0  0  0  0  0  0  0  0
   -3.5550   21.6094  -19.4098 N   0  0  0  0  0  0  0  0  0  0  0  0
   -4.4542   22.0333  -19.1238 H   0  0  0  0  0  0  0  0  0  0  0  0
   -2.6141   21.5944  -18.3092 C   0  0  0  0  0  0  0  0  0  0  0  0
   -3.2142   22.1301  -17.0401 C   0  0  0  0  0  0  0  0  0  0  0  0
   -2.1145   20.1575  -18.1084 C   0  0  0  0  0  0  0  0  0  0  0  0
 24 25  1  0  0  0
 25 18  1  0  0  0
 18 19  2  0  0  0
 19 20  1  0  0  0
 20 26  1  0  0  0
 26 27  1  0  0  0
 20 21  2  0  0  0
 21 22  1  0  0  0
 22 23  2  0  0  0
 22  1  1  0  0  0
  1 28  1  0  0  0
 28 29  1  0  0  0
 29 30  1  0  0  0
 30 32  1  0  0  0
 32 33  1  0  0  0
 32 34  1  0  0  0
  1  2  1  0  0  0
  2  3  2  0  0  0
  3  4  1  0  0  0
  4  5  2  0  0  0
  5  6  1  0  0  0
  6  7  2  0  0  0
  7  8  1  0  0  0
  8  9  2  0  0  0
  9 10  1  0  0  0
 10 11  2  0  0  0
  8 12  1  0  0  0
 12 13  1  0  0  0
 13 14  2  0  0  0
 14 15  1  0  0  0
 15 16  1  0  0  0
 15 17  1  0  0  0
 23 18  1  0  0  0
 11  2  1  0  0  0
 17 12  2  0  0  0
 10  5  1  0  0  0
 30 31  1  0  0  0
M  END
> <minimizedAffinity>
-7.00331

> <CNNscore>
0.6555510163

> <CNNaffinity>
7.1356797218

> <CNN_VS>
4.6778020859

> <CNNaffinity_variance>
0.1420387328

$$$$
[H]c1nc2c([H])c([H])c(N(c3c([H])c(OC([H])([H])[H])c([H])c(OC([H])([H])[H])c3[H])C([H])([H])C([H])([H])N([H])C([H])(C([H])([H])[H])C([H])([H])[H])nc2c([H])c1-c1c([H])nn(C([H])([H])[H])c1[H]


 34 37  0  0  0  0  0  0  0  0999 V2000
   -0.6223   21.9515  -21.9394 N   0  0  0  0  0  0  0  0  0  0  0  0
   -0.6287   22.1024  -23.3406 C   0  0  0  0  0  0  0  0  0  0  0  0
    0.5302   21.7696  -24.0394 C   0  0  0  0  0  0  0  0  0  0  0  0
    0.6299   21.8741  -25.4039 C   0  0  0  0  0  0  0  0  0  0  0  0
   -0.5028   22.3368  -26.0757 C   0  0  0  0  0  0  0  0  0  0  0  0
   -0.4669   22.4586  -27.3971 N   0  0  0  0  0  0  0  0  0  0  0  0
   -1.5251   22.8980  -28.0997 C   0  0  0  0  0  0  0  0  0  0  0  0
   -2.7173   23.2473  -27.4536 C   0  0  0  0  0  0  0  0  0  0  0  0
   -2.7550   23.1222  -26.0921 C   0  0  0  0  0  0  0  0  0  0  0  0
   -1.6525   22.6665  -25.3835 C   0  0  0  0  0  0  0  0  0  0  0  0
   -1.7134   22.5501  -24.0298 N   0  0  0  0  0  0  0  0  0  0  0  0
   -3.8673   23.7208  -28.2147 C   0  0  0  0  0  0  0  0  0  0  0  0
   -5.1599   23.2481  -28.0845 C   0  0  0  0  0  0  0  0  0  0  0  0
   -5.9426   23.9357  -28.9582 N   0  0  0  0  0  0  0  0  0  0  0  0
   -5.2029   24.8182  -29.6311 N   0  0  0  0  0  0  0  0  0  0  0  0
   -5.7422   25.7117  -30.6437 C   0  0  0  0  0  0  0  0  0  0  0  0
   -3.9419   24.6959  -29.1872 C   0  0  0  0  0  0  0  0  0  0  0  0
    2.1665   20.2797  -20.1368 C   0  0  0  0  0  0  0  0  0  0  0  0
    1.7684   18.9598  -20.1451 C   0  0  0  0  0  0  0  0  0  0  0  0
    0.5810   18.6086  -20.7283 C   0  0  0  0  0  0  0  0  0  0  0  0
   -0.2016   19.6145  -21.3058 C   0  0  0  0  0  0  0  0  0  0  0  0
    0.1533   20.9418  -21.3223 C   0  0  0  0  0  0  0  0  0  0  0  0
    1.3741   21.2490  -20.7141 C   0  0  0  0  0  0  0  0  0  0  0  0
    3.6697   22.0324  -19.3336 C   0  0  0  0  0  0  0  0  0  0  0  0
    3.3750   20.6634  -19.5470 O   0  0  0  0  0  0  0  0  0  0  0  0
    0.1784   17.2896  -20.7396 O   0  0  0  0  0  0  0  0  0  0  0  0
   -0.5384   16.7305  -19.6613 C   0  0  0  0  0  0  0  0  0  0  0  0
   -1.3746   22.8869  -21.1293 C   0  0  0  0  0  0  0  0  0  0  0  0
   -2.6045   22.2669  -20.5161 C   0  0  0  0  0  0  0  0  0  0  0  0
   -3.6505   22.1254  -21.5256 N   0  0  0  0  0  0  0  0  0  0  0  0
   -3.8161   23.0442  -21.9711 H   0  0  0  0  0  0  0  0  0  0  0  0
   -4.8286   21.6723  -20.8159 C   0  0  0  0  0  0  0  0  0  0  0  0
   -4.4878   21.0170  -19.5074 C   0  0  0  0  0  0  0  0  0  0  0  0
   -5.7616   22.8704  -20.5954 C   0  0  0  0  0  0  0  0  0  0  0  0
 24 25  1  0  0  0
 25 18  1  0  0  0
 18 19  2  0  0  0
 19 20  1  0  0  0
 20 26  1  0  0  0
 26 27  1  0  0  0
 20 21  2  0  0  0
 21 22  1  0  0  0
 22 23  2  0  0  0
 22  1  1  0  0  0
  1 28  1  0  0  0
 28 29  1  0  0  0
 29 30  1  0  0  0
 30 32  1  0  0  0
 32 33  1  0  0  0
 32 34  1  0  0  0
  1  2  1  0  0  0
  2  3  2  0  0  0
  3  4  1  0  0  0
  4  5  2  0  0  0
  5  6  1  0  0  0
  6  7  2  0  0  0
  7  8  1  0  0  0
  8  9  2  0  0  0
  9 10  1  0  0  0
 10 11  2  0  0  0
  8 12  1  0  0  0
 12 13  1  0  0  0
 13 14  2  0  0  0
 14 15  1  0  0  0
 15 16  1  0  0  0
 15 17  1  0  0  0
 23 18  1  0  0  0
 11  2  1  0  0  0
 17 12  2  0  0  0
 10  5  1  0  0  0
 30 31  1  0  0  0
M  END
> <minimizedAffinity>
-7.22892

> <CNNscore>
0.6306607723

> <CNNaffinity>
7.2714095116

> <CNN_VS>
4.5857925415

> <CNNaffinity_variance>
0.1987164617

$$$$
[H]c1nc2c([H])c([H])c(N(c3c([H])c(OC([H])([H])[H])c([H])c(OC([H])([H])[H])c3[H])C([H])([H])C([H])([H])N([H])C([H])(C([H])([H])[H])C([H])([H])[H])nc2c([H])c1-c1c([H])nn(C([H])([H])[H])c1[H]


 34 37  0  0  0  0  0  0  0  0999 V2000
    0.4925   20.6111  -20.9638 N   0  0  0  0  0  0  0  0  0  0  0  0
    0.4214   21.0420  -22.3038 C   0  0  0  0  0  0  0  0  0  0  0  0
    1.6109   21.1393  -23.0234 C   0  0  0  0  0  0  0  0  0  0  0  0
    1.6546   21.5432  -24.3339 C   0  0  0  0  0  0  0  0  0  0  0  0
    0.4312   21.8581  -24.9278 C   0  0  0  0  0  0  0  0  0  0  0  0
    0.4097   22.2547  -26.1945 N   0  0  0  0  0  0  0  0  0  0  0  0
   -0.7364   22.5711  -26.8213 C   0  0  0  0  0  0  0  0  0  0  0  0
   -1.9632   22.4924  -26.1508 C   0  0  0  0  0  0  0  0  0  0  0  0
   -1.9419   22.0840  -24.8457 C   0  0  0  0  0  0  0  0  0  0  0  0
   -0.7488   21.7613  -24.2152 C   0  0  0  0  0  0  0  0  0  0  0  0
   -0.7522   21.3573  -22.9165 N   0  0  0  0  0  0  0  0  0  0  0  0
   -3.2079   22.8319  -26.8304 C   0  0  0  0  0  0  0  0  0  0  0  0
   -4.4103   23.1035  -26.2046 C   0  0  0  0  0  0  0  0  0  0  0  0
   -5.3277   23.3761  -27.1704 N   0  0  0  0  0  0  0  0  0  0  0  0
   -4.7586   23.2888  -28.3733 N   0  0  0  0  0  0  0  0  0  0  0  0
   -5.4724   23.5232  -29.6184 C   0  0  0  0  0  0  0  0  0  0  0  0
   -3.4719   22.9591  -28.1781 C   0  0  0  0  0  0  0  0  0  0  0  0
    0.3913   16.9851  -20.1494 C   0  0  0  0  0  0  0  0  0  0  0  0
    1.7231   16.6966  -19.9404 C   0  0  0  0  0  0  0  0  0  0  0  0
    2.6643   17.6811  -20.0761 C   0  0  0  0  0  0  0  0  0  0  0  0
    2.2385   18.9669  -20.4272 C   0  0  0  0  0  0  0  0  0  0  0  0
    0.9239   19.3019  -20.6451 C   0  0  0  0  0  0  0  0  0  0  0  0
    0.0018   18.2618  -20.4943 C   0  0  0  0  0  0  0  0  0  0  0  0
   -1.7688   16.2466  -19.2743 C   0  0  0  0  0  0  0  0  0  0  0  0
   -0.5888   15.9964  -20.0171 O   0  0  0  0  0  0  0  0  0  0  0  0
    3.9978   17.3977  -19.8677 O   0  0  0  0  0  0  0  0  0  0  0  0
    4.9980   17.8922  -20.7304 C   0  0  0  0  0  0  0  0  0  0  0  0
    0.1763   21.5495  -19.9072 C   0  0  0  0  0  0  0  0  0  0  0  0
   -1.2745   21.4994  -19.4999 C   0  0  0  0  0  0  0  0  0  0  0  0
   -1.7243   22.8257  -19.0852 N   0  0  0  0  0  0  0  0  0  0  0  0
   -0.9535   23.3031  -18.5873 H   0  0  0  0  0  0  0  0  0  0  0  0
   -2.8533   22.6050  -18.2056 C   0  0  0  0  0  0  0  0  0  0  0  0
   -3.9796   21.8876  -18.8943 C   0  0  0  0  0  0  0  0  0  0  0  0
   -2.3754   21.8141  -16.9806 C   0  0  0  0  0  0  0  0  0  0  0  0
 24 25  1  0  0  0
 25 18  1  0  0  0
 18 19  2  0  0  0
 19 20  1  0  0  0
 20 26  1  0  0  0
 26 27  1  0  0  0
 20 21  2  0  0  0
 21 22  1  0  0  0
 22 23  2  0  0  0
 22  1  1  0  0  0
  1 28  1  0  0  0
 28 29  1  0  0  0
 29 30  1  0  0  0
 30 32  1  0  0  0
 32 33  1  0  0  0
 32 34  1  0  0  0
  1  2  1  0  0  0
  2  3  2  0  0  0
  3  4  1  0  0  0
  4  5  2  0  0  0
  5  6  1  0  0  0
  6  7  2  0  0  0
  7  8  1  0  0  0
  8  9  2  0  0  0
  9 10  1  0  0  0
 10 11  2  0  0  0
  8 12  1  0  0  0
 12 13  1  0  0  0
 13 14  2  0  0  0
 14 15  1  0  0  0
 15 16  1  0  0  0
 15 17  1  0  0  0
 23 18  1  0  0  0
 11  2  1  0  0  0
 17 12  2  0  0  0
 10  5  1  0  0  0
 30 31  1  0  0  0
M  END
> <minimizedAffinity>
-6.45062

> <CNNscore>
0.3746961653

> <CNNaffinity>
6.6238508224

> <CNN_VS>
2.4819314480

> <CNNaffinity_variance>
0.1833144724

$$$$
[H]c1nc2c([H])c([H])c(N(c3c([H])c(OC([H])([H])[H])c([H])c(OC([H])([H])[H])c3[H])C([H])([H])C([H])([H])N([H])C([H])(C([H])([H])[H])C([H])([H])[H])nc2c([H])c1-c1c([H])nn(C([H])([H])[H])c1[H]


 34 37  0  0  0  0  0  0  0  0999 V2000
   -0.3713   20.9915  -21.3170 N   0  0  0  0  0  0  0  0  0  0  0  0
   -0.2583   21.3646  -22.6713 C   0  0  0  0  0  0  0  0  0  0  0  0
    0.9917   21.2552  -23.2777 C   0  0  0  0  0  0  0  0  0  0  0  0
    1.2110   21.5864  -24.5910 C   0  0  0  0  0  0  0  0  0  0  0  0
    0.1055   22.0462  -25.3085 C   0  0  0  0  0  0  0  0  0  0  0  0
    0.2557   22.3817  -26.5841 N   0  0  0  0  0  0  0  0  0  0  0  0
   -0.7706   22.8304  -27.3270 C   0  0  0  0  0  0  0  0  0  0  0  0
   -2.0503   22.9613  -26.7737 C   0  0  0  0  0  0  0  0  0  0  0  0
   -2.2058   22.6159  -25.4594 C   0  0  0  0  0  0  0  0  0  0  0  0
   -1.1345   22.1545  -24.7081 C   0  0  0  0  0  0  0  0  0  0  0  0
   -1.3131   21.8168  -23.4028 N   0  0  0  0  0  0  0  0  0  0  0  0
   -3.1655   23.4445  -27.5792 C   0  0  0  0  0  0  0  0  0  0  0  0
   -3.5683   22.9079  -28.7879 C   0  0  0  0  0  0  0  0  0  0  0  0
   -4.6364   23.6268  -29.2251 N   0  0  0  0  0  0  0  0  0  0  0  0
   -4.9239   24.5896  -28.3481 N   0  0  0  0  0  0  0  0  0  0  0  0
   -6.0151   25.5349  -28.5223 C   0  0  0  0  0  0  0  0  0  0  0  0
   -4.0371   24.4875  -27.3454 C   0  0  0  0  0  0  0  0  0  0  0  0
    2.5952   19.5090  -19.6367 C   0  0  0  0  0  0  0  0  0  0  0  0
    2.3124   18.1605  -19.6835 C   0  0  0  0  0  0  0  0  0  0  0  0
    1.1455   17.7271  -20.2528 C   0  0  0  0  0  0  0  0  0  0  0  0
    0.2650   18.6800  -20.7767 C   0  0  0  0  0  0  0  0  0  0  0  0
    0.5036   20.0329  -20.7535 C   0  0  0  0  0  0  0  0  0  0  0  0
    1.7081   20.4245  -20.1615 C   0  0  0  0  0  0  0  0  0  0  0  0
    4.6014   20.9017  -19.7505 C   0  0  0  0  0  0  0  0  0  0  0  0
    3.7804   19.9763  -19.0601 O   0  0  0  0  0  0  0  0  0  0  0  0
    0.8581   16.3792  -20.3023 O   0  0  0  0  0  0  0  0  0  0  0  0
   -0.2625   15.8414  -19.6358 C   0  0  0  0  0  0  0  0  0  0  0  0
   -1.3590   21.6501  -20.4876 C   0  0  0  0  0  0  0  0  0  0  0  0
   -0.8872   22.9854  -19.9706 C   0  0  0  0  0  0  0  0  0  0  0  0
   -1.4220   23.2216  -18.6322 N   0  0  0  0  0  0  0  0  0  0  0  0
   -0.8868   23.9855  -18.1848 H   0  0  0  0  0  0  0  0  0  0  0  0
   -1.2523   21.9771  -17.9115 C   0  0  0  0  0  0  0  0  0  0  0  0
    0.0618   21.9143  -17.1858 C   0  0  0  0  0  0  0  0  0  0  0  0
   -2.4214   21.8128  -16.9313 C   0  0  0  0  0  0  0  0  0  0  0  0
 24 25  1  0  0  0
 25 18  1  0  0  0
 18 19  2  0  0  0
 19 20  1  0  0  0
 20 26  1  0  0  0
 26 27  1  0  0  0
 20 21  2  0  0  0
 21 22  1  0  0  0
 22 23  2  0  0  0
 22  1  1  0  0  0
  1 28  1  0  0  0
 28 29  1  0  0  0
 29 30  1  0  0  0
 30 32  1  0  0  0
 32 33  1  0  0  0
 32 34  1  0  0  0
  1  2  1  0  0  0
  2  3  2  0  0  0
  3  4  1  0  0  0
  4  5  2  0  0  0
  5  6  1  0  0  0
  6  7  2  0  0  0
  7  8  1  0  0  0
  8  9  2  0  0  0
  9 10  1  0  0  0
 10 11  2  0  0  0
  8 12  1  0  0  0
 12 13  1  0  0  0
 13 14  2  0  0  0
 14 15  1  0  0  0
 15 16  1  0  0  0
 15 17  1  0  0  0
 23 18  1  0  0  0
 11  2  1  0  0  0
 17 12  2  0  0  0
 10  5  1  0  0  0
 30 31  1  0  0  0
M  END
> <minimizedAffinity>
-6.66762

> <CNNscore>
0.2907256484

> <CNNaffinity>
6.5757970810

> <CNN_VS>
1.9117528200

> <CNNaffinity_variance>
0.1031619087

$$$$
[H]c1nc2c([H])c([H])c(N(c3c([H])c(OC([H])([H])[H])c([H])c(OC([H])([H])[H])c3[H])C([H])([H])C([H])([H])N([H])C([H])(C([H])([H])[H])C([H])([H])[H])nc2c([H])c1-c1c([H])nn(C([H])([H])[H])c1[H]


 34 37  0  0  0  0  0  0  0  0999 V2000
   -5.3034   23.5680  -26.2196 N   0  0  0  0  0  0  0  0  0  0  0  0
   -3.9495   23.1839  -26.2948 C   0  0  0  0  0  0  0  0  0  0  0  0
   -3.3396   23.1797  -27.5478 C   0  0  0  0  0  0  0  0  0  0  0  0
   -2.0264   22.8278  -27.7328 C   0  0  0  0  0  0  0  0  0  0  0  0
   -1.3128   22.4677  -26.5884 C   0  0  0  0  0  0  0  0  0  0  0  0
   -0.0375   22.1178  -26.7042 N   0  0  0  0  0  0  0  0  0  0  0  0
    0.7017   21.7617  -25.6397 C   0  0  0  0  0  0  0  0  0  0  0  0
    0.1447   21.7470  -24.3551 C   0  0  0  0  0  0  0  0  0  0  0  0
   -1.1693   22.1072  -24.2349 C   0  0  0  0  0  0  0  0  0  0  0  0
   -1.9168   22.4721  -25.3455 C   0  0  0  0  0  0  0  0  0  0  0  0
   -3.2219   22.8267  -25.2016 N   0  0  0  0  0  0  0  0  0  0  0  0
    0.9462   21.3642  -23.1987 C   0  0  0  0  0  0  0  0  0  0  0  0
    2.3068   21.1202  -23.2164 C   0  0  0  0  0  0  0  0  0  0  0  0
    2.6857   20.7941  -21.9519 N   0  0  0  0  0  0  0  0  0  0  0  0
    1.6276   20.8219  -21.1406 N   0  0  0  0  0  0  0  0  0  0  0  0
    1.6969   20.5203  -19.7197 C   0  0  0  0  0  0  0  0  0  0  0  0
    0.5668   21.1669  -21.8874 C   0  0  0  0  0  0  0  0  0  0  0  0
   -6.9660   24.9391  -23.1902 C   0  0  0  0  0  0  0  0  0  0  0  0
   -7.2412   23.7977  -22.4677 C   0  0  0  0  0  0  0  0  0  0  0  0
   -6.8970   22.5720  -22.9703 C   0  0  0  0  0  0  0  0  0  0  0  0
   -6.2677   22.5160  -24.2188 C   0  0  0  0  0  0  0  0  0  0  0  0
   -5.9730   23.6250  -24.9745 C   0  0  0  0  0  0  0  0  0  0  0  0
   -6.3446   24.8524  -24.4178 C   0  0  0  0  0  0  0  0  0  0  0  0
   -7.8375   26.3478  -21.3922 C   0  0  0  0  0  0  0  0  0  0  0  0
   -7.3081   26.2025  -22.6981 O   0  0  0  0  0  0  0  0  0  0  0  0
   -7.1699   21.4272  -22.2513 O   0  0  0  0  0  0  0  0  0  0  0  0
   -8.0424   21.4453  -21.1433 C   0  0  0  0  0  0  0  0  0  0  0  0
   -5.9884   23.9659  -27.4319 C   0  0  0  0  0  0  0  0  0  0  0  0
   -5.9332   25.4538  -27.6693 C   0  0  0  0  0  0  0  0  0  0  0  0
   -6.1842   25.7457  -29.0782 N   0  0  0  0  0  0  0  0  0  0  0  0
   -7.1592   25.4878  -29.3079 H   0  0  0  0  0  0  0  0  0  0  0  0
   -5.2431   24.9372  -29.8250 C   0  0  0  0  0  0  0  0  0  0  0  0
   -5.8367   24.4020  -31.0973 C   0  0  0  0  0  0  0  0  0  0  0  0
   -3.9961   25.7809  -30.1213 C   0  0  0  0  0  0  0  0  0  0  0  0
 24 25  1  0  0  0
 25 18  1  0  0  0
 18 19  2  0  0  0
 19 20  1  0  0  0
 20 26  1  0  0  0
 26 27  1  0  0  0
 20 21  2  0  0  0
 21 22  1  0  0  0
 22 23  2  0  0  0
 22  1  1  0  0  0
  1 28  1  0  0  0
 28 29  1  0  0  0
 29 30  1  0  0  0
 30 32  1  0  0  0
 32 33  1  0  0  0
 32 34  1  0  0  0
  1  2  1  0  0  0
  2  3  2  0  0  0
  3  4  1  0  0  0
  4  5  2  0  0  0
  5  6  1  0  0  0
  6  7  2  0  0  0
  7  8  1  0  0  0
  8  9  2  0  0  0
  9 10  1  0  0  0
 10 11  2  0  0  0
  8 12  1  0  0  0
 12 13  1  0  0  0
 13 14  2  0  0  0
 14 15  1  0  0  0
 15 16  1  0  0  0
 15 17  1  0  0  0
 23 18  1  0  0  0
 11  2  1  0  0  0
 17 12  2  0  0  0
 10  5  1  0  0  0
 30 31  1  0  0  0
M  END
> <minimizedAffinity>
-8.86959

> <CNNscore>
0.2881058753

> <CNNaffinity>
7.2400398254

> <CNN_VS>
2.0858979225

> <CNNaffinity_variance>
0.0691531897

$$$$
[H]c1nc2c([H])c([H])c(N(c3c([H])c(OC([H])([H])[H])c([H])c(OC([H])([H])[H])c3[H])C([H])([H])C([H])([H])N([H])C([H])(C([H])([H])[H])C([H])([H])[H])nc2c([H])c1-c1c([H])nn(C([H])([H])[H])c1[H]


 34 37  0  0  0  0  0  0  0  0999 V2000
   -5.4018   23.6851  -26.1613 N   0  0  0  0  0  0  0  0  0  0  0  0
   -4.0510   23.2951  -26.2583 C   0  0  0  0  0  0  0  0  0  0  0  0
   -3.4561   23.3060  -27.5185 C   0  0  0  0  0  0  0  0  0  0  0  0
   -2.1471   22.9500  -27.7244 C   0  0  0  0  0  0  0  0  0  0  0  0
   -1.4219   22.5695  -26.5940 C   0  0  0  0  0  0  0  0  0  0  0  0
   -0.1499   22.2148  -26.7302 N   0  0  0  0  0  0  0  0  0  0  0  0
    0.6000   21.8393  -25.6799 C   0  0  0  0  0  0  0  0  0  0  0  0
    0.0583   21.8088  -24.3890 C   0  0  0  0  0  0  0  0  0  0  0  0
   -1.2521   22.1741  -24.2479 C   0  0  0  0  0  0  0  0  0  0  0  0
   -2.0109   22.5590  -25.3439 C   0  0  0  0  0  0  0  0  0  0  0  0
   -3.3122   22.9183  -25.1793 N   0  0  0  0  0  0  0  0  0  0  0  0
    0.8716   21.4051  -23.2481 C   0  0  0  0  0  0  0  0  0  0  0  0
    0.4052   21.2272  -21.9589 C   0  0  0  0  0  0  0  0  0  0  0  0
    1.4583   20.8508  -21.1855 N   0  0  0  0  0  0  0  0  0  0  0  0
    2.5643   20.7836  -21.9279 N   0  0  0  0  0  0  0  0  0  0  0  0
    3.8655   20.4085  -21.3982 C   0  0  0  0  0  0  0  0  0  0  0  0
    2.2189   21.1181  -23.1813 C   0  0  0  0  0  0  0  0  0  0  0  0
   -7.0052   22.6860  -22.9594 C   0  0  0  0  0  0  0  0  0  0  0  0
   -7.3774   23.9025  -22.4284 C   0  0  0  0  0  0  0  0  0  0  0  0
   -7.0964   25.0580  -23.1062 C   0  0  0  0  0  0  0  0  0  0  0  0
   -6.4313   24.9660  -24.3338 C   0  0  0  0  0  0  0  0  0  0  0  0
   -6.0413   23.7776  -24.9025 C   0  0  0  0  0  0  0  0  0  0  0  0
   -6.3510   22.6268  -24.1714 C   0  0  0  0  0  0  0  0  0  0  0  0
   -8.0085   21.5019  -21.0704 C   0  0  0  0  0  0  0  0  0  0  0  0
   -7.2808   21.4919  -22.2858 O   0  0  0  0  0  0  0  0  0  0  0  0
   -7.4670   26.2775  -22.5794 O   0  0  0  0  0  0  0  0  0  0  0  0
   -7.9875   26.3865  -21.2732 C   0  0  0  0  0  0  0  0  0  0  0  0
   -6.1146   24.0524  -27.3672 C   0  0  0  0  0  0  0  0  0  0  0  0
   -5.9366   25.5054  -27.7282 C   0  0  0  0  0  0  0  0  0  0  0  0
   -6.2881   25.7199  -29.1295 N   0  0  0  0  0  0  0  0  0  0  0  0
   -7.2545   25.3873  -29.2898 H   0  0  0  0  0  0  0  0  0  0  0  0
   -5.3376   24.9457  -29.9003 C   0  0  0  0  0  0  0  0  0  0  0  0
   -5.9288   24.4315  -31.1823 C   0  0  0  0  0  0  0  0  0  0  0  0
   -4.1066   25.8174  -30.1822 C   0  0  0  0  0  0  0  0  0  0  0  0
 24 25  1  0  0  0
 25 18  1  0  0  0
 18 19  2  0  0  0
 19 20  1  0  0  0
 20 26  1  0  0  0
 26 27  1  0  0  0
 20 21  2  0  0  0
 21 22  1  0  0  0
 22 23  2  0  0  0
 22  1  1  0  0  0
  1 28  1  0  0  0
 28 29  1  0  0  0
 29 30  1  0  0  0
 30 32  1  0  0  0
 32 33  1  0  0  0
 32 34  1  0  0  0
  1  2  1  0  0  0
  2  3  2  0  0  0
  3  4  1  0  0  0
  4  5  2  0  0  0
  5  6  1  0  0  0
  6  7  2  0  0  0
  7  8  1  0  0  0
  8  9  2  0  0  0
  9 10  1  0  0  0
 10 11  2  0  0  0
  8 12  1  0  0  0
 12 13  1  0  0  0
 13 14  2  0  0  0
 14 15  1  0  0  0
 15 16  1  0  0  0
 15 17  1  0  0  0
 23 18  1  0  0  0
 11  2  1  0  0  0
 17 12  2  0  0  0
 10  5  1  0  0  0
 30 31  1  0  0  0
M  END
> <minimizedAffinity>
-8.88027

> <CNNscore>
0.2648791671

> <CNNaffinity>
7.2405776978

> <CNN_VS>
1.9178781509

> <CNNaffinity_variance>
0.1101814359

$$$$
[H]c1nc(-c2c(C([H])([H])[H])nn(C([H])([H])[H])c2[H])c([H])c2c1C([H])([H])N(c1c(F)c(OC([H])([H])[H])c([H])c(OC([H])([H])[H])c1F)C(=O)N2C([H])([H])c1c([H])c([H])c2c(c1[H])OC([H])([H])C([H])([H])O2


 41 46  0  0  0  0  0  0  0  0999 V2000
   -4.1260   21.4898  -19.1378 N   0  0  0  0  0  0  0  0  0  0  0  0
   -4.7081   21.8972  -20.3731 C   0  0  0  0  0  0  0  0  0  0  0  0
   -3.7243   21.9621  -21.4670 C   0  0  0  0  0  0  0  0  0  0  0  0
   -4.1608   22.4807  -22.7026 C   0  0  0  0  0  0  0  0  0  0  0  0
   -3.3030   22.5325  -23.7139 N   0  0  0  0  0  0  0  0  0  0  0  0
   -2.0040   22.1067  -23.6303 C   0  0  0  0  0  0  0  0  0  0  0  0
   -1.5688   21.6018  -22.4338 C   0  0  0  0  0  0  0  0  0  0  0  0
   -2.4299   21.5309  -21.3544 C   0  0  0  0  0  0  0  0  0  0  0  0
   -1.8927   21.0428  -20.1319 N   0  0  0  0  0  0  0  0  0  0  0  0
   -2.7868   21.0376  -19.0330 C   0  0  0  0  0  0  0  0  0  0  0  0
   -2.3603   20.6089  -17.9145 O   0  0  0  0  0  0  0  0  0  0  0  0
   -5.5844   22.6655  -15.9080 C   0  0  0  0  0  0  0  0  0  0  0  0
   -6.5407   21.7104  -15.6647 C   0  0  0  0  0  0  0  0  0  0  0  0
   -6.7178   20.6832  -16.5507 C   0  0  0  0  0  0  0  0  0  0  0  0
   -5.9274   20.6046  -17.7030 C   0  0  0  0  0  0  0  0  0  0  0  0
   -6.0881   19.6007  -18.5919 F   0  0  0  0  0  0  0  0  0  0  0  0
   -4.9651   21.5533  -17.9609 C   0  0  0  0  0  0  0  0  0  0  0  0
   -4.7954   22.5774  -17.0690 C   0  0  0  0  0  0  0  0  0  0  0  0
   -3.8617   23.5467  -17.2656 F   0  0  0  0  0  0  0  0  0  0  0  0
   -5.0794   23.5423  -13.6602 C   0  0  0  0  0  0  0  0  0  0  0  0
   -5.4035   23.7047  -15.0154 O   0  0  0  0  0  0  0  0  0  0  0  0
   -7.6570   19.6992  -16.3634 O   0  0  0  0  0  0  0  0  0  0  0  0
   -7.4990   18.5850  -15.5284 C   0  0  0  0  0  0  0  0  0  0  0  0
   -1.1986   22.2686  -24.8231 C   0  0  0  0  0  0  0  0  0  0  0  0
   -1.6842   22.6588  -26.0759 C   0  0  0  0  0  0  0  0  0  0  0  0
   -0.7014   22.6843  -26.9707 N   0  0  0  0  0  0  0  0  0  0  0  0
   -0.8278   23.0518  -28.3901 C   0  0  0  0  0  0  0  0  0  0  0  0
    0.3858   22.3256  -26.3344 N   0  0  0  0  0  0  0  0  0  0  0  0
    0.1329   22.0613  -25.0198 C   0  0  0  0  0  0  0  0  0  0  0  0
    1.1640   21.6171  -24.0438 C   0  0  0  0  0  0  0  0  0  0  0  0
   -0.5238   20.5938  -19.9981 C   0  0  0  0  0  0  0  0  0  0  0  0
    0.3564   21.6400  -19.4538 C   0  0  0  0  0  0  0  0  0  0  0  0
   -0.1086   22.8969  -19.1087 C   0  0  0  0  0  0  0  0  0  0  0  0
    0.7560   23.8669  -18.5994 C   0  0  0  0  0  0  0  0  0  0  0  0
    2.0837   23.5998  -18.4289 C   0  0  0  0  0  0  0  0  0  0  0  0
    2.9633   24.5452  -17.9250 O   0  0  0  0  0  0  0  0  0  0  0  0
    4.1964   24.1992  -17.3251 C   0  0  0  0  0  0  0  0  0  0  0  0
    4.7980   22.9432  -17.8726 C   0  0  0  0  0  0  0  0  0  0  0  0
    3.9155   22.1198  -18.5816 O   0  0  0  0  0  0  0  0  0  0  0  0
    2.5635   22.3543  -18.7678 C   0  0  0  0  0  0  0  0  0  0  0  0
    1.6954   21.3807  -19.2788 C   0  0  0  0  0  0  0  0  0  0  0  0
 20 21  1  0  0  0
 21 12  1  0  0  0
 12 13  2  0  0  0
 13 14  1  0  0  0
 14 22  1  0  0  0
 22 23  1  0  0  0
 14 15  2  0  0  0
 15 16  1  0  0  0
 15 17  1  0  0  0
 17  1  1  0  0  0
  1  2  1  0  0  0
  2  3  1  0  0  0
  3  4  2  0  0  0
  4  5  1  0  0  0
  5  6  2  0  0  0
  6  7  1  0  0  0
  7  8  2  0  0  0
  8  9  1  0  0  0
  9 31  1  0  0  0
 31 32  1  0  0  0
 32 33  2  0  0  0
 33 34  1  0  0  0
 34 35  2  0  0  0
 35 36  1  0  0  0
 36 37  1  0  0  0
 37 38  1  0  0  0
 38 39  1  0  0  0
 39 40  1  0  0  0
 40 41  2  0  0  0
  9 10  1  0  0  0
 10 11  2  0  0  0
  6 24  1  0  0  0
 24 25  2  0  0  0
 25 26  1  0  0  0
 26 27  1  0  0  0
 26 28  1  0  0  0
 28 29  2  0  0  0
 29 30  1  0  0  0
 17 18  2  0  0  0
 18 19  1  0  0  0
 18 12  1  0  0  0
 10  1  1  0  0  0
 29 24  1  0  0  0
  8  3  1  0  0  0
 41 32  1  0  0  0
 40 35  1  0  0  0
M  END
> <minimizedAffinity>
-7.17426

> <CNNscore>
0.2603822649

> <CNNaffinity>
7.0829782486

> <CNN_VS>
1.8442819118

> <CNNaffinity_variance>
0.0766013488

$$$$
[H]c1nc(-c2c(C([H])([H])[H])nn(C([H])([H])[H])c2[H])c([H])c2c1C([H])([H])N(c1c(F)c(OC([H])([H])[H])c([H])c(OC([H])([H])[H])c1F)C(=O)N2C([H])([H])c1c([H])c([H])c2c(c1[H])OC([H])([H])C([H])([H])O2


 41 46  0  0  0  0  0  0  0  0999 V2000
    0.2709   21.0164  -21.1963 N   0  0  0  0  0  0  0  0  0  0  0  0
    0.9765   21.3763  -22.3809 C   0  0  0  0  0  0  0  0  0  0  0  0
    0.0748   21.7038  -23.4982 C   0  0  0  0  0  0  0  0  0  0  0  0
    0.6617   21.9454  -24.7565 C   0  0  0  0  0  0  0  0  0  0  0  0
   -0.1232   22.2636  -25.7782 N   0  0  0  0  0  0  0  0  0  0  0  0
   -1.4850   22.3742  -25.6839 C   0  0  0  0  0  0  0  0  0  0  0  0
   -2.0661   22.1405  -24.4658 C   0  0  0  0  0  0  0  0  0  0  0  0
   -1.2848   21.8054  -23.3755 C   0  0  0  0  0  0  0  0  0  0  0  0
   -1.9631   21.5279  -22.1572 N   0  0  0  0  0  0  0  0  0  0  0  0
   -1.1366   21.1325  -21.0766 C   0  0  0  0  0  0  0  0  0  0  0  0
   -1.6900   20.8740  -19.9613 O   0  0  0  0  0  0  0  0  0  0  0  0
    2.0816   18.6509  -18.9453 C   0  0  0  0  0  0  0  0  0  0  0  0
    2.5427   19.4920  -17.9625 C   0  0  0  0  0  0  0  0  0  0  0  0
    2.2703   20.8310  -18.0294 C   0  0  0  0  0  0  0  0  0  0  0  0
    1.5240   21.3441  -19.0964 C   0  0  0  0  0  0  0  0  0  0  0  0
    1.2466   22.6629  -19.1830 F   0  0  0  0  0  0  0  0  0  0  0  0
    1.0548   20.5147  -20.0886 C   0  0  0  0  0  0  0  0  0  0  0  0
    1.3326   19.1767  -20.0134 C   0  0  0  0  0  0  0  0  0  0  0  0
    0.8979   18.3039  -20.9616 F   0  0  0  0  0  0  0  0  0  0  0  0
    1.4772   16.3317  -18.3689 C   0  0  0  0  0  0  0  0  0  0  0  0
    2.3557   17.2981  -18.8811 O   0  0  0  0  0  0  0  0  0  0  0  0
    2.7037   21.7219  -17.0786 O   0  0  0  0  0  0  0  0  0  0  0  0
    3.4831   21.3909  -15.9621 C   0  0  0  0  0  0  0  0  0  0  0  0
   -2.1879   22.6970  -26.9084 C   0  0  0  0  0  0  0  0  0  0  0  0
   -3.5790   22.7441  -27.0502 C   0  0  0  0  0  0  0  0  0  0  0  0
   -3.9114   23.0387  -28.3032 N   0  0  0  0  0  0  0  0  0  0  0  0
   -5.2783   23.1807  -28.8292 C   0  0  0  0  0  0  0  0  0  0  0  0
   -2.7865   23.1793  -28.9594 N   0  0  0  0  0  0  0  0  0  0  0  0
   -1.7060   22.9802  -28.1503 C   0  0  0  0  0  0  0  0  0  0  0  0
   -0.2931   23.0570  -28.6097 C   0  0  0  0  0  0  0  0  0  0  0  0
   -3.4002   21.6221  -22.0180 C   0  0  0  0  0  0  0  0  0  0  0  0
   -3.9377   22.8619  -22.6005 C   0  0  0  0  0  0  0  0  0  0  0  0
   -3.4653   24.1141  -22.2482 C   0  0  0  0  0  0  0  0  0  0  0  0
   -4.0021   25.2697  -22.8178 C   0  0  0  0  0  0  0  0  0  0  0  0
   -5.0077   25.1937  -23.7375 C   0  0  0  0  0  0  0  0  0  0  0  0
   -5.5579   26.3257  -24.3182 O   0  0  0  0  0  0  0  0  0  0  0  0
   -6.2487   26.2934  -25.5518 C   0  0  0  0  0  0  0  0  0  0  0  0
   -6.9440   24.9949  -25.8159 C   0  0  0  0  0  0  0  0  0  0  0  0
   -6.5106   23.9174  -25.0345 O   0  0  0  0  0  0  0  0  0  0  0  0
   -5.4901   23.9556  -24.0991 C   0  0  0  0  0  0  0  0  0  0  0  0
   -4.9511   22.7956  -23.5275 C   0  0  0  0  0  0  0  0  0  0  0  0
 20 21  1  0  0  0
 21 12  1  0  0  0
 12 13  2  0  0  0
 13 14  1  0  0  0
 14 22  1  0  0  0
 22 23  1  0  0  0
 14 15  2  0  0  0
 15 16  1  0  0  0
 15 17  1  0  0  0
 17  1  1  0  0  0
  1  2  1  0  0  0
  2  3  1  0  0  0
  3  4  2  0  0  0
  4  5  1  0  0  0
  5  6  2  0  0  0
  6  7  1  0  0  0
  7  8  2  0  0  0
  8  9  1  0  0  0
  9 31  1  0  0  0
 31 32  1  0  0  0
 32 33  2  0  0  0
 33 34  1  0  0  0
 34 35  2  0  0  0
 35 36  1  0  0  0
 36 37  1  0  0  0
 37 38  1  0  0  0
 38 39  1  0  0  0
 39 40  1  0  0  0
 40 41  2  0  0  0
  9 10  1  0  0  0
 10 11  2  0  0  0
  6 24  1  0  0  0
 24 25  2  0  0  0
 25 26  1  0  0  0
 26 27  1  0  0  0
 26 28  1  0  0  0
 28 29  2  0  0  0
 29 30  1  0  0  0
 17 18  2  0  0  0
 18 19  1  0  0  0
 18 12  1  0  0  0
 10  1  1  0  0  0
 29 24  1  0  0  0
  8  3  1  0  0  0
 41 32  1  0  0  0
 40 35  1  0  0  0
M  END
> <minimizedAffinity>
-8.63091

> <CNNscore>
0.2095545381

> <CNNaffinity>
7.3469591141

> <CNN_VS>
1.5395885706

> <CNNaffinity_variance>
0.1177470088

$$$$
[H]c1nc(-c2c(C([H])([H])[H])nn(C([H])([H])[H])c2[H])c([H])c2c1C([H])([H])N(c1c(F)c(OC([H])([H])[H])c([H])c(OC([H])([H])[H])c1F)C(=O)N2C([H])([H])c1c([H])c([H])c2c(c1[H])OC([H])([H])C([H])([H])O2


 41 46  0  0  0  0  0  0  0  0999 V2000
    0.0775   20.9527  -21.1645 N   0  0  0  0  0  0  0  0  0  0  0  0
    0.8244   21.2881  -22.3308 C   0  0  0  0  0  0  0  0  0  0  0  0
   -0.0375   21.6396  -23.4720 C   0  0  0  0  0  0  0  0  0  0  0  0
    0.5891   21.8601  -24.7149 C   0  0  0  0  0  0  0  0  0  0  0  0
   -0.1588   22.1991  -25.7575 N   0  0  0  0  0  0  0  0  0  0  0  0
   -1.5187   22.3508  -25.6991 C   0  0  0  0  0  0  0  0  0  0  0  0
   -2.1382   22.1380  -24.4963 C   0  0  0  0  0  0  0  0  0  0  0  0
   -1.3962   21.7824  -23.3852 C   0  0  0  0  0  0  0  0  0  0  0  0
   -2.1142   21.5287  -22.1846 N   0  0  0  0  0  0  0  0  0  0  0  0
   -1.3285   21.1115  -21.0820 C   0  0  0  0  0  0  0  0  0  0  0  0
   -1.9184   20.8727  -19.9811 O   0  0  0  0  0  0  0  0  0  0  0  0
    2.0199   20.8242  -17.9784 C   0  0  0  0  0  0  0  0  0  0  0  0
    2.2667   19.4792  -17.8512 C   0  0  0  0  0  0  0  0  0  0  0  0
    1.7999   18.6089  -18.7978 C   0  0  0  0  0  0  0  0  0  0  0  0
    1.0720   19.0863  -19.8937 C   0  0  0  0  0  0  0  0  0  0  0  0
    0.5996   18.2440  -20.8376 F   0  0  0  0  0  0  0  0  0  0  0  0
    0.8167   20.4306  -20.0357 C   0  0  0  0  0  0  0  0  0  0  0  0
    1.2874   21.2937  -19.0835 C   0  0  0  0  0  0  0  0  0  0  0  0
    1.0692   22.6337  -19.1654 F   0  0  0  0  0  0  0  0  0  0  0  0
    3.7152   22.3837  -17.1007 C   0  0  0  0  0  0  0  0  0  0  0  0
    2.4894   21.7057  -17.0235 O   0  0  0  0  0  0  0  0  0  0  0  0
    2.0134   17.2544  -18.7260 O   0  0  0  0  0  0  0  0  0  0  0  0
    2.4129   16.5630  -17.5744 C   0  0  0  0  0  0  0  0  0  0  0  0
   -2.1792   22.6915  -26.9423 C   0  0  0  0  0  0  0  0  0  0  0  0
   -3.5646   22.7275  -27.1347 C   0  0  0  0  0  0  0  0  0  0  0  0
   -3.8535   23.0441  -28.3930 N   0  0  0  0  0  0  0  0  0  0  0  0
   -5.2016   23.1832  -28.9665 C   0  0  0  0  0  0  0  0  0  0  0  0
   -2.7068   23.2092  -29.0041 N   0  0  0  0  0  0  0  0  0  0  0  0
   -1.6548   23.0046  -28.1594 C   0  0  0  0  0  0  0  0  0  0  0  0
   -0.2268   23.1048  -28.5644 C   0  0  0  0  0  0  0  0  0  0  0  0
   -3.5509   21.6665  -22.0833 C   0  0  0  0  0  0  0  0  0  0  0  0
   -4.0347   22.9228  -22.6773 C   0  0  0  0  0  0  0  0  0  0  0  0
   -3.5648   24.1622  -22.2794 C   0  0  0  0  0  0  0  0  0  0  0  0
   -4.0500   25.3342  -22.8617 C   0  0  0  0  0  0  0  0  0  0  0  0
   -5.0014   25.2872  -23.8393 C   0  0  0  0  0  0  0  0  0  0  0  0
   -5.4997   26.4359  -24.4337 O   0  0  0  0  0  0  0  0  0  0  0  0
   -6.1179   26.4321  -25.7057 C   0  0  0  0  0  0  0  0  0  0  0  0
   -6.8162   25.1488  -26.0291 C   0  0  0  0  0  0  0  0  0  0  0  0
   -6.4454   24.0536  -25.2402 O   0  0  0  0  0  0  0  0  0  0  0  0
   -5.4806   24.0622  -24.2468 C   0  0  0  0  0  0  0  0  0  0  0  0
   -4.9934   22.8859  -23.6623 C   0  0  0  0  0  0  0  0  0  0  0  0
 20 21  1  0  0  0
 21 12  1  0  0  0
 12 13  2  0  0  0
 13 14  1  0  0  0
 14 22  1  0  0  0
 22 23  1  0  0  0
 14 15  2  0  0  0
 15 16  1  0  0  0
 15 17  1  0  0  0
 17  1  1  0  0  0
  1  2  1  0  0  0
  2  3  1  0  0  0
  3  4  2  0  0  0
  4  5  1  0  0  0
  5  6  2  0  0  0
  6  7  1  0  0  0
  7  8  2  0  0  0
  8  9  1  0  0  0
  9 31  1  0  0  0
 31 32  1  0  0  0
 32 33  2  0  0  0
 33 34  1  0  0  0
 34 35  2  0  0  0
 35 36  1  0  0  0
 36 37  1  0  0  0
 37 38  1  0  0  0
 38 39  1  0  0  0
 39 40  1  0  0  0
 40 41  2  0  0  0
  9 10  1  0  0  0
 10 11  2  0  0  0
  6 24  1  0  0  0
 24 25  2  0  0  0
 25 26  1  0  0  0
 26 27  1  0  0  0
 26 28  1  0  0  0
 28 29  2  0  0  0
 29 30  1  0  0  0
 17 18  2  0  0  0
 18 19  1  0  0  0
 18 12  1  0  0  0
 10  1  1  0  0  0
 29 24  1  0  0  0
  8  3  1  0  0  0
 41 32  1  0  0  0
 40 35  1  0  0  0
M  END
> <minimizedAffinity>
-8.61645

> <CNNscore>
0.2009181827

> <CNNaffinity>
7.3261361122

> <CNN_VS>
1.4719539881

> <CNNaffinity_variance>
0.1239171252

$$$$
[H]c1nc(-c2c(C([H])([H])[H])nn(C([H])([H])[H])c2[H])c([H])c2c1C([H])([H])N(c1c(F)c(OC([H])([H])[H])c([H])c(OC([H])([H])[H])c1F)C(=O)N2C([H])([H])c1c([H])c([H])c2c(c1[H])OC([H])([H])C([H])([H])O2


 41 46  0  0  0  0  0  0  0  0999 V2000
   -4.9768   22.1299  -19.8547 N   0  0  0  0  0  0  0  0  0  0  0  0
   -3.6288   22.5915  -19.8734 C   0  0  0  0  0  0  0  0  0  0  0  0
   -3.0238   22.5145  -21.2138 C   0  0  0  0  0  0  0  0  0  0  0  0
   -1.6525   22.8199  -21.3256 C   0  0  0  0  0  0  0  0  0  0  0  0
   -1.0835   22.7799  -22.5239 N   0  0  0  0  0  0  0  0  0  0  0  0
   -1.7552   22.4571  -23.6730 C   0  0  0  0  0  0  0  0  0  0  0  0
   -3.0881   22.1575  -23.5758 C   0  0  0  0  0  0  0  0  0  0  0  0
   -3.7196   22.1864  -22.3462 C   0  0  0  0  0  0  0  0  0  0  0  0
   -5.0915   21.8144  -22.3170 N   0  0  0  0  0  0  0  0  0  0  0  0
   -5.6912   21.8000  -21.0335 C   0  0  0  0  0  0  0  0  0  0  0  0
   -6.9180   21.4768  -20.9481 O   0  0  0  0  0  0  0  0  0  0  0  0
   -6.5790   23.0507  -16.6103 C   0  0  0  0  0  0  0  0  0  0  0  0
   -6.8211   21.8186  -16.0542 C   0  0  0  0  0  0  0  0  0  0  0  0
   -6.4683   20.6843  -16.7327 C   0  0  0  0  0  0  0  0  0  0  0  0
   -5.8623   20.7774  -17.9908 C   0  0  0  0  0  0  0  0  0  0  0  0
   -5.5090   19.6703  -18.6785 F   0  0  0  0  0  0  0  0  0  0  0  0
   -5.6128   22.0042  -18.5612 C   0  0  0  0  0  0  0  0  0  0  0  0
   -5.9696   23.1334  -17.8752 C   0  0  0  0  0  0  0  0  0  0  0  0
   -5.7503   24.3757  -18.3836 F   0  0  0  0  0  0  0  0  0  0  0  0
   -6.0912   24.8968  -15.0512 C   0  0  0  0  0  0  0  0  0  0  0  0
   -6.9349   24.1983  -15.9278 O   0  0  0  0  0  0  0  0  0  0  0  0
   -6.6846   19.4249  -16.2301 O   0  0  0  0  0  0  0  0  0  0  0  0
   -7.2121   19.1443  -14.9625 C   0  0  0  0  0  0  0  0  0  0  0  0
   -0.9685   22.4299  -24.8887 C   0  0  0  0  0  0  0  0  0  0  0  0
   -1.4109   22.8608  -26.1442 C   0  0  0  0  0  0  0  0  0  0  0  0
   -0.4660   22.6770  -27.0610 N   0  0  0  0  0  0  0  0  0  0  0  0
   -0.5643   23.0144  -28.4900 C   0  0  0  0  0  0  0  0  0  0  0  0
    0.5558   22.1469  -26.4360 N   0  0  0  0  0  0  0  0  0  0  0  0
    0.2970   21.9766  -25.1071 C   0  0  0  0  0  0  0  0  0  0  0  0
    1.2579   21.3839  -24.1383 C   0  0  0  0  0  0  0  0  0  0  0  0
   -5.8347   21.4559  -23.5055 C   0  0  0  0  0  0  0  0  0  0  0  0
   -5.9993   22.5928  -24.4252 C   0  0  0  0  0  0  0  0  0  0  0  0
   -6.6899   23.7393  -24.0733 C   0  0  0  0  0  0  0  0  0  0  0  0
   -6.8306   24.7968  -24.9732 C   0  0  0  0  0  0  0  0  0  0  0  0
   -6.2900   24.7265  -26.2246 C   0  0  0  0  0  0  0  0  0  0  0  0
   -6.4151   25.7625  -27.1369 O   0  0  0  0  0  0  0  0  0  0  0  0
   -5.5321   25.9306  -28.2288 C   0  0  0  0  0  0  0  0  0  0  0  0
   -4.9619   24.6458  -28.7420 C   0  0  0  0  0  0  0  0  0  0  0  0
   -5.0661   23.5568  -27.8688 O   0  0  0  0  0  0  0  0  0  0  0  0
   -5.6001   23.5926  -26.5915 C   0  0  0  0  0  0  0  0  0  0  0  0
   -5.4589   22.5312  -25.6880 C   0  0  0  0  0  0  0  0  0  0  0  0
 20 21  1  0  0  0
 21 12  1  0  0  0
 12 13  2  0  0  0
 13 14  1  0  0  0
 14 22  1  0  0  0
 22 23  1  0  0  0
 14 15  2  0  0  0
 15 16  1  0  0  0
 15 17  1  0  0  0
 17  1  1  0  0  0
  1  2  1  0  0  0
  2  3  1  0  0  0
  3  4  2  0  0  0
  4  5  1  0  0  0
  5  6  2  0  0  0
  6  7  1  0  0  0
  7  8  2  0  0  0
  8  9  1  0  0  0
  9 31  1  0  0  0
 31 32  1  0  0  0
 32 33  2  0  0  0
 33 34  1  0  0  0
 34 35  2  0  0  0
 35 36  1  0  0  0
 36 37  1  0  0  0
 37 38  1  0  0  0
 38 39  1  0  0  0
 39 40  1  0  0  0
 40 41  2  0  0  0
  9 10  1  0  0  0
 10 11  2  0  0  0
  6 24  1  0  0  0
 24 25  2  0  0  0
 25 26  1  0  0  0
 26 27  1  0  0  0
 26 28  1  0  0  0
 28 29  2  0  0  0
 29 30  1  0  0  0
 17 18  2  0  0  0
 18 19  1  0  0  0
 18 12  1  0  0  0
 10  1  1  0  0  0
 29 24  1  0  0  0
  8  3  1  0  0  0
 41 32  1  0  0  0
 40 35  1  0  0  0
M  END
> <minimizedAffinity>
-8.61961

> <CNNscore>
0.1830479503

> <CNNaffinity>
7.2244672775

> <CNN_VS>
1.3224239349

> <CNNaffinity_variance>
0.0323206484

$$$$
[H]c1nc(-c2c(C([H])([H])[H])nn(C([H])([H])[H])c2[H])c([H])c2c1C([H])([H])N(c1c(F)c(OC([H])([H])[H])c([H])c(OC([H])([H])[H])c1F)C(=O)N2C([H])([H])c1c([H])c([H])c2c(c1[H])OC([H])([H])C([H])([H])O2


 41 46  0  0  0  0  0  0  0  0999 V2000
   -6.1344   23.7831  -22.3897 N   0  0  0  0  0  0  0  0  0  0  0  0
   -5.0294   23.9215  -21.5007 C   0  0  0  0  0  0  0  0  0  0  0  0
   -3.7819   23.3747  -22.0606 C   0  0  0  0  0  0  0  0  0  0  0  0
   -2.6535   23.3372  -21.2171 C   0  0  0  0  0  0  0  0  0  0  0  0
   -1.5091   22.8694  -21.6996 N   0  0  0  0  0  0  0  0  0  0  0  0
   -1.3548   22.4162  -22.9827 C   0  0  0  0  0  0  0  0  0  0  0  0
   -2.4452   22.4471  -23.8109 C   0  0  0  0  0  0  0  0  0  0  0  0
   -3.6567   22.9260  -23.3479 C   0  0  0  0  0  0  0  0  0  0  0  0
   -4.7553   22.8797  -24.2492 N   0  0  0  0  0  0  0  0  0  0  0  0
   -5.9933   23.3248  -23.7235 C   0  0  0  0  0  0  0  0  0  0  0  0
   -7.0103   23.3075  -24.4867 O   0  0  0  0  0  0  0  0  0  0  0  0
   -9.1589   25.7955  -21.5273 C   0  0  0  0  0  0  0  0  0  0  0  0
   -9.9433   24.8678  -20.8869 C   0  0  0  0  0  0  0  0  0  0  0  0
   -9.4942   23.5843  -20.7363 C   0  0  0  0  0  0  0  0  0  0  0  0
   -8.2389   23.2159  -21.2334 C   0  0  0  0  0  0  0  0  0  0  0  0
   -7.7781   21.9537  -21.0980 F   0  0  0  0  0  0  0  0  0  0  0  0
   -7.4411   24.1335  -21.8769 C   0  0  0  0  0  0  0  0  0  0  0  0
   -7.8989   25.4150  -22.0232 C   0  0  0  0  0  0  0  0  0  0  0  0
   -7.1592   26.3693  -22.6493 F   0  0  0  0  0  0  0  0  0  0  0  0
  -10.0418   27.9152  -20.6306 C   0  0  0  0  0  0  0  0  0  0  0  0
   -9.6100   27.0924  -21.6817 O   0  0  0  0  0  0  0  0  0  0  0  0
  -10.2317   22.6123  -20.1064 O   0  0  0  0  0  0  0  0  0  0  0  0
  -10.1466   22.2940  -18.7444 C   0  0  0  0  0  0  0  0  0  0  0  0
   -0.0433   21.9090  -23.3296 C   0  0  0  0  0  0  0  0  0  0  0  0
    0.8616   21.3340  -22.4306 C   0  0  0  0  0  0  0  0  0  0  0  0
    1.9877   20.9977  -23.0519 N   0  0  0  0  0  0  0  0  0  0  0  0
    3.1643   20.3642  -22.4357 C   0  0  0  0  0  0  0  0  0  0  0  0
    1.8315   21.3373  -24.3073 N   0  0  0  0  0  0  0  0  0  0  0  0
    0.6069   21.8979  -24.5261 C   0  0  0  0  0  0  0  0  0  0  0  0
    0.1414   22.3979  -25.8477 C   0  0  0  0  0  0  0  0  0  0  0  0
   -4.6377   22.3983  -25.6085 C   0  0  0  0  0  0  0  0  0  0  0  0
   -4.7730   23.4795  -26.5975 C   0  0  0  0  0  0  0  0  0  0  0  0
   -4.4181   24.7882  -26.3210 C   0  0  0  0  0  0  0  0  0  0  0  0
   -4.5644   25.7897  -27.2821 C   0  0  0  0  0  0  0  0  0  0  0  0
   -5.0620   25.5030  -28.5203 C   0  0  0  0  0  0  0  0  0  0  0  0
   -5.2171   26.4787  -29.4925 O   0  0  0  0  0  0  0  0  0  0  0  0
   -5.2913   26.1782  -30.8725 C   0  0  0  0  0  0  0  0  0  0  0  0
   -5.8879   24.8369  -31.1627 C   0  0  0  0  0  0  0  0  0  0  0  0
   -5.9222   23.9528  -30.0780 O   0  0  0  0  0  0  0  0  0  0  0  0
   -5.4208   24.2059  -28.8122 C   0  0  0  0  0  0  0  0  0  0  0  0
   -5.2737   23.2008  -27.8475 C   0  0  0  0  0  0  0  0  0  0  0  0
 20 21  1  0  0  0
 21 12  1  0  0  0
 12 13  2  0  0  0
 13 14  1  0  0  0
 14 22  1  0  0  0
 22 23  1  0  0  0
 14 15  2  0  0  0
 15 16  1  0  0  0
 15 17  1  0  0  0
 17  1  1  0  0  0
  1  2  1  0  0  0
  2  3  1  0  0  0
  3  4  2  0  0  0
  4  5  1  0  0  0
  5  6  2  0  0  0
  6  7  1  0  0  0
  7  8  2  0  0  0
  8  9  1  0  0  0
  9 31  1  0  0  0
 31 32  1  0  0  0
 32 33  2  0  0  0
 33 34  1  0  0  0
 34 35  2  0  0  0
 35 36  1  0  0  0
 36 37  1  0  0  0
 37 38  1  0  0  0
 38 39  1  0  0  0
 39 40  1  0  0  0
 40 41  2  0  0  0
  9 10  1  0  0  0
 10 11  2  0  0  0
  6 24  1  0  0  0
 24 25  2  0  0  0
 25 26  1  0  0  0
 26 27  1  0  0  0
 26 28  1  0  0  0
 28 29  2  0  0  0
 29 30  1  0  0  0
 17 18  2  0  0  0
 18 19  1  0  0  0
 18 12  1  0  0  0
 10  1  1  0  0  0
 29 24  1  0  0  0
  8  3  1  0  0  0
 41 32  1  0  0  0
 40 35  1  0  0  0
M  END
> <minimizedAffinity>
-10.09080

> <CNNscore>
0.1755034178

> <CNNaffinity>
7.3128829002

> <CNN_VS>
1.2834359407

> <CNNaffinity_variance>
0.2274888009

$$$$
[H]c1nc(-c2c(C([H])([H])[H])nn(C([H])([H])[H])c2[H])c([H])c2c1C([H])([H])N(c1c(F)c(OC([H])([H])[H])c([H])c(OC([H])([H])[H])c1F)C(=O)N2C([H])([H])c1c([H])c([H])c2c(c1[H])OC([H])([H])C([H])([H])O2


 41 46  0  0  0  0  0  0  0  0999 V2000
   -6.0386   23.7273  -22.4294 N   0  0  0  0  0  0  0  0  0  0  0  0
   -4.9543   23.8539  -21.5134 C   0  0  0  0  0  0  0  0  0  0  0  0
   -3.6963   23.3059  -22.0480 C   0  0  0  0  0  0  0  0  0  0  0  0
   -2.5883   23.2568  -21.1784 C   0  0  0  0  0  0  0  0  0  0  0  0
   -1.4348   22.7877  -21.6373 N   0  0  0  0  0  0  0  0  0  0  0  0
   -1.2521   22.3437  -22.9200 C   0  0  0  0  0  0  0  0  0  0  0  0
   -2.3225   22.3859  -23.7735 C   0  0  0  0  0  0  0  0  0  0  0  0
   -3.5426   22.8666  -23.3354 C   0  0  0  0  0  0  0  0  0  0  0  0
   -4.6198   22.8322  -24.2628 N   0  0  0  0  0  0  0  0  0  0  0  0
   -5.8679   23.2787  -23.7630 C   0  0  0  0  0  0  0  0  0  0  0  0
   -6.8666   23.2719  -24.5500 O   0  0  0  0  0  0  0  0  0  0  0  0
   -9.3722   23.4579  -20.7695 C   0  0  0  0  0  0  0  0  0  0  0  0
   -9.9084   24.6995  -21.0076 C   0  0  0  0  0  0  0  0  0  0  0  0
   -9.1876   25.6300  -21.7049 C   0  0  0  0  0  0  0  0  0  0  0  0
   -7.9065   25.3190  -22.1748 C   0  0  0  0  0  0  0  0  0  0  0  0
   -7.1772   26.2239  -22.8625 F   0  0  0  0  0  0  0  0  0  0  0  0
   -7.3555   24.0796  -21.9448 C   0  0  0  0  0  0  0  0  0  0  0  0
   -8.0839   23.1554  -21.2460 C   0  0  0  0  0  0  0  0  0  0  0  0
   -7.5966   21.9126  -20.9852 F   0  0  0  0  0  0  0  0  0  0  0  0
  -10.3567   22.5788  -18.6875 C   0  0  0  0  0  0  0  0  0  0  0  0
  -10.0974   22.5161  -20.0648 O   0  0  0  0  0  0  0  0  0  0  0  0
   -9.6686   26.8876  -21.9741 O   0  0  0  0  0  0  0  0  0  0  0  0
  -11.0090   27.1957  -22.2430 C   0  0  0  0  0  0  0  0  0  0  0  0
    0.0650   21.8333  -23.2398 C   0  0  0  0  0  0  0  0  0  0  0  0
    0.9444   21.2439  -22.3250 C   0  0  0  0  0  0  0  0  0  0  0  0
    2.0839   20.9084  -22.9218 N   0  0  0  0  0  0  0  0  0  0  0  0
    3.2417   20.2621  -22.2836 C   0  0  0  0  0  0  0  0  0  0  0  0
    1.9607   21.2622  -24.1769 N   0  0  0  0  0  0  0  0  0  0  0  0
    0.7447   21.8317  -24.4199 C   0  0  0  0  0  0  0  0  0  0  0  0
    0.3146   22.3482  -25.7471 C   0  0  0  0  0  0  0  0  0  0  0  0
   -4.4721   22.3608  -25.6227 C   0  0  0  0  0  0  0  0  0  0  0  0
   -4.6357   23.4406  -26.6089 C   0  0  0  0  0  0  0  0  0  0  0  0
   -4.2656   24.7482  -26.3473 C   0  0  0  0  0  0  0  0  0  0  0  0
   -4.4396   25.7484  -27.3051 C   0  0  0  0  0  0  0  0  0  0  0  0
   -4.9801   25.4616  -28.5252 C   0  0  0  0  0  0  0  0  0  0  0  0
   -5.1634   26.4361  -29.4937 O   0  0  0  0  0  0  0  0  0  0  0  0
   -5.2856   26.1331  -30.8697 C   0  0  0  0  0  0  0  0  0  0  0  0
   -5.8978   24.7940  -31.1368 C   0  0  0  0  0  0  0  0  0  0  0  0
   -5.8995   23.9122  -30.0496 O   0  0  0  0  0  0  0  0  0  0  0  0
   -5.3546   24.1656  -28.8020 C   0  0  0  0  0  0  0  0  0  0  0  0
   -5.1796   23.1617  -27.8406 C   0  0  0  0  0  0  0  0  0  0  0  0
 20 21  1  0  0  0
 21 12  1  0  0  0
 12 13  2  0  0  0
 13 14  1  0  0  0
 14 22  1  0  0  0
 22 23  1  0  0  0
 14 15  2  0  0  0
 15 16  1  0  0  0
 15 17  1  0  0  0
 17  1  1  0  0  0
  1  2  1  0  0  0
  2  3  1  0  0  0
  3  4  2  0  0  0
  4  5  1  0  0  0
  5  6  2  0  0  0
  6  7  1  0  0  0
  7  8  2  0  0  0
  8  9  1  0  0  0
  9 31  1  0  0  0
 31 32  1  0  0  0
 32 33  2  0  0  0
 33 34  1  0  0  0
 34 35  2  0  0  0
 35 36  1  0  0  0
 36 37  1  0  0  0
 37 38  1  0  0  0
 38 39  1  0  0  0
 39 40  1  0  0  0
 40 41  2  0  0  0
  9 10  1  0  0  0
 10 11  2  0  0  0
  6 24  1  0  0  0
 24 25  2  0  0  0
 25 26  1  0  0  0
 26 27  1  0  0  0
 26 28  1  0  0  0
 28 29  2  0  0  0
 29 30  1  0  0  0
 17 18  2  0  0  0
 18 19  1  0  0  0
 18 12  1  0  0  0
 10  1  1  0  0  0
 29 24  1  0  0  0
  8  3  1  0  0  0
 41 32  1  0  0  0
 40 35  1  0  0  0
M  END
> <minimizedAffinity>
-10.14663

> <CNNscore>
0.1744287014

> <CNNaffinity>
7.2904043198

> <CNN_VS>
1.2716557980

> <CNNaffinity_variance>
0.2661604881

$$$$
[H]c1nc(-c2c(C([H])([H])[H])nn(C([H])([H])[H])c2[H])c([H])c2c1C([H])([H])N(c1c(F)c(OC([H])([H])[H])c([H])c(OC([H])([H])[H])c1F)C(=O)N2C([H])([H])c1c([H])c([H])c2c(c1[H])OC([H])([H])C([H])([H])O2


 41 46  0  0  0  0  0  0  0  0999 V2000
   -0.6916   22.0633  -20.5104 N   0  0  0  0  0  0  0  0  0  0  0  0
    0.0286   21.6355  -21.6633 C   0  0  0  0  0  0  0  0  0  0  0  0
   -0.6551   21.9876  -22.9192 C   0  0  0  0  0  0  0  0  0  0  0  0
   -0.1010   21.4982  -24.1191 C   0  0  0  0  0  0  0  0  0  0  0  0
   -0.6825   21.8159  -25.2690 N   0  0  0  0  0  0  0  0  0  0  0  0
   -1.8011   22.6006  -25.3628 C   0  0  0  0  0  0  0  0  0  0  0  0
   -2.3486   23.0808  -24.2028 C   0  0  0  0  0  0  0  0  0  0  0  0
   -1.7746   22.7729  -22.9833 C   0  0  0  0  0  0  0  0  0  0  0  0
   -2.4280   23.2650  -21.8205 N   0  0  0  0  0  0  0  0  0  0  0  0
   -1.8454   22.8828  -20.5869 C   0  0  0  0  0  0  0  0  0  0  0  0
   -2.3873   23.2966  -19.5137 O   0  0  0  0  0  0  0  0  0  0  0  0
    1.1811   22.0244  -17.2805 C   0  0  0  0  0  0  0  0  0  0  0  0
    0.8041   20.8155  -16.7490 C   0  0  0  0  0  0  0  0  0  0  0  0
   -0.0626   20.0103  -17.4362 C   0  0  0  0  0  0  0  0  0  0  0  0
   -0.5651   20.4163  -18.6776 C   0  0  0  0  0  0  0  0  0  0  0  0
   -1.4239   19.6381  -19.3708 F   0  0  0  0  0  0  0  0  0  0  0  0
   -0.1970   21.6242  -19.2236 C   0  0  0  0  0  0  0  0  0  0  0  0
    0.6702   22.4231  -18.5288 C   0  0  0  0  0  0  0  0  0  0  0  0
    1.0734   23.6284  -19.0133 F   0  0  0  0  0  0  0  0  0  0  0  0
    3.4539   22.7500  -16.6604 C   0  0  0  0  0  0  0  0  0  0  0  0
    2.0557   22.8403  -16.5886 O   0  0  0  0  0  0  0  0  0  0  0  0
   -0.4769   18.7919  -16.9574 O   0  0  0  0  0  0  0  0  0  0  0  0
   -1.5489   18.5961  -16.0764 C   0  0  0  0  0  0  0  0  0  0  0  0
   -2.3213   22.8177  -26.6970 C   0  0  0  0  0  0  0  0  0  0  0  0
   -3.6781   22.8536  -27.0365 C   0  0  0  0  0  0  0  0  0  0  0  0
   -3.8277   23.0398  -28.3443 N   0  0  0  0  0  0  0  0  0  0  0  0
   -5.1056   23.1373  -29.0675 C   0  0  0  0  0  0  0  0  0  0  0  0
   -2.6203   23.1226  -28.8453 N   0  0  0  0  0  0  0  0  0  0  0  0
   -1.6665   22.9928  -27.8782 C   0  0  0  0  0  0  0  0  0  0  0  0
   -0.2023   23.0287  -28.1391 C   0  0  0  0  0  0  0  0  0  0  0  0
   -3.6172   24.0873  -21.8751 C   0  0  0  0  0  0  0  0  0  0  0  0
   -4.8393   23.3220  -21.5813 C   0  0  0  0  0  0  0  0  0  0  0  0
   -5.3404   22.3624  -22.4434 C   0  0  0  0  0  0  0  0  0  0  0  0
   -6.5055   21.6587  -22.1346 C   0  0  0  0  0  0  0  0  0  0  0  0
   -7.1807   21.8997  -20.9731 C   0  0  0  0  0  0  0  0  0  0  0  0
   -8.3395   21.2148  -20.6426 O   0  0  0  0  0  0  0  0  0  0  0  0
   -8.8061   21.0985  -19.3126 C   0  0  0  0  0  0  0  0  0  0  0  0
   -8.4401   22.2615  -18.4450 C   0  0  0  0  0  0  0  0  0  0  0  0
   -7.4078   23.0695  -18.9360 O   0  0  0  0  0  0  0  0  0  0  0  0
   -6.6963   22.8517  -20.1040 C   0  0  0  0  0  0  0  0  0  0  0  0
   -5.5268   23.5580  -20.4141 C   0  0  0  0  0  0  0  0  0  0  0  0
 20 21  1  0  0  0
 21 12  1  0  0  0
 12 13  2  0  0  0
 13 14  1  0  0  0
 14 22  1  0  0  0
 22 23  1  0  0  0
 14 15  2  0  0  0
 15 16  1  0  0  0
 15 17  1  0  0  0
 17  1  1  0  0  0
  1  2  1  0  0  0
  2  3  1  0  0  0
  3  4  2  0  0  0
  4  5  1  0  0  0
  5  6  2  0  0  0
  6  7  1  0  0  0
  7  8  2  0  0  0
  8  9  1  0  0  0
  9 31  1  0  0  0
 31 32  1  0  0  0
 32 33  2  0  0  0
 33 34  1  0  0  0
 34 35  2  0  0  0
 35 36  1  0  0  0
 36 37  1  0  0  0
 37 38  1  0  0  0
 38 39  1  0  0  0
 39 40  1  0  0  0
 40 41  2  0  0  0
  9 10  1  0  0  0
 10 11  2  0  0  0
  6 24  1  0  0  0
 24 25  2  0  0  0
 25 26  1  0  0  0
 26 27  1  0  0  0
 26 28  1  0  0  0
 28 29  2  0  0  0
 29 30  1  0  0  0
 17 18  2  0  0  0
 18 19  1  0  0  0
 18 12  1  0  0  0
 10  1  1  0  0  0
 29 24  1  0  0  0
  8  3  1  0  0  0
 41 32  1  0  0  0
 40 35  1  0  0  0
M  END
> <minimizedAffinity>
-8.51640

> <CNNscore>
0.1519151032

> <CNNaffinity>
7.0159292221

> <CNN_VS>
1.0658255816

> <CNNaffinity_variance>
0.0749584734

$$$$
[H]c1nc(-c2c(C([H])([H])[H])nn(C([H])([H])[H])c2[H])c([H])c2c1C([H])([H])N(c1c(F)c(OC([H])([H])[H])c([H])c(OC([H])([H])[H])c1F)C(=O)N2C([H])([H])c1c([H])c([H])c2c(c1[H])OC([H])([H])C([H])([H])O2


 41 46  0  0  0  0  0  0  0  0999 V2000
   -0.6623   22.0845  -20.5612 N   0  0  0  0  0  0  0  0  0  0  0  0
    0.0424   21.6598  -21.7247 C   0  0  0  0  0  0  0  0  0  0  0  0
   -0.6609   22.0098  -22.9703 C   0  0  0  0  0  0  0  0  0  0  0  0
   -0.1227   21.5229  -24.1784 C   0  0  0  0  0  0  0  0  0  0  0  0
   -0.7221   21.8388  -25.3194 N   0  0  0  0  0  0  0  0  0  0  0  0
   -1.8448   22.6195  -25.3965 C   0  0  0  0  0  0  0  0  0  0  0  0
   -2.3770   23.0973  -24.2285 C   0  0  0  0  0  0  0  0  0  0  0  0
   -1.7841   22.7910  -23.0176 C   0  0  0  0  0  0  0  0  0  0  0  0
   -2.4222   23.2803  -21.8451 N   0  0  0  0  0  0  0  0  0  0  0  0
   -1.8202   22.8998  -20.6204 C   0  0  0  0  0  0  0  0  0  0  0  0
   -2.3478   23.3113  -19.5392 O   0  0  0  0  0  0  0  0  0  0  0  0
   -0.0371   19.9647  -17.5518 C   0  0  0  0  0  0  0  0  0  0  0  0
    0.7989   20.7637  -16.8112 C   0  0  0  0  0  0  0  0  0  0  0  0
    1.1657   21.9923  -17.2884 C   0  0  0  0  0  0  0  0  0  0  0  0
    0.6911   22.4351  -18.5283 C   0  0  0  0  0  0  0  0  0  0  0  0
    1.0433   23.6430  -19.0189 F   0  0  0  0  0  0  0  0  0  0  0  0
   -0.1473   21.6468  -19.2820 C   0  0  0  0  0  0  0  0  0  0  0  0
   -0.5084   20.4191  -18.7966 C   0  0  0  0  0  0  0  0  0  0  0  0
   -1.3341   19.5920  -19.4925 F   0  0  0  0  0  0  0  0  0  0  0  0
    0.2625   17.5253  -17.3615 C   0  0  0  0  0  0  0  0  0  0  0  0
   -0.4087   18.7229  -17.0730 O   0  0  0  0  0  0  0  0  0  0  0  0
    1.9985   22.8359  -16.5955 O   0  0  0  0  0  0  0  0  0  0  0  0
    3.3941   22.8684  -16.7186 C   0  0  0  0  0  0  0  0  0  0  0  0
   -2.3853   22.8352  -26.7229 C   0  0  0  0  0  0  0  0  0  0  0  0
   -3.7471   22.8710  -27.0417 C   0  0  0  0  0  0  0  0  0  0  0  0
   -3.9167   23.0557  -28.3472 N   0  0  0  0  0  0  0  0  0  0  0  0
   -5.2055   23.1527  -29.0509 C   0  0  0  0  0  0  0  0  0  0  0  0
   -2.7171   23.1376  -28.8667 N   0  0  0  0  0  0  0  0  0  0  0  0
   -1.7487   23.0087  -27.9141 C   0  0  0  0  0  0  0  0  0  0  0  0
   -0.2886   23.0439  -28.1974 C   0  0  0  0  0  0  0  0  0  0  0  0
   -3.6151   24.0982  -21.8820 C   0  0  0  0  0  0  0  0  0  0  0  0
   -4.8315   23.3255  -21.5841 C   0  0  0  0  0  0  0  0  0  0  0  0
   -5.3158   22.3457  -22.4330 C   0  0  0  0  0  0  0  0  0  0  0  0
   -6.4760   21.6354  -22.1207 C   0  0  0  0  0  0  0  0  0  0  0  0
   -7.1628   21.8897  -20.9689 C   0  0  0  0  0  0  0  0  0  0  0  0
   -8.3170   21.1986  -20.6353 O   0  0  0  0  0  0  0  0  0  0  0  0
   -8.7929   21.1010  -19.3071 C   0  0  0  0  0  0  0  0  0  0  0  0
   -8.4457   22.2828  -18.4574 C   0  0  0  0  0  0  0  0  0  0  0  0
   -7.4180   23.0927  -18.9547 O   0  0  0  0  0  0  0  0  0  0  0  0
   -6.6951   22.8619  -20.1131 C   0  0  0  0  0  0  0  0  0  0  0  0
   -5.5305   23.5748  -20.4266 C   0  0  0  0  0  0  0  0  0  0  0  0
 20 21  1  0  0  0
 21 12  1  0  0  0
 12 13  2  0  0  0
 13 14  1  0  0  0
 14 22  1  0  0  0
 22 23  1  0  0  0
 14 15  2  0  0  0
 15 16  1  0  0  0
 15 17  1  0  0  0
 17  1  1  0  0  0
  1  2  1  0  0  0
  2  3  1  0  0  0
  3  4  2  0  0  0
  4  5  1  0  0  0
  5  6  2  0  0  0
  6  7  1  0  0  0
  7  8  2  0  0  0
  8  9  1  0  0  0
  9 31  1  0  0  0
 31 32  1  0  0  0
 32 33  2  0  0  0
 33 34  1  0  0  0
 34 35  2  0  0  0
 35 36  1  0  0  0
 36 37  1  0  0  0
 37 38  1  0  0  0
 38 39  1  0  0  0
 39 40  1  0  0  0
 40 41  2  0  0  0
  9 10  1  0  0  0
 10 11  2  0  0  0
  6 24  1  0  0  0
 24 25  2  0  0  0
 25 26  1  0  0  0
 26 27  1  0  0  0
 26 28  1  0  0  0
 28 29  2  0  0  0
 29 30  1  0  0  0
 17 18  2  0  0  0
 18 19  1  0  0  0
 18 12  1  0  0  0
 10  1  1  0  0  0
 29 24  1  0  0  0
  8  3  1  0  0  0
 41 32  1  0  0  0
 40 35  1  0  0  0
M  END
> <minimizedAffinity>
-8.50550

> <CNNscore>
0.1514810026

> <CNNaffinity>
7.0424256325

> <CNN_VS>
1.0667936802

> <CNNaffinity_variance>
0.0667305961

$$$$
[H]c1nc(-c2c(C([H])([H])[H])nn(C([H])([H])[H])c2[H])c([H])c2c1C([H])([H])N(c1c(F)c(OC([H])([H])[H])c([H])c(OC([H])([H])[H])c1F)C(=O)N2C([H])([H])c1c([H])c([H])c2c(c1[H])OC([H])([H])C([H])([H])O2


 41 46  0  0  0  0  0  0  0  0999 V2000
   -4.9047   22.2087  -19.7338 N   0  0  0  0  0  0  0  0  0  0  0  0
   -3.5583   22.6723  -19.7863 C   0  0  0  0  0  0  0  0  0  0  0  0
   -2.9794   22.5746  -21.1369 C   0  0  0  0  0  0  0  0  0  0  0  0
   -1.6112   22.8807  -21.2803 C   0  0  0  0  0  0  0  0  0  0  0  0
   -1.0656   22.8222  -22.4886 N   0  0  0  0  0  0  0  0  0  0  0  0
   -1.7588   22.4795  -23.6190 C   0  0  0  0  0  0  0  0  0  0  0  0
   -3.0889   22.1791  -23.4911 C   0  0  0  0  0  0  0  0  0  0  0  0
   -3.6964   22.2269  -22.2500 C   0  0  0  0  0  0  0  0  0  0  0  0
   -5.0667   21.8529  -22.1880 N   0  0  0  0  0  0  0  0  0  0  0  0
   -5.6412   21.8583  -20.8930 C   0  0  0  0  0  0  0  0  0  0  0  0
   -6.8655   21.5343  -20.7784 O   0  0  0  0  0  0  0  0  0  0  0  0
   -6.2851   20.7245  -16.5981 C   0  0  0  0  0  0  0  0  0  0  0  0
   -6.7065   21.8407  -15.9180 C   0  0  0  0  0  0  0  0  0  0  0  0
   -6.5403   23.0796  -16.4738 C   0  0  0  0  0  0  0  0  0  0  0  0
   -5.9422   23.2111  -17.7322 C   0  0  0  0  0  0  0  0  0  0  0  0
   -5.7660   24.4249  -18.2974 F   0  0  0  0  0  0  0  0  0  0  0  0
   -5.5151   22.1028  -18.4263 C   0  0  0  0  0  0  0  0  0  0  0  0
   -5.6852   20.8675  -17.8622 C   0  0  0  0  0  0  0  0  0  0  0  0
   -5.2850   19.7328  -18.4963 F   0  0  0  0  0  0  0  0  0  0  0  0
   -6.5459   19.2211  -14.6620 C   0  0  0  0  0  0  0  0  0  0  0  0
   -6.4509   19.4717  -16.0391 O   0  0  0  0  0  0  0  0  0  0  0  0
   -6.9399   24.2322  -15.8434 O   0  0  0  0  0  0  0  0  0  0  0  0
   -6.3973   24.7255  -14.6493 C   0  0  0  0  0  0  0  0  0  0  0  0
   -0.9959   22.4340  -24.8493 C   0  0  0  0  0  0  0  0  0  0  0  0
   -1.4718   22.8205  -26.1069 C   0  0  0  0  0  0  0  0  0  0  0  0
   -0.5416   22.6300  -27.0373 N   0  0  0  0  0  0  0  0  0  0  0  0
   -0.6750   22.9252  -28.4728 C   0  0  0  0  0  0  0  0  0  0  0  0
    0.5031   22.1383  -26.4188 N   0  0  0  0  0  0  0  0  0  0  0  0
    0.2741   22.0003  -25.0807 C   0  0  0  0  0  0  0  0  0  0  0  0
    1.2660   21.4544  -24.1156 C   0  0  0  0  0  0  0  0  0  0  0  0
   -5.8321   21.4739  -23.3558 C   0  0  0  0  0  0  0  0  0  0  0  0
   -6.0268   22.5982  -24.2850 C   0  0  0  0  0  0  0  0  0  0  0  0
   -6.7146   23.7452  -23.9297 C   0  0  0  0  0  0  0  0  0  0  0  0
   -6.8843   24.7906  -24.8388 C   0  0  0  0  0  0  0  0  0  0  0  0
   -6.3756   24.7076  -26.1026 C   0  0  0  0  0  0  0  0  0  0  0  0
   -6.5299   25.7313  -27.0242 O   0  0  0  0  0  0  0  0  0  0  0  0
   -5.6761   25.8904  -28.1404 C   0  0  0  0  0  0  0  0  0  0  0  0
   -5.1119   24.6024  -28.6522 C   0  0  0  0  0  0  0  0  0  0  0  0
   -5.1875   23.5239  -27.7631 O   0  0  0  0  0  0  0  0  0  0  0  0
   -5.6889   23.5729  -26.4731 C   0  0  0  0  0  0  0  0  0  0  0  0
   -5.5184   22.5237  -25.5604 C   0  0  0  0  0  0  0  0  0  0  0  0
 20 21  1  0  0  0
 21 12  1  0  0  0
 12 13  2  0  0  0
 13 14  1  0  0  0
 14 22  1  0  0  0
 22 23  1  0  0  0
 14 15  2  0  0  0
 15 16  1  0  0  0
 15 17  1  0  0  0
 17  1  1  0  0  0
  1  2  1  0  0  0
  2  3  1  0  0  0
  3  4  2  0  0  0
  4  5  1  0  0  0
  5  6  2  0  0  0
  6  7  1  0  0  0
  7  8  2  0  0  0
  8  9  1  0  0  0
  9 31  1  0  0  0
 31 32  1  0  0  0
 32 33  2  0  0  0
 33 34  1  0  0  0
 34 35  2  0  0  0
 35 36  1  0  0  0
 36 37  1  0  0  0
 37 38  1  0  0  0
 38 39  1  0  0  0
 39 40  1  0  0  0
 40 41  2  0  0  0
  9 10  1  0  0  0
 10 11  2  0  0  0
  6 24  1  0  0  0
 24 25  2  0  0  0
 25 26  1  0  0  0
 26 27  1  0  0  0
 26 28  1  0  0  0
 28 29  2  0  0  0
 29 30  1  0  0  0
 17 18  2  0  0  0
 18 19  1  0  0  0
 18 12  1  0  0  0
 10  1  1  0  0  0
 29 24  1  0  0  0
  8  3  1  0  0  0
 41 32  1  0  0  0
 40 35  1  0  0  0
M  END
> <minimizedAffinity>
-8.57897

> <CNNscore>
0.1510679871

> <CNNaffinity>
7.1637396812

> <CNN_VS>
1.0822117329

> <CNNaffinity_variance>
0.0258999858

$$$$
[H]c1nc(-c2c(C([H])([H])[H])nn(C([H])([H])[H])c2[H])c([H])c2c1C([H])([H])N(c1c(F)c(OC([H])([H])[H])c([H])c(OC([H])([H])[H])c1F)C(=O)N2C([H])([H])C1([H])C([H])([H])C(=O)N(C([H])([H])[H])C1([H])[H]


 38 42  0  0  0  0  0  0  0  0999 V2000
   -6.1353   22.7679  -22.6416 N   0  0  0  0  0  0  0  0  0  0  0  0
   -7.0083   23.6349  -23.3450 C   0  0  0  0  0  0  0  0  0  0  0  0
   -6.6108   23.8636  -24.7449 C   0  0  0  0  0  0  0  0  0  0  0  0
   -7.3656   24.7805  -25.4465 C   0  0  0  0  0  0  0  0  0  0  0  0
   -7.1308   25.0873  -26.7199 N   0  0  0  0  0  0  0  0  0  0  0  0
   -6.1098   24.4840  -27.3753 C   0  0  0  0  0  0  0  0  0  0  0  0
   -5.3512   23.5737  -26.6974 C   0  0  0  0  0  0  0  0  0  0  0  0
   -5.5491   23.2178  -25.3794 C   0  0  0  0  0  0  0  0  0  0  0  0
   -4.7339   22.3105  -24.6769 N   0  0  0  0  0  0  0  0  0  0  0  0
   -5.0736   22.1148  -23.2827 C   0  0  0  0  0  0  0  0  0  0  0  0
   -4.3749   21.3162  -22.6191 O   0  0  0  0  0  0  0  0  0  0  0  0
   -5.7709   22.9943  -18.9326 C   0  0  0  0  0  0  0  0  0  0  0  0
   -6.7983   22.1935  -18.4893 C   0  0  0  0  0  0  0  0  0  0  0  0
   -7.6250   21.5691  -19.4202 C   0  0  0  0  0  0  0  0  0  0  0  0
   -7.3921   21.7700  -20.7716 C   0  0  0  0  0  0  0  0  0  0  0  0
   -8.2241   21.1408  -21.6349 F   0  0  0  0  0  0  0  0  0  0  0  0
   -6.3662   22.5696  -21.2280 C   0  0  0  0  0  0  0  0  0  0  0  0
   -5.5611   23.1772  -20.2876 C   0  0  0  0  0  0  0  0  0  0  0  0
   -4.5288   23.9796  -20.6400 F   0  0  0  0  0  0  0  0  0  0  0  0
   -5.5083   24.3682  -16.9257 C   0  0  0  0  0  0  0  0  0  0  0  0
   -4.9560   23.6094  -17.9820 O   0  0  0  0  0  0  0  0  0  0  0  0
   -8.6616   20.7614  -19.0033 O   0  0  0  0  0  0  0  0  0  0  0  0
   -9.7743   21.2958  -18.3109 C   0  0  0  0  0  0  0  0  0  0  0  0
   -5.8404   24.8116  -28.7729 C   0  0  0  0  0  0  0  0  0  0  0  0
   -5.9654   26.0596  -29.3261 C   0  0  0  0  0  0  0  0  0  0  0  0
   -5.6338   25.9754  -30.6280 N   0  0  0  0  0  0  0  0  0  0  0  0
   -5.6243   27.0540  -31.5951 C   0  0  0  0  0  0  0  0  0  0  0  0
   -5.3100   24.7313  -30.9028 N   0  0  0  0  0  0  0  0  0  0  0  0
   -5.4270   23.9808  -29.7741 C   0  0  0  0  0  0  0  0  0  0  0  0
   -5.1527   22.5311  -29.6650 C   0  0  0  0  0  0  0  0  0  0  0  0
   -3.6375   21.6616  -25.2756 C   0  0  0  0  0  0  0  0  0  0  0  0
   -2.3226   22.3059  -25.3295 C   0  0  0  0  0  0  0  0  0  0  0  0
   -1.1615   21.7435  -24.6052 C   0  0  0  0  0  0  0  0  0  0  0  0
   -0.0142   22.3725  -25.3078 N   0  0  0  0  0  0  0  0  0  0  0  0
    1.1817   22.8539  -24.6964 C   0  0  0  0  0  0  0  0  0  0  0  0
   -0.3562   22.3892  -26.6849 C   0  0  0  0  0  0  0  0  0  0  0  0
    0.4030   22.5150  -27.6548 O   0  0  0  0  0  0  0  0  0  0  0  0
   -1.8278   22.2255  -26.7931 C   0  0  0  0  0  0  0  0  0  0  0  0
 20 21  1  0  0  0
 21 12  1  0  0  0
 12 13  2  0  0  0
 13 14  1  0  0  0
 14 22  1  0  0  0
 22 23  1  0  0  0
 14 15  2  0  0  0
 15 16  1  0  0  0
 15 17  1  0  0  0
 17  1  1  0  0  0
  1  2  1  0  0  0
  2  3  1  0  0  0
  3  4  2  0  0  0
  4  5  1  0  0  0
  5  6  2  0  0  0
  6  7  1  0  0  0
  7  8  2  0  0  0
  8  9  1  0  0  0
  9 31  1  0  0  0
 31 32  1  0  0  0
 32 33  1  0  0  0
 33 34  1  0  0  0
 34 35  1  0  0  0
 34 36  1  0  0  0
 36 37  2  0  0  0
 36 38  1  0  0  0
  9 10  1  0  0  0
 10 11  2  0  0  0
  6 24  1  0  0  0
 24 25  2  0  0  0
 25 26  1  0  0  0
 26 27  1  0  0  0
 26 28  1  0  0  0
 28 29  2  0  0  0
 29 30  1  0  0  0
 17 18  2  0  0  0
 18 19  1  0  0  0
 18 12  1  0  0  0
 10  1  1  0  0  0
 29 24  1  0  0  0
  8  3  1  0  0  0
 38 32  1  0  0  0
M  END
> <minimizedAffinity>
-9.21841

> <CNNscore>
0.2456047833

> <CNNaffinity>
7.2748785019

> <CNN_VS>
1.7867449522

> <CNNaffinity_variance>
0.2827961445

$$$$
[H]c1nc(-c2c(C([H])([H])[H])nn(C([H])([H])[H])c2[H])c([H])c2c1C([H])([H])N(c1c(F)c(OC([H])([H])[H])c([H])c(OC([H])([H])[H])c1F)C(=O)N2C([H])([H])C1([H])C([H])([H])C(=O)N(C([H])([H])[H])C1([H])[H]


 38 42  0  0  0  0  0  0  0  0999 V2000
   -6.1411   22.7625  -22.6348 N   0  0  0  0  0  0  0  0  0  0  0  0
   -7.0134   23.6307  -23.3376 C   0  0  0  0  0  0  0  0  0  0  0  0
   -6.6157   23.8602  -24.7372 C   0  0  0  0  0  0  0  0  0  0  0  0
   -7.3697   24.7782  -25.4381 C   0  0  0  0  0  0  0  0  0  0  0  0
   -7.1348   25.0858  -26.7113 N   0  0  0  0  0  0  0  0  0  0  0  0
   -6.1142   24.4822  -27.3672 C   0  0  0  0  0  0  0  0  0  0  0  0
   -5.3563   23.5707  -26.6900 C   0  0  0  0  0  0  0  0  0  0  0  0
   -5.5546   23.2140  -25.3723 C   0  0  0  0  0  0  0  0  0  0  0  0
   -4.7401   22.3055  -24.6704 N   0  0  0  0  0  0  0  0  0  0  0  0
   -5.0799   22.1091  -23.2764 C   0  0  0  0  0  0  0  0  0  0  0  0
   -4.3819   21.3094  -22.6134 O   0  0  0  0  0  0  0  0  0  0  0  0
   -7.6356   21.5643  -19.4299 C   0  0  0  0  0  0  0  0  0  0  0  0
   -6.8340   22.1702  -18.4899 C   0  0  0  0  0  0  0  0  0  0  0  0
   -5.7860   22.9845  -18.9121 C   0  0  0  0  0  0  0  0  0  0  0  0
   -5.5760   23.1647  -20.2702 C   0  0  0  0  0  0  0  0  0  0  0  0
   -4.5442   23.9652  -20.6278 F   0  0  0  0  0  0  0  0  0  0  0  0
   -6.3721   22.5633  -21.2214 C   0  0  0  0  0  0  0  0  0  0  0  0
   -7.4034   21.7617  -20.7793 C   0  0  0  0  0  0  0  0  0  0  0  0
   -8.2380   21.1299  -21.6385 F   0  0  0  0  0  0  0  0  0  0  0  0
   -9.7672   21.2921  -18.2610 C   0  0  0  0  0  0  0  0  0  0  0  0
   -8.6791   20.7531  -18.9836 O   0  0  0  0  0  0  0  0  0  0  0  0
   -4.9676   23.6038  -17.9914 O   0  0  0  0  0  0  0  0  0  0  0  0
   -5.5027   24.4264  -16.9716 C   0  0  0  0  0  0  0  0  0  0  0  0
   -5.8446   24.8106  -28.7645 C   0  0  0  0  0  0  0  0  0  0  0  0
   -5.9680   26.0593  -29.3167 C   0  0  0  0  0  0  0  0  0  0  0  0
   -5.6367   25.9758  -30.6187 N   0  0  0  0  0  0  0  0  0  0  0  0
   -5.6258   27.0552  -31.5848 C   0  0  0  0  0  0  0  0  0  0  0  0
   -5.3146   24.7314  -30.8946 N   0  0  0  0  0  0  0  0  0  0  0  0
   -5.4325   23.9802  -29.7665 C   0  0  0  0  0  0  0  0  0  0  0  0
   -5.1602   22.5299  -29.6588 C   0  0  0  0  0  0  0  0  0  0  0  0
   -3.6442   21.6562  -25.2697 C   0  0  0  0  0  0  0  0  0  0  0  0
   -2.3303   22.3022  -25.3287 C   0  0  0  0  0  0  0  0  0  0  0  0
   -1.1666   21.7432  -24.6059 C   0  0  0  0  0  0  0  0  0  0  0  0
   -0.0219   22.3718  -25.3131 N   0  0  0  0  0  0  0  0  0  0  0  0
    1.1749   22.8565  -24.7061 C   0  0  0  0  0  0  0  0  0  0  0  0
   -0.3675   22.3843  -26.6894 C   0  0  0  0  0  0  0  0  0  0  0  0
    0.3890   22.5084  -27.6616 O   0  0  0  0  0  0  0  0  0  0  0  0
   -1.8391   22.2183  -26.7934 C   0  0  0  0  0  0  0  0  0  0  0  0
 20 21  1  0  0  0
 21 12  1  0  0  0
 12 13  2  0  0  0
 13 14  1  0  0  0
 14 22  1  0  0  0
 22 23  1  0  0  0
 14 15  2  0  0  0
 15 16  1  0  0  0
 15 17  1  0  0  0
 17  1  1  0  0  0
  1  2  1  0  0  0
  2  3  1  0  0  0
  3  4  2  0  0  0
  4  5  1  0  0  0
  5  6  2  0  0  0
  6  7  1  0  0  0
  7  8  2  0  0  0
  8  9  1  0  0  0
  9 31  1  0  0  0
 31 32  1  0  0  0
 32 33  1  0  0  0
 33 34  1  0  0  0
 34 35  1  0  0  0
 34 36  1  0  0  0
 36 37  2  0  0  0
 36 38  1  0  0  0
  9 10  1  0  0  0
 10 11  2  0  0  0
  6 24  1  0  0  0
 24 25  2  0  0  0
 25 26  1  0  0  0
 26 27  1  0  0  0
 26 28  1  0  0  0
 28 29  2  0  0  0
 29 30  1  0  0  0
 17 18  2  0  0  0
 18 19  1  0  0  0
 18 12  1  0  0  0
 10  1  1  0  0  0
 29 24  1  0  0  0
  8  3  1  0  0  0
 38 32  1  0  0  0
M  END
> <minimizedAffinity>
-9.21479

> <CNNscore>
0.2409715205

> <CNNaffinity>
7.2648329735

> <CNN_VS>
1.7506178617

> <CNNaffinity_variance>
0.2834397256

$$$$
[H]c1nc(-c2c(C([H])([H])[H])nn(C([H])([H])[H])c2[H])c([H])c2c1C([H])([H])N(c1c(F)c(OC([H])([H])[H])c([H])c(OC([H])([H])[H])c1F)C(=O)N2C([H])([H])C1([H])C([H])([H])C(=O)N(C([H])([H])[H])C1([H])[H]


 38 42  0  0  0  0  0  0  0  0999 V2000
    0.1234   21.5736  -22.9465 N   0  0  0  0  0  0  0  0  0  0  0  0
    0.3502   22.2414  -24.1758 C   0  0  0  0  0  0  0  0  0  0  0  0
   -0.8695   22.4254  -24.9810 C   0  0  0  0  0  0  0  0  0  0  0  0
   -0.6912   22.9765  -26.2328 C   0  0  0  0  0  0  0  0  0  0  0  0
   -1.6983   23.2080  -27.0712 N   0  0  0  0  0  0  0  0  0  0  0  0
   -2.9631   22.8956  -26.6988 C   0  0  0  0  0  0  0  0  0  0  0  0
   -3.1596   22.3489  -25.4634 C   0  0  0  0  0  0  0  0  0  0  0  0
   -2.1547   22.0879  -24.5551 C   0  0  0  0  0  0  0  0  0  0  0  0
   -2.3629   21.4834  -23.3011 N   0  0  0  0  0  0  0  0  0  0  0  0
   -1.1691   21.2418  -22.5176 C   0  0  0  0  0  0  0  0  0  0  0  0
   -1.3073   20.7058  -21.3951 O   0  0  0  0  0  0  0  0  0  0  0  0
    3.4178   20.1725  -21.8860 C   0  0  0  0  0  0  0  0  0  0  0  0
    3.4956   20.5733  -20.5720 C   0  0  0  0  0  0  0  0  0  0  0  0
    2.4523   21.3153  -20.0236 C   0  0  0  0  0  0  0  0  0  0  0  0
    1.3601   21.6321  -20.8159 C   0  0  0  0  0  0  0  0  0  0  0  0
    0.3736   22.3552  -20.2352 F   0  0  0  0  0  0  0  0  0  0  0  0
    1.2705   21.2364  -22.1333 C   0  0  0  0  0  0  0  0  0  0  0  0
    2.3156   20.5027  -22.6540 C   0  0  0  0  0  0  0  0  0  0  0  0
    2.3169   20.0694  -23.9370 F   0  0  0  0  0  0  0  0  0  0  0  0
    4.6753   18.0805  -22.0472 C   0  0  0  0  0  0  0  0  0  0  0  0
    4.4745   19.4303  -22.4136 O   0  0  0  0  0  0  0  0  0  0  0  0
    2.5047   21.7295  -18.7096 O   0  0  0  0  0  0  0  0  0  0  0  0
    2.7201   20.8068  -17.6584 C   0  0  0  0  0  0  0  0  0  0  0  0
   -4.0779   23.1437  -27.6092 C   0  0  0  0  0  0  0  0  0  0  0  0
   -4.0073   23.0725  -28.9763 C   0  0  0  0  0  0  0  0  0  0  0  0
   -5.2240   23.3626  -29.4739 N   0  0  0  0  0  0  0  0  0  0  0  0
   -5.6052   23.4056  -30.8709 C   0  0  0  0  0  0  0  0  0  0  0  0
   -6.0420   23.6098  -28.4748 N   0  0  0  0  0  0  0  0  0  0  0  0
   -5.3640   23.4830  -27.3022 C   0  0  0  0  0  0  0  0  0  0  0  0
   -5.9290   23.6792  -25.9490 C   0  0  0  0  0  0  0  0  0  0  0  0
   -3.6410   21.1036  -22.8496 C   0  0  0  0  0  0  0  0  0  0  0  0
   -4.4845   22.0442  -22.1076 C   0  0  0  0  0  0  0  0  0  0  0  0
   -4.2624   23.5046  -22.1900 C   0  0  0  0  0  0  0  0  0  0  0  0
   -5.5660   24.0502  -21.7331 N   0  0  0  0  0  0  0  0  0  0  0  0
   -5.7508   25.1938  -20.9003 C   0  0  0  0  0  0  0  0  0  0  0  0
   -6.5630   23.2090  -22.2917 C   0  0  0  0  0  0  0  0  0  0  0  0
   -7.7658   23.4572  -22.4486 O   0  0  0  0  0  0  0  0  0  0  0  0
   -5.9182   21.9286  -22.6775 C   0  0  0  0  0  0  0  0  0  0  0  0
 20 21  1  0  0  0
 21 12  1  0  0  0
 12 13  2  0  0  0
 13 14  1  0  0  0
 14 22  1  0  0  0
 22 23  1  0  0  0
 14 15  2  0  0  0
 15 16  1  0  0  0
 15 17  1  0  0  0
 17  1  1  0  0  0
  1  2  1  0  0  0
  2  3  1  0  0  0
  3  4  2  0  0  0
  4  5  1  0  0  0
  5  6  2  0  0  0
  6  7  1  0  0  0
  7  8  2  0  0  0
  8  9  1  0  0  0
  9 31  1  0  0  0
 31 32  1  0  0  0
 32 33  1  0  0  0
 33 34  1  0  0  0
 34 35  1  0  0  0
 34 36  1  0  0  0
 36 37  2  0  0  0
 36 38  1  0  0  0
  9 10  1  0  0  0
 10 11  2  0  0  0
  6 24  1  0  0  0
 24 25  2  0  0  0
 25 26  1  0  0  0
 26 27  1  0  0  0
 26 28  1  0  0  0
 28 29  2  0  0  0
 29 30  1  0  0  0
 17 18  2  0  0  0
 18 19  1  0  0  0
 18 12  1  0  0  0
 10  1  1  0  0  0
 29 24  1  0  0  0
  8  3  1  0  0  0
 38 32  1  0  0  0
M  END
> <minimizedAffinity>
-7.90088

> <CNNscore>
0.2093915194

> <CNNaffinity>
7.4610838890

> <CNN_VS>
1.5622876883

> <CNNaffinity_variance>
0.1373615861

$$$$
[H]c1nc(-c2c(C([H])([H])[H])nn(C([H])([H])[H])c2[H])c([H])c2c1C([H])([H])N(c1c(F)c(OC([H])([H])[H])c([H])c(OC([H])([H])[H])c1F)C(=O)N2C([H])([H])C1([H])C([H])([H])C(=O)N(C([H])([H])[H])C1([H])[H]


 38 42  0  0  0  0  0  0  0  0999 V2000
   -0.6562   21.9573  -23.3258 N   0  0  0  0  0  0  0  0  0  0  0  0
   -0.6421   21.6097  -24.6997 C   0  0  0  0  0  0  0  0  0  0  0  0
   -1.6520   22.3242  -25.4993 C   0  0  0  0  0  0  0  0  0  0  0  0
   -1.7527   21.9490  -26.8228 C   0  0  0  0  0  0  0  0  0  0  0  0
   -2.6141   22.5077  -27.6694 N   0  0  0  0  0  0  0  0  0  0  0  0
   -3.4382   23.4906  -27.2326 C   0  0  0  0  0  0  0  0  0  0  0  0
   -3.3535   23.8755  -25.9256 C   0  0  0  0  0  0  0  0  0  0  0  0
   -2.4809   23.3322  -25.0055 C   0  0  0  0  0  0  0  0  0  0  0  0
   -2.4320   23.7058  -23.6493 N   0  0  0  0  0  0  0  0  0  0  0  0
   -1.4847   22.9750  -22.8333 C   0  0  0  0  0  0  0  0  0  0  0  0
   -1.4074   23.2743  -21.6205 O   0  0  0  0  0  0  0  0  0  0  0  0
    0.5238   19.8341  -20.4902 C   0  0  0  0  0  0  0  0  0  0  0  0
    1.8856   19.8156  -20.6869 C   0  0  0  0  0  0  0  0  0  0  0  0
    2.4269   20.5094  -21.7664 C   0  0  0  0  0  0  0  0  0  0  0  0
    1.5798   21.2022  -22.6169 C   0  0  0  0  0  0  0  0  0  0  0  0
    2.1561   21.8596  -23.6508 F   0  0  0  0  0  0  0  0  0  0  0  0
    0.2142   21.2284  -22.4303 C   0  0  0  0  0  0  0  0  0  0  0  0
   -0.2985   20.5341  -21.3548 C   0  0  0  0  0  0  0  0  0  0  0  0
   -1.6263   20.5021  -21.0905 F   0  0  0  0  0  0  0  0  0  0  0  0
   -0.2183   17.7382  -19.4700 C   0  0  0  0  0  0  0  0  0  0  0  0
    0.0042   19.1320  -19.4025 O   0  0  0  0  0  0  0  0  0  0  0  0
    3.7879   20.5075  -21.9865 O   0  0  0  0  0  0  0  0  0  0  0  0
    4.6063   19.4564  -21.5086 C   0  0  0  0  0  0  0  0  0  0  0  0
   -4.3888   24.1122  -28.1507 C   0  0  0  0  0  0  0  0  0  0  0  0
   -4.0578   24.7123  -29.3379 C   0  0  0  0  0  0  0  0  0  0  0  0
   -5.1896   25.1680  -29.9065 N   0  0  0  0  0  0  0  0  0  0  0  0
   -5.3084   25.8683  -31.1691 C   0  0  0  0  0  0  0  0  0  0  0  0
   -6.2041   24.8761  -29.1230 N   0  0  0  0  0  0  0  0  0  0  0  0
   -5.7437   24.2203  -28.0236 C   0  0  0  0  0  0  0  0  0  0  0  0
   -6.5705   23.7206  -26.9030 C   0  0  0  0  0  0  0  0  0  0  0  0
   -3.2719   24.6981  -23.1094 C   0  0  0  0  0  0  0  0  0  0  0  0
   -4.6890   24.4250  -22.8562 C   0  0  0  0  0  0  0  0  0  0  0  0
   -5.2538   24.5019  -21.4908 C   0  0  0  0  0  0  0  0  0  0  0  0
   -6.7074   24.6509  -21.7567 N   0  0  0  0  0  0  0  0  0  0  0  0
   -7.7624   24.0396  -21.0158 C   0  0  0  0  0  0  0  0  0  0  0  0
   -6.8166   25.5127  -22.8788 C   0  0  0  0  0  0  0  0  0  0  0  0
   -7.8057   26.1612  -23.2452 O   0  0  0  0  0  0  0  0  0  0  0  0
   -5.5076   25.5207  -23.5791 C   0  0  0  0  0  0  0  0  0  0  0  0
 20 21  1  0  0  0
 21 12  1  0  0  0
 12 13  2  0  0  0
 13 14  1  0  0  0
 14 22  1  0  0  0
 22 23  1  0  0  0
 14 15  2  0  0  0
 15 16  1  0  0  0
 15 17  1  0  0  0
 17  1  1  0  0  0
  1  2  1  0  0  0
  2  3  1  0  0  0
  3  4  2  0  0  0
  4  5  1  0  0  0
  5  6  2  0  0  0
  6  7  1  0  0  0
  7  8  2  0  0  0
  8  9  1  0  0  0
  9 31  1  0  0  0
 31 32  1  0  0  0
 32 33  1  0  0  0
 33 34  1  0  0  0
 34 35  1  0  0  0
 34 36  1  0  0  0
 36 37  2  0  0  0
 36 38  1  0  0  0
  9 10  1  0  0  0
 10 11  2  0  0  0
  6 24  1  0  0  0
 24 25  2  0  0  0
 25 26  1  0  0  0
 26 27  1  0  0  0
 26 28  1  0  0  0
 28 29  2  0  0  0
 29 30  1  0  0  0
 17 18  2  0  0  0
 18 19  1  0  0  0
 18 12  1  0  0  0
 10  1  1  0  0  0
 29 24  1  0  0  0
  8  3  1  0  0  0
 38 32  1  0  0  0
M  END
> <minimizedAffinity>
-8.93507

> <CNNscore>
0.2045819610

> <CNNaffinity>
7.4679651260

> <CNN_VS>
1.5278109312

> <CNNaffinity_variance>
0.0925550088

$$$$
[H]c1nc(-c2c(C([H])([H])[H])nn(C([H])([H])[H])c2[H])c([H])c2c1C([H])([H])N(c1c(F)c(OC([H])([H])[H])c([H])c(OC([H])([H])[H])c1F)C(=O)N2C([H])([H])C1([H])C([H])([H])C(=O)N(C([H])([H])[H])C1([H])[H]


 38 42  0  0  0  0  0  0  0  0999 V2000
   -0.3377   21.4214  -18.0226 N   0  0  0  0  0  0  0  0  0  0  0  0
   -0.8912   22.5132  -18.7368 C   0  0  0  0  0  0  0  0  0  0  0  0
   -0.9096   22.3147  -20.1963 C   0  0  0  0  0  0  0  0  0  0  0  0
   -1.3417   23.3876  -20.9478 C   0  0  0  0  0  0  0  0  0  0  0  0
   -1.4182   23.3562  -22.2760 N   0  0  0  0  0  0  0  0  0  0  0  0
   -1.0605   22.2303  -22.9396 C   0  0  0  0  0  0  0  0  0  0  0  0
   -0.6299   21.1578  -22.2129 C   0  0  0  0  0  0  0  0  0  0  0  0
   -0.5309   21.1345  -20.8371 C   0  0  0  0  0  0  0  0  0  0  0  0
   -0.0440   20.0385  -20.1002 N   0  0  0  0  0  0  0  0  0  0  0  0
    0.0355   20.2342  -18.6675 C   0  0  0  0  0  0  0  0  0  0  0  0
    0.4630   19.2852  -17.9725 O   0  0  0  0  0  0  0  0  0  0  0  0
   -1.0341   21.3888  -14.3545 C   0  0  0  0  0  0  0  0  0  0  0  0
    0.1584   21.8286  -13.8274 C   0  0  0  0  0  0  0  0  0  0  0  0
    1.2087   22.1408  -14.6871 C   0  0  0  0  0  0  0  0  0  0  0  0
    1.0267   22.0005  -16.0540 C   0  0  0  0  0  0  0  0  0  0  0  0
    2.0785   22.3167  -16.8458 F   0  0  0  0  0  0  0  0  0  0  0  0
   -0.1630   21.5610  -16.5940 C   0  0  0  0  0  0  0  0  0  0  0  0
   -1.1883   21.2581  -15.7230 C   0  0  0  0  0  0  0  0  0  0  0  0
   -2.3929   20.8198  -16.1598 F   0  0  0  0  0  0  0  0  0  0  0  0
   -2.3875   21.9321  -12.3905 C   0  0  0  0  0  0  0  0  0  0  0  0
   -2.0719   21.0820  -13.4742 O   0  0  0  0  0  0  0  0  0  0  0  0
    2.4141   22.5838  -14.1856 O   0  0  0  0  0  0  0  0  0  0  0  0
    2.4906   23.7454  -13.3807 C   0  0  0  0  0  0  0  0  0  0  0  0
   -1.1390   22.1821  -24.3971 C   0  0  0  0  0  0  0  0  0  0  0  0
   -0.0964   22.4378  -25.2496 C   0  0  0  0  0  0  0  0  0  0  0  0
   -0.5434   22.2972  -26.5115 N   0  0  0  0  0  0  0  0  0  0  0  0
    0.2203   22.4736  -27.7299 C   0  0  0  0  0  0  0  0  0  0  0  0
   -1.8152   21.9663  -26.4757 N   0  0  0  0  0  0  0  0  0  0  0  0
   -2.2182   21.8859  -25.1789 C   0  0  0  0  0  0  0  0  0  0  0  0
   -3.5795   21.5394  -24.7143 C   0  0  0  0  0  0  0  0  0  0  0  0
    0.3736   18.8425  -20.7140 C   0  0  0  0  0  0  0  0  0  0  0  0
    1.7804   18.4341  -20.6813 C   0  0  0  0  0  0  0  0  0  0  0  0
    2.2119   17.1227  -21.2133 C   0  0  0  0  0  0  0  0  0  0  0  0
    3.6655   17.3327  -21.4344 N   0  0  0  0  0  0  0  0  0  0  0  0
    4.6980   16.3806  -21.1833 C   0  0  0  0  0  0  0  0  0  0  0  0
    3.8010   18.6523  -21.9384 C   0  0  0  0  0  0  0  0  0  0  0  0
    4.7599   19.1353  -22.5548 O   0  0  0  0  0  0  0  0  0  0  0  0
    2.5641   19.4007  -21.6005 C   0  0  0  0  0  0  0  0  0  0  0  0
 20 21  1  0  0  0
 21 12  1  0  0  0
 12 13  2  0  0  0
 13 14  1  0  0  0
 14 22  1  0  0  0
 22 23  1  0  0  0
 14 15  2  0  0  0
 15 16  1  0  0  0
 15 17  1  0  0  0
 17  1  1  0  0  0
  1  2  1  0  0  0
  2  3  1  0  0  0
  3  4  2  0  0  0
  4  5  1  0  0  0
  5  6  2  0  0  0
  6  7  1  0  0  0
  7  8  2  0  0  0
  8  9  1  0  0  0
  9 31  1  0  0  0
 31 32  1  0  0  0
 32 33  1  0  0  0
 33 34  1  0  0  0
 34 35  1  0  0  0
 34 36  1  0  0  0
 36 37  2  0  0  0
 36 38  1  0  0  0
  9 10  1  0  0  0
 10 11  2  0  0  0
  6 24  1  0  0  0
 24 25  2  0  0  0
 25 26  1  0  0  0
 26 27  1  0  0  0
 26 28  1  0  0  0
 28 29  2  0  0  0
 29 30  1  0  0  0
 17 18  2  0  0  0
 18 19  1  0  0  0
 18 12  1  0  0  0
 10  1  1  0  0  0
 29 24  1  0  0  0
  8  3  1  0  0  0
 38 32  1  0  0  0
M  END
> <minimizedAffinity>
-7.00469

> <CNNscore>
0.1875037998

> <CNNaffinity>
6.1289758682

> <CNN_VS>
1.1492062807

> <CNNaffinity_variance>
0.1527188122

$$$$
[H]c1nc(-c2c(C([H])([H])[H])nn(C([H])([H])[H])c2[H])c([H])c2c1C([H])([H])N(c1c(F)c(OC([H])([H])[H])c([H])c(OC([H])([H])[H])c1F)C(=O)N2C([H])([H])C1([H])C([H])([H])C(=O)N(C([H])([H])[H])C1([H])[H]


 38 42  0  0  0  0  0  0  0  0999 V2000
   -0.7074   21.9919  -23.3179 N   0  0  0  0  0  0  0  0  0  0  0  0
   -0.6924   21.6380  -24.6901 C   0  0  0  0  0  0  0  0  0  0  0  0
   -1.6968   22.3543  -25.4950 C   0  0  0  0  0  0  0  0  0  0  0  0
   -1.7968   21.9736  -26.8170 C   0  0  0  0  0  0  0  0  0  0  0  0
   -2.6535   22.5332  -27.6679 N   0  0  0  0  0  0  0  0  0  0  0  0
   -3.4732   23.5224  -27.2373 C   0  0  0  0  0  0  0  0  0  0  0  0
   -3.3891   23.9128  -25.9318 C   0  0  0  0  0  0  0  0  0  0  0  0
   -2.5213   23.3690  -25.0075 C   0  0  0  0  0  0  0  0  0  0  0  0
   -2.4731   23.7485  -23.6529 N   0  0  0  0  0  0  0  0  0  0  0  0
   -1.5314   23.0162  -22.8317 C   0  0  0  0  0  0  0  0  0  0  0  0
   -1.4550   23.3206  -21.6201 O   0  0  0  0  0  0  0  0  0  0  0  0
    2.3565   20.5164  -21.7763 C   0  0  0  0  0  0  0  0  0  0  0  0
    1.8434   19.8528  -20.6856 C   0  0  0  0  0  0  0  0  0  0  0  0
    0.4712   19.8892  -20.4502 C   0  0  0  0  0  0  0  0  0  0  0  0
   -0.3447   20.5938  -21.3213 C   0  0  0  0  0  0  0  0  0  0  0  0
   -1.6707   20.5982  -21.0476 F   0  0  0  0  0  0  0  0  0  0  0  0
    0.1573   21.2624  -22.4173 C   0  0  0  0  0  0  0  0  0  0  0  0
    1.5189   21.2120  -22.6297 C   0  0  0  0  0  0  0  0  0  0  0  0
    2.1034   21.8369  -23.6793 F   0  0  0  0  0  0  0  0  0  0  0  0
    4.5092   19.3831  -21.5200 C   0  0  0  0  0  0  0  0  0  0  0  0
    3.7338   20.4660  -21.9919 O   0  0  0  0  0  0  0  0  0  0  0  0
   -0.0693   19.2329  -19.3648 O   0  0  0  0  0  0  0  0  0  0  0  0
   -0.1180   19.8434  -18.0889 C   0  0  0  0  0  0  0  0  0  0  0  0
   -4.4186   24.1449  -28.1601 C   0  0  0  0  0  0  0  0  0  0  0  0
   -4.0795   24.7571  -29.3389 C   0  0  0  0  0  0  0  0  0  0  0  0
   -5.2085   25.2096  -29.9154 N   0  0  0  0  0  0  0  0  0  0  0  0
   -5.3191   25.9193  -31.1735 C   0  0  0  0  0  0  0  0  0  0  0  0
   -6.2290   24.9043  -29.1450 N   0  0  0  0  0  0  0  0  0  0  0  0
   -5.7754   24.2427  -28.0462 C   0  0  0  0  0  0  0  0  0  0  0  0
   -6.6102   23.7281  -26.9384 C   0  0  0  0  0  0  0  0  0  0  0  0
   -3.3087   24.7477  -23.1192 C   0  0  0  0  0  0  0  0  0  0  0  0
   -4.7145   24.4669  -22.8162 C   0  0  0  0  0  0  0  0  0  0  0  0
   -5.2484   24.6133  -21.4442 C   0  0  0  0  0  0  0  0  0  0  0  0
   -6.7102   24.7234  -21.6825 N   0  0  0  0  0  0  0  0  0  0  0  0
   -7.7367   24.1391  -20.8823 C   0  0  0  0  0  0  0  0  0  0  0  0
   -6.8607   25.5174  -22.8491 C   0  0  0  0  0  0  0  0  0  0  0  0
   -7.8692   26.1277  -23.2277 O   0  0  0  0  0  0  0  0  0  0  0  0
   -5.5688   25.5060  -23.5804 C   0  0  0  0  0  0  0  0  0  0  0  0
 20 21  1  0  0  0
 21 12  1  0  0  0
 12 13  2  0  0  0
 13 14  1  0  0  0
 14 22  1  0  0  0
 22 23  1  0  0  0
 14 15  2  0  0  0
 15 16  1  0  0  0
 15 17  1  0  0  0
 17  1  1  0  0  0
  1  2  1  0  0  0
  2  3  1  0  0  0
  3  4  2  0  0  0
  4  5  1  0  0  0
  5  6  2  0  0  0
  6  7  1  0  0  0
  7  8  2  0  0  0
  8  9  1  0  0  0
  9 31  1  0  0  0
 31 32  1  0  0  0
 32 33  1  0  0  0
 33 34  1  0  0  0
 34 35  1  0  0  0
 34 36  1  0  0  0
 36 37  2  0  0  0
 36 38  1  0  0  0
  9 10  1  0  0  0
 10 11  2  0  0  0
  6 24  1  0  0  0
 24 25  2  0  0  0
 25 26  1  0  0  0
 26 27  1  0  0  0
 26 28  1  0  0  0
 28 29  2  0  0  0
 29 30  1  0  0  0
 17 18  2  0  0  0
 18 19  1  0  0  0
 18 12  1  0  0  0
 10  1  1  0  0  0
 29 24  1  0  0  0
  8  3  1  0  0  0
 38 32  1  0  0  0
M  END
> <minimizedAffinity>
-8.96896

> <CNNscore>
0.1805421114

> <CNNaffinity>
7.3988838196

> <CNN_VS>
1.3358100653

> <CNNaffinity_variance>
0.0938937888

$$$$
[H]c1nc(-c2c(C([H])([H])[H])nn(C([H])([H])[H])c2[H])c([H])c2c1C([H])([H])N(c1c(F)c(OC([H])([H])[H])c([H])c(OC([H])([H])[H])c1F)C(=O)N2C([H])([H])C1([H])C([H])([H])C(=O)N(C([H])([H])[H])C1([H])[H]


 38 42  0  0  0  0  0  0  0  0999 V2000
   -0.4466   21.3737  -18.0807 N   0  0  0  0  0  0  0  0  0  0  0  0
   -1.0184   22.4547  -18.7970 C   0  0  0  0  0  0  0  0  0  0  0  0
   -1.0138   22.2628  -20.2575 C   0  0  0  0  0  0  0  0  0  0  0  0
   -1.4633   23.3282  -21.0095 C   0  0  0  0  0  0  0  0  0  0  0  0
   -1.5226   23.3012  -22.3387 N   0  0  0  0  0  0  0  0  0  0  0  0
   -1.1286   22.1877  -23.0027 C   0  0  0  0  0  0  0  0  0  0  0  0
   -0.6803   21.1229  -22.2755 C   0  0  0  0  0  0  0  0  0  0  0  0
   -0.5977   21.0955  -20.8988 C   0  0  0  0  0  0  0  0  0  0  0  0
   -0.0927   20.0085  -20.1608 N   0  0  0  0  0  0  0  0  0  0  0  0
   -0.0358   20.1993  -18.7263 C   0  0  0  0  0  0  0  0  0  0  0  0
    0.4067   19.2580  -18.0302 O   0  0  0  0  0  0  0  0  0  0  0  0
    1.0718   22.0300  -14.7334 C   0  0  0  0  0  0  0  0  0  0  0  0
    0.0206   21.7779  -13.8820 C   0  0  0  0  0  0  0  0  0  0  0  0
   -1.2063   21.3869  -14.4124 C   0  0  0  0  0  0  0  0  0  0  0  0
   -1.3385   21.2613  -15.7864 C   0  0  0  0  0  0  0  0  0  0  0  0
   -2.5516   20.8790  -16.2508 F   0  0  0  0  0  0  0  0  0  0  0  0
   -0.2931   21.5108  -16.6495 C   0  0  0  0  0  0  0  0  0  0  0  0
    0.9119   21.8965  -16.1010 C   0  0  0  0  0  0  0  0  0  0  0  0
    1.9954   22.1627  -16.8685 F   0  0  0  0  0  0  0  0  0  0  0  0
    2.4204   22.6653  -12.7938 C   0  0  0  0  0  0  0  0  0  0  0  0
    2.2911   22.4202  -14.1794 O   0  0  0  0  0  0  0  0  0  0  0  0
   -2.2760   21.1280  -13.5820 O   0  0  0  0  0  0  0  0  0  0  0  0
   -3.1359   22.1654  -13.1493 C   0  0  0  0  0  0  0  0  0  0  0  0
   -1.1879   22.1446  -24.4614 C   0  0  0  0  0  0  0  0  0  0  0  0
   -0.1331   22.3992  -25.2990 C   0  0  0  0  0  0  0  0  0  0  0  0
   -0.5637   22.2643  -26.5672 N   0  0  0  0  0  0  0  0  0  0  0  0
    0.2167   22.4419  -27.7748 C   0  0  0  0  0  0  0  0  0  0  0  0
   -1.8371   21.9380  -26.5494 N   0  0  0  0  0  0  0  0  0  0  0  0
   -2.2577   21.8549  -25.2584 C   0  0  0  0  0  0  0  0  0  0  0  0
   -3.6263   21.5119  -24.8131 C   0  0  0  0  0  0  0  0  0  0  0  0
    0.3623   18.8263  -20.7746 C   0  0  0  0  0  0  0  0  0  0  0  0
    1.7741   18.4403  -20.7048 C   0  0  0  0  0  0  0  0  0  0  0  0
    2.2396   17.1344  -21.2216 C   0  0  0  0  0  0  0  0  0  0  0  0
    3.6948   17.3667  -21.4064 N   0  0  0  0  0  0  0  0  0  0  0  0
    4.7355   16.4318  -21.1262 C   0  0  0  0  0  0  0  0  0  0  0  0
    3.8223   18.6870  -21.9109 C   0  0  0  0  0  0  0  0  0  0  0  0
    4.7889   19.1834  -22.5043 O   0  0  0  0  0  0  0  0  0  0  0  0
    2.5656   19.4166  -21.6069 C   0  0  0  0  0  0  0  0  0  0  0  0
 20 21  1  0  0  0
 21 12  1  0  0  0
 12 13  2  0  0  0
 13 14  1  0  0  0
 14 22  1  0  0  0
 22 23  1  0  0  0
 14 15  2  0  0  0
 15 16  1  0  0  0
 15 17  1  0  0  0
 17  1  1  0  0  0
  1  2  1  0  0  0
  2  3  1  0  0  0
  3  4  2  0  0  0
  4  5  1  0  0  0
  5  6  2  0  0  0
  6  7  1  0  0  0
  7  8  2  0  0  0
  8  9  1  0  0  0
  9 31  1  0  0  0
 31 32  1  0  0  0
 32 33  1  0  0  0
 33 34  1  0  0  0
 34 35  1  0  0  0
 34 36  1  0  0  0
 36 37  2  0  0  0
 36 38  1  0  0  0
  9 10  1  0  0  0
 10 11  2  0  0  0
  6 24  1  0  0  0
 24 25  2  0  0  0
 25 26  1  0  0  0
 26 27  1  0  0  0
 26 28  1  0  0  0
 28 29  2  0  0  0
 29 30  1  0  0  0
 17 18  2  0  0  0
 18 19  1  0  0  0
 18 12  1  0  0  0
 10  1  1  0  0  0
 29 24  1  0  0  0
  8  3  1  0  0  0
 38 32  1  0  0  0
M  END
> <minimizedAffinity>
-6.92637

> <CNNscore>
0.1736907512

> <CNNaffinity>
6.1125483513

> <CNN_VS>
1.0616930723

> <CNNaffinity_variance>
0.1394274980

$$$$
[H]c1nc(-c2c(C([H])([H])[H])nn(C([H])([H])[H])c2[H])c([H])c2c1C([H])([H])N(c1c(F)c(OC([H])([H])[H])c([H])c(OC([H])([H])[H])c1F)C(=O)N2C([H])([H])C1([H])C([H])([H])C(=O)N(C([H])([H])[H])C1([H])[H]


 38 42  0  0  0  0  0  0  0  0999 V2000
   -0.5732   22.1217  -20.4609 N   0  0  0  0  0  0  0  0  0  0  0  0
    0.1058   21.6896  -21.6275 C   0  0  0  0  0  0  0  0  0  0  0  0
   -0.5969   22.0260  -22.8777 C   0  0  0  0  0  0  0  0  0  0  0  0
   -0.0337   21.5387  -24.0387 C   0  0  0  0  0  0  0  0  0  0  0  0
   -0.5510   21.7647  -25.2437 N   0  0  0  0  0  0  0  0  0  0  0  0
   -1.6810   22.5037  -25.3579 C   0  0  0  0  0  0  0  0  0  0  0  0
   -2.2534   22.9945  -24.2198 C   0  0  0  0  0  0  0  0  0  0  0  0
   -1.7611   22.7920  -22.9471 C   0  0  0  0  0  0  0  0  0  0  0  0
   -2.3832   23.2655  -21.7767 N   0  0  0  0  0  0  0  0  0  0  0  0
   -1.7387   22.8970  -20.5332 C   0  0  0  0  0  0  0  0  0  0  0  0
   -2.2578   23.2968  -19.4668 O   0  0  0  0  0  0  0  0  0  0  0  0
    0.1201   20.1718  -17.3532 C   0  0  0  0  0  0  0  0  0  0  0  0
    1.0088   20.9865  -16.6900 C   0  0  0  0  0  0  0  0  0  0  0  0
    1.3881   22.1946  -17.2701 C   0  0  0  0  0  0  0  0  0  0  0  0
    0.8605   22.5468  -18.5024 C   0  0  0  0  0  0  0  0  0  0  0  0
    1.2617   23.7307  -19.0226 F   0  0  0  0  0  0  0  0  0  0  0  0
   -0.0304   21.7393  -19.1764 C   0  0  0  0  0  0  0  0  0  0  0  0
   -0.3911   20.5483  -18.5823 C   0  0  0  0  0  0  0  0  0  0  0  0
   -1.2599   19.6903  -19.1678 F   0  0  0  0  0  0  0  0  0  0  0  0
   -1.3194   18.9014  -15.8372 C   0  0  0  0  0  0  0  0  0  0  0  0
   -0.2452   18.9667  -16.7530 O   0  0  0  0  0  0  0  0  0  0  0  0
    2.2768   23.0298  -16.6271 O   0  0  0  0  0  0  0  0  0  0  0  0
    2.5000   22.9291  -15.2331 C   0  0  0  0  0  0  0  0  0  0  0  0
   -2.2600   22.7591  -26.6742 C   0  0  0  0  0  0  0  0  0  0  0  0
   -3.6026   22.8248  -26.9433 C   0  0  0  0  0  0  0  0  0  0  0  0
   -3.7543   23.0751  -28.2572 N   0  0  0  0  0  0  0  0  0  0  0  0
   -5.0032   23.2244  -28.9760 C   0  0  0  0  0  0  0  0  0  0  0  0
   -2.5654   23.1666  -28.8107 N   0  0  0  0  0  0  0  0  0  0  0  0
   -1.6141   22.9757  -27.8572 C   0  0  0  0  0  0  0  0  0  0  0  0
   -0.1510   23.0012  -28.0753 C   0  0  0  0  0  0  0  0  0  0  0  0
   -3.5732   24.0169  -21.8059 C   0  0  0  0  0  0  0  0  0  0  0  0
   -4.8685   23.3627  -22.0089 C   0  0  0  0  0  0  0  0  0  0  0  0
   -5.7246   22.9824  -20.8636 C   0  0  0  0  0  0  0  0  0  0  0  0
   -7.0592   22.8386  -21.4991 N   0  0  0  0  0  0  0  0  0  0  0  0
   -8.0297   21.8383  -21.1941 C   0  0  0  0  0  0  0  0  0  0  0  0
   -7.1578   23.8868  -22.4506 C   0  0  0  0  0  0  0  0  0  0  0  0
   -8.1831   24.3479  -22.9693 O   0  0  0  0  0  0  0  0  0  0  0  0
   -5.7849   24.3694  -22.7441 C   0  0  0  0  0  0  0  0  0  0  0  0
 20 21  1  0  0  0
 21 12  1  0  0  0
 12 13  2  0  0  0
 13 14  1  0  0  0
 14 22  1  0  0  0
 22 23  1  0  0  0
 14 15  2  0  0  0
 15 16  1  0  0  0
 15 17  1  0  0  0
 17  1  1  0  0  0
  1  2  1  0  0  0
  2  3  1  0  0  0
  3  4  2  0  0  0
  4  5  1  0  0  0
  5  6  2  0  0  0
  6  7  1  0  0  0
  7  8  2  0  0  0
  8  9  1  0  0  0
  9 31  1  0  0  0
 31 32  1  0  0  0
 32 33  1  0  0  0
 33 34  1  0  0  0
 34 35  1  0  0  0
 34 36  1  0  0  0
 36 37  2  0  0  0
 36 38  1  0  0  0
  9 10  1  0  0  0
 10 11  2  0  0  0
  6 24  1  0  0  0
 24 25  2  0  0  0
 25 26  1  0  0  0
 26 27  1  0  0  0
 26 28  1  0  0  0
 28 29  2  0  0  0
 29 30  1  0  0  0
 17 18  2  0  0  0
 18 19  1  0  0  0
 18 12  1  0  0  0
 10  1  1  0  0  0
 29 24  1  0  0  0
  8  3  1  0  0  0
 38 32  1  0  0  0
M  END
> <minimizedAffinity>
-8.12826

> <CNNscore>
0.1012884229

> <CNNaffinity>
7.0206136703

> <CNN_VS>
0.7111068964

> <CNNaffinity_variance>
0.0264640544

$$$$
[H]c1nc(-c2c(C([H])([H])[H])nn(C([H])([H])[H])c2[H])c([H])c2c1C([H])([H])N(c1c(F)c(OC([H])([H])[H])c([H])c(OC([H])([H])[H])c1F)C(=O)N2C([H])([H])C1([H])C([H])([H])C(=O)N(C([H])([H])[H])C1([H])[H]


 38 42  0  0  0  0  0  0  0  0999 V2000
   -0.6058   22.0779  -20.4351 N   0  0  0  0  0  0  0  0  0  0  0  0
    0.0806   21.6479  -21.5981 C   0  0  0  0  0  0  0  0  0  0  0  0
   -0.6106   21.9928  -22.8524 C   0  0  0  0  0  0  0  0  0  0  0  0
   -0.0402   21.5082  -24.0110 C   0  0  0  0  0  0  0  0  0  0  0  0
   -0.5469   21.7417  -25.2191 N   0  0  0  0  0  0  0  0  0  0  0  0
   -1.6728   22.4860  -25.3391 C   0  0  0  0  0  0  0  0  0  0  0  0
   -2.2521   22.9743  -24.2034 C   0  0  0  0  0  0  0  0  0  0  0  0
   -1.7709   22.7641  -22.9278 C   0  0  0  0  0  0  0  0  0  0  0  0
   -2.4003   23.2352  -21.7602 N   0  0  0  0  0  0  0  0  0  0  0  0
   -1.7674   22.8584  -20.5133 C   0  0  0  0  0  0  0  0  0  0  0  0
   -2.2933   23.2557  -19.4493 O   0  0  0  0  0  0  0  0  0  0  0  0
    1.3581   22.1177  -17.2599 C   0  0  0  0  0  0  0  0  0  0  0  0
    0.9637   20.9447  -16.6583 C   0  0  0  0  0  0  0  0  0  0  0  0
    0.0386   20.1268  -17.3027 C   0  0  0  0  0  0  0  0  0  0  0  0
   -0.4624   20.5150  -18.5353 C   0  0  0  0  0  0  0  0  0  0  0  0
   -1.3588   19.6851  -19.1191 F   0  0  0  0  0  0  0  0  0  0  0  0
   -0.0750   21.6875  -19.1480 C   0  0  0  0  0  0  0  0  0  0  0  0
    0.8419   22.4807  -18.4909 C   0  0  0  0  0  0  0  0  0  0  0  0
    1.2823   23.6496  -19.0139 F   0  0  0  0  0  0  0  0  0  0  0  0
    2.4266   22.8672  -15.1909 C   0  0  0  0  0  0  0  0  0  0  0  0
    2.2855   22.9208  -16.5958 O   0  0  0  0  0  0  0  0  0  0  0  0
   -0.3736   18.9460  -16.7225 O   0  0  0  0  0  0  0  0  0  0  0  0
    0.3135   17.7323  -16.9625 C   0  0  0  0  0  0  0  0  0  0  0  0
   -2.2402   22.7497  -26.6587 C   0  0  0  0  0  0  0  0  0  0  0  0
   -3.5801   22.8293  -26.9369 C   0  0  0  0  0  0  0  0  0  0  0  0
   -3.7203   23.0836  -28.2513 N   0  0  0  0  0  0  0  0  0  0  0  0
   -4.9627   23.2467  -28.9785 C   0  0  0  0  0  0  0  0  0  0  0  0
   -2.5268   23.1642  -28.7966 N   0  0  0  0  0  0  0  0  0  0  0  0
   -1.5840   22.9620  -27.8369 C   0  0  0  0  0  0  0  0  0  0  0  0
   -0.1192   22.9733  -28.0449 C   0  0  0  0  0  0  0  0  0  0  0  0
   -3.5869   23.9918  -21.7956 C   0  0  0  0  0  0  0  0  0  0  0  0
   -4.8843   23.3430  -22.0020 C   0  0  0  0  0  0  0  0  0  0  0  0
   -5.7110   22.8981  -20.8584 C   0  0  0  0  0  0  0  0  0  0  0  0
   -7.0601   22.7817  -21.4684 N   0  0  0  0  0  0  0  0  0  0  0  0
   -8.0193   21.7618  -21.1939 C   0  0  0  0  0  0  0  0  0  0  0  0
   -7.1856   23.8784  -22.3601 C   0  0  0  0  0  0  0  0  0  0  0  0
   -8.2248   24.3614  -22.8288 O   0  0  0  0  0  0  0  0  0  0  0  0
   -5.8219   24.3827  -22.6603 C   0  0  0  0  0  0  0  0  0  0  0  0
 20 21  1  0  0  0
 21 12  1  0  0  0
 12 13  2  0  0  0
 13 14  1  0  0  0
 14 22  1  0  0  0
 22 23  1  0  0  0
 14 15  2  0  0  0
 15 16  1  0  0  0
 15 17  1  0  0  0
 17  1  1  0  0  0
  1  2  1  0  0  0
  2  3  1  0  0  0
  3  4  2  0  0  0
  4  5  1  0  0  0
  5  6  2  0  0  0
  6  7  1  0  0  0
  7  8  2  0  0  0
  8  9  1  0  0  0
  9 31  1  0  0  0
 31 32  1  0  0  0
 32 33  1  0  0  0
 33 34  1  0  0  0
 34 35  1  0  0  0
 34 36  1  0  0  0
 36 37  2  0  0  0
 36 38  1  0  0  0
  9 10  1  0  0  0
 10 11  2  0  0  0
  6 24  1  0  0  0
 24 25  2  0  0  0
 25 26  1  0  0  0
 26 27  1  0  0  0
 26 28  1  0  0  0
 28 29  2  0  0  0
 29 30  1  0  0  0
 17 18  2  0  0  0
 18 19  1  0  0  0
 18 12  1  0  0  0
 10  1  1  0  0  0
 29 24  1  0  0  0
  8  3  1  0  0  0
 38 32  1  0  0  0
M  END
> <minimizedAffinity>
-8.11809

> <CNNscore>
0.0962907374

> <CNNaffinity>
6.9696245193

> <CNN_VS>
0.6711102724

> <CNNaffinity_variance>
0.0211106483

$$$$
[H]c1nc(N([H])[H])c(-c2nn(-c3c(Cl)c(OC([H])([H])[H])c([H])c(OC([H])([H])[H])c3Cl)c(=O)c(C([H])([H])[H])c2[H])nc1-c1c([H])nn(C2([H])C([H])([H])C([H])([H])N(C([H])([H])C([H])([H])OC([H])([H])[H])C([H])([H])C2([H])[H])c1[H]


 44 48  0  0  0  0  0  0  0  0999 V2000
   -0.2154   22.1294  -24.8691 C   0  0  0  0  0  0  0  0  0  0  0  0
    0.7063   22.2331  -25.8705 C   0  0  0  0  0  0  0  0  0  0  0  0
    0.4163   22.6097  -27.1134 N   0  0  0  0  0  0  0  0  0  0  0  0
   -0.9079   22.9235  -27.4299 C   0  0  0  0  0  0  0  0  0  0  0  0
   -1.1532   23.3188  -28.7601 N   0  0  0  0  0  0  0  0  0  0  0  0
   -1.8303   22.8267  -26.4595 C   0  0  0  0  0  0  0  0  0  0  0  0
   -1.4774   22.4292  -25.1752 N   0  0  0  0  0  0  0  0  0  0  0  0
   -1.3601   22.5897  -29.5098 H   0  0  0  0  0  0  0  0  0  0  0  0
   -1.1328   24.2969  -29.0809 H   0  0  0  0  0  0  0  0  0  0  0  0
   -3.2591   23.1271  -26.6493 C   0  0  0  0  0  0  0  0  0  0  0  0
   -3.8924   23.2882  -27.8195 C   0  0  0  0  0  0  0  0  0  0  0  0
   -5.2898   23.5354  -27.8952 C   0  0  0  0  0  0  0  0  0  0  0  0
   -5.9280   23.6969  -29.1991 C   0  0  0  0  0  0  0  0  0  0  0  0
   -6.0137   23.6111  -26.7348 C   0  0  0  0  0  0  0  0  0  0  0  0
   -7.2583   23.8231  -26.7148 O   0  0  0  0  0  0  0  0  0  0  0  0
   -5.3558   23.4488  -25.5907 N   0  0  0  0  0  0  0  0  0  0  0  0
   -4.0525   23.2175  -25.5295 N   0  0  0  0  0  0  0  0  0  0  0  0
   -6.1004   23.5732  -24.3663 C   0  0  0  0  0  0  0  0  0  0  0  0
   -6.3637   22.4443  -23.6568 C   0  0  0  0  0  0  0  0  0  0  0  0
   -5.8292   20.8814  -24.2238 Cl  0  0  0  0  0  0  0  0  0  0  0  0
   -7.0659   22.4859  -22.4456 C   0  0  0  0  0  0  0  0  0  0  0  0
   -7.5000   23.6802  -21.9604 C   0  0  0  0  0  0  0  0  0  0  0  0
   -7.2491   24.8746  -22.6643 C   0  0  0  0  0  0  0  0  0  0  0  0
   -6.5343   24.7656  -23.8806 C   0  0  0  0  0  0  0  0  0  0  0  0
   -6.2286   26.2522  -24.7280 Cl  0  0  0  0  0  0  0  0  0  0  0  0
   -7.3040   21.3116  -21.7672 O   0  0  0  0  0  0  0  0  0  0  0  0
   -7.6962   21.1713  -20.4451 C   0  0  0  0  0  0  0  0  0  0  0  0
   -7.6780   25.9881  -22.1721 O   0  0  0  0  0  0  0  0  0  0  0  0
   -8.0990   27.0687  -21.6566 C   0  0  0  0  0  0  0  0  0  0  0  0
    1.4510   20.8802  -21.8764 N   0  0  0  0  0  0  0  0  0  0  0  0
    1.4414   21.2776  -23.1525 C   0  0  0  0  0  0  0  0  0  0  0  0
    0.1498   21.6593  -23.5269 C   0  0  0  0  0  0  0  0  0  0  0  0
   -0.6067   21.4697  -22.4116 C   0  0  0  0  0  0  0  0  0  0  0  0
    0.2147   20.9968  -21.4284 N   0  0  0  0  0  0  0  0  0  0  0  0
    4.6191   18.4430  -20.4267 N   0  0  0  0  0  0  0  0  0  0  0  0
    4.2750   18.6483  -21.7907 C   0  0  0  0  0  0  0  0  0  0  0  0
    3.7128   20.0158  -22.1184 C   0  0  0  0  0  0  0  0  0  0  0  0
    2.6188   20.3883  -21.1657 C   0  0  0  0  0  0  0  0  0  0  0  0
    2.2671   19.1483  -20.3679 C   0  0  0  0  0  0  0  0  0  0  0  0
    3.4863   18.7254  -19.5892 C   0  0  0  0  0  0  0  0  0  0  0  0
    5.7714   19.1581  -19.9658 C   0  0  0  0  0  0  0  0  0  0  0  0
    5.6423   19.7910  -18.6434 C   0  0  0  0  0  0  0  0  0  0  0  0
    5.5400   21.9796  -19.4560 C   0  0  0  0  0  0  0  0  0  0  0  0
    6.1284   21.0781  -18.6110 O   0  0  0  0  0  0  0  0  0  0  0  0
 43 44  1  0  0  0
 44 42  1  0  0  0
 42 41  1  0  0  0
 41 35  1  0  0  0
 35 36  1  0  0  0
 36 37  1  0  0  0
 37 38  1  0  0  0
 38 39  1  0  0  0
 39 40  1  0  0  0
 38 30  1  0  0  0
 30 31  1  0  0  0
 31 32  2  0  0  0
 32 33  1  0  0  0
 33 34  2  0  0  0
 32  1  1  0  0  0
  1  2  2  0  0  0
  2  3  1  0  0  0
  3  4  2  0  0  0
  4  5  1  0  0  0
  4  6  1  0  0  0
  6  7  2  0  0  0
  6 10  1  0  0  0
 10 11  1  0  0  0
 11 12  2  0  0  0
 12 13  1  0  0  0
 12 14  1  0  0  0
 14 15  2  0  0  0
 14 16  1  0  0  0
 16 17  1  0  0  0
 16 18  1  0  0  0
 18 19  2  0  0  0
 19 20  1  0  0  0
 19 21  1  0  0  0
 21 26  1  0  0  0
 26 27  1  0  0  0
 21 22  2  0  0  0
 22 23  1  0  0  0
 23 28  1  0  0  0
 28 29  1  0  0  0
 23 24  2  0  0  0
 24 25  1  0  0  0
 40 35  1  0  0  0
 34 30  1  0  0  0
  7  1  1  0  0  0
 17 10  2  0  0  0
 24 18  1  0  0  0
  5  8  1  0  0  0
  5  9  1  0  0  0
M  END
> <minimizedAffinity>
-8.23790

> <CNNscore>
0.8814584017

> <CNNaffinity>
8.3454113007

> <CNN_VS>
7.3561329842

> <CNNaffinity_variance>
0.0322668925

$$$$
[H]c1nc(N([H])[H])c(-c2nn(-c3c(Cl)c(OC([H])([H])[H])c([H])c(OC([H])([H])[H])c3Cl)c(=O)c(C([H])([H])[H])c2[H])nc1-c1c([H])nn(C2([H])C([H])([H])C([H])([H])N(C([H])([H])C([H])([H])OC([H])([H])[H])C([H])([H])C2([H])[H])c1[H]


 44 48  0  0  0  0  0  0  0  0999 V2000
   -0.2962   22.0034  -24.7875 C   0  0  0  0  0  0  0  0  0  0  0  0
    0.6459   22.1029  -25.7702 C   0  0  0  0  0  0  0  0  0  0  0  0
    0.3880   22.5099  -27.0106 N   0  0  0  0  0  0  0  0  0  0  0  0
   -0.9220   22.8626  -27.3445 C   0  0  0  0  0  0  0  0  0  0  0  0
   -1.1331   23.2888  -28.6710 N   0  0  0  0  0  0  0  0  0  0  0  0
   -1.8640   22.7707  -26.3928 C   0  0  0  0  0  0  0  0  0  0  0  0
   -1.5446   22.3405  -25.1102 N   0  0  0  0  0  0  0  0  0  0  0  0
   -1.3442   22.5794  -29.4382 H   0  0  0  0  0  0  0  0  0  0  0  0
   -1.0827   24.2720  -28.9725 H   0  0  0  0  0  0  0  0  0  0  0  0
   -3.2813   23.1103  -26.6021 C   0  0  0  0  0  0  0  0  0  0  0  0
   -3.9038   23.2465  -27.7812 C   0  0  0  0  0  0  0  0  0  0  0  0
   -5.2919   23.5364  -27.8743 C   0  0  0  0  0  0  0  0  0  0  0  0
   -5.9187   23.6680  -29.1872 C   0  0  0  0  0  0  0  0  0  0  0  0
   -6.0180   23.6808  -26.7219 C   0  0  0  0  0  0  0  0  0  0  0  0
   -7.2550   23.9342  -26.7172 O   0  0  0  0  0  0  0  0  0  0  0  0
   -5.3709   23.5415  -25.5686 N   0  0  0  0  0  0  0  0  0  0  0  0
   -4.0762   23.2702  -25.4912 N   0  0  0  0  0  0  0  0  0  0  0  0
   -6.1163   23.7378  -24.3542 C   0  0  0  0  0  0  0  0  0  0  0  0
   -6.4319   25.0093  -23.9923 C   0  0  0  0  0  0  0  0  0  0  0  0
   -5.9311   26.3708  -24.9644 Cl  0  0  0  0  0  0  0  0  0  0  0  0
   -7.1720   25.2804  -22.8345 C   0  0  0  0  0  0  0  0  0  0  0  0
   -7.5882   24.2529  -22.0462 C   0  0  0  0  0  0  0  0  0  0  0  0
   -7.2824   22.9198  -22.3842 C   0  0  0  0  0  0  0  0  0  0  0  0
   -6.5327   22.7124  -23.5662 C   0  0  0  0  0  0  0  0  0  0  0  0
   -6.1742   21.0597  -23.9684 Cl  0  0  0  0  0  0  0  0  0  0  0  0
   -7.4646   26.5875  -22.5158 O   0  0  0  0  0  0  0  0  0  0  0  0
   -8.2886   27.0381  -21.4962 C   0  0  0  0  0  0  0  0  0  0  0  0
   -7.6941   21.9722  -21.6104 O   0  0  0  0  0  0  0  0  0  0  0  0
   -8.0967   21.0622  -20.8227 C   0  0  0  0  0  0  0  0  0  0  0  0
    1.3061   20.7876  -21.7466 N   0  0  0  0  0  0  0  0  0  0  0  0
    1.3338   21.2605  -22.9963 C   0  0  0  0  0  0  0  0  0  0  0  0
    0.0328   21.4993  -23.4483 C   0  0  0  0  0  0  0  0  0  0  0  0
   -0.7684   21.1457  -22.4066 C   0  0  0  0  0  0  0  0  0  0  0  0
    0.0370   20.7189  -21.3897 N   0  0  0  0  0  0  0  0  0  0  0  0
    4.7963   18.8085  -20.3391 N   0  0  0  0  0  0  0  0  0  0  0  0
    4.5599   19.2478  -21.6703 C   0  0  0  0  0  0  0  0  0  0  0  0
    3.7222   20.5030  -21.7994 C   0  0  0  0  0  0  0  0  0  0  0  0
    2.4757   20.4028  -20.9752 C   0  0  0  0  0  0  0  0  0  0  0  0
    2.3510   18.9657  -20.5096 C   0  0  0  0  0  0  0  0  0  0  0  0
    3.5463   18.6415  -19.6506 C   0  0  0  0  0  0  0  0  0  0  0  0
    5.6859   19.6242  -19.5680 C   0  0  0  0  0  0  0  0  0  0  0  0
    5.1111   20.2207  -18.3515 C   0  0  0  0  0  0  0  0  0  0  0  0
    5.7721   22.2953  -19.2002 C   0  0  0  0  0  0  0  0  0  0  0  0
    4.8663   21.5693  -18.4753 O   0  0  0  0  0  0  0  0  0  0  0  0
 43 44  1  0  0  0
 44 42  1  0  0  0
 42 41  1  0  0  0
 41 35  1  0  0  0
 35 36  1  0  0  0
 36 37  1  0  0  0
 37 38  1  0  0  0
 38 39  1  0  0  0
 39 40  1  0  0  0
 38 30  1  0  0  0
 30 31  1  0  0  0
 31 32  2  0  0  0
 32 33  1  0  0  0
 33 34  2  0  0  0
 32  1  1  0  0  0
  1  2  2  0  0  0
  2  3  1  0  0  0
  3  4  2  0  0  0
  4  5  1  0  0  0
  4  6  1  0  0  0
  6  7  2  0  0  0
  6 10  1  0  0  0
 10 11  1  0  0  0
 11 12  2  0  0  0
 12 13  1  0  0  0
 12 14  1  0  0  0
 14 15  2  0  0  0
 14 16  1  0  0  0
 16 17  1  0  0  0
 16 18  1  0  0  0
 18 19  2  0  0  0
 19 20  1  0  0  0
 19 21  1  0  0  0
 21 26  1  0  0  0
 26 27  1  0  0  0
 21 22  2  0  0  0
 22 23  1  0  0  0
 23 28  1  0  0  0
 28 29  1  0  0  0
 23 24  2  0  0  0
 24 25  1  0  0  0
 40 35  1  0  0  0
 34 30  1  0  0  0
  7  1  1  0  0  0
 17 10  2  0  0  0
 24 18  1  0  0  0
  5  8  1  0  0  0
  5  9  1  0  0  0
M  END
> <minimizedAffinity>
-8.21230

> <CNNscore>
0.8555049896

> <CNNaffinity>
8.2759265900

> <CNN_VS>
7.0800967216

> <CNNaffinity_variance>
0.0204355456

$$$$
[H]c1nc(N([H])[H])c(-c2nn(-c3c(Cl)c(OC([H])([H])[H])c([H])c(OC([H])([H])[H])c3Cl)c(=O)c(C([H])([H])[H])c2[H])nc1-c1c([H])nn(C2([H])C([H])([H])C([H])([H])N(C([H])([H])C([H])([H])OC([H])([H])[H])C([H])([H])C2([H])[H])c1[H]


 44 48  0  0  0  0  0  0  0  0999 V2000
   -0.0354   22.1741  -24.9922 C   0  0  0  0  0  0  0  0  0  0  0  0
    0.8856   22.3151  -25.9897 C   0  0  0  0  0  0  0  0  0  0  0  0
    0.5878   22.6932  -27.2303 N   0  0  0  0  0  0  0  0  0  0  0  0
   -0.7446   22.9683  -27.5484 C   0  0  0  0  0  0  0  0  0  0  0  0
   -0.9980   23.3673  -28.8760 N   0  0  0  0  0  0  0  0  0  0  0  0
   -1.6664   22.8346  -26.5820 C   0  0  0  0  0  0  0  0  0  0  0  0
   -1.3052   22.4372  -25.2999 N   0  0  0  0  0  0  0  0  0  0  0  0
   -1.1798   22.6386  -29.6326 H   0  0  0  0  0  0  0  0  0  0  0  0
   -1.0071   24.3483  -29.1884 H   0  0  0  0  0  0  0  0  0  0  0  0
   -3.1033   23.0920  -26.7738 C   0  0  0  0  0  0  0  0  0  0  0  0
   -3.7548   23.1488  -27.9437 C   0  0  0  0  0  0  0  0  0  0  0  0
   -5.1578   23.3628  -28.0182 C   0  0  0  0  0  0  0  0  0  0  0  0
   -5.8159   23.4094  -29.3214 C   0  0  0  0  0  0  0  0  0  0  0  0
   -5.8679   23.5155  -26.8569 C   0  0  0  0  0  0  0  0  0  0  0  0
   -7.1161   23.7048  -26.8355 O   0  0  0  0  0  0  0  0  0  0  0  0
   -5.1921   23.4559  -25.7133 N   0  0  0  0  0  0  0  0  0  0  0  0
   -3.8837   23.2549  -25.6532 N   0  0  0  0  0  0  0  0  0  0  0  0
   -5.9231   23.6618  -24.4917 C   0  0  0  0  0  0  0  0  0  0  0  0
   -6.2803   24.9312  -24.1627 C   0  0  0  0  0  0  0  0  0  0  0  0
   -5.8486   26.2797  -25.1850 Cl  0  0  0  0  0  0  0  0  0  0  0  0
   -7.0097   25.2103  -23.0001 C   0  0  0  0  0  0  0  0  0  0  0  0
   -7.3727   24.1930  -22.1733 C   0  0  0  0  0  0  0  0  0  0  0  0
   -7.0226   22.8623  -22.4763 C   0  0  0  0  0  0  0  0  0  0  0  0
   -6.2864   22.6465  -23.6652 C   0  0  0  0  0  0  0  0  0  0  0  0
   -5.8725   20.9967  -24.0237 Cl  0  0  0  0  0  0  0  0  0  0  0  0
   -7.3462   26.5149  -22.7158 O   0  0  0  0  0  0  0  0  0  0  0  0
   -8.1384   26.9687  -21.6729 C   0  0  0  0  0  0  0  0  0  0  0  0
   -7.3843   21.9245  -21.6665 O   0  0  0  0  0  0  0  0  0  0  0  0
   -7.7490   21.0266  -20.8472 C   0  0  0  0  0  0  0  0  0  0  0  0
    0.1204   21.2454  -21.4700 N   0  0  0  0  0  0  0  0  0  0  0  0
   -0.5154   21.7155  -22.5475 C   0  0  0  0  0  0  0  0  0  0  0  0
    0.3402   21.7041  -23.6529 C   0  0  0  0  0  0  0  0  0  0  0  0
    1.5142   21.2042  -23.1797 C   0  0  0  0  0  0  0  0  0  0  0  0
    1.3457   20.9356  -21.8514 N   0  0  0  0  0  0  0  0  0  0  0  0
   -1.6872   22.1371  -17.7262 N   0  0  0  0  0  0  0  0  0  0  0  0
   -2.1514   22.5556  -19.0030 C   0  0  0  0  0  0  0  0  0  0  0  0
   -1.8869   21.5881  -20.1378 C   0  0  0  0  0  0  0  0  0  0  0  0
   -0.4568   21.1430  -20.1406 C   0  0  0  0  0  0  0  0  0  0  0  0
    0.2980   22.0276  -19.1683 C   0  0  0  0  0  0  0  0  0  0  0  0
   -0.2862   21.8256  -17.7937 C   0  0  0  0  0  0  0  0  0  0  0  0
   -2.4112   21.0546  -17.1298 C   0  0  0  0  0  0  0  0  0  0  0  0
   -3.6657   21.4223  -16.4538 C   0  0  0  0  0  0  0  0  0  0  0  0
   -4.5923   23.5467  -16.1548 C   0  0  0  0  0  0  0  0  0  0  0  0
   -3.6068   22.6515  -15.8378 O   0  0  0  0  0  0  0  0  0  0  0  0
 43 44  1  0  0  0
 44 42  1  0  0  0
 42 41  1  0  0  0
 41 35  1  0  0  0
 35 36  1  0  0  0
 36 37  1  0  0  0
 37 38  1  0  0  0
 38 39  1  0  0  0
 39 40  1  0  0  0
 38 30  1  0  0  0
 30 31  1  0  0  0
 31 32  2  0  0  0
 32 33  1  0  0  0
 33 34  2  0  0  0
 32  1  1  0  0  0
  1  2  2  0  0  0
  2  3  1  0  0  0
  3  4  2  0  0  0
  4  5  1  0  0  0
  4  6  1  0  0  0
  6  7  2  0  0  0
  6 10  1  0  0  0
 10 11  1  0  0  0
 11 12  2  0  0  0
 12 13  1  0  0  0
 12 14  1  0  0  0
 14 15  2  0  0  0
 14 16  1  0  0  0
 16 17  1  0  0  0
 16 18  1  0  0  0
 18 19  2  0  0  0
 19 20  1  0  0  0
 19 21  1  0  0  0
 21 26  1  0  0  0
 26 27  1  0  0  0
 21 22  2  0  0  0
 22 23  1  0  0  0
 23 28  1  0  0  0
 28 29  1  0  0  0
 23 24  2  0  0  0
 24 25  1  0  0  0
 40 35  1  0  0  0
 34 30  1  0  0  0
  7  1  1  0  0  0
 17 10  2  0  0  0
 24 18  1  0  0  0
  5  8  1  0  0  0
  5  9  1  0  0  0
M  END
> <minimizedAffinity>
-8.24059

> <CNNscore>
0.6527472138

> <CNNaffinity>
8.0392923355

> <CNN_VS>
5.2476258278

> <CNNaffinity_variance>
0.2045150548

$$$$
[H]c1nc(N([H])[H])c(-c2nn(-c3c(Cl)c(OC([H])([H])[H])c([H])c(OC([H])([H])[H])c3Cl)c(=O)c(C([H])([H])[H])c2[H])nc1-c1c([H])nn(C2([H])C([H])([H])C([H])([H])N(C([H])([H])C([H])([H])OC([H])([H])[H])C([H])([H])C2([H])[H])c1[H]


 44 48  0  0  0  0  0  0  0  0999 V2000
   -0.3658   21.9494  -24.3506 C   0  0  0  0  0  0  0  0  0  0  0  0
    0.6000   21.9815  -25.3147 C   0  0  0  0  0  0  0  0  0  0  0  0
    0.3792   22.3348  -26.5785 N   0  0  0  0  0  0  0  0  0  0  0  0
   -0.9147   22.7001  -26.9589 C   0  0  0  0  0  0  0  0  0  0  0  0
   -1.0864   23.0676  -28.3085 N   0  0  0  0  0  0  0  0  0  0  0  0
   -1.8794   22.6741  -26.0261 C   0  0  0  0  0  0  0  0  0  0  0  0
   -1.5986   22.2982  -24.7177 N   0  0  0  0  0  0  0  0  0  0  0  0
   -1.2966   22.3274  -29.0463 H   0  0  0  0  0  0  0  0  0  0  0  0
   -1.0066   24.0340  -28.6545 H   0  0  0  0  0  0  0  0  0  0  0  0
   -3.2835   23.0345  -26.2840 C   0  0  0  0  0  0  0  0  0  0  0  0
   -3.8487   23.2359  -27.4825 C   0  0  0  0  0  0  0  0  0  0  0  0
   -5.2295   23.5404  -27.6257 C   0  0  0  0  0  0  0  0  0  0  0  0
   -5.7926   23.7442  -28.9580 C   0  0  0  0  0  0  0  0  0  0  0  0
   -6.0086   23.6307  -26.5028 C   0  0  0  0  0  0  0  0  0  0  0  0
   -7.2431   23.8927  -26.5432 O   0  0  0  0  0  0  0  0  0  0  0  0
   -5.4176   23.4274  -25.3291 N   0  0  0  0  0  0  0  0  0  0  0  0
   -4.1293   23.1428  -25.2050 N   0  0  0  0  0  0  0  0  0  0  0  0
   -6.2187   23.5664  -24.1426 C   0  0  0  0  0  0  0  0  0  0  0  0
   -6.5802   22.4388  -23.4755 C   0  0  0  0  0  0  0  0  0  0  0  0
   -6.1012   20.8613  -24.0518 Cl  0  0  0  0  0  0  0  0  0  0  0  0
   -7.3427   22.4930  -22.3020 C   0  0  0  0  0  0  0  0  0  0  0  0
   -7.7371   23.6988  -21.8111 C   0  0  0  0  0  0  0  0  0  0  0  0
   -7.3848   24.8923  -22.4716 C   0  0  0  0  0  0  0  0  0  0  0  0
   -6.6130   24.7702  -23.6512 C   0  0  0  0  0  0  0  0  0  0  0  0
   -6.1826   26.2556  -24.4450 Cl  0  0  0  0  0  0  0  0  0  0  0  0
   -7.6799   21.3193  -21.6658 O   0  0  0  0  0  0  0  0  0  0  0  0
   -7.9457   21.1427  -20.3169 C   0  0  0  0  0  0  0  0  0  0  0  0
   -7.7787   26.0170  -21.9755 O   0  0  0  0  0  0  0  0  0  0  0  0
   -8.1966   27.1083  -21.4805 C   0  0  0  0  0  0  0  0  0  0  0  0
   -0.4629   21.0030  -20.8310 N   0  0  0  0  0  0  0  0  0  0  0  0
   -1.0332   21.4240  -21.9640 C   0  0  0  0  0  0  0  0  0  0  0  0
   -0.0783   21.5021  -22.9820 C   0  0  0  0  0  0  0  0  0  0  0  0
    1.0860   21.1068  -22.3988 C   0  0  0  0  0  0  0  0  0  0  0  0
    0.8166   20.8104  -21.0932 N   0  0  0  0  0  0  0  0  0  0  0  0
   -2.4535   21.7161  -17.1422 N   0  0  0  0  0  0  0  0  0  0  0  0
   -2.7638   22.3165  -18.3929 C   0  0  0  0  0  0  0  0  0  0  0  0
   -2.5194   21.4460  -19.6079 C   0  0  0  0  0  0  0  0  0  0  0  0
   -1.1528   20.8347  -19.5634 C   0  0  0  0  0  0  0  0  0  0  0  0
   -0.3838   21.5174  -18.4497 C   0  0  0  0  0  0  0  0  0  0  0  0
   -1.0955   21.2469  -17.1490 C   0  0  0  0  0  0  0  0  0  0  0  0
   -3.3400   20.6731  -16.7205 C   0  0  0  0  0  0  0  0  0  0  0  0
   -4.7756   20.9893  -16.7905 C   0  0  0  0  0  0  0  0  0  0  0  0
   -5.2390   19.2661  -18.2994 C   0  0  0  0  0  0  0  0  0  0  0  0
   -5.5515   19.9045  -17.1298 O   0  0  0  0  0  0  0  0  0  0  0  0
 43 44  1  0  0  0
 44 42  1  0  0  0
 42 41  1  0  0  0
 41 35  1  0  0  0
 35 36  1  0  0  0
 36 37  1  0  0  0
 37 38  1  0  0  0
 38 39  1  0  0  0
 39 40  1  0  0  0
 38 30  1  0  0  0
 30 31  1  0  0  0
 31 32  2  0  0  0
 32 33  1  0  0  0
 33 34  2  0  0  0
 32  1  1  0  0  0
  1  2  2  0  0  0
  2  3  1  0  0  0
  3  4  2  0  0  0
  4  5  1  0  0  0
  4  6  1  0  0  0
  6  7  2  0  0  0
  6 10  1  0  0  0
 10 11  1  0  0  0
 11 12  2  0  0  0
 12 13  1  0  0  0
 12 14  1  0  0  0
 14 15  2  0  0  0
 14 16  1  0  0  0
 16 17  1  0  0  0
 16 18  1  0  0  0
 18 19  2  0  0  0
 19 20  1  0  0  0
 19 21  1  0  0  0
 21 26  1  0  0  0
 26 27  1  0  0  0
 21 22  2  0  0  0
 22 23  1  0  0  0
 23 28  1  0  0  0
 28 29  1  0  0  0
 23 24  2  0  0  0
 24 25  1  0  0  0
 40 35  1  0  0  0
 34 30  1  0  0  0
  7  1  1  0  0  0
 17 10  2  0  0  0
 24 18  1  0  0  0
  5  8  1  0  0  0
  5  9  1  0  0  0
M  END
> <minimizedAffinity>
-8.04507

> <CNNscore>
0.5393421650

> <CNNaffinity>
7.9990525246

> <CNN_VS>
4.3142261505

> <CNNaffinity_variance>
0.2356774360

$$$$
[H]c1nc(N([H])[H])c(-c2nn(-c3c(Cl)c(OC([H])([H])[H])c([H])c(OC([H])([H])[H])c3Cl)c(=O)c(C([H])([H])[H])c2[H])nc1-c1c([H])nn(C2([H])C([H])([H])C([H])([H])N(C([H])([H])C([H])([H])OC([H])([H])[H])C([H])([H])C2([H])[H])c1[H]


 44 48  0  0  0  0  0  0  0  0999 V2000
   -3.0789   22.7100  -25.4185 C   0  0  0  0  0  0  0  0  0  0  0  0
   -2.6242   22.9568  -26.6816 C   0  0  0  0  0  0  0  0  0  0  0  0
   -1.3587   22.7992  -27.0615 N   0  0  0  0  0  0  0  0  0  0  0  0
   -0.4249   22.3528  -26.1230 C   0  0  0  0  0  0  0  0  0  0  0  0
    0.8981   22.2018  -26.5843 N   0  0  0  0  0  0  0  0  0  0  0  0
   -0.8513   22.1055  -24.8745 C   0  0  0  0  0  0  0  0  0  0  0  0
   -2.1850   22.2847  -24.5262 N   0  0  0  0  0  0  0  0  0  0  0  0
    1.5737   23.0261  -26.5636 H   0  0  0  0  0  0  0  0  0  0  0  0
    1.2745   21.3244  -26.9698 H   0  0  0  0  0  0  0  0  0  0  0  0
    0.0192   21.6300  -23.7865 C   0  0  0  0  0  0  0  0  0  0  0  0
    1.3475   21.4600  -23.8434 C   0  0  0  0  0  0  0  0  0  0  0  0
    2.1041   21.0341  -22.7183 C   0  0  0  0  0  0  0  0  0  0  0  0
    3.5509   20.8713  -22.8370 C   0  0  0  0  0  0  0  0  0  0  0  0
    1.4555   20.7897  -21.5369 C   0  0  0  0  0  0  0  0  0  0  0  0
    2.0535   20.4130  -20.4906 O   0  0  0  0  0  0  0  0  0  0  0  0
    0.1376   20.9660  -21.5137 N   0  0  0  0  0  0  0  0  0  0  0  0
   -0.5598   21.3644  -22.5676 N   0  0  0  0  0  0  0  0  0  0  0  0
   -0.5569   20.6667  -20.2902 C   0  0  0  0  0  0  0  0  0  0  0  0
   -1.0968   21.6981  -19.5889 C   0  0  0  0  0  0  0  0  0  0  0  0
   -0.9371   23.3452  -20.1470 Cl  0  0  0  0  0  0  0  0  0  0  0  0
   -1.8044   21.4857  -18.3991 C   0  0  0  0  0  0  0  0  0  0  0  0
   -1.9590   20.2200  -17.9252 C   0  0  0  0  0  0  0  0  0  0  0  0
   -1.4149   19.1220  -18.6205 C   0  0  0  0  0  0  0  0  0  0  0  0
   -0.7121   19.4030  -19.8160 C   0  0  0  0  0  0  0  0  0  0  0  0
   -0.0567   18.0330  -20.6619 Cl  0  0  0  0  0  0  0  0  0  0  0  0
   -2.3316   22.5671  -17.7294 O   0  0  0  0  0  0  0  0  0  0  0  0
   -3.5661   22.6460  -17.1038 C   0  0  0  0  0  0  0  0  0  0  0  0
   -1.5819   17.9363  -18.1385 O   0  0  0  0  0  0  0  0  0  0  0  0
   -1.7434   16.7836  -17.6327 C   0  0  0  0  0  0  0  0  0  0  0  0
   -6.2641   23.1627  -23.7029 N   0  0  0  0  0  0  0  0  0  0  0  0
   -4.9482   22.9294  -23.7228 C   0  0  0  0  0  0  0  0  0  0  0  0
   -4.4769   22.9496  -25.0387 C   0  0  0  0  0  0  0  0  0  0  0  0
   -5.5761   23.2066  -25.7987 C   0  0  0  0  0  0  0  0  0  0  0  0
   -6.6436   23.3311  -24.9560 N   0  0  0  0  0  0  0  0  0  0  0  0
   -7.7612   22.5727  -19.7673 N   0  0  0  0  0  0  0  0  0  0  0  0
   -6.4601   23.0315  -20.1101 C   0  0  0  0  0  0  0  0  0  0  0  0
   -6.3777   23.8610  -21.3746 C   0  0  0  0  0  0  0  0  0  0  0  0
   -7.0882   23.1849  -22.5066 C   0  0  0  0  0  0  0  0  0  0  0  0
   -7.4121   21.7721  -22.0629 C   0  0  0  0  0  0  0  0  0  0  0  0
   -8.3308   21.8498  -20.8706 C   0  0  0  0  0  0  0  0  0  0  0  0
   -8.6703   23.5796  -19.3076 C   0  0  0  0  0  0  0  0  0  0  0  0
  -10.0577   23.4503  -19.7814 C   0  0  0  0  0  0  0  0  0  0  0  0
  -11.8577   24.7463  -19.0453 C   0  0  0  0  0  0  0  0  0  0  0  0
  -10.9891   23.7166  -18.8038 O   0  0  0  0  0  0  0  0  0  0  0  0
 43 44  1  0  0  0
 44 42  1  0  0  0
 42 41  1  0  0  0
 41 35  1  0  0  0
 35 36  1  0  0  0
 36 37  1  0  0  0
 37 38  1  0  0  0
 38 39  1  0  0  0
 39 40  1  0  0  0
 38 30  1  0  0  0
 30 31  1  0  0  0
 31 32  2  0  0  0
 32 33  1  0  0  0
 33 34  2  0  0  0
 32  1  1  0  0  0
  1  2  2  0  0  0
  2  3  1  0  0  0
  3  4  2  0  0  0
  4  5  1  0  0  0
  4  6  1  0  0  0
  6  7  2  0  0  0
  6 10  1  0  0  0
 10 11  1  0  0  0
 11 12  2  0  0  0
 12 13  1  0  0  0
 12 14  1  0  0  0
 14 15  2  0  0  0
 14 16  1  0  0  0
 16 17  1  0  0  0
 16 18  1  0  0  0
 18 19  2  0  0  0
 19 20  1  0  0  0
 19 21  1  0  0  0
 21 26  1  0  0  0
 26 27  1  0  0  0
 21 22  2  0  0  0
 22 23  1  0  0  0
 23 28  1  0  0  0
 28 29  1  0  0  0
 23 24  2  0  0  0
 24 25  1  0  0  0
 40 35  1  0  0  0
 34 30  1  0  0  0
  7  1  1  0  0  0
 17 10  2  0  0  0
 24 18  1  0  0  0
  5  8  1  0  0  0
  5  9  1  0  0  0
M  END
> <minimizedAffinity>
-7.59223

> <CNNscore>
0.1048336774

> <CNNaffinity>
7.1754097939

> <CNN_VS>
0.7522246242

> <CNNaffinity_variance>
0.0573522374

$$$$
[H]c1nc(N([H])[H])c(-c2nn(-c3c(Cl)c(OC([H])([H])[H])c([H])c(OC([H])([H])[H])c3Cl)c(=O)c(C([H])([H])[H])c2[H])nc1-c1c([H])nn(C2([H])C([H])([H])C([H])([H])N(C([H])([H])C([H])([H])OC([H])([H])[H])C([H])([H])C2([H])[H])c1[H]


 44 48  0  0  0  0  0  0  0  0999 V2000
   -1.8609   22.2810  -25.0452 C   0  0  0  0  0  0  0  0  0  0  0  0
   -0.8672   22.2765  -25.9811 C   0  0  0  0  0  0  0  0  0  0  0  0
    0.4024   21.9776  -25.7177 N   0  0  0  0  0  0  0  0  0  0  0  0
    0.7576   21.6439  -24.4083 C   0  0  0  0  0  0  0  0  0  0  0  0
    2.1150   21.3338  -24.1912 N   0  0  0  0  0  0  0  0  0  0  0  0
   -0.2046   21.6436  -23.4724 C   0  0  0  0  0  0  0  0  0  0  0  0
   -1.5179   21.9625  -23.7974 N   0  0  0  0  0  0  0  0  0  0  0  0
    2.8156   22.1059  -23.9689 H   0  0  0  0  0  0  0  0  0  0  0  0
    2.5019   20.3813  -24.2476 H   0  0  0  0  0  0  0  0  0  0  0  0
    0.0247   21.3112  -22.0565 C   0  0  0  0  0  0  0  0  0  0  0  0
   -0.8933   20.8845  -21.1780 C   0  0  0  0  0  0  0  0  0  0  0  0
   -0.5589   20.5491  -19.8381 C   0  0  0  0  0  0  0  0  0  0  0  0
   -1.6004   20.0835  -18.9258 C   0  0  0  0  0  0  0  0  0  0  0  0
    0.7437   20.6650  -19.4307 C   0  0  0  0  0  0  0  0  0  0  0  0
    1.1244   20.3835  -18.2601 O   0  0  0  0  0  0  0  0  0  0  0  0
    1.6296   21.0926  -20.3253 N   0  0  0  0  0  0  0  0  0  0  0  0
    1.3090   21.4022  -21.5733 N   0  0  0  0  0  0  0  0  0  0  0  0
    2.9908   21.2614  -19.8924 C   0  0  0  0  0  0  0  0  0  0  0  0
    3.8995   20.3142  -20.2449 C   0  0  0  0  0  0  0  0  0  0  0  0
    3.4256   18.9194  -21.1829 Cl  0  0  0  0  0  0  0  0  0  0  0  0
    5.2472   20.4177  -19.8783 C   0  0  0  0  0  0  0  0  0  0  0  0
    5.6661   21.4878  -19.1504 C   0  0  0  0  0  0  0  0  0  0  0  0
    4.7572   22.4923  -18.7633 C   0  0  0  0  0  0  0  0  0  0  0  0
    3.4104   22.3299  -19.1656 C   0  0  0  0  0  0  0  0  0  0  0  0
    2.3082   23.5851  -18.6845 Cl  0  0  0  0  0  0  0  0  0  0  0  0
    6.1254   19.4295  -20.2633 O   0  0  0  0  0  0  0  0  0  0  0  0
    6.6070   18.3864  -19.4879 C   0  0  0  0  0  0  0  0  0  0  0  0
    5.1925   23.4918  -18.0722 O   0  0  0  0  0  0  0  0  0  0  0  0
    5.6528   24.4628  -17.3970 C   0  0  0  0  0  0  0  0  0  0  0  0
   -5.3525   23.3308  -25.0473 N   0  0  0  0  0  0  0  0  0  0  0  0
   -4.1939   23.0597  -24.4385 C   0  0  0  0  0  0  0  0  0  0  0  0
   -3.2370   22.6687  -25.3796 C   0  0  0  0  0  0  0  0  0  0  0  0
   -3.8832   22.7212  -26.5761 C   0  0  0  0  0  0  0  0  0  0  0  0
   -5.1652   23.1274  -26.3381 N   0  0  0  0  0  0  0  0  0  0  0  0
   -8.1440   25.1700  -22.4198 N   0  0  0  0  0  0  0  0  0  0  0  0
   -7.1261   25.8316  -23.1595 C   0  0  0  0  0  0  0  0  0  0  0  0
   -6.7946   25.2134  -24.5017 C   0  0  0  0  0  0  0  0  0  0  0  0
   -6.5730   23.7378  -24.3723 C   0  0  0  0  0  0  0  0  0  0  0  0
   -6.4898   23.4170  -22.8932 C   0  0  0  0  0  0  0  0  0  0  0  0
   -7.8053   23.7834  -22.2552 C   0  0  0  0  0  0  0  0  0  0  0  0
   -9.4715   25.3011  -22.9415 C   0  0  0  0  0  0  0  0  0  0  0  0
  -10.4445   25.9551  -22.0518 C   0  0  0  0  0  0  0  0  0  0  0  0
   -9.9123   27.7223  -20.6183 C   0  0  0  0  0  0  0  0  0  0  0  0
  -10.2060   27.3004  -21.8867 O   0  0  0  0  0  0  0  0  0  0  0  0
 43 44  1  0  0  0
 44 42  1  0  0  0
 42 41  1  0  0  0
 41 35  1  0  0  0
 35 36  1  0  0  0
 36 37  1  0  0  0
 37 38  1  0  0  0
 38 39  1  0  0  0
 39 40  1  0  0  0
 38 30  1  0  0  0
 30 31  1  0  0  0
 31 32  2  0  0  0
 32 33  1  0  0  0
 33 34  2  0  0  0
 32  1  1  0  0  0
  1  2  2  0  0  0
  2  3  1  0  0  0
  3  4  2  0  0  0
  4  5  1  0  0  0
  4  6  1  0  0  0
  6  7  2  0  0  0
  6 10  1  0  0  0
 10 11  1  0  0  0
 11 12  2  0  0  0
 12 13  1  0  0  0
 12 14  1  0  0  0
 14 15  2  0  0  0
 14 16  1  0  0  0
 16 17  1  0  0  0
 16 18  1  0  0  0
 18 19  2  0  0  0
 19 20  1  0  0  0
 19 21  1  0  0  0
 21 26  1  0  0  0
 26 27  1  0  0  0
 21 22  2  0  0  0
 22 23  1  0  0  0
 23 28  1  0  0  0
 28 29  1  0  0  0
 23 24  2  0  0  0
 24 25  1  0  0  0
 40 35  1  0  0  0
 34 30  1  0  0  0
  7  1  1  0  0  0
 17 10  2  0  0  0
 24 18  1  0  0  0
  5  8  1  0  0  0
  5  9  1  0  0  0
M  END
> <minimizedAffinity>
-7.80430

> <CNNscore>
0.1017337590

> <CNNaffinity>
7.0928053856

> <CNN_VS>
0.7215777636

> <CNNaffinity_variance>
0.0767263472

$$$$
[H]c1nc(N([H])[H])c(-c2nn(-c3c(Cl)c(OC([H])([H])[H])c([H])c(OC([H])([H])[H])c3Cl)c(=O)c(C([H])([H])[H])c2[H])nc1-c1c([H])nn(C2([H])C([H])([H])C([H])([H])N(C([H])([H])C([H])([H])OC([H])([H])[H])C([H])([H])C2([H])[H])c1[H]


 44 48  0  0  0  0  0  0  0  0999 V2000
   -2.0905   22.4598  -24.9911 C   0  0  0  0  0  0  0  0  0  0  0  0
   -1.0963   22.4755  -25.9262 C   0  0  0  0  0  0  0  0  0  0  0  0
    0.1730   22.1697  -25.6688 N   0  0  0  0  0  0  0  0  0  0  0  0
    0.5270   21.8063  -24.3670 C   0  0  0  0  0  0  0  0  0  0  0  0
    1.8840   21.4902  -24.1561 N   0  0  0  0  0  0  0  0  0  0  0  0
   -0.4358   21.7857  -23.4319 C   0  0  0  0  0  0  0  0  0  0  0  0
   -1.7486   22.1129  -23.7506 N   0  0  0  0  0  0  0  0  0  0  0  0
    2.5851   22.2565  -23.9159 H   0  0  0  0  0  0  0  0  0  0  0  0
    2.2701   20.5389  -24.2337 H   0  0  0  0  0  0  0  0  0  0  0  0
   -0.2078   21.4212  -22.0238 C   0  0  0  0  0  0  0  0  0  0  0  0
   -1.1459   21.1189  -21.1155 C   0  0  0  0  0  0  0  0  0  0  0  0
   -0.8167   20.7377  -19.7866 C   0  0  0  0  0  0  0  0  0  0  0  0
   -1.8813   20.4133  -18.8405 C   0  0  0  0  0  0  0  0  0  0  0  0
    0.5021   20.6764  -19.4217 C   0  0  0  0  0  0  0  0  0  0  0  0
    0.8791   20.3429  -18.2637 O   0  0  0  0  0  0  0  0  0  0  0  0
    1.4082   20.9840  -20.3451 N   0  0  0  0  0  0  0  0  0  0  0  0
    1.0921   21.3376  -21.5825 N   0  0  0  0  0  0  0  0  0  0  0  0
    2.7930   20.9673  -19.9566 C   0  0  0  0  0  0  0  0  0  0  0  0
    3.2835   22.0390  -19.2798 C   0  0  0  0  0  0  0  0  0  0  0  0
    2.2662   23.4086  -18.9067 Cl  0  0  0  0  0  0  0  0  0  0  0  0
    4.6157   22.0887  -18.8504 C   0  0  0  0  0  0  0  0  0  0  0  0
    5.4468   21.0445  -19.1139 C   0  0  0  0  0  0  0  0  0  0  0  0
    4.9794   19.9142  -19.8132 C   0  0  0  0  0  0  0  0  0  0  0  0
    3.6239   19.9249  -20.2189 C   0  0  0  0  0  0  0  0  0  0  0  0
    3.0665   18.5170  -21.0726 Cl  0  0  0  0  0  0  0  0  0  0  0  0
    5.0598   23.1988  -18.1674 O   0  0  0  0  0  0  0  0  0  0  0  0
    6.2677   23.8582  -18.3333 C   0  0  0  0  0  0  0  0  0  0  0  0
    5.7986   18.9440  -20.0449 O   0  0  0  0  0  0  0  0  0  0  0  0
    6.6042   17.9828  -20.2389 C   0  0  0  0  0  0  0  0  0  0  0  0
   -5.5791   23.5194  -24.9722 N   0  0  0  0  0  0  0  0  0  0  0  0
   -4.4203   23.2365  -24.3694 C   0  0  0  0  0  0  0  0  0  0  0  0
   -3.4661   22.8560  -25.3175 C   0  0  0  0  0  0  0  0  0  0  0  0
   -4.1142   22.9272  -26.5121 C   0  0  0  0  0  0  0  0  0  0  0  0
   -5.3946   23.3336  -26.2661 N   0  0  0  0  0  0  0  0  0  0  0  0
   -8.3523   25.2346  -22.2435 N   0  0  0  0  0  0  0  0  0  0  0  0
   -7.2835   25.9125  -22.8909 C   0  0  0  0  0  0  0  0  0  0  0  0
   -6.9442   25.4107  -24.2790 C   0  0  0  0  0  0  0  0  0  0  0  0
   -6.7973   23.9203  -24.2894 C   0  0  0  0  0  0  0  0  0  0  0  0
   -6.7713   23.4545  -22.8472 C   0  0  0  0  0  0  0  0  0  0  0  0
   -8.0852   23.8233  -22.2074 C   0  0  0  0  0  0  0  0  0  0  0  0
   -9.6568   25.4823  -22.7808 C   0  0  0  0  0  0  0  0  0  0  0  0
  -10.5533   26.2854  -21.9339 C   0  0  0  0  0  0  0  0  0  0  0  0
  -11.2415   28.4667  -21.4547 C   0  0  0  0  0  0  0  0  0  0  0  0
  -10.6194   27.6054  -22.3176 O   0  0  0  0  0  0  0  0  0  0  0  0
 43 44  1  0  0  0
 44 42  1  0  0  0
 42 41  1  0  0  0
 41 35  1  0  0  0
 35 36  1  0  0  0
 36 37  1  0  0  0
 37 38  1  0  0  0
 38 39  1  0  0  0
 39 40  1  0  0  0
 38 30  1  0  0  0
 30 31  1  0  0  0
 31 32  2  0  0  0
 32 33  1  0  0  0
 33 34  2  0  0  0
 32  1  1  0  0  0
  1  2  2  0  0  0
  2  3  1  0  0  0
  3  4  2  0  0  0
  4  5  1  0  0  0
  4  6  1  0  0  0
  6  7  2  0  0  0
  6 10  1  0  0  0
 10 11  1  0  0  0
 11 12  2  0  0  0
 12 13  1  0  0  0
 12 14  1  0  0  0
 14 15  2  0  0  0
 14 16  1  0  0  0
 16 17  1  0  0  0
 16 18  1  0  0  0
 18 19  2  0  0  0
 19 20  1  0  0  0
 19 21  1  0  0  0
 21 26  1  0  0  0
 26 27  1  0  0  0
 21 22  2  0  0  0
 22 23  1  0  0  0
 23 28  1  0  0  0
 28 29  1  0  0  0
 23 24  2  0  0  0
 24 25  1  0  0  0
 40 35  1  0  0  0
 34 30  1  0  0  0
  7  1  1  0  0  0
 17 10  2  0  0  0
 24 18  1  0  0  0
  5  8  1  0  0  0
  5  9  1  0  0  0
M  END
> <minimizedAffinity>
-7.69765

> <CNNscore>
0.0738848373

> <CNNaffinity>
7.0039024353

> <CNN_VS>
0.5174822211

> <CNNaffinity_variance>
0.0856857374

$$$$
[H]c1nc(N([H])[H])c(-c2nn(-c3c(Cl)c(OC([H])([H])[H])c([H])c(OC([H])([H])[H])c3Cl)c(=O)c(C([H])([H])[H])c2[H])nc1-c1c([H])nn(C2([H])C([H])([H])C([H])([H])N(C([H])([H])C([H])([H])OC([H])([H])[H])C([H])([H])C2([H])[H])c1[H]


 44 48  0  0  0  0  0  0  0  0999 V2000
   -8.0013   23.9764  -21.3449 C   0  0  0  0  0  0  0  0  0  0  0  0
   -9.1441   24.6614  -21.6413 C   0  0  0  0  0  0  0  0  0  0  0  0
  -10.2531   24.6125  -20.9076 N   0  0  0  0  0  0  0  0  0  0  0  0
  -10.2655   23.8173  -19.7588 C   0  0  0  0  0  0  0  0  0  0  0  0
  -11.4660   23.8082  -19.0209 N   0  0  0  0  0  0  0  0  0  0  0  0
   -9.1520   23.1345  -19.4500 C   0  0  0  0  0  0  0  0  0  0  0  0
   -8.0173   23.2189  -20.2485 N   0  0  0  0  0  0  0  0  0  0  0  0
  -12.2416   23.1175  -19.2615 H   0  0  0  0  0  0  0  0  0  0  0  0
  -11.6670   24.4537  -18.2443 H   0  0  0  0  0  0  0  0  0  0  0  0
   -9.0221   22.2614  -18.2716 C   0  0  0  0  0  0  0  0  0  0  0  0
   -9.5986   21.0640  -18.0979 C   0  0  0  0  0  0  0  0  0  0  0  0
   -9.3742   20.2784  -16.9350 C   0  0  0  0  0  0  0  0  0  0  0  0
  -10.0249   18.9774  -16.8023 C   0  0  0  0  0  0  0  0  0  0  0  0
   -8.5414   20.7598  -15.9599 C   0  0  0  0  0  0  0  0  0  0  0  0
   -8.2861   20.1235  -14.8996 O   0  0  0  0  0  0  0  0  0  0  0  0
   -7.9867   21.9514  -16.1615 N   0  0  0  0  0  0  0  0  0  0  0  0
   -8.2008   22.6768  -17.2497 N   0  0  0  0  0  0  0  0  0  0  0  0
   -7.1480   22.4845  -15.1217 C   0  0  0  0  0  0  0  0  0  0  0  0
   -5.8022   22.3396  -15.2439 C   0  0  0  0  0  0  0  0  0  0  0  0
   -5.1085   21.5127  -16.6168 Cl  0  0  0  0  0  0  0  0  0  0  0  0
   -4.9191   22.8484  -14.2833 C   0  0  0  0  0  0  0  0  0  0  0  0
   -5.4110   23.5037  -13.1974 C   0  0  0  0  0  0  0  0  0  0  0  0
   -6.7994   23.6757  -13.0313 C   0  0  0  0  0  0  0  0  0  0  0  0
   -7.6382   23.1394  -14.0368 C   0  0  0  0  0  0  0  0  0  0  0  0
   -9.3468   23.3705  -13.8159 Cl  0  0  0  0  0  0  0  0  0  0  0  0
   -3.5644   22.6741  -14.4577 O   0  0  0  0  0  0  0  0  0  0  0  0
   -2.7221   21.8563  -13.7208 C   0  0  0  0  0  0  0  0  0  0  0  0
   -7.2277   24.3022  -11.9872 O   0  0  0  0  0  0  0  0  0  0  0  0
   -7.6250   24.9427  -10.9661 C   0  0  0  0  0  0  0  0  0  0  0  0
   -5.6315   23.9572  -24.1156 N   0  0  0  0  0  0  0  0  0  0  0  0
   -6.8658   23.8878  -23.6077 C   0  0  0  0  0  0  0  0  0  0  0  0
   -6.8213   24.0256  -22.2173 C   0  0  0  0  0  0  0  0  0  0  0  0
   -5.5014   24.1806  -21.9245 C   0  0  0  0  0  0  0  0  0  0  0  0
   -4.8073   24.1349  -23.0998 N   0  0  0  0  0  0  0  0  0  0  0  0
   -3.5740   23.8845  -27.8359 N   0  0  0  0  0  0  0  0  0  0  0  0
   -3.1550   23.2537  -26.6327 C   0  0  0  0  0  0  0  0  0  0  0  0
   -4.2719   22.7574  -25.7384 C   0  0  0  0  0  0  0  0  0  0  0  0
   -5.3015   23.8238  -25.5243 C   0  0  0  0  0  0  0  0  0  0  0  0
   -4.7304   25.1227  -26.0575 C   0  0  0  0  0  0  0  0  0  0  0  0
   -4.4801   24.9581  -27.5346 C   0  0  0  0  0  0  0  0  0  0  0  0
   -4.1399   23.0160  -28.8243 C   0  0  0  0  0  0  0  0  0  0  0  0
   -5.4937   23.3676  -29.2820 C   0  0  0  0  0  0  0  0  0  0  0  0
   -5.6949   24.9125  -31.0239 C   0  0  0  0  0  0  0  0  0  0  0  0
   -5.5609   23.6069  -30.6356 O   0  0  0  0  0  0  0  0  0  0  0  0
 43 44  1  0  0  0
 44 42  1  0  0  0
 42 41  1  0  0  0
 41 35  1  0  0  0
 35 36  1  0  0  0
 36 37  1  0  0  0
 37 38  1  0  0  0
 38 39  1  0  0  0
 39 40  1  0  0  0
 38 30  1  0  0  0
 30 31  1  0  0  0
 31 32  2  0  0  0
 32 33  1  0  0  0
 33 34  2  0  0  0
 32  1  1  0  0  0
  1  2  2  0  0  0
  2  3  1  0  0  0
  3  4  2  0  0  0
  4  5  1  0  0  0
  4  6  1  0  0  0
  6  7  2  0  0  0
  6 10  1  0  0  0
 10 11  1  0  0  0
 11 12  2  0  0  0
 12 13  1  0  0  0
 12 14  1  0  0  0
 14 15  2  0  0  0
 14 16  1  0  0  0
 16 17  1  0  0  0
 16 18  1  0  0  0
 18 19  2  0  0  0
 19 20  1  0  0  0
 19 21  1  0  0  0
 21 26  1  0  0  0
 26 27  1  0  0  0
 21 22  2  0  0  0
 22 23  1  0  0  0
 23 28  1  0  0  0
 28 29  1  0  0  0
 23 24  2  0  0  0
 24 25  1  0  0  0
 40 35  1  0  0  0
 34 30  1  0  0  0
  7  1  1  0  0  0
 17 10  2  0  0  0
 24 18  1  0  0  0
  5  8  1  0  0  0
  5  9  1  0  0  0
M  END
> <minimizedAffinity>
-7.01681

> <CNNscore>
0.0657058880

> <CNNaffinity>
6.5416617393

> <CNN_VS>
0.4298256934

> <CNNaffinity_variance>
0.2751161158

$$$$
[H]c1nc(N([H])[H])c(-c2nn(-c3c(Cl)c(OC([H])([H])[H])c([H])c(OC([H])([H])[H])c3Cl)c(=O)c(C([H])([H])[H])c2[H])nc1-c1c([H])nn(C2([H])C([H])([H])C([H])([H])N(C([H])([H])C([H])([H])OC([H])([H])[H])C([H])([H])C2([H])[H])c1[H]


 44 48  0  0  0  0  0  0  0  0999 V2000
   -3.4135   23.0779  -24.8453 C   0  0  0  0  0  0  0  0  0  0  0  0
   -2.7628   22.8720  -26.0275 C   0  0  0  0  0  0  0  0  0  0  0  0
   -1.5038   22.4516  -26.1212 N   0  0  0  0  0  0  0  0  0  0  0  0
   -0.7895   22.1989  -24.9473 C   0  0  0  0  0  0  0  0  0  0  0  0
    0.5373   21.7528  -25.1097 N   0  0  0  0  0  0  0  0  0  0  0  0
   -1.4107   22.3962  -23.7739 C   0  0  0  0  0  0  0  0  0  0  0  0
   -2.7285   22.8360  -23.7280 N   0  0  0  0  0  0  0  0  0  0  0  0
    1.3344   22.4546  -25.2031 H   0  0  0  0  0  0  0  0  0  0  0  0
    0.8065   20.7604  -25.1622 H   0  0  0  0  0  0  0  0  0  0  0  0
   -0.7826   22.1692  -22.4618 C   0  0  0  0  0  0  0  0  0  0  0  0
   -0.9225   22.9302  -21.3674 C   0  0  0  0  0  0  0  0  0  0  0  0
   -0.3034   22.5989  -20.1318 C   0  0  0  0  0  0  0  0  0  0  0  0
   -0.4959   23.4627  -18.9698 C   0  0  0  0  0  0  0  0  0  0  0  0
    0.4609   21.4647  -20.0561 C   0  0  0  0  0  0  0  0  0  0  0  0
    1.0408   21.0973  -18.9965 O   0  0  0  0  0  0  0  0  0  0  0  0
    0.5814   20.7324  -21.1595 N   0  0  0  0  0  0  0  0  0  0  0  0
   -0.0005   21.0485  -22.3074 N   0  0  0  0  0  0  0  0  0  0  0  0
    1.4200   19.5653  -21.1007 C   0  0  0  0  0  0  0  0  0  0  0  0
    2.6194   19.6030  -21.7388 C   0  0  0  0  0  0  0  0  0  0  0  0
    3.1230   21.0228  -22.6222 Cl  0  0  0  0  0  0  0  0  0  0  0  0
    3.4999   18.5141  -21.7111 C   0  0  0  0  0  0  0  0  0  0  0  0
    3.1542   17.3867  -21.0330 C   0  0  0  0  0  0  0  0  0  0  0  0
    1.9201   17.3051  -20.3583 C   0  0  0  0  0  0  0  0  0  0  0  0
    1.0760   18.4388  -20.4236 C   0  0  0  0  0  0  0  0  0  0  0  0
   -0.4376   18.3194  -19.5771 Cl  0  0  0  0  0  0  0  0  0  0  0  0
    4.7031   18.6069  -22.3741 O   0  0  0  0  0  0  0  0  0  0  0  0
    5.9596   18.7723  -21.8127 C   0  0  0  0  0  0  0  0  0  0  0  0
    1.6275   16.2180  -19.7268 O   0  0  0  0  0  0  0  0  0  0  0  0
    1.3154   15.1664  -19.0886 C   0  0  0  0  0  0  0  0  0  0  0  0
   -6.5784   24.6766  -23.9967 N   0  0  0  0  0  0  0  0  0  0  0  0
   -5.2948   24.3855  -23.7646 C   0  0  0  0  0  0  0  0  0  0  0  0
   -4.7879   23.5921  -24.7979 C   0  0  0  0  0  0  0  0  0  0  0  0
   -5.8323   23.4266  -25.6546 C   0  0  0  0  0  0  0  0  0  0  0  0
   -6.9032   24.0986  -25.1383 N   0  0  0  0  0  0  0  0  0  0  0  0
   -9.3934   25.8655  -21.0402 N   0  0  0  0  0  0  0  0  0  0  0  0
   -8.3335   24.9347  -20.8635 C   0  0  0  0  0  0  0  0  0  0  0  0
   -7.0865   25.2104  -21.6776 C   0  0  0  0  0  0  0  0  0  0  0  0
   -7.4282   25.4581  -23.1146 C   0  0  0  0  0  0  0  0  0  0  0  0
   -8.8824   25.0777  -23.3098 C   0  0  0  0  0  0  0  0  0  0  0  0
   -9.7259   25.9685  -22.4342 C   0  0  0  0  0  0  0  0  0  0  0  0
   -9.1730   27.1661  -20.4821 C   0  0  0  0  0  0  0  0  0  0  0  0
  -10.3098   28.0971  -20.5664 C   0  0  0  0  0  0  0  0  0  0  0  0
  -10.5122   30.3781  -20.1000 C   0  0  0  0  0  0  0  0  0  0  0  0
  -10.2426   29.1162  -19.6439 O   0  0  0  0  0  0  0  0  0  0  0  0
 43 44  1  0  0  0
 44 42  1  0  0  0
 42 41  1  0  0  0
 41 35  1  0  0  0
 35 36  1  0  0  0
 36 37  1  0  0  0
 37 38  1  0  0  0
 38 39  1  0  0  0
 39 40  1  0  0  0
 38 30  1  0  0  0
 30 31  1  0  0  0
 31 32  2  0  0  0
 32 33  1  0  0  0
 33 34  2  0  0  0
 32  1  1  0  0  0
  1  2  2  0  0  0
  2  3  1  0  0  0
  3  4  2  0  0  0
  4  5  1  0  0  0
  4  6  1  0  0  0
  6  7  2  0  0  0
  6 10  1  0  0  0
 10 11  1  0  0  0
 11 12  2  0  0  0
 12 13  1  0  0  0
 12 14  1  0  0  0
 14 15  2  0  0  0
 14 16  1  0  0  0
 16 17  1  0  0  0
 16 18  1  0  0  0
 18 19  2  0  0  0
 19 20  1  0  0  0
 19 21  1  0  0  0
 21 26  1  0  0  0
 26 27  1  0  0  0
 21 22  2  0  0  0
 22 23  1  0  0  0
 23 28  1  0  0  0
 28 29  1  0  0  0
 23 24  2  0  0  0
 24 25  1  0  0  0
 40 35  1  0  0  0
 34 30  1  0  0  0
  7  1  1  0  0  0
 17 10  2  0  0  0
 24 18  1  0  0  0
  5  8  1  0  0  0
  5  9  1  0  0  0
M  END
> <minimizedAffinity>
-7.81794

> <CNNscore>
0.0616466589

> <CNNaffinity>
6.8839707375

> <CNN_VS>
0.4243738055

> <CNNaffinity_variance>
0.0614222698

$$$$
[H]c1c(OC([H])([H])[H])c([H])c(C([H])([H])C([H])([H])c2c([H])c(-c3nc4c([H])c(C(=O)N5C([H])([H])C([H])([H])OC([H])([H])C5([H])[H])c([H])c([H])c4n3[H])nn2[H])c([H])c1OC([H])([H])[H]


 36 40  0  0  0  0  0  0  0  0999 V2000
   -1.7481   23.2460  -28.3030 C   0  0  0  0  0  0  0  0  0  0  0  0
   -1.7279   22.8383  -26.9852 C   0  0  0  0  0  0  0  0  0  0  0  0
   -0.4332   22.5228  -26.6365 C   0  0  0  0  0  0  0  0  0  0  0  0
    0.2901   22.7436  -27.7358 N   0  0  0  0  0  0  0  0  0  0  0  0
   -0.4698   23.1704  -28.7279 N   0  0  0  0  0  0  0  0  0  0  0  0
   -0.1987   23.4272  -29.7077 H   0  0  0  0  0  0  0  0  0  0  0  0
    0.0493   22.0429  -25.3239 C   0  0  0  0  0  0  0  0  0  0  0  0
   -0.6496   21.7873  -24.2328 N   0  0  0  0  0  0  0  0  0  0  0  0
    0.1966   21.3615  -23.2458 C   0  0  0  0  0  0  0  0  0  0  0  0
    0.0007   20.9733  -21.9521 C   0  0  0  0  0  0  0  0  0  0  0  0
    1.0271   20.5574  -21.0776 C   0  0  0  0  0  0  0  0  0  0  0  0
    2.2737   20.5715  -21.6351 C   0  0  0  0  0  0  0  0  0  0  0  0
    2.4806   20.9690  -22.9630 C   0  0  0  0  0  0  0  0  0  0  0  0
    1.4678   21.3622  -23.7736 C   0  0  0  0  0  0  0  0  0  0  0  0
    1.3353   21.7861  -25.0488 N   0  0  0  0  0  0  0  0  0  0  0  0
    2.1441   21.8846  -25.6918 H   0  0  0  0  0  0  0  0  0  0  0  0
    0.6822   20.1847  -19.7208 C   0  0  0  0  0  0  0  0  0  0  0  0
    0.7716   21.1366  -18.8466 O   0  0  0  0  0  0  0  0  0  0  0  0
    0.2742   18.9376  -19.2766 N   0  0  0  0  0  0  0  0  0  0  0  0
    0.0608   17.7036  -19.9566 C   0  0  0  0  0  0  0  0  0  0  0  0
   -0.5667   16.7108  -18.9915 C   0  0  0  0  0  0  0  0  0  0  0  0
   -1.6444   17.1805  -18.3015 O   0  0  0  0  0  0  0  0  0  0  0  0
   -1.3773   18.3315  -17.5689 C   0  0  0  0  0  0  0  0  0  0  0  0
    0.0083   18.8509  -17.8111 C   0  0  0  0  0  0  0  0  0  0  0  0
   -2.9555   23.6762  -29.0247 C   0  0  0  0  0  0  0  0  0  0  0  0
   -4.1644   22.9353  -28.5309 C   0  0  0  0  0  0  0  0  0  0  0  0
   -5.1959   25.6688  -26.0927 C   0  0  0  0  0  0  0  0  0  0  0  0
   -4.6843   24.9965  -27.1890 C   0  0  0  0  0  0  0  0  0  0  0  0
   -4.7228   23.6322  -27.3503 C   0  0  0  0  0  0  0  0  0  0  0  0
   -5.3262   22.9160  -26.3172 C   0  0  0  0  0  0  0  0  0  0  0  0
   -5.8547   23.5198  -25.1998 C   0  0  0  0  0  0  0  0  0  0  0  0
   -5.7747   24.8946  -25.1167 C   0  0  0  0  0  0  0  0  0  0  0  0
   -4.0858   27.6140  -25.2173 C   0  0  0  0  0  0  0  0  0  0  0  0
   -5.1382   27.0445  -25.9657 O   0  0  0  0  0  0  0  0  0  0  0  0
   -6.4455   22.7781  -24.1948 O   0  0  0  0  0  0  0  0  0  0  0  0
   -6.1379   21.4011  -24.1070 C   0  0  0  0  0  0  0  0  0  0  0  0
 33 34  1  0  0  0
 34 27  1  0  0  0
 27 28  2  0  0  0
 28 29  1  0  0  0
 29 26  1  0  0  0
 26 25  1  0  0  0
 25  1  1  0  0  0
  1  2  2  0  0  0
  2  3  1  0  0  0
  3  4  2  0  0  0
  4  5  1  0  0  0
  3  7  1  0  0  0
  7  8  2  0  0  0
  8  9  1  0  0  0
  9 10  2  0  0  0
 10 11  1  0  0  0
 11 12  2  0  0  0
 12 13  1  0  0  0
 13 14  2  0  0  0
 14 15  1  0  0  0
 11 17  1  0  0  0
 17 18  2  0  0  0
 17 19  1  0  0  0
 19 20  1  0  0  0
 20 21  1  0  0  0
 21 22  1  0  0  0
 22 23  1  0  0  0
 23 24  1  0  0  0
 29 30  2  0  0  0
 30 31  1  0  0  0
 31 35  1  0  0  0
 35 36  1  0  0  0
 31 32  2  0  0  0
 32 27  1  0  0  0
  5  1  1  0  0  0
 15  7  1  0  0  0
 24 19  1  0  0  0
 14  9  1  0  0  0
  5  6  1  0  0  0
 15 16  1  0  0  0
M  END
> <minimizedAffinity>
-8.11594

> <CNNscore>
0.9819549918

> <CNNaffinity>
7.6503953934

> <CNN_VS>
7.5123438835

> <CNNaffinity_variance>
0.0657831281

$$$$
[H]c1c(OC([H])([H])[H])c([H])c(C([H])([H])C([H])([H])c2c([H])c(-c3nc4c([H])c(C(=O)N5C([H])([H])C([H])([H])OC([H])([H])C5([H])[H])c([H])c([H])c4n3[H])nn2[H])c([H])c1OC([H])([H])[H]


 36 40  0  0  0  0  0  0  0  0999 V2000
   -1.7402   23.2491  -28.2732 C   0  0  0  0  0  0  0  0  0  0  0  0
   -1.7153   22.8620  -26.9493 C   0  0  0  0  0  0  0  0  0  0  0  0
   -0.4217   22.5382  -26.6042 C   0  0  0  0  0  0  0  0  0  0  0  0
    0.2964   22.7339  -27.7117 N   0  0  0  0  0  0  0  0  0  0  0  0
   -0.4656   23.1531  -28.7053 N   0  0  0  0  0  0  0  0  0  0  0  0
   -0.1986   23.3915  -29.6909 H   0  0  0  0  0  0  0  0  0  0  0  0
    0.0647   22.0739  -25.2875 C   0  0  0  0  0  0  0  0  0  0  0  0
   -0.6206   21.8953  -24.1726 N   0  0  0  0  0  0  0  0  0  0  0  0
    0.2237   21.4531  -23.1913 C   0  0  0  0  0  0  0  0  0  0  0  0
    0.0378   21.1193  -21.8810 C   0  0  0  0  0  0  0  0  0  0  0  0
    1.0598   20.6728  -21.0165 C   0  0  0  0  0  0  0  0  0  0  0  0
    2.2910   20.5958  -21.6025 C   0  0  0  0  0  0  0  0  0  0  0  0
    2.4876   20.9371  -22.9475 C   0  0  0  0  0  0  0  0  0  0  0  0
    1.4794   21.3623  -23.7476 C   0  0  0  0  0  0  0  0  0  0  0  0
    1.3401   21.7514  -25.0332 N   0  0  0  0  0  0  0  0  0  0  0  0
    2.1371   21.7815  -25.6974 H   0  0  0  0  0  0  0  0  0  0  0  0
    0.7277   20.3653  -19.6404 C   0  0  0  0  0  0  0  0  0  0  0  0
    0.0199   19.2939  -19.4690 O   0  0  0  0  0  0  0  0  0  0  0  0
    1.0858   21.0886  -18.5144 N   0  0  0  0  0  0  0  0  0  0  0  0
    1.8532   22.2774  -18.3463 C   0  0  0  0  0  0  0  0  0  0  0  0
    2.0790   22.5128  -16.8616 C   0  0  0  0  0  0  0  0  0  0  0  0
    2.5363   21.4310  -16.1696 O   0  0  0  0  0  0  0  0  0  0  0  0
    1.7133   20.3154  -16.2740 C   0  0  0  0  0  0  0  0  0  0  0  0
    0.5760   20.5350  -17.2262 C   0  0  0  0  0  0  0  0  0  0  0  0
   -2.9478   23.6808  -28.9936 C   0  0  0  0  0  0  0  0  0  0  0  0
   -4.1554   22.9335  -28.5061 C   0  0  0  0  0  0  0  0  0  0  0  0
   -5.2028   25.6808  -26.0902 C   0  0  0  0  0  0  0  0  0  0  0  0
   -4.6716   25.0011  -27.1726 C   0  0  0  0  0  0  0  0  0  0  0  0
   -4.7355   23.6386  -27.3408 C   0  0  0  0  0  0  0  0  0  0  0  0
   -5.3873   22.9325  -26.3305 C   0  0  0  0  0  0  0  0  0  0  0  0
   -5.9377   23.5440  -25.2279 C   0  0  0  0  0  0  0  0  0  0  0  0
   -5.8296   24.9164  -25.1364 C   0  0  0  0  0  0  0  0  0  0  0  0
   -4.0914   27.5965  -25.1535 C   0  0  0  0  0  0  0  0  0  0  0  0
   -5.1184   27.0544  -25.9555 O   0  0  0  0  0  0  0  0  0  0  0  0
   -6.5767   22.8122  -24.2454 O   0  0  0  0  0  0  0  0  0  0  0  0
   -6.0838   21.5227  -23.9410 C   0  0  0  0  0  0  0  0  0  0  0  0
 33 34  1  0  0  0
 34 27  1  0  0  0
 27 28  2  0  0  0
 28 29  1  0  0  0
 29 26  1  0  0  0
 26 25  1  0  0  0
 25  1  1  0  0  0
  1  2  2  0  0  0
  2  3  1  0  0  0
  3  4  2  0  0  0
  4  5  1  0  0  0
  3  7  1  0  0  0
  7  8  2  0  0  0
  8  9  1  0  0  0
  9 10  2  0  0  0
 10 11  1  0  0  0
 11 12  2  0  0  0
 12 13  1  0  0  0
 13 14  2  0  0  0
 14 15  1  0  0  0
 11 17  1  0  0  0
 17 18  2  0  0  0
 17 19  1  0  0  0
 19 20  1  0  0  0
 20 21  1  0  0  0
 21 22  1  0  0  0
 22 23  1  0  0  0
 23 24  1  0  0  0
 29 30  2  0  0  0
 30 31  1  0  0  0
 31 35  1  0  0  0
 35 36  1  0  0  0
 31 32  2  0  0  0
 32 27  1  0  0  0
  5  1  1  0  0  0
 15  7  1  0  0  0
 24 19  1  0  0  0
 14  9  1  0  0  0
  5  6  1  0  0  0
 15 16  1  0  0  0
M  END
> <minimizedAffinity>
-8.22187

> <CNNscore>
0.9749629498

> <CNNaffinity>
7.6330614090

> <CNN_VS>
7.4419522285

> <CNNaffinity_variance>
0.0560361370

$$$$
[H]c1c(OC([H])([H])[H])c([H])c(C([H])([H])C([H])([H])c2c([H])c(-c3nc4c([H])c(C(=O)N5C([H])([H])C([H])([H])OC([H])([H])C5([H])[H])c([H])c([H])c4n3[H])nn2[H])c([H])c1OC([H])([H])[H]


 36 40  0  0  0  0  0  0  0  0999 V2000
   -1.3011   22.7173  -26.8456 C   0  0  0  0  0  0  0  0  0  0  0  0
   -1.0872   22.1161  -25.6225 C   0  0  0  0  0  0  0  0  0  0  0  0
    0.2565   22.1764  -25.3255 C   0  0  0  0  0  0  0  0  0  0  0  0
    0.8170   22.8039  -26.3612 N   0  0  0  0  0  0  0  0  0  0  0  0
   -0.0874   23.1298  -27.2665 N   0  0  0  0  0  0  0  0  0  0  0  0
    0.0392   23.6252  -28.1820 H   0  0  0  0  0  0  0  0  0  0  0  0
    0.9309   21.6569  -24.1168 C   0  0  0  0  0  0  0  0  0  0  0  0
    0.4000   21.3390  -22.9499 N   0  0  0  0  0  0  0  0  0  0  0  0
    1.3868   20.8962  -22.1122 C   0  0  0  0  0  0  0  0  0  0  0  0
    1.3853   20.4509  -20.8220 C   0  0  0  0  0  0  0  0  0  0  0  0
    2.5342   20.0274  -20.1206 C   0  0  0  0  0  0  0  0  0  0  0  0
    3.6880   20.0971  -20.8478 C   0  0  0  0  0  0  0  0  0  0  0  0
    3.6953   20.5534  -22.1729 C   0  0  0  0  0  0  0  0  0  0  0  0
    2.5696   20.9520  -22.8140 C   0  0  0  0  0  0  0  0  0  0  0  0
    2.2480   21.4234  -24.0379 N   0  0  0  0  0  0  0  0  0  0  0  0
    2.9547   21.5692  -24.7839 H   0  0  0  0  0  0  0  0  0  0  0  0
    2.3939   19.5912  -18.7463 C   0  0  0  0  0  0  0  0  0  0  0  0
    2.9094   18.4332  -18.4788 O   0  0  0  0  0  0  0  0  0  0  0  0
    1.7768   20.2767  -17.7127 N   0  0  0  0  0  0  0  0  0  0  0  0
    1.1357   21.5481  -17.6577 C   0  0  0  0  0  0  0  0  0  0  0  0
    0.8030   21.8704  -16.2099 C   0  0  0  0  0  0  0  0  0  0  0  0
    1.8330   21.7079  -15.3319 O   0  0  0  0  0  0  0  0  0  0  0  0
    2.3733   20.4269  -15.3393 C   0  0  0  0  0  0  0  0  0  0  0  0
    1.7687   19.5610  -16.4036 C   0  0  0  0  0  0  0  0  0  0  0  0
   -2.6170   22.8563  -27.4881 C   0  0  0  0  0  0  0  0  0  0  0  0
   -3.7171   22.4834  -26.5368 C   0  0  0  0  0  0  0  0  0  0  0  0
   -6.7307   24.6115  -25.6038 C   0  0  0  0  0  0  0  0  0  0  0  0
   -5.7365   23.6486  -25.5966 C   0  0  0  0  0  0  0  0  0  0  0  0
   -4.7683   23.5254  -26.5643 C   0  0  0  0  0  0  0  0  0  0  0  0
   -4.8285   24.4522  -27.6042 C   0  0  0  0  0  0  0  0  0  0  0  0
   -5.7890   25.4347  -27.6739 C   0  0  0  0  0  0  0  0  0  0  0  0
   -6.7242   25.4886  -26.6610 C   0  0  0  0  0  0  0  0  0  0  0  0
   -7.3928   24.1888  -23.3311 C   0  0  0  0  0  0  0  0  0  0  0  0
   -7.6889   24.7040  -24.6113 O   0  0  0  0  0  0  0  0  0  0  0  0
   -5.8184   26.3368  -28.7200 O   0  0  0  0  0  0  0  0  0  0  0  0
   -5.6955   25.8408  -30.0381 C   0  0  0  0  0  0  0  0  0  0  0  0
 33 34  1  0  0  0
 34 27  1  0  0  0
 27 28  2  0  0  0
 28 29  1  0  0  0
 29 26  1  0  0  0
 26 25  1  0  0  0
 25  1  1  0  0  0
  1  2  2  0  0  0
  2  3  1  0  0  0
  3  4  2  0  0  0
  4  5  1  0  0  0
  3  7  1  0  0  0
  7  8  2  0  0  0
  8  9  1  0  0  0
  9 10  2  0  0  0
 10 11  1  0  0  0
 11 12  2  0  0  0
 12 13  1  0  0  0
 13 14  2  0  0  0
 14 15  1  0  0  0
 11 17  1  0  0  0
 17 18  2  0  0  0
 17 19  1  0  0  0
 19 20  1  0  0  0
 20 21  1  0  0  0
 21 22  1  0  0  0
 22 23  1  0  0  0
 23 24  1  0  0  0
 29 30  2  0  0  0
 30 31  1  0  0  0
 31 35  1  0  0  0
 35 36  1  0  0  0
 31 32  2  0  0  0
 32 27  1  0  0  0
  5  1  1  0  0  0
 15  7  1  0  0  0
 24 19  1  0  0  0
 14  9  1  0  0  0
  5  6  1  0  0  0
 15 16  1  0  0  0
M  END
> <minimizedAffinity>
-7.85924

> <CNNscore>
0.8560936451

> <CNNaffinity>
7.1797614098

> <CNN_VS>
6.1465482712

> <CNNaffinity_variance>
0.1439005882

$$$$
[H]c1c(OC([H])([H])[H])c([H])c(C([H])([H])C([H])([H])c2c([H])c(-c3nc4c([H])c(C(=O)N5C([H])([H])C([H])([H])OC([H])([H])C5([H])[H])c([H])c([H])c4n3[H])nn2[H])c([H])c1OC([H])([H])[H]


 36 40  0  0  0  0  0  0  0  0999 V2000
   -1.2431   22.6913  -26.7627 C   0  0  0  0  0  0  0  0  0  0  0  0
   -1.0202   22.1524  -25.5124 C   0  0  0  0  0  0  0  0  0  0  0  0
    0.3376   22.0932  -25.2886 C   0  0  0  0  0  0  0  0  0  0  0  0
    0.8974   22.5906  -26.3930 N   0  0  0  0  0  0  0  0  0  0  0  0
   -0.0206   22.9481  -27.2724 N   0  0  0  0  0  0  0  0  0  0  0  0
    0.1020   23.3670  -28.2258 H   0  0  0  0  0  0  0  0  0  0  0  0
    1.0252   21.5871  -24.0816 C   0  0  0  0  0  0  0  0  0  0  0  0
    0.5382   21.4206  -22.8652 N   0  0  0  0  0  0  0  0  0  0  0  0
    1.5202   20.9262  -22.0511 C   0  0  0  0  0  0  0  0  0  0  0  0
    1.5515   20.5798  -20.7313 C   0  0  0  0  0  0  0  0  0  0  0  0
    2.6876   20.0753  -20.0634 C   0  0  0  0  0  0  0  0  0  0  0  0
    3.7923   19.9543  -20.8571 C   0  0  0  0  0  0  0  0  0  0  0  0
    3.7658   20.3084  -22.2128 C   0  0  0  0  0  0  0  0  0  0  0  0
    2.6537   20.7898  -22.8200 C   0  0  0  0  0  0  0  0  0  0  0  0
    2.3094   21.2053  -24.0578 N   0  0  0  0  0  0  0  0  0  0  0  0
    2.9783   21.2114  -24.8514 H   0  0  0  0  0  0  0  0  0  0  0  0
    2.5877   19.7605  -18.6529 C   0  0  0  0  0  0  0  0  0  0  0  0
    3.0112   20.6842  -17.8492 O   0  0  0  0  0  0  0  0  0  0  0  0
    2.0937   18.5942  -18.0917 N   0  0  0  0  0  0  0  0  0  0  0  0
    1.5481   17.4118  -18.6701 C   0  0  0  0  0  0  0  0  0  0  0  0
    0.9943   16.5309  -17.5619 C   0  0  0  0  0  0  0  0  0  0  0  0
    0.1774   17.1663  -16.6747 O   0  0  0  0  0  0  0  0  0  0  0  0
    0.7730   18.2582  -16.0535 C   0  0  0  0  0  0  0  0  0  0  0  0
    2.1383   18.5488  -16.6010 C   0  0  0  0  0  0  0  0  0  0  0  0
   -2.5733   22.9228  -27.3464 C   0  0  0  0  0  0  0  0  0  0  0  0
   -3.6433   22.2945  -26.5011 C   0  0  0  0  0  0  0  0  0  0  0  0
   -6.1977   25.0134  -27.2516 C   0  0  0  0  0  0  0  0  0  0  0  0
   -5.1382   24.1283  -27.3506 C   0  0  0  0  0  0  0  0  0  0  0  0
   -4.7845   23.2288  -26.3736 C   0  0  0  0  0  0  0  0  0  0  0  0
   -5.5716   23.2423  -25.2227 C   0  0  0  0  0  0  0  0  0  0  0  0
   -6.6386   24.0950  -25.0580 C   0  0  0  0  0  0  0  0  0  0  0  0
   -6.9261   24.9668  -26.0879 C   0  0  0  0  0  0  0  0  0  0  0  0
   -5.9117   25.7572  -29.5203 C   0  0  0  0  0  0  0  0  0  0  0  0
   -6.5232   25.9051  -28.2570 O   0  0  0  0  0  0  0  0  0  0  0  0
   -7.3971   24.0808  -23.9032 O   0  0  0  0  0  0  0  0  0  0  0  0
   -8.3731   25.0885  -23.7285 C   0  0  0  0  0  0  0  0  0  0  0  0
 33 34  1  0  0  0
 34 27  1  0  0  0
 27 28  2  0  0  0
 28 29  1  0  0  0
 29 26  1  0  0  0
 26 25  1  0  0  0
 25  1  1  0  0  0
  1  2  2  0  0  0
  2  3  1  0  0  0
  3  4  2  0  0  0
  4  5  1  0  0  0
  3  7  1  0  0  0
  7  8  2  0  0  0
  8  9  1  0  0  0
  9 10  2  0  0  0
 10 11  1  0  0  0
 11 12  2  0  0  0
 12 13  1  0  0  0
 13 14  2  0  0  0
 14 15  1  0  0  0
 11 17  1  0  0  0
 17 18  2  0  0  0
 17 19  1  0  0  0
 19 20  1  0  0  0
 20 21  1  0  0  0
 21 22  1  0  0  0
 22 23  1  0  0  0
 23 24  1  0  0  0
 29 30  2  0  0  0
 30 31  1  0  0  0
 31 35  1  0  0  0
 35 36  1  0  0  0
 31 32  2  0  0  0
 32 27  1  0  0  0
  5  1  1  0  0  0
 15  7  1  0  0  0
 24 19  1  0  0  0
 14  9  1  0  0  0
  5  6  1  0  0  0
 15 16  1  0  0  0
M  END
> <minimizedAffinity>
-7.60525

> <CNNscore>
0.8371847868

> <CNNaffinity>
7.0933456421

> <CNN_VS>
5.9384412766

> <CNNaffinity_variance>
0.1550317407

$$$$
[H]c1c(OC([H])([H])[H])c([H])c(C([H])([H])C([H])([H])c2c([H])c(-c3nc4c([H])c(C(=O)N5C([H])([H])C([H])([H])OC([H])([H])C5([H])[H])c([H])c([H])c4n3[H])nn2[H])c([H])c1OC([H])([H])[H]


 36 40  0  0  0  0  0  0  0  0999 V2000
   -1.7071   22.8743  -26.5007 C   0  0  0  0  0  0  0  0  0  0  0  0
   -1.3849   22.3895  -25.2499 C   0  0  0  0  0  0  0  0  0  0  0  0
   -0.0267   22.1667  -25.1950 C   0  0  0  0  0  0  0  0  0  0  0  0
    0.4353   22.5167  -26.3969 N   0  0  0  0  0  0  0  0  0  0  0  0
   -0.5425   22.9362  -27.1791 N   0  0  0  0  0  0  0  0  0  0  0  0
   -0.4996   23.2753  -28.1704 H   0  0  0  0  0  0  0  0  0  0  0  0
    0.7507   21.6507  -24.0482 C   0  0  0  0  0  0  0  0  0  0  0  0
    0.3400   21.4108  -22.8160 N   0  0  0  0  0  0  0  0  0  0  0  0
    1.3889   20.9377  -22.0762 C   0  0  0  0  0  0  0  0  0  0  0  0
    1.5098   20.5417  -20.7756 C   0  0  0  0  0  0  0  0  0  0  0  0
    2.7049   20.0724  -20.1901 C   0  0  0  0  0  0  0  0  0  0  0  0
    3.7694   20.0416  -21.0451 C   0  0  0  0  0  0  0  0  0  0  0  0
    3.6509   20.4468  -22.3814 C   0  0  0  0  0  0  0  0  0  0  0  0
    2.4842   20.8921  -22.9085 C   0  0  0  0  0  0  0  0  0  0  0  0
    2.0521   21.3371  -24.1080 N   0  0  0  0  0  0  0  0  0  0  0  0
    2.6755   21.4099  -24.9346 H   0  0  0  0  0  0  0  0  0  0  0  0
    2.6984   19.6974  -18.7908 C   0  0  0  0  0  0  0  0  0  0  0  0
    3.0991   20.6166  -17.9706 O   0  0  0  0  0  0  0  0  0  0  0  0
    2.3133   18.4790  -18.2558 N   0  0  0  0  0  0  0  0  0  0  0  0
    1.8197   17.2847  -18.8562 C   0  0  0  0  0  0  0  0  0  0  0  0
    1.3836   16.3257  -17.7604 C   0  0  0  0  0  0  0  0  0  0  0  0
    0.5720   16.8683  -16.8091 O   0  0  0  0  0  0  0  0  0  0  0  0
    1.1236   17.9742  -16.1722 C   0  0  0  0  0  0  0  0  0  0  0  0
    2.4366   18.3795  -16.7722 C   0  0  0  0  0  0  0  0  0  0  0  0
   -3.0657   23.2417  -26.9284 C   0  0  0  0  0  0  0  0  0  0  0  0
   -4.0901   22.3785  -26.2503 C   0  0  0  0  0  0  0  0  0  0  0  0
   -6.5735   23.4885  -23.5891 C   0  0  0  0  0  0  0  0  0  0  0  0
   -5.7467   22.7206  -24.3907 C   0  0  0  0  0  0  0  0  0  0  0  0
   -4.9636   23.2214  -25.4030 C   0  0  0  0  0  0  0  0  0  0  0  0
   -5.0371   24.5996  -25.6016 C   0  0  0  0  0  0  0  0  0  0  0  0
   -5.8372   25.4216  -24.8423 C   0  0  0  0  0  0  0  0  0  0  0  0
   -6.5919   24.8378  -23.8457 C   0  0  0  0  0  0  0  0  0  0  0  0
   -7.4064   23.6150  -21.3369 C   0  0  0  0  0  0  0  0  0  0  0  0
   -7.3478   22.9478  -22.5792 O   0  0  0  0  0  0  0  0  0  0  0  0
   -5.8852   26.7840  -25.0674 O   0  0  0  0  0  0  0  0  0  0  0  0
   -4.7048   27.4367  -25.4908 C   0  0  0  0  0  0  0  0  0  0  0  0
 33 34  1  0  0  0
 34 27  1  0  0  0
 27 28  2  0  0  0
 28 29  1  0  0  0
 29 26  1  0  0  0
 26 25  1  0  0  0
 25  1  1  0  0  0
  1  2  2  0  0  0
  2  3  1  0  0  0
  3  4  2  0  0  0
  4  5  1  0  0  0
  3  7  1  0  0  0
  7  8  2  0  0  0
  8  9  1  0  0  0
  9 10  2  0  0  0
 10 11  1  0  0  0
 11 12  2  0  0  0
 12 13  1  0  0  0
 13 14  2  0  0  0
 14 15  1  0  0  0
 11 17  1  0  0  0
 17 18  2  0  0  0
 17 19  1  0  0  0
 19 20  1  0  0  0
 20 21  1  0  0  0
 21 22  1  0  0  0
 22 23  1  0  0  0
 23 24  1  0  0  0
 29 30  2  0  0  0
 30 31  1  0  0  0
 31 35  1  0  0  0
 35 36  1  0  0  0
 31 32  2  0  0  0
 32 27  1  0  0  0
  5  1  1  0  0  0
 15  7  1  0  0  0
 24 19  1  0  0  0
 14  9  1  0  0  0
  5  6  1  0  0  0
 15 16  1  0  0  0
M  END
> <minimizedAffinity>
-7.23233

> <CNNscore>
0.6537230015

> <CNNaffinity>
6.8688249588

> <CNN_VS>
4.4903087616

> <CNNaffinity_variance>
0.1167939901

$$$$
[H]c1c(OC([H])([H])[H])c([H])c(C([H])([H])C([H])([H])c2c([H])c(-c3nc4c([H])c(C(=O)N5C([H])([H])C([H])([H])OC([H])([H])C5([H])[H])c([H])c([H])c4n3[H])nn2[H])c([H])c1OC([H])([H])[H]


 36 40  0  0  0  0  0  0  0  0999 V2000
   -0.6916   22.3497  -26.1757 C   0  0  0  0  0  0  0  0  0  0  0  0
   -1.0566   22.1018  -24.8686 C   0  0  0  0  0  0  0  0  0  0  0  0
    0.0756   21.8234  -24.1352 C   0  0  0  0  0  0  0  0  0  0  0  0
    1.0856   21.9079  -25.0031 N   0  0  0  0  0  0  0  0  0  0  0  0
    0.6507   22.2174  -26.2109 N   0  0  0  0  0  0  0  0  0  0  0  0
    1.1948   22.3541  -27.0968 H   0  0  0  0  0  0  0  0  0  0  0  0
    0.1527   21.5010  -22.6944 C   0  0  0  0  0  0  0  0  0  0  0  0
   -0.7095   21.7937  -21.7376 N   0  0  0  0  0  0  0  0  0  0  0  0
   -0.2454   21.3030  -20.5480 C   0  0  0  0  0  0  0  0  0  0  0  0
   -0.7360   21.3251  -19.2746 C   0  0  0  0  0  0  0  0  0  0  0  0
   -0.0929   20.7470  -18.1594 C   0  0  0  0  0  0  0  0  0  0  0  0
    1.0963   20.1434  -18.4533 C   0  0  0  0  0  0  0  0  0  0  0  0
    1.6047   20.1176  -19.7590 C   0  0  0  0  0  0  0  0  0  0  0  0
    0.9569   20.6845  -20.8060 C   0  0  0  0  0  0  0  0  0  0  0  0
    1.1658   20.8277  -22.1324 N   0  0  0  0  0  0  0  0  0  0  0  0
    2.0079   20.4524  -22.6091 H   0  0  0  0  0  0  0  0  0  0  0  0
   -0.7179   20.8557  -16.8570 C   0  0  0  0  0  0  0  0  0  0  0  0
   -1.9177   20.3736  -16.7780 O   0  0  0  0  0  0  0  0  0  0  0  0
   -0.1697   21.4119  -15.7128 N   0  0  0  0  0  0  0  0  0  0  0  0
    1.0996   22.0044  -15.4519 C   0  0  0  0  0  0  0  0  0  0  0  0
    1.2203   22.2755  -13.9610 C   0  0  0  0  0  0  0  0  0  0  0  0
    0.9013   21.2225  -13.1562 O   0  0  0  0  0  0  0  0  0  0  0  0
   -0.3812   20.7294  -13.3674 C   0  0  0  0  0  0  0  0  0  0  0  0
   -1.0659   21.4010  -14.5200 C   0  0  0  0  0  0  0  0  0  0  0  0
   -1.6312   22.6970  -27.2528 C   0  0  0  0  0  0  0  0  0  0  0  0
   -3.0509   22.6015  -26.7734 C   0  0  0  0  0  0  0  0  0  0  0  0
   -4.9627   24.9514  -29.0765 C   0  0  0  0  0  0  0  0  0  0  0  0
   -4.2448   23.8767  -28.5812 C   0  0  0  0  0  0  0  0  0  0  0  0
   -3.8219   23.7598  -27.2788 C   0  0  0  0  0  0  0  0  0  0  0  0
   -4.1599   24.8164  -26.4341 C   0  0  0  0  0  0  0  0  0  0  0  0
   -4.8710   25.9145  -26.8598 C   0  0  0  0  0  0  0  0  0  0  0  0
   -5.2575   25.9528  -28.1837 C   0  0  0  0  0  0  0  0  0  0  0  0
   -5.9075   23.8838  -31.0129 C   0  0  0  0  0  0  0  0  0  0  0  0
   -5.3710   25.0337  -30.3950 O   0  0  0  0  0  0  0  0  0  0  0  0
   -5.1883   26.9438  -25.9944 O   0  0  0  0  0  0  0  0  0  0  0  0
   -5.9506   26.6419  -24.8428 C   0  0  0  0  0  0  0  0  0  0  0  0
 33 34  1  0  0  0
 34 27  1  0  0  0
 27 28  2  0  0  0
 28 29  1  0  0  0
 29 26  1  0  0  0
 26 25  1  0  0  0
 25  1  1  0  0  0
  1  2  2  0  0  0
  2  3  1  0  0  0
  3  4  2  0  0  0
  4  5  1  0  0  0
  3  7  1  0  0  0
  7  8  2  0  0  0
  8  9  1  0  0  0
  9 10  2  0  0  0
 10 11  1  0  0  0
 11 12  2  0  0  0
 12 13  1  0  0  0
 13 14  2  0  0  0
 14 15  1  0  0  0
 11 17  1  0  0  0
 17 18  2  0  0  0
 17 19  1  0  0  0
 19 20  1  0  0  0
 20 21  1  0  0  0
 21 22  1  0  0  0
 22 23  1  0  0  0
 23 24  1  0  0  0
 29 30  2  0  0  0
 30 31  1  0  0  0
 31 35  1  0  0  0
 35 36  1  0  0  0
 31 32  2  0  0  0
 32 27  1  0  0  0
  5  1  1  0  0  0
 15  7  1  0  0  0
 24 19  1  0  0  0
 14  9  1  0  0  0
  5  6  1  0  0  0
 15 16  1  0  0  0
M  END
> <minimizedAffinity>
-7.63679

> <CNNscore>
0.4275526106

> <CNNaffinity>
6.5450963974

> <CNN_VS>
2.7983729839

> <CNNaffinity_variance>
0.1859066039

$$$$
[H]c1c(OC([H])([H])[H])c([H])c(C([H])([H])C([H])([H])c2c([H])c(-c3nc4c([H])c(C(=O)N5C([H])([H])C([H])([H])OC([H])([H])C5([H])[H])c([H])c([H])c4n3[H])nn2[H])c([H])c1OC([H])([H])[H]


 36 40  0  0  0  0  0  0  0  0999 V2000
    3.3386   20.6453  -21.0865 C   0  0  0  0  0  0  0  0  0  0  0  0
    2.1434   21.1092  -21.5959 C   0  0  0  0  0  0  0  0  0  0  0  0
    2.1986   21.0651  -22.9715 C   0  0  0  0  0  0  0  0  0  0  0  0
    3.4090   20.5825  -23.2589 N   0  0  0  0  0  0  0  0  0  0  0  0
    4.0942   20.3297  -22.1587 N   0  0  0  0  0  0  0  0  0  0  0  0
    5.0654   19.9481  -22.0554 H   0  0  0  0  0  0  0  0  0  0  0  0
    1.1413   21.4667  -23.9238 C   0  0  0  0  0  0  0  0  0  0  0  0
   -0.1192   21.7720  -23.6740 N   0  0  0  0  0  0  0  0  0  0  0  0
   -0.7465   22.0884  -24.8478 C   0  0  0  0  0  0  0  0  0  0  0  0
   -2.0216   22.4696  -25.1510 C   0  0  0  0  0  0  0  0  0  0  0  0
   -2.4815   22.7596  -26.4532 C   0  0  0  0  0  0  0  0  0  0  0  0
   -1.5289   22.6272  -27.4228 C   0  0  0  0  0  0  0  0  0  0  0  0
   -0.2183   22.2363  -27.1171 C   0  0  0  0  0  0  0  0  0  0  0  0
    0.1867   21.9662  -25.8521 C   0  0  0  0  0  0  0  0  0  0  0  0
    1.3306   21.5833  -25.2451 N   0  0  0  0  0  0  0  0  0  0  0  0
    2.2110   21.4140  -25.7680 H   0  0  0  0  0  0  0  0  0  0  0  0
   -3.8672   23.1395  -26.6375 C   0  0  0  0  0  0  0  0  0  0  0  0
   -4.6763   22.7480  -25.7044 O   0  0  0  0  0  0  0  0  0  0  0  0
   -4.4001   23.8653  -27.6903 N   0  0  0  0  0  0  0  0  0  0  0  0
   -3.8059   24.4475  -28.8472 C   0  0  0  0  0  0  0  0  0  0  0  0
   -4.8474   25.2901  -29.5656 C   0  0  0  0  0  0  0  0  0  0  0  0
   -5.5319   26.1610  -28.7711 O   0  0  0  0  0  0  0  0  0  0  0  0
   -6.1826   25.5487  -27.7060 C   0  0  0  0  0  0  0  0  0  0  0  0
   -5.8742   24.0841  -27.6175 C   0  0  0  0  0  0  0  0  0  0  0  0
    3.6465   20.5324  -19.6525 C   0  0  0  0  0  0  0  0  0  0  0  0
    2.5263   21.0875  -18.8211 C   0  0  0  0  0  0  0  0  0  0  0  0
    3.0271   23.3597  -15.8099 C   0  0  0  0  0  0  0  0  0  0  0  0
    2.5542   22.3791  -16.6646 C   0  0  0  0  0  0  0  0  0  0  0  0
    3.0522   22.1403  -17.9231 C   0  0  0  0  0  0  0  0  0  0  0  0
    4.1031   22.9635  -18.3259 C   0  0  0  0  0  0  0  0  0  0  0  0
    4.6214   23.9569  -17.5278 C   0  0  0  0  0  0  0  0  0  0  0  0
    4.0636   24.1300  -16.2778 C   0  0  0  0  0  0  0  0  0  0  0  0
    2.9942   22.8074  -13.4698 C   0  0  0  0  0  0  0  0  0  0  0  0
    2.4996   23.5703  -14.5492 O   0  0  0  0  0  0  0  0  0  0  0  0
    5.6637   24.7543  -17.9600 O   0  0  0  0  0  0  0  0  0  0  0  0
    6.9688   24.2110  -17.9618 C   0  0  0  0  0  0  0  0  0  0  0  0
 33 34  1  0  0  0
 34 27  1  0  0  0
 27 28  2  0  0  0
 28 29  1  0  0  0
 29 26  1  0  0  0
 26 25  1  0  0  0
 25  1  1  0  0  0
  1  2  2  0  0  0
  2  3  1  0  0  0
  3  4  2  0  0  0
  4  5  1  0  0  0
  3  7  1  0  0  0
  7  8  2  0  0  0
  8  9  1  0  0  0
  9 10  2  0  0  0
 10 11  1  0  0  0
 11 12  2  0  0  0
 12 13  1  0  0  0
 13 14  2  0  0  0
 14 15  1  0  0  0
 11 17  1  0  0  0
 17 18  2  0  0  0
 17 19  1  0  0  0
 19 20  1  0  0  0
 20 21  1  0  0  0
 21 22  1  0  0  0
 22 23  1  0  0  0
 23 24  1  0  0  0
 29 30  2  0  0  0
 30 31  1  0  0  0
 31 35  1  0  0  0
 35 36  1  0  0  0
 31 32  2  0  0  0
 32 27  1  0  0  0
  5  1  1  0  0  0
 15  7  1  0  0  0
 24 19  1  0  0  0
 14  9  1  0  0  0
  5  6  1  0  0  0
 15 16  1  0  0  0
M  END
> <minimizedAffinity>
-9.10585

> <CNNscore>
0.4022311568

> <CNNaffinity>
6.5988988876

> <CNN_VS>
2.6542828083

> <CNNaffinity_variance>
0.1147942767

$$$$
[H]c1c(OC([H])([H])[H])c([H])c(C([H])([H])C([H])([H])c2c([H])c(-c3nc4c([H])c(C(=O)N5C([H])([H])C([H])([H])OC([H])([H])C5([H])[H])c([H])c([H])c4n3[H])nn2[H])c([H])c1OC([H])([H])[H]


 36 40  0  0  0  0  0  0  0  0999 V2000
   -3.5423   23.6862  -27.2916 C   0  0  0  0  0  0  0  0  0  0  0  0
   -3.0205   23.4402  -26.0385 C   0  0  0  0  0  0  0  0  0  0  0  0
   -1.8970   22.6542  -26.1704 C   0  0  0  0  0  0  0  0  0  0  0  0
   -1.7666   22.4455  -27.4819 N   0  0  0  0  0  0  0  0  0  0  0  0
   -2.7286   23.0472  -28.1575 N   0  0  0  0  0  0  0  0  0  0  0  0
   -2.8981   23.0699  -29.1921 H   0  0  0  0  0  0  0  0  0  0  0  0
   -1.0237   22.1512  -25.0887 C   0  0  0  0  0  0  0  0  0  0  0  0
    0.2922   22.0374  -25.0784 N   0  0  0  0  0  0  0  0  0  0  0  0
    0.6903   21.5270  -23.8732 C   0  0  0  0  0  0  0  0  0  0  0  0
    1.9119   21.2191  -23.3480 C   0  0  0  0  0  0  0  0  0  0  0  0
    2.1170   20.6922  -22.0551 C   0  0  0  0  0  0  0  0  0  0  0  0
    0.9679   20.5047  -21.3413 C   0  0  0  0  0  0  0  0  0  0  0  0
   -0.2890   20.8191  -21.8755 C   0  0  0  0  0  0  0  0  0  0  0  0
   -0.4461   21.3247  -23.1233 C   0  0  0  0  0  0  0  0  0  0  0  0
   -1.4753   21.7192  -23.9034 N   0  0  0  0  0  0  0  0  0  0  0  0
   -2.4634   21.6767  -23.5885 H   0  0  0  0  0  0  0  0  0  0  0  0
    3.4686   20.3954  -21.6267 C   0  0  0  0  0  0  0  0  0  0  0  0
    4.2279   19.8563  -22.5274 O   0  0  0  0  0  0  0  0  0  0  0  0
    4.0170   20.6275  -20.3759 N   0  0  0  0  0  0  0  0  0  0  0  0
    3.4795   21.2041  -19.1888 C   0  0  0  0  0  0  0  0  0  0  0  0
    4.5978   21.3755  -18.1737 C   0  0  0  0  0  0  0  0  0  0  0  0
    5.7207   21.9838  -18.6505 O   0  0  0  0  0  0  0  0  0  0  0  0
    6.2777   21.3405  -19.7498 C   0  0  0  0  0  0  0  0  0  0  0  0
    5.4363   20.1935  -20.2239 C   0  0  0  0  0  0  0  0  0  0  0  0
   -4.7378   24.5028  -27.5519 C   0  0  0  0  0  0  0  0  0  0  0  0
   -5.9884   23.6967  -27.3504 C   0  0  0  0  0  0  0  0  0  0  0  0
   -6.5162   22.6996  -23.7161 C   0  0  0  0  0  0  0  0  0  0  0  0
   -6.1599   22.6896  -25.0535 C   0  0  0  0  0  0  0  0  0  0  0  0
   -6.3748   23.7330  -25.9218 C   0  0  0  0  0  0  0  0  0  0  0  0
   -6.9957   24.8568  -25.3780 C   0  0  0  0  0  0  0  0  0  0  0  0
   -7.3761   24.9341  -24.0582 C   0  0  0  0  0  0  0  0  0  0  0  0
   -7.1233   23.8419  -23.2541 C   0  0  0  0  0  0  0  0  0  0  0  0
   -6.3955   21.8251  -21.4794 C   0  0  0  0  0  0  0  0  0  0  0  0
   -6.2835   21.6290  -22.8725 O   0  0  0  0  0  0  0  0  0  0  0  0
   -7.9897   26.0644  -23.5531 O   0  0  0  0  0  0  0  0  0  0  0  0
   -8.8555   25.9200  -22.4450 C   0  0  0  0  0  0  0  0  0  0  0  0
 33 34  1  0  0  0
 34 27  1  0  0  0
 27 28  2  0  0  0
 28 29  1  0  0  0
 29 26  1  0  0  0
 26 25  1  0  0  0
 25  1  1  0  0  0
  1  2  2  0  0  0
  2  3  1  0  0  0
  3  4  2  0  0  0
  4  5  1  0  0  0
  3  7  1  0  0  0
  7  8  2  0  0  0
  8  9  1  0  0  0
  9 10  2  0  0  0
 10 11  1  0  0  0
 11 12  2  0  0  0
 12 13  1  0  0  0
 13 14  2  0  0  0
 14 15  1  0  0  0
 11 17  1  0  0  0
 17 18  2  0  0  0
 17 19  1  0  0  0
 19 20  1  0  0  0
 20 21  1  0  0  0
 21 22  1  0  0  0
 22 23  1  0  0  0
 23 24  1  0  0  0
 29 30  2  0  0  0
 30 31  1  0  0  0
 31 35  1  0  0  0
 35 36  1  0  0  0
 31 32  2  0  0  0
 32 27  1  0  0  0
  5  1  1  0  0  0
 15  7  1  0  0  0
 24 19  1  0  0  0
 14  9  1  0  0  0
  5  6  1  0  0  0
 15 16  1  0  0  0
M  END
> <minimizedAffinity>
-8.13213

> <CNNscore>
0.3977363110

> <CNNaffinity>
6.7530379295

> <CNN_VS>
2.6859283447

> <CNNaffinity_variance>
0.1749887913

$$$$
[H]c1c(OC([H])([H])[H])c([H])c(C([H])([H])C([H])([H])c2c([H])c(-c3nc4c([H])c(C(=O)N5C([H])([H])C([H])([H])OC([H])([H])C5([H])[H])c([H])c([H])c4n3[H])nn2[H])c([H])c1OC([H])([H])[H]


 36 40  0  0  0  0  0  0  0  0999 V2000
   -0.7098   22.5524  -26.7914 C   0  0  0  0  0  0  0  0  0  0  0  0
   -1.3148   22.3902  -25.5622 C   0  0  0  0  0  0  0  0  0  0  0  0
   -0.3821   21.9169  -24.6659 C   0  0  0  0  0  0  0  0  0  0  0  0
    0.7499   21.8050  -25.3634 N   0  0  0  0  0  0  0  0  0  0  0  0
    0.5742   22.1757  -26.6186 N   0  0  0  0  0  0  0  0  0  0  0  0
    1.2664   22.2005  -27.4059 H   0  0  0  0  0  0  0  0  0  0  0  0
   -0.5926   21.6016  -23.2368 C   0  0  0  0  0  0  0  0  0  0  0  0
   -1.6322   21.8890  -22.4745 N   0  0  0  0  0  0  0  0  0  0  0  0
   -1.4114   21.4087  -21.2128 C   0  0  0  0  0  0  0  0  0  0  0  0
   -2.1479   21.4309  -20.0639 C   0  0  0  0  0  0  0  0  0  0  0  0
   -1.7360   20.8648  -18.8386 C   0  0  0  0  0  0  0  0  0  0  0  0
   -0.5060   20.2732  -18.8839 C   0  0  0  0  0  0  0  0  0  0  0  0
    0.2544   20.2474  -20.0608 C   0  0  0  0  0  0  0  0  0  0  0  0
   -0.1757   20.8024  -21.2202 C   0  0  0  0  0  0  0  0  0  0  0  0
    0.2937   20.9421  -22.4786 N   0  0  0  0  0  0  0  0  0  0  0  0
    1.2181   20.5741  -22.7741 H   0  0  0  0  0  0  0  0  0  0  0  0
   -2.6108   20.9724  -17.6889 C   0  0  0  0  0  0  0  0  0  0  0  0
   -2.2871   21.8886  -16.8321 O   0  0  0  0  0  0  0  0  0  0  0  0
   -3.7354   20.2087  -17.4224 N   0  0  0  0  0  0  0  0  0  0  0  0
   -4.3663   19.1530  -18.1421 C   0  0  0  0  0  0  0  0  0  0  0  0
   -5.6817   18.8097  -17.4619 C   0  0  0  0  0  0  0  0  0  0  0  0
   -6.4838   19.8769  -17.1866 O   0  0  0  0  0  0  0  0  0  0  0  0
   -5.8709   20.8451  -16.3995 C   0  0  0  0  0  0  0  0  0  0  0  0
   -4.4263   20.5371  -16.1414 C   0  0  0  0  0  0  0  0  0  0  0  0
   -1.3890   23.0544  -27.9957 C   0  0  0  0  0  0  0  0  0  0  0  0
   -2.8349   22.6499  -28.0003 C   0  0  0  0  0  0  0  0  0  0  0  0
   -4.7502   25.4989  -26.3582 C   0  0  0  0  0  0  0  0  0  0  0  0
   -3.9571   24.3840  -26.5674 C   0  0  0  0  0  0  0  0  0  0  0  0
   -3.6834   23.8468  -27.8024 C   0  0  0  0  0  0  0  0  0  0  0  0
   -4.2632   24.4992  -28.8897 C   0  0  0  0  0  0  0  0  0  0  0  0
   -5.0616   25.6113  -28.7541 C   0  0  0  0  0  0  0  0  0  0  0  0
   -5.2859   26.0864  -27.4784 C   0  0  0  0  0  0  0  0  0  0  0  0
   -5.4025   25.1262  -24.0740 C   0  0  0  0  0  0  0  0  0  0  0  0
   -5.0033   26.0106  -25.0989 O   0  0  0  0  0  0  0  0  0  0  0  0
   -5.6201   26.2325  -29.8546 O   0  0  0  0  0  0  0  0  0  0  0  0
   -5.1101   25.9167  -31.1347 C   0  0  0  0  0  0  0  0  0  0  0  0
 33 34  1  0  0  0
 34 27  1  0  0  0
 27 28  2  0  0  0
 28 29  1  0  0  0
 29 26  1  0  0  0
 26 25  1  0  0  0
 25  1  1  0  0  0
  1  2  2  0  0  0
  2  3  1  0  0  0
  3  4  2  0  0  0
  4  5  1  0  0  0
  3  7  1  0  0  0
  7  8  2  0  0  0
  8  9  1  0  0  0
  9 10  2  0  0  0
 10 11  1  0  0  0
 11 12  2  0  0  0
 12 13  1  0  0  0
 13 14  2  0  0  0
 14 15  1  0  0  0
 11 17  1  0  0  0
 17 18  2  0  0  0
 17 19  1  0  0  0
 19 20  1  0  0  0
 20 21  1  0  0  0
 21 22  1  0  0  0
 22 23  1  0  0  0
 23 24  1  0  0  0
 29 30  2  0  0  0
 30 31  1  0  0  0
 31 35  1  0  0  0
 35 36  1  0  0  0
 31 32  2  0  0  0
 32 27  1  0  0  0
  5  1  1  0  0  0
 15  7  1  0  0  0
 24 19  1  0  0  0
 14  9  1  0  0  0
  5  6  1  0  0  0
 15 16  1  0  0  0
M  END
> <minimizedAffinity>
-7.87649

> <CNNscore>
0.3848254681

> <CNNaffinity>
6.9082121849

> <CNN_VS>
2.6584560871

> <CNNaffinity_variance>
0.3250283003

$$$$
[H]/C(C(=O)N1C([H])([H])C([H])([H])C([H])(N2C(=O)N(c3c(Cl)c(OC([H])([H])[H])c([H])c(OC([H])([H])[H])c3Cl)C([H])([H])c3c([H])nc(N([H])C([H])(C([H])([H])[H])C([H])([H])[H])nc32)C([H])([H])C1([H])[H])=C(/[H])C([H])([H])N(C([H])([H])[H])C([H])([H])[H]


 42 45  0  0  0  0  0  0  0  0999 V2000
    0.3269   20.8076  -20.8603 N   0  0  0  0  0  0  0  0  0  0  0  0
    1.1473   21.1023  -22.0073 C   0  0  0  0  0  0  0  0  0  0  0  0
    0.3642   21.5004  -23.1994 C   0  0  0  0  0  0  0  0  0  0  0  0
    1.0367   21.6478  -24.4251 C   0  0  0  0  0  0  0  0  0  0  0  0
    0.3502   22.0449  -25.4908 N   0  0  0  0  0  0  0  0  0  0  0  0
   -0.9643   22.3225  -25.4875 C   0  0  0  0  0  0  0  0  0  0  0  0
   -1.6011   22.1822  -24.3262 N   0  0  0  0  0  0  0  0  0  0  0  0
   -0.9804   21.7811  -23.1904 C   0  0  0  0  0  0  0  0  0  0  0  0
   -1.6936   21.5814  -21.9769 N   0  0  0  0  0  0  0  0  0  0  0  0
   -1.0626   21.1003  -20.8027 C   0  0  0  0  0  0  0  0  0  0  0  0
   -1.6391   20.9093  -19.6998 O   0  0  0  0  0  0  0  0  0  0  0  0
    2.2056   20.3251  -17.6997 C   0  0  0  0  0  0  0  0  0  0  0  0
    2.2358   18.9517  -17.6330 C   0  0  0  0  0  0  0  0  0  0  0  0
    1.6514   18.1576  -18.6047 C   0  0  0  0  0  0  0  0  0  0  0  0
    1.0271   18.8066  -19.6601 C   0  0  0  0  0  0  0  0  0  0  0  0
    0.2679   17.8670  -20.9209 Cl  0  0  0  0  0  0  0  0  0  0  0  0
    0.9851   20.1743  -19.7469 C   0  0  0  0  0  0  0  0  0  0  0  0
    1.5703   20.9327  -18.7737 C   0  0  0  0  0  0  0  0  0  0  0  0
    1.5459   22.6849  -18.8422 Cl  0  0  0  0  0  0  0  0  0  0  0  0
    3.9142   20.8335  -15.9744 C   0  0  0  0  0  0  0  0  0  0  0  0
    2.7824   21.1400  -16.7405 O   0  0  0  0  0  0  0  0  0  0  0  0
    1.6615   16.7759  -18.5723 O   0  0  0  0  0  0  0  0  0  0  0  0
    1.6234   16.0298  -17.3812 C   0  0  0  0  0  0  0  0  0  0  0  0
   -3.0824   21.8758  -21.9405 C   0  0  0  0  0  0  0  0  0  0  0  0
   -3.3976   23.2905  -21.5063 C   0  0  0  0  0  0  0  0  0  0  0  0
   -4.8642   23.4533  -21.1301 C   0  0  0  0  0  0  0  0  0  0  0  0
   -5.6444   23.1254  -22.2862 N   0  0  0  0  0  0  0  0  0  0  0  0
   -5.2969   21.9000  -22.9705 C   0  0  0  0  0  0  0  0  0  0  0  0
   -3.7937   21.8206  -23.2701 C   0  0  0  0  0  0  0  0  0  0  0  0
   -6.7063   23.9142  -22.7744 C   0  0  0  0  0  0  0  0  0  0  0  0
   -7.3350   23.5303  -23.8085 O   0  0  0  0  0  0  0  0  0  0  0  0
   -7.1557   25.1539  -22.1874 C   0  0  0  0  0  0  0  0  0  0  0  0
   -8.3945   25.3123  -21.7464 C   0  0  0  0  0  0  0  0  0  0  0  0
   -8.7748   26.6071  -21.1614 C   0  0  0  0  0  0  0  0  0  0  0  0
  -10.0035   27.1572  -21.7016 N   0  0  0  0  0  0  0  0  0  0  0  0
  -10.7617   26.1586  -22.4304 C   0  0  0  0  0  0  0  0  0  0  0  0
  -10.8142   27.5994  -20.5698 C   0  0  0  0  0  0  0  0  0  0  0  0
   -1.5836   22.7310  -26.6923 N   0  0  0  0  0  0  0  0  0  0  0  0
   -1.0061   22.9666  -27.5249 H   0  0  0  0  0  0  0  0  0  0  0  0
   -3.0168   22.8468  -26.8443 C   0  0  0  0  0  0  0  0  0  0  0  0
   -3.5546   24.0944  -26.1959 C   0  0  0  0  0  0  0  0  0  0  0  0
   -3.4274   22.9172  -28.3162 C   0  0  0  0  0  0  0  0  0  0  0  0
 20 21  1  0  0  0
 21 12  1  0  0  0
 12 13  2  0  0  0
 13 14  1  0  0  0
 14 22  1  0  0  0
 22 23  1  0  0  0
 14 15  2  0  0  0
 15 16  1  0  0  0
 15 17  1  0  0  0
 17  1  1  0  0  0
  1  2  1  0  0  0
  2  3  1  0  0  0
  3  4  2  0  0  0
  4  5  1  0  0  0
  5  6  2  0  0  0
  6 38  1  0  0  0
 38 40  1  0  0  0
 40 41  1  0  0  0
 40 42  1  0  0  0
  6  7  1  0  0  0
  7  8  2  0  0  0
  8  9  1  0  0  0
  9 24  1  0  0  0
 24 25  1  0  0  0
 25 26  1  0  0  0
 26 27  1  0  0  0
 27 28  1  0  0  0
 28 29  1  0  0  0
 27 30  1  0  0  0
 30 31  2  0  0  0
 30 32  1  0  0  0
 32 33  2  0  0  0
 33 34  1  0  0  0
 34 35  1  0  0  0
 35 36  1  0  0  0
 35 37  1  0  0  0
  9 10  1  0  0  0
 10 11  2  0  0  0
 17 18  2  0  0  0
 18 19  1  0  0  0
 18 12  1  0  0  0
 10  1  1  0  0  0
  8  3  1  0  0  0
 29 24  1  0  0  0
 38 39  1  0  0  0
M  END
> <minimizedAffinity>
-7.07380

> <CNNscore>
0.1714487970

> <CNNaffinity>
7.1192770004

> <CNN_VS>
1.2205914259

> <CNNaffinity_variance>
0.0809403956

$$$$
[H]/C(C(=O)N1C([H])([H])C([H])([H])C([H])(N2C(=O)N(c3c(Cl)c(OC([H])([H])[H])c([H])c(OC([H])([H])[H])c3Cl)C([H])([H])c3c([H])nc(N([H])C([H])(C([H])([H])[H])C([H])([H])[H])nc32)C([H])([H])C1([H])[H])=C(/[H])C([H])([H])N(C([H])([H])[H])C([H])([H])[H]


 42 45  0  0  0  0  0  0  0  0999 V2000
    0.8262   20.9746  -21.0359 N   0  0  0  0  0  0  0  0  0  0  0  0
    1.5252   21.1139  -22.2879 C   0  0  0  0  0  0  0  0  0  0  0  0
    0.6392   21.4890  -23.4135 C   0  0  0  0  0  0  0  0  0  0  0  0
    1.1712   21.4888  -24.7147 C   0  0  0  0  0  0  0  0  0  0  0  0
    0.3957   21.8639  -25.7259 N   0  0  0  0  0  0  0  0  0  0  0  0
   -0.8842   22.2517  -25.5984 C   0  0  0  0  0  0  0  0  0  0  0  0
   -1.3880   22.2513  -24.3655 N   0  0  0  0  0  0  0  0  0  0  0  0
   -0.6697   21.8829  -23.2772 C   0  0  0  0  0  0  0  0  0  0  0  0
   -1.2475   21.8337  -21.9791 N   0  0  0  0  0  0  0  0  0  0  0  0
   -0.5205   21.3877  -20.8474 C   0  0  0  0  0  0  0  0  0  0  0  0
   -0.9753   21.3275  -19.6750 O   0  0  0  0  0  0  0  0  0  0  0  0
    2.2902   18.4277  -18.7728 C   0  0  0  0  0  0  0  0  0  0  0  0
    2.9660   19.2362  -17.8890 C   0  0  0  0  0  0  0  0  0  0  0  0
    2.9619   20.6154  -18.0069 C   0  0  0  0  0  0  0  0  0  0  0  0
    2.2423   21.1575  -19.0621 C   0  0  0  0  0  0  0  0  0  0  0  0
    2.1950   22.8903  -19.2720 Cl  0  0  0  0  0  0  0  0  0  0  0  0
    1.5613   20.3706  -19.9548 C   0  0  0  0  0  0  0  0  0  0  0  0
    1.5828   19.0126  -19.8139 C   0  0  0  0  0  0  0  0  0  0  0  0
    0.7248   17.9645  -20.9279 Cl  0  0  0  0  0  0  0  0  0  0  0  0
    1.5301   16.2926  -17.7638 C   0  0  0  0  0  0  0  0  0  0  0  0
    2.2797   17.0466  -18.6756 O   0  0  0  0  0  0  0  0  0  0  0  0
    3.6279   21.4600  -17.1390 O   0  0  0  0  0  0  0  0  0  0  0  0
    3.1285   21.8211  -15.8753 C   0  0  0  0  0  0  0  0  0  0  0  0
   -2.5958   22.2470  -21.8119 C   0  0  0  0  0  0  0  0  0  0  0  0
   -3.2014   21.8404  -20.4863 C   0  0  0  0  0  0  0  0  0  0  0  0
   -4.7186   21.9710  -20.4937 C   0  0  0  0  0  0  0  0  0  0  0  0
   -5.0314   23.3439  -20.7585 N   0  0  0  0  0  0  0  0  0  0  0  0
   -4.3359   23.9601  -21.8662 C   0  0  0  0  0  0  0  0  0  0  0  0
   -2.8194   23.7389  -21.7817 C   0  0  0  0  0  0  0  0  0  0  0  0
   -5.9598   24.1019  -20.0156 C   0  0  0  0  0  0  0  0  0  0  0  0
   -6.1640   25.3133  -20.3362 O   0  0  0  0  0  0  0  0  0  0  0  0
   -6.7205   23.6103  -18.8918 C   0  0  0  0  0  0  0  0  0  0  0  0
   -6.2409   23.6317  -17.6574 C   0  0  0  0  0  0  0  0  0  0  0  0
   -7.0787   23.1115  -16.5661 C   0  0  0  0  0  0  0  0  0  0  0  0
   -6.3240   22.5259  -15.4746 N   0  0  0  0  0  0  0  0  0  0  0  0
   -6.0874   21.1108  -15.6866 C   0  0  0  0  0  0  0  0  0  0  0  0
   -5.0274   23.1974  -15.4353 C   0  0  0  0  0  0  0  0  0  0  0  0
   -1.6089   22.6223  -26.7558 N   0  0  0  0  0  0  0  0  0  0  0  0
   -1.2592   22.3595  -27.6997 H   0  0  0  0  0  0  0  0  0  0  0  0
   -2.8458   23.3695  -26.7081 C   0  0  0  0  0  0  0  0  0  0  0  0
   -3.3356   23.7393  -28.0828 C   0  0  0  0  0  0  0  0  0  0  0  0
   -3.9702   22.5643  -26.0544 C   0  0  0  0  0  0  0  0  0  0  0  0
 20 21  1  0  0  0
 21 12  1  0  0  0
 12 13  2  0  0  0
 13 14  1  0  0  0
 14 22  1  0  0  0
 22 23  1  0  0  0
 14 15  2  0  0  0
 15 16  1  0  0  0
 15 17  1  0  0  0
 17  1  1  0  0  0
  1  2  1  0  0  0
  2  3  1  0  0  0
  3  4  2  0  0  0
  4  5  1  0  0  0
  5  6  2  0  0  0
  6 38  1  0  0  0
 38 40  1  0  0  0
 40 41  1  0  0  0
 40 42  1  0  0  0
  6  7  1  0  0  0
  7  8  2  0  0  0
  8  9  1  0  0  0
  9 24  1  0  0  0
 24 25  1  0  0  0
 25 26  1  0  0  0
 26 27  1  0  0  0
 27 28  1  0  0  0
 28 29  1  0  0  0
 27 30  1  0  0  0
 30 31  2  0  0  0
 30 32  1  0  0  0
 32 33  2  0  0  0
 33 34  1  0  0  0
 34 35  1  0  0  0
 35 36  1  0  0  0
 35 37  1  0  0  0
  9 10  1  0  0  0
 10 11  2  0  0  0
 17 18  2  0  0  0
 18 19  1  0  0  0
 18 12  1  0  0  0
 10  1  1  0  0  0
  8  3  1  0  0  0
 29 24  1  0  0  0
 38 39  1  0  0  0
M  END
> <minimizedAffinity>
-6.31718

> <CNNscore>
0.1053398028

> <CNNaffinity>
6.9166488647

> <CNN_VS>
0.7285984159

> <CNNaffinity_variance>
0.0585308596

$$$$
[H]/C(C(=O)N1C([H])([H])C([H])([H])C([H])(N2C(=O)N(c3c(Cl)c(OC([H])([H])[H])c([H])c(OC([H])([H])[H])c3Cl)C([H])([H])c3c([H])nc(N([H])C([H])(C([H])([H])[H])C([H])([H])[H])nc32)C([H])([H])C1([H])[H])=C(/[H])C([H])([H])N(C([H])([H])[H])C([H])([H])[H]


 42 45  0  0  0  0  0  0  0  0999 V2000
   -0.4253   21.5617  -21.1222 N   0  0  0  0  0  0  0  0  0  0  0  0
    0.4467   21.6896  -22.2619 C   0  0  0  0  0  0  0  0  0  0  0  0
   -0.2780   21.9542  -23.5258 C   0  0  0  0  0  0  0  0  0  0  0  0
    0.4449   21.9297  -24.7312 C   0  0  0  0  0  0  0  0  0  0  0  0
   -0.1883   22.2068  -25.8657 N   0  0  0  0  0  0  0  0  0  0  0  0
   -1.4930   22.5152  -25.9517 C   0  0  0  0  0  0  0  0  0  0  0  0
   -2.1776   22.5376  -24.8094 N   0  0  0  0  0  0  0  0  0  0  0  0
   -1.6131   22.2671  -23.6078 C   0  0  0  0  0  0  0  0  0  0  0  0
   -2.3777   22.2390  -22.4095 N   0  0  0  0  0  0  0  0  0  0  0  0
   -1.8066   21.8937  -21.1593 C   0  0  0  0  0  0  0  0  0  0  0  0
   -2.4302   21.8571  -20.0663 O   0  0  0  0  0  0  0  0  0  0  0  0
    0.9961   19.2326  -18.6110 C   0  0  0  0  0  0  0  0  0  0  0  0
    1.3056   20.1120  -17.5999 C   0  0  0  0  0  0  0  0  0  0  0  0
    1.0620   21.4703  -17.7098 C   0  0  0  0  0  0  0  0  0  0  0  0
    0.4875   21.9159  -18.8914 C   0  0  0  0  0  0  0  0  0  0  0  0
    0.1537   23.6172  -19.0987 Cl  0  0  0  0  0  0  0  0  0  0  0  0
    0.1707   21.0571  -19.9122 C   0  0  0  0  0  0  0  0  0  0  0  0
    0.4221   19.7218  -19.7761 C   0  0  0  0  0  0  0  0  0  0  0  0
    0.0317   18.5836  -21.0520 Cl  0  0  0  0  0  0  0  0  0  0  0  0
    2.4804   17.2606  -18.3605 C   0  0  0  0  0  0  0  0  0  0  0  0
    1.2304   17.8707  -18.5246 O   0  0  0  0  0  0  0  0  0  0  0  0
    1.3585   22.3841  -16.7162 O   0  0  0  0  0  0  0  0  0  0  0  0
    2.6636   22.6266  -16.2528 C   0  0  0  0  0  0  0  0  0  0  0  0
   -3.7574   22.5701  -22.4679 C   0  0  0  0  0  0  0  0  0  0  0  0
   -4.6472   21.6283  -21.6866 C   0  0  0  0  0  0  0  0  0  0  0  0
   -6.1132   21.7900  -22.0656 C   0  0  0  0  0  0  0  0  0  0  0  0
   -6.4854   23.1436  -21.7790 N   0  0  0  0  0  0  0  0  0  0  0  0
   -5.5889   24.1723  -22.2573 C   0  0  0  0  0  0  0  0  0  0  0  0
   -4.1347   23.8951  -21.8522 C   0  0  0  0  0  0  0  0  0  0  0  0
   -7.6510   23.5124  -21.0764 C   0  0  0  0  0  0  0  0  0  0  0  0
   -7.8874   24.7438  -20.8774 O   0  0  0  0  0  0  0  0  0  0  0  0
   -8.6271   22.5896  -20.5484 C   0  0  0  0  0  0  0  0  0  0  0  0
   -8.8373   22.4600  -19.2471 C   0  0  0  0  0  0  0  0  0  0  0  0
   -9.8500   21.4968  -18.7887 C   0  0  0  0  0  0  0  0  0  0  0  0
  -10.7210   22.0108  -17.7489 N   0  0  0  0  0  0  0  0  0  0  0  0
  -11.5744   23.0742  -18.2432 C   0  0  0  0  0  0  0  0  0  0  0  0
  -11.5787   20.9094  -17.3189 C   0  0  0  0  0  0  0  0  0  0  0  0
   -2.0535   22.7844  -27.2227 N   0  0  0  0  0  0  0  0  0  0  0  0
   -1.4499   22.7960  -28.0699 H   0  0  0  0  0  0  0  0  0  0  0  0
   -3.4593   23.0548  -27.4252 C   0  0  0  0  0  0  0  0  0  0  0  0
   -3.8457   24.4276  -26.9431 C   0  0  0  0  0  0  0  0  0  0  0  0
   -3.8407   22.9969  -28.9055 C   0  0  0  0  0  0  0  0  0  0  0  0
 20 21  1  0  0  0
 21 12  1  0  0  0
 12 13  2  0  0  0
 13 14  1  0  0  0
 14 22  1  0  0  0
 22 23  1  0  0  0
 14 15  2  0  0  0
 15 16  1  0  0  0
 15 17  1  0  0  0
 17  1  1  0  0  0
  1  2  1  0  0  0
  2  3  1  0  0  0
  3  4  2  0  0  0
  4  5  1  0  0  0
  5  6  2  0  0  0
  6 38  1  0  0  0
 38 40  1  0  0  0
 40 41  1  0  0  0
 40 42  1  0  0  0
  6  7  1  0  0  0
  7  8  2  0  0  0
  8  9  1  0  0  0
  9 24  1  0  0  0
 24 25  1  0  0  0
 25 26  1  0  0  0
 26 27  1  0  0  0
 27 28  1  0  0  0
 28 29  1  0  0  0
 27 30  1  0  0  0
 30 31  2  0  0  0
 30 32  1  0  0  0
 32 33  2  0  0  0
 33 34  1  0  0  0
 34 35  1  0  0  0
 35 36  1  0  0  0
 35 37  1  0  0  0
  9 10  1  0  0  0
 10 11  2  0  0  0
 17 18  2  0  0  0
 18 19  1  0  0  0
 18 12  1  0  0  0
 10  1  1  0  0  0
  8  3  1  0  0  0
 29 24  1  0  0  0
 38 39  1  0  0  0
M  END
> <minimizedAffinity>
-6.92238

> <CNNscore>
0.1000934094

> <CNNaffinity>
7.0167641640

> <CNN_VS>
0.7023318410

> <CNNaffinity_variance>
0.0555635206

$$$$
[H]/C(C(=O)N1C([H])([H])C([H])([H])C([H])(N2C(=O)N(c3c(Cl)c(OC([H])([H])[H])c([H])c(OC([H])([H])[H])c3Cl)C([H])([H])c3c([H])nc(N([H])C([H])(C([H])([H])[H])C([H])([H])[H])nc32)C([H])([H])C1([H])[H])=C(/[H])C([H])([H])N(C([H])([H])[H])C([H])([H])[H]


 42 45  0  0  0  0  0  0  0  0999 V2000
   -0.4107   21.4761  -21.0073 N   0  0  0  0  0  0  0  0  0  0  0  0
    0.4797   21.6002  -22.1331 C   0  0  0  0  0  0  0  0  0  0  0  0
   -0.2238   21.8684  -23.4082 C   0  0  0  0  0  0  0  0  0  0  0  0
    0.5178   21.8409  -24.6021 C   0  0  0  0  0  0  0  0  0  0  0  0
   -0.0961   22.1212  -25.7463 N   0  0  0  0  0  0  0  0  0  0  0  0
   -1.3978   22.4357  -25.8528 C   0  0  0  0  0  0  0  0  0  0  0  0
   -2.1002   22.4611  -24.7214 N   0  0  0  0  0  0  0  0  0  0  0  0
   -1.5559   22.1876  -23.5111 C   0  0  0  0  0  0  0  0  0  0  0  0
   -2.3395   22.1629  -22.3251 N   0  0  0  0  0  0  0  0  0  0  0  0
   -1.7897   21.8146  -21.0662 C   0  0  0  0  0  0  0  0  0  0  0  0
   -2.4307   21.7806  -19.9830 O   0  0  0  0  0  0  0  0  0  0  0  0
    1.0618   21.3392  -17.6067 C   0  0  0  0  0  0  0  0  0  0  0  0
    1.2581   19.9846  -17.4727 C   0  0  0  0  0  0  0  0  0  0  0  0
    0.9193   19.0921  -18.4751 C   0  0  0  0  0  0  0  0  0  0  0  0
    0.3681   19.6216  -19.6331 C   0  0  0  0  0  0  0  0  0  0  0  0
   -0.0840   18.5533  -20.9381 Cl  0  0  0  0  0  0  0  0  0  0  0  0
    0.1637   20.9684  -19.7883 C   0  0  0  0  0  0  0  0  0  0  0  0
    0.5078   21.8256  -18.7826 C   0  0  0  0  0  0  0  0  0  0  0  0
    0.2689   23.5564  -18.9353 Cl  0  0  0  0  0  0  0  0  0  0  0  0
    2.6898   22.6107  -16.2328 C   0  0  0  0  0  0  0  0  0  0  0  0
    1.3923   22.2510  -16.6186 O   0  0  0  0  0  0  0  0  0  0  0  0
    1.1016   17.7256  -18.3773 O   0  0  0  0  0  0  0  0  0  0  0  0
    0.2183   16.8746  -17.6900 C   0  0  0  0  0  0  0  0  0  0  0  0
   -3.7165   22.5004  -22.4051 C   0  0  0  0  0  0  0  0  0  0  0  0
   -4.6183   21.5905  -21.5999 C   0  0  0  0  0  0  0  0  0  0  0  0
   -6.0803   21.7488  -21.9955 C   0  0  0  0  0  0  0  0  0  0  0  0
   -6.4458   23.1134  -21.7567 N   0  0  0  0  0  0  0  0  0  0  0  0
   -5.5391   24.1201  -22.2617 C   0  0  0  0  0  0  0  0  0  0  0  0
   -4.0898   23.8473  -21.8365 C   0  0  0  0  0  0  0  0  0  0  0  0
   -7.6143   23.5125  -21.0757 C   0  0  0  0  0  0  0  0  0  0  0  0
   -7.8442   24.7512  -20.9194 O   0  0  0  0  0  0  0  0  0  0  0  0
   -8.6003   22.6137  -20.5251 C   0  0  0  0  0  0  0  0  0  0  0  0
   -8.6982   22.3932  -19.2227 C   0  0  0  0  0  0  0  0  0  0  0  0
   -9.7299   21.4622  -18.7406 C   0  0  0  0  0  0  0  0  0  0  0  0
   -9.4281   20.8672  -17.4526 N   0  0  0  0  0  0  0  0  0  0  0  0
   -8.6523   19.6501  -17.5942 C   0  0  0  0  0  0  0  0  0  0  0  0
   -8.6206   21.8309  -16.7091 C   0  0  0  0  0  0  0  0  0  0  0  0
   -1.9369   22.7079  -27.1323 N   0  0  0  0  0  0  0  0  0  0  0  0
   -1.3147   22.7509  -27.9650 H   0  0  0  0  0  0  0  0  0  0  0  0
   -3.3453   22.9391  -27.3636 C   0  0  0  0  0  0  0  0  0  0  0  0
   -3.7870   24.2865  -26.8578 C   0  0  0  0  0  0  0  0  0  0  0  0
   -3.6883   22.9069  -28.8540 C   0  0  0  0  0  0  0  0  0  0  0  0
 20 21  1  0  0  0
 21 12  1  0  0  0
 12 13  2  0  0  0
 13 14  1  0  0  0
 14 22  1  0  0  0
 22 23  1  0  0  0
 14 15  2  0  0  0
 15 16  1  0  0  0
 15 17  1  0  0  0
 17  1  1  0  0  0
  1  2  1  0  0  0
  2  3  1  0  0  0
  3  4  2  0  0  0
  4  5  1  0  0  0
  5  6  2  0  0  0
  6 38  1  0  0  0
 38 40  1  0  0  0
 40 41  1  0  0  0
 40 42  1  0  0  0
  6  7  1  0  0  0
  7  8  2  0  0  0
  8  9  1  0  0  0
  9 24  1  0  0  0
 24 25  1  0  0  0
 25 26  1  0  0  0
 26 27  1  0  0  0
 27 28  1  0  0  0
 28 29  1  0  0  0
 27 30  1  0  0  0
 30 31  2  0  0  0
 30 32  1  0  0  0
 32 33  2  0  0  0
 33 34  1  0  0  0
 34 35  1  0  0  0
 35 36  1  0  0  0
 35 37  1  0  0  0
  9 10  1  0  0  0
 10 11  2  0  0  0
 17 18  2  0  0  0
 18 19  1  0  0  0
 18 12  1  0  0  0
 10  1  1  0  0  0
  8  3  1  0  0  0
 29 24  1  0  0  0
 38 39  1  0  0  0
M  END
> <minimizedAffinity>
-6.76418

> <CNNscore>
0.0966058969

> <CNNaffinity>
6.9985399246

> <CNN_VS>
0.6761002541

> <CNNaffinity_variance>
0.0591213778

$$$$
[H]/C(C(=O)N1C([H])([H])C([H])([H])C([H])(N2C(=O)N(c3c(Cl)c(OC([H])([H])[H])c([H])c(OC([H])([H])[H])c3Cl)C([H])([H])c3c([H])nc(N([H])C([H])(C([H])([H])[H])C([H])([H])[H])nc32)C([H])([H])C1([H])[H])=C(/[H])C([H])([H])N(C([H])([H])[H])C([H])([H])[H]


 42 45  0  0  0  0  0  0  0  0999 V2000
    0.2783   20.7694  -20.8169 N   0  0  0  0  0  0  0  0  0  0  0  0
    1.0458   21.0620  -22.0004 C   0  0  0  0  0  0  0  0  0  0  0  0
    0.2127   21.4958  -23.1452 C   0  0  0  0  0  0  0  0  0  0  0  0
    0.8250   21.6457  -24.4017 C   0  0  0  0  0  0  0  0  0  0  0  0
    0.0947   22.0744  -25.4251 N   0  0  0  0  0  0  0  0  0  0  0  0
   -1.2108   22.3824  -25.3506 C   0  0  0  0  0  0  0  0  0  0  0  0
   -1.7906   22.2397  -24.1600 N   0  0  0  0  0  0  0  0  0  0  0  0
   -1.1226   21.8075  -23.0633 C   0  0  0  0  0  0  0  0  0  0  0  0
   -1.7776   21.6064  -21.8175 N   0  0  0  0  0  0  0  0  0  0  0  0
   -1.0991   21.0934  -20.6840 C   0  0  0  0  0  0  0  0  0  0  0  0
   -1.6229   20.8995  -19.5557 O   0  0  0  0  0  0  0  0  0  0  0  0
    1.6626   18.0972  -18.6503 C   0  0  0  0  0  0  0  0  0  0  0  0
    2.3121   18.8536  -17.7029 C   0  0  0  0  0  0  0  0  0  0  0  0
    2.3156   20.2372  -17.7459 C   0  0  0  0  0  0  0  0  0  0  0  0
    1.6314   20.8388  -18.7923 C   0  0  0  0  0  0  0  0  0  0  0  0
    1.5954   22.5806  -18.9092 Cl  0  0  0  0  0  0  0  0  0  0  0  0
    0.9770   20.1045  -19.7475 C   0  0  0  0  0  0  0  0  0  0  0  0
    0.9903   18.7407  -19.6799 C   0  0  0  0  0  0  0  0  0  0  0  0
    0.1654   17.7583  -20.8758 Cl  0  0  0  0  0  0  0  0  0  0  0  0
    0.8776   15.9139  -17.7719 C   0  0  0  0  0  0  0  0  0  0  0  0
    1.6453   16.7129  -18.6287 O   0  0  0  0  0  0  0  0  0  0  0  0
    2.9559   21.0305  -16.8128 O   0  0  0  0  0  0  0  0  0  0  0  0
    4.3388   21.2841  -16.8318 C   0  0  0  0  0  0  0  0  0  0  0  0
   -3.1552   21.9324  -21.7058 C   0  0  0  0  0  0  0  0  0  0  0  0
   -3.4149   23.3749  -21.3302 C   0  0  0  0  0  0  0  0  0  0  0  0
   -4.8498   23.5894  -20.8675 C   0  0  0  0  0  0  0  0  0  0  0  0
   -5.7116   23.2170  -21.9499 N   0  0  0  0  0  0  0  0  0  0  0  0
   -5.4330   21.9495  -22.5872 C   0  0  0  0  0  0  0  0  0  0  0  0
   -3.9549   21.8214  -22.9805 C   0  0  0  0  0  0  0  0  0  0  0  0
   -6.7894   24.0014  -22.4095 C   0  0  0  0  0  0  0  0  0  0  0  0
   -7.4928   23.5763  -23.3772 O   0  0  0  0  0  0  0  0  0  0  0  0
   -7.1759   25.2802  -21.8632 C   0  0  0  0  0  0  0  0  0  0  0  0
   -8.2432   25.4191  -21.0912 C   0  0  0  0  0  0  0  0  0  0  0  0
   -8.5703   26.7566  -20.5739 C   0  0  0  0  0  0  0  0  0  0  0  0
   -9.9896   26.9769  -20.3717 N   0  0  0  0  0  0  0  0  0  0  0  0
  -10.3254   28.3867  -20.4273 C   0  0  0  0  0  0  0  0  0  0  0  0
  -10.6918   26.3043  -21.4617 C   0  0  0  0  0  0  0  0  0  0  0  0
   -1.8808   22.8231  -26.5162 N   0  0  0  0  0  0  0  0  0  0  0  0
   -1.3423   23.0456  -27.3780 H   0  0  0  0  0  0  0  0  0  0  0  0
   -3.3152   22.9904  -26.5876 C   0  0  0  0  0  0  0  0  0  0  0  0
   -3.7635   24.2900  -25.9739 C   0  0  0  0  0  0  0  0  0  0  0  0
   -3.8135   23.0046  -28.0338 C   0  0  0  0  0  0  0  0  0  0  0  0
 20 21  1  0  0  0
 21 12  1  0  0  0
 12 13  2  0  0  0
 13 14  1  0  0  0
 14 22  1  0  0  0
 22 23  1  0  0  0
 14 15  2  0  0  0
 15 16  1  0  0  0
 15 17  1  0  0  0
 17  1  1  0  0  0
  1  2  1  0  0  0
  2  3  1  0  0  0
  3  4  2  0  0  0
  4  5  1  0  0  0
  5  6  2  0  0  0
  6 38  1  0  0  0
 38 40  1  0  0  0
 40 41  1  0  0  0
 40 42  1  0  0  0
  6  7  1  0  0  0
  7  8  2  0  0  0
  8  9  1  0  0  0
  9 24  1  0  0  0
 24 25  1  0  0  0
 25 26  1  0  0  0
 26 27  1  0  0  0
 27 28  1  0  0  0
 28 29  1  0  0  0
 27 30  1  0  0  0
 30 31  2  0  0  0
 30 32  1  0  0  0
 32 33  2  0  0  0
 33 34  1  0  0  0
 34 35  1  0  0  0
 35 36  1  0  0  0
 35 37  1  0  0  0
  9 10  1  0  0  0
 10 11  2  0  0  0
 17 18  2  0  0  0
 18 19  1  0  0  0
 18 12  1  0  0  0
 10  1  1  0  0  0
  8  3  1  0  0  0
 29 24  1  0  0  0
 38 39  1  0  0  0
M  END
> <minimizedAffinity>
-7.05275

> <CNNscore>
0.0894462466

> <CNNaffinity>
6.9351134300

> <CNN_VS>
0.6203198433

> <CNNaffinity_variance>
0.0911530405

$$$$
[H]/C(C(=O)N1C([H])([H])C([H])([H])C([H])(N2C(=O)N(c3c(Cl)c(OC([H])([H])[H])c([H])c(OC([H])([H])[H])c3Cl)C([H])([H])c3c([H])nc(N([H])C([H])(C([H])([H])[H])C([H])([H])[H])nc32)C([H])([H])C1([H])[H])=C(/[H])C([H])([H])N(C([H])([H])[H])C([H])([H])[H]


 42 45  0  0  0  0  0  0  0  0999 V2000
    0.1535   21.0046  -19.8680 N   0  0  0  0  0  0  0  0  0  0  0  0
    1.3432   20.9302  -20.6771 C   0  0  0  0  0  0  0  0  0  0  0  0
    1.0869   21.1642  -22.1166 C   0  0  0  0  0  0  0  0  0  0  0  0
    2.1356   20.9505  -23.0280 C   0  0  0  0  0  0  0  0  0  0  0  0
    1.9273   21.1978  -24.3165 N   0  0  0  0  0  0  0  0  0  0  0  0
    0.7679   21.6457  -24.8263 C   0  0  0  0  0  0  0  0  0  0  0  0
   -0.2256   21.8475  -23.9624 N   0  0  0  0  0  0  0  0  0  0  0  0
   -0.1017   21.6205  -22.6324 C   0  0  0  0  0  0  0  0  0  0  0  0
   -1.1947   21.7864  -21.7385 N   0  0  0  0  0  0  0  0  0  0  0  0
   -1.0898   21.4890  -20.3569 C   0  0  0  0  0  0  0  0  0  0  0  0
   -2.0189   21.6209  -19.5175 O   0  0  0  0  0  0  0  0  0  0  0  0
    0.7669   20.9648  -16.2110 C   0  0  0  0  0  0  0  0  0  0  0  0
    0.4949   19.6472  -15.9253 C   0  0  0  0  0  0  0  0  0  0  0  0
    0.1090   18.7492  -16.9055 C   0  0  0  0  0  0  0  0  0  0  0  0
    0.0059   19.2338  -18.2015 C   0  0  0  0  0  0  0  0  0  0  0  0
   -0.4773   18.1564  -19.4878 Cl  0  0  0  0  0  0  0  0  0  0  0  0
    0.2723   20.5431  -18.5090 C   0  0  0  0  0  0  0  0  0  0  0  0
    0.6513   21.4068  -17.5215 C   0  0  0  0  0  0  0  0  0  0  0  0
    1.0061   23.0895  -17.8657 Cl  0  0  0  0  0  0  0  0  0  0  0  0
    0.7409   21.8917  -13.9100 C   0  0  0  0  0  0  0  0  0  0  0  0
    1.1541   21.8813  -15.2482 O   0  0  0  0  0  0  0  0  0  0  0  0
   -0.1721   17.4190  -16.6573 O   0  0  0  0  0  0  0  0  0  0  0  0
    0.1477   16.7730  -15.4501 C   0  0  0  0  0  0  0  0  0  0  0  0
   -2.4302   22.2679  -22.2470 C   0  0  0  0  0  0  0  0  0  0  0  0
   -3.6440   21.7156  -21.5322 C   0  0  0  0  0  0  0  0  0  0  0  0
   -4.9236   21.9564  -22.3218 C   0  0  0  0  0  0  0  0  0  0  0  0
   -5.0701   23.3725  -22.4833 N   0  0  0  0  0  0  0  0  0  0  0  0
   -3.9005   24.0929  -22.9349 C   0  0  0  0  0  0  0  0  0  0  0  0
   -2.6612   23.7514  -22.0963 C   0  0  0  0  0  0  0  0  0  0  0  0
   -6.2649   24.0784  -22.2339 C   0  0  0  0  0  0  0  0  0  0  0  0
   -6.2869   25.3355  -22.4107 O   0  0  0  0  0  0  0  0  0  0  0  0
   -7.5003   23.4834  -21.7831 C   0  0  0  0  0  0  0  0  0  0  0  0
   -8.1297   23.9109  -20.6990 C   0  0  0  0  0  0  0  0  0  0  0  0
   -9.3840   23.2512  -20.3054 C   0  0  0  0  0  0  0  0  0  0  0  0
  -10.2253   24.0572  -19.4414 N   0  0  0  0  0  0  0  0  0  0  0  0
  -10.5631   25.3265  -20.0564 C   0  0  0  0  0  0  0  0  0  0  0  0
  -11.4660   23.3156  -19.2307 C   0  0  0  0  0  0  0  0  0  0  0  0
    0.6690   21.8648  -26.2206 N   0  0  0  0  0  0  0  0  0  0  0  0
    1.3024   21.3636  -26.8762 H   0  0  0  0  0  0  0  0  0  0  0  0
   -0.2882   22.7729  -26.8119 C   0  0  0  0  0  0  0  0  0  0  0  0
    0.0790   23.1389  -28.2253 C   0  0  0  0  0  0  0  0  0  0  0  0
   -1.6875   22.1583  -26.8777 C   0  0  0  0  0  0  0  0  0  0  0  0
 20 21  1  0  0  0
 21 12  1  0  0  0
 12 13  2  0  0  0
 13 14  1  0  0  0
 14 22  1  0  0  0
 22 23  1  0  0  0
 14 15  2  0  0  0
 15 16  1  0  0  0
 15 17  1  0  0  0
 17  1  1  0  0  0
  1  2  1  0  0  0
  2  3  1  0  0  0
  3  4  2  0  0  0
  4  5  1  0  0  0
  5  6  2  0  0  0
  6 38  1  0  0  0
 38 40  1  0  0  0
 40 41  1  0  0  0
 40 42  1  0  0  0
  6  7  1  0  0  0
  7  8  2  0  0  0
  8  9  1  0  0  0
  9 24  1  0  0  0
 24 25  1  0  0  0
 25 26  1  0  0  0
 26 27  1  0  0  0
 27 28  1  0  0  0
 28 29  1  0  0  0
 27 30  1  0  0  0
 30 31  2  0  0  0
 30 32  1  0  0  0
 32 33  2  0  0  0
 33 34  1  0  0  0
 34 35  1  0  0  0
 35 36  1  0  0  0
 35 37  1  0  0  0
  9 10  1  0  0  0
 10 11  2  0  0  0
 17 18  2  0  0  0
 18 19  1  0  0  0
 18 12  1  0  0  0
 10  1  1  0  0  0
  8  3  1  0  0  0
 29 24  1  0  0  0
 38 39  1  0  0  0
M  END
> <minimizedAffinity>
-6.75559

> <CNNscore>
0.0865508467

> <CNNaffinity>
6.7695856094

> <CNN_VS>
0.5859133601

> <CNNaffinity_variance>
0.0191099271

$$$$
[H]/C(C(=O)N1C([H])([H])C([H])([H])C([H])(N2C(=O)N(c3c(Cl)c(OC([H])([H])[H])c([H])c(OC([H])([H])[H])c3Cl)C([H])([H])c3c([H])nc(N([H])C([H])(C([H])([H])[H])C([H])([H])[H])nc32)C([H])([H])C1([H])[H])=C(/[H])C([H])([H])N(C([H])([H])[H])C([H])([H])[H]


 42 45  0  0  0  0  0  0  0  0999 V2000
    0.6640   21.3378  -20.2629 N   0  0  0  0  0  0  0  0  0  0  0  0
    1.4863   21.2351  -21.4414 C   0  0  0  0  0  0  0  0  0  0  0  0
    0.7481   21.5103  -22.6952 C   0  0  0  0  0  0  0  0  0  0  0  0
    1.3964   21.2761  -23.9204 C   0  0  0  0  0  0  0  0  0  0  0  0
    0.7570   21.5594  -25.0499 N   0  0  0  0  0  0  0  0  0  0  0  0
   -0.4868   22.0629  -25.1130 C   0  0  0  0  0  0  0  0  0  0  0  0
   -1.1008   22.2841  -23.9519 N   0  0  0  0  0  0  0  0  0  0  0  0
   -0.5248   22.0234  -22.7535 C   0  0  0  0  0  0  0  0  0  0  0  0
   -1.2227   22.2120  -21.5294 N   0  0  0  0  0  0  0  0  0  0  0  0
   -0.6493   21.8806  -20.2765 C   0  0  0  0  0  0  0  0  0  0  0  0
   -1.2148   22.0300  -19.1616 O   0  0  0  0  0  0  0  0  0  0  0  0
    1.6562   19.0443  -17.5230 C   0  0  0  0  0  0  0  0  0  0  0  0
    2.3286   19.9153  -16.6979 C   0  0  0  0  0  0  0  0  0  0  0  0
    2.4742   21.2561  -17.0100 C   0  0  0  0  0  0  0  0  0  0  0  0
    1.9098   21.6930  -18.1998 C   0  0  0  0  0  0  0  0  0  0  0  0
    2.0563   23.3718  -18.6570 Cl  0  0  0  0  0  0  0  0  0  0  0  0
    1.2353   20.8424  -19.0373 C   0  0  0  0  0  0  0  0  0  0  0  0
    1.1070   19.5245  -18.7037 C   0  0  0  0  0  0  0  0  0  0  0  0
    0.2505   18.3986  -19.7403 Cl  0  0  0  0  0  0  0  0  0  0  0  0
    1.2885   17.1530  -15.9603 C   0  0  0  0  0  0  0  0  0  0  0  0
    1.4979   17.6999  -17.2326 O   0  0  0  0  0  0  0  0  0  0  0  0
    3.1420   22.1610  -16.2067 O   0  0  0  0  0  0  0  0  0  0  0  0
    2.5506   22.7976  -15.1013 C   0  0  0  0  0  0  0  0  0  0  0  0
   -2.5357   22.7521  -21.5641 C   0  0  0  0  0  0  0  0  0  0  0  0
   -2.7978   23.6497  -22.7535 C   0  0  0  0  0  0  0  0  0  0  0  0
   -4.0578   24.4840  -22.5658 C   0  0  0  0  0  0  0  0  0  0  0  0
   -5.1549   23.5769  -22.4034 N   0  0  0  0  0  0  0  0  0  0  0  0
   -4.9626   22.4969  -21.4615 C   0  0  0  0  0  0  0  0  0  0  0  0
   -3.6490   21.7450  -21.7162 C   0  0  0  0  0  0  0  0  0  0  0  0
   -6.3793   23.6836  -23.0944 C   0  0  0  0  0  0  0  0  0  0  0  0
   -7.2884   22.8251  -22.8745 O   0  0  0  0  0  0  0  0  0  0  0  0
   -6.7012   24.7104  -24.0564 C   0  0  0  0  0  0  0  0  0  0  0  0
   -6.3793   24.5977  -25.3363 C   0  0  0  0  0  0  0  0  0  0  0  0
   -6.7425   25.6886  -26.2536 C   0  0  0  0  0  0  0  0  0  0  0  0
   -5.6101   26.2779  -26.9424 N   0  0  0  0  0  0  0  0  0  0  0  0
   -4.3673   26.0317  -26.2365 C   0  0  0  0  0  0  0  0  0  0  0  0
   -5.5181   25.6365  -28.2515 C   0  0  0  0  0  0  0  0  0  0  0  0
   -1.0626   22.3161  -26.3804 N   0  0  0  0  0  0  0  0  0  0  0  0
   -0.5613   22.0386  -27.2487 H   0  0  0  0  0  0  0  0  0  0  0  0
   -2.3464   22.9590  -26.5510 C   0  0  0  0  0  0  0  0  0  0  0  0
   -2.6753   23.1875  -28.0022 C   0  0  0  0  0  0  0  0  0  0  0  0
   -3.4854   22.1115  -25.9813 C   0  0  0  0  0  0  0  0  0  0  0  0
 20 21  1  0  0  0
 21 12  1  0  0  0
 12 13  2  0  0  0
 13 14  1  0  0  0
 14 22  1  0  0  0
 22 23  1  0  0  0
 14 15  2  0  0  0
 15 16  1  0  0  0
 15 17  1  0  0  0
 17  1  1  0  0  0
  1  2  1  0  0  0
  2  3  1  0  0  0
  3  4  2  0  0  0
  4  5  1  0  0  0
  5  6  2  0  0  0
  6 38  1  0  0  0
 38 40  1  0  0  0
 40 41  1  0  0  0
 40 42  1  0  0  0
  6  7  1  0  0  0
  7  8  2  0  0  0
  8  9  1  0  0  0
  9 24  1  0  0  0
 24 25  1  0  0  0
 25 26  1  0  0  0
 26 27  1  0  0  0
 27 28  1  0  0  0
 28 29  1  0  0  0
 27 30  1  0  0  0
 30 31  2  0  0  0
 30 32  1  0  0  0
 32 33  2  0  0  0
 33 34  1  0  0  0
 34 35  1  0  0  0
 35 36  1  0  0  0
 35 37  1  0  0  0
  9 10  1  0  0  0
 10 11  2  0  0  0
 17 18  2  0  0  0
 18 19  1  0  0  0
 18 12  1  0  0  0
 10  1  1  0  0  0
  8  3  1  0  0  0
 29 24  1  0  0  0
 38 39  1  0  0  0
M  END
> <minimizedAffinity>
-7.17825

> <CNNscore>
0.0757752061

> <CNNaffinity>
7.1297044754

> <CNN_VS>
0.5402548313

> <CNNaffinity_variance>
0.0424732640

$$$$
[H]/C(C(=O)N1C([H])([H])C([H])([H])C([H])(N2C(=O)N(c3c(Cl)c(OC([H])([H])[H])c([H])c(OC([H])([H])[H])c3Cl)C([H])([H])c3c([H])nc(N([H])C([H])(C([H])([H])[H])C([H])([H])[H])nc32)C([H])([H])C1([H])[H])=C(/[H])C([H])([H])N(C([H])([H])[H])C([H])([H])[H]


 42 45  0  0  0  0  0  0  0  0999 V2000
   -0.3449   20.7327  -18.4485 N   0  0  0  0  0  0  0  0  0  0  0  0
   -0.2898   20.6598  -17.0108 C   0  0  0  0  0  0  0  0  0  0  0  0
   -1.4713   21.2591  -16.3493 C   0  0  0  0  0  0  0  0  0  0  0  0
   -1.4565   21.4021  -14.9509 C   0  0  0  0  0  0  0  0  0  0  0  0
   -2.5284   21.9002  -14.3447 N   0  0  0  0  0  0  0  0  0  0  0  0
   -3.6488   22.2856  -14.9779 C   0  0  0  0  0  0  0  0  0  0  0  0
   -3.6622   22.1505  -16.3028 N   0  0  0  0  0  0  0  0  0  0  0  0
   -2.6137   21.6533  -17.0024 C   0  0  0  0  0  0  0  0  0  0  0  0
   -2.6293   21.5745  -18.4218 N   0  0  0  0  0  0  0  0  0  0  0  0
   -1.5119   21.1159  -19.1632 C   0  0  0  0  0  0  0  0  0  0  0  0
   -1.4686   21.0188  -20.4177 O   0  0  0  0  0  0  0  0  0  0  0  0
    2.2112   18.8368  -20.3521 C   0  0  0  0  0  0  0  0  0  0  0  0
    3.1831   19.7995  -20.4945 C   0  0  0  0  0  0  0  0  0  0  0  0
    3.0317   21.0757  -19.9802 C   0  0  0  0  0  0  0  0  0  0  0  0
    1.8494   21.3501  -19.3081 C   0  0  0  0  0  0  0  0  0  0  0  0
    1.5907   22.9402  -18.6346 Cl  0  0  0  0  0  0  0  0  0  0  0  0
    0.8673   20.4059  -19.1541 C   0  0  0  0  0  0  0  0  0  0  0  0
    1.0440   19.1547  -19.6719 C   0  0  0  0  0  0  0  0  0  0  0  0
   -0.1814   17.9122  -19.4979 Cl  0  0  0  0  0  0  0  0  0  0  0  0
    3.3772   16.6580  -20.5712 C   0  0  0  0  0  0  0  0  0  0  0  0
    2.3397   17.5543  -20.8576 O   0  0  0  0  0  0  0  0  0  0  0  0
    3.9852   22.0687  -20.1028 O   0  0  0  0  0  0  0  0  0  0  0  0
    5.3070   21.9328  -19.6433 C   0  0  0  0  0  0  0  0  0  0  0  0
   -3.8036   21.9657  -19.1180 C   0  0  0  0  0  0  0  0  0  0  0  0
   -3.5362   22.5701  -20.4791 C   0  0  0  0  0  0  0  0  0  0  0  0
   -4.7572   23.2989  -21.0242 C   0  0  0  0  0  0  0  0  0  0  0  0
   -5.8187   22.3422  -21.1286 N   0  0  0  0  0  0  0  0  0  0  0  0
   -6.0440   21.5026  -19.9733 C   0  0  0  0  0  0  0  0  0  0  0  0
   -4.7461   20.8456  -19.4838 C   0  0  0  0  0  0  0  0  0  0  0  0
   -6.6337   22.1853  -22.2685 C   0  0  0  0  0  0  0  0  0  0  0  0
   -7.5496   21.3061  -22.2555 O   0  0  0  0  0  0  0  0  0  0  0  0
   -6.5172   22.9564  -23.4830 C   0  0  0  0  0  0  0  0  0  0  0  0
   -5.8365   22.5161  -24.5305 C   0  0  0  0  0  0  0  0  0  0  0  0
   -5.7647   23.3622  -25.7314 C   0  0  0  0  0  0  0  0  0  0  0  0
   -4.4419   23.8957  -25.9954 N   0  0  0  0  0  0  0  0  0  0  0  0
   -3.8139   23.2348  -27.1234 C   0  0  0  0  0  0  0  0  0  0  0  0
   -4.6041   25.3071  -26.3348 C   0  0  0  0  0  0  0  0  0  0  0  0
   -4.7224   22.8082  -14.2187 N   0  0  0  0  0  0  0  0  0  0  0  0
   -4.6532   22.8641  -13.1823 H   0  0  0  0  0  0  0  0  0  0  0  0
   -5.9517   23.2845  -14.8124 C   0  0  0  0  0  0  0  0  0  0  0  0
   -7.1583   22.8995  -13.9985 C   0  0  0  0  0  0  0  0  0  0  0  0
   -5.9760   24.8103  -14.9199 C   0  0  0  0  0  0  0  0  0  0  0  0
 20 21  1  0  0  0
 21 12  1  0  0  0
 12 13  2  0  0  0
 13 14  1  0  0  0
 14 22  1  0  0  0
 22 23  1  0  0  0
 14 15  2  0  0  0
 15 16  1  0  0  0
 15 17  1  0  0  0
 17  1  1  0  0  0
  1  2  1  0  0  0
  2  3  1  0  0  0
  3  4  2  0  0  0
  4  5  1  0  0  0
  5  6  2  0  0  0
  6 38  1  0  0  0
 38 40  1  0  0  0
 40 41  1  0  0  0
 40 42  1  0  0  0
  6  7  1  0  0  0
  7  8  2  0  0  0
  8  9  1  0  0  0
  9 24  1  0  0  0
 24 25  1  0  0  0
 25 26  1  0  0  0
 26 27  1  0  0  0
 27 28  1  0  0  0
 28 29  1  0  0  0
 27 30  1  0  0  0
 30 31  2  0  0  0
 30 32  1  0  0  0
 32 33  2  0  0  0
 33 34  1  0  0  0
 34 35  1  0  0  0
 35 36  1  0  0  0
 35 37  1  0  0  0
  9 10  1  0  0  0
 10 11  2  0  0  0
 17 18  2  0  0  0
 18 19  1  0  0  0
 18 12  1  0  0  0
 10  1  1  0  0  0
  8  3  1  0  0  0
 29 24  1  0  0  0
 38 39  1  0  0  0
M  END
> <minimizedAffinity>
-6.14200

> <CNNscore>
0.0583809242

> <CNNaffinity>
6.2230334282

> <CNN_VS>
0.3633064330

> <CNNaffinity_variance>
0.0712777972

$$$$
[H]/C(C(=O)N1C([H])([H])C([H])([H])C([H])(N2C(=O)N(c3c(Cl)c(OC([H])([H])[H])c([H])c(OC([H])([H])[H])c3Cl)C([H])([H])c3c([H])nc(N([H])C([H])(C([H])([H])[H])C([H])([H])[H])nc32)C([H])([H])C1([H])[H])=C(/[H])C([H])([H])N(C([H])([H])[H])C([H])([H])[H]


 42 45  0  0  0  0  0  0  0  0999 V2000
    0.2709   21.9137  -19.5358 N   0  0  0  0  0  0  0  0  0  0  0  0
    1.2962   21.5297  -20.4722 C   0  0  0  0  0  0  0  0  0  0  0  0
    0.8463   21.5733  -21.8823 C   0  0  0  0  0  0  0  0  0  0  0  0
    1.6992   21.0594  -22.8746 C   0  0  0  0  0  0  0  0  0  0  0  0
    1.3222   21.1320  -24.1463 N   0  0  0  0  0  0  0  0  0  0  0  0
    0.1649   21.6698  -24.5660 C   0  0  0  0  0  0  0  0  0  0  0  0
   -0.6431   22.1560  -23.6254 N   0  0  0  0  0  0  0  0  0  0  0  0
   -0.3394   22.1228  -22.3054 C   0  0  0  0  0  0  0  0  0  0  0  0
   -1.2447   22.5943  -21.3157 N   0  0  0  0  0  0  0  0  0  0  0  0
   -0.9605   22.5034  -19.9303 C   0  0  0  0  0  0  0  0  0  0  0  0
   -1.7185   22.9077  -19.0099 O   0  0  0  0  0  0  0  0  0  0  0  0
    1.6278   22.2474  -16.1009 C   0  0  0  0  0  0  0  0  0  0  0  0
    1.0538   21.1532  -15.4970 C   0  0  0  0  0  0  0  0  0  0  0  0
    0.2196   20.2894  -16.1856 C   0  0  0  0  0  0  0  0  0  0  0  0
   -0.0180   20.5722  -17.5230 C   0  0  0  0  0  0  0  0  0  0  0  0
   -1.0617   19.5252  -18.4523 Cl  0  0  0  0  0  0  0  0  0  0  0  0
    0.5436   21.6571  -18.1453 C   0  0  0  0  0  0  0  0  0  0  0  0
    1.3629   22.4924  -17.4411 C   0  0  0  0  0  0  0  0  0  0  0  0
    2.1074   23.8907  -18.1936 Cl  0  0  0  0  0  0  0  0  0  0  0  0
    2.4031   23.4441  -14.0707 C   0  0  0  0  0  0  0  0  0  0  0  0
    2.4647   23.1254  -15.4332 O   0  0  0  0  0  0  0  0  0  0  0  0
   -0.3748   19.1805  -15.6136 O   0  0  0  0  0  0  0  0  0  0  0  0
    0.3440   18.0462  -15.1967 C   0  0  0  0  0  0  0  0  0  0  0  0
   -2.4718   23.1769  -21.7298 C   0  0  0  0  0  0  0  0  0  0  0  0
   -2.3685   23.9791  -23.0085 C   0  0  0  0  0  0  0  0  0  0  0  0
   -3.5847   24.8718  -23.2160 C   0  0  0  0  0  0  0  0  0  0  0  0
   -4.7368   24.0223  -23.2790 N   0  0  0  0  0  0  0  0  0  0  0  0
   -4.8544   23.0200  -22.2436 C   0  0  0  0  0  0  0  0  0  0  0  0
   -3.5646   22.2018  -22.0926 C   0  0  0  0  0  0  0  0  0  0  0  0
   -5.7350   24.1145  -24.2706 C   0  0  0  0  0  0  0  0  0  0  0  0
   -6.7177   23.3115  -24.2328 O   0  0  0  0  0  0  0  0  0  0  0  0
   -5.7403   25.0668  -25.3551 C   0  0  0  0  0  0  0  0  0  0  0  0
   -5.7329   24.6851  -26.6234 C   0  0  0  0  0  0  0  0  0  0  0  0
   -5.7386   25.7176  -27.6709 C   0  0  0  0  0  0  0  0  0  0  0  0
   -6.0476   25.2100  -28.9941 N   0  0  0  0  0  0  0  0  0  0  0  0
   -5.3238   25.9285  -30.0252 C   0  0  0  0  0  0  0  0  0  0  0  0
   -5.6186   23.8143  -29.0334 C   0  0  0  0  0  0  0  0  0  0  0  0
   -0.1257   21.6813  -25.9507 N   0  0  0  0  0  0  0  0  0  0  0  0
    0.0776   20.8456  -26.5359 H   0  0  0  0  0  0  0  0  0  0  0  0
   -0.7057   22.8200  -26.6270 C   0  0  0  0  0  0  0  0  0  0  0  0
   -0.1178   23.0225  -27.9980 C   0  0  0  0  0  0  0  0  0  0  0  0
   -2.2132   22.6537  -26.8270 C   0  0  0  0  0  0  0  0  0  0  0  0
 20 21  1  0  0  0
 21 12  1  0  0  0
 12 13  2  0  0  0
 13 14  1  0  0  0
 14 22  1  0  0  0
 22 23  1  0  0  0
 14 15  2  0  0  0
 15 16  1  0  0  0
 15 17  1  0  0  0
 17  1  1  0  0  0
  1  2  1  0  0  0
  2  3  1  0  0  0
  3  4  2  0  0  0
  4  5  1  0  0  0
  5  6  2  0  0  0
  6 38  1  0  0  0
 38 40  1  0  0  0
 40 41  1  0  0  0
 40 42  1  0  0  0
  6  7  1  0  0  0
  7  8  2  0  0  0
  8  9  1  0  0  0
  9 24  1  0  0  0
 24 25  1  0  0  0
 25 26  1  0  0  0
 26 27  1  0  0  0
 27 28  1  0  0  0
 28 29  1  0  0  0
 27 30  1  0  0  0
 30 31  2  0  0  0
 30 32  1  0  0  0
 32 33  2  0  0  0
 33 34  1  0  0  0
 34 35  1  0  0  0
 35 36  1  0  0  0
 35 37  1  0  0  0
  9 10  1  0  0  0
 10 11  2  0  0  0
 17 18  2  0  0  0
 18 19  1  0  0  0
 18 12  1  0  0  0
 10  1  1  0  0  0
  8  3  1  0  0  0
 29 24  1  0  0  0
 38 39  1  0  0  0
M  END
> <minimizedAffinity>
-7.33462

> <CNNscore>
0.0554111116

> <CNNaffinity>
7.0370054245

> <CNN_VS>
0.3899282813

> <CNNaffinity_variance>
0.1478968859

$$$$
[H]OC([H])([H])C([H])([H])N(c1nc2c([H])c(-c3c([H])nn(C([H])([H])[H])c3[H])c([H])nc2c([H])c1[H])c1c([H])c(OC([H])([H])[H])c([H])c(OC([H])([H])[H])c1[H]


 31 34  0  0  0  0  0  0  0  0999 V2000
   -1.5472   22.0504  -23.7634 C   0  0  0  0  0  0  0  0  0  0  0  0
   -0.2941   21.8187  -24.2847 C   0  0  0  0  0  0  0  0  0  0  0  0
    0.0240   22.0490  -25.6022 C   0  0  0  0  0  0  0  0  0  0  0  0
   -0.9647   22.5352  -26.4344 C   0  0  0  0  0  0  0  0  0  0  0  0
   -0.7433   22.7874  -27.7381 N   0  0  0  0  0  0  0  0  0  0  0  0
   -1.7165   23.2605  -28.5440 C   0  0  0  0  0  0  0  0  0  0  0  0
   -2.9889   23.5107  -28.0759 C   0  0  0  0  0  0  0  0  0  0  0  0
   -3.2075   23.2509  -26.7440 C   0  0  0  0  0  0  0  0  0  0  0  0
   -2.2121   22.7644  -25.9091 C   0  0  0  0  0  0  0  0  0  0  0  0
   -2.4914   22.5231  -24.5922 N   0  0  0  0  0  0  0  0  0  0  0  0
   -4.0562   24.0210  -28.9288 C   0  0  0  0  0  0  0  0  0  0  0  0
   -5.3144   23.4417  -29.1303 C   0  0  0  0  0  0  0  0  0  0  0  0
   -5.9783   24.2366  -29.9861 N   0  0  0  0  0  0  0  0  0  0  0  0
   -5.2578   25.2770  -30.3529 N   0  0  0  0  0  0  0  0  0  0  0  0
   -5.6659   26.3474  -31.2741 C   0  0  0  0  0  0  0  0  0  0  0  0
   -4.0820   25.1567  -29.7140 C   0  0  0  0  0  0  0  0  0  0  0  0
   -1.8222   21.7840  -22.3822 N   0  0  0  0  0  0  0  0  0  0  0  0
    1.4734   20.4331  -21.4122 C   0  0  0  0  0  0  0  0  0  0  0  0
    1.4140   20.4428  -20.0316 C   0  0  0  0  0  0  0  0  0  0  0  0
    0.2704   20.9008  -19.4122 C   0  0  0  0  0  0  0  0  0  0  0  0
   -0.7846   21.3375  -20.1808 C   0  0  0  0  0  0  0  0  0  0  0  0
   -0.7589   21.3411  -21.5542 C   0  0  0  0  0  0  0  0  0  0  0  0
    0.4064   20.8742  -22.1671 C   0  0  0  0  0  0  0  0  0  0  0  0
    3.2247   20.7511  -23.0696 C   0  0  0  0  0  0  0  0  0  0  0  0
    2.6351   19.9685  -22.0541 O   0  0  0  0  0  0  0  0  0  0  0  0
    0.2188   20.9067  -18.0261 O   0  0  0  0  0  0  0  0  0  0  0  0
   -0.5634   21.7958  -17.2832 C   0  0  0  0  0  0  0  0  0  0  0  0
   -3.1488   21.9493  -21.8252 C   0  0  0  0  0  0  0  0  0  0  0  0
   -3.3339   23.4151  -21.4781 C   0  0  0  0  0  0  0  0  0  0  0  0
   -4.4403   23.5549  -20.6364 O   0  0  0  0  0  0  0  0  0  0  0  0
   -4.2785   22.9640  -19.8351 H   0  0  0  0  0  0  0  0  0  0  0  0
 24 25  1  0  0  0
 25 18  1  0  0  0
 18 19  2  0  0  0
 19 20  1  0  0  0
 20 26  1  0  0  0
 26 27  1  0  0  0
 20 21  2  0  0  0
 21 22  1  0  0  0
 22 23  2  0  0  0
 22 17  1  0  0  0
 17 28  1  0  0  0
 28 29  1  0  0  0
 29 30  1  0  0  0
 17  1  1  0  0  0
  1  2  2  0  0  0
  2  3  1  0  0  0
  3  4  2  0  0  0
  4  5  1  0  0  0
  5  6  2  0  0  0
  6  7  1  0  0  0
  7  8  2  0  0  0
  8  9  1  0  0  0
  9 10  2  0  0  0
  7 11  1  0  0  0
 11 12  1  0  0  0
 12 13  2  0  0  0
 13 14  1  0  0  0
 14 15  1  0  0  0
 14 16  1  0  0  0
 23 18  1  0  0  0
 10  1  1  0  0  0
 16 11  2  0  0  0
  9  4  1  0  0  0
 30 31  1  0  0  0
M  END
> <minimizedAffinity>
-7.78466

> <CNNscore>
0.8432329297

> <CNNaffinity>
7.1537184715

> <CNN_VS>
6.0322508812

> <CNNaffinity_variance>
0.1243666857

$$$$
[H]OC([H])([H])C([H])([H])N(c1nc2c([H])c(-c3c([H])nn(C([H])([H])[H])c3[H])c([H])nc2c([H])c1[H])c1c([H])c(OC([H])([H])[H])c([H])c(OC([H])([H])[H])c1[H]


 31 34  0  0  0  0  0  0  0  0999 V2000
   -3.8811   23.3096  -26.9764 C   0  0  0  0  0  0  0  0  0  0  0  0
   -3.1956   23.3287  -28.1703 C   0  0  0  0  0  0  0  0  0  0  0  0
   -1.8678   22.9891  -28.2778 C   0  0  0  0  0  0  0  0  0  0  0  0
   -1.1980   22.6125  -27.1306 C   0  0  0  0  0  0  0  0  0  0  0  0
    0.1028   22.2660  -27.1419 N   0  0  0  0  0  0  0  0  0  0  0  0
    0.7493   21.9015  -26.0153 C   0  0  0  0  0  0  0  0  0  0  0  0
    0.1129   21.8642  -24.7929 C   0  0  0  0  0  0  0  0  0  0  0  0
   -1.2151   22.2191  -24.7889 C   0  0  0  0  0  0  0  0  0  0  0  0
   -1.8866   22.5951  -25.9431 C   0  0  0  0  0  0  0  0  0  0  0  0
   -3.2084   22.9399  -25.8752 N   0  0  0  0  0  0  0  0  0  0  0  0
    0.7919   21.4743  -23.5624 C   0  0  0  0  0  0  0  0  0  0  0  0
    0.2035   21.2866  -22.3064 C   0  0  0  0  0  0  0  0  0  0  0  0
    1.1876   20.9342  -21.4623 N   0  0  0  0  0  0  0  0  0  0  0  0
    2.3578   20.8785  -22.0651 N   0  0  0  0  0  0  0  0  0  0  0  0
    3.6465   20.5274  -21.4510 C   0  0  0  0  0  0  0  0  0  0  0  0
    2.1294   21.2062  -23.3479 C   0  0  0  0  0  0  0  0  0  0  0  0
   -5.2642   23.6818  -26.9246 N   0  0  0  0  0  0  0  0  0  0  0  0
   -6.1321   22.7289  -23.4655 C   0  0  0  0  0  0  0  0  0  0  0  0
   -7.1107   23.6458  -23.1316 C   0  0  0  0  0  0  0  0  0  0  0  0
   -7.4898   24.5912  -24.0611 C   0  0  0  0  0  0  0  0  0  0  0  0
   -6.8866   24.6010  -25.2981 C   0  0  0  0  0  0  0  0  0  0  0  0
   -5.9116   23.7046  -25.6625 C   0  0  0  0  0  0  0  0  0  0  0  0
   -5.5382   22.7531  -24.7103 C   0  0  0  0  0  0  0  0  0  0  0  0
   -4.3636   21.5584  -22.2748 C   0  0  0  0  0  0  0  0  0  0  0  0
   -5.7376   21.7607  -22.5250 O   0  0  0  0  0  0  0  0  0  0  0  0
   -8.4730   25.5075  -23.7181 O   0  0  0  0  0  0  0  0  0  0  0  0
   -9.2716   25.3965  -22.5761 C   0  0  0  0  0  0  0  0  0  0  0  0
   -6.0052   24.0235  -28.1211 C   0  0  0  0  0  0  0  0  0  0  0  0
   -5.7400   25.4839  -28.4377 C   0  0  0  0  0  0  0  0  0  0  0  0
   -6.6045   25.9015  -29.4526 O   0  0  0  0  0  0  0  0  0  0  0  0
   -7.5440   25.7179  -29.1347 H   0  0  0  0  0  0  0  0  0  0  0  0
 24 25  1  0  0  0
 25 18  1  0  0  0
 18 19  2  0  0  0
 19 20  1  0  0  0
 20 26  1  0  0  0
 26 27  1  0  0  0
 20 21  2  0  0  0
 21 22  1  0  0  0
 22 23  2  0  0  0
 22 17  1  0  0  0
 17 28  1  0  0  0
 28 29  1  0  0  0
 29 30  1  0  0  0
 17  1  1  0  0  0
  1  2  2  0  0  0
  2  3  1  0  0  0
  3  4  2  0  0  0
  4  5  1  0  0  0
  5  6  2  0  0  0
  6  7  1  0  0  0
  7  8  2  0  0  0
  8  9  1  0  0  0
  9 10  2  0  0  0
  7 11  1  0  0  0
 11 12  1  0  0  0
 12 13  2  0  0  0
 13 14  1  0  0  0
 14 15  1  0  0  0
 14 16  1  0  0  0
 23 18  1  0  0  0
 10  1  1  0  0  0
 16 11  2  0  0  0
  9  4  1  0  0  0
 30 31  1  0  0  0
M  END
> <minimizedAffinity>
-8.36660

> <CNNscore>
0.7745970488

> <CNNaffinity>
7.3088150024

> <CNN_VS>
5.6613864899

> <CNNaffinity_variance>
0.1937745810

$$$$
[H]OC([H])([H])C([H])([H])N(c1nc2c([H])c(-c3c([H])nn(C([H])([H])[H])c3[H])c([H])nc2c([H])c1[H])c1c([H])c(OC([H])([H])[H])c([H])c(OC([H])([H])[H])c1[H]


 31 34  0  0  0  0  0  0  0  0999 V2000
   -1.0080   21.9895  -23.7221 C   0  0  0  0  0  0  0  0  0  0  0  0
    0.1971   21.7407  -24.3398 C   0  0  0  0  0  0  0  0  0  0  0  0
    0.4161   21.9730  -25.6770 C   0  0  0  0  0  0  0  0  0  0  0  0
   -0.6260   22.4796  -26.4281 C   0  0  0  0  0  0  0  0  0  0  0  0
   -0.5020   22.7354  -27.7440 N   0  0  0  0  0  0  0  0  0  0  0  0
   -1.5267   23.2284  -28.4701 C   0  0  0  0  0  0  0  0  0  0  0  0
   -2.7548   23.4964  -27.9037 C   0  0  0  0  0  0  0  0  0  0  0  0
   -2.8740   23.2328  -26.5599 C   0  0  0  0  0  0  0  0  0  0  0  0
   -1.8251   22.7259  -25.8067 C   0  0  0  0  0  0  0  0  0  0  0  0
   -2.0056   22.4819  -24.4732 N   0  0  0  0  0  0  0  0  0  0  0  0
   -3.8765   24.0283  -28.6693 C   0  0  0  0  0  0  0  0  0  0  0  0
   -5.1944   23.5571  -28.6583 C   0  0  0  0  0  0  0  0  0  0  0  0
   -5.8939   24.3322  -29.5040 N   0  0  0  0  0  0  0  0  0  0  0  0
   -5.1416   25.2612  -30.0580 N   0  0  0  0  0  0  0  0  0  0  0  0
   -5.5735   26.2790  -31.0269 C   0  0  0  0  0  0  0  0  0  0  0  0
   -3.9076   25.0862  -29.5564 C   0  0  0  0  0  0  0  0  0  0  0  0
   -1.1796   21.7200  -22.3249 N   0  0  0  0  0  0  0  0  0  0  0  0
   -3.8310   22.3778  -19.8422 C   0  0  0  0  0  0  0  0  0  0  0  0
   -4.9872   22.1145  -20.5518 C   0  0  0  0  0  0  0  0  0  0  0  0
   -4.8905   21.7137  -21.8677 C   0  0  0  0  0  0  0  0  0  0  0  0
   -3.6474   21.5850  -22.4442 C   0  0  0  0  0  0  0  0  0  0  0  0
   -2.4789   21.8383  -21.7679 C   0  0  0  0  0  0  0  0  0  0  0  0
   -2.5931   22.2434  -20.4359 C   0  0  0  0  0  0  0  0  0  0  0  0
   -5.1299   23.3273  -18.0183 C   0  0  0  0  0  0  0  0  0  0  0  0
   -3.9181   22.7877  -18.4998 O   0  0  0  0  0  0  0  0  0  0  0  0
   -6.0558   21.4508  -22.5726 O   0  0  0  0  0  0  0  0  0  0  0  0
   -7.3255   21.8542  -22.1493 C   0  0  0  0  0  0  0  0  0  0  0  0
   -0.0653   21.3411  -21.4809 C   0  0  0  0  0  0  0  0  0  0  0  0
   -0.0985   19.8338  -21.3065 C   0  0  0  0  0  0  0  0  0  0  0  0
   -0.2281   19.5281  -19.9494 O   0  0  0  0  0  0  0  0  0  0  0  0
   -1.0593   19.9945  -19.6195 H   0  0  0  0  0  0  0  0  0  0  0  0
 24 25  1  0  0  0
 25 18  1  0  0  0
 18 19  2  0  0  0
 19 20  1  0  0  0
 20 26  1  0  0  0
 26 27  1  0  0  0
 20 21  2  0  0  0
 21 22  1  0  0  0
 22 23  2  0  0  0
 22 17  1  0  0  0
 17 28  1  0  0  0
 28 29  1  0  0  0
 29 30  1  0  0  0
 17  1  1  0  0  0
  1  2  2  0  0  0
  2  3  1  0  0  0
  3  4  2  0  0  0
  4  5  1  0  0  0
  5  6  2  0  0  0
  6  7  1  0  0  0
  7  8  2  0  0  0
  8  9  1  0  0  0
  9 10  2  0  0  0
  7 11  1  0  0  0
 11 12  1  0  0  0
 12 13  2  0  0  0
 13 14  1  0  0  0
 14 15  1  0  0  0
 14 16  1  0  0  0
 23 18  1  0  0  0
 10  1  1  0  0  0
 16 11  2  0  0  0
  9  4  1  0  0  0
 30 31  1  0  0  0
M  END
> <minimizedAffinity>
-7.51832

> <CNNscore>
0.7465655208

> <CNNaffinity>
7.2192802429

> <CNN_VS>
5.3896656036

> <CNNaffinity_variance>
0.1880637705

$$$$
[H]OC([H])([H])C([H])([H])N(c1nc2c([H])c(-c3c([H])nn(C([H])([H])[H])c3[H])c([H])nc2c([H])c1[H])c1c([H])c(OC([H])([H])[H])c([H])c(OC([H])([H])[H])c1[H]


 31 34  0  0  0  0  0  0  0  0999 V2000
   -0.5167   21.5360  -23.0917 C   0  0  0  0  0  0  0  0  0  0  0  0
    0.6880   21.4952  -23.7571 C   0  0  0  0  0  0  0  0  0  0  0  0
    0.8198   21.8092  -25.0890 C   0  0  0  0  0  0  0  0  0  0  0  0
   -0.3134   22.1821  -25.7843 C   0  0  0  0  0  0  0  0  0  0  0  0
   -0.2782   22.5042  -27.0910 N   0  0  0  0  0  0  0  0  0  0  0  0
   -1.3913   22.8653  -27.7624 C   0  0  0  0  0  0  0  0  0  0  0  0
   -2.6236   22.9237  -27.1469 C   0  0  0  0  0  0  0  0  0  0  0  0
   -2.6519   22.5935  -25.8129 C   0  0  0  0  0  0  0  0  0  0  0  0
   -1.5118   22.2212  -25.1157 C   0  0  0  0  0  0  0  0  0  0  0  0
   -1.6039   21.9015  -23.7891 N   0  0  0  0  0  0  0  0  0  0  0  0
   -3.8398   23.3102  -27.8530 C   0  0  0  0  0  0  0  0  0  0  0  0
   -5.1345   23.3582  -27.3234 C   0  0  0  0  0  0  0  0  0  0  0  0
   -5.9472   23.7635  -28.3136 N   0  0  0  0  0  0  0  0  0  0  0  0
   -5.2889   23.9808  -29.4341 N   0  0  0  0  0  0  0  0  0  0  0  0
   -5.8564   24.4312  -30.7131 C   0  0  0  0  0  0  0  0  0  0  0  0
   -4.0011   23.7075  -29.1657 C   0  0  0  0  0  0  0  0  0  0  0  0
   -0.5939   21.1900  -21.7030 N   0  0  0  0  0  0  0  0  0  0  0  0
    2.6317   20.2417  -20.1792 C   0  0  0  0  0  0  0  0  0  0  0  0
    2.5147   18.8715  -20.0424 C   0  0  0  0  0  0  0  0  0  0  0  0
    1.3556   18.2519  -20.4593 C   0  0  0  0  0  0  0  0  0  0  0  0
    0.3427   19.0099  -21.0014 C   0  0  0  0  0  0  0  0  0  0  0  0
    0.4263   20.3727  -21.1520 C   0  0  0  0  0  0  0  0  0  0  0  0
    1.6065   20.9860  -20.7249 C   0  0  0  0  0  0  0  0  0  0  0  0
    3.7288   22.1721  -19.1866 C   0  0  0  0  0  0  0  0  0  0  0  0
    3.8093   20.8837  -19.7567 O   0  0  0  0  0  0  0  0  0  0  0  0
    1.2465   16.8763  -20.3190 O   0  0  0  0  0  0  0  0  0  0  0  0
    0.0716   16.2277  -19.9279 C   0  0  0  0  0  0  0  0  0  0  0  0
   -1.6830   21.6469  -20.8647 C   0  0  0  0  0  0  0  0  0  0  0  0
   -1.3480   23.0453  -20.3791 C   0  0  0  0  0  0  0  0  0  0  0  0
   -1.7968   23.9799  -21.3157 O   0  0  0  0  0  0  0  0  0  0  0  0
   -2.7842   23.8191  -21.4439 H   0  0  0  0  0  0  0  0  0  0  0  0
 24 25  1  0  0  0
 25 18  1  0  0  0
 18 19  2  0  0  0
 19 20  1  0  0  0
 20 26  1  0  0  0
 26 27  1  0  0  0
 20 21  2  0  0  0
 21 22  1  0  0  0
 22 23  2  0  0  0
 22 17  1  0  0  0
 17 28  1  0  0  0
 28 29  1  0  0  0
 29 30  1  0  0  0
 17  1  1  0  0  0
  1  2  2  0  0  0
  2  3  1  0  0  0
  3  4  2  0  0  0
  4  5  1  0  0  0
  5  6  2  0  0  0
  6  7  1  0  0  0
  7  8  2  0  0  0
  8  9  1  0  0  0
  9 10  2  0  0  0
  7 11  1  0  0  0
 11 12  1  0  0  0
 12 13  2  0  0  0
 13 14  1  0  0  0
 14 15  1  0  0  0
 14 16  1  0  0  0
 23 18  1  0  0  0
 10  1  1  0  0  0
 16 11  2  0  0  0
  9  4  1  0  0  0
 30 31  1  0  0  0
M  END
> <minimizedAffinity>
-7.61672

> <CNNscore>
0.7330414057

> <CNNaffinity>
6.8874945641

> <CNN_VS>
5.0488185883

> <CNNaffinity_variance>
0.1576663405

$$$$
[H]OC([H])([H])C([H])([H])N(c1nc2c([H])c(-c3c([H])nn(C([H])([H])[H])c3[H])c([H])nc2c([H])c1[H])c1c([H])c(OC([H])([H])[H])c([H])c(OC([H])([H])[H])c1[H]


 31 34  0  0  0  0  0  0  0  0999 V2000
   -0.5807   21.5480  -23.0321 C   0  0  0  0  0  0  0  0  0  0  0  0
    0.6299   21.5049  -23.6866 C   0  0  0  0  0  0  0  0  0  0  0  0
    0.7727   21.8104  -25.0194 C   0  0  0  0  0  0  0  0  0  0  0  0
   -0.3550   22.1766  -25.7270 C   0  0  0  0  0  0  0  0  0  0  0  0
   -0.3090   22.4902  -27.0354 N   0  0  0  0  0  0  0  0  0  0  0  0
   -1.4168   22.8448  -27.7190 C   0  0  0  0  0  0  0  0  0  0  0  0
   -2.6545   22.9050  -27.1146 C   0  0  0  0  0  0  0  0  0  0  0  0
   -2.6939   22.5835  -25.7787 C   0  0  0  0  0  0  0  0  0  0  0  0
   -1.5592   22.2180  -25.0692 C   0  0  0  0  0  0  0  0  0  0  0  0
   -1.6624   21.9069  -23.7414 N   0  0  0  0  0  0  0  0  0  0  0  0
   -3.8651   23.2846  -27.8339 C   0  0  0  0  0  0  0  0  0  0  0  0
   -5.1666   23.3188  -27.3202 C   0  0  0  0  0  0  0  0  0  0  0  0
   -5.9705   23.7221  -28.3183 N   0  0  0  0  0  0  0  0  0  0  0  0
   -5.3003   23.9506  -29.4295 N   0  0  0  0  0  0  0  0  0  0  0  0
   -5.8558   24.4026  -30.7133 C   0  0  0  0  0  0  0  0  0  0  0  0
   -4.0136   23.6871  -29.1465 C   0  0  0  0  0  0  0  0  0  0  0  0
   -0.6694   21.2110  -21.6419 N   0  0  0  0  0  0  0  0  0  0  0  0
    1.2239   18.2262  -20.5775 C   0  0  0  0  0  0  0  0  0  0  0  0
    2.3422   18.7714  -19.9758 C   0  0  0  0  0  0  0  0  0  0  0  0
    2.4729   20.1429  -19.9201 C   0  0  0  0  0  0  0  0  0  0  0  0
    1.4891   20.9372  -20.4637 C   0  0  0  0  0  0  0  0  0  0  0  0
    0.3655   20.4284  -21.0683 C   0  0  0  0  0  0  0  0  0  0  0  0
    0.2473   19.0373  -21.1171 C   0  0  0  0  0  0  0  0  0  0  0  0
    2.2336   16.0151  -20.6586 C   0  0  0  0  0  0  0  0  0  0  0  0
    1.0807   16.8287  -20.6403 O   0  0  0  0  0  0  0  0  0  0  0  0
    3.5981   20.6819  -19.3139 O   0  0  0  0  0  0  0  0  0  0  0  0
    3.9272   22.0398  -19.3586 C   0  0  0  0  0  0  0  0  0  0  0  0
   -1.7843   21.6425  -20.8243 C   0  0  0  0  0  0  0  0  0  0  0  0
   -1.4910   23.0481  -20.3329 C   0  0  0  0  0  0  0  0  0  0  0  0
   -1.8548   23.9682  -21.3194 O   0  0  0  0  0  0  0  0  0  0  0  0
   -2.8276   23.8055  -21.5308 H   0  0  0  0  0  0  0  0  0  0  0  0
 24 25  1  0  0  0
 25 18  1  0  0  0
 18 19  2  0  0  0
 19 20  1  0  0  0
 20 26  1  0  0  0
 26 27  1  0  0  0
 20 21  2  0  0  0
 21 22  1  0  0  0
 22 23  2  0  0  0
 22 17  1  0  0  0
 17 28  1  0  0  0
 28 29  1  0  0  0
 29 30  1  0  0  0
 17  1  1  0  0  0
  1  2  2  0  0  0
  2  3  1  0  0  0
  3  4  2  0  0  0
  4  5  1  0  0  0
  5  6  2  0  0  0
  6  7  1  0  0  0
  7  8  2  0  0  0
  8  9  1  0  0  0
  9 10  2  0  0  0
  7 11  1  0  0  0
 11 12  1  0  0  0
 12 13  2  0  0  0
 13 14  1  0  0  0
 14 15  1  0  0  0
 14 16  1  0  0  0
 23 18  1  0  0  0
 10  1  1  0  0  0
 16 11  2  0  0  0
  9  4  1  0  0  0
 30 31  1  0  0  0
M  END
> <minimizedAffinity>
-7.58379

> <CNNscore>
0.6766235828

> <CNNaffinity>
6.8130731583

> <CNN_VS>
4.6098861694

> <CNNaffinity_variance>
0.1943414509

$$$$
[H]OC([H])([H])C([H])([H])N(c1nc2c([H])c(-c3c([H])nn(C([H])([H])[H])c3[H])c([H])nc2c([H])c1[H])c1c([H])c(OC([H])([H])[H])c([H])c(OC([H])([H])[H])c1[H]


 31 34  0  0  0  0  0  0  0  0999 V2000
   -1.2839   22.3314  -23.6454 C   0  0  0  0  0  0  0  0  0  0  0  0
   -0.0770   21.9786  -24.2065 C   0  0  0  0  0  0  0  0  0  0  0  0
    0.1748   22.0603  -25.5555 C   0  0  0  0  0  0  0  0  0  0  0  0
   -0.8346   22.5185  -26.3788 C   0  0  0  0  0  0  0  0  0  0  0  0
   -0.6772   22.6289  -27.7113 N   0  0  0  0  0  0  0  0  0  0  0  0
   -1.6702   23.0757  -28.5079 C   0  0  0  0  0  0  0  0  0  0  0  0
   -2.8984   23.4429  -28.0004 C   0  0  0  0  0  0  0  0  0  0  0  0
   -3.0518   23.3276  -26.6393 C   0  0  0  0  0  0  0  0  0  0  0  0
   -2.0356   22.8690  -25.8137 C   0  0  0  0  0  0  0  0  0  0  0  0
   -2.2494   22.7741  -24.4662 N   0  0  0  0  0  0  0  0  0  0  0  0
   -3.9861   23.9275  -28.8425 C   0  0  0  0  0  0  0  0  0  0  0  0
   -5.2357   23.3234  -29.0238 C   0  0  0  0  0  0  0  0  0  0  0  0
   -5.9255   24.1001  -29.8759 N   0  0  0  0  0  0  0  0  0  0  0  0
   -5.2295   25.1513  -30.2586 N   0  0  0  0  0  0  0  0  0  0  0  0
   -5.6696   26.2079  -31.1812 C   0  0  0  0  0  0  0  0  0  0  0  0
   -4.0435   25.0573  -29.6344 C   0  0  0  0  0  0  0  0  0  0  0  0
   -1.4909   22.2176  -22.2317 N   0  0  0  0  0  0  0  0  0  0  0  0
   -4.6714   24.0309  -21.7596 C   0  0  0  0  0  0  0  0  0  0  0  0
   -5.2900   23.3082  -20.7572 C   0  0  0  0  0  0  0  0  0  0  0  0
   -4.6485   22.2076  -20.2294 C   0  0  0  0  0  0  0  0  0  0  0  0
   -3.4088   21.8537  -20.7113 C   0  0  0  0  0  0  0  0  0  0  0  0
   -2.7659   22.5497  -21.7060 C   0  0  0  0  0  0  0  0  0  0  0  0
   -3.4284   23.6620  -22.2307 C   0  0  0  0  0  0  0  0  0  0  0  0
   -5.3993   25.2925  -23.7073 C   0  0  0  0  0  0  0  0  0  0  0  0
   -5.3170   25.1546  -22.3053 O   0  0  0  0  0  0  0  0  0  0  0  0
   -5.2761   21.4882  -19.2232 O   0  0  0  0  0  0  0  0  0  0  0  0
   -5.0396   20.1327  -18.9763 C   0  0  0  0  0  0  0  0  0  0  0  0
   -0.4349   21.7826  -21.3410 C   0  0  0  0  0  0  0  0  0  0  0  0
   -0.2949   20.2775  -21.4773 C   0  0  0  0  0  0  0  0  0  0  0  0
   -0.7441   19.6633  -20.3055 O   0  0  0  0  0  0  0  0  0  0  0  0
   -1.6924   19.9720  -20.1549 H   0  0  0  0  0  0  0  0  0  0  0  0
 24 25  1  0  0  0
 25 18  1  0  0  0
 18 19  2  0  0  0
 19 20  1  0  0  0
 20 26  1  0  0  0
 26 27  1  0  0  0
 20 21  2  0  0  0
 21 22  1  0  0  0
 22 23  2  0  0  0
 22 17  1  0  0  0
 17 28  1  0  0  0
 28 29  1  0  0  0
 29 30  1  0  0  0
 17  1  1  0  0  0
  1  2  2  0  0  0
  2  3  1  0  0  0
  3  4  2  0  0  0
  4  5  1  0  0  0
  5  6  2  0  0  0
  6  7  1  0  0  0
  7  8  2  0  0  0
  8  9  1  0  0  0
  9 10  2  0  0  0
  7 11  1  0  0  0
 11 12  1  0  0  0
 12 13  2  0  0  0
 13 14  1  0  0  0
 14 15  1  0  0  0
 14 16  1  0  0  0
 23 18  1  0  0  0
 10  1  1  0  0  0
 16 11  2  0  0  0
  9  4  1  0  0  0
 30 31  1  0  0  0
M  END
> <minimizedAffinity>
-7.79935

> <CNNscore>
0.5547001362

> <CNNaffinity>
6.9884443283

> <CNN_VS>
3.8764910698

> <CNNaffinity_variance>
0.1587953866

$$$$
[H]OC([H])([H])C([H])([H])N(c1nc2c([H])c(-c3c([H])nn(C([H])([H])[H])c3[H])c([H])nc2c([H])c1[H])c1c([H])c(OC([H])([H])[H])c([H])c(OC([H])([H])[H])c1[H]


 31 34  0  0  0  0  0  0  0  0999 V2000
   -3.9996   23.3198  -26.7703 C   0  0  0  0  0  0  0  0  0  0  0  0
   -3.3723   23.3135  -27.9960 C   0  0  0  0  0  0  0  0  0  0  0  0
   -2.0558   22.9543  -28.1624 C   0  0  0  0  0  0  0  0  0  0  0  0
   -1.3364   22.5838  -27.0435 C   0  0  0  0  0  0  0  0  0  0  0  0
   -0.0423   22.2194  -27.1124 N   0  0  0  0  0  0  0  0  0  0  0  0
    0.6529   21.8610  -26.0131 C   0  0  0  0  0  0  0  0  0  0  0  0
    0.0757   21.8488  -24.7612 C   0  0  0  0  0  0  0  0  0  0  0  0
   -1.2457   22.2220  -24.6984 C   0  0  0  0  0  0  0  0  0  0  0  0
   -1.9672   22.5918  -25.8242 C   0  0  0  0  0  0  0  0  0  0  0  0
   -3.2795   22.9557  -25.6976 N   0  0  0  0  0  0  0  0  0  0  0  0
    0.8081   21.4662  -23.5594 C   0  0  0  0  0  0  0  0  0  0  0  0
    0.2765   21.2923  -22.2763 C   0  0  0  0  0  0  0  0  0  0  0  0
    1.2963   20.9422  -21.4747 N   0  0  0  0  0  0  0  0  0  0  0  0
    2.4377   20.8752  -22.1295 N   0  0  0  0  0  0  0  0  0  0  0  0
    3.7513   20.5229  -21.5715 C   0  0  0  0  0  0  0  0  0  0  0  0
    2.1527   21.1930  -23.4035 C   0  0  0  0  0  0  0  0  0  0  0  0
   -5.3736   23.7117  -26.6573 N   0  0  0  0  0  0  0  0  0  0  0  0
   -6.9869   25.0218  -23.6066 C   0  0  0  0  0  0  0  0  0  0  0  0
   -7.1654   23.8845  -22.8420 C   0  0  0  0  0  0  0  0  0  0  0  0
   -6.7470   22.6686  -23.3398 C   0  0  0  0  0  0  0  0  0  0  0  0
   -6.1622   22.6143  -24.5845 C   0  0  0  0  0  0  0  0  0  0  0  0
   -5.9695   23.7246  -25.3700 C   0  0  0  0  0  0  0  0  0  0  0  0
   -6.3985   24.9490  -24.8521 C   0  0  0  0  0  0  0  0  0  0  0  0
   -8.0474   26.3289  -21.8509 C   0  0  0  0  0  0  0  0  0  0  0  0
   -7.4104   26.2669  -23.1086 O   0  0  0  0  0  0  0  0  0  0  0  0
   -6.9294   21.5321  -22.5658 O   0  0  0  0  0  0  0  0  0  0  0  0
   -7.2806   21.5637  -21.2132 C   0  0  0  0  0  0  0  0  0  0  0  0
   -6.1566   24.0827  -27.8178 C   0  0  0  0  0  0  0  0  0  0  0  0
   -5.8484   25.5314  -28.1495 C   0  0  0  0  0  0  0  0  0  0  0  0
   -6.5825   25.9143  -29.2749 O   0  0  0  0  0  0  0  0  0  0  0  0
   -7.5543   25.7421  -29.0665 H   0  0  0  0  0  0  0  0  0  0  0  0
 24 25  1  0  0  0
 25 18  1  0  0  0
 18 19  2  0  0  0
 19 20  1  0  0  0
 20 26  1  0  0  0
 26 27  1  0  0  0
 20 21  2  0  0  0
 21 22  1  0  0  0
 22 23  2  0  0  0
 22 17  1  0  0  0
 17 28  1  0  0  0
 28 29  1  0  0  0
 29 30  1  0  0  0
 17  1  1  0  0  0
  1  2  2  0  0  0
  2  3  1  0  0  0
  3  4  2  0  0  0
  4  5  1  0  0  0
  5  6  2  0  0  0
  6  7  1  0  0  0
  7  8  2  0  0  0
  8  9  1  0  0  0
  9 10  2  0  0  0
  7 11  1  0  0  0
 11 12  1  0  0  0
 12 13  2  0  0  0
 13 14  1  0  0  0
 14 15  1  0  0  0
 14 16  1  0  0  0
 23 18  1  0  0  0
 10  1  1  0  0  0
 16 11  2  0  0  0
  9  4  1  0  0  0
 30 31  1  0  0  0
M  END
> <minimizedAffinity>
-8.31867

> <CNNscore>
0.5545088053

> <CNNaffinity>
7.0599546432

> <CNN_VS>
3.9148070812

> <CNNaffinity_variance>
0.1874839365

$$$$
[H]OC([H])([H])C([H])([H])N(c1nc2c([H])c(-c3c([H])nn(C([H])([H])[H])c3[H])c([H])nc2c([H])c1[H])c1c([H])c(OC([H])([H])[H])c([H])c(OC([H])([H])[H])c1[H]


 31 34  0  0  0  0  0  0  0  0999 V2000
    0.8029   20.9060  -22.0490 C   0  0  0  0  0  0  0  0  0  0  0  0
    1.9260   21.0535  -22.8317 C   0  0  0  0  0  0  0  0  0  0  0  0
    1.8807   21.4996  -24.1313 C   0  0  0  0  0  0  0  0  0  0  0  0
    0.6479   21.8121  -24.6689 C   0  0  0  0  0  0  0  0  0  0  0  0
    0.5090   22.2537  -25.9330 N   0  0  0  0  0  0  0  0  0  0  0  0
   -0.7002   22.5546  -26.4502 C   0  0  0  0  0  0  0  0  0  0  0  0
   -1.8577   22.4260  -25.7123 C   0  0  0  0  0  0  0  0  0  0  0  0
   -1.7083   21.9747  -24.4226 C   0  0  0  0  0  0  0  0  0  0  0  0
   -0.4684   21.6633  -23.8838 C   0  0  0  0  0  0  0  0  0  0  0  0
   -0.3840   21.2163  -22.5940 N   0  0  0  0  0  0  0  0  0  0  0  0
   -3.1751   22.7443  -26.2510 C   0  0  0  0  0  0  0  0  0  0  0  0
   -4.3672   22.8649  -25.5274 C   0  0  0  0  0  0  0  0  0  0  0  0
   -5.3327   23.1658  -26.4120 N   0  0  0  0  0  0  0  0  0  0  0  0
   -4.8664   23.2496  -27.6414 N   0  0  0  0  0  0  0  0  0  0  0  0
   -5.6371   23.5606  -28.8540 C   0  0  0  0  0  0  0  0  0  0  0  0
   -3.5501   22.9943  -27.5562 C   0  0  0  0  0  0  0  0  0  0  0  0
    0.9114   20.4288  -20.7019 N   0  0  0  0  0  0  0  0  0  0  0  0
   -0.4119   17.2083  -19.4758 C   0  0  0  0  0  0  0  0  0  0  0  0
    0.5157   16.2976  -19.9447 C   0  0  0  0  0  0  0  0  0  0  0  0
    1.5931   16.7526  -20.6751 C   0  0  0  0  0  0  0  0  0  0  0  0
    1.7208   18.1008  -20.9207 C   0  0  0  0  0  0  0  0  0  0  0  0
    0.8179   19.0325  -20.4694 C   0  0  0  0  0  0  0  0  0  0  0  0
   -0.2682   18.5563  -19.7310 C   0  0  0  0  0  0  0  0  0  0  0  0
   -2.2330   15.6246  -19.1748 C   0  0  0  0  0  0  0  0  0  0  0  0
   -1.5147   16.7550  -18.7303 O   0  0  0  0  0  0  0  0  0  0  0  0
    2.5198   15.8320  -21.1416 O   0  0  0  0  0  0  0  0  0  0  0  0
    3.2676   16.0086  -22.3094 C   0  0  0  0  0  0  0  0  0  0  0  0
    1.1050   21.3337  -19.5878 C   0  0  0  0  0  0  0  0  0  0  0  0
    2.5567   21.2424  -19.1545 C   0  0  0  0  0  0  0  0  0  0  0  0
    3.3023   22.2133  -19.8278 O   0  0  0  0  0  0  0  0  0  0  0  0
    2.8737   23.1047  -19.6301 H   0  0  0  0  0  0  0  0  0  0  0  0
 24 25  1  0  0  0
 25 18  1  0  0  0
 18 19  2  0  0  0
 19 20  1  0  0  0
 20 26  1  0  0  0
 26 27  1  0  0  0
 20 21  2  0  0  0
 21 22  1  0  0  0
 22 23  2  0  0  0
 22 17  1  0  0  0
 17 28  1  0  0  0
 28 29  1  0  0  0
 29 30  1  0  0  0
 17  1  1  0  0  0
  1  2  2  0  0  0
  2  3  1  0  0  0
  3  4  2  0  0  0
  4  5  1  0  0  0
  5  6  2  0  0  0
  6  7  1  0  0  0
  7  8  2  0  0  0
  8  9  1  0  0  0
  9 10  2  0  0  0
  7 11  1  0  0  0
 11 12  1  0  0  0
 12 13  2  0  0  0
 13 14  1  0  0  0
 14 15  1  0  0  0
 14 16  1  0  0  0
 23 18  1  0  0  0
 10  1  1  0  0  0
 16 11  2  0  0  0
  9  4  1  0  0  0
 30 31  1  0  0  0
M  END
> <minimizedAffinity>
-6.52732

> <CNNscore>
0.5121060610

> <CNNaffinity>
6.4033675194

> <CNN_VS>
3.2792034149

> <CNNaffinity_variance>
0.2207325399

$$$$
[H]OC([H])([H])C([H])([H])N(c1nc2c([H])c(-c3c([H])nn(C([H])([H])[H])c3[H])c([H])nc2c([H])c1[H])c1c([H])c(OC([H])([H])[H])c([H])c(OC([H])([H])[H])c1[H]


 31 34  0  0  0  0  0  0  0  0999 V2000
    0.4961   20.6928  -22.1087 C   0  0  0  0  0  0  0  0  0  0  0  0
    1.6568   20.9338  -22.8089 C   0  0  0  0  0  0  0  0  0  0  0  0
    1.6730   21.5045  -24.0595 C   0  0  0  0  0  0  0  0  0  0  0  0
    0.4651   21.8491  -24.6326 C   0  0  0  0  0  0  0  0  0  0  0  0
    0.3860   22.4104  -25.8537 N   0  0  0  0  0  0  0  0  0  0  0  0
   -0.7993   22.7418  -26.4064 C   0  0  0  0  0  0  0  0  0  0  0  0
   -1.9923   22.5236  -25.7508 C   0  0  0  0  0  0  0  0  0  0  0  0
   -1.9039   21.9502  -24.5046 C   0  0  0  0  0  0  0  0  0  0  0  0
   -0.6890   21.6067  -23.9297 C   0  0  0  0  0  0  0  0  0  0  0  0
   -0.6656   21.0367  -22.6867 N   0  0  0  0  0  0  0  0  0  0  0  0
   -3.2848   22.8727  -26.3292 C   0  0  0  0  0  0  0  0  0  0  0  0
   -3.5706   23.0574  -27.6869 C   0  0  0  0  0  0  0  0  0  0  0  0
   -4.8752   23.3664  -27.7733 N   0  0  0  0  0  0  0  0  0  0  0  0
   -5.4543   23.3965  -26.5902 N   0  0  0  0  0  0  0  0  0  0  0  0
   -6.8658   23.6974  -26.3103 C   0  0  0  0  0  0  0  0  0  0  0  0
   -4.4935   23.0967  -25.7001 C   0  0  0  0  0  0  0  0  0  0  0  0
    0.5410   20.0875  -20.8102 N   0  0  0  0  0  0  0  0  0  0  0  0
    0.1172   21.6654  -17.5001 C   0  0  0  0  0  0  0  0  0  0  0  0
    1.2203   22.4933  -17.4120 C   0  0  0  0  0  0  0  0  0  0  0  0
    2.1160   22.5318  -18.4597 C   0  0  0  0  0  0  0  0  0  0  0  0
    1.8924   21.7466  -19.5678 C   0  0  0  0  0  0  0  0  0  0  0  0
    0.8069   20.9133  -19.6879 C   0  0  0  0  0  0  0  0  0  0  0  0
   -0.0914   20.8852  -18.6185 C   0  0  0  0  0  0  0  0  0  0  0  0
   -2.1843   21.5758  -16.7190 C   0  0  0  0  0  0  0  0  0  0  0  0
   -0.8022   21.6181  -16.4372 O   0  0  0  0  0  0  0  0  0  0  0  0
    3.2201   23.3657  -18.3635 O   0  0  0  0  0  0  0  0  0  0  0  0
    3.4071   24.2882  -17.3299 C   0  0  0  0  0  0  0  0  0  0  0  0
    0.3301   18.6666  -20.6258 C   0  0  0  0  0  0  0  0  0  0  0  0
    1.6693   18.0304  -20.3015 C   0  0  0  0  0  0  0  0  0  0  0  0
    1.5840   17.3751  -19.0705 O   0  0  0  0  0  0  0  0  0  0  0  0
    0.8253   16.7140  -19.1397 H   0  0  0  0  0  0  0  0  0  0  0  0
 24 25  1  0  0  0
 25 18  1  0  0  0
 18 19  2  0  0  0
 19 20  1  0  0  0
 20 26  1  0  0  0
 26 27  1  0  0  0
 20 21  2  0  0  0
 21 22  1  0  0  0
 22 23  2  0  0  0
 22 17  1  0  0  0
 17 28  1  0  0  0
 28 29  1  0  0  0
 29 30  1  0  0  0
 17  1  1  0  0  0
  1  2  2  0  0  0
  2  3  1  0  0  0
  3  4  2  0  0  0
  4  5  1  0  0  0
  5  6  2  0  0  0
  6  7  1  0  0  0
  7  8  2  0  0  0
  8  9  1  0  0  0
  9 10  2  0  0  0
  7 11  1  0  0  0
 11 12  1  0  0  0
 12 13  2  0  0  0
 13 14  1  0  0  0
 14 15  1  0  0  0
 14 16  1  0  0  0
 23 18  1  0  0  0
 10  1  1  0  0  0
 16 11  2  0  0  0
  9  4  1  0  0  0
 30 31  1  0  0  0
M  END
> <minimizedAffinity>
-6.55912

> <CNNscore>
0.4797734022

> <CNNaffinity>
6.3670320511

> <CNN_VS>
3.0547325611

> <CNNaffinity_variance>
0.1846813709

$$$$
[H]C([H])=C([H])C(=O)N1C([H])([H])C([H])([H])N(C([H])([H])C([H])([H])C([H])([H])n2c(=O)c(-c3c(Cl)c(OC([H])([H])[H])c([H])c(OC([H])([H])[H])c3Cl)c([H])c3c([H])nc(N([H])C([H])([H])[H])nc32)C([H])([H])C1([H])[H]


 39 42  0  0  0  0  0  0  0  0999 V2000
   -5.3341   24.3543  -29.5743 C   0  0  0  0  0  0  0  0  0  0  0  0
   -4.7229   23.1945  -29.8646 N   0  0  0  0  0  0  0  0  0  0  0  0
   -3.9266   22.5243  -29.0248 C   0  0  0  0  0  0  0  0  0  0  0  0
   -3.7451   23.1046  -27.7697 C   0  0  0  0  0  0  0  0  0  0  0  0
   -2.9479   22.4903  -26.8392 C   0  0  0  0  0  0  0  0  0  0  0  0
   -2.8161   23.1334  -25.6027 C   0  0  0  0  0  0  0  0  0  0  0  0
   -3.4632   24.3190  -25.3560 C   0  0  0  0  0  0  0  0  0  0  0  0
   -3.3405   24.9014  -24.2275 O   0  0  0  0  0  0  0  0  0  0  0  0
   -4.2498   24.9263  -26.2703 N   0  0  0  0  0  0  0  0  0  0  0  0
   -4.3757   24.2966  -27.4772 C   0  0  0  0  0  0  0  0  0  0  0  0
   -5.1709   24.9290  -28.3704 N   0  0  0  0  0  0  0  0  0  0  0  0
   -1.9624   22.4929  -24.6241 C   0  0  0  0  0  0  0  0  0  0  0  0
   -0.6125   22.3524  -24.8417 C   0  0  0  0  0  0  0  0  0  0  0  0
    0.1469   22.8884  -26.3142 Cl  0  0  0  0  0  0  0  0  0  0  0  0
    0.1698   21.7589  -23.8474 C   0  0  0  0  0  0  0  0  0  0  0  0
   -0.4403   21.3398  -22.6920 C   0  0  0  0  0  0  0  0  0  0  0  0
   -1.7771   21.4751  -22.4698 C   0  0  0  0  0  0  0  0  0  0  0  0
   -2.5483   22.0648  -23.4613 C   0  0  0  0  0  0  0  0  0  0  0  0
   -4.2573   22.2428  -23.1849 Cl  0  0  0  0  0  0  0  0  0  0  0  0
    1.5415   21.6038  -24.0432 O   0  0  0  0  0  0  0  0  0  0  0  0
    2.3197   21.0733  -22.9945 C   0  0  0  0  0  0  0  0  0  0  0  0
   -2.3952   21.0489  -21.2956 O   0  0  0  0  0  0  0  0  0  0  0  0
   -1.6306   21.1235  -20.1012 C   0  0  0  0  0  0  0  0  0  0  0  0
   -5.5858   26.0066  -31.4084 C   0  0  0  0  0  0  0  0  0  0  0  0
   -6.1700   24.9755  -30.5813 N   0  0  0  0  0  0  0  0  0  0  0  0
   -7.1620   24.6855  -30.7060 H   0  0  0  0  0  0  0  0  0  0  0  0
   -4.9504   26.1556  -25.9937 C   0  0  0  0  0  0  0  0  0  0  0  0
   -6.3511   25.8510  -25.4761 C   0  0  0  0  0  0  0  0  0  0  0  0
   -6.4962   26.4305  -24.0638 C   0  0  0  0  0  0  0  0  0  0  0  0
   -7.4273   25.6196  -23.3042 N   0  0  0  0  0  0  0  0  0  0  0  0
   -7.5323   26.0313  -21.9446 C   0  0  0  0  0  0  0  0  0  0  0  0
   -6.7702   25.2048  -20.9343 C   0  0  0  0  0  0  0  0  0  0  0  0
   -6.8963   23.8170  -21.1198 N   0  0  0  0  0  0  0  0  0  0  0  0
   -7.6095   23.4132  -22.3598 C   0  0  0  0  0  0  0  0  0  0  0  0
   -7.0015   24.2440  -23.4583 C   0  0  0  0  0  0  0  0  0  0  0  0
   -6.4396   22.8149  -20.2780 C   0  0  0  0  0  0  0  0  0  0  0  0
   -6.6799   21.5812  -20.6768 O   0  0  0  0  0  0  0  0  0  0  0  0
   -5.7356   22.8909  -19.0200 C   0  0  0  0  0  0  0  0  0  0  0  0
   -6.1850   23.2566  -17.8570 C   0  0  0  0  0  0  0  0  0  0  0  0
 24 25  1  0  0  0
 25  1  1  0  0  0
  1  2  2  0  0  0
  2  3  1  0  0  0
  3  4  2  0  0  0
  4  5  1  0  0  0
  5  6  2  0  0  0
  6 12  1  0  0  0
 12 13  2  0  0  0
 13 14  1  0  0  0
 13 15  1  0  0  0
 15 20  1  0  0  0
 20 21  1  0  0  0
 15 16  2  0  0  0
 16 17  1  0  0  0
 17 22  1  0  0  0
 22 23  1  0  0  0
 17 18  2  0  0  0
 18 19  1  0  0  0
  6  7  1  0  0  0
  7  8  2  0  0  0
  7  9  1  0  0  0
  9 27  1  0  0  0
 27 28  1  0  0  0
 28 29  1  0  0  0
 29 30  1  0  0  0
 30 31  1  0  0  0
 31 32  1  0  0  0
 32 33  1  0  0  0
 33 34  1  0  0  0
 34 35  1  0  0  0
 33 36  1  0  0  0
 36 37  2  0  0  0
 36 38  1  0  0  0
 38 39  2  0  0  0
  9 10  1  0  0  0
 10 11  2  0  0  0
 11  1  1  0  0  0
 10  4  1  0  0  0
 18 12  1  0  0  0
 35 30  1  0  0  0
 25 26  1  0  0  0
M  END
> <minimizedAffinity>
-7.94746

> <CNNscore>
0.3103228509

> <CNNaffinity>
7.4532957077

> <CNN_VS>
2.3129279613

> <CNNaffinity_variance>
0.2452089041

$$$$
[H]C([H])=C([H])C(=O)N1C([H])([H])C([H])([H])N(C([H])([H])C([H])([H])C([H])([H])n2c(=O)c(-c3c(Cl)c(OC([H])([H])[H])c([H])c(OC([H])([H])[H])c3Cl)c([H])c3c([H])nc(N([H])C([H])([H])[H])nc32)C([H])([H])C1([H])[H]


 39 42  0  0  0  0  0  0  0  0999 V2000
   -1.5700   22.4412  -25.5992 C   0  0  0  0  0  0  0  0  0  0  0  0
   -0.2483   22.2044  -25.5843 N   0  0  0  0  0  0  0  0  0  0  0  0
    0.4427   21.8210  -24.5055 C   0  0  0  0  0  0  0  0  0  0  0  0
   -0.2990   21.6676  -23.3344 C   0  0  0  0  0  0  0  0  0  0  0  0
    0.3210   21.2748  -22.1768 C   0  0  0  0  0  0  0  0  0  0  0  0
   -0.4906   21.1417  -21.0439 C   0  0  0  0  0  0  0  0  0  0  0  0
   -1.8382   21.3957  -21.1125 C   0  0  0  0  0  0  0  0  0  0  0  0
   -2.5741   21.2728  -20.0776 O   0  0  0  0  0  0  0  0  0  0  0  0
   -2.4520   21.7821  -22.2515 N   0  0  0  0  0  0  0  0  0  0  0  0
   -1.6568   21.9124  -23.3559 C   0  0  0  0  0  0  0  0  0  0  0  0
   -2.3014   22.2991  -24.4806 N   0  0  0  0  0  0  0  0  0  0  0  0
    0.1657   20.7412  -19.8169 C   0  0  0  0  0  0  0  0  0  0  0  0
    0.5156   19.4309  -19.5927 C   0  0  0  0  0  0  0  0  0  0  0  0
    0.1552   18.1693  -20.7377 Cl  0  0  0  0  0  0  0  0  0  0  0  0
    1.1795   19.1067  -18.4067 C   0  0  0  0  0  0  0  0  0  0  0  0
    1.4570   20.1093  -17.5120 C   0  0  0  0  0  0  0  0  0  0  0  0
    1.1129   21.4093  -17.7270 C   0  0  0  0  0  0  0  0  0  0  0  0
    0.4534   21.7246  -18.9065 C   0  0  0  0  0  0  0  0  0  0  0  0
    0.0112   23.3838  -19.1899 Cl  0  0  0  0  0  0  0  0  0  0  0  0
    1.5450   17.7850  -18.1545 O   0  0  0  0  0  0  0  0  0  0  0  0
    0.7141   16.9976  -17.3319 C   0  0  0  0  0  0  0  0  0  0  0  0
    1.3956   22.4266  -16.8172 O   0  0  0  0  0  0  0  0  0  0  0  0
    2.6772   22.4064  -16.2057 C   0  0  0  0  0  0  0  0  0  0  0  0
   -1.3694   22.9151  -28.0266 C   0  0  0  0  0  0  0  0  0  0  0  0
   -2.1926   22.8540  -26.8404 N   0  0  0  0  0  0  0  0  0  0  0  0
   -3.2041   23.0974  -26.8761 H   0  0  0  0  0  0  0  0  0  0  0  0
   -3.8726   22.0178  -22.3233 C   0  0  0  0  0  0  0  0  0  0  0  0
   -4.1598   23.5088  -22.1928 C   0  0  0  0  0  0  0  0  0  0  0  0
   -5.6711   23.7368  -22.3177 C   0  0  0  0  0  0  0  0  0  0  0  0
   -5.9249   24.7297  -23.3430 N   0  0  0  0  0  0  0  0  0  0  0  0
   -7.0318   24.3915  -24.1733 C   0  0  0  0  0  0  0  0  0  0  0  0
   -6.6992   23.8105  -25.5284 C   0  0  0  0  0  0  0  0  0  0  0  0
   -5.6681   24.4875  -26.2028 N   0  0  0  0  0  0  0  0  0  0  0  0
   -4.9815   25.5369  -25.4049 C   0  0  0  0  0  0  0  0  0  0  0  0
   -4.6863   24.8973  -24.0744 C   0  0  0  0  0  0  0  0  0  0  0  0
   -5.2453   24.2830  -27.5070 C   0  0  0  0  0  0  0  0  0  0  0  0
   -4.2503   25.0482  -27.9108 O   0  0  0  0  0  0  0  0  0  0  0  0
   -5.7147   23.3622  -28.5149 C   0  0  0  0  0  0  0  0  0  0  0  0
   -5.0921   22.9198  -29.5659 C   0  0  0  0  0  0  0  0  0  0  0  0
 24 25  1  0  0  0
 25  1  1  0  0  0
  1  2  2  0  0  0
  2  3  1  0  0  0
  3  4  2  0  0  0
  4  5  1  0  0  0
  5  6  2  0  0  0
  6 12  1  0  0  0
 12 13  2  0  0  0
 13 14  1  0  0  0
 13 15  1  0  0  0
 15 20  1  0  0  0
 20 21  1  0  0  0
 15 16  2  0  0  0
 16 17  1  0  0  0
 17 22  1  0  0  0
 22 23  1  0  0  0
 17 18  2  0  0  0
 18 19  1  0  0  0
  6  7  1  0  0  0
  7  8  2  0  0  0
  7  9  1  0  0  0
  9 27  1  0  0  0
 27 28  1  0  0  0
 28 29  1  0  0  0
 29 30  1  0  0  0
 30 31  1  0  0  0
 31 32  1  0  0  0
 32 33  1  0  0  0
 33 34  1  0  0  0
 34 35  1  0  0  0
 33 36  1  0  0  0
 36 37  2  0  0  0
 36 38  1  0  0  0
 38 39  2  0  0  0
  9 10  1  0  0  0
 10 11  2  0  0  0
 11  1  1  0  0  0
 10  4  1  0  0  0
 18 12  1  0  0  0
 35 30  1  0  0  0
 25 26  1  0  0  0
M  END
> <minimizedAffinity>
-7.24958

> <CNNscore>
0.2399564832

> <CNNaffinity>
7.4093513489

> <CNN_VS>
1.7779219151

> <CNNaffinity_variance>
0.2590122819

$$$$
[H]C([H])=C([H])C(=O)N1C([H])([H])C([H])([H])N(C([H])([H])C([H])([H])C([H])([H])n2c(=O)c(-c3c(Cl)c(OC([H])([H])[H])c([H])c(OC([H])([H])[H])c3Cl)c([H])c3c([H])nc(N([H])C([H])([H])[H])nc32)C([H])([H])C1([H])[H]


 39 42  0  0  0  0  0  0  0  0999 V2000
   -1.5303   22.4025  -25.6423 C   0  0  0  0  0  0  0  0  0  0  0  0
   -0.2046   22.1917  -25.6136 N   0  0  0  0  0  0  0  0  0  0  0  0
    0.4859   21.8429  -24.5227 C   0  0  0  0  0  0  0  0  0  0  0  0
   -0.2613   21.6979  -23.3540 C   0  0  0  0  0  0  0  0  0  0  0  0
    0.3576   21.3399  -22.1846 C   0  0  0  0  0  0  0  0  0  0  0  0
   -0.4595   21.2132  -21.0550 C   0  0  0  0  0  0  0  0  0  0  0  0
   -1.8113   21.4397  -21.1379 C   0  0  0  0  0  0  0  0  0  0  0  0
   -2.5522   21.3227  -20.1060 O   0  0  0  0  0  0  0  0  0  0  0  0
   -2.4240   21.7918  -22.2885 N   0  0  0  0  0  0  0  0  0  0  0  0
   -1.6234   21.9160  -23.3897 C   0  0  0  0  0  0  0  0  0  0  0  0
   -2.2670   22.2681  -24.5262 N   0  0  0  0  0  0  0  0  0  0  0  0
    0.1954   20.8494  -19.8159 C   0  0  0  0  0  0  0  0  0  0  0  0
    0.4324   21.7839  -18.8360 C   0  0  0  0  0  0  0  0  0  0  0  0
    0.0068   23.4606  -19.0358 Cl  0  0  0  0  0  0  0  0  0  0  0  0
    1.0351   21.3701  -17.6452 C   0  0  0  0  0  0  0  0  0  0  0  0
    1.3666   20.0465  -17.5001 C   0  0  0  0  0  0  0  0  0  0  0  0
    1.1355   19.1154  -18.4666 C   0  0  0  0  0  0  0  0  0  0  0  0
    0.5371   19.5328  -19.6470 C   0  0  0  0  0  0  0  0  0  0  0  0
    0.2369   18.3491  -20.8869 Cl  0  0  0  0  0  0  0  0  0  0  0  0
    1.2872   22.2980  -16.6355 O   0  0  0  0  0  0  0  0  0  0  0  0
    2.6073   22.7562  -16.4507 C   0  0  0  0  0  0  0  0  0  0  0  0
    1.4727   17.7713  -18.3176 O   0  0  0  0  0  0  0  0  0  0  0  0
    2.8398   17.4271  -18.4891 C   0  0  0  0  0  0  0  0  0  0  0  0
   -1.3078   22.9055  -28.0620 C   0  0  0  0  0  0  0  0  0  0  0  0
   -2.1517   22.7790  -26.8957 N   0  0  0  0  0  0  0  0  0  0  0  0
   -3.1767   22.9511  -26.9538 H   0  0  0  0  0  0  0  0  0  0  0  0
   -3.8483   21.9985  -22.3748 C   0  0  0  0  0  0  0  0  0  0  0  0
   -4.1720   23.4757  -22.1853 C   0  0  0  0  0  0  0  0  0  0  0  0
   -5.6852   23.6759  -22.3322 C   0  0  0  0  0  0  0  0  0  0  0  0
   -5.9419   24.6755  -23.3503 N   0  0  0  0  0  0  0  0  0  0  0  0
   -7.0397   24.3341  -24.1911 C   0  0  0  0  0  0  0  0  0  0  0  0
   -6.6923   23.7686  -25.5491 C   0  0  0  0  0  0  0  0  0  0  0  0
   -5.6633   24.4616  -26.2104 N   0  0  0  0  0  0  0  0  0  0  0  0
   -4.9925   25.5105  -25.3984 C   0  0  0  0  0  0  0  0  0  0  0  0
   -4.7000   24.8617  -24.0717 C   0  0  0  0  0  0  0  0  0  0  0  0
   -5.2298   24.2730  -27.5134 C   0  0  0  0  0  0  0  0  0  0  0  0
   -4.2396   25.0515  -27.9035 O   0  0  0  0  0  0  0  0  0  0  0  0
   -5.6834   23.3570  -28.5327 C   0  0  0  0  0  0  0  0  0  0  0  0
   -5.0579   22.9478  -29.5955 C   0  0  0  0  0  0  0  0  0  0  0  0
 24 25  1  0  0  0
 25  1  1  0  0  0
  1  2  2  0  0  0
  2  3  1  0  0  0
  3  4  2  0  0  0
  4  5  1  0  0  0
  5  6  2  0  0  0
  6 12  1  0  0  0
 12 13  2  0  0  0
 13 14  1  0  0  0
 13 15  1  0  0  0
 15 20  1  0  0  0
 20 21  1  0  0  0
 15 16  2  0  0  0
 16 17  1  0  0  0
 17 22  1  0  0  0
 22 23  1  0  0  0
 17 18  2  0  0  0
 18 19  1  0  0  0
  6  7  1  0  0  0
  7  8  2  0  0  0
  7  9  1  0  0  0
  9 27  1  0  0  0
 27 28  1  0  0  0
 28 29  1  0  0  0
 29 30  1  0  0  0
 30 31  1  0  0  0
 31 32  1  0  0  0
 32 33  1  0  0  0
 33 34  1  0  0  0
 34 35  1  0  0  0
 33 36  1  0  0  0
 36 37  2  0  0  0
 36 38  1  0  0  0
 38 39  2  0  0  0
  9 10  1  0  0  0
 10 11  2  0  0  0
 11  1  1  0  0  0
 10  4  1  0  0  0
 18 12  1  0  0  0
 35 30  1  0  0  0
 25 26  1  0  0  0
M  END
> <minimizedAffinity>
-7.29905

> <CNNscore>
0.2353767157

> <CNNaffinity>
7.4058380127

> <CNN_VS>
1.7431617975

> <CNNaffinity_variance>
0.2061129510

$$$$
[H]C([H])=C([H])C(=O)N1C([H])([H])C([H])([H])N(C([H])([H])C([H])([H])C([H])([H])n2c(=O)c(-c3c(Cl)c(OC([H])([H])[H])c([H])c(OC([H])([H])[H])c3Cl)c([H])c3c([H])nc(N([H])C([H])([H])[H])nc32)C([H])([H])C1([H])[H]


 39 42  0  0  0  0  0  0  0  0999 V2000
   -5.1299   24.0784  -29.3875 C   0  0  0  0  0  0  0  0  0  0  0  0
   -4.4439   22.9572  -29.6617 N   0  0  0  0  0  0  0  0  0  0  0  0
   -3.6285   22.3362  -28.8026 C   0  0  0  0  0  0  0  0  0  0  0  0
   -3.5109   22.9268  -27.5447 C   0  0  0  0  0  0  0  0  0  0  0  0
   -2.7001   22.3616  -26.5951 C   0  0  0  0  0  0  0  0  0  0  0  0
   -2.6355   23.0119  -25.3570 C   0  0  0  0  0  0  0  0  0  0  0  0
   -3.3580   24.1566  -25.1272 C   0  0  0  0  0  0  0  0  0  0  0  0
   -3.2964   24.7458  -23.9973 O   0  0  0  0  0  0  0  0  0  0  0  0
   -4.1582   24.7155  -26.0604 N   0  0  0  0  0  0  0  0  0  0  0  0
   -4.2183   24.0790  -27.2688 C   0  0  0  0  0  0  0  0  0  0  0  0
   -5.0292   24.6623  -28.1811 N   0  0  0  0  0  0  0  0  0  0  0  0
   -1.7678   22.4240  -24.3579 C   0  0  0  0  0  0  0  0  0  0  0  0
   -2.2750   21.9175  -23.1851 C   0  0  0  0  0  0  0  0  0  0  0  0
   -3.9729   21.9896  -22.8052 Cl  0  0  0  0  0  0  0  0  0  0  0  0
   -1.3960   21.3289  -22.2721 C   0  0  0  0  0  0  0  0  0  0  0  0
   -0.0603   21.2789  -22.5824 C   0  0  0  0  0  0  0  0  0  0  0  0
    0.4494   21.7791  -23.7420 C   0  0  0  0  0  0  0  0  0  0  0  0
   -0.4287   22.3628  -24.6441 C   0  0  0  0  0  0  0  0  0  0  0  0
    0.2141   23.0034  -26.1290 Cl  0  0  0  0  0  0  0  0  0  0  0  0
   -1.8846   20.8080  -21.0746 O   0  0  0  0  0  0  0  0  0  0  0  0
   -1.1015   20.9381  -19.9098 C   0  0  0  0  0  0  0  0  0  0  0  0
    1.8064   21.7275  -24.0557 O   0  0  0  0  0  0  0  0  0  0  0  0
    2.6130   20.8491  -23.2846 C   0  0  0  0  0  0  0  0  0  0  0  0
   -5.4418   25.7198  -31.2222 C   0  0  0  0  0  0  0  0  0  0  0  0
   -5.9781   24.6482  -30.4144 N   0  0  0  0  0  0  0  0  0  0  0  0
   -6.9451   24.2938  -30.5667 H   0  0  0  0  0  0  0  0  0  0  0  0
   -4.9373   25.9008  -25.8021 C   0  0  0  0  0  0  0  0  0  0  0  0
   -6.3320   25.5129  -25.3255 C   0  0  0  0  0  0  0  0  0  0  0  0
   -6.6412   26.2673  -24.0267 C   0  0  0  0  0  0  0  0  0  0  0  0
   -7.5043   25.4550  -23.1920 N   0  0  0  0  0  0  0  0  0  0  0  0
   -7.5370   25.8991  -21.8391 C   0  0  0  0  0  0  0  0  0  0  0  0
   -6.6950   25.1170  -20.8573 C   0  0  0  0  0  0  0  0  0  0  0  0
   -6.7977   23.7222  -21.0008 N   0  0  0  0  0  0  0  0  0  0  0  0
   -7.5744   23.2701  -22.1847 C   0  0  0  0  0  0  0  0  0  0  0  0
   -7.0547   24.0861  -23.3382 C   0  0  0  0  0  0  0  0  0  0  0  0
   -6.2663   22.7531  -20.1643 C   0  0  0  0  0  0  0  0  0  0  0  0
   -6.4997   21.5043  -20.5174 O   0  0  0  0  0  0  0  0  0  0  0  0
   -5.4896   22.8779  -18.9539 C   0  0  0  0  0  0  0  0  0  0  0  0
   -4.2567   22.5290  -18.7388 C   0  0  0  0  0  0  0  0  0  0  0  0
 24 25  1  0  0  0
 25  1  1  0  0  0
  1  2  2  0  0  0
  2  3  1  0  0  0
  3  4  2  0  0  0
  4  5  1  0  0  0
  5  6  2  0  0  0
  6 12  1  0  0  0
 12 13  2  0  0  0
 13 14  1  0  0  0
 13 15  1  0  0  0
 15 20  1  0  0  0
 20 21  1  0  0  0
 15 16  2  0  0  0
 16 17  1  0  0  0
 17 22  1  0  0  0
 22 23  1  0  0  0
 17 18  2  0  0  0
 18 19  1  0  0  0
  6  7  1  0  0  0
  7  8  2  0  0  0
  7  9  1  0  0  0
  9 27  1  0  0  0
 27 28  1  0  0  0
 28 29  1  0  0  0
 29 30  1  0  0  0
 30 31  1  0  0  0
 31 32  1  0  0  0
 32 33  1  0  0  0
 33 34  1  0  0  0
 34 35  1  0  0  0
 33 36  1  0  0  0
 36 37  2  0  0  0
 36 38  1  0  0  0
 38 39  2  0  0  0
  9 10  1  0  0  0
 10 11  2  0  0  0
 11  1  1  0  0  0
 10  4  1  0  0  0
 18 12  1  0  0  0
 35 30  1  0  0  0
 25 26  1  0  0  0
M  END
> <minimizedAffinity>
-7.76798

> <CNNscore>
0.2139153481

> <CNNaffinity>
7.3501372337

> <CNN_VS>
1.5723071098

> <CNNaffinity_variance>
0.3078509271

$$$$
[H]C([H])=C([H])C(=O)N1C([H])([H])C([H])([H])N(C([H])([H])C([H])([H])C([H])([H])n2c(=O)c(-c3c(Cl)c(OC([H])([H])[H])c([H])c(OC([H])([H])[H])c3Cl)c([H])c3c([H])nc(N([H])C([H])([H])[H])nc32)C([H])([H])C1([H])[H]


 39 42  0  0  0  0  0  0  0  0999 V2000
   -4.8415   24.1201  -27.9094 C   0  0  0  0  0  0  0  0  0  0  0  0
   -4.1790   23.0299  -28.3285 N   0  0  0  0  0  0  0  0  0  0  0  0
   -3.3027   22.3422  -27.5885 C   0  0  0  0  0  0  0  0  0  0  0  0
   -3.0911   22.8241  -26.2970 C   0  0  0  0  0  0  0  0  0  0  0  0
   -2.2125   22.1842  -25.4620 C   0  0  0  0  0  0  0  0  0  0  0  0
   -2.0551   22.7270  -24.1812 C   0  0  0  0  0  0  0  0  0  0  0  0
   -2.7571   23.8442  -23.8014 C   0  0  0  0  0  0  0  0  0  0  0  0
   -2.6108   24.3353  -22.6331 O   0  0  0  0  0  0  0  0  0  0  0  0
   -3.6239   24.4764  -24.6215 N   0  0  0  0  0  0  0  0  0  0  0  0
   -3.7746   23.9448  -25.8720 C   0  0  0  0  0  0  0  0  0  0  0  0
   -4.6505   24.5996  -26.6684 N   0  0  0  0  0  0  0  0  0  0  0  0
   -1.1161   22.0606  -23.3031 C   0  0  0  0  0  0  0  0  0  0  0  0
   -1.5382   21.4337  -22.1550 C   0  0  0  0  0  0  0  0  0  0  0  0
   -3.2078   21.4381  -21.6601 Cl  0  0  0  0  0  0  0  0  0  0  0  0
   -0.5936   20.7752  -21.3633 C   0  0  0  0  0  0  0  0  0  0  0  0
    0.7189   20.7796  -21.7633 C   0  0  0  0  0  0  0  0  0  0  0  0
    1.1445   21.3990  -22.8990 C   0  0  0  0  0  0  0  0  0  0  0  0
    0.2016   22.0516  -23.6805 C   0  0  0  0  0  0  0  0  0  0  0  0
    0.7367   22.8447  -25.1342 Cl  0  0  0  0  0  0  0  0  0  0  0  0
   -0.9954   20.1319  -20.1934 O   0  0  0  0  0  0  0  0  0  0  0  0
   -0.8276   20.7977  -18.9624 C   0  0  0  0  0  0  0  0  0  0  0  0
    2.4781   21.4025  -23.3040 O   0  0  0  0  0  0  0  0  0  0  0  0
    3.3468   20.4758  -22.6688 C   0  0  0  0  0  0  0  0  0  0  0  0
   -5.6021   24.5345  -30.2347 C   0  0  0  0  0  0  0  0  0  0  0  0
   -5.7631   24.7708  -28.8181 N   0  0  0  0  0  0  0  0  0  0  0  0
   -6.5203   25.3889  -28.4599 H   0  0  0  0  0  0  0  0  0  0  0  0
   -4.3803   25.6313  -24.2058 C   0  0  0  0  0  0  0  0  0  0  0  0
   -5.8194   25.2299  -23.9049 C   0  0  0  0  0  0  0  0  0  0  0  0
   -5.9628   24.9862  -22.3977 C   0  0  0  0  0  0  0  0  0  0  0  0
   -7.1571   25.6506  -21.9142 N   0  0  0  0  0  0  0  0  0  0  0  0
   -7.2462   25.6549  -20.4927 C   0  0  0  0  0  0  0  0  0  0  0  0
   -8.1749   24.6335  -19.8771 C   0  0  0  0  0  0  0  0  0  0  0  0
   -9.4183   24.5283  -20.5247 N   0  0  0  0  0  0  0  0  0  0  0  0
   -9.5360   25.3081  -21.7847 C   0  0  0  0  0  0  0  0  0  0  0  0
   -8.2815   25.0054  -22.5599 C   0  0  0  0  0  0  0  0  0  0  0  0
  -10.5187   23.7943  -20.1103 C   0  0  0  0  0  0  0  0  0  0  0  0
  -11.5747   23.8555  -20.8976 O   0  0  0  0  0  0  0  0  0  0  0  0
  -10.7104   22.9618  -18.9467 C   0  0  0  0  0  0  0  0  0  0  0  0
  -10.2509   21.7687  -18.7152 C   0  0  0  0  0  0  0  0  0  0  0  0
 24 25  1  0  0  0
 25  1  1  0  0  0
  1  2  2  0  0  0
  2  3  1  0  0  0
  3  4  2  0  0  0
  4  5  1  0  0  0
  5  6  2  0  0  0
  6 12  1  0  0  0
 12 13  2  0  0  0
 13 14  1  0  0  0
 13 15  1  0  0  0
 15 20  1  0  0  0
 20 21  1  0  0  0
 15 16  2  0  0  0
 16 17  1  0  0  0
 17 22  1  0  0  0
 22 23  1  0  0  0
 17 18  2  0  0  0
 18 19  1  0  0  0
  6  7  1  0  0  0
  7  8  2  0  0  0
  7  9  1  0  0  0
  9 27  1  0  0  0
 27 28  1  0  0  0
 28 29  1  0  0  0
 29 30  1  0  0  0
 30 31  1  0  0  0
 31 32  1  0  0  0
 32 33  1  0  0  0
 33 34  1  0  0  0
 34 35  1  0  0  0
 33 36  1  0  0  0
 36 37  2  0  0  0
 36 38  1  0  0  0
 38 39  2  0  0  0
  9 10  1  0  0  0
 10 11  2  0  0  0
 11  1  1  0  0  0
 10  4  1  0  0  0
 18 12  1  0  0  0
 35 30  1  0  0  0
 25 26  1  0  0  0
M  END
> <minimizedAffinity>
-7.57695

> <CNNscore>
0.1543653607

> <CNNaffinity>
6.9858498573

> <CNN_VS>
1.0783731937

> <CNNaffinity_variance>
0.1249537021

$$$$
[H]C([H])=C([H])C(=O)N1C([H])([H])C([H])([H])N(C([H])([H])C([H])([H])C([H])([H])n2c(=O)c(-c3c(Cl)c(OC([H])([H])[H])c([H])c(OC([H])([H])[H])c3Cl)c([H])c3c([H])nc(N([H])C([H])([H])[H])nc32)C([H])([H])C1([H])[H]


 39 42  0  0  0  0  0  0  0  0999 V2000
   -7.6971   25.5426  -23.5854 C   0  0  0  0  0  0  0  0  0  0  0  0
   -6.8394   26.4337  -24.1083 N   0  0  0  0  0  0  0  0  0  0  0  0
   -5.5733   26.1633  -24.4434 C   0  0  0  0  0  0  0  0  0  0  0  0
   -5.1541   24.8523  -24.2182 C   0  0  0  0  0  0  0  0  0  0  0  0
   -3.8734   24.4786  -24.5324 C   0  0  0  0  0  0  0  0  0  0  0  0
   -3.5282   23.1458  -24.2786 C   0  0  0  0  0  0  0  0  0  0  0  0
   -4.4434   22.2738  -23.7427 C   0  0  0  0  0  0  0  0  0  0  0  0
   -4.1246   21.0600  -23.5134 O   0  0  0  0  0  0  0  0  0  0  0  0
   -5.7061   22.6388  -23.4327 N   0  0  0  0  0  0  0  0  0  0  0  0
   -6.0399   23.9412  -23.6805 C   0  0  0  0  0  0  0  0  0  0  0  0
   -7.3114   24.2748  -23.3608 N   0  0  0  0  0  0  0  0  0  0  0  0
   -2.1710   22.7535  -24.5964 C   0  0  0  0  0  0  0  0  0  0  0  0
   -1.2413   22.5436  -23.6059 C   0  0  0  0  0  0  0  0  0  0  0  0
   -1.6165   22.7778  -21.9216 Cl  0  0  0  0  0  0  0  0  0  0  0  0
    0.0438   22.1310  -23.9678 C   0  0  0  0  0  0  0  0  0  0  0  0
    0.3275   21.9509  -25.2981 C   0  0  0  0  0  0  0  0  0  0  0  0
   -0.5882   22.1575  -26.2847 C   0  0  0  0  0  0  0  0  0  0  0  0
   -1.8624   22.5677  -25.9188 C   0  0  0  0  0  0  0  0  0  0  0  0
   -3.0391   22.8328  -27.1733 Cl  0  0  0  0  0  0  0  0  0  0  0  0
    1.0058   21.9117  -22.9827 O   0  0  0  0  0  0  0  0  0  0  0  0
    2.1413   21.1410  -23.3044 C   0  0  0  0  0  0  0  0  0  0  0  0
   -0.2985   21.9740  -27.6356 O   0  0  0  0  0  0  0  0  0  0  0  0
    0.1127   23.1192  -28.3678 C   0  0  0  0  0  0  0  0  0  0  0  0
   -9.6959   25.3711  -22.1251 C   0  0  0  0  0  0  0  0  0  0  0  0
   -9.0433   25.9718  -23.2660 N   0  0  0  0  0  0  0  0  0  0  0  0
   -9.5250   26.6936  -23.8411 H   0  0  0  0  0  0  0  0  0  0  0  0
   -6.6708   21.7101  -22.8984 C   0  0  0  0  0  0  0  0  0  0  0  0
   -6.3865   21.4561  -21.4228 C   0  0  0  0  0  0  0  0  0  0  0  0
   -7.2449   22.4072  -20.5802 C   0  0  0  0  0  0  0  0  0  0  0  0
   -6.3914   23.3951  -19.9499 N   0  0  0  0  0  0  0  0  0  0  0  0
   -5.0326   22.9757  -19.8688 C   0  0  0  0  0  0  0  0  0  0  0  0
   -4.5710   22.4574  -18.5261 C   0  0  0  0  0  0  0  0  0  0  0  0
   -4.9908   23.2403  -17.4365 N   0  0  0  0  0  0  0  0  0  0  0  0
   -5.9419   24.3302  -17.7781 C   0  0  0  0  0  0  0  0  0  0  0  0
   -6.9808   23.6911  -18.6606 C   0  0  0  0  0  0  0  0  0  0  0  0
   -4.6086   23.1039  -16.1110 C   0  0  0  0  0  0  0  0  0  0  0  0
   -5.1471   23.9654  -15.2705 O   0  0  0  0  0  0  0  0  0  0  0  0
   -3.7080   22.1666  -15.4831 C   0  0  0  0  0  0  0  0  0  0  0  0
   -3.2596   22.1614  -14.2637 C   0  0  0  0  0  0  0  0  0  0  0  0
 24 25  1  0  0  0
 25  1  1  0  0  0
  1  2  2  0  0  0
  2  3  1  0  0  0
  3  4  2  0  0  0
  4  5  1  0  0  0
  5  6  2  0  0  0
  6 12  1  0  0  0
 12 13  2  0  0  0
 13 14  1  0  0  0
 13 15  1  0  0  0
 15 20  1  0  0  0
 20 21  1  0  0  0
 15 16  2  0  0  0
 16 17  1  0  0  0
 17 22  1  0  0  0
 22 23  1  0  0  0
 17 18  2  0  0  0
 18 19  1  0  0  0
  6  7  1  0  0  0
  7  8  2  0  0  0
  7  9  1  0  0  0
  9 27  1  0  0  0
 27 28  1  0  0  0
 28 29  1  0  0  0
 29 30  1  0  0  0
 30 31  1  0  0  0
 31 32  1  0  0  0
 32 33  1  0  0  0
 33 34  1  0  0  0
 34 35  1  0  0  0
 33 36  1  0  0  0
 36 37  2  0  0  0
 36 38  1  0  0  0
 38 39  2  0  0  0
  9 10  1  0  0  0
 10 11  2  0  0  0
 11  1  1  0  0  0
 10  4  1  0  0  0
 18 12  1  0  0  0
 35 30  1  0  0  0
 25 26  1  0  0  0
M  END
> <minimizedAffinity>
-7.60823

> <CNNscore>
0.1039915830

> <CNNaffinity>
6.6337509155

> <CNN_VS>
0.6898542643

> <CNNaffinity_variance>
0.2231827080

$$$$
[H]C([H])=C([H])C(=O)N1C([H])([H])C([H])([H])N(C([H])([H])C([H])([H])C([H])([H])n2c(=O)c(-c3c(Cl)c(OC([H])([H])[H])c([H])c(OC([H])([H])[H])c3Cl)c([H])c3c([H])nc(N([H])C([H])([H])[H])nc32)C([H])([H])C1([H])[H]


 39 42  0  0  0  0  0  0  0  0999 V2000
   -0.6689   22.4015  -25.3480 C   0  0  0  0  0  0  0  0  0  0  0  0
    0.5563   21.8529  -25.3187 N   0  0  0  0  0  0  0  0  0  0  0  0
    1.1445   21.3654  -24.2210 C   0  0  0  0  0  0  0  0  0  0  0  0
    0.3988   21.4517  -23.0455 C   0  0  0  0  0  0  0  0  0  0  0  0
    0.9164   20.9760  -21.8689 C   0  0  0  0  0  0  0  0  0  0  0  0
    0.1075   21.0971  -20.7328 C   0  0  0  0  0  0  0  0  0  0  0  0
   -1.1393   21.6660  -20.8166 C   0  0  0  0  0  0  0  0  0  0  0  0
   -1.8733   21.7740  -19.7786 O   0  0  0  0  0  0  0  0  0  0  0  0
   -1.6523   22.1349  -21.9744 N   0  0  0  0  0  0  0  0  0  0  0  0
   -0.8596   22.0165  -23.0819 C   0  0  0  0  0  0  0  0  0  0  0  0
   -1.4023   22.4938  -24.2255 N   0  0  0  0  0  0  0  0  0  0  0  0
    0.6592   20.6083  -19.4864 C   0  0  0  0  0  0  0  0  0  0  0  0
    1.1651   21.4731  -18.5453 C   0  0  0  0  0  0  0  0  0  0  0  0
    1.2183   23.1941  -18.8056 Cl  0  0  0  0  0  0  0  0  0  0  0  0
    1.6519   20.9492  -17.3448 C   0  0  0  0  0  0  0  0  0  0  0  0
    1.6053   19.5915  -17.1518 C   0  0  0  0  0  0  0  0  0  0  0  0
    1.1062   18.7287  -18.0798 C   0  0  0  0  0  0  0  0  0  0  0  0
    0.6249   19.2553  -19.2701 C   0  0  0  0  0  0  0  0  0  0  0  0
   -0.0159   18.1599  -20.4609 Cl  0  0  0  0  0  0  0  0  0  0  0  0
    2.1710   21.8045  -16.3737 O   0  0  0  0  0  0  0  0  0  0  0  0
    3.5699   21.9440  -16.2718 C   0  0  0  0  0  0  0  0  0  0  0  0
    1.0596   17.3499  -17.8823 O   0  0  0  0  0  0  0  0  0  0  0  0
    0.0464   16.8566  -17.0181 C   0  0  0  0  0  0  0  0  0  0  0  0
   -2.5918   23.2140  -26.6894 C   0  0  0  0  0  0  0  0  0  0  0  0
   -1.1850   22.8933  -26.6091 N   0  0  0  0  0  0  0  0  0  0  0  0
   -0.5594   23.0137  -27.4324 H   0  0  0  0  0  0  0  0  0  0  0  0
   -2.9743   22.7036  -22.0606 C   0  0  0  0  0  0  0  0  0  0  0  0
   -3.9894   21.6139  -22.3845 C   0  0  0  0  0  0  0  0  0  0  0  0
   -5.2530   21.8468  -21.5474 C   0  0  0  0  0  0  0  0  0  0  0  0
   -6.2967   22.3919  -22.3931 N   0  0  0  0  0  0  0  0  0  0  0  0
   -6.0094   22.2501  -23.7810 C   0  0  0  0  0  0  0  0  0  0  0  0
   -5.4918   23.4824  -24.4867 C   0  0  0  0  0  0  0  0  0  0  0  0
   -6.1912   24.6596  -24.1678 N   0  0  0  0  0  0  0  0  0  0  0  0
   -7.1943   24.5168  -23.0803 C   0  0  0  0  0  0  0  0  0  0  0  0
   -6.4882   23.7673  -21.9821 C   0  0  0  0  0  0  0  0  0  0  0  0
   -6.0462   25.9054  -24.7579 C   0  0  0  0  0  0  0  0  0  0  0  0
   -6.8210   26.8580  -24.2771 O   0  0  0  0  0  0  0  0  0  0  0  0
   -5.1799   26.3460  -25.8252 C   0  0  0  0  0  0  0  0  0  0  0  0
   -5.2371   26.0581  -27.0909 C   0  0  0  0  0  0  0  0  0  0  0  0
 24 25  1  0  0  0
 25  1  1  0  0  0
  1  2  2  0  0  0
  2  3  1  0  0  0
  3  4  2  0  0  0
  4  5  1  0  0  0
  5  6  2  0  0  0
  6 12  1  0  0  0
 12 13  2  0  0  0
 13 14  1  0  0  0
 13 15  1  0  0  0
 15 20  1  0  0  0
 20 21  1  0  0  0
 15 16  2  0  0  0
 16 17  1  0  0  0
 17 22  1  0  0  0
 22 23  1  0  0  0
 17 18  2  0  0  0
 18 19  1  0  0  0
  6  7  1  0  0  0
  7  8  2  0  0  0
  7  9  1  0  0  0
  9 27  1  0  0  0
 27 28  1  0  0  0
 28 29  1  0  0  0
 29 30  1  0  0  0
 30 31  1  0  0  0
 31 32  1  0  0  0
 32 33  1  0  0  0
 33 34  1  0  0  0
 34 35  1  0  0  0
 33 36  1  0  0  0
 36 37  2  0  0  0
 36 38  1  0  0  0
 38 39  2  0  0  0
  9 10  1  0  0  0
 10 11  2  0  0  0
 11  1  1  0  0  0
 10  4  1  0  0  0
 18 12  1  0  0  0
 35 30  1  0  0  0
 25 26  1  0  0  0
M  END
> <minimizedAffinity>
-6.74063

> <CNNscore>
0.1026326269

> <CNNaffinity>
6.9192824364

> <CNN_VS>
0.7101441622

> <CNNaffinity_variance>
0.1999888569

$$$$
[H]C([H])=C([H])C(=O)N1C([H])([H])C([H])([H])N(C([H])([H])C([H])([H])C([H])([H])n2c(=O)c(-c3c(Cl)c(OC([H])([H])[H])c([H])c(OC([H])([H])[H])c3Cl)c([H])c3c([H])nc(N([H])C([H])([H])[H])nc32)C([H])([H])C1([H])[H]


 39 42  0  0  0  0  0  0  0  0999 V2000
   -0.6540   22.2608  -25.6519 C   0  0  0  0  0  0  0  0  0  0  0  0
    0.6342   21.9263  -25.4739 N   0  0  0  0  0  0  0  0  0  0  0  0
    1.1615   21.5255  -24.3121 C   0  0  0  0  0  0  0  0  0  0  0  0
    0.2774   21.4639  -23.2352 C   0  0  0  0  0  0  0  0  0  0  0  0
    0.7244   21.0615  -22.0035 C   0  0  0  0  0  0  0  0  0  0  0  0
   -0.2228   21.0242  -20.9733 C   0  0  0  0  0  0  0  0  0  0  0  0
   -1.5290   21.3761  -21.2081 C   0  0  0  0  0  0  0  0  0  0  0  0
   -2.3890   21.3403  -20.2663 O   0  0  0  0  0  0  0  0  0  0  0  0
   -1.9726   21.7723  -22.4205 N   0  0  0  0  0  0  0  0  0  0  0  0
   -1.0452   21.8089  -23.4242 C   0  0  0  0  0  0  0  0  0  0  0  0
   -1.5208   22.2081  -24.6261 N   0  0  0  0  0  0  0  0  0  0  0  0
    0.2514   20.6134  -19.6683 C   0  0  0  0  0  0  0  0  0  0  0  0
    0.4452   19.2862  -19.3676 C   0  0  0  0  0  0  0  0  0  0  0  0
    0.0931   18.0191  -20.5091 Cl  0  0  0  0  0  0  0  0  0  0  0  0
    0.9388   18.9489  -18.1046 C   0  0  0  0  0  0  0  0  0  0  0  0
    1.2115   19.9561  -17.2136 C   0  0  0  0  0  0  0  0  0  0  0  0
    1.0214   21.2730  -17.5042 C   0  0  0  0  0  0  0  0  0  0  0  0
    0.5305   21.6012  -18.7599 C   0  0  0  0  0  0  0  0  0  0  0  0
    0.2858   23.2817  -19.1401 Cl  0  0  0  0  0  0  0  0  0  0  0  0
    1.1439   17.6100  -17.7740 O   0  0  0  0  0  0  0  0  0  0  0  0
    2.4458   17.1869  -17.4381 C   0  0  0  0  0  0  0  0  0  0  0  0
    1.2989   22.2949  -16.5980 O   0  0  0  0  0  0  0  0  0  0  0  0
    1.3786   21.9358  -15.2263 C   0  0  0  0  0  0  0  0  0  0  0  0
   -2.5036   22.6088  -27.2690 C   0  0  0  0  0  0  0  0  0  0  0  0
   -1.0922   22.6808  -26.9673 N   0  0  0  0  0  0  0  0  0  0  0  0
   -0.4095   23.0263  -27.6732 H   0  0  0  0  0  0  0  0  0  0  0  0
   -3.3521   22.1113  -22.6667 C   0  0  0  0  0  0  0  0  0  0  0  0
   -3.5488   23.6171  -22.5376 C   0  0  0  0  0  0  0  0  0  0  0  0
   -4.7584   23.8848  -21.6339 C   0  0  0  0  0  0  0  0  0  0  0  0
   -5.8121   22.9400  -21.9477 N   0  0  0  0  0  0  0  0  0  0  0  0
   -6.9154   23.5482  -22.6123 C   0  0  0  0  0  0  0  0  0  0  0  0
   -8.1279   23.8469  -21.7607 C   0  0  0  0  0  0  0  0  0  0  0  0
   -8.4915   22.7991  -20.8968 N   0  0  0  0  0  0  0  0  0  0  0  0
   -7.5335   21.6634  -20.8522 C   0  0  0  0  0  0  0  0  0  0  0  0
   -6.1744   22.2935  -20.7035 C   0  0  0  0  0  0  0  0  0  0  0  0
   -9.6295   22.7199  -20.1094 C   0  0  0  0  0  0  0  0  0  0  0  0
   -9.7426   21.6282  -19.3785 O   0  0  0  0  0  0  0  0  0  0  0  0
  -10.7293   23.6412  -19.9498 C   0  0  0  0  0  0  0  0  0  0  0  0
  -11.5248   24.1234  -20.8569 C   0  0  0  0  0  0  0  0  0  0  0  0
 24 25  1  0  0  0
 25  1  1  0  0  0
  1  2  2  0  0  0
  2  3  1  0  0  0
  3  4  2  0  0  0
  4  5  1  0  0  0
  5  6  2  0  0  0
  6 12  1  0  0  0
 12 13  2  0  0  0
 13 14  1  0  0  0
 13 15  1  0  0  0
 15 20  1  0  0  0
 20 21  1  0  0  0
 15 16  2  0  0  0
 16 17  1  0  0  0
 17 22  1  0  0  0
 22 23  1  0  0  0
 17 18  2  0  0  0
 18 19  1  0  0  0
  6  7  1  0  0  0
  7  8  2  0  0  0
  7  9  1  0  0  0
  9 27  1  0  0  0
 27 28  1  0  0  0
 28 29  1  0  0  0
 29 30  1  0  0  0
 30 31  1  0  0  0
 31 32  1  0  0  0
 32 33  1  0  0  0
 33 34  1  0  0  0
 34 35  1  0  0  0
 33 36  1  0  0  0
 36 37  2  0  0  0
 36 38  1  0  0  0
 38 39  2  0  0  0
  9 10  1  0  0  0
 10 11  2  0  0  0
 11  1  1  0  0  0
 10  4  1  0  0  0
 18 12  1  0  0  0
 35 30  1  0  0  0
 25 26  1  0  0  0
M  END
> <minimizedAffinity>
-6.41651

> <CNNscore>
0.0984840617

> <CNNaffinity>
6.5653219223

> <CNN_VS>
0.6465795636

> <CNNaffinity_variance>
0.0691796988

$$$$
[H]C([H])=C([H])C(=O)N1C([H])([H])C([H])([H])N(C([H])([H])C([H])([H])C([H])([H])n2c(=O)c(-c3c(Cl)c(OC([H])([H])[H])c([H])c(OC([H])([H])[H])c3Cl)c([H])c3c([H])nc(N([H])C([H])([H])[H])nc32)C([H])([H])C1([H])[H]


 39 42  0  0  0  0  0  0  0  0999 V2000
   -0.4937   22.2665  -24.7240 C   0  0  0  0  0  0  0  0  0  0  0  0
    0.5672   21.5020  -24.4189 N   0  0  0  0  0  0  0  0  0  0  0  0
    0.9367   21.1764  -23.1756 C   0  0  0  0  0  0  0  0  0  0  0  0
    0.1371   21.6866  -22.1531 C   0  0  0  0  0  0  0  0  0  0  0  0
    0.4345   21.4052  -20.8451 C   0  0  0  0  0  0  0  0  0  0  0  0
   -0.4153   21.9522  -19.8763 C   0  0  0  0  0  0  0  0  0  0  0  0
   -1.4880   22.7276  -20.2413 C   0  0  0  0  0  0  0  0  0  0  0  0
   -2.2601   23.2238  -19.3551 O   0  0  0  0  0  0  0  0  0  0  0  0
   -1.7840   23.0061  -21.5291 N   0  0  0  0  0  0  0  0  0  0  0  0
   -0.9517   22.4716  -22.4728 C   0  0  0  0  0  0  0  0  0  0  0  0
   -1.2758   22.7675  -23.7524 N   0  0  0  0  0  0  0  0  0  0  0  0
   -0.0936   21.6678  -18.4935 C   0  0  0  0  0  0  0  0  0  0  0  0
    0.8608   22.3941  -17.8218 C   0  0  0  0  0  0  0  0  0  0  0  0
    1.7708   23.6619  -18.5944 Cl  0  0  0  0  0  0  0  0  0  0  0  0
    1.1053   22.1005  -16.4776 C   0  0  0  0  0  0  0  0  0  0  0  0
    0.3826   21.0987  -15.8803 C   0  0  0  0  0  0  0  0  0  0  0  0
   -0.5639   20.3747  -16.5396 C   0  0  0  0  0  0  0  0  0  0  0  0
   -0.8016   20.6708  -17.8743 C   0  0  0  0  0  0  0  0  0  0  0  0
   -2.0103   19.7513  -18.7239 Cl  0  0  0  0  0  0  0  0  0  0  0  0
    2.0686   22.8218  -15.7734 O   0  0  0  0  0  0  0  0  0  0  0  0
    1.9863   22.8679  -14.3670 C   0  0  0  0  0  0  0  0  0  0  0  0
   -1.2973   19.3575  -15.9313 O   0  0  0  0  0  0  0  0  0  0  0  0
   -0.6731   18.6653  -14.8598 C   0  0  0  0  0  0  0  0  0  0  0  0
    0.3135   22.9627  -26.9647 C   0  0  0  0  0  0  0  0  0  0  0  0
   -0.7791   22.5430  -26.1170 N   0  0  0  0  0  0  0  0  0  0  0  0
   -1.7432   22.4402  -26.4960 H   0  0  0  0  0  0  0  0  0  0  0  0
   -2.9296   23.7961  -21.9062 C   0  0  0  0  0  0  0  0  0  0  0  0
   -4.0922   22.8829  -22.2765 C   0  0  0  0  0  0  0  0  0  0  0  0
   -5.2284   23.7346  -22.8557 C   0  0  0  0  0  0  0  0  0  0  0  0
   -5.7376   23.1043  -24.0578 N   0  0  0  0  0  0  0  0  0  0  0  0
   -4.7093   22.5113  -24.8450 C   0  0  0  0  0  0  0  0  0  0  0  0
   -4.2554   23.2961  -26.0545 C   0  0  0  0  0  0  0  0  0  0  0  0
   -5.3084   23.8403  -26.8104 N   0  0  0  0  0  0  0  0  0  0  0  0
   -6.6569   23.6926  -26.2030 C   0  0  0  0  0  0  0  0  0  0  0  0
   -6.4959   24.1141  -24.7667 C   0  0  0  0  0  0  0  0  0  0  0  0
   -5.2155   24.4775  -28.0380 C   0  0  0  0  0  0  0  0  0  0  0  0
   -6.3545   24.9054  -28.5462 O   0  0  0  0  0  0  0  0  0  0  0  0
   -4.0685   24.7569  -28.8687 C   0  0  0  0  0  0  0  0  0  0  0  0
   -3.9801   25.5512  -29.8932 C   0  0  0  0  0  0  0  0  0  0  0  0
 24 25  1  0  0  0
 25  1  1  0  0  0
  1  2  2  0  0  0
  2  3  1  0  0  0
  3  4  2  0  0  0
  4  5  1  0  0  0
  5  6  2  0  0  0
  6 12  1  0  0  0
 12 13  2  0  0  0
 13 14  1  0  0  0
 13 15  1  0  0  0
 15 20  1  0  0  0
 20 21  1  0  0  0
 15 16  2  0  0  0
 16 17  1  0  0  0
 17 22  1  0  0  0
 22 23  1  0  0  0
 17 18  2  0  0  0
 18 19  1  0  0  0
  6  7  1  0  0  0
  7  8  2  0  0  0
  7  9  1  0  0  0
  9 27  1  0  0  0
 27 28  1  0  0  0
 28 29  1  0  0  0
 29 30  1  0  0  0
 30 31  1  0  0  0
 31 32  1  0  0  0
 32 33  1  0  0  0
 33 34  1  0  0  0
 34 35  1  0  0  0
 33 36  1  0  0  0
 36 37  2  0  0  0
 36 38  1  0  0  0
 38 39  2  0  0  0
  9 10  1  0  0  0
 10 11  2  0  0  0
 11  1  1  0  0  0
 10  4  1  0  0  0
 18 12  1  0  0  0
 35 30  1  0  0  0
 25 26  1  0  0  0
M  END
> <minimizedAffinity>
-7.22897

> <CNNscore>
0.0942748114

> <CNNaffinity>
6.7681808472

> <CNN_VS>
0.6380689740

> <CNNaffinity_variance>
0.3599470258

$$$$
[H]c1nc(N([H])[H])c(-c2nn(-c3c([H])c(OC([H])([H])[H])c([H])c(OC([H])([H])[H])c3[H])c(=O)c(C([H])([H])[H])c2[H])c([H])c1-c1c([H])nn(C2([H])C([H])([H])C([H])([H])N([H])C([H])([H])C2([H])[H])c1[H]


 39 43  0  0  0  0  0  0  0  0999 V2000
   -1.6313   22.7933  -26.7325 C   0  0  0  0  0  0  0  0  0  0  0  0
   -1.2144   22.3363  -25.4673 C   0  0  0  0  0  0  0  0  0  0  0  0
    0.0970   22.0732  -25.2004 C   0  0  0  0  0  0  0  0  0  0  0  0
    0.9897   22.2777  -26.2318 C   0  0  0  0  0  0  0  0  0  0  0  0
    0.6109   22.7092  -27.4356 N   0  0  0  0  0  0  0  0  0  0  0  0
   -0.7098   22.9700  -27.6933 C   0  0  0  0  0  0  0  0  0  0  0  0
   -0.9945   23.3904  -29.0412 N   0  0  0  0  0  0  0  0  0  0  0  0
   -0.7134   24.3260  -29.3805 H   0  0  0  0  0  0  0  0  0  0  0  0
   -1.4923   22.7585  -29.7084 H   0  0  0  0  0  0  0  0  0  0  0  0
   -5.1280   23.3620  -25.8481 N   0  0  0  0  0  0  0  0  0  0  0  0
   -3.8603   23.1321  -25.8161 N   0  0  0  0  0  0  0  0  0  0  0  0
   -3.0540   23.0091  -26.9186 C   0  0  0  0  0  0  0  0  0  0  0  0
   -3.6638   23.1450  -28.1147 C   0  0  0  0  0  0  0  0  0  0  0  0
   -5.0414   23.3955  -28.2115 C   0  0  0  0  0  0  0  0  0  0  0  0
   -5.6809   23.5383  -29.5453 C   0  0  0  0  0  0  0  0  0  0  0  0
   -5.7395   23.4970  -27.0363 C   0  0  0  0  0  0  0  0  0  0  0  0
   -6.9942   23.7243  -27.0759 O   0  0  0  0  0  0  0  0  0  0  0  0
   -7.1332   24.8669  -23.1155 C   0  0  0  0  0  0  0  0  0  0  0  0
   -7.5120   23.7555  -22.3938 C   0  0  0  0  0  0  0  0  0  0  0  0
   -7.1112   22.4828  -22.7961 C   0  0  0  0  0  0  0  0  0  0  0  0
   -6.3305   22.4027  -23.9341 C   0  0  0  0  0  0  0  0  0  0  0  0
   -5.9407   23.4829  -24.6677 C   0  0  0  0  0  0  0  0  0  0  0  0
   -6.3555   24.7375  -24.2419 C   0  0  0  0  0  0  0  0  0  0  0  0
   -7.8955   26.3798  -21.3427 C   0  0  0  0  0  0  0  0  0  0  0  0
   -7.5485   26.1164  -22.6886 O   0  0  0  0  0  0  0  0  0  0  0  0
   -7.4961   21.3670  -22.0646 O   0  0  0  0  0  0  0  0  0  0  0  0
   -8.2641   21.5810  -20.8951 C   0  0  0  0  0  0  0  0  0  0  0  0
    0.5277   21.6026  -23.8908 C   0  0  0  0  0  0  0  0  0  0  0  0
   -0.3041   21.5070  -22.7990 C   0  0  0  0  0  0  0  0  0  0  0  0
    0.4267   21.0364  -21.7467 N   0  0  0  0  0  0  0  0  0  0  0  0
    1.6727   20.8358  -22.1348 N   0  0  0  0  0  0  0  0  0  0  0  0
    1.7609   21.1775  -23.4539 C   0  0  0  0  0  0  0  0  0  0  0  0
    2.7734   20.3429  -21.3259 C   0  0  0  0  0  0  0  0  0  0  0  0
    3.3828   21.4575  -20.4992 C   0  0  0  0  0  0  0  0  0  0  0  0
    4.7631   21.0722  -20.0035 C   0  0  0  0  0  0  0  0  0  0  0  0
    5.0048   19.6613  -20.0828 N   0  0  0  0  0  0  0  0  0  0  0  0
    4.9412   19.1383  -21.4301 C   0  0  0  0  0  0  0  0  0  0  0  0
    3.8434   19.7912  -22.2423 C   0  0  0  0  0  0  0  0  0  0  0  0
    4.4353   19.1173  -19.4062 H   0  0  0  0  0  0  0  0  0  0  0  0
 24 25  1  0  0  0
 25 18  1  0  0  0
 18 19  2  0  0  0
 19 20  1  0  0  0
 20 26  1  0  0  0
 26 27  1  0  0  0
 20 21  2  0  0  0
 21 22  1  0  0  0
 22 23  2  0  0  0
 22 10  1  0  0  0
 10 11  1  0  0  0
 11 12  2  0  0  0
 12 13  1  0  0  0
 13 14  2  0  0  0
 14 15  1  0  0  0
 14 16  1  0  0  0
 16 17  2  0  0  0
 12  1  1  0  0  0
  1  2  2  0  0  0
  2  3  1  0  0  0
  3  4  2  0  0  0
  4  5  1  0  0  0
  5  6  2  0  0  0
  6  7  1  0  0  0
  3 28  1  0  0  0
 28 29  1  0  0  0
 29 30  2  0  0  0
 30 31  1  0  0  0
 31 32  1  0  0  0
 31 33  1  0  0  0
 33 34  1  0  0  0
 34 35  1  0  0  0
 35 36  1  0  0  0
 36 37  1  0  0  0
 37 38  1  0  0  0
 23 18  1  0  0  0
 16 10  1  0  0  0
  6  1  1  0  0  0
 32 28  2  0  0  0
 38 33  1  0  0  0
  7  8  1  0  0  0
  7  9  1  0  0  0
 36 39  1  0  0  0
M  END
> <minimizedAffinity>
-10.18978

> <CNNscore>
0.9114063978

> <CNNaffinity>
7.7574753761

> <CNN_VS>
7.0702128410

> <CNNaffinity_variance>
0.0434005447

$$$$
[H]c1nc(N([H])[H])c(-c2nn(-c3c([H])c(OC([H])([H])[H])c([H])c(OC([H])([H])[H])c3[H])c(=O)c(C([H])([H])[H])c2[H])c([H])c1-c1c([H])nn(C2([H])C([H])([H])C([H])([H])N([H])C([H])([H])C2([H])[H])c1[H]


 39 43  0  0  0  0  0  0  0  0999 V2000
   -1.6160   22.7901  -26.7303 C   0  0  0  0  0  0  0  0  0  0  0  0
   -1.2006   22.3342  -25.4642 C   0  0  0  0  0  0  0  0  0  0  0  0
    0.1098   22.0673  -25.1968 C   0  0  0  0  0  0  0  0  0  0  0  0
    1.0032   22.2670  -26.2286 C   0  0  0  0  0  0  0  0  0  0  0  0
    0.6258   22.6973  -27.4332 N   0  0  0  0  0  0  0  0  0  0  0  0
   -0.6940   22.9620  -27.6915 C   0  0  0  0  0  0  0  0  0  0  0  0
   -0.9773   23.3807  -29.0401 N   0  0  0  0  0  0  0  0  0  0  0  0
   -0.6932   24.3148  -29.3813 H   0  0  0  0  0  0  0  0  0  0  0  0
   -1.4772   22.7491  -29.7061 H   0  0  0  0  0  0  0  0  0  0  0  0
   -5.1065   23.3996  -25.8482 N   0  0  0  0  0  0  0  0  0  0  0  0
   -3.8400   23.1630  -25.8149 N   0  0  0  0  0  0  0  0  0  0  0  0
   -3.0381   23.0101  -26.9168 C   0  0  0  0  0  0  0  0  0  0  0  0
   -3.6509   23.1225  -28.1138 C   0  0  0  0  0  0  0  0  0  0  0  0
   -5.0273   23.3789  -28.2120 C   0  0  0  0  0  0  0  0  0  0  0  0
   -5.6703   23.4953  -29.5467 C   0  0  0  0  0  0  0  0  0  0  0  0
   -5.7210   23.5113  -27.0372 C   0  0  0  0  0  0  0  0  0  0  0  0
   -6.9744   23.7451  -27.0781 O   0  0  0  0  0  0  0  0  0  0  0  0
   -7.0772   22.5618  -22.8205 C   0  0  0  0  0  0  0  0  0  0  0  0
   -7.4740   23.8075  -22.3843 C   0  0  0  0  0  0  0  0  0  0  0  0
   -7.0979   24.9528  -23.0836 C   0  0  0  0  0  0  0  0  0  0  0  0
   -6.3220   24.7702  -24.2131 C   0  0  0  0  0  0  0  0  0  0  0  0
   -5.9146   23.5521  -24.6683 C   0  0  0  0  0  0  0  0  0  0  0  0
   -6.3052   22.4298  -23.9505 C   0  0  0  0  0  0  0  0  0  0  0  0
   -8.1958   21.5386  -20.8932 C   0  0  0  0  0  0  0  0  0  0  0  0
   -7.4680   21.4447  -22.1026 O   0  0  0  0  0  0  0  0  0  0  0  0
   -7.5010   26.2050  -22.6390 O   0  0  0  0  0  0  0  0  0  0  0  0
   -8.0085   26.3023  -21.3213 C   0  0  0  0  0  0  0  0  0  0  0  0
    0.5390   21.5979  -23.8863 C   0  0  0  0  0  0  0  0  0  0  0  0
   -0.2950   21.4993  -22.7965 C   0  0  0  0  0  0  0  0  0  0  0  0
    0.4349   21.0309  -21.7425 N   0  0  0  0  0  0  0  0  0  0  0  0
    1.6824   20.8345  -22.1277 N   0  0  0  0  0  0  0  0  0  0  0  0
    1.7726   21.1769  -23.4466 C   0  0  0  0  0  0  0  0  0  0  0  0
    2.7829   20.3451  -21.3163 C   0  0  0  0  0  0  0  0  0  0  0  0
    3.3986   21.4653  -20.5020 C   0  0  0  0  0  0  0  0  0  0  0  0
    4.7784   21.0793  -20.0055 C   0  0  0  0  0  0  0  0  0  0  0  0
    5.0142   19.6667  -20.0713 N   0  0  0  0  0  0  0  0  0  0  0  0
    4.9455   19.1307  -21.4132 C   0  0  0  0  0  0  0  0  0  0  0  0
    3.8486   19.7800  -22.2295 C   0  0  0  0  0  0  0  0  0  0  0  0
    4.4439   19.1318  -19.3881 H   0  0  0  0  0  0  0  0  0  0  0  0
 24 25  1  0  0  0
 25 18  1  0  0  0
 18 19  2  0  0  0
 19 20  1  0  0  0
 20 26  1  0  0  0
 26 27  1  0  0  0
 20 21  2  0  0  0
 21 22  1  0  0  0
 22 23  2  0  0  0
 22 10  1  0  0  0
 10 11  1  0  0  0
 11 12  2  0  0  0
 12 13  1  0  0  0
 13 14  2  0  0  0
 14 15  1  0  0  0
 14 16  1  0  0  0
 16 17  2  0  0  0
 12  1  1  0  0  0
  1  2  2  0  0  0
  2  3  1  0  0  0
  3  4  2  0  0  0
  4  5  1  0  0  0
  5  6  2  0  0  0
  6  7  1  0  0  0
  3 28  1  0  0  0
 28 29  1  0  0  0
 29 30  2  0  0  0
 30 31  1  0  0  0
 31 32  1  0  0  0
 31 33  1  0  0  0
 33 34  1  0  0  0
 34 35  1  0  0  0
 35 36  1  0  0  0
 36 37  1  0  0  0
 37 38  1  0  0  0
 23 18  1  0  0  0
 16 10  1  0  0  0
  6  1  1  0  0  0
 32 28  2  0  0  0
 38 33  1  0  0  0
  7  8  1  0  0  0
  7  9  1  0  0  0
 36 39  1  0  0  0
M  END
> <minimizedAffinity>
-10.21338

> <CNNscore>
0.9044581056

> <CNNaffinity>
7.7389020920

> <CNN_VS>
6.9995126724

> <CNNaffinity_variance>
0.0438911393

$$$$
[H]c1nc(N([H])[H])c(-c2nn(-c3c([H])c(OC([H])([H])[H])c([H])c(OC([H])([H])[H])c3[H])c(=O)c(C([H])([H])[H])c2[H])c([H])c1-c1c([H])nn(C2([H])C([H])([H])C([H])([H])N([H])C([H])([H])C2([H])[H])c1[H]


 39 43  0  0  0  0  0  0  0  0999 V2000
   -1.6350   22.8229  -26.8124 C   0  0  0  0  0  0  0  0  0  0  0  0
   -1.2234   22.3721  -25.5432 C   0  0  0  0  0  0  0  0  0  0  0  0
    0.0859   22.1035  -25.2717 C   0  0  0  0  0  0  0  0  0  0  0  0
    0.9820   22.2961  -26.3026 C   0  0  0  0  0  0  0  0  0  0  0  0
    0.6081   22.7216  -27.5100 N   0  0  0  0  0  0  0  0  0  0  0  0
   -0.7106   22.9880  -27.7724 C   0  0  0  0  0  0  0  0  0  0  0  0
   -0.9900   23.4009  -29.1236 N   0  0  0  0  0  0  0  0  0  0  0  0
   -0.7030   24.3327  -29.4687 H   0  0  0  0  0  0  0  0  0  0  0  0
   -1.4899   22.7673  -29.7877 H   0  0  0  0  0  0  0  0  0  0  0  0
   -5.1289   23.4264  -25.9398 N   0  0  0  0  0  0  0  0  0  0  0  0
   -3.8627   23.1888  -25.9032 N   0  0  0  0  0  0  0  0  0  0  0  0
   -3.0561   23.0453  -27.0030 C   0  0  0  0  0  0  0  0  0  0  0  0
   -3.6638   23.1686  -28.2015 C   0  0  0  0  0  0  0  0  0  0  0  0
   -5.0396   23.4266  -28.3034 C   0  0  0  0  0  0  0  0  0  0  0  0
   -5.6768   23.5551  -29.6397 C   0  0  0  0  0  0  0  0  0  0  0  0
   -5.7383   23.5489  -27.1304 C   0  0  0  0  0  0  0  0  0  0  0  0
   -6.9914   23.7837  -27.1746 O   0  0  0  0  0  0  0  0  0  0  0  0
   -7.0518   22.5697  -22.8867 C   0  0  0  0  0  0  0  0  0  0  0  0
   -7.5090   23.8051  -22.4812 C   0  0  0  0  0  0  0  0  0  0  0  0
   -7.1909   24.9493  -23.2104 C   0  0  0  0  0  0  0  0  0  0  0  0
   -6.4084   24.7765  -24.3369 C   0  0  0  0  0  0  0  0  0  0  0  0
   -5.9420   23.5688  -24.7621 C   0  0  0  0  0  0  0  0  0  0  0  0
   -6.2757   22.4473  -24.0150 C   0  0  0  0  0  0  0  0  0  0  0  0
   -8.2292   21.5258  -21.0062 C   0  0  0  0  0  0  0  0  0  0  0  0
   -7.3860   21.4534  -22.1397 O   0  0  0  0  0  0  0  0  0  0  0  0
   -7.6547   26.1911  -22.7966 O   0  0  0  0  0  0  0  0  0  0  0  0
   -8.0651   26.3232  -21.4485 C   0  0  0  0  0  0  0  0  0  0  0  0
    0.5112   21.6393  -23.9581 C   0  0  0  0  0  0  0  0  0  0  0  0
    1.8115   21.3190  -23.6423 C   0  0  0  0  0  0  0  0  0  0  0  0
    1.8473   20.9217  -22.3370 N   0  0  0  0  0  0  0  0  0  0  0  0
    0.6302   20.9808  -21.8286 N   0  0  0  0  0  0  0  0  0  0  0  0
   -0.2125   21.4208  -22.8088 C   0  0  0  0  0  0  0  0  0  0  0  0
    0.2294   20.6428  -20.4743 C   0  0  0  0  0  0  0  0  0  0  0  0
    0.2535   19.1429  -20.2580 C   0  0  0  0  0  0  0  0  0  0  0  0
   -0.5575   18.7584  -19.0358 C   0  0  0  0  0  0  0  0  0  0  0  0
   -0.8172   19.8727  -18.1720 N   0  0  0  0  0  0  0  0  0  0  0  0
   -1.5824   20.9267  -18.8016 C   0  0  0  0  0  0  0  0  0  0  0  0
   -1.1837   21.1332  -20.2471 C   0  0  0  0  0  0  0  0  0  0  0  0
    0.0373   20.2182  -17.6937 H   0  0  0  0  0  0  0  0  0  0  0  0
 24 25  1  0  0  0
 25 18  1  0  0  0
 18 19  2  0  0  0
 19 20  1  0  0  0
 20 26  1  0  0  0
 26 27  1  0  0  0
 20 21  2  0  0  0
 21 22  1  0  0  0
 22 23  2  0  0  0
 22 10  1  0  0  0
 10 11  1  0  0  0
 11 12  2  0  0  0
 12 13  1  0  0  0
 13 14  2  0  0  0
 14 15  1  0  0  0
 14 16  1  0  0  0
 16 17  2  0  0  0
 12  1  1  0  0  0
  1  2  2  0  0  0
  2  3  1  0  0  0
  3  4  2  0  0  0
  4  5  1  0  0  0
  5  6  2  0  0  0
  6  7  1  0  0  0
  3 28  1  0  0  0
 28 29  1  0  0  0
 29 30  2  0  0  0
 30 31  1  0  0  0
 31 32  1  0  0  0
 31 33  1  0  0  0
 33 34  1  0  0  0
 34 35  1  0  0  0
 35 36  1  0  0  0
 36 37  1  0  0  0
 37 38  1  0  0  0
 23 18  1  0  0  0
 16 10  1  0  0  0
  6  1  1  0  0  0
 32 28  2  0  0  0
 38 33  1  0  0  0
  7  8  1  0  0  0
  7  9  1  0  0  0
 36 39  1  0  0  0
M  END
> <minimizedAffinity>
-10.03000

> <CNNscore>
0.8300347328

> <CNNaffinity>
7.7648391724

> <CNN_VS>
6.4450860023

> <CNNaffinity_variance>
0.0400839821

$$$$
[H]c1nc(N([H])[H])c(-c2nn(-c3c([H])c(OC([H])([H])[H])c([H])c(OC([H])([H])[H])c3[H])c(=O)c(C([H])([H])[H])c2[H])c([H])c1-c1c([H])nn(C2([H])C([H])([H])C([H])([H])N([H])C([H])([H])C2([H])[H])c1[H]


 39 43  0  0  0  0  0  0  0  0999 V2000
   -1.6205   22.7955  -26.7456 C   0  0  0  0  0  0  0  0  0  0  0  0
   -1.1970   22.3605  -25.4748 C   0  0  0  0  0  0  0  0  0  0  0  0
    0.1144   22.0926  -25.2131 C   0  0  0  0  0  0  0  0  0  0  0  0
    1.0004   22.2697  -26.2553 C   0  0  0  0  0  0  0  0  0  0  0  0
    0.6152   22.6802  -27.4644 N   0  0  0  0  0  0  0  0  0  0  0  0
   -0.7055   22.9461  -27.7170 C   0  0  0  0  0  0  0  0  0  0  0  0
   -0.9977   23.3419  -29.0706 N   0  0  0  0  0  0  0  0  0  0  0  0
   -0.7124   24.2684  -29.4307 H   0  0  0  0  0  0  0  0  0  0  0  0
   -1.5057   22.7007  -29.7212 H   0  0  0  0  0  0  0  0  0  0  0  0
   -5.1105   23.3791  -25.8441 N   0  0  0  0  0  0  0  0  0  0  0  0
   -3.8437   23.1431  -25.8184 N   0  0  0  0  0  0  0  0  0  0  0  0
   -3.0431   23.0186  -26.9248 C   0  0  0  0  0  0  0  0  0  0  0  0
   -3.6575   23.1600  -28.1178 C   0  0  0  0  0  0  0  0  0  0  0  0
   -5.0344   23.4173  -28.2078 C   0  0  0  0  0  0  0  0  0  0  0  0
   -5.6792   23.5661  -29.5384 C   0  0  0  0  0  0  0  0  0  0  0  0
   -5.7267   23.5196  -27.0292 C   0  0  0  0  0  0  0  0  0  0  0  0
   -6.9804   23.7530  -27.0627 O   0  0  0  0  0  0  0  0  0  0  0  0
   -7.0791   24.8891  -23.0879 C   0  0  0  0  0  0  0  0  0  0  0  0
   -7.4763   23.7766  -22.3779 C   0  0  0  0  0  0  0  0  0  0  0  0
   -7.1006   22.5014  -22.7961 C   0  0  0  0  0  0  0  0  0  0  0  0
   -6.3249   22.4201  -23.9375 C   0  0  0  0  0  0  0  0  0  0  0  0
   -5.9172   23.5014  -24.6598 C   0  0  0  0  0  0  0  0  0  0  0  0
   -6.3073   24.7584  -24.2182 C   0  0  0  0  0  0  0  0  0  0  0  0
   -7.9204   26.3702  -21.3240 C   0  0  0  0  0  0  0  0  0  0  0  0
   -7.4697   26.1411  -22.6452 O   0  0  0  0  0  0  0  0  0  0  0  0
   -7.5039   21.3845  -22.0764 O   0  0  0  0  0  0  0  0  0  0  0  0
   -8.2728   21.5988  -20.9075 C   0  0  0  0  0  0  0  0  0  0  0  0
    0.5520   21.6447  -23.8978 C   0  0  0  0  0  0  0  0  0  0  0  0
    1.8441   21.2736  -23.6052 C   0  0  0  0  0  0  0  0  0  0  0  0
    1.8956   20.9102  -22.2906 N   0  0  0  0  0  0  0  0  0  0  0  0
    0.6960   21.0386  -21.7543 N   0  0  0  0  0  0  0  0  0  0  0  0
   -0.1510   21.4905  -22.7255 C   0  0  0  0  0  0  0  0  0  0  0  0
    0.3153   20.7558  -20.3817 C   0  0  0  0  0  0  0  0  0  0  0  0
   -1.1529   21.0533  -20.1520 C   0  0  0  0  0  0  0  0  0  0  0  0
   -1.4546   21.1827  -18.6716 C   0  0  0  0  0  0  0  0  0  0  0  0
   -0.4232   20.6250  -17.8467 N   0  0  0  0  0  0  0  0  0  0  0  0
    0.8625   21.2666  -18.0151 C   0  0  0  0  0  0  0  0  0  0  0  0
    1.1288   21.6361  -19.4586 C   0  0  0  0  0  0  0  0  0  0  0  0
   -0.3743   19.5897  -17.9091 H   0  0  0  0  0  0  0  0  0  0  0  0
 24 25  1  0  0  0
 25 18  1  0  0  0
 18 19  2  0  0  0
 19 20  1  0  0  0
 20 26  1  0  0  0
 26 27  1  0  0  0
 20 21  2  0  0  0
 21 22  1  0  0  0
 22 23  2  0  0  0
 22 10  1  0  0  0
 10 11  1  0  0  0
 11 12  2  0  0  0
 12 13  1  0  0  0
 13 14  2  0  0  0
 14 15  1  0  0  0
 14 16  1  0  0  0
 16 17  2  0  0  0
 12  1  1  0  0  0
  1  2  2  0  0  0
  2  3  1  0  0  0
  3  4  2  0  0  0
  4  5  1  0  0  0
  5  6  2  0  0  0
  6  7  1  0  0  0
  3 28  1  0  0  0
 28 29  1  0  0  0
 29 30  2  0  0  0
 30 31  1  0  0  0
 31 32  1  0  0  0
 31 33  1  0  0  0
 33 34  1  0  0  0
 34 35  1  0  0  0
 35 36  1  0  0  0
 36 37  1  0  0  0
 37 38  1  0  0  0
 23 18  1  0  0  0
 16 10  1  0  0  0
  6  1  1  0  0  0
 32 28  2  0  0  0
 38 33  1  0  0  0
  7  8  1  0  0  0
  7  9  1  0  0  0
 36 39  1  0  0  0
M  END
> <minimizedAffinity>
-9.98994

> <CNNscore>
0.8086673021

> <CNNaffinity>
7.7020735741

> <CNN_VS>
6.2284150124

> <CNNaffinity_variance>
0.0382323265

$$$$
[H]c1nc(N([H])[H])c(-c2nn(-c3c([H])c(OC([H])([H])[H])c([H])c(OC([H])([H])[H])c3[H])c(=O)c(C([H])([H])[H])c2[H])c([H])c1-c1c([H])nn(C2([H])C([H])([H])C([H])([H])N([H])C([H])([H])C2([H])[H])c1[H]


 39 43  0  0  0  0  0  0  0  0999 V2000
   -0.4959   21.8608  -24.0170 C   0  0  0  0  0  0  0  0  0  0  0  0
   -1.7143   22.2623  -24.5981 C   0  0  0  0  0  0  0  0  0  0  0  0
   -1.7933   22.6256  -25.9103 C   0  0  0  0  0  0  0  0  0  0  0  0
   -0.6207   22.5790  -26.6351 C   0  0  0  0  0  0  0  0  0  0  0  0
    0.5411   22.2020  -26.0996 N   0  0  0  0  0  0  0  0  0  0  0  0
    0.6095   21.8394  -24.7795 C   0  0  0  0  0  0  0  0  0  0  0  0
    1.9269   21.4925  -24.3120 N   0  0  0  0  0  0  0  0  0  0  0  0
    2.3852   20.6136  -24.6071 H   0  0  0  0  0  0  0  0  0  0  0  0
    2.4508   22.1220  -23.6627 H   0  0  0  0  0  0  0  0  0  0  0  0
    0.0419   19.9172  -20.9730 N   0  0  0  0  0  0  0  0  0  0  0  0
   -0.0280   20.3141  -22.1972 N   0  0  0  0  0  0  0  0  0  0  0  0
   -0.5179   21.5284  -22.6048 C   0  0  0  0  0  0  0  0  0  0  0  0
   -0.9517   22.3494  -21.6257 C   0  0  0  0  0  0  0  0  0  0  0  0
   -0.9008   21.9711  -20.2750 C   0  0  0  0  0  0  0  0  0  0  0  0
   -1.3884   22.8996  -19.2222 C   0  0  0  0  0  0  0  0  0  0  0  0
   -0.3895   20.7305  -19.9950 C   0  0  0  0  0  0  0  0  0  0  0  0
   -0.3238   20.3444  -18.7809 O   0  0  0  0  0  0  0  0  0  0  0  0
    0.1819   16.4225  -19.7400 C   0  0  0  0  0  0  0  0  0  0  0  0
    1.5284   16.1421  -19.8289 C   0  0  0  0  0  0  0  0  0  0  0  0
    2.4200   17.1045  -20.2989 C   0  0  0  0  0  0  0  0  0  0  0  0
    1.8872   18.3273  -20.6621 C   0  0  0  0  0  0  0  0  0  0  0  0
    0.5616   18.6334  -20.5854 C   0  0  0  0  0  0  0  0  0  0  0  0
   -0.3019   17.6542  -20.1132 C   0  0  0  0  0  0  0  0  0  0  0  0
   -2.0389   15.3873  -19.6458 C   0  0  0  0  0  0  0  0  0  0  0  0
   -0.6766   15.4442  -19.2690 O   0  0  0  0  0  0  0  0  0  0  0  0
    3.7754   16.8158  -20.3861 O   0  0  0  0  0  0  0  0  0  0  0  0
    4.5585   17.5987  -21.2677 C   0  0  0  0  0  0  0  0  0  0  0  0
   -3.0544   23.0386  -26.5111 C   0  0  0  0  0  0  0  0  0  0  0  0
   -4.2800   22.8799  -25.9063 C   0  0  0  0  0  0  0  0  0  0  0  0
   -5.2366   23.3709  -26.7469 N   0  0  0  0  0  0  0  0  0  0  0  0
   -4.6617   23.8267  -27.8446 N   0  0  0  0  0  0  0  0  0  0  0  0
   -3.3153   23.6334  -27.7238 C   0  0  0  0  0  0  0  0  0  0  0  0
   -5.3178   24.4288  -28.9918 C   0  0  0  0  0  0  0  0  0  0  0  0
   -5.6092   23.3920  -30.0581 C   0  0  0  0  0  0  0  0  0  0  0  0
   -5.8805   24.0520  -31.3961 C   0  0  0  0  0  0  0  0  0  0  0  0
   -6.1836   25.4478  -31.2723 N   0  0  0  0  0  0  0  0  0  0  0  0
   -5.1089   26.2240  -30.6932 C   0  0  0  0  0  0  0  0  0  0  0  0
   -4.4003   25.4756  -29.5846 C   0  0  0  0  0  0  0  0  0  0  0  0
   -7.1021   25.6211  -30.8203 H   0  0  0  0  0  0  0  0  0  0  0  0
 24 25  1  0  0  0
 25 18  1  0  0  0
 18 19  2  0  0  0
 19 20  1  0  0  0
 20 26  1  0  0  0
 26 27  1  0  0  0
 20 21  2  0  0  0
 21 22  1  0  0  0
 22 23  2  0  0  0
 22 10  1  0  0  0
 10 11  1  0  0  0
 11 12  2  0  0  0
 12 13  1  0  0  0
 13 14  2  0  0  0
 14 15  1  0  0  0
 14 16  1  0  0  0
 16 17  2  0  0  0
 12  1  1  0  0  0
  1  2  2  0  0  0
  2  3  1  0  0  0
  3  4  2  0  0  0
  4  5  1  0  0  0
  5  6  2  0  0  0
  6  7  1  0  0  0
  3 28  1  0  0  0
 28 29  1  0  0  0
 29 30  2  0  0  0
 30 31  1  0  0  0
 31 32  1  0  0  0
 31 33  1  0  0  0
 33 34  1  0  0  0
 34 35  1  0  0  0
 35 36  1  0  0  0
 36 37  1  0  0  0
 37 38  1  0  0  0
 23 18  1  0  0  0
 16 10  1  0  0  0
  6  1  1  0  0  0
 32 28  2  0  0  0
 38 33  1  0  0  0
  7  8  1  0  0  0
  7  9  1  0  0  0
 36 39  1  0  0  0
M  END
> <minimizedAffinity>
-9.07182

> <CNNscore>
0.3234186172

> <CNNaffinity>
7.0096559525

> <CNN_VS>
2.2670531273

> <CNNaffinity_variance>
0.1496253312

$$$$
[H]c1nc(N([H])[H])c(-c2nn(-c3c([H])c(OC([H])([H])[H])c([H])c(OC([H])([H])[H])c3[H])c(=O)c(C([H])([H])[H])c2[H])c([H])c1-c1c([H])nn(C2([H])C([H])([H])C([H])([H])N([H])C([H])([H])C2([H])[H])c1[H]


 39 43  0  0  0  0  0  0  0  0999 V2000
   -1.7410   22.3960  -25.1864 C   0  0  0  0  0  0  0  0  0  0  0  0
   -1.5473   21.9874  -23.8527 C   0  0  0  0  0  0  0  0  0  0  0  0
   -0.3145   21.6378  -23.3857 C   0  0  0  0  0  0  0  0  0  0  0  0
    0.7284   21.7054  -24.2859 C   0  0  0  0  0  0  0  0  0  0  0  0
    0.5613   22.0895  -25.5521 N   0  0  0  0  0  0  0  0  0  0  0  0
   -0.6822   22.4381  -26.0114 C   0  0  0  0  0  0  0  0  0  0  0  0
   -0.7371   22.7946  -27.4058 N   0  0  0  0  0  0  0  0  0  0  0  0
   -0.3302   23.6817  -27.7477 H   0  0  0  0  0  0  0  0  0  0  0  0
   -1.1902   22.1639  -28.1052 H   0  0  0  0  0  0  0  0  0  0  0  0
   -5.2818   23.2207  -24.8457 N   0  0  0  0  0  0  0  0  0  0  0  0
   -4.0538   22.9004  -24.6209 N   0  0  0  0  0  0  0  0  0  0  0  0
   -3.0992   22.7124  -25.5874 C   0  0  0  0  0  0  0  0  0  0  0  0
   -3.5071   22.8841  -26.8621 C   0  0  0  0  0  0  0  0  0  0  0  0
   -4.8319   23.2325  -27.1678 C   0  0  0  0  0  0  0  0  0  0  0  0
   -5.2476   23.4123  -28.5831 C   0  0  0  0  0  0  0  0  0  0  0  0
   -5.6927   23.3917  -26.1129 C   0  0  0  0  0  0  0  0  0  0  0  0
   -6.9068   23.7085  -26.3433 O   0  0  0  0  0  0  0  0  0  0  0  0
   -7.6420   22.4771  -22.0837 C   0  0  0  0  0  0  0  0  0  0  0  0
   -8.1324   23.7295  -21.7822 C   0  0  0  0  0  0  0  0  0  0  0  0
   -7.6923   24.8481  -22.4873 C   0  0  0  0  0  0  0  0  0  0  0  0
   -6.7576   24.6328  -23.4828 C   0  0  0  0  0  0  0  0  0  0  0  0
   -6.2548   23.4075  -23.8033 C   0  0  0  0  0  0  0  0  0  0  0  0
   -6.7125   22.3123  -23.0833 C   0  0  0  0  0  0  0  0  0  0  0  0
   -8.1899   21.3958  -19.9522 C   0  0  0  0  0  0  0  0  0  0  0  0
   -8.1002   21.3872  -21.3640 O   0  0  0  0  0  0  0  0  0  0  0  0
   -8.1902   26.1071  -22.1788 O   0  0  0  0  0  0  0  0  0  0  0  0
   -9.3794   26.1739  -21.4141 C   0  0  0  0  0  0  0  0  0  0  0  0
   -0.1145   21.2173  -22.0054 C   0  0  0  0  0  0  0  0  0  0  0  0
   -0.3404   22.0279  -20.9168 C   0  0  0  0  0  0  0  0  0  0  0  0
   -0.0501   21.3167  -19.7886 N   0  0  0  0  0  0  0  0  0  0  0  0
    0.3452   20.1031  -20.1266 N   0  0  0  0  0  0  0  0  0  0  0  0
    0.3141   20.0165  -21.4890 C   0  0  0  0  0  0  0  0  0  0  0  0
    0.7486   19.0325  -19.2322 C   0  0  0  0  0  0  0  0  0  0  0  0
    1.5027   19.5779  -18.0360 C   0  0  0  0  0  0  0  0  0  0  0  0
    2.2882   18.4808  -17.3442 C   0  0  0  0  0  0  0  0  0  0  0  0
    1.8460   17.1679  -17.7131 N   0  0  0  0  0  0  0  0  0  0  0  0
    1.9883   16.8849  -19.1246 C   0  0  0  0  0  0  0  0  0  0  0  0
    1.6640   18.0896  -19.9816 C   0  0  0  0  0  0  0  0  0  0  0  0
    0.9015   16.9437  -17.3447 H   0  0  0  0  0  0  0  0  0  0  0  0
 24 25  1  0  0  0
 25 18  1  0  0  0
 18 19  2  0  0  0
 19 20  1  0  0  0
 20 26  1  0  0  0
 26 27  1  0  0  0
 20 21  2  0  0  0
 21 22  1  0  0  0
 22 23  2  0  0  0
 22 10  1  0  0  0
 10 11  1  0  0  0
 11 12  2  0  0  0
 12 13  1  0  0  0
 13 14  2  0  0  0
 14 15  1  0  0  0
 14 16  1  0  0  0
 16 17  2  0  0  0
 12  1  1  0  0  0
  1  2  2  0  0  0
  2  3  1  0  0  0
  3  4  2  0  0  0
  4  5  1  0  0  0
  5  6  2  0  0  0
  6  7  1  0  0  0
  3 28  1  0  0  0
 28 29  1  0  0  0
 29 30  2  0  0  0
 30 31  1  0  0  0
 31 32  1  0  0  0
 31 33  1  0  0  0
 33 34  1  0  0  0
 34 35  1  0  0  0
 35 36  1  0  0  0
 36 37  1  0  0  0
 37 38  1  0  0  0
 23 18  1  0  0  0
 16 10  1  0  0  0
  6  1  1  0  0  0
 32 28  2  0  0  0
 38 33  1  0  0  0
  7  8  1  0  0  0
  7  9  1  0  0  0
 36 39  1  0  0  0
M  END
> <minimizedAffinity>
-8.56992

> <CNNscore>
0.2983451188

> <CNNaffinity>
7.0468168259

> <CNN_VS>
2.1023833752

> <CNNaffinity_variance>
0.4097921252

$$$$
[H]c1nc(N([H])[H])c(-c2nn(-c3c([H])c(OC([H])([H])[H])c([H])c(OC([H])([H])[H])c3[H])c(=O)c(C([H])([H])[H])c2[H])c([H])c1-c1c([H])nn(C2([H])C([H])([H])C([H])([H])N([H])C([H])([H])C2([H])[H])c1[H]


 39 43  0  0  0  0  0  0  0  0999 V2000
   -0.4617   21.8189  -23.7982 C   0  0  0  0  0  0  0  0  0  0  0  0
   -1.6735   22.2192  -24.3937 C   0  0  0  0  0  0  0  0  0  0  0  0
   -1.7578   22.4890  -25.7279 C   0  0  0  0  0  0  0  0  0  0  0  0
   -0.5972   22.3497  -26.4602 C   0  0  0  0  0  0  0  0  0  0  0  0
    0.5583   21.9726  -25.9112 N   0  0  0  0  0  0  0  0  0  0  0  0
    0.6320   21.7043  -24.5691 C   0  0  0  0  0  0  0  0  0  0  0  0
    1.9431   21.3468  -24.0919 N   0  0  0  0  0  0  0  0  0  0  0  0
    2.3676   20.4336  -24.3273 H   0  0  0  0  0  0  0  0  0  0  0  0
    2.4966   22.0032  -23.4960 H   0  0  0  0  0  0  0  0  0  0  0  0
    0.8348   21.3525  -20.4167 N   0  0  0  0  0  0  0  0  0  0  0  0
    0.7150   21.5144  -21.6897 N   0  0  0  0  0  0  0  0  0  0  0  0
   -0.4760   21.5906  -22.3654 C   0  0  0  0  0  0  0  0  0  0  0  0
   -1.5905   21.4857  -21.6120 C   0  0  0  0  0  0  0  0  0  0  0  0
   -1.5219   21.3078  -20.2214 C   0  0  0  0  0  0  0  0  0  0  0  0
   -2.7696   21.1947  -19.4222 C   0  0  0  0  0  0  0  0  0  0  0  0
   -0.2717   21.2466  -19.6628 C   0  0  0  0  0  0  0  0  0  0  0  0
   -0.1610   21.0859  -18.4021 O   0  0  0  0  0  0  0  0  0  0  0  0
    4.0449   20.0063  -19.1378 C   0  0  0  0  0  0  0  0  0  0  0  0
    4.5589   21.0903  -18.4591 C   0  0  0  0  0  0  0  0  0  0  0  0
    3.8534   22.2911  -18.4097 C   0  0  0  0  0  0  0  0  0  0  0  0
    2.6372   22.3302  -19.0658 C   0  0  0  0  0  0  0  0  0  0  0  0
    2.1039   21.2757  -19.7445 C   0  0  0  0  0  0  0  0  0  0  0  0
    2.8300   20.0929  -19.7758 C   0  0  0  0  0  0  0  0  0  0  0  0
    4.6181   17.8704  -20.1968 C   0  0  0  0  0  0  0  0  0  0  0  0
    4.7713   18.8285  -19.1674 O   0  0  0  0  0  0  0  0  0  0  0  0
    4.3767   23.3794  -17.7243 O   0  0  0  0  0  0  0  0  0  0  0  0
    3.4980   24.4451  -17.4148 C   0  0  0  0  0  0  0  0  0  0  0  0
   -3.0122   22.9008  -26.3435 C   0  0  0  0  0  0  0  0  0  0  0  0
   -4.2505   22.6636  -25.7926 C   0  0  0  0  0  0  0  0  0  0  0  0
   -5.1957   23.1787  -26.6318 N   0  0  0  0  0  0  0  0  0  0  0  0
   -4.6016   23.7242  -27.6771 N   0  0  0  0  0  0  0  0  0  0  0  0
   -3.2540   23.5661  -27.5230 C   0  0  0  0  0  0  0  0  0  0  0  0
   -5.2405   24.3799  -28.8044 C   0  0  0  0  0  0  0  0  0  0  0  0
   -5.5850   23.3812  -29.8910 C   0  0  0  0  0  0  0  0  0  0  0  0
   -5.8385   24.0826  -31.2113 C   0  0  0  0  0  0  0  0  0  0  0  0
   -6.0802   25.4869  -31.0535 N   0  0  0  0  0  0  0  0  0  0  0  0
   -4.9684   26.2028  -30.4669 C   0  0  0  0  0  0  0  0  0  0  0  0
   -4.2837   25.3997  -29.3819 C   0  0  0  0  0  0  0  0  0  0  0  0
   -6.9867   25.6890  -30.5893 H   0  0  0  0  0  0  0  0  0  0  0  0
 24 25  1  0  0  0
 25 18  1  0  0  0
 18 19  2  0  0  0
 19 20  1  0  0  0
 20 26  1  0  0  0
 26 27  1  0  0  0
 20 21  2  0  0  0
 21 22  1  0  0  0
 22 23  2  0  0  0
 22 10  1  0  0  0
 10 11  1  0  0  0
 11 12  2  0  0  0
 12 13  1  0  0  0
 13 14  2  0  0  0
 14 15  1  0  0  0
 14 16  1  0  0  0
 16 17  2  0  0  0
 12  1  1  0  0  0
  1  2  2  0  0  0
  2  3  1  0  0  0
  3  4  2  0  0  0
  4  5  1  0  0  0
  5  6  2  0  0  0
  6  7  1  0  0  0
  3 28  1  0  0  0
 28 29  1  0  0  0
 29 30  2  0  0  0
 30 31  1  0  0  0
 31 32  1  0  0  0
 31 33  1  0  0  0
 33 34  1  0  0  0
 34 35  1  0  0  0
 35 36  1  0  0  0
 36 37  1  0  0  0
 37 38  1  0  0  0
 23 18  1  0  0  0
 16 10  1  0  0  0
  6  1  1  0  0  0
 32 28  2  0  0  0
 38 33  1  0  0  0
  7  8  1  0  0  0
  7  9  1  0  0  0
 36 39  1  0  0  0
M  END
> <minimizedAffinity>
-9.14874

> <CNNscore>
0.2899699807

> <CNNaffinity>
7.1093049049

> <CNN_VS>
2.0614850521

> <CNNaffinity_variance>
0.3806062043

$$$$
[H]c1nc(N([H])[H])c(-c2nn(-c3c([H])c(OC([H])([H])[H])c([H])c(OC([H])([H])[H])c3[H])c(=O)c(C([H])([H])[H])c2[H])c([H])c1-c1c([H])nn(C2([H])C([H])([H])C([H])([H])N([H])C([H])([H])C2([H])[H])c1[H]


 39 43  0  0  0  0  0  0  0  0999 V2000
   -0.4543   21.7759  -23.9372 C   0  0  0  0  0  0  0  0  0  0  0  0
   -1.6691   22.1760  -24.5268 C   0  0  0  0  0  0  0  0  0  0  0  0
   -1.7386   22.5433  -25.8384 C   0  0  0  0  0  0  0  0  0  0  0  0
   -0.5600   22.5022  -26.5539 C   0  0  0  0  0  0  0  0  0  0  0  0
    0.5984   22.1266  -26.0103 N   0  0  0  0  0  0  0  0  0  0  0  0
    0.6572   21.7599  -24.6908 C   0  0  0  0  0  0  0  0  0  0  0  0
    1.9717   21.4150  -24.2139 N   0  0  0  0  0  0  0  0  0  0  0  0
    2.4348   20.5383  -24.5081 H   0  0  0  0  0  0  0  0  0  0  0  0
    2.4888   22.0438  -23.5584 H   0  0  0  0  0  0  0  0  0  0  0  0
    0.0644   19.8240  -20.8951 N   0  0  0  0  0  0  0  0  0  0  0  0
    0.0032   20.2246  -22.1186 N   0  0  0  0  0  0  0  0  0  0  0  0
   -0.4867   21.4389  -22.5263 C   0  0  0  0  0  0  0  0  0  0  0  0
   -0.9305   22.2556  -21.5480 C   0  0  0  0  0  0  0  0  0  0  0  0
   -0.8895   21.8732  -20.1982 C   0  0  0  0  0  0  0  0  0  0  0  0
   -1.3880   22.7970  -19.1464 C   0  0  0  0  0  0  0  0  0  0  0  0
   -0.3771   20.6330  -19.9181 C   0  0  0  0  0  0  0  0  0  0  0  0
   -0.3200   20.2433  -18.7047 O   0  0  0  0  0  0  0  0  0  0  0  0
    2.4673   17.1247  -20.0630 C   0  0  0  0  0  0  0  0  0  0  0  0
    1.6253   16.0760  -19.7612 C   0  0  0  0  0  0  0  0  0  0  0  0
    0.2429   16.2397  -19.8269 C   0  0  0  0  0  0  0  0  0  0  0  0
   -0.2229   17.4856  -20.2034 C   0  0  0  0  0  0  0  0  0  0  0  0
    0.5844   18.5405  -20.5075 C   0  0  0  0  0  0  0  0  0  0  0  0
    1.9571   18.3467  -20.4330 C   0  0  0  0  0  0  0  0  0  0  0  0
    4.4854   15.8649  -20.6565 C   0  0  0  0  0  0  0  0  0  0  0  0
    3.8354   16.9285  -19.9878 O   0  0  0  0  0  0  0  0  0  0  0  0
   -0.5999   15.1792  -19.5216 O   0  0  0  0  0  0  0  0  0  0  0  0
   -1.9833   15.4534  -19.4007 C   0  0  0  0  0  0  0  0  0  0  0  0
   -2.9959   22.9549  -26.4480 C   0  0  0  0  0  0  0  0  0  0  0  0
   -4.2297   22.7459  -25.8760 C   0  0  0  0  0  0  0  0  0  0  0  0
   -5.1795   23.2516  -26.7156 N   0  0  0  0  0  0  0  0  0  0  0  0
   -4.5926   23.7645  -27.7813 N   0  0  0  0  0  0  0  0  0  0  0  0
   -3.2451   23.5941  -27.6403 C   0  0  0  0  0  0  0  0  0  0  0  0
   -5.2383   24.4002  -28.9162 C   0  0  0  0  0  0  0  0  0  0  0  0
   -5.6181   23.3781  -29.9688 C   0  0  0  0  0  0  0  0  0  0  0  0
   -5.8809   24.0472  -31.3040 C   0  0  0  0  0  0  0  0  0  0  0  0
   -6.0952   25.4594  -31.1817 N   0  0  0  0  0  0  0  0  0  0  0  0
   -4.9615   26.1712  -30.6331 C   0  0  0  0  0  0  0  0  0  0  0  0
   -4.2733   25.3862  -29.5371 C   0  0  0  0  0  0  0  0  0  0  0  0
   -6.9903   25.6906  -30.7090 H   0  0  0  0  0  0  0  0  0  0  0  0
 24 25  1  0  0  0
 25 18  1  0  0  0
 18 19  2  0  0  0
 19 20  1  0  0  0
 20 26  1  0  0  0
 26 27  1  0  0  0
 20 21  2  0  0  0
 21 22  1  0  0  0
 22 23  2  0  0  0
 22 10  1  0  0  0
 10 11  1  0  0  0
 11 12  2  0  0  0
 12 13  1  0  0  0
 13 14  2  0  0  0
 14 15  1  0  0  0
 14 16  1  0  0  0
 16 17  2  0  0  0
 12  1  1  0  0  0
  1  2  2  0  0  0
  2  3  1  0  0  0
  3  4  2  0  0  0
  4  5  1  0  0  0
  5  6  2  0  0  0
  6  7  1  0  0  0
  3 28  1  0  0  0
 28 29  1  0  0  0
 29 30  2  0  0  0
 30 31  1  0  0  0
 31 32  1  0  0  0
 31 33  1  0  0  0
 33 34  1  0  0  0
 34 35  1  0  0  0
 35 36  1  0  0  0
 36 37  1  0  0  0
 37 38  1  0  0  0
 23 18  1  0  0  0
 16 10  1  0  0  0
  6  1  1  0  0  0
 32 28  2  0  0  0
 38 33  1  0  0  0
  7  8  1  0  0  0
  7  9  1  0  0  0
 36 39  1  0  0  0
M  END
> <minimizedAffinity>
-9.07147

> <CNNscore>
0.2554944158

> <CNNaffinity>
6.9183249474

> <CNN_VS>
1.7675933838

> <CNNaffinity_variance>
0.1694070995

$$$$
[H]c1nc(N([H])[H])c(-c2nn(-c3c([H])c(OC([H])([H])[H])c([H])c(OC([H])([H])[H])c3[H])c(=O)c(C([H])([H])[H])c2[H])c([H])c1-c1c([H])nn(C2([H])C([H])([H])C([H])([H])N([H])C([H])([H])C2([H])[H])c1[H]


 39 43  0  0  0  0  0  0  0  0999 V2000
   -0.5558   21.7125  -23.2614 C   0  0  0  0  0  0  0  0  0  0  0  0
   -0.0230   21.4154  -21.9921 C   0  0  0  0  0  0  0  0  0  0  0  0
    1.2944   21.1037  -21.8265 C   0  0  0  0  0  0  0  0  0  0  0  0
    2.0741   21.0950  -22.9643 C   0  0  0  0  0  0  0  0  0  0  0  0
    1.5848   21.3731  -24.1734 N   0  0  0  0  0  0  0  0  0  0  0  0
    0.2590   21.6845  -24.3286 C   0  0  0  0  0  0  0  0  0  0  0  0
   -0.1539   21.9244  -25.6875 N   0  0  0  0  0  0  0  0  0  0  0  0
    0.1359   22.7796  -26.1917 H   0  0  0  0  0  0  0  0  0  0  0  0
   -0.7568   21.2386  -26.1960 H   0  0  0  0  0  0  0  0  0  0  0  0
   -3.7231   22.9051  -24.6319 N   0  0  0  0  0  0  0  0  0  0  0  0
   -2.4791   22.6308  -24.4363 N   0  0  0  0  0  0  0  0  0  0  0  0
   -1.9771   21.9967  -23.3288 C   0  0  0  0  0  0  0  0  0  0  0  0
   -2.8797   21.6444  -22.3896 C   0  0  0  0  0  0  0  0  0  0  0  0
   -4.2473   21.9175  -22.5476 C   0  0  0  0  0  0  0  0  0  0  0  0
   -5.2140   21.5166  -21.4926 C   0  0  0  0  0  0  0  0  0  0  0  0
   -4.6251   22.5573  -23.6995 C   0  0  0  0  0  0  0  0  0  0  0  0
   -5.8582   22.8258  -23.8860 O   0  0  0  0  0  0  0  0  0  0  0  0
   -4.9427   25.5876  -26.8834 C   0  0  0  0  0  0  0  0  0  0  0  0
   -5.1525   24.9000  -28.0594 C   0  0  0  0  0  0  0  0  0  0  0  0
   -4.8949   23.5324  -28.1325 C   0  0  0  0  0  0  0  0  0  0  0  0
   -4.4278   22.9209  -26.9841 C   0  0  0  0  0  0  0  0  0  0  0  0
   -4.2109   23.5740  -25.8079 C   0  0  0  0  0  0  0  0  0  0  0  0
   -4.4767   24.9360  -25.7660 C   0  0  0  0  0  0  0  0  0  0  0  0
   -5.3661   27.6516  -25.6292 C   0  0  0  0  0  0  0  0  0  0  0  0
   -5.2085   26.9455  -26.8448 O   0  0  0  0  0  0  0  0  0  0  0  0
   -5.1083   22.8453  -29.3202 O   0  0  0  0  0  0  0  0  0  0  0  0
   -5.5575   23.5889  -30.4377 C   0  0  0  0  0  0  0  0  0  0  0  0
    1.8452   20.7987  -20.5129 C   0  0  0  0  0  0  0  0  0  0  0  0
    2.1185   19.5238  -20.0736 C   0  0  0  0  0  0  0  0  0  0  0  0
    2.6177   19.6079  -18.8061 N   0  0  0  0  0  0  0  0  0  0  0  0
    2.6669   20.8752  -18.4389 N   0  0  0  0  0  0  0  0  0  0  0  0
    2.1957   21.6302  -19.4746 C   0  0  0  0  0  0  0  0  0  0  0  0
    3.1317   21.4014  -17.1677 C   0  0  0  0  0  0  0  0  0  0  0  0
    2.6600   22.8272  -16.9638 C   0  0  0  0  0  0  0  0  0  0  0  0
    3.4744   23.5190  -15.8879 C   0  0  0  0  0  0  0  0  0  0  0  0
    4.2009   22.5962  -15.0657 N   0  0  0  0  0  0  0  0  0  0  0  0
    5.1628   21.8020  -15.7984 C   0  0  0  0  0  0  0  0  0  0  0  0
    4.6446   21.3957  -17.1612 C   0  0  0  0  0  0  0  0  0  0  0  0
    3.5819   22.0279  -14.4559 H   0  0  0  0  0  0  0  0  0  0  0  0
 24 25  1  0  0  0
 25 18  1  0  0  0
 18 19  2  0  0  0
 19 20  1  0  0  0
 20 26  1  0  0  0
 26 27  1  0  0  0
 20 21  2  0  0  0
 21 22  1  0  0  0
 22 23  2  0  0  0
 22 10  1  0  0  0
 10 11  1  0  0  0
 11 12  2  0  0  0
 12 13  1  0  0  0
 13 14  2  0  0  0
 14 15  1  0  0  0
 14 16  1  0  0  0
 16 17  2  0  0  0
 12  1  1  0  0  0
  1  2  2  0  0  0
  2  3  1  0  0  0
  3  4  2  0  0  0
  4  5  1  0  0  0
  5  6  2  0  0  0
  6  7  1  0  0  0
  3 28  1  0  0  0
 28 29  1  0  0  0
 29 30  2  0  0  0
 30 31  1  0  0  0
 31 32  1  0  0  0
 31 33  1  0  0  0
 33 34  1  0  0  0
 34 35  1  0  0  0
 35 36  1  0  0  0
 36 37  1  0  0  0
 37 38  1  0  0  0
 23 18  1  0  0  0
 16 10  1  0  0  0
  6  1  1  0  0  0
 32 28  2  0  0  0
 38 33  1  0  0  0
  7  8  1  0  0  0
  7  9  1  0  0  0
 36 39  1  0  0  0
M  END
> <minimizedAffinity>
-7.66136

> <CNNscore>
0.2360664457

> <CNNaffinity>
6.9015593529

> <CNN_VS>
1.6292265654

> <CNNaffinity_variance>
0.3100275695

$$$$
[H]c1nc2c([H])c([H])c(N(c3c(F)c(OC([H])([H])[H])c([H])c(OC([H])([H])[H])c3F)C([H])([H])C([H])([H])N([H])C([H])(C([H])([H])[H])C([H])([H])[H])nc2c([H])c1-c1c([H])nn(C([H])([H])[H])c1[H]


 36 39  0  0  0  0  0  0  0  0999 V2000
   -1.8820   21.6533  -21.8215 N   0  0  0  0  0  0  0  0  0  0  0  0
   -1.6722   21.9010  -23.1861 C   0  0  0  0  0  0  0  0  0  0  0  0
   -0.3948   21.6794  -23.6739 C   0  0  0  0  0  0  0  0  0  0  0  0
   -0.0242   21.8883  -24.9728 C   0  0  0  0  0  0  0  0  0  0  0  0
   -0.9637   22.3470  -25.8663 C   0  0  0  0  0  0  0  0  0  0  0  0
   -0.6383   22.5641  -27.1735 N   0  0  0  0  0  0  0  0  0  0  0  0
   -1.5927   23.0045  -27.9997 C   0  0  0  0  0  0  0  0  0  0  0  0
   -2.8915   23.2489  -27.5888 C   0  0  0  0  0  0  0  0  0  0  0  0
   -3.2235   23.0315  -26.2705 C   0  0  0  0  0  0  0  0  0  0  0  0
   -2.2419   22.5745  -25.4026 C   0  0  0  0  0  0  0  0  0  0  0  0
   -2.5581   22.3477  -24.0891 N   0  0  0  0  0  0  0  0  0  0  0  0
   -3.9197   23.7222  -28.5099 C   0  0  0  0  0  0  0  0  0  0  0  0
   -5.1670   23.1564  -28.6642 C   0  0  0  0  0  0  0  0  0  0  0  0
   -5.8363   23.8740  -29.6028 N   0  0  0  0  0  0  0  0  0  0  0  0
   -5.0737   24.8579  -30.0435 N   0  0  0  0  0  0  0  0  0  0  0  0
   -5.4327   25.8502  -31.0548 C   0  0  0  0  0  0  0  0  0  0  0  0
   -3.8914   24.7826  -29.3852 C   0  0  0  0  0  0  0  0  0  0  0  0
    0.9737   20.0754  -19.9642 C   0  0  0  0  0  0  0  0  0  0  0  0
    1.4138   21.1253  -19.2227 C   0  0  0  0  0  0  0  0  0  0  0  0
    0.8051   22.3405  -19.3092 C   0  0  0  0  0  0  0  0  0  0  0  0
   -0.2746   22.5026  -20.1642 C   0  0  0  0  0  0  0  0  0  0  0  0
   -0.8408   23.7425  -20.2237 F   0  0  0  0  0  0  0  0  0  0  0  0
   -0.7703   21.4768  -20.9427 C   0  0  0  0  0  0  0  0  0  0  0  0
   -0.1019   20.2529  -20.8105 C   0  0  0  0  0  0  0  0  0  0  0  0
   -0.4875   19.1728  -21.5439 F   0  0  0  0  0  0  0  0  0  0  0  0
    2.8877   18.6868  -20.3819 C   0  0  0  0  0  0  0  0  0  0  0  0
    1.5727   18.8469  -19.8910 O   0  0  0  0  0  0  0  0  0  0  0  0
    1.2058   23.4547  -18.5787 O   0  0  0  0  0  0  0  0  0  0  0  0
    2.4760   23.6678  -18.0484 C   0  0  0  0  0  0  0  0  0  0  0  0
   -3.2526   21.6132  -21.3796 C   0  0  0  0  0  0  0  0  0  0  0  0
   -3.8602   22.9022  -20.9453 C   0  0  0  0  0  0  0  0  0  0  0  0
   -3.5183   24.0747  -21.6573 N   0  0  0  0  0  0  0  0  0  0  0  0
   -3.0267   24.7963  -21.1257 H   0  0  0  0  0  0  0  0  0  0  0  0
   -4.6923   24.6568  -22.2570 C   0  0  0  0  0  0  0  0  0  0  0  0
   -4.4619   25.3279  -23.5718 C   0  0  0  0  0  0  0  0  0  0  0  0
   -5.8213   23.6547  -22.4320 C   0  0  0  0  0  0  0  0  0  0  0  0
 26 27  1  0  0  0
 27 18  1  0  0  0
 18 19  2  0  0  0
 19 20  1  0  0  0
 20 28  1  0  0  0
 28 29  1  0  0  0
 20 21  2  0  0  0
 21 22  1  0  0  0
 21 23  1  0  0  0
 23  1  1  0  0  0
  1 30  1  0  0  0
 30 31  1  0  0  0
 31 32  1  0  0  0
 32 34  1  0  0  0
 34 35  1  0  0  0
 34 36  1  0  0  0
  1  2  1  0  0  0
  2  3  2  0  0  0
  3  4  1  0  0  0
  4  5  2  0  0  0
  5  6  1  0  0  0
  6  7  2  0  0  0
  7  8  1  0  0  0
  8  9  2  0  0  0
  9 10  1  0  0  0
 10 11  2  0  0  0
  8 12  1  0  0  0
 12 13  1  0  0  0
 13 14  2  0  0  0
 14 15  1  0  0  0
 15 16  1  0  0  0
 15 17  1  0  0  0
 23 24  2  0  0  0
 24 25  1  0  0  0
 24 18  1  0  0  0
 11  2  1  0  0  0
 17 12  2  0  0  0
 10  5  1  0  0  0
 32 33  1  0  0  0
M  END
> <minimizedAffinity>
-7.94971

> <CNNscore>
0.5341451764

> <CNNaffinity>
7.6965651512

> <CNN_VS>
4.1110830307

> <CNNaffinity_variance>
0.1752555668

$$$$
[H]c1nc2c([H])c([H])c(N(c3c(F)c(OC([H])([H])[H])c([H])c(OC([H])([H])[H])c3F)C([H])([H])C([H])([H])N([H])C([H])(C([H])([H])[H])C([H])([H])[H])nc2c([H])c1-c1c([H])nn(C([H])([H])[H])c1[H]


 36 39  0  0  0  0  0  0  0  0999 V2000
   -0.0698   20.6149  -21.5024 N   0  0  0  0  0  0  0  0  0  0  0  0
   -0.1236   21.1050  -22.8156 C   0  0  0  0  0  0  0  0  0  0  0  0
    1.0862   21.3011  -23.4611 C   0  0  0  0  0  0  0  0  0  0  0  0
    1.2055   21.7869  -24.7331 C   0  0  0  0  0  0  0  0  0  0  0  0
    0.0650   22.1070  -25.4319 C   0  0  0  0  0  0  0  0  0  0  0  0
    0.1377   22.5899  -26.7059 N   0  0  0  0  0  0  0  0  0  0  0  0
   -1.0030   22.8788  -27.3405 C   0  0  0  0  0  0  0  0  0  0  0  0
   -2.2498   22.7099  -26.7641 C   0  0  0  0  0  0  0  0  0  0  0  0
   -2.3273   22.2234  -25.4785 C   0  0  0  0  0  0  0  0  0  0  0  0
   -1.1505   21.9198  -24.8088 C   0  0  0  0  0  0  0  0  0  0  0  0
   -1.2112   21.4291  -23.5312 N   0  0  0  0  0  0  0  0  0  0  0  0
   -3.4830   23.0245  -27.4784 C   0  0  0  0  0  0  0  0  0  0  0  0
   -4.7128   23.2213  -26.8881 C   0  0  0  0  0  0  0  0  0  0  0  0
   -5.6074   23.4964  -27.8719 N   0  0  0  0  0  0  0  0  0  0  0  0
   -5.0022   23.4818  -29.0456 N   0  0  0  0  0  0  0  0  0  0  0  0
   -5.6210   23.7309  -30.3461 C   0  0  0  0  0  0  0  0  0  0  0  0
   -3.6962   23.1935  -28.8265 C   0  0  0  0  0  0  0  0  0  0  0  0
    0.8703   22.9193  -18.6917 C   0  0  0  0  0  0  0  0  0  0  0  0
   -0.3553   23.2729  -18.2240 C   0  0  0  0  0  0  0  0  0  0  0  0
   -1.4871   22.7807  -18.7996 C   0  0  0  0  0  0  0  0  0  0  0  0
   -1.3821   21.9099  -19.8737 C   0  0  0  0  0  0  0  0  0  0  0  0
   -2.5456   21.4553  -20.4226 F   0  0  0  0  0  0  0  0  0  0  0  0
   -0.1683   21.5112  -20.3950 C   0  0  0  0  0  0  0  0  0  0  0  0
    0.9580   22.0519  -19.7615 C   0  0  0  0  0  0  0  0  0  0  0  0
    2.2100   21.7479  -20.2011 F   0  0  0  0  0  0  0  0  0  0  0  0
    2.5265   22.7946  -16.9574 C   0  0  0  0  0  0  0  0  0  0  0  0
    2.0189   23.4039  -18.1266 O   0  0  0  0  0  0  0  0  0  0  0  0
   -2.7705   23.1024  -18.3698 O   0  0  0  0  0  0  0  0  0  0  0  0
   -3.4271   22.5448  -17.2751 C   0  0  0  0  0  0  0  0  0  0  0  0
    0.0647   19.1882  -21.3546 C   0  0  0  0  0  0  0  0  0  0  0  0
    1.0125   18.7035  -20.3125 C   0  0  0  0  0  0  0  0  0  0  0  0
    1.6165   17.4385  -20.4959 N   0  0  0  0  0  0  0  0  0  0  0  0
    1.9876   16.9914  -19.6549 H   0  0  0  0  0  0  0  0  0  0  0  0
    2.6657   17.5224  -21.4803 C   0  0  0  0  0  0  0  0  0  0  0  0
    3.7770   18.4606  -21.1390 C   0  0  0  0  0  0  0  0  0  0  0  0
    3.2759   16.1691  -21.8057 C   0  0  0  0  0  0  0  0  0  0  0  0
 26 27  1  0  0  0
 27 18  1  0  0  0
 18 19  2  0  0  0
 19 20  1  0  0  0
 20 28  1  0  0  0
 28 29  1  0  0  0
 20 21  2  0  0  0
 21 22  1  0  0  0
 21 23  1  0  0  0
 23  1  1  0  0  0
  1 30  1  0  0  0
 30 31  1  0  0  0
 31 32  1  0  0  0
 32 34  1  0  0  0
 34 35  1  0  0  0
 34 36  1  0  0  0
  1  2  1  0  0  0
  2  3  2  0  0  0
  3  4  1  0  0  0
  4  5  2  0  0  0
  5  6  1  0  0  0
  6  7  2  0  0  0
  7  8  1  0  0  0
  8  9  2  0  0  0
  9 10  1  0  0  0
 10 11  2  0  0  0
  8 12  1  0  0  0
 12 13  1  0  0  0
 13 14  2  0  0  0
 14 15  1  0  0  0
 15 16  1  0  0  0
 15 17  1  0  0  0
 23 24  2  0  0  0
 24 25  1  0  0  0
 24 18  1  0  0  0
 11  2  1  0  0  0
 17 12  2  0  0  0
 10  5  1  0  0  0
 32 33  1  0  0  0
M  END
> <minimizedAffinity>
-6.94753

> <CNNscore>
0.4834507704

> <CNNaffinity>
7.2364234924

> <CNN_VS>
3.4984545708

> <CNNaffinity_variance>
0.0772292539

$$$$
[H]c1nc2c([H])c([H])c(N(c3c(F)c(OC([H])([H])[H])c([H])c(OC([H])([H])[H])c3F)C([H])([H])C([H])([H])N([H])C([H])(C([H])([H])[H])C([H])([H])[H])nc2c([H])c1-c1c([H])nn(C([H])([H])[H])c1[H]


 36 39  0  0  0  0  0  0  0  0999 V2000
   -1.8049   21.6017  -21.6538 N   0  0  0  0  0  0  0  0  0  0  0  0
   -1.6062   21.8626  -23.0176 C   0  0  0  0  0  0  0  0  0  0  0  0
   -0.3284   21.6631  -23.5139 C   0  0  0  0  0  0  0  0  0  0  0  0
    0.0320   21.8870  -24.8132 C   0  0  0  0  0  0  0  0  0  0  0  0
   -0.9189   22.3387  -25.6982 C   0  0  0  0  0  0  0  0  0  0  0  0
   -0.6039   22.5701  -27.0054 N   0  0  0  0  0  0  0  0  0  0  0  0
   -1.5691   23.0028  -27.8231 C   0  0  0  0  0  0  0  0  0  0  0  0
   -2.8690   23.2252  -27.4035 C   0  0  0  0  0  0  0  0  0  0  0  0
   -3.1905   22.9933  -26.0850 C   0  0  0  0  0  0  0  0  0  0  0  0
   -2.1978   22.5441  -25.2259 C   0  0  0  0  0  0  0  0  0  0  0  0
   -2.5034   22.3031  -23.9125 N   0  0  0  0  0  0  0  0  0  0  0  0
   -3.9090   23.6903  -28.3155 C   0  0  0  0  0  0  0  0  0  0  0  0
   -5.2256   23.2836  -28.2900 C   0  0  0  0  0  0  0  0  0  0  0  0
   -5.8822   23.9362  -29.2834 N   0  0  0  0  0  0  0  0  0  0  0  0
   -5.0460   24.7291  -29.9285 N   0  0  0  0  0  0  0  0  0  0  0  0
   -5.3684   25.5975  -31.0590 C   0  0  0  0  0  0  0  0  0  0  0  0
   -3.8280   24.5930  -29.3499 C   0  0  0  0  0  0  0  0  0  0  0  0
    0.8884   22.2292  -19.1148 C   0  0  0  0  0  0  0  0  0  0  0  0
    1.5058   21.0193  -19.0858 C   0  0  0  0  0  0  0  0  0  0  0  0
    1.0692   19.9976  -19.8732 C   0  0  0  0  0  0  0  0  0  0  0  0
   -0.0168   20.1993  -20.7115 C   0  0  0  0  0  0  0  0  0  0  0  0
   -0.4227   19.1405  -21.4703 F   0  0  0  0  0  0  0  0  0  0  0  0
   -0.6863   21.4034  -20.7884 C   0  0  0  0  0  0  0  0  0  0  0  0
   -0.1913   22.4140  -19.9542 C   0  0  0  0  0  0  0  0  0  0  0  0
   -0.7835   23.6395  -19.9278 F   0  0  0  0  0  0  0  0  0  0  0  0
    2.6853   23.6003  -18.3039 C   0  0  0  0  0  0  0  0  0  0  0  0
    1.3125   23.2678  -18.3305 O   0  0  0  0  0  0  0  0  0  0  0  0
    1.6559   18.7362  -19.8911 O   0  0  0  0  0  0  0  0  0  0  0  0
    2.7476   18.3561  -20.6682 C   0  0  0  0  0  0  0  0  0  0  0  0
   -3.1713   21.5713  -21.1984 C   0  0  0  0  0  0  0  0  0  0  0  0
   -3.7313   22.8412  -20.6573 C   0  0  0  0  0  0  0  0  0  0  0  0
   -3.6288   24.0073  -21.4500 N   0  0  0  0  0  0  0  0  0  0  0  0
   -3.3250   24.8548  -20.9659 H   0  0  0  0  0  0  0  0  0  0  0  0
   -4.8799   24.2734  -22.1138 C   0  0  0  0  0  0  0  0  0  0  0  0
   -5.9273   24.9046  -21.2556 C   0  0  0  0  0  0  0  0  0  0  0  0
   -4.7144   25.1284  -23.3593 C   0  0  0  0  0  0  0  0  0  0  0  0
 26 27  1  0  0  0
 27 18  1  0  0  0
 18 19  2  0  0  0
 19 20  1  0  0  0
 20 28  1  0  0  0
 28 29  1  0  0  0
 20 21  2  0  0  0
 21 22  1  0  0  0
 21 23  1  0  0  0
 23  1  1  0  0  0
  1 30  1  0  0  0
 30 31  1  0  0  0
 31 32  1  0  0  0
 32 34  1  0  0  0
 34 35  1  0  0  0
 34 36  1  0  0  0
  1  2  1  0  0  0
  2  3  2  0  0  0
  3  4  1  0  0  0
  4  5  2  0  0  0
  5  6  1  0  0  0
  6  7  2  0  0  0
  7  8  1  0  0  0
  8  9  2  0  0  0
  9 10  1  0  0  0
 10 11  2  0  0  0
  8 12  1  0  0  0
 12 13  1  0  0  0
 13 14  2  0  0  0
 14 15  1  0  0  0
 15 16  1  0  0  0
 15 17  1  0  0  0
 23 24  2  0  0  0
 24 25  1  0  0  0
 24 18  1  0  0  0
 11  2  1  0  0  0
 17 12  2  0  0  0
 10  5  1  0  0  0
 32 33  1  0  0  0
M  END
> <minimizedAffinity>
-7.92990

> <CNNscore>
0.4667535126

> <CNNaffinity>
7.5996894836

> <CNN_VS>
3.5471818447

> <CNNaffinity_variance>
0.1926561892

$$$$
[H]c1nc2c([H])c([H])c(N(c3c(F)c(OC([H])([H])[H])c([H])c(OC([H])([H])[H])c3F)C([H])([H])C([H])([H])N([H])C([H])(C([H])([H])[H])C([H])([H])[H])nc2c([H])c1-c1c([H])nn(C([H])([H])[H])c1[H]


 36 39  0  0  0  0  0  0  0  0999 V2000
    0.0682   21.5106  -21.1180 N   0  0  0  0  0  0  0  0  0  0  0  0
   -0.0197   21.6766  -22.5081 C   0  0  0  0  0  0  0  0  0  0  0  0
    1.1468   21.5030  -23.2347 C   0  0  0  0  0  0  0  0  0  0  0  0
    1.2321   21.6450  -24.5914 C   0  0  0  0  0  0  0  0  0  0  0  0
    0.1003   21.9810  -25.2969 C   0  0  0  0  0  0  0  0  0  0  0  0
    0.1391   22.1278  -26.6528 N   0  0  0  0  0  0  0  0  0  0  0  0
   -0.9923   22.4492  -27.2884 C   0  0  0  0  0  0  0  0  0  0  0  0
   -2.1968   22.6388  -26.6338 C   0  0  0  0  0  0  0  0  0  0  0  0
   -2.2398   22.4921  -25.2655 C   0  0  0  0  0  0  0  0  0  0  0  0
   -1.0723   22.1587  -24.5938 C   0  0  0  0  0  0  0  0  0  0  0  0
   -1.1002   22.0033  -23.2331 N   0  0  0  0  0  0  0  0  0  0  0  0
   -3.4219   22.9818  -27.3487 C   0  0  0  0  0  0  0  0  0  0  0  0
   -4.6471   23.2070  -26.7592 C   0  0  0  0  0  0  0  0  0  0  0  0
   -5.5346   23.5027  -27.7435 N   0  0  0  0  0  0  0  0  0  0  0  0
   -4.9293   23.4740  -28.9169 N   0  0  0  0  0  0  0  0  0  0  0  0
   -5.5414   23.7374  -30.2177 C   0  0  0  0  0  0  0  0  0  0  0  0
   -3.6304   23.1556  -28.6970 C   0  0  0  0  0  0  0  0  0  0  0  0
    3.0286   20.0426  -19.3361 C   0  0  0  0  0  0  0  0  0  0  0  0
    2.7786   18.7136  -19.4671 C   0  0  0  0  0  0  0  0  0  0  0  0
    1.6676   18.2771  -20.1227 C   0  0  0  0  0  0  0  0  0  0  0  0
    0.7858   19.2025  -20.6602 C   0  0  0  0  0  0  0  0  0  0  0  0
   -0.3183   18.7140  -21.2958 F   0  0  0  0  0  0  0  0  0  0  0  0
    0.9826   20.5647  -20.5624 C   0  0  0  0  0  0  0  0  0  0  0  0
    2.1412   20.9510  -19.8764 C   0  0  0  0  0  0  0  0  0  0  0  0
    2.4310   22.2691  -19.6980 F   0  0  0  0  0  0  0  0  0  0  0  0
    4.1323   20.5690  -17.2694 C   0  0  0  0  0  0  0  0  0  0  0  0
    4.1395   20.5004  -18.6805 O   0  0  0  0  0  0  0  0  0  0  0  0
    1.3535   16.9323  -20.2916 O   0  0  0  0  0  0  0  0  0  0  0  0
    1.9895   16.0498  -21.1615 C   0  0  0  0  0  0  0  0  0  0  0  0
   -0.7849   22.3499  -20.3160 C   0  0  0  0  0  0  0  0  0  0  0  0
   -2.1504   21.8353  -20.0167 C   0  0  0  0  0  0  0  0  0  0  0  0
   -3.1596   22.7702  -19.6907 N   0  0  0  0  0  0  0  0  0  0  0  0
   -3.6791   22.5888  -18.8292 H   0  0  0  0  0  0  0  0  0  0  0  0
   -4.0943   22.8986  -20.7800 C   0  0  0  0  0  0  0  0  0  0  0  0
   -4.2776   21.6649  -21.6023 C   0  0  0  0  0  0  0  0  0  0  0  0
   -5.4661   23.3686  -20.3251 C   0  0  0  0  0  0  0  0  0  0  0  0
 26 27  1  0  0  0
 27 18  1  0  0  0
 18 19  2  0  0  0
 19 20  1  0  0  0
 20 28  1  0  0  0
 28 29  1  0  0  0
 20 21  2  0  0  0
 21 22  1  0  0  0
 21 23  1  0  0  0
 23  1  1  0  0  0
  1 30  1  0  0  0
 30 31  1  0  0  0
 31 32  1  0  0  0
 32 34  1  0  0  0
 34 35  1  0  0  0
 34 36  1  0  0  0
  1  2  1  0  0  0
  2  3  2  0  0  0
  3  4  1  0  0  0
  4  5  2  0  0  0
  5  6  1  0  0  0
  6  7  2  0  0  0
  7  8  1  0  0  0
  8  9  2  0  0  0
  9 10  1  0  0  0
 10 11  2  0  0  0
  8 12  1  0  0  0
 12 13  1  0  0  0
 13 14  2  0  0  0
 14 15  1  0  0  0
 15 16  1  0  0  0
 15 17  1  0  0  0
 23 24  2  0  0  0
 24 25  1  0  0  0
 24 18  1  0  0  0
 11  2  1  0  0  0
 17 12  2  0  0  0
 10  5  1  0  0  0
 32 33  1  0  0  0
M  END
> <minimizedAffinity>
-6.99639

> <CNNscore>
0.3725931942

> <CNNaffinity>
7.1933569908

> <CNN_VS>
2.6801958084

> <CNNaffinity_variance>
0.1105917469

$$$$
[H]c1nc2c([H])c([H])c(N(c3c(F)c(OC([H])([H])[H])c([H])c(OC([H])([H])[H])c3F)C([H])([H])C([H])([H])N([H])C([H])(C([H])([H])[H])C([H])([H])[H])nc2c([H])c1-c1c([H])nn(C([H])([H])[H])c1[H]


 36 39  0  0  0  0  0  0  0  0999 V2000
   -5.4637   23.6635  -25.8974 N   0  0  0  0  0  0  0  0  0  0  0  0
   -4.1163   23.2849  -25.9903 C   0  0  0  0  0  0  0  0  0  0  0  0
   -3.5492   23.2921  -27.2540 C   0  0  0  0  0  0  0  0  0  0  0  0
   -2.2560   22.9350  -27.5151 C   0  0  0  0  0  0  0  0  0  0  0  0
   -1.4518   22.5410  -26.4713 C   0  0  0  0  0  0  0  0  0  0  0  0
   -0.1532   22.1814  -26.6860 N   0  0  0  0  0  0  0  0  0  0  0  0
    0.5848   21.8127  -25.6340 C   0  0  0  0  0  0  0  0  0  0  0  0
    0.0913   21.7801  -24.3414 C   0  0  0  0  0  0  0  0  0  0  0  0
   -1.2186   22.1418  -24.1208 C   0  0  0  0  0  0  0  0  0  0  0  0
   -1.9954   22.5263  -25.2044 C   0  0  0  0  0  0  0  0  0  0  0  0
   -3.2989   22.8948  -25.0005 N   0  0  0  0  0  0  0  0  0  0  0  0
    0.9174   21.3817  -23.2062 C   0  0  0  0  0  0  0  0  0  0  0  0
    2.2716   21.1315  -23.2604 C   0  0  0  0  0  0  0  0  0  0  0  0
    2.6830   20.7944  -22.0110 N   0  0  0  0  0  0  0  0  0  0  0  0
    1.6579   20.8202  -21.1789 N   0  0  0  0  0  0  0  0  0  0  0  0
    1.6909   20.5198  -19.7489 C   0  0  0  0  0  0  0  0  0  0  0  0
    0.5631   21.1785  -21.8930 C   0  0  0  0  0  0  0  0  0  0  0  0
   -7.0960   22.5813  -22.6944 C   0  0  0  0  0  0  0  0  0  0  0  0
   -7.3853   23.7831  -22.1307 C   0  0  0  0  0  0  0  0  0  0  0  0
   -7.0631   24.9439  -22.7658 C   0  0  0  0  0  0  0  0  0  0  0  0
   -6.4335   24.8933  -24.0003 C   0  0  0  0  0  0  0  0  0  0  0  0
   -6.1205   26.0838  -24.5887 F   0  0  0  0  0  0  0  0  0  0  0  0
   -6.1135   23.7060  -24.6264 C   0  0  0  0  0  0  0  0  0  0  0  0
   -6.4689   22.5477  -23.9233 C   0  0  0  0  0  0  0  0  0  0  0  0
   -6.1852   21.3171  -24.4316 F   0  0  0  0  0  0  0  0  0  0  0  0
   -8.1371   21.4346  -20.8594 C   0  0  0  0  0  0  0  0  0  0  0  0
   -7.4117   21.4042  -22.0713 O   0  0  0  0  0  0  0  0  0  0  0  0
   -7.3310   26.2055  -22.2441 O   0  0  0  0  0  0  0  0  0  0  0  0
   -7.9594   26.4684  -21.0291 C   0  0  0  0  0  0  0  0  0  0  0  0
   -6.1179   24.0165  -27.1314 C   0  0  0  0  0  0  0  0  0  0  0  0
   -6.0016   25.4335  -27.5762 C   0  0  0  0  0  0  0  0  0  0  0  0
   -6.1908   25.7204  -28.9475 N   0  0  0  0  0  0  0  0  0  0  0  0
   -7.1343   25.5720  -29.3119 H   0  0  0  0  0  0  0  0  0  0  0  0
   -5.2583   24.9696  -29.7497 C   0  0  0  0  0  0  0  0  0  0  0  0
   -5.8156   24.4327  -31.0276 C   0  0  0  0  0  0  0  0  0  0  0  0
   -4.0001   25.7557  -30.0789 C   0  0  0  0  0  0  0  0  0  0  0  0
 26 27  1  0  0  0
 27 18  1  0  0  0
 18 19  2  0  0  0
 19 20  1  0  0  0
 20 28  1  0  0  0
 28 29  1  0  0  0
 20 21  2  0  0  0
 21 22  1  0  0  0
 21 23  1  0  0  0
 23  1  1  0  0  0
  1 30  1  0  0  0
 30 31  1  0  0  0
 31 32  1  0  0  0
 32 34  1  0  0  0
 34 35  1  0  0  0
 34 36  1  0  0  0
  1  2  1  0  0  0
  2  3  2  0  0  0
  3  4  1  0  0  0
  4  5  2  0  0  0
  5  6  1  0  0  0
  6  7  2  0  0  0
  7  8  1  0  0  0
  8  9  2  0  0  0
  9 10  1  0  0  0
 10 11  2  0  0  0
  8 12  1  0  0  0
 12 13  1  0  0  0
 13 14  2  0  0  0
 14 15  1  0  0  0
 15 16  1  0  0  0
 15 17  1  0  0  0
 23 24  2  0  0  0
 24 25  1  0  0  0
 24 18  1  0  0  0
 11  2  1  0  0  0
 17 12  2  0  0  0
 10  5  1  0  0  0
 32 33  1  0  0  0
M  END
> <minimizedAffinity>
-9.21106

> <CNNscore>
0.2787255645

> <CNNaffinity>
7.5103926659

> <CNN_VS>
2.0933384895

> <CNNaffinity_variance>
0.0665705800

$$$$
[H]c1nc2c([H])c([H])c(N(c3c(F)c(OC([H])([H])[H])c([H])c(OC([H])([H])[H])c3F)C([H])([H])C([H])([H])N([H])C([H])(C([H])([H])[H])C([H])([H])[H])nc2c([H])c1-c1c([H])nn(C([H])([H])[H])c1[H]


 36 39  0  0  0  0  0  0  0  0999 V2000
   -0.5989   21.1091  -21.1436 N   0  0  0  0  0  0  0  0  0  0  0  0
   -0.5807   21.4294  -22.5091 C   0  0  0  0  0  0  0  0  0  0  0  0
    0.6531   21.4193  -23.1386 C   0  0  0  0  0  0  0  0  0  0  0  0
    0.8422   21.7234  -24.4577 C   0  0  0  0  0  0  0  0  0  0  0  0
   -0.2479   22.0632  -25.2242 C   0  0  0  0  0  0  0  0  0  0  0  0
   -0.1054   22.3688  -26.5463 N   0  0  0  0  0  0  0  0  0  0  0  0
   -1.1999   22.6861  -27.2453 C   0  0  0  0  0  0  0  0  0  0  0  0
   -2.4667   22.7180  -26.6888 C   0  0  0  0  0  0  0  0  0  0  0  0
   -2.6144   22.4107  -25.3550 C   0  0  0  0  0  0  0  0  0  0  0  0
   -1.4861   22.0798  -24.6182 C   0  0  0  0  0  0  0  0  0  0  0  0
   -1.6175   21.7657  -23.2913 N   0  0  0  0  0  0  0  0  0  0  0  0
   -3.6492   23.0596  -27.4727 C   0  0  0  0  0  0  0  0  0  0  0  0
   -4.8906   23.3501  -26.9492 C   0  0  0  0  0  0  0  0  0  0  0  0
   -5.7261   23.6210  -27.9847 N   0  0  0  0  0  0  0  0  0  0  0  0
   -5.0731   23.5151  -29.1277 N   0  0  0  0  0  0  0  0  0  0  0  0
   -5.6213   23.7296  -30.4655 C   0  0  0  0  0  0  0  0  0  0  0  0
   -3.7952   23.1706  -28.8357 C   0  0  0  0  0  0  0  0  0  0  0  0
    1.8768   18.5311  -19.9950 C   0  0  0  0  0  0  0  0  0  0  0  0
    2.7745   19.3082  -19.3347 C   0  0  0  0  0  0  0  0  0  0  0  0
    2.5976   20.6559  -19.2511 C   0  0  0  0  0  0  0  0  0  0  0  0
    1.4882   21.2360  -19.8475 C   0  0  0  0  0  0  0  0  0  0  0  0
    1.3639   22.5909  -19.7459 F   0  0  0  0  0  0  0  0  0  0  0  0
    0.5400   20.5030  -20.5312 C   0  0  0  0  0  0  0  0  0  0  0  0
    0.7780   19.1235  -20.5835 C   0  0  0  0  0  0  0  0  0  0  0  0
   -0.0778   18.2998  -21.2487 F   0  0  0  0  0  0  0  0  0  0  0  0
    2.5966   16.6243  -21.2649 C   0  0  0  0  0  0  0  0  0  0  0  0
    2.0378   17.1751  -20.0901 O   0  0  0  0  0  0  0  0  0  0  0  0
    3.4780   21.5072  -18.5909 O   0  0  0  0  0  0  0  0  0  0  0  0
    4.6289   22.0716  -19.1360 C   0  0  0  0  0  0  0  0  0  0  0  0
   -1.7995   21.4444  -20.4214 C   0  0  0  0  0  0  0  0  0  0  0  0
   -1.8898   22.8231  -19.8644 C   0  0  0  0  0  0  0  0  0  0  0  0
   -1.6869   22.9969  -18.4761 N   0  0  0  0  0  0  0  0  0  0  0  0
   -0.7345   22.8428  -18.1382 H   0  0  0  0  0  0  0  0  0  0  0  0
   -2.5879   22.1560  -17.7291 C   0  0  0  0  0  0  0  0  0  0  0  0
   -2.0396   21.6313  -16.4422 C   0  0  0  0  0  0  0  0  0  0  0  0
   -3.9154   22.8340  -17.4330 C   0  0  0  0  0  0  0  0  0  0  0  0
 26 27  1  0  0  0
 27 18  1  0  0  0
 18 19  2  0  0  0
 19 20  1  0  0  0
 20 28  1  0  0  0
 28 29  1  0  0  0
 20 21  2  0  0  0
 21 22  1  0  0  0
 21 23  1  0  0  0
 23  1  1  0  0  0
  1 30  1  0  0  0
 30 31  1  0  0  0
 31 32  1  0  0  0
 32 34  1  0  0  0
 34 35  1  0  0  0
 34 36  1  0  0  0
  1  2  1  0  0  0
  2  3  2  0  0  0
  3  4  1  0  0  0
  4  5  2  0  0  0
  5  6  1  0  0  0
  6  7  2  0  0  0
  7  8  1  0  0  0
  8  9  2  0  0  0
  9 10  1  0  0  0
 10 11  2  0  0  0
  8 12  1  0  0  0
 12 13  1  0  0  0
 13 14  2  0  0  0
 14 15  1  0  0  0
 15 16  1  0  0  0
 15 17  1  0  0  0
 23 24  2  0  0  0
 24 25  1  0  0  0
 24 18  1  0  0  0
 11  2  1  0  0  0
 17 12  2  0  0  0
 10  5  1  0  0  0
 32 33  1  0  0  0
M  END
> <minimizedAffinity>
-7.17164

> <CNNscore>
0.2727689445

> <CNNaffinity>
7.0323743820

> <CNN_VS>
1.9182133675

> <CNNaffinity_variance>
0.0987355262

$$$$
[H]c1nc2c([H])c([H])c(N(c3c(F)c(OC([H])([H])[H])c([H])c(OC([H])([H])[H])c3F)C([H])([H])C([H])([H])N([H])C([H])(C([H])([H])[H])C([H])([H])[H])nc2c([H])c1-c1c([H])nn(C([H])([H])[H])c1[H]


 36 39  0  0  0  0  0  0  0  0999 V2000
    1.1069   20.2815  -20.9937 N   0  0  0  0  0  0  0  0  0  0  0  0
    0.8222   20.8143  -22.2597 C   0  0  0  0  0  0  0  0  0  0  0  0
    1.8991   21.0381  -23.1018 C   0  0  0  0  0  0  0  0  0  0  0  0
    1.7920   21.5661  -24.3579 C   0  0  0  0  0  0  0  0  0  0  0  0
    0.5462   21.9028  -24.8333 C   0  0  0  0  0  0  0  0  0  0  0  0
    0.3929   22.4278  -26.0833 N   0  0  0  0  0  0  0  0  0  0  0  0
   -0.8418   22.7311  -26.4966 C   0  0  0  0  0  0  0  0  0  0  0  0
   -1.9673   22.5366  -25.7150 C   0  0  0  0  0  0  0  0  0  0  0  0
   -1.8166   22.0076  -24.4529 C   0  0  0  0  0  0  0  0  0  0  0  0
   -0.5402   21.6885  -24.0120 C   0  0  0  0  0  0  0  0  0  0  0  0
   -0.3745   21.1558  -22.7609 N   0  0  0  0  0  0  0  0  0  0  0  0
   -3.3071   22.8677  -26.1895 C   0  0  0  0  0  0  0  0  0  0  0  0
   -3.6615   23.0337  -27.5110 C   0  0  0  0  0  0  0  0  0  0  0  0
   -4.9865   23.3281  -27.5528 N   0  0  0  0  0  0  0  0  0  0  0  0
   -5.4789   23.3552  -26.3277 N   0  0  0  0  0  0  0  0  0  0  0  0
   -6.8639   23.6342  -25.9532 C   0  0  0  0  0  0  0  0  0  0  0  0
   -4.4635   23.0753  -25.4747 C   0  0  0  0  0  0  0  0  0  0  0  0
    1.6103   22.6493  -18.1241 C   0  0  0  0  0  0  0  0  0  0  0  0
    0.4005   22.5755  -17.5104 C   0  0  0  0  0  0  0  0  0  0  0  0
   -0.5818   21.7726  -18.0056 C   0  0  0  0  0  0  0  0  0  0  0  0
   -0.3396   21.0248  -19.1479 C   0  0  0  0  0  0  0  0  0  0  0  0
   -1.3603   20.2465  -19.6105 F   0  0  0  0  0  0  0  0  0  0  0  0
    0.8668   21.0542  -19.8170 C   0  0  0  0  0  0  0  0  0  0  0  0
    1.8357   21.8990  -19.2602 C   0  0  0  0  0  0  0  0  0  0  0  0
    3.0585   22.0269  -19.8449 F   0  0  0  0  0  0  0  0  0  0  0  0
    3.2094   23.1393  -16.4010 C   0  0  0  0  0  0  0  0  0  0  0  0
    2.6096   23.4506  -17.6416 O   0  0  0  0  0  0  0  0  0  0  0  0
   -1.8409   21.6518  -17.4261 O   0  0  0  0  0  0  0  0  0  0  0  0
   -2.9266   22.4945  -17.6526 C   0  0  0  0  0  0  0  0  0  0  0  0
    1.6205   18.9359  -20.9641 C   0  0  0  0  0  0  0  0  0  0  0  0
    0.6459   17.8473  -20.6737 C   0  0  0  0  0  0  0  0  0  0  0  0
    1.1399   16.6323  -20.1459 N   0  0  0  0  0  0  0  0  0  0  0  0
    1.3142   15.8861  -20.8225 H   0  0  0  0  0  0  0  0  0  0  0  0
    0.2563   16.1351  -19.1217 C   0  0  0  0  0  0  0  0  0  0  0  0
   -0.8515   17.0620  -18.7403 C   0  0  0  0  0  0  0  0  0  0  0  0
   -0.3566   14.7904  -19.4762 C   0  0  0  0  0  0  0  0  0  0  0  0
 26 27  1  0  0  0
 27 18  1  0  0  0
 18 19  2  0  0  0
 19 20  1  0  0  0
 20 28  1  0  0  0
 28 29  1  0  0  0
 20 21  2  0  0  0
 21 22  1  0  0  0
 21 23  1  0  0  0
 23  1  1  0  0  0
  1 30  1  0  0  0
 30 31  1  0  0  0
 31 32  1  0  0  0
 32 34  1  0  0  0
 34 35  1  0  0  0
 34 36  1  0  0  0
  1  2  1  0  0  0
  2  3  2  0  0  0
  3  4  1  0  0  0
  4  5  2  0  0  0
  5  6  1  0  0  0
  6  7  2  0  0  0
  7  8  1  0  0  0
  8  9  2  0  0  0
  9 10  1  0  0  0
 10 11  2  0  0  0
  8 12  1  0  0  0
 12 13  1  0  0  0
 13 14  2  0  0  0
 14 15  1  0  0  0
 15 16  1  0  0  0
 15 17  1  0  0  0
 23 24  2  0  0  0
 24 25  1  0  0  0
 24 18  1  0  0  0
 11  2  1  0  0  0
 17 12  2  0  0  0
 10  5  1  0  0  0
 32 33  1  0  0  0
M  END
> <minimizedAffinity>
-6.29942

> <CNNscore>
0.2726410031

> <CNNaffinity>
6.9218430519

> <CNN_VS>
1.8871781826

> <CNNaffinity_variance>
0.1340050697

$$$$
[H]c1nc2c([H])c([H])c(N(c3c(F)c(OC([H])([H])[H])c([H])c(OC([H])([H])[H])c3F)C([H])([H])C([H])([H])N([H])C([H])(C([H])([H])[H])C([H])([H])[H])nc2c([H])c1-c1c([H])nn(C([H])([H])[H])c1[H]


 36 39  0  0  0  0  0  0  0  0999 V2000
   -5.3966   23.6878  -25.9046 N   0  0  0  0  0  0  0  0  0  0  0  0
   -4.0515   23.3003  -25.9941 C   0  0  0  0  0  0  0  0  0  0  0  0
   -3.4823   23.3000  -27.2570 C   0  0  0  0  0  0  0  0  0  0  0  0
   -2.1909   22.9338  -27.5147 C   0  0  0  0  0  0  0  0  0  0  0  0
   -1.3910   22.5379  -26.4684 C   0  0  0  0  0  0  0  0  0  0  0  0
   -0.0944   22.1693  -26.6798 N   0  0  0  0  0  0  0  0  0  0  0  0
    0.6395   21.7991  -25.6254 C   0  0  0  0  0  0  0  0  0  0  0  0
    0.1437   21.7737  -24.3336 C   0  0  0  0  0  0  0  0  0  0  0  0
   -1.1643   22.1444  -24.1163 C   0  0  0  0  0  0  0  0  0  0  0  0
   -1.9368   22.5306  -25.2024 C   0  0  0  0  0  0  0  0  0  0  0  0
   -3.2383   22.9080  -25.0018 N   0  0  0  0  0  0  0  0  0  0  0  0
    0.9653   21.3735  -23.1958 C   0  0  0  0  0  0  0  0  0  0  0  0
    2.3249   21.1521  -23.2388 C   0  0  0  0  0  0  0  0  0  0  0  0
    2.7295   20.8027  -21.9905 N   0  0  0  0  0  0  0  0  0  0  0  0
    1.6949   20.7937  -21.1697 N   0  0  0  0  0  0  0  0  0  0  0  0
    1.7185   20.4702  -19.7446 C   0  0  0  0  0  0  0  0  0  0  0  0
    0.6008   21.1413  -21.8902 C   0  0  0  0  0  0  0  0  0  0  0  0
   -6.9583   25.0627  -22.7797 C   0  0  0  0  0  0  0  0  0  0  0  0
   -7.3079   23.9174  -22.1379 C   0  0  0  0  0  0  0  0  0  0  0  0
   -7.0491   22.7020  -22.6950 C   0  0  0  0  0  0  0  0  0  0  0  0
   -6.4219   22.6381  -23.9301 C   0  0  0  0  0  0  0  0  0  0  0  0
   -6.1968   21.3972  -24.4506 F   0  0  0  0  0  0  0  0  0  0  0  0
   -6.0409   23.7631  -24.6324 C   0  0  0  0  0  0  0  0  0  0  0  0
   -6.3351   24.9823  -24.0084 C   0  0  0  0  0  0  0  0  0  0  0  0
   -6.0254   26.1610  -24.6151 F   0  0  0  0  0  0  0  0  0  0  0  0
   -7.9085   26.3794  -21.0106 C   0  0  0  0  0  0  0  0  0  0  0  0
   -7.2105   26.2931  -22.2359 O   0  0  0  0  0  0  0  0  0  0  0  0
   -7.3807   21.4933  -22.0912 O   0  0  0  0  0  0  0  0  0  0  0  0
   -8.1211   21.3429  -20.9210 C   0  0  0  0  0  0  0  0  0  0  0  0
   -6.0542   24.0154  -27.1439 C   0  0  0  0  0  0  0  0  0  0  0  0
   -6.0050   25.4393  -27.5787 C   0  0  0  0  0  0  0  0  0  0  0  0
   -6.1854   25.7248  -28.9516 N   0  0  0  0  0  0  0  0  0  0  0  0
   -7.1264   25.5758  -29.3219 H   0  0  0  0  0  0  0  0  0  0  0  0
   -5.2476   24.9732  -29.7469 C   0  0  0  0  0  0  0  0  0  0  0  0
   -5.8039   24.4117  -31.0146 C   0  0  0  0  0  0  0  0  0  0  0  0
   -3.9998   25.7688  -30.0926 C   0  0  0  0  0  0  0  0  0  0  0  0
 26 27  1  0  0  0
 27 18  1  0  0  0
 18 19  2  0  0  0
 19 20  1  0  0  0
 20 28  1  0  0  0
 28 29  1  0  0  0
 20 21  2  0  0  0
 21 22  1  0  0  0
 21 23  1  0  0  0
 23  1  1  0  0  0
  1 30  1  0  0  0
 30 31  1  0  0  0
 31 32  1  0  0  0
 32 34  1  0  0  0
 34 35  1  0  0  0
 34 36  1  0  0  0
  1  2  1  0  0  0
  2  3  2  0  0  0
  3  4  1  0  0  0
  4  5  2  0  0  0
  5  6  1  0  0  0
  6  7  2  0  0  0
  7  8  1  0  0  0
  8  9  2  0  0  0
  9 10  1  0  0  0
 10 11  2  0  0  0
  8 12  1  0  0  0
 12 13  1  0  0  0
 13 14  2  0  0  0
 14 15  1  0  0  0
 15 16  1  0  0  0
 15 17  1  0  0  0
 23 24  2  0  0  0
 24 25  1  0  0  0
 24 18  1  0  0  0
 11  2  1  0  0  0
 17 12  2  0  0  0
 10  5  1  0  0  0
 32 33  1  0  0  0
M  END
> <minimizedAffinity>
-9.13985

> <CNNscore>
0.2703515291

> <CNNaffinity>
7.5148687363

> <CNN_VS>
2.0316562653

> <CNNaffinity_variance>
0.0530301258

$$$$
[H]c1nc2c([H])c([H])c(N(c3c(F)c(OC([H])([H])[H])c([H])c(OC([H])([H])[H])c3F)C([H])([H])C([H])([H])N([H])C([H])(C([H])([H])[H])C([H])([H])[H])nc2c([H])c1-c1c([H])nn(C([H])([H])[H])c1[H]


 36 39  0  0  0  0  0  0  0  0999 V2000
    1.1262   20.2628  -20.9540 N   0  0  0  0  0  0  0  0  0  0  0  0
    0.8334   20.7986  -22.2168 C   0  0  0  0  0  0  0  0  0  0  0  0
    1.9046   21.0233  -23.0657 C   0  0  0  0  0  0  0  0  0  0  0  0
    1.7894   21.5543  -24.3199 C   0  0  0  0  0  0  0  0  0  0  0  0
    0.5407   21.8932  -24.7860 C   0  0  0  0  0  0  0  0  0  0  0  0
    0.3793   22.4211  -26.0338 N   0  0  0  0  0  0  0  0  0  0  0  0
   -0.8579   22.7264  -26.4379 C   0  0  0  0  0  0  0  0  0  0  0  0
   -1.9782   22.5312  -25.6491 C   0  0  0  0  0  0  0  0  0  0  0  0
   -1.8194   21.9992  -24.3892 C   0  0  0  0  0  0  0  0  0  0  0  0
   -0.5403   21.6780  -23.9577 C   0  0  0  0  0  0  0  0  0  0  0  0
   -0.3665   21.1423  -22.7090 N   0  0  0  0  0  0  0  0  0  0  0  0
   -3.3209   22.8646  -26.1136 C   0  0  0  0  0  0  0  0  0  0  0  0
   -3.6927   22.9972  -27.4341 C   0  0  0  0  0  0  0  0  0  0  0  0
   -5.0147   23.3060  -27.4653 N   0  0  0  0  0  0  0  0  0  0  0  0
   -5.4888   23.3737  -26.2346 N   0  0  0  0  0  0  0  0  0  0  0  0
   -6.8649   23.6795  -25.8485 C   0  0  0  0  0  0  0  0  0  0  0  0
   -4.4643   23.1061  -25.3886 C   0  0  0  0  0  0  0  0  0  0  0  0
   -0.3153   21.8463  -17.8703 C   0  0  0  0  0  0  0  0  0  0  0  0
    0.7161   22.6391  -17.4784 C   0  0  0  0  0  0  0  0  0  0  0  0
    1.8753   22.6745  -18.1923 C   0  0  0  0  0  0  0  0  0  0  0  0
    1.9991   21.8917  -19.3302 C   0  0  0  0  0  0  0  0  0  0  0  0
    3.1847   21.9535  -20.0024 F   0  0  0  0  0  0  0  0  0  0  0  0
    0.9893   21.0667  -19.7816 C   0  0  0  0  0  0  0  0  0  0  0  0
   -0.1764   21.0729  -19.0049 C   0  0  0  0  0  0  0  0  0  0  0  0
   -1.2334   20.2831  -19.3396 F   0  0  0  0  0  0  0  0  0  0  0  0
   -2.6035   22.5318  -17.6249 C   0  0  0  0  0  0  0  0  0  0  0  0
   -1.4877   21.7971  -17.1657 O   0  0  0  0  0  0  0  0  0  0  0  0
    2.9677   23.4632  -17.8457 O   0  0  0  0  0  0  0  0  0  0  0  0
    3.2680   23.9223  -16.5654 C   0  0  0  0  0  0  0  0  0  0  0  0
    1.5395   18.8831  -20.9222 C   0  0  0  0  0  0  0  0  0  0  0  0
    0.4614   17.8556  -20.8914 C   0  0  0  0  0  0  0  0  0  0  0  0
    0.8259   16.5001  -21.0603 N   0  0  0  0  0  0  0  0  0  0  0  0
    0.5971   15.8733  -20.2860 H   0  0  0  0  0  0  0  0  0  0  0  0
    2.2341   16.3920  -21.3465 C   0  0  0  0  0  0  0  0  0  0  0  0
    3.0381   15.6911  -20.3005 C   0  0  0  0  0  0  0  0  0  0  0  0
    2.5128   15.7217  -22.6816 C   0  0  0  0  0  0  0  0  0  0  0  0
 26 27  1  0  0  0
 27 18  1  0  0  0
 18 19  2  0  0  0
 19 20  1  0  0  0
 20 28  1  0  0  0
 28 29  1  0  0  0
 20 21  2  0  0  0
 21 22  1  0  0  0
 21 23  1  0  0  0
 23  1  1  0  0  0
  1 30  1  0  0  0
 30 31  1  0  0  0
 31 32  1  0  0  0
 32 34  1  0  0  0
 34 35  1  0  0  0
 34 36  1  0  0  0
  1  2  1  0  0  0
  2  3  2  0  0  0
  3  4  1  0  0  0
  4  5  2  0  0  0
  5  6  1  0  0  0
  6  7  2  0  0  0
  7  8  1  0  0  0
  8  9  2  0  0  0
  9 10  1  0  0  0
 10 11  2  0  0  0
  8 12  1  0  0  0
 12 13  1  0  0  0
 13 14  2  0  0  0
 14 15  1  0  0  0
 15 16  1  0  0  0
 15 17  1  0  0  0
 23 24  2  0  0  0
 24 25  1  0  0  0
 24 18  1  0  0  0
 11  2  1  0  0  0
 17 12  2  0  0  0
 10  5  1  0  0  0
 32 33  1  0  0  0
M  END
> <minimizedAffinity>
-6.71341

> <CNNscore>
0.2306622416

> <CNNaffinity>
6.8997216225

> <CNN_VS>
1.5915052891

> <CNNaffinity_variance>
0.0283314250

$$$$
[H]c1c([H])c([H])c(C(=Nc2c([H])c([H])c(N(C(=O)C([H])([H])N3C([H])([H])C([H])([H])N(C([H])([H])[H])C([H])([H])C3([H])[H])C([H])([H])[H])c([H])c2[H])C2([H])C(=O)N([H])c3c([H])c(C(=O)OC([H])([H])[H])c([H])c([H])c32)c([H])c1[H]


 41 45  0  0  0  0  0  0  0  0999 V2000
   -1.9436   21.9701  -24.9193 C   0  0  0  0  0  0  0  0  0  0  0  0
   -0.9190   21.5288  -24.4043 N   0  0  0  0  0  0  0  0  0  0  0  0
   -4.9144   24.2630  -28.4297 C   0  0  0  0  0  0  0  0  0  0  0  0
   -5.3998   23.3908  -27.4775 C   0  0  0  0  0  0  0  0  0  0  0  0
   -4.5746   22.5431  -26.7738 C   0  0  0  0  0  0  0  0  0  0  0  0
   -3.2017   22.5269  -26.9933 C   0  0  0  0  0  0  0  0  0  0  0  0
   -2.0697   21.7146  -26.4100 C   0  0  0  0  0  0  0  0  0  0  0  0
   -0.8871   22.2966  -27.0951 C   0  0  0  0  0  0  0  0  0  0  0  0
    0.2915   21.9365  -26.8493 O   0  0  0  0  0  0  0  0  0  0  0  0
   -1.3010   23.2535  -28.0027 N   0  0  0  0  0  0  0  0  0  0  0  0
   -2.7345   23.4011  -27.9432 C   0  0  0  0  0  0  0  0  0  0  0  0
   -3.5514   24.2559  -28.6555 C   0  0  0  0  0  0  0  0  0  0  0  0
   -0.6776   23.8025  -28.6493 H   0  0  0  0  0  0  0  0  0  0  0  0
   -5.7945   25.1621  -29.1686 C   0  0  0  0  0  0  0  0  0  0  0  0
   -6.5279   25.9405  -28.5316 O   0  0  0  0  0  0  0  0  0  0  0  0
   -5.2223   26.2160  -31.2652 C   0  0  0  0  0  0  0  0  0  0  0  0
   -5.7647   25.0977  -30.5506 O   0  0  0  0  0  0  0  0  0  0  0  0
   -0.2166   21.4022  -23.2325 C   0  0  0  0  0  0  0  0  0  0  0  0
   -0.8411   21.4025  -21.9761 C   0  0  0  0  0  0  0  0  0  0  0  0
   -0.1263   21.2932  -20.8079 C   0  0  0  0  0  0  0  0  0  0  0  0
    1.2345   21.1781  -20.8113 C   0  0  0  0  0  0  0  0  0  0  0  0
    1.8519   21.1770  -22.0405 C   0  0  0  0  0  0  0  0  0  0  0  0
    1.1834   21.2828  -23.2114 C   0  0  0  0  0  0  0  0  0  0  0  0
    1.9404   21.0640  -19.5826 N   0  0  0  0  0  0  0  0  0  0  0  0
    2.0990   22.2949  -18.8376 C   0  0  0  0  0  0  0  0  0  0  0  0
    2.3861   19.8355  -19.1119 C   0  0  0  0  0  0  0  0  0  0  0  0
    1.9519   18.8093  -19.8127 O   0  0  0  0  0  0  0  0  0  0  0  0
    3.2350   19.4638  -17.9932 C   0  0  0  0  0  0  0  0  0  0  0  0
    4.5673   19.0823  -18.1933 N   0  0  0  0  0  0  0  0  0  0  0  0
    5.4838   20.0570  -18.6873 C   0  0  0  0  0  0  0  0  0  0  0  0
    5.7741   19.8165  -20.1570 C   0  0  0  0  0  0  0  0  0  0  0  0
    6.2324   18.4961  -20.4282 N   0  0  0  0  0  0  0  0  0  0  0  0
    6.0297   18.0252  -21.7595 C   0  0  0  0  0  0  0  0  0  0  0  0
    6.0295   17.5278  -19.4048 C   0  0  0  0  0  0  0  0  0  0  0  0
    4.8299   17.7292  -18.5423 C   0  0  0  0  0  0  0  0  0  0  0  0
   -2.9820   22.7797  -24.2802 C   0  0  0  0  0  0  0  0  0  0  0  0
   -4.1089   22.2215  -23.7174 C   0  0  0  0  0  0  0  0  0  0  0  0
   -5.1022   23.0258  -23.2044 C   0  0  0  0  0  0  0  0  0  0  0  0
   -5.0299   24.4000  -23.2228 C   0  0  0  0  0  0  0  0  0  0  0  0
   -3.8873   24.9357  -23.7931 C   0  0  0  0  0  0  0  0  0  0  0  0
   -2.8761   24.1750  -24.3146 C   0  0  0  0  0  0  0  0  0  0  0  0
 16 17  1  0  0  0
 17 14  1  0  0  0
 14 15  2  0  0  0
 14  3  1  0  0  0
  3  4  2  0  0  0
  4  5  1  0  0  0
  5  6  2  0  0  0
  6  7  1  0  0  0
  7  1  1  0  0  0
  1  2  2  0  0  0
  2 18  1  0  0  0
 18 19  2  0  0  0
 19 20  1  0  0  0
 20 21  2  0  0  0
 21 22  1  0  0  0
 22 23  2  0  0  0
 21 24  1  0  0  0
 24 25  1  0  0  0
 24 26  1  0  0  0
 26 27  2  0  0  0
 26 28  1  0  0  0
 28 29  1  0  0  0
 29 30  1  0  0  0
 30 31  1  0  0  0
 31 32  1  0  0  0
 32 33  1  0  0  0
 32 34  1  0  0  0
 34 35  1  0  0  0
  1 36  1  0  0  0
 36 37  2  0  0  0
 37 38  1  0  0  0
 38 39  2  0  0  0
 39 40  1  0  0  0
 40 41  2  0  0  0
  7  8  1  0  0  0
  8  9  2  0  0  0
  8 10  1  0  0  0
 10 11  1  0  0  0
 11 12  2  0  0  0
 12  3  1  0  0  0
 11  6  1  0  0  0
 23 18  1  0  0  0
 35 29  1  0  0  0
 41 36  1  0  0  0
 10 13  1  0  0  0
M  END
> <minimizedAffinity>
-7.70126

> <CNNscore>
0.5937089920

> <CNNaffinity>
7.3168134689

> <CNN_VS>
4.3440580368

> <CNNaffinity_variance>
0.6828686595

$$$$
[H]c1c([H])c([H])c(C(=Nc2c([H])c([H])c(N(C(=O)C([H])([H])N3C([H])([H])C([H])([H])N(C([H])([H])[H])C([H])([H])C3([H])[H])C([H])([H])[H])c([H])c2[H])C2([H])C(=O)N([H])c3c([H])c(C(=O)OC([H])([H])[H])c([H])c([H])c32)c([H])c1[H]


 41 45  0  0  0  0  0  0  0  0999 V2000
   -2.5951   22.1608  -24.5942 C   0  0  0  0  0  0  0  0  0  0  0  0
   -1.6694   21.7782  -23.8826 N   0  0  0  0  0  0  0  0  0  0  0  0
   -4.7935   24.2768  -28.7288 C   0  0  0  0  0  0  0  0  0  0  0  0
   -5.4762   23.4880  -27.8263 C   0  0  0  0  0  0  0  0  0  0  0  0
   -4.8250   22.6707  -26.9303 C   0  0  0  0  0  0  0  0  0  0  0  0
   -3.4367   22.6021  -26.8945 C   0  0  0  0  0  0  0  0  0  0  0  0
   -2.4610   21.8033  -26.0631 C   0  0  0  0  0  0  0  0  0  0  0  0
   -1.1524   22.3030  -26.5577 C   0  0  0  0  0  0  0  0  0  0  0  0
   -0.0524   21.9298  -26.0783 O   0  0  0  0  0  0  0  0  0  0  0  0
   -1.3584   23.2037  -27.5859 N   0  0  0  0  0  0  0  0  0  0  0  0
   -2.7723   23.3936  -27.7983 C   0  0  0  0  0  0  0  0  0  0  0  0
   -3.4135   24.2171  -28.7017 C   0  0  0  0  0  0  0  0  0  0  0  0
   -0.6077   23.6883  -28.1424 H   0  0  0  0  0  0  0  0  0  0  0  0
   -5.4903   25.1443  -29.6728 C   0  0  0  0  0  0  0  0  0  0  0  0
   -6.2683   26.0093  -29.2301 O   0  0  0  0  0  0  0  0  0  0  0  0
   -6.1419   24.1112  -31.7565 C   0  0  0  0  0  0  0  0  0  0  0  0
   -5.2450   24.9541  -31.0213 O   0  0  0  0  0  0  0  0  0  0  0  0
   -1.1770   21.7463  -22.6023 C   0  0  0  0  0  0  0  0  0  0  0  0
   -0.4933   20.6354  -22.0856 C   0  0  0  0  0  0  0  0  0  0  0  0
   -0.0201   20.6071  -20.7961 C   0  0  0  0  0  0  0  0  0  0  0  0
   -0.1924   21.6642  -19.9487 C   0  0  0  0  0  0  0  0  0  0  0  0
   -0.8618   22.7560  -20.4503 C   0  0  0  0  0  0  0  0  0  0  0  0
   -1.3424   22.8214  -21.7127 C   0  0  0  0  0  0  0  0  0  0  0  0
    0.3137   21.6000  -18.6217 N   0  0  0  0  0  0  0  0  0  0  0  0
   -0.4109   20.7311  -17.7189 C   0  0  0  0  0  0  0  0  0  0  0  0
    1.4651   22.2822  -18.2493 C   0  0  0  0  0  0  0  0  0  0  0  0
    2.1058   22.8327  -19.2588 O   0  0  0  0  0  0  0  0  0  0  0  0
    2.1011   22.5018  -16.9619 C   0  0  0  0  0  0  0  0  0  0  0  0
    3.3590   21.9575  -16.6758 N   0  0  0  0  0  0  0  0  0  0  0  0
    4.4743   22.8416  -16.5832 C   0  0  0  0  0  0  0  0  0  0  0  0
    5.3317   22.7475  -17.8314 C   0  0  0  0  0  0  0  0  0  0  0  0
    5.7520   21.4188  -18.1229 N   0  0  0  0  0  0  0  0  0  0  0  0
    6.0867   21.1535  -19.4840 C   0  0  0  0  0  0  0  0  0  0  0  0
    5.0615   20.3699  -17.4526 C   0  0  0  0  0  0  0  0  0  0  0  0
    3.6320   20.6351  -17.1211 C   0  0  0  0  0  0  0  0  0  0  0  0
   -3.7365   22.9878  -24.1994 C   0  0  0  0  0  0  0  0  0  0  0  0
   -4.9471   22.4439  -23.8294 C   0  0  0  0  0  0  0  0  0  0  0  0
   -6.0205   23.2601  -23.5498 C   0  0  0  0  0  0  0  0  0  0  0  0
   -5.9494   24.6326  -23.6213 C   0  0  0  0  0  0  0  0  0  0  0  0
   -4.7220   25.1539  -23.9947 C   0  0  0  0  0  0  0  0  0  0  0  0
   -3.6294   24.3810  -24.2815 C   0  0  0  0  0  0  0  0  0  0  0  0
 16 17  1  0  0  0
 17 14  1  0  0  0
 14 15  2  0  0  0
 14  3  1  0  0  0
  3  4  2  0  0  0
  4  5  1  0  0  0
  5  6  2  0  0  0
  6  7  1  0  0  0
  7  1  1  0  0  0
  1  2  2  0  0  0
  2 18  1  0  0  0
 18 19  2  0  0  0
 19 20  1  0  0  0
 20 21  2  0  0  0
 21 22  1  0  0  0
 22 23  2  0  0  0
 21 24  1  0  0  0
 24 25  1  0  0  0
 24 26  1  0  0  0
 26 27  2  0  0  0
 26 28  1  0  0  0
 28 29  1  0  0  0
 29 30  1  0  0  0
 30 31  1  0  0  0
 31 32  1  0  0  0
 32 33  1  0  0  0
 32 34  1  0  0  0
 34 35  1  0  0  0
  1 36  1  0  0  0
 36 37  2  0  0  0
 37 38  1  0  0  0
 38 39  2  0  0  0
 39 40  1  0  0  0
 40 41  2  0  0  0
  7  8  1  0  0  0
  8  9  2  0  0  0
  8 10  1  0  0  0
 10 11  1  0  0  0
 11 12  2  0  0  0
 12  3  1  0  0  0
 11  6  1  0  0  0
 23 18  1  0  0  0
 35 29  1  0  0  0
 41 36  1  0  0  0
 10 13  1  0  0  0
M  END
> <minimizedAffinity>
-8.25995

> <CNNscore>
0.4767925739

> <CNNaffinity>
7.0157456398

> <CNN_VS>
3.3450553417

> <CNNaffinity_variance>
0.4731723666

$$$$
[H]c1c([H])c([H])c(C(=Nc2c([H])c([H])c(N(C(=O)C([H])([H])N3C([H])([H])C([H])([H])N(C([H])([H])[H])C([H])([H])C3([H])[H])C([H])([H])[H])c([H])c2[H])C2([H])C(=O)N([H])c3c([H])c(C(=O)OC([H])([H])[H])c([H])c([H])c32)c([H])c1[H]


 41 45  0  0  0  0  0  0  0  0999 V2000
   -2.5217   22.1661  -24.2299 C   0  0  0  0  0  0  0  0  0  0  0  0
   -1.6637   21.6178  -23.5423 N   0  0  0  0  0  0  0  0  0  0  0  0
   -5.0076   24.2335  -28.2239 C   0  0  0  0  0  0  0  0  0  0  0  0
   -5.6286   23.4743  -27.2539 C   0  0  0  0  0  0  0  0  0  0  0  0
   -4.9209   22.6648  -26.3944 C   0  0  0  0  0  0  0  0  0  0  0  0
   -3.5352   22.5744  -26.4661 C   0  0  0  0  0  0  0  0  0  0  0  0
   -2.5088   21.7768  -25.6968 C   0  0  0  0  0  0  0  0  0  0  0  0
   -1.2361   22.2452  -26.3031 C   0  0  0  0  0  0  0  0  0  0  0  0
   -0.1073   21.8640  -25.9036 O   0  0  0  0  0  0  0  0  0  0  0  0
   -1.5092   23.1281  -27.3311 N   0  0  0  0  0  0  0  0  0  0  0  0
   -2.9325   23.3366  -27.4360 C   0  0  0  0  0  0  0  0  0  0  0  0
   -3.6308   24.1520  -28.3037 C   0  0  0  0  0  0  0  0  0  0  0  0
   -0.7977   23.5891  -27.9550 H   0  0  0  0  0  0  0  0  0  0  0  0
   -5.7638   25.0930  -29.1287 C   0  0  0  0  0  0  0  0  0  0  0  0
   -6.4769   25.9916  -28.6457 O   0  0  0  0  0  0  0  0  0  0  0  0
   -5.3695   25.9748  -31.3424 C   0  0  0  0  0  0  0  0  0  0  0  0
   -5.6450   24.8577  -30.4872 O   0  0  0  0  0  0  0  0  0  0  0  0
   -1.1438   21.5022  -22.2778 C   0  0  0  0  0  0  0  0  0  0  0  0
   -0.4329   20.3684  -21.8563 C   0  0  0  0  0  0  0  0  0  0  0  0
    0.0681   20.2555  -20.5820 C   0  0  0  0  0  0  0  0  0  0  0  0
   -0.1017   21.2462  -19.6574 C   0  0  0  0  0  0  0  0  0  0  0  0
   -0.7977   22.3602  -20.0655 C   0  0  0  0  0  0  0  0  0  0  0  0
   -1.3060   22.5080  -21.3100 C   0  0  0  0  0  0  0  0  0  0  0  0
    0.4335   21.0953  -18.3490 N   0  0  0  0  0  0  0  0  0  0  0  0
   -0.4406   20.4583  -17.3870 C   0  0  0  0  0  0  0  0  0  0  0  0
    1.7332   21.4811  -18.0465 C   0  0  0  0  0  0  0  0  0  0  0  0
    2.4427   21.8276  -19.0997 O   0  0  0  0  0  0  0  0  0  0  0  0
    2.4623   21.5718  -16.7933 C   0  0  0  0  0  0  0  0  0  0  0  0
    2.2437   22.6325  -15.9059 N   0  0  0  0  0  0  0  0  0  0  0  0
    3.2793   23.5985  -15.7372 C   0  0  0  0  0  0  0  0  0  0  0  0
    4.0037   23.3764  -14.4226 C   0  0  0  0  0  0  0  0  0  0  0  0
    3.1303   23.3575  -13.2984 N   0  0  0  0  0  0  0  0  0  0  0  0
    3.6062   22.6597  -12.1488 C   0  0  0  0  0  0  0  0  0  0  0  0
    1.7422   23.2005  -13.5718 C   0  0  0  0  0  0  0  0  0  0  0  0
    1.4005   22.4027  -14.7844 C   0  0  0  0  0  0  0  0  0  0  0  0
   -3.4679   23.2016  -23.8118 C   0  0  0  0  0  0  0  0  0  0  0  0
   -4.6914   22.8997  -23.2548 C   0  0  0  0  0  0  0  0  0  0  0  0
   -5.5869   23.9026  -22.9565 C   0  0  0  0  0  0  0  0  0  0  0  0
   -5.3195   25.2321  -23.1907 C   0  0  0  0  0  0  0  0  0  0  0  0
   -4.0833   25.5087  -23.7503 C   0  0  0  0  0  0  0  0  0  0  0  0
   -3.1635   24.5446  -24.0627 C   0  0  0  0  0  0  0  0  0  0  0  0
 16 17  1  0  0  0
 17 14  1  0  0  0
 14 15  2  0  0  0
 14  3  1  0  0  0
  3  4  2  0  0  0
  4  5  1  0  0  0
  5  6  2  0  0  0
  6  7  1  0  0  0
  7  1  1  0  0  0
  1  2  2  0  0  0
  2 18  1  0  0  0
 18 19  2  0  0  0
 19 20  1  0  0  0
 20 21  2  0  0  0
 21 22  1  0  0  0
 22 23  2  0  0  0
 21 24  1  0  0  0
 24 25  1  0  0  0
 24 26  1  0  0  0
 26 27  2  0  0  0
 26 28  1  0  0  0
 28 29  1  0  0  0
 29 30  1  0  0  0
 30 31  1  0  0  0
 31 32  1  0  0  0
 32 33  1  0  0  0
 32 34  1  0  0  0
 34 35  1  0  0  0
  1 36  1  0  0  0
 36 37  2  0  0  0
 37 38  1  0  0  0
 38 39  2  0  0  0
 39 40  1  0  0  0
 40 41  2  0  0  0
  7  8  1  0  0  0
  8  9  2  0  0  0
  8 10  1  0  0  0
 10 11  1  0  0  0
 11 12  2  0  0  0
 12  3  1  0  0  0
 11  6  1  0  0  0
 23 18  1  0  0  0
 35 29  1  0  0  0
 41 36  1  0  0  0
 10 13  1  0  0  0
M  END
> <minimizedAffinity>
-8.45347

> <CNNscore>
0.4613130093

> <CNNaffinity>
6.8404746056

> <CNN_VS>
3.1555998325

> <CNNaffinity_variance>
0.7843462229

$$$$
[H]c1c([H])c([H])c(C(=Nc2c([H])c([H])c(N(C(=O)C([H])([H])N3C([H])([H])C([H])([H])N(C([H])([H])[H])C([H])([H])C3([H])[H])C([H])([H])[H])c([H])c2[H])C2([H])C(=O)N([H])c3c([H])c(C(=O)OC([H])([H])[H])c([H])c([H])c32)c([H])c1[H]


 41 45  0  0  0  0  0  0  0  0999 V2000
   -2.5483   22.2884  -24.7501 C   0  0  0  0  0  0  0  0  0  0  0  0
   -1.6070   21.8868  -24.0701 N   0  0  0  0  0  0  0  0  0  0  0  0
   -4.8861   24.3651  -28.8278 C   0  0  0  0  0  0  0  0  0  0  0  0
   -5.5445   23.6139  -27.8765 C   0  0  0  0  0  0  0  0  0  0  0  0
   -4.8718   22.8009  -26.9925 C   0  0  0  0  0  0  0  0  0  0  0  0
   -3.4854   22.6989  -27.0190 C   0  0  0  0  0  0  0  0  0  0  0  0
   -2.4911   21.8950  -26.2148 C   0  0  0  0  0  0  0  0  0  0  0  0
   -1.1956   22.3511  -26.7807 C   0  0  0  0  0  0  0  0  0  0  0  0
   -0.0836   21.9616  -26.3438 O   0  0  0  0  0  0  0  0  0  0  0  0
   -1.4278   23.2333  -27.8192 N   0  0  0  0  0  0  0  0  0  0  0  0
   -2.8452   23.4533  -27.9707 C   0  0  0  0  0  0  0  0  0  0  0  0
   -3.5081   24.2720  -28.8627 C   0  0  0  0  0  0  0  0  0  0  0  0
   -0.6927   23.6867  -28.4209 H   0  0  0  0  0  0  0  0  0  0  0  0
   -5.6054   25.2283  -29.7588 C   0  0  0  0  0  0  0  0  0  0  0  0
   -6.3806   26.0884  -29.3018 O   0  0  0  0  0  0  0  0  0  0  0  0
   -6.2599   24.1540  -31.8206 C   0  0  0  0  0  0  0  0  0  0  0  0
   -5.3834   25.0397  -31.1116 O   0  0  0  0  0  0  0  0  0  0  0  0
   -1.0610   21.8639  -22.8115 C   0  0  0  0  0  0  0  0  0  0  0  0
   -1.7054   22.4281  -21.7004 C   0  0  0  0  0  0  0  0  0  0  0  0
   -1.1415   22.4154  -20.4477 C   0  0  0  0  0  0  0  0  0  0  0  0
    0.0808   21.8500  -20.2203 C   0  0  0  0  0  0  0  0  0  0  0  0
    0.7169   21.2950  -21.3062 C   0  0  0  0  0  0  0  0  0  0  0  0
    0.1948   21.2882  -22.5538 C   0  0  0  0  0  0  0  0  0  0  0  0
    0.6316   21.8530  -18.9097 N   0  0  0  0  0  0  0  0  0  0  0  0
    1.1980   23.1117  -18.4740 C   0  0  0  0  0  0  0  0  0  0  0  0
    0.5657   20.7327  -18.0911 C   0  0  0  0  0  0  0  0  0  0  0  0
   -0.1826   19.7643  -18.5760 O   0  0  0  0  0  0  0  0  0  0  0  0
    1.1591   20.4247  -16.8015 C   0  0  0  0  0  0  0  0  0  0  0  0
    0.3912   20.4412  -15.6309 N   0  0  0  0  0  0  0  0  0  0  0  0
    0.0169   19.1940  -15.0490 C   0  0  0  0  0  0  0  0  0  0  0  0
   -1.4403   18.8878  -15.3406 C   0  0  0  0  0  0  0  0  0  0  0  0
   -2.3228   19.9292  -14.9360 N   0  0  0  0  0  0  0  0  0  0  0  0
   -3.5789   19.9814  -15.6104 C   0  0  0  0  0  0  0  0  0  0  0  0
   -1.7316   21.1935  -14.6563 C   0  0  0  0  0  0  0  0  0  0  0  0
   -0.5041   21.5280  -15.4340 C   0  0  0  0  0  0  0  0  0  0  0  0
   -3.6406   23.1657  -24.3260 C   0  0  0  0  0  0  0  0  0  0  0  0
   -4.8609   22.6760  -23.9147 C   0  0  0  0  0  0  0  0  0  0  0  0
   -5.8895   23.5388  -23.6077 C   0  0  0  0  0  0  0  0  0  0  0  0
   -5.7626   24.9067  -23.6914 C   0  0  0  0  0  0  0  0  0  0  0  0
   -4.5265   25.3729  -24.1065 C   0  0  0  0  0  0  0  0  0  0  0  0
   -3.4772   24.5525  -24.4215 C   0  0  0  0  0  0  0  0  0  0  0  0
 16 17  1  0  0  0
 17 14  1  0  0  0
 14 15  2  0  0  0
 14  3  1  0  0  0
  3  4  2  0  0  0
  4  5  1  0  0  0
  5  6  2  0  0  0
  6  7  1  0  0  0
  7  1  1  0  0  0
  1  2  2  0  0  0
  2 18  1  0  0  0
 18 19  2  0  0  0
 19 20  1  0  0  0
 20 21  2  0  0  0
 21 22  1  0  0  0
 22 23  2  0  0  0
 21 24  1  0  0  0
 24 25  1  0  0  0
 24 26  1  0  0  0
 26 27  2  0  0  0
 26 28  1  0  0  0
 28 29  1  0  0  0
 29 30  1  0  0  0
 30 31  1  0  0  0
 31 32  1  0  0  0
 32 33  1  0  0  0
 32 34  1  0  0  0
 34 35  1  0  0  0
  1 36  1  0  0  0
 36 37  2  0  0  0
 37 38  1  0  0  0
 38 39  2  0  0  0
 39 40  1  0  0  0
 40 41  2  0  0  0
  7  8  1  0  0  0
  8  9  2  0  0  0
  8 10  1  0  0  0
 10 11  1  0  0  0
 11 12  2  0  0  0
 12  3  1  0  0  0
 11  6  1  0  0  0
 23 18  1  0  0  0
 35 29  1  0  0  0
 41 36  1  0  0  0
 10 13  1  0  0  0
M  END
> <minimizedAffinity>
-7.75172

> <CNNscore>
0.4545314014

> <CNNaffinity>
7.0396318436

> <CNN_VS>
3.1997337341

> <CNNaffinity_variance>
0.4889148772

$$$$
[H]c1c([H])c([H])c(C(=Nc2c([H])c([H])c(N(C(=O)C([H])([H])N3C([H])([H])C([H])([H])N(C([H])([H])[H])C([H])([H])C3([H])[H])C([H])([H])[H])c([H])c2[H])C2([H])C(=O)N([H])c3c([H])c(C(=O)OC([H])([H])[H])c([H])c([H])c32)c([H])c1[H]


 41 45  0  0  0  0  0  0  0  0999 V2000
   -2.7241   22.4174  -24.3720 C   0  0  0  0  0  0  0  0  0  0  0  0
   -1.7790   22.0680  -23.6688 N   0  0  0  0  0  0  0  0  0  0  0  0
   -4.9405   24.2800  -28.6174 C   0  0  0  0  0  0  0  0  0  0  0  0
   -5.6384   23.6355  -27.6172 C   0  0  0  0  0  0  0  0  0  0  0  0
   -5.0092   22.8628  -26.6675 C   0  0  0  0  0  0  0  0  0  0  0  0
   -3.6289   22.6948  -26.6738 C   0  0  0  0  0  0  0  0  0  0  0  0
   -2.6777   21.9101  -25.8016 C   0  0  0  0  0  0  0  0  0  0  0  0
   -1.3593   22.2607  -26.3893 C   0  0  0  0  0  0  0  0  0  0  0  0
   -0.2690   21.8550  -25.9141 O   0  0  0  0  0  0  0  0  0  0  0  0
   -1.5444   23.0702  -27.4944 N   0  0  0  0  0  0  0  0  0  0  0  0
   -2.9491   23.3433  -27.6749 C   0  0  0  0  0  0  0  0  0  0  0  0
   -3.5682   24.1207  -28.6329 C   0  0  0  0  0  0  0  0  0  0  0  0
   -0.7857   23.4413  -28.1226 H   0  0  0  0  0  0  0  0  0  0  0  0
   -5.6136   25.1013  -29.6182 C   0  0  0  0  0  0  0  0  0  0  0  0
   -6.3978   25.9892  -29.2360 O   0  0  0  0  0  0  0  0  0  0  0  0
   -6.1069   23.8283  -31.6107 C   0  0  0  0  0  0  0  0  0  0  0  0
   -5.3400   24.8436  -30.9500 O   0  0  0  0  0  0  0  0  0  0  0  0
   -1.2244   22.1425  -22.4160 C   0  0  0  0  0  0  0  0  0  0  0  0
   -0.2655   21.2250  -21.9609 C   0  0  0  0  0  0  0  0  0  0  0  0
    0.2702   21.2982  -20.6979 C   0  0  0  0  0  0  0  0  0  0  0  0
   -0.1058   22.2727  -19.8180 C   0  0  0  0  0  0  0  0  0  0  0  0
   -1.0455   23.1751  -20.2592 C   0  0  0  0  0  0  0  0  0  0  0  0
   -1.5958   23.1358  -21.4939 C   0  0  0  0  0  0  0  0  0  0  0  0
    0.4724   22.3187  -18.5201 N   0  0  0  0  0  0  0  0  0  0  0  0
    1.6731   23.1182  -18.4001 C   0  0  0  0  0  0  0  0  0  0  0  0
   -0.1226   21.6853  -17.4364 C   0  0  0  0  0  0  0  0  0  0  0  0
   -1.3196   21.2027  -17.6954 O   0  0  0  0  0  0  0  0  0  0  0  0
    0.3187   21.4561  -16.0715 C   0  0  0  0  0  0  0  0  0  0  0  0
    0.8303   20.2140  -15.6770 N   0  0  0  0  0  0  0  0  0  0  0  0
   -0.0338   19.3145  -14.9854 C   0  0  0  0  0  0  0  0  0  0  0  0
    0.2927   19.2976  -13.5038 C   0  0  0  0  0  0  0  0  0  0  0  0
    1.6601   19.0054  -13.2353 N   0  0  0  0  0  0  0  0  0  0  0  0
    2.1643   19.4689  -11.9839 C   0  0  0  0  0  0  0  0  0  0  0  0
    2.5625   19.1142  -14.3307 C   0  0  0  0  0  0  0  0  0  0  0  0
    2.2152   20.1297  -15.3659 C   0  0  0  0  0  0  0  0  0  0  0  0
   -3.8117   23.3279  -24.0108 C   0  0  0  0  0  0  0  0  0  0  0  0
   -3.7251   24.6900  -24.1995 C   0  0  0  0  0  0  0  0  0  0  0  0
   -4.7359   25.5184  -23.7652 C   0  0  0  0  0  0  0  0  0  0  0  0
   -5.8638   25.0470  -23.1331 C   0  0  0  0  0  0  0  0  0  0  0  0
   -5.9265   23.6750  -22.9563 C   0  0  0  0  0  0  0  0  0  0  0  0
   -4.9462   22.8149  -23.3715 C   0  0  0  0  0  0  0  0  0  0  0  0
 16 17  1  0  0  0
 17 14  1  0  0  0
 14 15  2  0  0  0
 14  3  1  0  0  0
  3  4  2  0  0  0
  4  5  1  0  0  0
  5  6  2  0  0  0
  6  7  1  0  0  0
  7  1  1  0  0  0
  1  2  2  0  0  0
  2 18  1  0  0  0
 18 19  2  0  0  0
 19 20  1  0  0  0
 20 21  2  0  0  0
 21 22  1  0  0  0
 22 23  2  0  0  0
 21 24  1  0  0  0
 24 25  1  0  0  0
 24 26  1  0  0  0
 26 27  2  0  0  0
 26 28  1  0  0  0
 28 29  1  0  0  0
 29 30  1  0  0  0
 30 31  1  0  0  0
 31 32  1  0  0  0
 32 33  1  0  0  0
 32 34  1  0  0  0
 34 35  1  0  0  0
  1 36  1  0  0  0
 36 37  2  0  0  0
 37 38  1  0  0  0
 38 39  2  0  0  0
 39 40  1  0  0  0
 40 41  2  0  0  0
  7  8  1  0  0  0
  8  9  2  0  0  0
  8 10  1  0  0  0
 10 11  1  0  0  0
 11 12  2  0  0  0
 12  3  1  0  0  0
 11  6  1  0  0  0
 23 18  1  0  0  0
 35 29  1  0  0  0
 41 36  1  0  0  0
 10 13  1  0  0  0
M  END
> <minimizedAffinity>
-8.03547

> <CNNscore>
0.4251716435

> <CNNaffinity>
6.7672986984

> <CNN_VS>
2.8772635460

> <CNNaffinity_variance>
0.5296824574

$$$$
[H]c1c([H])c([H])c(C(=Nc2c([H])c([H])c(N(C(=O)C([H])([H])N3C([H])([H])C([H])([H])N(C([H])([H])[H])C([H])([H])C3([H])[H])C([H])([H])[H])c([H])c2[H])C2([H])C(=O)N([H])c3c([H])c(C(=O)OC([H])([H])[H])c([H])c([H])c32)c([H])c1[H]


 41 45  0  0  0  0  0  0  0  0999 V2000
   -6.7961   23.9473  -22.4782 C   0  0  0  0  0  0  0  0  0  0  0  0
   -7.5883   23.9088  -21.5398 N   0  0  0  0  0  0  0  0  0  0  0  0
   -4.8212   24.8112  -27.1429 C   0  0  0  0  0  0  0  0  0  0  0  0
   -4.0772   24.8620  -25.9824 C   0  0  0  0  0  0  0  0  0  0  0  0
   -4.6641   24.9592  -24.7411 C   0  0  0  0  0  0  0  0  0  0  0  0
   -6.0463   25.0116  -24.5994 C   0  0  0  0  0  0  0  0  0  0  0  0
   -6.9602   25.1390  -23.4035 C   0  0  0  0  0  0  0  0  0  0  0  0
   -8.3039   25.0720  -24.0333 C   0  0  0  0  0  0  0  0  0  0  0  0
   -9.3713   25.0849  -23.3702 O   0  0  0  0  0  0  0  0  0  0  0  0
   -8.1693   24.9978  -25.4070 N   0  0  0  0  0  0  0  0  0  0  0  0
   -6.7723   24.9591  -25.7635 C   0  0  0  0  0  0  0  0  0  0  0  0
   -6.1958   24.8618  -27.0139 C   0  0  0  0  0  0  0  0  0  0  0  0
   -8.9572   24.9728  -26.1046 H   0  0  0  0  0  0  0  0  0  0  0  0
   -4.1924   24.7035  -28.4552 C   0  0  0  0  0  0  0  0  0  0  0  0
   -4.1010   25.7244  -29.1615 O   0  0  0  0  0  0  0  0  0  0  0  0
   -2.3809   23.1069  -28.5075 C   0  0  0  0  0  0  0  0  0  0  0  0
   -3.7289   23.4593  -28.8451 O   0  0  0  0  0  0  0  0  0  0  0  0
   -7.9810   23.2028  -20.4308 C   0  0  0  0  0  0  0  0  0  0  0  0
   -9.1867   22.4870  -20.3814 C   0  0  0  0  0  0  0  0  0  0  0  0
   -9.5788   21.7980  -19.2593 C   0  0  0  0  0  0  0  0  0  0  0  0
   -8.8106   21.7753  -18.1303 C   0  0  0  0  0  0  0  0  0  0  0  0
   -7.6273   22.4751  -18.1734 C   0  0  0  0  0  0  0  0  0  0  0  0
   -7.2075   23.1651  -19.2582 C   0  0  0  0  0  0  0  0  0  0  0  0
   -9.2475   21.0489  -16.9890 N   0  0  0  0  0  0  0  0  0  0  0  0
  -10.1299   21.7659  -16.0933 C   0  0  0  0  0  0  0  0  0  0  0  0
   -8.8933   19.7199  -16.7941 C   0  0  0  0  0  0  0  0  0  0  0  0
   -8.2776   19.1781  -17.8237 O   0  0  0  0  0  0  0  0  0  0  0  0
   -9.0749   18.8111  -15.6755 C   0  0  0  0  0  0  0  0  0  0  0  0
   -8.3864   19.0015  -14.4713 N   0  0  0  0  0  0  0  0  0  0  0  0
   -7.2770   18.1525  -14.1839 C   0  0  0  0  0  0  0  0  0  0  0  0
   -7.6622   17.1047  -13.1564 C   0  0  0  0  0  0  0  0  0  0  0  0
   -8.2047   17.6627  -11.9642 N   0  0  0  0  0  0  0  0  0  0  0  0
   -9.0487   16.8036  -11.1996 C   0  0  0  0  0  0  0  0  0  0  0  0
   -8.6216   19.0222  -12.0286 C   0  0  0  0  0  0  0  0  0  0  0  0
   -9.1165   19.4925  -13.3543 C   0  0  0  0  0  0  0  0  0  0  0  0
   -5.7995   22.9388  -22.8420 C   0  0  0  0  0  0  0  0  0  0  0  0
   -4.5298   22.9316  -22.3071 C   0  0  0  0  0  0  0  0  0  0  0  0
   -3.5963   22.0175  -22.7425 C   0  0  0  0  0  0  0  0  0  0  0  0
   -3.8693   21.0806  -23.7129 C   0  0  0  0  0  0  0  0  0  0  0  0
   -5.1522   21.1087  -24.2336 C   0  0  0  0  0  0  0  0  0  0  0  0
   -6.1109   21.9986  -23.8310 C   0  0  0  0  0  0  0  0  0  0  0  0
 16 17  1  0  0  0
 17 14  1  0  0  0
 14 15  2  0  0  0
 14  3  1  0  0  0
  3  4  2  0  0  0
  4  5  1  0  0  0
  5  6  2  0  0  0
  6  7  1  0  0  0
  7  1  1  0  0  0
  1  2  2  0  0  0
  2 18  1  0  0  0
 18 19  2  0  0  0
 19 20  1  0  0  0
 20 21  2  0  0  0
 21 22  1  0  0  0
 22 23  2  0  0  0
 21 24  1  0  0  0
 24 25  1  0  0  0
 24 26  1  0  0  0
 26 27  2  0  0  0
 26 28  1  0  0  0
 28 29  1  0  0  0
 29 30  1  0  0  0
 30 31  1  0  0  0
 31 32  1  0  0  0
 32 33  1  0  0  0
 32 34  1  0  0  0
 34 35  1  0  0  0
  1 36  1  0  0  0
 36 37  2  0  0  0
 37 38  1  0  0  0
 38 39  2  0  0  0
 39 40  1  0  0  0
 40 41  2  0  0  0
  7  8  1  0  0  0
  8  9  2  0  0  0
  8 10  1  0  0  0
 10 11  1  0  0  0
 11 12  2  0  0  0
 12  3  1  0  0  0
 11  6  1  0  0  0
 23 18  1  0  0  0
 35 29  1  0  0  0
 41 36  1  0  0  0
 10 13  1  0  0  0
M  END
> <minimizedAffinity>
-7.31315

> <CNNscore>
0.2773277164

> <CNNaffinity>
6.0101237297

> <CNN_VS>
1.6667739153

> <CNNaffinity_variance>
0.0647792593

$$$$
[H]c1c([H])c([H])c(C(=Nc2c([H])c([H])c(N(C(=O)C([H])([H])N3C([H])([H])C([H])([H])N(C([H])([H])[H])C([H])([H])C3([H])[H])C([H])([H])[H])c([H])c2[H])C2([H])C(=O)N([H])c3c([H])c(C(=O)OC([H])([H])[H])c([H])c([H])c32)c([H])c1[H]


 41 45  0  0  0  0  0  0  0  0999 V2000
   -5.1417   24.2127  -22.9589 C   0  0  0  0  0  0  0  0  0  0  0  0
   -6.1760   24.0007  -22.3304 N   0  0  0  0  0  0  0  0  0  0  0  0
   -5.3458   23.9217  -28.0853 C   0  0  0  0  0  0  0  0  0  0  0  0
   -4.1997   23.6809  -27.3565 C   0  0  0  0  0  0  0  0  0  0  0  0
   -4.0700   24.0782  -26.0449 C   0  0  0  0  0  0  0  0  0  0  0  0
   -5.0978   24.7469  -25.3894 C   0  0  0  0  0  0  0  0  0  0  0  0
   -5.2404   25.3152  -23.9972 C   0  0  0  0  0  0  0  0  0  0  0  0
   -6.6338   25.8298  -24.0150 C   0  0  0  0  0  0  0  0  0  0  0  0
   -7.1860   26.3433  -23.0097 O   0  0  0  0  0  0  0  0  0  0  0  0
   -7.1789   25.6497  -25.2724 N   0  0  0  0  0  0  0  0  0  0  0  0
   -6.2317   24.9781  -26.1280 C   0  0  0  0  0  0  0  0  0  0  0  0
   -6.3740   24.5850  -27.4436 C   0  0  0  0  0  0  0  0  0  0  0  0
   -8.1399   25.9513  -25.5783 H   0  0  0  0  0  0  0  0  0  0  0  0
   -5.4781   23.4937  -29.4740 C   0  0  0  0  0  0  0  0  0  0  0  0
   -5.0091   22.3901  -29.8082 O   0  0  0  0  0  0  0  0  0  0  0  0
   -5.3418   25.3529  -31.0096 C   0  0  0  0  0  0  0  0  0  0  0  0
   -6.1235   24.3480  -30.3506 O   0  0  0  0  0  0  0  0  0  0  0  0
   -6.7558   23.2391  -21.3473 C   0  0  0  0  0  0  0  0  0  0  0  0
   -6.2994   23.2472  -20.0206 C   0  0  0  0  0  0  0  0  0  0  0  0
   -6.8760   22.4670  -19.0477 C   0  0  0  0  0  0  0  0  0  0  0  0
   -7.9274   21.6407  -19.3249 C   0  0  0  0  0  0  0  0  0  0  0  0
   -8.3790   21.6291  -20.6240 C   0  0  0  0  0  0  0  0  0  0  0  0
   -7.8379   22.3817  -21.6089 C   0  0  0  0  0  0  0  0  0  0  0  0
   -8.5004   20.8501  -18.2916 N   0  0  0  0  0  0  0  0  0  0  0  0
   -9.5476   21.4902  -17.5242 C   0  0  0  0  0  0  0  0  0  0  0  0
   -8.1143   19.5316  -18.0864 C   0  0  0  0  0  0  0  0  0  0  0  0
   -7.3181   19.0598  -19.0224 O   0  0  0  0  0  0  0  0  0  0  0  0
   -8.4227   18.5712  -17.0410 C   0  0  0  0  0  0  0  0  0  0  0  0
   -9.6244   17.8528  -17.0521 N   0  0  0  0  0  0  0  0  0  0  0  0
  -10.6698   18.2681  -16.1753 C   0  0  0  0  0  0  0  0  0  0  0  0
  -10.7655   17.3343  -14.9832 C   0  0  0  0  0  0  0  0  0  0  0  0
  -10.9175   15.9679  -15.3534 N   0  0  0  0  0  0  0  0  0  0  0  0
  -10.4989   15.0076  -14.3850 C   0  0  0  0  0  0  0  0  0  0  0  0
  -10.6187   15.6362  -16.7050 C   0  0  0  0  0  0  0  0  0  0  0  0
   -9.5718   16.4671  -17.3663 C   0  0  0  0  0  0  0  0  0  0  0  0
   -3.8849   23.4666  -22.8799 C   0  0  0  0  0  0  0  0  0  0  0  0
   -3.8276   22.1004  -23.0489 C   0  0  0  0  0  0  0  0  0  0  0  0
   -2.6380   21.4274  -22.8797 C   0  0  0  0  0  0  0  0  0  0  0  0
   -1.4656   22.0634  -22.5407 C   0  0  0  0  0  0  0  0  0  0  0  0
   -1.5500   23.4360  -22.3774 C   0  0  0  0  0  0  0  0  0  0  0  0
   -2.7101   24.1449  -22.5353 C   0  0  0  0  0  0  0  0  0  0  0  0
 16 17  1  0  0  0
 17 14  1  0  0  0
 14 15  2  0  0  0
 14  3  1  0  0  0
  3  4  2  0  0  0
  4  5  1  0  0  0
  5  6  2  0  0  0
  6  7  1  0  0  0
  7  1  1  0  0  0
  1  2  2  0  0  0
  2 18  1  0  0  0
 18 19  2  0  0  0
 19 20  1  0  0  0
 20 21  2  0  0  0
 21 22  1  0  0  0
 22 23  2  0  0  0
 21 24  1  0  0  0
 24 25  1  0  0  0
 24 26  1  0  0  0
 26 27  2  0  0  0
 26 28  1  0  0  0
 28 29  1  0  0  0
 29 30  1  0  0  0
 30 31  1  0  0  0
 31 32  1  0  0  0
 32 33  1  0  0  0
 32 34  1  0  0  0
 34 35  1  0  0  0
  1 36  1  0  0  0
 36 37  2  0  0  0
 37 38  1  0  0  0
 38 39  2  0  0  0
 39 40  1  0  0  0
 40 41  2  0  0  0
  7  8  1  0  0  0
  8  9  2  0  0  0
  8 10  1  0  0  0
 10 11  1  0  0  0
 11 12  2  0  0  0
 12  3  1  0  0  0
 11  6  1  0  0  0
 23 18  1  0  0  0
 35 29  1  0  0  0
 41 36  1  0  0  0
 10 13  1  0  0  0
M  END
> <minimizedAffinity>
-8.52182

> <CNNscore>
0.2067041993

> <CNNaffinity>
6.1822319031

> <CNN_VS>
1.2778933048

> <CNNaffinity_variance>
0.1028717160

$$$$
[H]c1c([H])c([H])c(C(=Nc2c([H])c([H])c(N(C(=O)C([H])([H])N3C([H])([H])C([H])([H])N(C([H])([H])[H])C([H])([H])C3([H])[H])C([H])([H])[H])c([H])c2[H])C2([H])C(=O)N([H])c3c([H])c(C(=O)OC([H])([H])[H])c([H])c([H])c32)c([H])c1[H]


 41 45  0  0  0  0  0  0  0  0999 V2000
   -3.2698   23.0931  -24.5084 C   0  0  0  0  0  0  0  0  0  0  0  0
   -3.0663   22.8667  -23.3180 N   0  0  0  0  0  0  0  0  0  0  0  0
   -7.6338   22.5997  -21.8406 C   0  0  0  0  0  0  0  0  0  0  0  0
   -7.0225   21.5513  -22.4963 C   0  0  0  0  0  0  0  0  0  0  0  0
   -6.0623   21.7529  -23.4619 C   0  0  0  0  0  0  0  0  0  0  0  0
   -5.6619   23.0343  -23.8238 C   0  0  0  0  0  0  0  0  0  0  0  0
   -4.6749   23.5626  -24.8378 C   0  0  0  0  0  0  0  0  0  0  0  0
   -4.7533   25.0285  -24.6102 C   0  0  0  0  0  0  0  0  0  0  0  0
   -4.0322   25.8552  -25.2232 O   0  0  0  0  0  0  0  0  0  0  0  0
   -5.7133   25.2987  -23.6531 N   0  0  0  0  0  0  0  0  0  0  0  0
   -6.2790   24.0664  -23.1615 C   0  0  0  0  0  0  0  0  0  0  0  0
   -7.2431   23.8775  -22.1917 C   0  0  0  0  0  0  0  0  0  0  0  0
   -6.0020   26.2547  -23.3202 H   0  0  0  0  0  0  0  0  0  0  0  0
   -8.6477   22.3785  -20.8148 C   0  0  0  0  0  0  0  0  0  0  0  0
   -8.9283   21.2096  -20.4916 O   0  0  0  0  0  0  0  0  0  0  0  0
  -10.6041   23.7807  -20.6148 C   0  0  0  0  0  0  0  0  0  0  0  0
   -9.2470   23.4924  -20.2535 O   0  0  0  0  0  0  0  0  0  0  0  0
   -2.1352   22.4596  -22.3961 C   0  0  0  0  0  0  0  0  0  0  0  0
   -1.7192   23.2768  -21.3342 C   0  0  0  0  0  0  0  0  0  0  0  0
   -0.7728   22.8659  -20.4270 C   0  0  0  0  0  0  0  0  0  0  0  0
   -0.1869   21.6353  -20.5139 C   0  0  0  0  0  0  0  0  0  0  0  0
   -0.5913   20.8299  -21.5530 C   0  0  0  0  0  0  0  0  0  0  0  0
   -1.5190   21.1986  -22.4655 C   0  0  0  0  0  0  0  0  0  0  0  0
    0.7867   21.2434  -19.5550 N   0  0  0  0  0  0  0  0  0  0  0  0
    0.2622   20.7299  -18.3074 C   0  0  0  0  0  0  0  0  0  0  0  0
    2.1461   21.2963  -19.8361 C   0  0  0  0  0  0  0  0  0  0  0  0
    2.4176   21.5738  -21.0939 O   0  0  0  0  0  0  0  0  0  0  0  0
    3.3259   21.1002  -19.0116 C   0  0  0  0  0  0  0  0  0  0  0  0
    3.9395   22.1777  -18.3613 N   0  0  0  0  0  0  0  0  0  0  0  0
    4.9451   21.8983  -17.3893 C   0  0  0  0  0  0  0  0  0  0  0  0
    4.3948   22.0828  -15.9875 C   0  0  0  0  0  0  0  0  0  0  0  0
    3.8192   23.3679  -15.7768 N   0  0  0  0  0  0  0  0  0  0  0  0
    2.8489   23.4549  -14.7347 C   0  0  0  0  0  0  0  0  0  0  0  0
    3.5307   24.1360  -16.9399 C   0  0  0  0  0  0  0  0  0  0  0  0
    3.1770   23.3615  -18.1641 C   0  0  0  0  0  0  0  0  0  0  0  0
   -2.3504   22.8700  -25.6254 C   0  0  0  0  0  0  0  0  0  0  0  0
   -1.0070   22.6297  -25.4366 C   0  0  0  0  0  0  0  0  0  0  0  0
   -0.1623   22.5122  -26.5180 C   0  0  0  0  0  0  0  0  0  0  0  0
   -0.5989   22.6248  -27.8183 C   0  0  0  0  0  0  0  0  0  0  0  0
   -1.9529   22.8656  -27.9805 C   0  0  0  0  0  0  0  0  0  0  0  0
   -2.8281   22.9894  -26.9356 C   0  0  0  0  0  0  0  0  0  0  0  0
 16 17  1  0  0  0
 17 14  1  0  0  0
 14 15  2  0  0  0
 14  3  1  0  0  0
  3  4  2  0  0  0
  4  5  1  0  0  0
  5  6  2  0  0  0
  6  7  1  0  0  0
  7  1  1  0  0  0
  1  2  2  0  0  0
  2 18  1  0  0  0
 18 19  2  0  0  0
 19 20  1  0  0  0
 20 21  2  0  0  0
 21 22  1  0  0  0
 22 23  2  0  0  0
 21 24  1  0  0  0
 24 25  1  0  0  0
 24 26  1  0  0  0
 26 27  2  0  0  0
 26 28  1  0  0  0
 28 29  1  0  0  0
 29 30  1  0  0  0
 30 31  1  0  0  0
 31 32  1  0  0  0
 32 33  1  0  0  0
 32 34  1  0  0  0
 34 35  1  0  0  0
  1 36  1  0  0  0
 36 37  2  0  0  0
 37 38  1  0  0  0
 38 39  2  0  0  0
 39 40  1  0  0  0
 40 41  2  0  0  0
  7  8  1  0  0  0
  8  9  2  0  0  0
  8 10  1  0  0  0
 10 11  1  0  0  0
 11 12  2  0  0  0
 12  3  1  0  0  0
 11  6  1  0  0  0
 23 18  1  0  0  0
 35 29  1  0  0  0
 41 36  1  0  0  0
 10 13  1  0  0  0
M  END
> <minimizedAffinity>
-9.13074

> <CNNscore>
0.1776219904

> <CNNaffinity>
6.0949029922

> <CNN_VS>
1.0825887918

> <CNNaffinity_variance>
0.5245425105

$$$$
[H]c1c([H])c([H])c(C(=Nc2c([H])c([H])c(N(C(=O)C([H])([H])N3C([H])([H])C([H])([H])N(C([H])([H])[H])C([H])([H])C3([H])[H])C([H])([H])[H])c([H])c2[H])C2([H])C(=O)N([H])c3c([H])c(C(=O)OC([H])([H])[H])c([H])c([H])c32)c([H])c1[H]


 41 45  0  0  0  0  0  0  0  0999 V2000
   -6.6033   24.6396  -22.1514 C   0  0  0  0  0  0  0  0  0  0  0  0
   -6.9474   24.8116  -20.9845 N   0  0  0  0  0  0  0  0  0  0  0  0
   -5.3134   25.5363  -27.0441 C   0  0  0  0  0  0  0  0  0  0  0  0
   -4.5147   25.8804  -25.9733 C   0  0  0  0  0  0  0  0  0  0  0  0
   -5.0020   25.9414  -24.6874 C   0  0  0  0  0  0  0  0  0  0  0  0
   -6.3337   25.6568  -24.4069 C   0  0  0  0  0  0  0  0  0  0  0  0
   -7.1471   25.6603  -23.1342 C   0  0  0  0  0  0  0  0  0  0  0  0
   -8.4747   25.1988  -23.6149 C   0  0  0  0  0  0  0  0  0  0  0  0
   -9.4502   25.0039  -22.8471 O   0  0  0  0  0  0  0  0  0  0  0  0
   -8.4397   25.0337  -24.9869 N   0  0  0  0  0  0  0  0  0  0  0  0
   -7.1149   25.3153  -25.4829 C   0  0  0  0  0  0  0  0  0  0  0  0
   -6.6385   25.2506  -26.7769 C   0  0  0  0  0  0  0  0  0  0  0  0
   -9.2490   24.7464  -25.5956 H   0  0  0  0  0  0  0  0  0  0  0  0
   -4.7890   25.4692  -28.4041 C   0  0  0  0  0  0  0  0  0  0  0  0
   -5.2548   26.2385  -29.2647 O   0  0  0  0  0  0  0  0  0  0  0  0
   -4.1743   23.1699  -28.8151 C   0  0  0  0  0  0  0  0  0  0  0  0
   -3.7935   24.5437  -28.6636 O   0  0  0  0  0  0  0  0  0  0  0  0
   -6.8463   24.3332  -19.7025 C   0  0  0  0  0  0  0  0  0  0  0  0
   -5.8852   24.8052  -18.7959 C   0  0  0  0  0  0  0  0  0  0  0  0
   -5.7811   24.3064  -17.5200 C   0  0  0  0  0  0  0  0  0  0  0  0
   -6.6122   23.3213  -17.0682 C   0  0  0  0  0  0  0  0  0  0  0  0
   -7.5566   22.8551  -17.9529 C   0  0  0  0  0  0  0  0  0  0  0  0
   -7.6899   23.3202  -19.2158 C   0  0  0  0  0  0  0  0  0  0  0  0
   -6.4767   22.8318  -15.7404 N   0  0  0  0  0  0  0  0  0  0  0  0
   -6.0849   21.4433  -15.6243 C   0  0  0  0  0  0  0  0  0  0  0  0
   -6.6504   23.6605  -14.6391 C   0  0  0  0  0  0  0  0  0  0  0  0
   -6.7789   24.9336  -14.9478 O   0  0  0  0  0  0  0  0  0  0  0  0
   -6.7131   23.3944  -13.2124 C   0  0  0  0  0  0  0  0  0  0  0  0
   -7.9427   23.2751  -12.5535 N   0  0  0  0  0  0  0  0  0  0  0  0
   -9.1340   23.5503  -13.2879 C   0  0  0  0  0  0  0  0  0  0  0  0
   -9.6904   24.9096  -12.9075 C   0  0  0  0  0  0  0  0  0  0  0  0
   -9.9046   25.0550  -11.5075 N   0  0  0  0  0  0  0  0  0  0  0  0
   -9.9119   26.3926  -11.0118 C   0  0  0  0  0  0  0  0  0  0  0  0
   -9.2733   24.0986  -10.6631 C   0  0  0  0  0  0  0  0  0  0  0  0
   -7.9815   23.5413  -11.1573 C   0  0  0  0  0  0  0  0  0  0  0  0
   -5.8228   23.5261  -22.6931 C   0  0  0  0  0  0  0  0  0  0  0  0
   -6.4032   22.4943  -23.3980 C   0  0  0  0  0  0  0  0  0  0  0  0
   -5.6448   21.4227  -23.8142 C   0  0  0  0  0  0  0  0  0  0  0  0
   -4.2965   21.3216  -23.5575 C   0  0  0  0  0  0  0  0  0  0  0  0
   -3.7377   22.3716  -22.8482 C   0  0  0  0  0  0  0  0  0  0  0  0
   -4.4529   23.4552  -22.4153 C   0  0  0  0  0  0  0  0  0  0  0  0
 16 17  1  0  0  0
 17 14  1  0  0  0
 14 15  2  0  0  0
 14  3  1  0  0  0
  3  4  2  0  0  0
  4  5  1  0  0  0
  5  6  2  0  0  0
  6  7  1  0  0  0
  7  1  1  0  0  0
  1  2  2  0  0  0
  2 18  1  0  0  0
 18 19  2  0  0  0
 19 20  1  0  0  0
 20 21  2  0  0  0
 21 22  1  0  0  0
 22 23  2  0  0  0
 21 24  1  0  0  0
 24 25  1  0  0  0
 24 26  1  0  0  0
 26 27  2  0  0  0
 26 28  1  0  0  0
 28 29  1  0  0  0
 29 30  1  0  0  0
 30 31  1  0  0  0
 31 32  1  0  0  0
 32 33  1  0  0  0
 32 34  1  0  0  0
 34 35  1  0  0  0
  1 36  1  0  0  0
 36 37  2  0  0  0
 37 38  1  0  0  0
 38 39  2  0  0  0
 39 40  1  0  0  0
 40 41  2  0  0  0
  7  8  1  0  0  0
  8  9  2  0  0  0
  8 10  1  0  0  0
 10 11  1  0  0  0
 11 12  2  0  0  0
 12  3  1  0  0  0
 11  6  1  0  0  0
 23 18  1  0  0  0
 35 29  1  0  0  0
 41 36  1  0  0  0
 10 13  1  0  0  0
M  END
> <minimizedAffinity>
-8.07117

> <CNNscore>
0.1742867678

> <CNNaffinity>
5.7255506516

> <CNN_VS>
0.9978877306

> <CNNaffinity_variance>
0.2981443405

$$$$
[H]Oc1c([H])c([H])c(Cl)c(-n2nc([H])c(C(=O)c3c([H])c4c([H])c([H])c([H])c([H])c4n3[H])c2N([H])[H])c1[H]


 29 32  0  0  0  0  0  0  0  0999 V2000
   -1.7045   23.8598  -22.1332 N   0  0  0  0  0  0  0  0  0  0  0  0
   -1.0765   22.6091  -22.0250 C   0  0  0  0  0  0  0  0  0  0  0  0
   -0.6871   22.0350  -20.8268 C   0  0  0  0  0  0  0  0  0  0  0  0
   -0.1211   20.8307  -21.1549 C   0  0  0  0  0  0  0  0  0  0  0  0
   -0.1876   20.7282  -22.4892 N   0  0  0  0  0  0  0  0  0  0  0  0
   -0.7602   21.7929  -23.0157 N   0  0  0  0  0  0  0  0  0  0  0  0
   -1.3339   24.6944  -21.6503 H   0  0  0  0  0  0  0  0  0  0  0  0
   -2.5636   23.9476  -22.7134 H   0  0  0  0  0  0  0  0  0  0  0  0
   -0.9692   21.9633  -24.4279 C   0  0  0  0  0  0  0  0  0  0  0  0
    0.0389   22.3175  -25.3002 C   0  0  0  0  0  0  0  0  0  0  0  0
   -0.1863   22.4755  -26.6560 C   0  0  0  0  0  0  0  0  0  0  0  0
    0.8813   22.8334  -27.4664 O   0  0  0  0  0  0  0  0  0  0  0  0
   -1.4410   22.2826  -27.1928 C   0  0  0  0  0  0  0  0  0  0  0  0
   -2.4522   21.9284  -26.3257 C   0  0  0  0  0  0  0  0  0  0  0  0
   -2.2265   21.7687  -24.9577 C   0  0  0  0  0  0  0  0  0  0  0  0
   -3.5383   21.3185  -23.8863 Cl  0  0  0  0  0  0  0  0  0  0  0  0
    1.4843   22.1615  -27.9128 H   0  0  0  0  0  0  0  0  0  0  0  0
   -0.8532   22.5725  -19.4895 C   0  0  0  0  0  0  0  0  0  0  0  0
   -2.0184   22.8652  -19.1241 O   0  0  0  0  0  0  0  0  0  0  0  0
    0.2444   22.7776  -18.5858 C   0  0  0  0  0  0  0  0  0  0  0  0
    1.3603   23.5550  -18.7266 C   0  0  0  0  0  0  0  0  0  0  0  0
    2.1484   23.4191  -17.5815 C   0  0  0  0  0  0  0  0  0  0  0  0
    3.3443   23.9460  -17.1754 C   0  0  0  0  0  0  0  0  0  0  0  0
    3.8863   23.6171  -15.9583 C   0  0  0  0  0  0  0  0  0  0  0  0
    3.2220   22.7525  -15.1427 C   0  0  0  0  0  0  0  0  0  0  0  0
    2.0075   22.1966  -15.5172 C   0  0  0  0  0  0  0  0  0  0  0  0
    1.4780   22.5435  -16.7530 C   0  0  0  0  0  0  0  0  0  0  0  0
    0.3463   22.1813  -17.3844 N   0  0  0  0  0  0  0  0  0  0  0  0
   -0.3339   21.5152  -16.9478 H   0  0  0  0  0  0  0  0  0  0  0  0
  1  2  1  0  0  0
  2  3  2  0  0  0
  3  4  1  0  0  0
  4  5  2  0  0  0
  5  6  1  0  0  0
  6  9  1  0  0  0
  9 10  2  0  0  0
 10 11  1  0  0  0
 11 12  1  0  0  0
 11 13  2  0  0  0
 13 14  1  0  0  0
 14 15  2  0  0  0
 15 16  1  0  0  0
  3 18  1  0  0  0
 18 19  2  0  0  0
 18 20  1  0  0  0
 20 21  2  0  0  0
 21 22  1  0  0  0
 22 23  2  0  0  0
 23 24  1  0  0  0
 24 25  2  0  0  0
 25 26  1  0  0  0
 26 27  2  0  0  0
 27 28  1  0  0  0
  6  2  1  0  0  0
 15  9  1  0  0  0
 28 20  1  0  0  0
 27 22  1  0  0  0
  1  7  1  0  0  0
  1  8  1  0  0  0
 12 17  1  0  0  0
 28 29  1  0  0  0
M  END
> <minimizedAffinity>
-7.71673

> <CNNscore>
0.3157282174

> <CNNaffinity>
5.5320281982

> <CNN_VS>
1.7466174364

> <CNNaffinity_variance>
0.0824203789

$$$$
[H]Oc1c([H])c([H])c(Cl)c(-n2nc([H])c(C(=O)c3c([H])c4c([H])c([H])c([H])c([H])c4n3[H])c2N([H])[H])c1[H]


 29 32  0  0  0  0  0  0  0  0999 V2000
   -3.9987   25.3053  -26.1168 N   0  0  0  0  0  0  0  0  0  0  0  0
   -4.4067   24.0253  -25.7100 C   0  0  0  0  0  0  0  0  0  0  0  0
   -5.6833   23.7187  -25.2702 C   0  0  0  0  0  0  0  0  0  0  0  0
   -5.6663   22.3806  -24.9743 C   0  0  0  0  0  0  0  0  0  0  0  0
   -4.4259   21.9471  -25.2365 N   0  0  0  0  0  0  0  0  0  0  0  0
   -3.6665   22.9304  -25.6783 N   0  0  0  0  0  0  0  0  0  0  0  0
   -4.1933   26.1423  -25.5436 H   0  0  0  0  0  0  0  0  0  0  0  0
   -3.4885   25.4128  -27.0171 H   0  0  0  0  0  0  0  0  0  0  0  0
   -2.2856   22.7631  -26.0420 C   0  0  0  0  0  0  0  0  0  0  0  0
   -1.2766   22.6104  -25.1140 C   0  0  0  0  0  0  0  0  0  0  0  0
    0.0457   22.4506  -25.4880 C   0  0  0  0  0  0  0  0  0  0  0  0
    1.0012   22.3031  -24.4931 O   0  0  0  0  0  0  0  0  0  0  0  0
    0.4092   22.4376  -26.8174 C   0  0  0  0  0  0  0  0  0  0  0  0
   -0.5952   22.5896  -27.7491 C   0  0  0  0  0  0  0  0  0  0  0  0
   -1.9296   22.7511  -27.3733 C   0  0  0  0  0  0  0  0  0  0  0  0
   -3.1788   22.9427  -28.5874 Cl  0  0  0  0  0  0  0  0  0  0  0  0
    1.2738   21.4089  -24.1184 H   0  0  0  0  0  0  0  0  0  0  0  0
   -6.8217   24.6110  -25.1579 C   0  0  0  0  0  0  0  0  0  0  0  0
   -7.0853   25.3400  -26.1458 O   0  0  0  0  0  0  0  0  0  0  0  0
   -7.6425   24.6892  -23.9816 C   0  0  0  0  0  0  0  0  0  0  0  0
   -7.4568   24.1331  -22.7464 C   0  0  0  0  0  0  0  0  0  0  0  0
   -8.5357   24.4823  -21.9310 C   0  0  0  0  0  0  0  0  0  0  0  0
   -8.8780   24.2185  -20.6326 C   0  0  0  0  0  0  0  0  0  0  0  0
  -10.0370   24.7151  -20.0908 C   0  0  0  0  0  0  0  0  0  0  0  0
  -10.8585   25.4827  -20.8591 C   0  0  0  0  0  0  0  0  0  0  0  0
  -10.5476   25.7732  -22.1793 C   0  0  0  0  0  0  0  0  0  0  0  0
   -9.3699   25.2602  -22.7066 C   0  0  0  0  0  0  0  0  0  0  0  0
   -8.8054   25.3627  -23.9237 N   0  0  0  0  0  0  0  0  0  0  0  0
   -9.2591   25.9110  -24.6921 H   0  0  0  0  0  0  0  0  0  0  0  0
  1  2  1  0  0  0
  2  3  2  0  0  0
  3  4  1  0  0  0
  4  5  2  0  0  0
  5  6  1  0  0  0
  6  9  1  0  0  0
  9 10  2  0  0  0
 10 11  1  0  0  0
 11 12  1  0  0  0
 11 13  2  0  0  0
 13 14  1  0  0  0
 14 15  2  0  0  0
 15 16  1  0  0  0
  3 18  1  0  0  0
 18 19  2  0  0  0
 18 20  1  0  0  0
 20 21  2  0  0  0
 21 22  1  0  0  0
 22 23  2  0  0  0
 23 24  1  0  0  0
 24 25  2  0  0  0
 25 26  1  0  0  0
 26 27  2  0  0  0
 27 28  1  0  0  0
  6  2  1  0  0  0
 15  9  1  0  0  0
 28 20  1  0  0  0
 27 22  1  0  0  0
  1  7  1  0  0  0
  1  8  1  0  0  0
 12 17  1  0  0  0
 28 29  1  0  0  0
M  END
> <minimizedAffinity>
-8.75306

> <CNNscore>
0.2306887954

> <CNNaffinity>
5.9219551086

> <CNN_VS>
1.3661286831

> <CNNaffinity_variance>
0.2195364535

$$$$
[H]Oc1c([H])c([H])c(Cl)c(-n2nc([H])c(C(=O)c3c([H])c4c([H])c([H])c([H])c([H])c4n3[H])c2N([H])[H])c1[H]


 29 32  0  0  0  0  0  0  0  0999 V2000
   -3.6896   24.5173  -24.1148 N   0  0  0  0  0  0  0  0  0  0  0  0
   -4.0908   23.1813  -24.2716 C   0  0  0  0  0  0  0  0  0  0  0  0
   -5.3018   22.6757  -23.8303 C   0  0  0  0  0  0  0  0  0  0  0  0
   -5.3018   21.3492  -24.1749 C   0  0  0  0  0  0  0  0  0  0  0  0
   -4.1337   21.1136  -24.7877 N   0  0  0  0  0  0  0  0  0  0  0  0
   -3.4038   22.2101  -24.8481 N   0  0  0  0  0  0  0  0  0  0  0  0
   -3.7606   24.9997  -23.2042 H   0  0  0  0  0  0  0  0  0  0  0  0
   -3.3122   25.0332  -24.9356 H   0  0  0  0  0  0  0  0  0  0  0  0
   -2.0998   22.2614  -25.4515 C   0  0  0  0  0  0  0  0  0  0  0  0
   -0.9407   21.9675  -24.7639 C   0  0  0  0  0  0  0  0  0  0  0  0
    0.3035   22.0237  -25.3661 C   0  0  0  0  0  0  0  0  0  0  0  0
    1.4211   21.7132  -24.6051 O   0  0  0  0  0  0  0  0  0  0  0  0
    0.4336   22.3794  -26.6912 C   0  0  0  0  0  0  0  0  0  0  0  0
   -0.7214   22.6740  -27.3833 C   0  0  0  0  0  0  0  0  0  0  0  0
   -1.9773   22.6179  -26.7771 C   0  0  0  0  0  0  0  0  0  0  0  0
   -3.4236   23.0007  -27.6898 Cl  0  0  0  0  0  0  0  0  0  0  0  0
    1.7931   20.7806  -24.5265 H   0  0  0  0  0  0  0  0  0  0  0  0
   -6.3704   23.3907  -23.1583 C   0  0  0  0  0  0  0  0  0  0  0  0
   -6.6574   24.5365  -23.5845 O   0  0  0  0  0  0  0  0  0  0  0  0
   -7.0982   22.8467  -22.0457 C   0  0  0  0  0  0  0  0  0  0  0  0
   -8.3241   23.1925  -21.5487 C   0  0  0  0  0  0  0  0  0  0  0  0
   -8.6046   22.3836  -20.4452 C   0  0  0  0  0  0  0  0  0  0  0  0
   -9.6567   22.2829  -19.5758 C   0  0  0  0  0  0  0  0  0  0  0  0
   -9.6484   21.3629  -18.5575 C   0  0  0  0  0  0  0  0  0  0  0  0
   -8.5752   20.5377  -18.4113 C   0  0  0  0  0  0  0  0  0  0  0  0
   -7.4890   20.6079  -19.2712 C   0  0  0  0  0  0  0  0  0  0  0  0
   -7.5190   21.5462  -20.2943 C   0  0  0  0  0  0  0  0  0  0  0  0
   -6.6399   21.8506  -21.2666 N   0  0  0  0  0  0  0  0  0  0  0  0
   -5.7285   21.3428  -21.3578 H   0  0  0  0  0  0  0  0  0  0  0  0
  1  2  1  0  0  0
  2  3  2  0  0  0
  3  4  1  0  0  0
  4  5  2  0  0  0
  5  6  1  0  0  0
  6  9  1  0  0  0
  9 10  2  0  0  0
 10 11  1  0  0  0
 11 12  1  0  0  0
 11 13  2  0  0  0
 13 14  1  0  0  0
 14 15  2  0  0  0
 15 16  1  0  0  0
  3 18  1  0  0  0
 18 19  2  0  0  0
 18 20  1  0  0  0
 20 21  2  0  0  0
 21 22  1  0  0  0
 22 23  2  0  0  0
 23 24  1  0  0  0
 24 25  2  0  0  0
 25 26  1  0  0  0
 26 27  2  0  0  0
 27 28  1  0  0  0
  6  2  1  0  0  0
 15  9  1  0  0  0
 28 20  1  0  0  0
 27 22  1  0  0  0
  1  7  1  0  0  0
  1  8  1  0  0  0
 12 17  1  0  0  0
 28 29  1  0  0  0
M  END
> <minimizedAffinity>
-7.98419

> <CNNscore>
0.2180252522

> <CNNaffinity>
5.7408905029

> <CNN_VS>
1.2516591549

> <CNNaffinity_variance>
0.0126572000

$$$$
[H]Oc1c([H])c([H])c(Cl)c(-n2nc([H])c(C(=O)c3c([H])c4c([H])c([H])c([H])c([H])c4n3[H])c2N([H])[H])c1[H]


 29 32  0  0  0  0  0  0  0  0999 V2000
   -3.9043   24.4871  -24.6267 N   0  0  0  0  0  0  0  0  0  0  0  0
   -4.1166   23.0997  -24.6018 C   0  0  0  0  0  0  0  0  0  0  0  0
   -5.2253   22.4923  -24.0371 C   0  0  0  0  0  0  0  0  0  0  0  0
   -5.0494   21.1457  -24.2220 C   0  0  0  0  0  0  0  0  0  0  0  0
   -3.8841   20.9975  -24.8666 N   0  0  0  0  0  0  0  0  0  0  0  0
   -3.3208   22.1673  -25.0968 N   0  0  0  0  0  0  0  0  0  0  0  0
   -4.0082   25.0652  -23.7770 H   0  0  0  0  0  0  0  0  0  0  0  0
   -3.6362   24.9432  -25.5225 H   0  0  0  0  0  0  0  0  0  0  0  0
   -2.0617   22.3208  -25.7736 C   0  0  0  0  0  0  0  0  0  0  0  0
   -1.9585   22.7317  -27.0863 C   0  0  0  0  0  0  0  0  0  0  0  0
   -0.7350   22.8724  -27.7166 C   0  0  0  0  0  0  0  0  0  0  0  0
   -0.7168   23.2905  -29.0393 O   0  0  0  0  0  0  0  0  0  0  0  0
    0.4406   22.6045  -27.0492 C   0  0  0  0  0  0  0  0  0  0  0  0
    0.3434   22.1936  -25.7370 C   0  0  0  0  0  0  0  0  0  0  0  0
   -0.8902   22.0511  -25.0999 C   0  0  0  0  0  0  0  0  0  0  0  0
   -0.9734   21.5251  -23.4302 Cl  0  0  0  0  0  0  0  0  0  0  0  0
   -0.6713   24.2593  -29.3109 H   0  0  0  0  0  0  0  0  0  0  0  0
   -6.3582   23.1326  -23.3960 C   0  0  0  0  0  0  0  0  0  0  0  0
   -6.9453   24.0422  -24.0324 O   0  0  0  0  0  0  0  0  0  0  0  0
   -6.8243   22.7712  -22.0862 C   0  0  0  0  0  0  0  0  0  0  0  0
   -7.7414   21.8283  -21.7131 C   0  0  0  0  0  0  0  0  0  0  0  0
   -7.8708   21.8547  -20.3226 C   0  0  0  0  0  0  0  0  0  0  0  0
   -8.6216   21.1538  -19.4183 C   0  0  0  0  0  0  0  0  0  0  0  0
   -8.5316   21.4100  -18.0731 C   0  0  0  0  0  0  0  0  0  0  0  0
   -7.6807   22.3776  -17.6327 C   0  0  0  0  0  0  0  0  0  0  0  0
   -6.9024   23.1104  -18.5167 C   0  0  0  0  0  0  0  0  0  0  0  0
   -7.0098   22.8342  -19.8732 C   0  0  0  0  0  0  0  0  0  0  0  0
   -6.4022   23.3597  -20.9527 N   0  0  0  0  0  0  0  0  0  0  0  0
   -5.6969   24.1287  -20.8626 H   0  0  0  0  0  0  0  0  0  0  0  0
  1  2  1  0  0  0
  2  3  2  0  0  0
  3  4  1  0  0  0
  4  5  2  0  0  0
  5  6  1  0  0  0
  6  9  1  0  0  0
  9 10  2  0  0  0
 10 11  1  0  0  0
 11 12  1  0  0  0
 11 13  2  0  0  0
 13 14  1  0  0  0
 14 15  2  0  0  0
 15 16  1  0  0  0
  3 18  1  0  0  0
 18 19  2  0  0  0
 18 20  1  0  0  0
 20 21  2  0  0  0
 21 22  1  0  0  0
 22 23  2  0  0  0
 23 24  1  0  0  0
 24 25  2  0  0  0
 25 26  1  0  0  0
 26 27  2  0  0  0
 27 28  1  0  0  0
  6  2  1  0  0  0
 15  9  1  0  0  0
 28 20  1  0  0  0
 27 22  1  0  0  0
  1  7  1  0  0  0
  1  8  1  0  0  0
 12 17  1  0  0  0
 28 29  1  0  0  0
M  END
> <minimizedAffinity>
-7.71601

> <CNNscore>
0.2147057056

> <CNNaffinity>
5.7823457718

> <CNN_VS>
1.2415026426

> <CNNaffinity_variance>
0.0259970389

$$$$
[H]Oc1c([H])c([H])c(Cl)c(-n2nc([H])c(C(=O)c3c([H])c4c([H])c([H])c([H])c([H])c4n3[H])c2N([H])[H])c1[H]


 29 32  0  0  0  0  0  0  0  0999 V2000
   -1.8977   24.0121  -22.1769 N   0  0  0  0  0  0  0  0  0  0  0  0
   -1.2463   22.7834  -21.9860 C   0  0  0  0  0  0  0  0  0  0  0  0
   -0.8957   22.2728  -20.7477 C   0  0  0  0  0  0  0  0  0  0  0  0
   -0.2885   21.0696  -20.9970 C   0  0  0  0  0  0  0  0  0  0  0  0
   -0.2950   20.9067  -22.3270 N   0  0  0  0  0  0  0  0  0  0  0  0
   -0.8688   21.9325  -22.9247 N   0  0  0  0  0  0  0  0  0  0  0  0
   -1.5677   24.8762  -21.7170 H   0  0  0  0  0  0  0  0  0  0  0  0
   -2.7328   24.0527  -22.7961 H   0  0  0  0  0  0  0  0  0  0  0  0
   -1.0205   22.0351  -24.3507 C   0  0  0  0  0  0  0  0  0  0  0  0
    0.0124   22.3891  -25.1935 C   0  0  0  0  0  0  0  0  0  0  0  0
   -0.1576   22.4811  -26.5634 C   0  0  0  0  0  0  0  0  0  0  0  0
    0.9318   22.8436  -27.3421 O   0  0  0  0  0  0  0  0  0  0  0  0
   -1.3796   22.2195  -27.1446 C   0  0  0  0  0  0  0  0  0  0  0  0
   -2.4154   21.8651  -26.3071 C   0  0  0  0  0  0  0  0  0  0  0  0
   -2.2454   21.7719  -24.9249 C   0  0  0  0  0  0  0  0  0  0  0  0
   -3.5870   21.3193  -23.8921 Cl  0  0  0  0  0  0  0  0  0  0  0  0
    1.5773   22.1762  -27.7322 H   0  0  0  0  0  0  0  0  0  0  0  0
   -1.1318   22.8644  -19.4443 C   0  0  0  0  0  0  0  0  0  0  0  0
   -0.6317   23.9948  -19.2227 O   0  0  0  0  0  0  0  0  0  0  0  0
   -1.9018   22.2177  -18.4184 C   0  0  0  0  0  0  0  0  0  0  0  0
   -1.6415   21.0712  -17.7205 C   0  0  0  0  0  0  0  0  0  0  0  0
   -2.6949   20.8376  -16.8337 C   0  0  0  0  0  0  0  0  0  0  0  0
   -2.9695   19.8666  -15.9092 C   0  0  0  0  0  0  0  0  0  0  0  0
   -4.1204   19.9047  -15.1626 C   0  0  0  0  0  0  0  0  0  0  0  0
   -5.0023   20.9260  -15.3459 C   0  0  0  0  0  0  0  0  0  0  0  0
   -4.7610   21.9296  -16.2727 C   0  0  0  0  0  0  0  0  0  0  0  0
   -3.5903   21.8707  -17.0169 C   0  0  0  0  0  0  0  0  0  0  0  0
   -3.0845   22.6751  -17.9697 N   0  0  0  0  0  0  0  0  0  0  0  0
   -3.5913   23.5363  -18.2835 H   0  0  0  0  0  0  0  0  0  0  0  0
  1  2  1  0  0  0
  2  3  2  0  0  0
  3  4  1  0  0  0
  4  5  2  0  0  0
  5  6  1  0  0  0
  6  9  1  0  0  0
  9 10  2  0  0  0
 10 11  1  0  0  0
 11 12  1  0  0  0
 11 13  2  0  0  0
 13 14  1  0  0  0
 14 15  2  0  0  0
 15 16  1  0  0  0
  3 18  1  0  0  0
 18 19  2  0  0  0
 18 20  1  0  0  0
 20 21  2  0  0  0
 21 22  1  0  0  0
 22 23  2  0  0  0
 23 24  1  0  0  0
 24 25  2  0  0  0
 25 26  1  0  0  0
 26 27  2  0  0  0
 27 28  1  0  0  0
  6  2  1  0  0  0
 15  9  1  0  0  0
 28 20  1  0  0  0
 27 22  1  0  0  0
  1  7  1  0  0  0
  1  8  1  0  0  0
 12 17  1  0  0  0
 28 29  1  0  0  0
M  END
> <minimizedAffinity>
-7.08492

> <CNNscore>
0.2107438147

> <CNNaffinity>
5.4536170959

> <CNN_VS>
1.1493160725

> <CNNaffinity_variance>
0.1600634158

$$$$
[H]Oc1c([H])c([H])c(Cl)c(-n2nc([H])c(C(=O)c3c([H])c4c([H])c([H])c([H])c([H])c4n3[H])c2N([H])[H])c1[H]


 29 32  0  0  0  0  0  0  0  0999 V2000
   -3.3398   24.2331  -23.2845 N   0  0  0  0  0  0  0  0  0  0  0  0
   -3.8740   22.9945  -23.6732 C   0  0  0  0  0  0  0  0  0  0  0  0
   -5.0835   22.4930  -23.2230 C   0  0  0  0  0  0  0  0  0  0  0  0
   -5.2350   21.2757  -23.8342 C   0  0  0  0  0  0  0  0  0  0  0  0
   -4.1510   21.0956  -24.6009 N   0  0  0  0  0  0  0  0  0  0  0  0
   -3.3315   22.1244  -24.5076 N   0  0  0  0  0  0  0  0  0  0  0  0
   -3.2870   24.5113  -22.2911 H   0  0  0  0  0  0  0  0  0  0  0  0
   -2.9892   24.8859  -24.0148 H   0  0  0  0  0  0  0  0  0  0  0  0
   -2.0855   22.2118  -25.2196 C   0  0  0  0  0  0  0  0  0  0  0  0
   -0.8730   21.8683  -24.6588 C   0  0  0  0  0  0  0  0  0  0  0  0
    0.3136   21.9606  -25.3640 C   0  0  0  0  0  0  0  0  0  0  0  0
    1.4911   21.5957  -24.7278 O   0  0  0  0  0  0  0  0  0  0  0  0
    0.3294   22.4044  -26.6687 C   0  0  0  0  0  0  0  0  0  0  0  0
   -0.8794   22.7490  -27.2343 C   0  0  0  0  0  0  0  0  0  0  0  0
   -2.0773   22.6564  -26.5240 C   0  0  0  0  0  0  0  0  0  0  0  0
   -3.5949   23.1049  -27.2770 Cl  0  0  0  0  0  0  0  0  0  0  0  0
    1.8599   20.6587  -24.7451 H   0  0  0  0  0  0  0  0  0  0  0  0
   -6.0197   23.1203  -22.3094 C   0  0  0  0  0  0  0  0  0  0  0  0
   -7.0972   23.5504  -22.7899 O   0  0  0  0  0  0  0  0  0  0  0  0
   -5.7646   23.2641  -20.9031 C   0  0  0  0  0  0  0  0  0  0  0  0
   -6.3920   24.0489  -19.9757 C   0  0  0  0  0  0  0  0  0  0  0  0
   -5.7781   23.8555  -18.7362 C   0  0  0  0  0  0  0  0  0  0  0  0
   -5.9776   24.3619  -17.4806 C   0  0  0  0  0  0  0  0  0  0  0  0
   -5.1915   23.9706  -16.4259 C   0  0  0  0  0  0  0  0  0  0  0  0
   -4.1974   23.0637  -16.6339 C   0  0  0  0  0  0  0  0  0  0  0  0
   -3.9626   22.5266  -17.8912 C   0  0  0  0  0  0  0  0  0  0  0  0
   -4.7702   22.9369  -18.9435 C   0  0  0  0  0  0  0  0  0  0  0  0
   -4.7916   22.6061  -20.2477 N   0  0  0  0  0  0  0  0  0  0  0  0
   -4.1121   21.9169  -20.6478 H   0  0  0  0  0  0  0  0  0  0  0  0
  1  2  1  0  0  0
  2  3  2  0  0  0
  3  4  1  0  0  0
  4  5  2  0  0  0
  5  6  1  0  0  0
  6  9  1  0  0  0
  9 10  2  0  0  0
 10 11  1  0  0  0
 11 12  1  0  0  0
 11 13  2  0  0  0
 13 14  1  0  0  0
 14 15  2  0  0  0
 15 16  1  0  0  0
  3 18  1  0  0  0
 18 19  2  0  0  0
 18 20  1  0  0  0
 20 21  2  0  0  0
 21 22  1  0  0  0
 22 23  2  0  0  0
 23 24  1  0  0  0
 24 25  2  0  0  0
 25 26  1  0  0  0
 26 27  2  0  0  0
 27 28  1  0  0  0
  6  2  1  0  0  0
 15  9  1  0  0  0
 28 20  1  0  0  0
 27 22  1  0  0  0
  1  7  1  0  0  0
  1  8  1  0  0  0
 12 17  1  0  0  0
 28 29  1  0  0  0
M  END
> <minimizedAffinity>
-7.62430

> <CNNscore>
0.1462566257

> <CNNaffinity>
5.5413842201

> <CNN_VS>
0.8104641438

> <CNNaffinity_variance>
0.0122614354

$$$$
[H]Oc1c([H])c([H])c(Cl)c(-n2nc([H])c(C(=O)c3c([H])c4c([H])c([H])c([H])c([H])c4n3[H])c2N([H])[H])c1[H]


 29 32  0  0  0  0  0  0  0  0999 V2000
   -4.1067   25.2477  -24.0894 N   0  0  0  0  0  0  0  0  0  0  0  0
   -4.9957   24.1620  -24.1294 C   0  0  0  0  0  0  0  0  0  0  0  0
   -5.5357   23.5568  -23.0073 C   0  0  0  0  0  0  0  0  0  0  0  0
   -6.3423   22.5523  -23.4750 C   0  0  0  0  0  0  0  0  0  0  0  0
   -6.2605   22.5879  -24.8119 N   0  0  0  0  0  0  0  0  0  0  0  0
   -5.4538   23.5523  -25.2092 N   0  0  0  0  0  0  0  0  0  0  0  0
   -3.2768   25.2444  -23.4744 H   0  0  0  0  0  0  0  0  0  0  0  0
   -4.2888   26.0748  -24.6936 H   0  0  0  0  0  0  0  0  0  0  0  0
   -5.1721   23.8305  -26.5914 C   0  0  0  0  0  0  0  0  0  0  0  0
   -5.9359   24.6865  -27.3571 C   0  0  0  0  0  0  0  0  0  0  0  0
   -5.6452   24.9390  -28.6859 C   0  0  0  0  0  0  0  0  0  0  0  0
   -6.4629   25.8131  -29.3873 O   0  0  0  0  0  0  0  0  0  0  0  0
   -4.5687   24.3379  -29.3020 C   0  0  0  0  0  0  0  0  0  0  0  0
   -3.8018   23.4816  -28.5414 C   0  0  0  0  0  0  0  0  0  0  0  0
   -4.0941   23.2259  -27.2008 C   0  0  0  0  0  0  0  0  0  0  0  0
   -3.0959   22.1297  -26.2663 Cl  0  0  0  0  0  0  0  0  0  0  0  0
   -6.2965   26.8052  -29.4358 H   0  0  0  0  0  0  0  0  0  0  0  0
   -5.3202   23.9112  -21.6171 C   0  0  0  0  0  0  0  0  0  0  0  0
   -5.1593   25.1272  -21.3481 O   0  0  0  0  0  0  0  0  0  0  0  0
   -5.2852   22.9415  -20.5579 C   0  0  0  0  0  0  0  0  0  0  0  0
   -4.9114   21.6266  -20.5873 C   0  0  0  0  0  0  0  0  0  0  0  0
   -5.0604   21.0898  -19.3065 C   0  0  0  0  0  0  0  0  0  0  0  0
   -4.8444   19.8559  -18.7555 C   0  0  0  0  0  0  0  0  0  0  0  0
   -5.0885   19.6215  -17.4255 C   0  0  0  0  0  0  0  0  0  0  0  0
   -5.5531   20.6343  -16.6429 C   0  0  0  0  0  0  0  0  0  0  0  0
   -5.7850   21.8993  -17.1628 C   0  0  0  0  0  0  0  0  0  0  0  0
   -5.5311   22.1136  -18.5110 C   0  0  0  0  0  0  0  0  0  0  0  0
   -5.6532   23.2033  -19.2908 N   0  0  0  0  0  0  0  0  0  0  0  0
   -5.9967   24.1149  -18.9062 H   0  0  0  0  0  0  0  0  0  0  0  0
  1  2  1  0  0  0
  2  3  2  0  0  0
  3  4  1  0  0  0
  4  5  2  0  0  0
  5  6  1  0  0  0
  6  9  1  0  0  0
  9 10  2  0  0  0
 10 11  1  0  0  0
 11 12  1  0  0  0
 11 13  2  0  0  0
 13 14  1  0  0  0
 14 15  2  0  0  0
 15 16  1  0  0  0
  3 18  1  0  0  0
 18 19  2  0  0  0
 18 20  1  0  0  0
 20 21  2  0  0  0
 21 22  1  0  0  0
 22 23  2  0  0  0
 23 24  1  0  0  0
 24 25  2  0  0  0
 25 26  1  0  0  0
 26 27  2  0  0  0
 27 28  1  0  0  0
  6  2  1  0  0  0
 15  9  1  0  0  0
 28 20  1  0  0  0
 27 22  1  0  0  0
  1  7  1  0  0  0
  1  8  1  0  0  0
 12 17  1  0  0  0
 28 29  1  0  0  0
M  END
> <minimizedAffinity>
-6.99792

> <CNNscore>
0.1452846974

> <CNNaffinity>
5.7660913467

> <CNN_VS>
0.8377248645

> <CNNaffinity_variance>
0.3573886752

$$$$
[H]Oc1c([H])c([H])c(Cl)c(-n2nc([H])c(C(=O)c3c([H])c4c([H])c([H])c([H])c([H])c4n3[H])c2N([H])[H])c1[H]


 29 32  0  0  0  0  0  0  0  0999 V2000
   -3.4284   24.2435  -23.6799 N   0  0  0  0  0  0  0  0  0  0  0  0
   -3.8490   22.9368  -23.9735 C   0  0  0  0  0  0  0  0  0  0  0  0
   -4.9606   22.3325  -23.4114 C   0  0  0  0  0  0  0  0  0  0  0  0
   -5.0201   21.0765  -23.9568 C   0  0  0  0  0  0  0  0  0  0  0  0
   -3.9801   20.9745  -24.7955 N   0  0  0  0  0  0  0  0  0  0  0  0
   -3.2746   22.0884  -24.8090 N   0  0  0  0  0  0  0  0  0  0  0  0
   -3.3360   24.5757  -22.7063 H   0  0  0  0  0  0  0  0  0  0  0  0
   -3.2048   24.8921  -24.4620 H   0  0  0  0  0  0  0  0  0  0  0  0
   -2.0997   22.2723  -25.6171 C   0  0  0  0  0  0  0  0  0  0  0  0
   -2.1464   22.7153  -26.9225 C   0  0  0  0  0  0  0  0  0  0  0  0
   -1.0018   22.8849  -27.6807 C   0  0  0  0  0  0  0  0  0  0  0  0
   -1.1341   23.3343  -28.9865 O   0  0  0  0  0  0  0  0  0  0  0  0
    0.2430   22.6146  -27.1544 C   0  0  0  0  0  0  0  0  0  0  0  0
    0.2956   22.1717  -25.8502 C   0  0  0  0  0  0  0  0  0  0  0  0
   -0.8583   22.0000  -25.0841 C   0  0  0  0  0  0  0  0  0  0  0  0
   -0.7512   21.4338  -23.4290 Cl  0  0  0  0  0  0  0  0  0  0  0  0
   -1.1274   24.3097  -29.2374 H   0  0  0  0  0  0  0  0  0  0  0  0
   -5.8928   22.9016  -22.4566 C   0  0  0  0  0  0  0  0  0  0  0  0
   -7.0057   23.2864  -22.8931 O   0  0  0  0  0  0  0  0  0  0  0  0
   -5.5958   23.0380  -21.0578 C   0  0  0  0  0  0  0  0  0  0  0  0
   -4.6597   22.3962  -20.2954 C   0  0  0  0  0  0  0  0  0  0  0  0
   -4.7598   22.8573  -18.9808 C   0  0  0  0  0  0  0  0  0  0  0  0
   -4.0970   22.5788  -17.8164 C   0  0  0  0  0  0  0  0  0  0  0  0
   -4.4277   23.2116  -16.6444 C   0  0  0  0  0  0  0  0  0  0  0  0
   -5.4318   24.1314  -16.6419 C   0  0  0  0  0  0  0  0  0  0  0  0
   -6.1280   24.4421  -17.8008 C   0  0  0  0  0  0  0  0  0  0  0  0
   -5.7765   23.7895  -18.9749 C   0  0  0  0  0  0  0  0  0  0  0  0
   -6.2522   23.8716  -20.2310 N   0  0  0  0  0  0  0  0  0  0  0  0
   -7.0365   24.5206  -20.4769 H   0  0  0  0  0  0  0  0  0  0  0  0
  1  2  1  0  0  0
  2  3  2  0  0  0
  3  4  1  0  0  0
  4  5  2  0  0  0
  5  6  1  0  0  0
  6  9  1  0  0  0
  9 10  2  0  0  0
 10 11  1  0  0  0
 11 12  1  0  0  0
 11 13  2  0  0  0
 13 14  1  0  0  0
 14 15  2  0  0  0
 15 16  1  0  0  0
  3 18  1  0  0  0
 18 19  2  0  0  0
 18 20  1  0  0  0
 20 21  2  0  0  0
 21 22  1  0  0  0
 22 23  2  0  0  0
 23 24  1  0  0  0
 24 25  2  0  0  0
 25 26  1  0  0  0
 26 27  2  0  0  0
 27 28  1  0  0  0
  6  2  1  0  0  0
 15  9  1  0  0  0
 28 20  1  0  0  0
 27 22  1  0  0  0
  1  7  1  0  0  0
  1  8  1  0  0  0
 12 17  1  0  0  0
 28 29  1  0  0  0
M  END
> <minimizedAffinity>
-7.38149

> <CNNscore>
0.1318862885

> <CNNaffinity>
5.4561014175

> <CNN_VS>
0.7195849419

> <CNNaffinity_variance>
0.0942059010

$$$$
[H]Oc1c([H])c([H])c(Cl)c(-n2nc([H])c(C(=O)c3c([H])c4c([H])c([H])c([H])c([H])c4n3[H])c2N([H])[H])c1[H]


 29 32  0  0  0  0  0  0  0  0999 V2000
   -4.6631   23.8683  -21.8235 N   0  0  0  0  0  0  0  0  0  0  0  0
   -5.2683   22.8817  -22.6177 C   0  0  0  0  0  0  0  0  0  0  0  0
   -4.5705   21.9404  -23.3553 C   0  0  0  0  0  0  0  0  0  0  0  0
   -5.5203   21.1741  -23.9790 C   0  0  0  0  0  0  0  0  0  0  0  0
   -6.7108   21.6646  -23.6082 N   0  0  0  0  0  0  0  0  0  0  0  0
   -6.5647   22.6893  -22.7913 N   0  0  0  0  0  0  0  0  0  0  0  0
   -3.8984   24.4604  -22.1863 H   0  0  0  0  0  0  0  0  0  0  0  0
   -4.9929   24.0058  -20.8464 H   0  0  0  0  0  0  0  0  0  0  0  0
   -7.6691   23.4180  -22.2289 C   0  0  0  0  0  0  0  0  0  0  0  0
   -8.1314   24.6067  -22.7541 C   0  0  0  0  0  0  0  0  0  0  0  0
   -9.1966   25.2902  -22.1955 C   0  0  0  0  0  0  0  0  0  0  0  0
   -9.6007   26.4798  -22.7838 O   0  0  0  0  0  0  0  0  0  0  0  0
   -9.8438   24.8036  -21.0802 C   0  0  0  0  0  0  0  0  0  0  0  0
   -9.3861   23.6159  -20.5512 C   0  0  0  0  0  0  0  0  0  0  0  0
   -8.3116   22.9253  -21.1137 C   0  0  0  0  0  0  0  0  0  0  0  0
   -7.7574   21.4181  -20.4118 Cl  0  0  0  0  0  0  0  0  0  0  0  0
  -10.2939   26.5268  -23.5129 H   0  0  0  0  0  0  0  0  0  0  0  0
   -3.1324   21.7717  -23.4458 C   0  0  0  0  0  0  0  0  0  0  0  0
   -2.5329   21.3569  -22.4234 O   0  0  0  0  0  0  0  0  0  0  0  0
   -2.3841   22.0556  -24.6387 C   0  0  0  0  0  0  0  0  0  0  0  0
   -1.0354   22.0063  -24.8581 C   0  0  0  0  0  0  0  0  0  0  0  0
   -0.7824   22.3824  -26.1792 C   0  0  0  0  0  0  0  0  0  0  0  0
    0.3500   22.5133  -26.9363 C   0  0  0  0  0  0  0  0  0  0  0  0
    0.2832   22.9129  -28.2475 C   0  0  0  0  0  0  0  0  0  0  0  0
   -0.9305   23.1830  -28.8026 C   0  0  0  0  0  0  0  0  0  0  0  0
   -2.1018   23.0626  -28.0693 C   0  0  0  0  0  0  0  0  0  0  0  0
   -2.0103   22.6568  -26.7445 C   0  0  0  0  0  0  0  0  0  0  0  0
   -2.9429   22.4511  -25.7965 N   0  0  0  0  0  0  0  0  0  0  0  0
   -3.9616   22.5962  -25.9916 H   0  0  0  0  0  0  0  0  0  0  0  0
  1  2  1  0  0  0
  2  3  2  0  0  0
  3  4  1  0  0  0
  4  5  2  0  0  0
  5  6  1  0  0  0
  6  9  1  0  0  0
  9 10  2  0  0  0
 10 11  1  0  0  0
 11 12  1  0  0  0
 11 13  2  0  0  0
 13 14  1  0  0  0
 14 15  2  0  0  0
 15 16  1  0  0  0
  3 18  1  0  0  0
 18 19  2  0  0  0
 18 20  1  0  0  0
 20 21  2  0  0  0
 21 22  1  0  0  0
 22 23  2  0  0  0
 23 24  1  0  0  0
 24 25  2  0  0  0
 25 26  1  0  0  0
 26 27  2  0  0  0
 27 28  1  0  0  0
  6  2  1  0  0  0
 15  9  1  0  0  0
 28 20  1  0  0  0
 27 22  1  0  0  0
  1  7  1  0  0  0
  1  8  1  0  0  0
 12 17  1  0  0  0
 28 29  1  0  0  0
M  END
> <minimizedAffinity>
-8.32149

> <CNNscore>
0.1001492739

> <CNNaffinity>
5.4768190384

> <CNN_VS>
0.5484994650

> <CNNaffinity_variance>
0.1230481267

$$$$
[H]c1nc2c([H])c([H])c(N(c3c([H])c(OC([H])([H])[H])c([H])c(OC([H])([H])[H])c3F)C([H])([H])C3([H])N([H])C(=O)C([H])([H])C3([H])[H])nc2c([H])c1-c1c([H])nn(C([H])([H])[H])c1[H]


 36 40  0  0  0  0  0  0  0  0999 V2000
   -5.2598   23.3602  -26.6904 N   0  0  0  0  0  0  0  0  0  0  0  0
   -3.8677   23.0477  -26.6755 C   0  0  0  0  0  0  0  0  0  0  0  0
   -3.1223   23.1296  -27.8431 C   0  0  0  0  0  0  0  0  0  0  0  0
   -1.7790   22.8586  -27.9024 C   0  0  0  0  0  0  0  0  0  0  0  0
   -1.1606   22.4839  -26.7075 C   0  0  0  0  0  0  0  0  0  0  0  0
    0.1477   22.2159  -26.7124 N   0  0  0  0  0  0  0  0  0  0  0  0
    0.7755   21.8627  -25.5995 C   0  0  0  0  0  0  0  0  0  0  0  0
    0.1107   21.7545  -24.3826 C   0  0  0  0  0  0  0  0  0  0  0  0
   -1.2428   22.0317  -24.3797 C   0  0  0  0  0  0  0  0  0  0  0  0
   -1.8770   22.3969  -25.5452 C   0  0  0  0  0  0  0  0  0  0  0  0
   -3.1933   22.6788  -25.5688 N   0  0  0  0  0  0  0  0  0  0  0  0
    0.8010   21.3781  -23.1650 C   0  0  0  0  0  0  0  0  0  0  0  0
    0.2687   21.2120  -21.9080 C   0  0  0  0  0  0  0  0  0  0  0  0
    1.2856   20.8620  -21.0711 N   0  0  0  0  0  0  0  0  0  0  0  0
    2.4166   20.8026  -21.7414 N   0  0  0  0  0  0  0  0  0  0  0  0
    3.6957   20.4610  -21.1629 C   0  0  0  0  0  0  0  0  0  0  0  0
    2.1442   21.1180  -23.0404 C   0  0  0  0  0  0  0  0  0  0  0  0
   -6.6837   22.6291  -23.4076 C   0  0  0  0  0  0  0  0  0  0  0  0
   -7.0544   23.8975  -22.9470 C   0  0  0  0  0  0  0  0  0  0  0  0
   -6.8347   24.9878  -23.7384 C   0  0  0  0  0  0  0  0  0  0  0  0
   -6.2448   24.8035  -24.9880 C   0  0  0  0  0  0  0  0  0  0  0  0
   -6.0878   25.9060  -25.7215 F   0  0  0  0  0  0  0  0  0  0  0  0
   -5.8750   23.5877  -25.4583 C   0  0  0  0  0  0  0  0  0  0  0  0
   -6.1084   22.4798  -24.6326 C   0  0  0  0  0  0  0  0  0  0  0  0
   -7.4710   21.5023  -21.3482 C   0  0  0  0  0  0  0  0  0  0  0  0
   -6.9011   21.5211  -22.6193 O   0  0  0  0  0  0  0  0  0  0  0  0
   -7.1883   26.2425  -23.3102 O   0  0  0  0  0  0  0  0  0  0  0  0
   -7.8505   26.3878  -22.0742 C   0  0  0  0  0  0  0  0  0  0  0  0
   -5.9385   23.4467  -27.9279 C   0  0  0  0  0  0  0  0  0  0  0  0
   -5.3381   24.1484  -29.0712 C   0  0  0  0  0  0  0  0  0  0  0  0
   -5.6258   23.6498  -30.4386 C   0  0  0  0  0  0  0  0  0  0  0  0
   -5.6406   24.8990  -31.3276 C   0  0  0  0  0  0  0  0  0  0  0  0
   -5.6866   26.0514  -30.4018 C   0  0  0  0  0  0  0  0  0  0  0  0
   -5.7258   27.2433  -30.7622 O   0  0  0  0  0  0  0  0  0  0  0  0
   -5.6793   25.5793  -29.0654 N   0  0  0  0  0  0  0  0  0  0  0  0
   -5.8718   26.1022  -28.2032 H   0  0  0  0  0  0  0  0  0  0  0  0
 25 26  1  0  0  0
 26 18  1  0  0  0
 18 19  2  0  0  0
 19 20  1  0  0  0
 20 27  1  0  0  0
 27 28  1  0  0  0
 20 21  2  0  0  0
 21 22  1  0  0  0
 21 23  1  0  0  0
 23 24  2  0  0  0
 23  1  1  0  0  0
  1 29  1  0  0  0
 29 30  1  0  0  0
 30 31  1  0  0  0
 31 32  1  0  0  0
 32 33  1  0  0  0
 33 34  2  0  0  0
 33 35  1  0  0  0
  1  2  1  0  0  0
  2  3  2  0  0  0
  3  4  1  0  0  0
  4  5  2  0  0  0
  5  6  1  0  0  0
  6  7  2  0  0  0
  7  8  1  0  0  0
  8  9  2  0  0  0
  9 10  1  0  0  0
 10 11  2  0  0  0
  8 12  1  0  0  0
 12 13  1  0  0  0
 13 14  2  0  0  0
 14 15  1  0  0  0
 15 16  1  0  0  0
 15 17  1  0  0  0
 24 18  1  0  0  0
 35 30  1  0  0  0
 11  2  1  0  0  0
 17 12  2  0  0  0
 10  5  1  0  0  0
 35 36  1  0  0  0
M  END
> <minimizedAffinity>
-9.75358

> <CNNscore>
0.6871730685

> <CNNaffinity>
7.9758253098

> <CNN_VS>
5.4807724953

> <CNNaffinity_variance>
0.1946990639

$$$$
[H]c1nc2c([H])c([H])c(N(c3c([H])c(OC([H])([H])[H])c([H])c(OC([H])([H])[H])c3F)C([H])([H])C3([H])N([H])C(=O)C([H])([H])C3([H])[H])nc2c([H])c1-c1c([H])nn(C([H])([H])[H])c1[H]


 36 40  0  0  0  0  0  0  0  0999 V2000
   -2.1088   21.6257  -22.2929 N   0  0  0  0  0  0  0  0  0  0  0  0
   -1.7687   21.9407  -23.6424 C   0  0  0  0  0  0  0  0  0  0  0  0
   -0.4577   21.8130  -24.0789 C   0  0  0  0  0  0  0  0  0  0  0  0
   -0.0594   22.0834  -25.3633 C   0  0  0  0  0  0  0  0  0  0  0  0
   -1.0500   22.5068  -26.2521 C   0  0  0  0  0  0  0  0  0  0  0  0
   -0.7130   22.7763  -27.5159 N   0  0  0  0  0  0  0  0  0  0  0  0
   -1.6229   23.1749  -28.3939 C   0  0  0  0  0  0  0  0  0  0  0  0
   -2.9607   23.3311  -28.0473 C   0  0  0  0  0  0  0  0  0  0  0  0
   -3.3072   23.0521  -26.7393 C   0  0  0  0  0  0  0  0  0  0  0  0
   -2.3486   22.6395  -25.8423 C   0  0  0  0  0  0  0  0  0  0  0  0
   -2.6604   22.3548  -24.5638 N   0  0  0  0  0  0  0  0  0  0  0  0
   -3.9556   23.7572  -29.0114 C   0  0  0  0  0  0  0  0  0  0  0  0
   -5.0400   23.0505  -29.4759 C   0  0  0  0  0  0  0  0  0  0  0  0
   -5.6950   23.8403  -30.3728 N   0  0  0  0  0  0  0  0  0  0  0  0
   -5.0754   24.9957  -30.4879 N   0  0  0  0  0  0  0  0  0  0  0  0
   -5.4993   26.0706  -31.3553 C   0  0  0  0  0  0  0  0  0  0  0  0
   -3.9949   24.9699  -29.6555 C   0  0  0  0  0  0  0  0  0  0  0  0
    0.6727   19.9944  -20.5780 C   0  0  0  0  0  0  0  0  0  0  0  0
    1.1020   20.9828  -19.6852 C   0  0  0  0  0  0  0  0  0  0  0  0
    0.4551   22.1845  -19.6551 C   0  0  0  0  0  0  0  0  0  0  0  0
   -0.6192   22.3914  -20.5190 C   0  0  0  0  0  0  0  0  0  0  0  0
   -1.2249   23.5748  -20.4155 F   0  0  0  0  0  0  0  0  0  0  0  0
   -1.0550   21.4529  -21.3940 C   0  0  0  0  0  0  0  0  0  0  0  0
   -0.3794   20.2253  -21.4109 C   0  0  0  0  0  0  0  0  0  0  0  0
    1.0395   17.6634  -19.8278 C   0  0  0  0  0  0  0  0  0  0  0  0
    1.3161   18.7774  -20.6173 O   0  0  0  0  0  0  0  0  0  0  0  0
    0.8565   23.1706  -18.7896 O   0  0  0  0  0  0  0  0  0  0  0  0
    2.2295   23.3256  -18.5103 C   0  0  0  0  0  0  0  0  0  0  0  0
   -3.4706   21.5262  -21.9255 C   0  0  0  0  0  0  0  0  0  0  0  0
   -4.3439   22.7083  -21.9355 C   0  0  0  0  0  0  0  0  0  0  0  0
   -3.7167   24.0517  -21.9892 C   0  0  0  0  0  0  0  0  0  0  0  0
   -4.6913   24.9188  -22.7950 C   0  0  0  0  0  0  0  0  0  0  0  0
   -5.6412   23.9770  -23.4257 C   0  0  0  0  0  0  0  0  0  0  0  0
   -6.5760   24.3162  -24.1760 O   0  0  0  0  0  0  0  0  0  0  0  0
   -5.3138   22.6530  -23.0400 N   0  0  0  0  0  0  0  0  0  0  0  0
   -5.6634   21.7702  -23.4303 H   0  0  0  0  0  0  0  0  0  0  0  0
 25 26  1  0  0  0
 26 18  1  0  0  0
 18 19  2  0  0  0
 19 20  1  0  0  0
 20 27  1  0  0  0
 27 28  1  0  0  0
 20 21  2  0  0  0
 21 22  1  0  0  0
 21 23  1  0  0  0
 23 24  2  0  0  0
 23  1  1  0  0  0
  1 29  1  0  0  0
 29 30  1  0  0  0
 30 31  1  0  0  0
 31 32  1  0  0  0
 32 33  1  0  0  0
 33 34  2  0  0  0
 33 35  1  0  0  0
  1  2  1  0  0  0
  2  3  2  0  0  0
  3  4  1  0  0  0
  4  5  2  0  0  0
  5  6  1  0  0  0
  6  7  2  0  0  0
  7  8  1  0  0  0
  8  9  2  0  0  0
  9 10  1  0  0  0
 10 11  2  0  0  0
  8 12  1  0  0  0
 12 13  1  0  0  0
 13 14  2  0  0  0
 14 15  1  0  0  0
 15 16  1  0  0  0
 15 17  1  0  0  0
 24 18  1  0  0  0
 35 30  1  0  0  0
 11  2  1  0  0  0
 17 12  2  0  0  0
 10  5  1  0  0  0
 35 36  1  0  0  0
M  END
> <minimizedAffinity>
-8.75976

> <CNNscore>
0.6796413660

> <CNNaffinity>
7.7502756119

> <CNN_VS>
5.2674078941

> <CNNaffinity_variance>
0.1792031676

$$$$
[H]c1nc2c([H])c([H])c(N(c3c([H])c(OC([H])([H])[H])c([H])c(OC([H])([H])[H])c3F)C([H])([H])C3([H])N([H])C(=O)C([H])([H])C3([H])[H])nc2c([H])c1-c1c([H])nn(C([H])([H])[H])c1[H]


 36 40  0  0  0  0  0  0  0  0999 V2000
   -5.4779   23.3525  -26.0171 N   0  0  0  0  0  0  0  0  0  0  0  0
   -4.0882   23.0298  -26.0409 C   0  0  0  0  0  0  0  0  0  0  0  0
   -3.3714   23.1220  -27.2255 C   0  0  0  0  0  0  0  0  0  0  0  0
   -2.0320   22.8421  -27.3217 C   0  0  0  0  0  0  0  0  0  0  0  0
   -1.3870   22.4471  -26.1476 C   0  0  0  0  0  0  0  0  0  0  0  0
   -0.0813   22.1698  -26.1886 N   0  0  0  0  0  0  0  0  0  0  0  0
    0.5712   21.7973  -25.0963 C   0  0  0  0  0  0  0  0  0  0  0  0
   -0.0640   21.6775  -23.8649 C   0  0  0  0  0  0  0  0  0  0  0  0
   -1.4150   21.9644  -23.8247 C   0  0  0  0  0  0  0  0  0  0  0  0
   -2.0751   22.3497  -24.9691 C   0  0  0  0  0  0  0  0  0  0  0  0
   -3.3894   22.6413  -24.9562 N   0  0  0  0  0  0  0  0  0  0  0  0
    0.6533   21.2800  -22.6699 C   0  0  0  0  0  0  0  0  0  0  0  0
    1.9956   21.0110  -22.5395 C   0  0  0  0  0  0  0  0  0  0  0  0
    2.2250   20.6713  -21.2399 N   0  0  0  0  0  0  0  0  0  0  0  0
    1.0990   20.7157  -20.5601 N   0  0  0  0  0  0  0  0  0  0  0  0
    0.9783   20.4125  -19.1527 C   0  0  0  0  0  0  0  0  0  0  0  0
    0.1103   21.0898  -21.4224 C   0  0  0  0  0  0  0  0  0  0  0  0
   -7.0210   24.8632  -23.0717 C   0  0  0  0  0  0  0  0  0  0  0  0
   -7.3627   23.7467  -22.3002 C   0  0  0  0  0  0  0  0  0  0  0  0
   -7.0681   22.4970  -22.7640 C   0  0  0  0  0  0  0  0  0  0  0  0
   -6.4326   22.3705  -23.9982 C   0  0  0  0  0  0  0  0  0  0  0  0
   -6.1465   21.1241  -24.3761 F   0  0  0  0  0  0  0  0  0  0  0  0
   -6.0918   23.4337  -24.7661 C   0  0  0  0  0  0  0  0  0  0  0  0
   -6.4014   24.7088  -24.2742 C   0  0  0  0  0  0  0  0  0  0  0  0
   -7.9739   26.4566  -21.4334 C   0  0  0  0  0  0  0  0  0  0  0  0
   -7.3116   26.1293  -22.6145 O   0  0  0  0  0  0  0  0  0  0  0  0
   -7.3930   21.3859  -22.0274 O   0  0  0  0  0  0  0  0  0  0  0  0
   -8.2035   21.5302  -20.8832 C   0  0  0  0  0  0  0  0  0  0  0  0
   -6.1554   23.5934  -27.2346 C   0  0  0  0  0  0  0  0  0  0  0  0
   -5.4462   24.1464  -28.3971 C   0  0  0  0  0  0  0  0  0  0  0  0
   -5.5890   23.4614  -29.7053 C   0  0  0  0  0  0  0  0  0  0  0  0
   -5.5215   24.5783  -30.7537 C   0  0  0  0  0  0  0  0  0  0  0  0
   -5.6701   25.8441  -30.0036 C   0  0  0  0  0  0  0  0  0  0  0  0
   -5.6806   26.9752  -30.5256 O   0  0  0  0  0  0  0  0  0  0  0  0
   -5.7962   25.5574  -28.6213 N   0  0  0  0  0  0  0  0  0  0  0  0
   -6.0795   26.1881  -27.8624 H   0  0  0  0  0  0  0  0  0  0  0  0
 25 26  1  0  0  0
 26 18  1  0  0  0
 18 19  2  0  0  0
 19 20  1  0  0  0
 20 27  1  0  0  0
 27 28  1  0  0  0
 20 21  2  0  0  0
 21 22  1  0  0  0
 21 23  1  0  0  0
 23 24  2  0  0  0
 23  1  1  0  0  0
  1 29  1  0  0  0
 29 30  1  0  0  0
 30 31  1  0  0  0
 31 32  1  0  0  0
 32 33  1  0  0  0
 33 34  2  0  0  0
 33 35  1  0  0  0
  1  2  1  0  0  0
  2  3  2  0  0  0
  3  4  1  0  0  0
  4  5  2  0  0  0
  5  6  1  0  0  0
  6  7  2  0  0  0
  7  8  1  0  0  0
  8  9  2  0  0  0
  9 10  1  0  0  0
 10 11  2  0  0  0
  8 12  1  0  0  0
 12 13  1  0  0  0
 13 14  2  0  0  0
 14 15  1  0  0  0
 15 16  1  0  0  0
 15 17  1  0  0  0
 24 18  1  0  0  0
 35 30  1  0  0  0
 11  2  1  0  0  0
 17 12  2  0  0  0
 10  5  1  0  0  0
 35 36  1  0  0  0
M  END
> <minimizedAffinity>
-9.79580

> <CNNscore>
0.5459648967

> <CNNaffinity>
7.7386789322

> <CNN_VS>
4.2250471115

> <CNNaffinity_variance>
0.1802217364

$$$$
[H]c1nc2c([H])c([H])c(N(c3c([H])c(OC([H])([H])[H])c([H])c(OC([H])([H])[H])c3F)C([H])([H])C3([H])N([H])C(=O)C([H])([H])C3([H])[H])nc2c([H])c1-c1c([H])nn(C([H])([H])[H])c1[H]


 36 40  0  0  0  0  0  0  0  0999 V2000
   -0.1198   21.3658  -21.4861 N   0  0  0  0  0  0  0  0  0  0  0  0
   -0.1657   21.6370  -22.8861 C   0  0  0  0  0  0  0  0  0  0  0  0
    0.9809   21.5142  -23.6580 C   0  0  0  0  0  0  0  0  0  0  0  0
    1.0097   21.7443  -25.0099 C   0  0  0  0  0  0  0  0  0  0  0  0
   -0.1948   22.1198  -25.6089 C   0  0  0  0  0  0  0  0  0  0  0  0
   -0.2194   22.3487  -26.9244 N   0  0  0  0  0  0  0  0  0  0  0  0
   -1.3426   22.7011  -27.5342 C   0  0  0  0  0  0  0  0  0  0  0  0
   -2.5400   22.8487  -26.8424 C   0  0  0  0  0  0  0  0  0  0  0  0
   -2.5123   22.6118  -25.4815 C   0  0  0  0  0  0  0  0  0  0  0  0
   -1.3367   22.2468  -24.8663 C   0  0  0  0  0  0  0  0  0  0  0  0
   -1.2836   22.0037  -23.5431 N   0  0  0  0  0  0  0  0  0  0  0  0
   -3.7691   23.2242  -27.5127 C   0  0  0  0  0  0  0  0  0  0  0  0
   -5.0328   23.3081  -26.9770 C   0  0  0  0  0  0  0  0  0  0  0  0
   -5.8795   23.6928  -27.9730 N   0  0  0  0  0  0  0  0  0  0  0  0
   -5.2089   23.8514  -29.0943 N   0  0  0  0  0  0  0  0  0  0  0  0
   -5.7965   24.2545  -30.3511 C   0  0  0  0  0  0  0  0  0  0  0  0
   -3.8998   23.5672  -28.8365 C   0  0  0  0  0  0  0  0  0  0  0  0
    0.8051   17.9286  -20.6681 C   0  0  0  0  0  0  0  0  0  0  0  0
    2.1508   18.0533  -20.3050 C   0  0  0  0  0  0  0  0  0  0  0  0
    2.7388   19.2852  -20.3272 C   0  0  0  0  0  0  0  0  0  0  0  0
    1.9768   20.3869  -20.7127 C   0  0  0  0  0  0  0  0  0  0  0  0
    2.6041   21.5632  -20.6820 F   0  0  0  0  0  0  0  0  0  0  0  0
    0.6730   20.2948  -21.0703 C   0  0  0  0  0  0  0  0  0  0  0  0
    0.0858   19.0227  -21.0412 C   0  0  0  0  0  0  0  0  0  0  0  0
    0.5929   15.5841  -19.9006 C   0  0  0  0  0  0  0  0  0  0  0  0
    0.2000   16.6917  -20.6487 O   0  0  0  0  0  0  0  0  0  0  0  0
    4.0569   19.4347  -19.9764 O   0  0  0  0  0  0  0  0  0  0  0  0
    4.3976   19.5615  -18.6145 C   0  0  0  0  0  0  0  0  0  0  0  0
   -0.8459   22.1896  -20.5953 C   0  0  0  0  0  0  0  0  0  0  0  0
   -2.0709   21.7030  -19.9449 C   0  0  0  0  0  0  0  0  0  0  0  0
   -2.6447   22.4975  -18.8311 C   0  0  0  0  0  0  0  0  0  0  0  0
   -4.1618   22.3023  -18.9375 C   0  0  0  0  0  0  0  0  0  0  0  0
   -4.3971   21.6920  -20.2638 C   0  0  0  0  0  0  0  0  0  0  0  0
   -5.5209   21.3999  -20.7155 O   0  0  0  0  0  0  0  0  0  0  0  0
   -3.1547   21.5011  -20.9187 N   0  0  0  0  0  0  0  0  0  0  0  0
   -2.9823   21.2618  -21.9020 H   0  0  0  0  0  0  0  0  0  0  0  0
 25 26  1  0  0  0
 26 18  1  0  0  0
 18 19  2  0  0  0
 19 20  1  0  0  0
 20 27  1  0  0  0
 27 28  1  0  0  0
 20 21  2  0  0  0
 21 22  1  0  0  0
 21 23  1  0  0  0
 23 24  2  0  0  0
 23  1  1  0  0  0
  1 29  1  0  0  0
 29 30  1  0  0  0
 30 31  1  0  0  0
 31 32  1  0  0  0
 32 33  1  0  0  0
 33 34  2  0  0  0
 33 35  1  0  0  0
  1  2  1  0  0  0
  2  3  2  0  0  0
  3  4  1  0  0  0
  4  5  2  0  0  0
  5  6  1  0  0  0
  6  7  2  0  0  0
  7  8  1  0  0  0
  8  9  2  0  0  0
  9 10  1  0  0  0
 10 11  2  0  0  0
  8 12  1  0  0  0
 12 13  1  0  0  0
 13 14  2  0  0  0
 14 15  1  0  0  0
 15 16  1  0  0  0
 15 17  1  0  0  0
 24 18  1  0  0  0
 35 30  1  0  0  0
 11  2  1  0  0  0
 17 12  2  0  0  0
 10  5  1  0  0  0
 35 36  1  0  0  0
M  END
> <minimizedAffinity>
-7.78912

> <CNNscore>
0.4078859389

> <CNNaffinity>
7.1237487793

> <CNN_VS>
2.9056768417

> <CNNaffinity_variance>
0.1415836364

$$$$
[H]c1nc2c([H])c([H])c(N(c3c([H])c(OC([H])([H])[H])c([H])c(OC([H])([H])[H])c3F)C([H])([H])C3([H])N([H])C(=O)C([H])([H])C3([H])[H])nc2c([H])c1-c1c([H])nn(C([H])([H])[H])c1[H]


 36 40  0  0  0  0  0  0  0  0999 V2000
   -0.7065   22.1129  -21.2940 N   0  0  0  0  0  0  0  0  0  0  0  0
   -0.6883   22.1654  -22.7198 C   0  0  0  0  0  0  0  0  0  0  0  0
    0.4641   21.8281  -23.4151 C   0  0  0  0  0  0  0  0  0  0  0  0
    0.5518   21.8413  -24.7839 C   0  0  0  0  0  0  0  0  0  0  0  0
   -0.5969   22.2183  -25.4832 C   0  0  0  0  0  0  0  0  0  0  0  0
   -0.5637   22.2406  -26.8180 N   0  0  0  0  0  0  0  0  0  0  0  0
   -1.6332   22.5863  -27.5210 C   0  0  0  0  0  0  0  0  0  0  0  0
   -2.8319   22.9398  -26.9106 C   0  0  0  0  0  0  0  0  0  0  0  0
   -2.8641   22.9166  -25.5295 C   0  0  0  0  0  0  0  0  0  0  0  0
   -1.7436   22.5548  -24.8171 C   0  0  0  0  0  0  0  0  0  0  0  0
   -1.7500   22.5175  -23.4713 N   0  0  0  0  0  0  0  0  0  0  0  0
   -4.0030   23.3077  -27.6812 C   0  0  0  0  0  0  0  0  0  0  0  0
   -5.2920   23.4757  -27.2326 C   0  0  0  0  0  0  0  0  0  0  0  0
   -6.0621   23.8153  -28.3044 N   0  0  0  0  0  0  0  0  0  0  0  0
   -5.3203   23.8664  -29.3903 N   0  0  0  0  0  0  0  0  0  0  0  0
   -5.8156   24.1957  -30.7069 C   0  0  0  0  0  0  0  0  0  0  0  0
   -4.0411   23.5560  -29.0319 C   0  0  0  0  0  0  0  0  0  0  0  0
    2.1174   21.1945  -19.1677 C   0  0  0  0  0  0  0  0  0  0  0  0
    2.1820   19.8060  -19.3301 C   0  0  0  0  0  0  0  0  0  0  0  0
    1.2882   19.1860  -20.1549 C   0  0  0  0  0  0  0  0  0  0  0  0
    0.3334   19.9590  -20.8138 C   0  0  0  0  0  0  0  0  0  0  0  0
   -0.4876   19.2940  -21.6272 F   0  0  0  0  0  0  0  0  0  0  0  0
    0.2472   21.3041  -20.6740 C   0  0  0  0  0  0  0  0  0  0  0  0
    1.1730   21.9236  -19.8238 C   0  0  0  0  0  0  0  0  0  0  0  0
    2.9244   21.9582  -16.9550 C   0  0  0  0  0  0  0  0  0  0  0  0
    3.0140   21.8321  -18.3395 O   0  0  0  0  0  0  0  0  0  0  0  0
    1.3297   17.8259  -20.3308 O   0  0  0  0  0  0  0  0  0  0  0  0
    2.5162   17.2277  -20.8015 C   0  0  0  0  0  0  0  0  0  0  0  0
   -1.6553   22.8836  -20.5832 C   0  0  0  0  0  0  0  0  0  0  0  0
   -2.5362   22.2631  -19.5836 C   0  0  0  0  0  0  0  0  0  0  0  0
   -2.2597   22.5080  -18.1467 C   0  0  0  0  0  0  0  0  0  0  0  0
   -3.6347   22.5164  -17.4682 C   0  0  0  0  0  0  0  0  0  0  0  0
   -4.6239   22.6024  -18.5641 C   0  0  0  0  0  0  0  0  0  0  0  0
   -5.8577   22.6484  -18.3974 O   0  0  0  0  0  0  0  0  0  0  0  0
   -3.9445   22.6237  -19.8078 N   0  0  0  0  0  0  0  0  0  0  0  0
   -4.3212   22.8459  -20.7366 H   0  0  0  0  0  0  0  0  0  0  0  0
 25 26  1  0  0  0
 26 18  1  0  0  0
 18 19  2  0  0  0
 19 20  1  0  0  0
 20 27  1  0  0  0
 27 28  1  0  0  0
 20 21  2  0  0  0
 21 22  1  0  0  0
 21 23  1  0  0  0
 23 24  2  0  0  0
 23  1  1  0  0  0
  1 29  1  0  0  0
 29 30  1  0  0  0
 30 31  1  0  0  0
 31 32  1  0  0  0
 32 33  1  0  0  0
 33 34  2  0  0  0
 33 35  1  0  0  0
  1  2  1  0  0  0
  2  3  2  0  0  0
  3  4  1  0  0  0
  4  5  2  0  0  0
  5  6  1  0  0  0
  6  7  2  0  0  0
  7  8  1  0  0  0
  8  9  2  0  0  0
  9 10  1  0  0  0
 10 11  2  0  0  0
  8 12  1  0  0  0
 12 13  1  0  0  0
 13 14  2  0  0  0
 14 15  1  0  0  0
 15 16  1  0  0  0
 15 17  1  0  0  0
 24 18  1  0  0  0
 35 30  1  0  0  0
 11  2  1  0  0  0
 17 12  2  0  0  0
 10  5  1  0  0  0
 35 36  1  0  0  0
M  END
> <minimizedAffinity>
-7.75235

> <CNNscore>
0.3699671626

> <CNNaffinity>
7.1568193436

> <CNN_VS>
2.6477880478

> <CNNaffinity_variance>
0.3385091722

$$$$
[H]c1nc2c([H])c([H])c(N(c3c([H])c(OC([H])([H])[H])c([H])c(OC([H])([H])[H])c3F)C([H])([H])C3([H])N([H])C(=O)C([H])([H])C3([H])[H])nc2c([H])c1-c1c([H])nn(C([H])([H])[H])c1[H]


 36 40  0  0  0  0  0  0  0  0999 V2000
   -3.2765   22.9018  -26.5612 N   0  0  0  0  0  0  0  0  0  0  0  0
   -2.0254   22.5221  -25.9898 C   0  0  0  0  0  0  0  0  0  0  0  0
   -0.8796   22.5009  -26.7722 C   0  0  0  0  0  0  0  0  0  0  0  0
    0.3585   22.1607  -26.2895 C   0  0  0  0  0  0  0  0  0  0  0  0
    0.4342   21.8239  -24.9362 C   0  0  0  0  0  0  0  0  0  0  0  0
    1.6191   21.4915  -24.4176 N   0  0  0  0  0  0  0  0  0  0  0  0
    1.7369   21.1710  -23.1366 C   0  0  0  0  0  0  0  0  0  0  0  0
    0.6439   21.1646  -22.2764 C   0  0  0  0  0  0  0  0  0  0  0  0
   -0.5811   21.5083  -22.8151 C   0  0  0  0  0  0  0  0  0  0  0  0
   -0.6834   21.8381  -24.1472 C   0  0  0  0  0  0  0  0  0  0  0  0
   -1.8636   22.1832  -24.6957 N   0  0  0  0  0  0  0  0  0  0  0  0
    0.7766   20.8237  -20.8740 C   0  0  0  0  0  0  0  0  0  0  0  0
    1.6135   19.8923  -20.3056 C   0  0  0  0  0  0  0  0  0  0  0  0
    1.3959   19.9069  -18.9604 N   0  0  0  0  0  0  0  0  0  0  0  0
    0.4711   20.7959  -18.6663 N   0  0  0  0  0  0  0  0  0  0  0  0
   -0.0055   21.0721  -17.3306 C   0  0  0  0  0  0  0  0  0  0  0  0
    0.0709   21.3776  -19.8335 C   0  0  0  0  0  0  0  0  0  0  0  0
   -5.5976   25.0695  -24.7576 C   0  0  0  0  0  0  0  0  0  0  0  0
   -6.3338   24.1580  -23.9925 C   0  0  0  0  0  0  0  0  0  0  0  0
   -6.0453   22.8263  -24.0769 C   0  0  0  0  0  0  0  0  0  0  0  0
   -5.0206   22.4131  -24.9269 C   0  0  0  0  0  0  0  0  0  0  0  0
   -4.7710   21.1032  -24.9374 F   0  0  0  0  0  0  0  0  0  0  0  0
   -4.2930   23.2734  -25.6796 C   0  0  0  0  0  0  0  0  0  0  0  0
   -4.6027   24.6364  -25.5801 C   0  0  0  0  0  0  0  0  0  0  0  0
   -5.2561   27.4378  -25.3941 C   0  0  0  0  0  0  0  0  0  0  0  0
   -5.8780   26.4156  -24.6807 O   0  0  0  0  0  0  0  0  0  0  0  0
   -6.7525   21.9119  -23.3378 O   0  0  0  0  0  0  0  0  0  0  0  0
   -6.6323   21.9197  -21.9333 C   0  0  0  0  0  0  0  0  0  0  0  0
   -3.4242   22.9074  -27.9674 C   0  0  0  0  0  0  0  0  0  0  0  0
   -4.3907   23.8006  -28.6219 C   0  0  0  0  0  0  0  0  0  0  0  0
   -3.9013   25.0834  -29.1840 C   0  0  0  0  0  0  0  0  0  0  0  0
   -4.7769   25.3430  -30.4157 C   0  0  0  0  0  0  0  0  0  0  0  0
   -5.4843   24.0719  -30.6819 C   0  0  0  0  0  0  0  0  0  0  0  0
   -6.2799   23.8924  -31.6236 O   0  0  0  0  0  0  0  0  0  0  0  0
   -5.1109   23.1146  -29.7057 N   0  0  0  0  0  0  0  0  0  0  0  0
   -5.2867   22.1032  -29.7043 H   0  0  0  0  0  0  0  0  0  0  0  0
 25 26  1  0  0  0
 26 18  1  0  0  0
 18 19  2  0  0  0
 19 20  1  0  0  0
 20 27  1  0  0  0
 27 28  1  0  0  0
 20 21  2  0  0  0
 21 22  1  0  0  0
 21 23  1  0  0  0
 23 24  2  0  0  0
 23  1  1  0  0  0
  1 29  1  0  0  0
 29 30  1  0  0  0
 30 31  1  0  0  0
 31 32  1  0  0  0
 32 33  1  0  0  0
 33 34  2  0  0  0
 33 35  1  0  0  0
  1  2  1  0  0  0
  2  3  2  0  0  0
  3  4  1  0  0  0
  4  5  2  0  0  0
  5  6  1  0  0  0
  6  7  2  0  0  0
  7  8  1  0  0  0
  8  9  2  0  0  0
  9 10  1  0  0  0
 10 11  2  0  0  0
  8 12  1  0  0  0
 12 13  1  0  0  0
 13 14  2  0  0  0
 14 15  1  0  0  0
 15 16  1  0  0  0
 15 17  1  0  0  0
 24 18  1  0  0  0
 35 30  1  0  0  0
 11  2  1  0  0  0
 17 12  2  0  0  0
 10  5  1  0  0  0
 35 36  1  0  0  0
M  END
> <minimizedAffinity>
-9.02658

> <CNNscore>
0.2252978534

> <CNNaffinity>
7.1821022034

> <CNN_VS>
1.6181122065

> <CNNaffinity_variance>
0.1129267439

$$$$
[H]c1nc2c([H])c([H])c(N(c3c([H])c(OC([H])([H])[H])c([H])c(OC([H])([H])[H])c3F)C([H])([H])C3([H])N([H])C(=O)C([H])([H])C3([H])[H])nc2c([H])c1-c1c([H])nn(C([H])([H])[H])c1[H]


 36 40  0  0  0  0  0  0  0  0999 V2000
   -3.6427   22.2465  -25.0124 N   0  0  0  0  0  0  0  0  0  0  0  0
   -2.2594   22.0268  -24.7399 C   0  0  0  0  0  0  0  0  0  0  0  0
   -1.3108   22.2461  -25.7286 C   0  0  0  0  0  0  0  0  0  0  0  0
    0.0358   22.0700  -25.5359 C   0  0  0  0  0  0  0  0  0  0  0  0
    0.4387   21.6477  -24.2671 C   0  0  0  0  0  0  0  0  0  0  0  0
    1.7403   21.4682  -24.0281 N   0  0  0  0  0  0  0  0  0  0  0  0
    2.1666   21.0742  -22.8362 C   0  0  0  0  0  0  0  0  0  0  0  0
    1.2893   20.8302  -21.7849 C   0  0  0  0  0  0  0  0  0  0  0  0
   -0.0568   21.0161  -22.0344 C   0  0  0  0  0  0  0  0  0  0  0  0
   -0.4801   21.4256  -23.2782 C   0  0  0  0  0  0  0  0  0  0  0  0
   -1.7851   21.6206  -23.5459 N   0  0  0  0  0  0  0  0  0  0  0  0
    1.7582   20.4093  -20.4797 C   0  0  0  0  0  0  0  0  0  0  0  0
    2.7028   19.4533  -20.1883 C   0  0  0  0  0  0  0  0  0  0  0  0
    2.8203   19.3877  -18.8322 N   0  0  0  0  0  0  0  0  0  0  0  0
    2.0008   20.2503  -18.2697 N   0  0  0  0  0  0  0  0  0  0  0  0
    1.8664   20.4441  -16.8443 C   0  0  0  0  0  0  0  0  0  0  0  0
    1.3313   20.8957  -19.2679 C   0  0  0  0  0  0  0  0  0  0  0  0
   -4.6177   23.9764  -28.0776 C   0  0  0  0  0  0  0  0  0  0  0  0
   -4.6710   25.3137  -27.6690 C   0  0  0  0  0  0  0  0  0  0  0  0
   -4.3728   25.6308  -26.3751 C   0  0  0  0  0  0  0  0  0  0  0  0
   -4.0224   24.6074  -25.4958 C   0  0  0  0  0  0  0  0  0  0  0  0
   -3.7134   24.9903  -24.2565 F   0  0  0  0  0  0  0  0  0  0  0  0
   -3.9641   23.3046  -25.8641 C   0  0  0  0  0  0  0  0  0  0  0  0
   -4.2729   22.9977  -27.1961 C   0  0  0  0  0  0  0  0  0  0  0  0
   -5.5061   24.4670  -30.3361 C   0  0  0  0  0  0  0  0  0  0  0  0
   -4.9150   23.6435  -29.3804 O   0  0  0  0  0  0  0  0  0  0  0  0
   -4.4182   26.9341  -25.9487 O   0  0  0  0  0  0  0  0  0  0  0  0
   -5.5474   27.3877  -25.2372 C   0  0  0  0  0  0  0  0  0  0  0  0
   -4.6081   21.3875  -24.4383 C   0  0  0  0  0  0  0  0  0  0  0  0
   -5.4754   21.8494  -23.3453 C   0  0  0  0  0  0  0  0  0  0  0  0
   -4.8658   22.6247  -22.2370 C   0  0  0  0  0  0  0  0  0  0  0  0
   -5.9515   23.6116  -21.7917 C   0  0  0  0  0  0  0  0  0  0  0  0
   -6.9831   23.5801  -22.8508 C   0  0  0  0  0  0  0  0  0  0  0  0
   -8.0202   24.2704  -22.8448 O   0  0  0  0  0  0  0  0  0  0  0  0
   -6.5992   22.6524  -23.8512 N   0  0  0  0  0  0  0  0  0  0  0  0
   -7.0015   22.5200  -24.7864 H   0  0  0  0  0  0  0  0  0  0  0  0
 25 26  1  0  0  0
 26 18  1  0  0  0
 18 19  2  0  0  0
 19 20  1  0  0  0
 20 27  1  0  0  0
 27 28  1  0  0  0
 20 21  2  0  0  0
 21 22  1  0  0  0
 21 23  1  0  0  0
 23 24  2  0  0  0
 23  1  1  0  0  0
  1 29  1  0  0  0
 29 30  1  0  0  0
 30 31  1  0  0  0
 31 32  1  0  0  0
 32 33  1  0  0  0
 33 34  2  0  0  0
 33 35  1  0  0  0
  1  2  1  0  0  0
  2  3  2  0  0  0
  3  4  1  0  0  0
  4  5  2  0  0  0
  5  6  1  0  0  0
  6  7  2  0  0  0
  7  8  1  0  0  0
  8  9  2  0  0  0
  9 10  1  0  0  0
 10 11  2  0  0  0
  8 12  1  0  0  0
 12 13  1  0  0  0
 13 14  2  0  0  0
 14 15  1  0  0  0
 15 16  1  0  0  0
 15 17  1  0  0  0
 24 18  1  0  0  0
 35 30  1  0  0  0
 11  2  1  0  0  0
 17 12  2  0  0  0
 10  5  1  0  0  0
 35 36  1  0  0  0
M  END
> <minimizedAffinity>
-8.21323

> <CNNscore>
0.1709279567

> <CNNaffinity>
6.9766325951

> <CNN_VS>
1.1925015450

> <CNNaffinity_variance>
0.0782808438

$$$$
[H]c1nc2c([H])c([H])c(N(c3c([H])c(OC([H])([H])[H])c([H])c(OC([H])([H])[H])c3F)C([H])([H])C3([H])N([H])C(=O)C([H])([H])C3([H])[H])nc2c([H])c1-c1c([H])nn(C([H])([H])[H])c1[H]


 36 40  0  0  0  0  0  0  0  0999 V2000
   -4.6684   23.3301  -26.1696 N   0  0  0  0  0  0  0  0  0  0  0  0
   -5.3837   24.1180  -25.2191 C   0  0  0  0  0  0  0  0  0  0  0  0
   -5.2183   25.4954  -25.1900 C   0  0  0  0  0  0  0  0  0  0  0  0
   -5.8820   26.3177  -24.3154 C   0  0  0  0  0  0  0  0  0  0  0  0
   -6.7625   25.7041  -23.4216 C   0  0  0  0  0  0  0  0  0  0  0  0
   -7.4372   26.4630  -22.5543 N   0  0  0  0  0  0  0  0  0  0  0  0
   -8.2875   25.9223  -21.6929 C   0  0  0  0  0  0  0  0  0  0  0  0
   -8.5180   24.5514  -21.6489 C   0  0  0  0  0  0  0  0  0  0  0  0
   -7.8186   23.7680  -22.5467 C   0  0  0  0  0  0  0  0  0  0  0  0
   -6.9403   24.3476  -23.4334 C   0  0  0  0  0  0  0  0  0  0  0  0
   -6.2513   23.6081  -24.3230 N   0  0  0  0  0  0  0  0  0  0  0  0
   -9.4557   23.9633  -20.7132 C   0  0  0  0  0  0  0  0  0  0  0  0
  -10.7170   24.4053  -20.3895 C   0  0  0  0  0  0  0  0  0  0  0  0
  -11.2308   23.5477  -19.4635 N   0  0  0  0  0  0  0  0  0  0  0  0
  -10.3570   22.6003  -19.1972 N   0  0  0  0  0  0  0  0  0  0  0  0
  -10.5748   21.5243  -18.2581 C   0  0  0  0  0  0  0  0  0  0  0  0
   -9.2490   22.8346  -19.9578 C   0  0  0  0  0  0  0  0  0  0  0  0
   -1.0735   22.7250  -26.3918 C   0  0  0  0  0  0  0  0  0  0  0  0
   -0.7955   22.0908  -25.1758 C   0  0  0  0  0  0  0  0  0  0  0  0
   -1.8111   21.8613  -24.2929 C   0  0  0  0  0  0  0  0  0  0  0  0
   -3.1009   22.2677  -24.6314 C   0  0  0  0  0  0  0  0  0  0  0  0
   -4.0495   21.9849  -23.7380 F   0  0  0  0  0  0  0  0  0  0  0  0
   -3.3980   22.8847  -25.8007 C   0  0  0  0  0  0  0  0  0  0  0  0
   -2.3433   23.1118  -26.6951 C   0  0  0  0  0  0  0  0  0  0  0  0
   -0.1984   23.3322  -28.6271 C   0  0  0  0  0  0  0  0  0  0  0  0
   -0.0581   22.9613  -27.2916 O   0  0  0  0  0  0  0  0  0  0  0  0
   -1.5652   21.2419  -23.0935 O   0  0  0  0  0  0  0  0  0  0  0  0
   -0.2923   21.3676  -22.5010 C   0  0  0  0  0  0  0  0  0  0  0  0
   -5.2727   23.0211  -27.4101 C   0  0  0  0  0  0  0  0  0  0  0  0
   -4.8926   23.7390  -28.6350 C   0  0  0  0  0  0  0  0  0  0  0  0
   -5.3052   23.1746  -29.9435 C   0  0  0  0  0  0  0  0  0  0  0  0
   -5.5513   24.3895  -30.8461 C   0  0  0  0  0  0  0  0  0  0  0  0
   -5.5863   25.5607  -29.9439 C   0  0  0  0  0  0  0  0  0  0  0  0
   -5.7833   26.7325  -30.3182 O   0  0  0  0  0  0  0  0  0  0  0  0
   -5.3632   25.1325  -28.6114 N   0  0  0  0  0  0  0  0  0  0  0  0
   -5.4918   25.6620  -27.7413 H   0  0  0  0  0  0  0  0  0  0  0  0
 25 26  1  0  0  0
 26 18  1  0  0  0
 18 19  2  0  0  0
 19 20  1  0  0  0
 20 27  1  0  0  0
 27 28  1  0  0  0
 20 21  2  0  0  0
 21 22  1  0  0  0
 21 23  1  0  0  0
 23 24  2  0  0  0
 23  1  1  0  0  0
  1 29  1  0  0  0
 29 30  1  0  0  0
 30 31  1  0  0  0
 31 32  1  0  0  0
 32 33  1  0  0  0
 33 34  2  0  0  0
 33 35  1  0  0  0
  1  2  1  0  0  0
  2  3  2  0  0  0
  3  4  1  0  0  0
  4  5  2  0  0  0
  5  6  1  0  0  0
  6  7  2  0  0  0
  7  8  1  0  0  0
  8  9  2  0  0  0
  9 10  1  0  0  0
 10 11  2  0  0  0
  8 12  1  0  0  0
 12 13  1  0  0  0
 13 14  2  0  0  0
 14 15  1  0  0  0
 15 16  1  0  0  0
 15 17  1  0  0  0
 24 18  1  0  0  0
 35 30  1  0  0  0
 11  2  1  0  0  0
 17 12  2  0  0  0
 10  5  1  0  0  0
 35 36  1  0  0  0
M  END
> <minimizedAffinity>
-9.02006

> <CNNscore>
0.1698403656

> <CNNaffinity>
7.1609878540

> <CNN_VS>
1.2162247896

> <CNNaffinity_variance>
0.1326385140

$$$$
[H]c1nc2c([H])c([H])c(N(c3c([H])c(OC([H])([H])[H])c([H])c(OC([H])([H])[H])c3F)C([H])([H])C3([H])N([H])C(=O)C([H])([H])C3([H])[H])nc2c([H])c1-c1c([H])nn(C([H])([H])[H])c1[H]


 36 40  0  0  0  0  0  0  0  0999 V2000
    1.2613   21.0513  -19.8744 N   0  0  0  0  0  0  0  0  0  0  0  0
    1.1389   21.2351  -21.2841 C   0  0  0  0  0  0  0  0  0  0  0  0
    2.2412   21.0590  -22.1084 C   0  0  0  0  0  0  0  0  0  0  0  0
    2.1960   21.2043  -23.4716 C   0  0  0  0  0  0  0  0  0  0  0  0
    0.9610   21.5475  -24.0260 C   0  0  0  0  0  0  0  0  0  0  0  0
    0.8644   21.6942  -25.3499 N   0  0  0  0  0  0  0  0  0  0  0  0
   -0.2901   22.0133  -25.9181 C   0  0  0  0  0  0  0  0  0  0  0  0
   -1.4476   22.2094  -25.1724 C   0  0  0  0  0  0  0  0  0  0  0  0
   -1.3455   22.0575  -23.8029 C   0  0  0  0  0  0  0  0  0  0  0  0
   -0.1383   21.7260  -23.2314 C   0  0  0  0  0  0  0  0  0  0  0  0
   -0.0129   21.5655  -21.9005 N   0  0  0  0  0  0  0  0  0  0  0  0
   -2.7110   22.5482  -25.7965 C   0  0  0  0  0  0  0  0  0  0  0  0
   -2.9658   22.7560  -27.1318 C   0  0  0  0  0  0  0  0  0  0  0  0
   -4.2891   23.0556  -27.2587 N   0  0  0  0  0  0  0  0  0  0  0  0
   -4.8660   23.0443  -26.0759 N   0  0  0  0  0  0  0  0  0  0  0  0
   -6.2650   23.3200  -25.8433 C   0  0  0  0  0  0  0  0  0  0  0  0
   -3.9107   22.7329  -25.1531 C   0  0  0  0  0  0  0  0  0  0  0  0
   -0.9880   18.5278  -18.4918 C   0  0  0  0  0  0  0  0  0  0  0  0
   -1.9634   19.3044  -17.8564 C   0  0  0  0  0  0  0  0  0  0  0  0
   -1.8691   20.6656  -17.9007 C   0  0  0  0  0  0  0  0  0  0  0  0
   -0.7984   21.2434  -18.5811 C   0  0  0  0  0  0  0  0  0  0  0  0
   -0.7844   22.5764  -18.6117 F   0  0  0  0  0  0  0  0  0  0  0  0
    0.1604   20.5159  -19.2037 C   0  0  0  0  0  0  0  0  0  0  0  0
    0.0473   19.1202  -19.1483 C   0  0  0  0  0  0  0  0  0  0  0  0
   -0.9588   16.2836  -19.5375 C   0  0  0  0  0  0  0  0  0  0  0  0
   -1.0724   17.1538  -18.4555 O   0  0  0  0  0  0  0  0  0  0  0  0
   -2.8119   21.4499  -17.2853 O   0  0  0  0  0  0  0  0  0  0  0  0
   -4.0753   21.6109  -17.8894 C   0  0  0  0  0  0  0  0  0  0  0  0
    2.4747   21.3910  -19.2330 C   0  0  0  0  0  0  0  0  0  0  0  0
    2.6136   22.6586  -18.5020 C   0  0  0  0  0  0  0  0  0  0  0  0
    2.3056   22.6766  -17.0509 C   0  0  0  0  0  0  0  0  0  0  0  0
    3.2641   23.7109  -16.4489 C   0  0  0  0  0  0  0  0  0  0  0  0
    4.2691   23.9869  -17.4981 C   0  0  0  0  0  0  0  0  0  0  0  0
    5.2270   24.7726  -17.3668 O   0  0  0  0  0  0  0  0  0  0  0  0
    3.9640   23.2223  -18.6518 N   0  0  0  0  0  0  0  0  0  0  0  0
    4.5479   23.0564  -19.4798 H   0  0  0  0  0  0  0  0  0  0  0  0
 25 26  1  0  0  0
 26 18  1  0  0  0
 18 19  2  0  0  0
 19 20  1  0  0  0
 20 27  1  0  0  0
 27 28  1  0  0  0
 20 21  2  0  0  0
 21 22  1  0  0  0
 21 23  1  0  0  0
 23 24  2  0  0  0
 23  1  1  0  0  0
  1 29  1  0  0  0
 29 30  1  0  0  0
 30 31  1  0  0  0
 31 32  1  0  0  0
 32 33  1  0  0  0
 33 34  2  0  0  0
 33 35  1  0  0  0
  1  2  1  0  0  0
  2  3  2  0  0  0
  3  4  1  0  0  0
  4  5  2  0  0  0
  5  6  1  0  0  0
  6  7  2  0  0  0
  7  8  1  0  0  0
  8  9  2  0  0  0
  9 10  1  0  0  0
 10 11  2  0  0  0
  8 12  1  0  0  0
 12 13  1  0  0  0
 13 14  2  0  0  0
 14 15  1  0  0  0
 15 16  1  0  0  0
 15 17  1  0  0  0
 24 18  1  0  0  0
 35 30  1  0  0  0
 11  2  1  0  0  0
 17 12  2  0  0  0
 10  5  1  0  0  0
 35 36  1  0  0  0
M  END
> <minimizedAffinity>
-7.12863

> <CNNscore>
0.1653064936

> <CNNaffinity>
6.5193252563

> <CNN_VS>
1.0776867867

> <CNNaffinity_variance>
0.0369613580

$$$$
[H]c1nc([H])c([H])c(-c2c([H])nc3c([H])c([H])c(N(c4c([H])c(OC([H])([H])[H])c([H])c(OC([H])([H])[H])c4[H])C([H])([H])c4nc([H])c([H])n4[H])nc3c2[H])c1[H]


 34 38  0  0  0  0  0  0  0  0999 V2000
   -5.1706   23.2852  -27.2476 N   0  0  0  0  0  0  0  0  0  0  0  0
   -3.7612   23.1165  -27.2672 C   0  0  0  0  0  0  0  0  0  0  0  0
   -3.0173   23.3054  -28.4233 C   0  0  0  0  0  0  0  0  0  0  0  0
   -1.6615   23.1277  -28.4844 C   0  0  0  0  0  0  0  0  0  0  0  0
   -1.0066   22.7403  -27.3359 C   0  0  0  0  0  0  0  0  0  0  0  0
    0.3203   22.5308  -27.2996 N   0  0  0  0  0  0  0  0  0  0  0  0
    0.9055   22.1458  -26.1595 C   0  0  0  0  0  0  0  0  0  0  0  0
    0.2147   21.9417  -24.9743 C   0  0  0  0  0  0  0  0  0  0  0  0
   -1.1451   22.1530  -24.9948 C   0  0  0  0  0  0  0  0  0  0  0  0
   -1.7547   22.5548  -26.1873 C   0  0  0  0  0  0  0  0  0  0  0  0
   -3.0883   22.7411  -26.1688 N   0  0  0  0  0  0  0  0  0  0  0  0
    0.9288   21.5169  -23.7882 C   0  0  0  0  0  0  0  0  0  0  0  0
    2.2815   21.2782  -23.8082 C   0  0  0  0  0  0  0  0  0  0  0  0
    2.9506   20.8681  -22.6431 C   0  0  0  0  0  0  0  0  0  0  0  0
    2.2647   20.7084  -21.5030 N   0  0  0  0  0  0  0  0  0  0  0  0
    0.9412   20.9370  -21.4627 C   0  0  0  0  0  0  0  0  0  0  0  0
    0.2504   21.3467  -22.6115 C   0  0  0  0  0  0  0  0  0  0  0  0
   -5.8200   22.6010  -23.6795 C   0  0  0  0  0  0  0  0  0  0  0  0
   -6.8194   23.5169  -23.3771 C   0  0  0  0  0  0  0  0  0  0  0  0
   -7.2946   24.3796  -24.3479 C   0  0  0  0  0  0  0  0  0  0  0  0
   -6.7482   24.3091  -25.6346 C   0  0  0  0  0  0  0  0  0  0  0  0
   -5.7668   23.4201  -25.9611 C   0  0  0  0  0  0  0  0  0  0  0  0
   -5.3081   22.5652  -24.9677 C   0  0  0  0  0  0  0  0  0  0  0  0
   -4.0020   21.5271  -22.4484 C   0  0  0  0  0  0  0  0  0  0  0  0
   -5.3728   21.7619  -22.6922 O   0  0  0  0  0  0  0  0  0  0  0  0
   -8.2888   25.3193  -24.1280 O   0  0  0  0  0  0  0  0  0  0  0  0
   -9.1020   25.4313  -23.0113 C   0  0  0  0  0  0  0  0  0  0  0  0
   -5.9840   23.2988  -28.4010 C   0  0  0  0  0  0  0  0  0  0  0  0
   -5.7353   24.4187  -29.3526 C   0  0  0  0  0  0  0  0  0  0  0  0
   -5.6386   25.7301  -29.0740 N   0  0  0  0  0  0  0  0  0  0  0  0
   -5.4196   26.4534  -30.1776 C   0  0  0  0  0  0  0  0  0  0  0  0
   -5.3764   25.5380  -31.2070 C   0  0  0  0  0  0  0  0  0  0  0  0
   -5.5691   24.3176  -30.6886 N   0  0  0  0  0  0  0  0  0  0  0  0
   -5.5897   23.4173  -31.2370 H   0  0  0  0  0  0  0  0  0  0  0  0
 24 25  1  0  0  0
 25 18  1  0  0  0
 18 19  2  0  0  0
 19 20  1  0  0  0
 20 26  1  0  0  0
 26 27  1  0  0  0
 20 21  2  0  0  0
 21 22  1  0  0  0
 22 23  2  0  0  0
 22  1  1  0  0  0
  1 28  1  0  0  0
 28 29  1  0  0  0
 29 30  2  0  0  0
 30 31  1  0  0  0
 31 32  2  0  0  0
 32 33  1  0  0  0
  1  2  1  0  0  0
  2  3  2  0  0  0
  3  4  1  0  0  0
  4  5  2  0  0  0
  5  6  1  0  0  0
  6  7  2  0  0  0
  7  8  1  0  0  0
  8  9  2  0  0  0
  9 10  1  0  0  0
 10 11  2  0  0  0
  8 12  1  0  0  0
 12 13  2  0  0  0
 13 14  1  0  0  0
 14 15  2  0  0  0
 15 16  1  0  0  0
 16 17  2  0  0  0
 23 18  1  0  0  0
 33 29  1  0  0  0
 11  2  1  0  0  0
 17 12  1  0  0  0
 10  5  1  0  0  0
 33 34  1  0  0  0
M  END
> <minimizedAffinity>
-9.14947

> <CNNscore>
0.8844076991

> <CNNaffinity>
8.0021724701

> <CNN_VS>
7.0771827698

> <CNNaffinity_variance>
0.1623106748

$$$$
[H]c1nc([H])c([H])c(-c2c([H])nc3c([H])c([H])c(N(c4c([H])c(OC([H])([H])[H])c([H])c(OC([H])([H])[H])c4[H])C([H])([H])c4nc([H])c([H])n4[H])nc3c2[H])c1[H]


 34 38  0  0  0  0  0  0  0  0999 V2000
   -5.2832   23.2974  -26.9939 N   0  0  0  0  0  0  0  0  0  0  0  0
   -3.8801   23.0837  -27.0236 C   0  0  0  0  0  0  0  0  0  0  0  0
   -3.1449   23.2098  -28.1939 C   0  0  0  0  0  0  0  0  0  0  0  0
   -1.7963   22.9875  -28.2641 C   0  0  0  0  0  0  0  0  0  0  0  0
   -1.1396   22.6186  -27.1105 C   0  0  0  0  0  0  0  0  0  0  0  0
    0.1805   22.3687  -27.0820 N   0  0  0  0  0  0  0  0  0  0  0  0
    0.7674   22.0043  -25.9361 C   0  0  0  0  0  0  0  0  0  0  0  0
    0.0853   21.8623  -24.7368 C   0  0  0  0  0  0  0  0  0  0  0  0
   -1.2674   22.1156  -24.7492 C   0  0  0  0  0  0  0  0  0  0  0  0
   -1.8789   22.4959  -25.9478 C   0  0  0  0  0  0  0  0  0  0  0  0
   -3.2057   22.7247  -25.9207 N   0  0  0  0  0  0  0  0  0  0  0  0
    0.8004   21.4556  -23.5450 C   0  0  0  0  0  0  0  0  0  0  0  0
    0.1583   21.2841  -22.3427 C   0  0  0  0  0  0  0  0  0  0  0  0
    0.8751   20.8877  -21.2015 C   0  0  0  0  0  0  0  0  0  0  0  0
    2.1956   20.6749  -21.2858 N   0  0  0  0  0  0  0  0  0  0  0  0
    2.8420   20.8371  -22.4525 C   0  0  0  0  0  0  0  0  0  0  0  0
    2.1495   21.2321  -23.6054 C   0  0  0  0  0  0  0  0  0  0  0  0
   -6.8957   24.9521  -24.1159 C   0  0  0  0  0  0  0  0  0  0  0  0
   -7.0305   23.9090  -23.2089 C   0  0  0  0  0  0  0  0  0  0  0  0
   -6.5927   22.6381  -23.5344 C   0  0  0  0  0  0  0  0  0  0  0  0
   -6.0142   22.4287  -24.7917 C   0  0  0  0  0  0  0  0  0  0  0  0
   -5.8682   23.4333  -25.7024 C   0  0  0  0  0  0  0  0  0  0  0  0
   -6.3158   24.6996  -25.3499 C   0  0  0  0  0  0  0  0  0  0  0  0
   -7.8902   26.4824  -22.4900 C   0  0  0  0  0  0  0  0  0  0  0  0
   -7.3414   26.1984  -23.7597 O   0  0  0  0  0  0  0  0  0  0  0  0
   -6.6891   21.5462  -22.6870 O   0  0  0  0  0  0  0  0  0  0  0  0
   -6.8816   21.5666  -21.3146 C   0  0  0  0  0  0  0  0  0  0  0  0
   -6.1015   23.3535  -28.1425 C   0  0  0  0  0  0  0  0  0  0  0  0
   -5.7509   24.4103  -29.1335 C   0  0  0  0  0  0  0  0  0  0  0  0
   -5.5715   25.7233  -28.9086 N   0  0  0  0  0  0  0  0  0  0  0  0
   -5.2738   26.3799  -30.0352 C   0  0  0  0  0  0  0  0  0  0  0  0
   -5.2663   25.4185  -31.0227 C   0  0  0  0  0  0  0  0  0  0  0  0
   -5.5564   24.2383  -30.4584 N   0  0  0  0  0  0  0  0  0  0  0  0
   -5.6244   23.3179  -30.9680 H   0  0  0  0  0  0  0  0  0  0  0  0
 24 25  1  0  0  0
 25 18  1  0  0  0
 18 19  2  0  0  0
 19 20  1  0  0  0
 20 26  1  0  0  0
 26 27  1  0  0  0
 20 21  2  0  0  0
 21 22  1  0  0  0
 22 23  2  0  0  0
 22  1  1  0  0  0
  1 28  1  0  0  0
 28 29  1  0  0  0
 29 30  2  0  0  0
 30 31  1  0  0  0
 31 32  2  0  0  0
 32 33  1  0  0  0
  1  2  1  0  0  0
  2  3  2  0  0  0
  3  4  1  0  0  0
  4  5  2  0  0  0
  5  6  1  0  0  0
  6  7  2  0  0  0
  7  8  1  0  0  0
  8  9  2  0  0  0
  9 10  1  0  0  0
 10 11  2  0  0  0
  8 12  1  0  0  0
 12 13  2  0  0  0
 13 14  1  0  0  0
 14 15  2  0  0  0
 15 16  1  0  0  0
 16 17  2  0  0  0
 23 18  1  0  0  0
 33 29  1  0  0  0
 11  2  1  0  0  0
 17 12  1  0  0  0
 10  5  1  0  0  0
 33 34  1  0  0  0
M  END
> <minimizedAffinity>
-8.78113

> <CNNscore>
0.7344927192

> <CNNaffinity>
7.8340210915

> <CNN_VS>
5.7540316582

> <CNNaffinity_variance>
0.2077451646

$$$$
[H]c1nc([H])c([H])c(-c2c([H])nc3c([H])c([H])c(N(c4c([H])c(OC([H])([H])[H])c([H])c(OC([H])([H])[H])c4[H])C([H])([H])c4nc([H])c([H])n4[H])nc3c2[H])c1[H]


 34 38  0  0  0  0  0  0  0  0999 V2000
   -2.0960   21.6665  -22.5144 N   0  0  0  0  0  0  0  0  0  0  0  0
   -1.7102   21.9422  -23.8524 C   0  0  0  0  0  0  0  0  0  0  0  0
   -0.3983   21.7963  -24.2809 C   0  0  0  0  0  0  0  0  0  0  0  0
    0.0134   22.0764  -25.5558 C   0  0  0  0  0  0  0  0  0  0  0  0
   -0.9270   22.5272  -26.4560 C   0  0  0  0  0  0  0  0  0  0  0  0
   -0.6171   22.8379  -27.7261 N   0  0  0  0  0  0  0  0  0  0  0  0
   -1.5677   23.2808  -28.5572 C   0  0  0  0  0  0  0  0  0  0  0  0
   -2.8938   23.4463  -28.1863 C   0  0  0  0  0  0  0  0  0  0  0  0
   -3.2276   23.1313  -26.8888 C   0  0  0  0  0  0  0  0  0  0  0  0
   -2.2327   22.6692  -26.0217 C   0  0  0  0  0  0  0  0  0  0  0  0
   -2.5975   22.3817  -24.7578 N   0  0  0  0  0  0  0  0  0  0  0  0
   -3.8555   23.9392  -29.1503 C   0  0  0  0  0  0  0  0  0  0  0  0
   -3.7682   25.2073  -29.6715 C   0  0  0  0  0  0  0  0  0  0  0  0
   -4.7135   25.6607  -30.6064 C   0  0  0  0  0  0  0  0  0  0  0  0
   -5.7083   24.8505  -30.9934 N   0  0  0  0  0  0  0  0  0  0  0  0
   -5.8111   23.6067  -30.4954 C   0  0  0  0  0  0  0  0  0  0  0  0
   -4.8807   23.1307  -29.5613 C   0  0  0  0  0  0  0  0  0  0  0  0
    0.2738   22.2083  -19.7375 C   0  0  0  0  0  0  0  0  0  0  0  0
    1.0115   21.0315  -19.7408 C   0  0  0  0  0  0  0  0  0  0  0  0
    0.7361   20.0359  -20.6603 C   0  0  0  0  0  0  0  0  0  0  0  0
   -0.2972   20.2403  -21.5821 C   0  0  0  0  0  0  0  0  0  0  0  0
   -1.0380   21.3852  -21.6033 C   0  0  0  0  0  0  0  0  0  0  0  0
   -0.7404   22.3688  -20.6694 C   0  0  0  0  0  0  0  0  0  0  0  0
    1.8927   23.4416  -18.3839 C   0  0  0  0  0  0  0  0  0  0  0  0
    0.5740   23.1730  -18.8112 O   0  0  0  0  0  0  0  0  0  0  0  0
    1.4252   18.8359  -20.7307 O   0  0  0  0  0  0  0  0  0  0  0  0
    2.7777   18.6609  -20.9777 C   0  0  0  0  0  0  0  0  0  0  0  0
   -3.4338   21.6331  -22.0655 C   0  0  0  0  0  0  0  0  0  0  0  0
   -4.2061   22.8953  -22.2448 C   0  0  0  0  0  0  0  0  0  0  0  0
   -4.0928   24.0368  -21.5440 N   0  0  0  0  0  0  0  0  0  0  0  0
   -4.9545   24.9656  -21.9727 C   0  0  0  0  0  0  0  0  0  0  0  0
   -5.6469   24.3679  -23.0037 C   0  0  0  0  0  0  0  0  0  0  0  0
   -5.1808   23.1204  -23.1514 N   0  0  0  0  0  0  0  0  0  0  0  0
   -5.5219   22.4213  -23.8631 H   0  0  0  0  0  0  0  0  0  0  0  0
 24 25  1  0  0  0
 25 18  1  0  0  0
 18 19  2  0  0  0
 19 20  1  0  0  0
 20 26  1  0  0  0
 26 27  1  0  0  0
 20 21  2  0  0  0
 21 22  1  0  0  0
 22 23  2  0  0  0
 22  1  1  0  0  0
  1 28  1  0  0  0
 28 29  1  0  0  0
 29 30  2  0  0  0
 30 31  1  0  0  0
 31 32  2  0  0  0
 32 33  1  0  0  0
  1  2  1  0  0  0
  2  3  2  0  0  0
  3  4  1  0  0  0
  4  5  2  0  0  0
  5  6  1  0  0  0
  6  7  2  0  0  0
  7  8  1  0  0  0
  8  9  2  0  0  0
  9 10  1  0  0  0
 10 11  2  0  0  0
  8 12  1  0  0  0
 12 13  2  0  0  0
 13 14  1  0  0  0
 14 15  2  0  0  0
 15 16  1  0  0  0
 16 17  2  0  0  0
 23 18  1  0  0  0
 33 29  1  0  0  0
 11  2  1  0  0  0
 17 12  1  0  0  0
 10  5  1  0  0  0
 33 34  1  0  0  0
M  END
> <minimizedAffinity>
-8.70824

> <CNNscore>
0.5843892097

> <CNNaffinity>
7.5221338272

> <CNN_VS>
4.3958539963

> <CNNaffinity_variance>
0.1891276538

$$$$
[H]c1nc([H])c([H])c(-c2c([H])nc3c([H])c([H])c(N(c4c([H])c(OC([H])([H])[H])c([H])c(OC([H])([H])[H])c4[H])C([H])([H])c4nc([H])c([H])n4[H])nc3c2[H])c1[H]


 34 38  0  0  0  0  0  0  0  0999 V2000
   -2.1819   21.7198  -22.3335 N   0  0  0  0  0  0  0  0  0  0  0  0
   -1.7751   21.9713  -23.6701 C   0  0  0  0  0  0  0  0  0  0  0  0
   -0.4556   21.8240  -24.0738 C   0  0  0  0  0  0  0  0  0  0  0  0
   -0.0240   22.0812  -25.3470 C   0  0  0  0  0  0  0  0  0  0  0  0
   -0.9515   22.5091  -26.2714 C   0  0  0  0  0  0  0  0  0  0  0  0
   -0.6220   22.7965  -27.5421 N   0  0  0  0  0  0  0  0  0  0  0  0
   -1.5608   23.2178  -28.3975 C   0  0  0  0  0  0  0  0  0  0  0  0
   -2.8937   23.3834  -28.0520 C   0  0  0  0  0  0  0  0  0  0  0  0
   -3.2476   23.0923  -26.7542 C   0  0  0  0  0  0  0  0  0  0  0  0
   -2.2650   22.6526  -25.8618 C   0  0  0  0  0  0  0  0  0  0  0  0
   -2.6494   22.3881  -24.5986 N   0  0  0  0  0  0  0  0  0  0  0  0
   -3.8416   23.8522  -29.0414 C   0  0  0  0  0  0  0  0  0  0  0  0
   -4.8549   23.0492  -29.5057 C   0  0  0  0  0  0  0  0  0  0  0  0
   -5.7622   23.5287  -30.4650 C   0  0  0  0  0  0  0  0  0  0  0  0
   -5.6388   24.7791  -30.9311 N   0  0  0  0  0  0  0  0  0  0  0  0
   -4.6546   25.5802  -30.4896 C   0  0  0  0  0  0  0  0  0  0  0  0
   -3.7366   25.1253  -29.5330 C   0  0  0  0  0  0  0  0  0  0  0  0
    0.4644   19.9368  -20.4792 C   0  0  0  0  0  0  0  0  0  0  0  0
    0.9192   20.9098  -19.5987 C   0  0  0  0  0  0  0  0  0  0  0  0
    0.3603   22.1748  -19.6046 C   0  0  0  0  0  0  0  0  0  0  0  0
   -0.6681   22.4503  -20.5132 C   0  0  0  0  0  0  0  0  0  0  0  0
   -1.1357   21.5152  -21.3890 C   0  0  0  0  0  0  0  0  0  0  0  0
   -0.5573   20.2531  -21.3617 C   0  0  0  0  0  0  0  0  0  0  0  0
    0.3411   17.5137  -20.7757 C   0  0  0  0  0  0  0  0  0  0  0  0
    1.0421   18.6942  -20.4458 O   0  0  0  0  0  0  0  0  0  0  0  0
    0.7554   23.1989  -18.7591 O   0  0  0  0  0  0  0  0  0  0  0  0
    2.0527   23.5944  -18.4732 C   0  0  0  0  0  0  0  0  0  0  0  0
   -3.5277   21.6397  -21.9158 C   0  0  0  0  0  0  0  0  0  0  0  0
   -4.3275   22.8877  -22.0730 C   0  0  0  0  0  0  0  0  0  0  0  0
   -4.4012   23.9305  -21.2280 N   0  0  0  0  0  0  0  0  0  0  0  0
   -5.2270   24.8779  -21.6857 C   0  0  0  0  0  0  0  0  0  0  0  0
   -5.6964   24.3977  -22.8893 C   0  0  0  0  0  0  0  0  0  0  0  0
   -5.1423   23.1968  -23.1041 N   0  0  0  0  0  0  0  0  0  0  0  0
   -5.3155   22.5860  -23.9458 H   0  0  0  0  0  0  0  0  0  0  0  0
 24 25  1  0  0  0
 25 18  1  0  0  0
 18 19  2  0  0  0
 19 20  1  0  0  0
 20 26  1  0  0  0
 26 27  1  0  0  0
 20 21  2  0  0  0
 21 22  1  0  0  0
 22 23  2  0  0  0
 22  1  1  0  0  0
  1 28  1  0  0  0
 28 29  1  0  0  0
 29 30  2  0  0  0
 30 31  1  0  0  0
 31 32  2  0  0  0
 32 33  1  0  0  0
  1  2  1  0  0  0
  2  3  2  0  0  0
  3  4  1  0  0  0
  4  5  2  0  0  0
  5  6  1  0  0  0
  6  7  2  0  0  0
  7  8  1  0  0  0
  8  9  2  0  0  0
  9 10  1  0  0  0
 10 11  2  0  0  0
  8 12  1  0  0  0
 12 13  2  0  0  0
 13 14  1  0  0  0
 14 15  2  0  0  0
 15 16  1  0  0  0
 16 17  2  0  0  0
 23 18  1  0  0  0
 33 29  1  0  0  0
 11  2  1  0  0  0
 17 12  1  0  0  0
 10  5  1  0  0  0
 33 34  1  0  0  0
M  END
> <minimizedAffinity>
-8.62585

> <CNNscore>
0.5639059544

> <CNNaffinity>
7.5028867722

> <CNN_VS>
4.2309226990

> <CNNaffinity_variance>
0.2086741179

$$$$
[H]c1nc([H])c([H])c(-c2c([H])nc3c([H])c([H])c(N(c4c([H])c(OC([H])([H])[H])c([H])c(OC([H])([H])[H])c4[H])C([H])([H])c4nc([H])c([H])n4[H])nc3c2[H])c1[H]


 34 38  0  0  0  0  0  0  0  0999 V2000
   -2.1921   22.5838  -22.8926 N   0  0  0  0  0  0  0  0  0  0  0  0
   -2.9127   23.5932  -23.5833 C   0  0  0  0  0  0  0  0  0  0  0  0
   -3.3897   24.7247  -22.9368 C   0  0  0  0  0  0  0  0  0  0  0  0
   -4.1087   25.7050  -23.5656 C   0  0  0  0  0  0  0  0  0  0  0  0
   -4.3704   25.5553  -24.9099 C   0  0  0  0  0  0  0  0  0  0  0  0
   -5.0766   26.4585  -25.6109 N   0  0  0  0  0  0  0  0  0  0  0  0
   -5.3104   26.2596  -26.9133 C   0  0  0  0  0  0  0  0  0  0  0  0
   -4.8595   25.1498  -27.6123 C   0  0  0  0  0  0  0  0  0  0  0  0
   -4.1338   24.2158  -26.9086 C   0  0  0  0  0  0  0  0  0  0  0  0
   -3.8909   24.4253  -25.5476 C   0  0  0  0  0  0  0  0  0  0  0  0
   -3.1860   23.4835  -24.8923 N   0  0  0  0  0  0  0  0  0  0  0  0
   -5.1663   25.0119  -29.0208 C   0  0  0  0  0  0  0  0  0  0  0  0
   -5.5734   23.8138  -29.5557 C   0  0  0  0  0  0  0  0  0  0  0  0
   -5.8662   23.7071  -30.9255 C   0  0  0  0  0  0  0  0  0  0  0  0
   -5.7476   24.7820  -31.7171 N   0  0  0  0  0  0  0  0  0  0  0  0
   -5.3510   25.9627  -31.2131 C   0  0  0  0  0  0  0  0  0  0  0  0
   -5.0528   26.0951  -29.8499 C   0  0  0  0  0  0  0  0  0  0  0  0
    0.3618   22.0505  -25.5029 C   0  0  0  0  0  0  0  0  0  0  0  0
    1.4132   21.4977  -24.7833 C   0  0  0  0  0  0  0  0  0  0  0  0
    1.2972   21.2941  -23.4203 C   0  0  0  0  0  0  0  0  0  0  0  0
    0.1028   21.6559  -22.7866 C   0  0  0  0  0  0  0  0  0  0  0  0
   -0.9465   22.2000  -23.4669 C   0  0  0  0  0  0  0  0  0  0  0  0
   -0.8037   22.3934  -24.8345 C   0  0  0  0  0  0  0  0  0  0  0  0
   -0.5251   22.7219  -27.6794 C   0  0  0  0  0  0  0  0  0  0  0  0
    0.5123   22.2387  -26.8523 O   0  0  0  0  0  0  0  0  0  0  0  0
    2.2971   20.7476  -22.6321 O   0  0  0  0  0  0  0  0  0  0  0  0
    2.2422   20.4879  -21.2717 C   0  0  0  0  0  0  0  0  0  0  0  0
   -2.6479   21.9460  -21.7189 C   0  0  0  0  0  0  0  0  0  0  0  0
   -1.9195   22.3004  -20.4676 C   0  0  0  0  0  0  0  0  0  0  0  0
   -1.3547   23.4778  -20.1488 N   0  0  0  0  0  0  0  0  0  0  0  0
   -0.7755   23.4361  -18.9438 C   0  0  0  0  0  0  0  0  0  0  0  0
   -0.9926   22.1556  -18.4826 C   0  0  0  0  0  0  0  0  0  0  0  0
   -1.6836   21.4873  -19.4160 N   0  0  0  0  0  0  0  0  0  0  0  0
   -1.9944   20.4825  -19.3433 H   0  0  0  0  0  0  0  0  0  0  0  0
 24 25  1  0  0  0
 25 18  1  0  0  0
 18 19  2  0  0  0
 19 20  1  0  0  0
 20 26  1  0  0  0
 26 27  1  0  0  0
 20 21  2  0  0  0
 21 22  1  0  0  0
 22 23  2  0  0  0
 22  1  1  0  0  0
  1 28  1  0  0  0
 28 29  1  0  0  0
 29 30  2  0  0  0
 30 31  1  0  0  0
 31 32  2  0  0  0
 32 33  1  0  0  0
  1  2  1  0  0  0
  2  3  2  0  0  0
  3  4  1  0  0  0
  4  5  2  0  0  0
  5  6  1  0  0  0
  6  7  2  0  0  0
  7  8  1  0  0  0
  8  9  2  0  0  0
  9 10  1  0  0  0
 10 11  2  0  0  0
  8 12  1  0  0  0
 12 13  2  0  0  0
 13 14  1  0  0  0
 14 15  2  0  0  0
 15 16  1  0  0  0
 16 17  2  0  0  0
 23 18  1  0  0  0
 33 29  1  0  0  0
 11  2  1  0  0  0
 17 12  1  0  0  0
 10  5  1  0  0  0
 33 34  1  0  0  0
M  END
> <minimizedAffinity>
-8.76737

> <CNNscore>
0.5250455141

> <CNNaffinity>
7.3380060196

> <CNN_VS>
3.8527872562

> <CNNaffinity_variance>
0.3674224317

$$$$
[H]c1nc([H])c([H])c(-c2c([H])nc3c([H])c([H])c(N(c4c([H])c(OC([H])([H])[H])c([H])c(OC([H])([H])[H])c4[H])C([H])([H])c4nc([H])c([H])n4[H])nc3c2[H])c1[H]


 34 38  0  0  0  0  0  0  0  0999 V2000
   -0.8655   21.0970  -21.9758 N   0  0  0  0  0  0  0  0  0  0  0  0
   -0.7326   21.4676  -23.3397 C   0  0  0  0  0  0  0  0  0  0  0  0
    0.4919   21.4337  -23.9917 C   0  0  0  0  0  0  0  0  0  0  0  0
    0.6608   21.8071  -25.2976 C   0  0  0  0  0  0  0  0  0  0  0  0
   -0.4453   22.2390  -25.9961 C   0  0  0  0  0  0  0  0  0  0  0  0
   -0.3775   22.6358  -27.2783 N   0  0  0  0  0  0  0  0  0  0  0  0
   -1.4812   23.0556  -27.9076 C   0  0  0  0  0  0  0  0  0  0  0  0
   -2.7309   23.1110  -27.3086 C   0  0  0  0  0  0  0  0  0  0  0  0
   -2.8172   22.7070  -25.9957 C   0  0  0  0  0  0  0  0  0  0  0  0
   -1.6626   22.2691  -25.3398 C   0  0  0  0  0  0  0  0  0  0  0  0
   -1.7867   21.8921  -24.0530 N   0  0  0  0  0  0  0  0  0  0  0  0
   -3.8713   23.5868  -28.0636 C   0  0  0  0  0  0  0  0  0  0  0  0
   -4.5080   24.7614  -27.7438 C   0  0  0  0  0  0  0  0  0  0  0  0
   -5.6116   25.2014  -28.4934 C   0  0  0  0  0  0  0  0  0  0  0  0
   -6.0472   24.4702  -29.5286 N   0  0  0  0  0  0  0  0  0  0  0  0
   -5.4380   23.3185  -29.8574 C   0  0  0  0  0  0  0  0  0  0  0  0
   -4.3351   22.8578  -29.1253 C   0  0  0  0  0  0  0  0  0  0  0  0
    1.5297   18.6715  -20.5613 C   0  0  0  0  0  0  0  0  0  0  0  0
    2.5492   19.4937  -20.0991 C   0  0  0  0  0  0  0  0  0  0  0  0
    2.4639   20.8657  -20.2498 C   0  0  0  0  0  0  0  0  0  0  0  0
    1.3331   21.4035  -20.8753 C   0  0  0  0  0  0  0  0  0  0  0  0
    0.3163   20.6216  -21.3386 C   0  0  0  0  0  0  0  0  0  0  0  0
    0.4271   19.2473  -21.1741 C   0  0  0  0  0  0  0  0  0  0  0  0
    0.5944   16.4156  -20.6645 C   0  0  0  0  0  0  0  0  0  0  0  0
    1.6484   17.3160  -20.3956 O   0  0  0  0  0  0  0  0  0  0  0  0
    3.4352   21.7534  -19.8157 O   0  0  0  0  0  0  0  0  0  0  0  0
    4.8089   21.5717  -19.8472 C   0  0  0  0  0  0  0  0  0  0  0  0
   -2.0769   21.1507  -21.2536 C   0  0  0  0  0  0  0  0  0  0  0  0
   -1.9570   21.5430  -19.8206 C   0  0  0  0  0  0  0  0  0  0  0  0
   -2.0554   20.7511  -18.7389 N   0  0  0  0  0  0  0  0  0  0  0  0
   -1.9039   21.4446  -17.6053 C   0  0  0  0  0  0  0  0  0  0  0  0
   -1.6977   22.7478  -18.0036 C   0  0  0  0  0  0  0  0  0  0  0  0
   -1.7337   22.7856  -19.3425 N   0  0  0  0  0  0  0  0  0  0  0  0
   -1.6089   23.6504  -19.9326 H   0  0  0  0  0  0  0  0  0  0  0  0
 24 25  1  0  0  0
 25 18  1  0  0  0
 18 19  2  0  0  0
 19 20  1  0  0  0
 20 26  1  0  0  0
 26 27  1  0  0  0
 20 21  2  0  0  0
 21 22  1  0  0  0
 22 23  2  0  0  0
 22  1  1  0  0  0
  1 28  1  0  0  0
 28 29  1  0  0  0
 29 30  2  0  0  0
 30 31  1  0  0  0
 31 32  2  0  0  0
 32 33  1  0  0  0
  1  2  1  0  0  0
  2  3  2  0  0  0
  3  4  1  0  0  0
  4  5  2  0  0  0
  5  6  1  0  0  0
  6  7  2  0  0  0
  7  8  1  0  0  0
  8  9  2  0  0  0
  9 10  1  0  0  0
 10 11  2  0  0  0
  8 12  1  0  0  0
 12 13  2  0  0  0
 13 14  1  0  0  0
 14 15  2  0  0  0
 15 16  1  0  0  0
 16 17  2  0  0  0
 23 18  1  0  0  0
 33 29  1  0  0  0
 11  2  1  0  0  0
 17 12  1  0  0  0
 10  5  1  0  0  0
 33 34  1  0  0  0
M  END
> <minimizedAffinity>
-7.50678

> <CNNscore>
0.4868654609

> <CNNaffinity>
7.1892929077

> <CNN_VS>
3.5002183914

> <CNNaffinity_variance>
0.2821031511

$$$$
[H]c1nc([H])c([H])c(-c2c([H])nc3c([H])c([H])c(N(c4c([H])c(OC([H])([H])[H])c([H])c(OC([H])([H])[H])c4[H])C([H])([H])c4nc([H])c([H])n4[H])nc3c2[H])c1[H]


 34 38  0  0  0  0  0  0  0  0999 V2000
   -0.4621   21.9458  -21.8067 N   0  0  0  0  0  0  0  0  0  0  0  0
   -0.4654   22.0399  -23.2232 C   0  0  0  0  0  0  0  0  0  0  0  0
    0.6490   21.7101  -23.9814 C   0  0  0  0  0  0  0  0  0  0  0  0
    0.6892   21.8121  -25.3457 C   0  0  0  0  0  0  0  0  0  0  0  0
   -0.4376   22.2672  -25.9948 C   0  0  0  0  0  0  0  0  0  0  0  0
   -0.4909   22.4110  -27.3298 N   0  0  0  0  0  0  0  0  0  0  0  0
   -1.6077   22.8664  -27.9093 C   0  0  0  0  0  0  0  0  0  0  0  0
   -2.7512   23.2112  -27.2042 C   0  0  0  0  0  0  0  0  0  0  0  0
   -2.7130   23.0687  -25.8359 C   0  0  0  0  0  0  0  0  0  0  0  0
   -1.5448   22.5930  -25.2323 C   0  0  0  0  0  0  0  0  0  0  0  0
   -1.5439   22.4775  -23.8906 N   0  0  0  0  0  0  0  0  0  0  0  0
   -3.9138   23.7037  -27.9134 C   0  0  0  0  0  0  0  0  0  0  0  0
   -4.4654   23.0096  -28.9628 C   0  0  0  0  0  0  0  0  0  0  0  0
   -5.5943   23.5089  -29.6333 C   0  0  0  0  0  0  0  0  0  0  0  0
   -6.1379   24.6713  -29.2467 N   0  0  0  0  0  0  0  0  0  0  0  0
   -5.6133   25.3652  -28.2226 C   0  0  0  0  0  0  0  0  0  0  0  0
   -4.4872   24.8885  -27.5376 C   0  0  0  0  0  0  0  0  0  0  0  0
    2.3082   20.1876  -20.1170 C   0  0  0  0  0  0  0  0  0  0  0  0
    1.8755   18.8679  -20.1290 C   0  0  0  0  0  0  0  0  0  0  0  0
    0.6575   18.5362  -20.6939 C   0  0  0  0  0  0  0  0  0  0  0  0
   -0.1245   19.5552  -21.2499 C   0  0  0  0  0  0  0  0  0  0  0  0
    0.2743   20.8594  -21.2534 C   0  0  0  0  0  0  0  0  0  0  0  0
    1.5015   21.1649  -20.6801 C   0  0  0  0  0  0  0  0  0  0  0  0
    4.4888   19.4938  -19.2580 C   0  0  0  0  0  0  0  0  0  0  0  0
    3.5204   20.4797  -19.5480 O   0  0  0  0  0  0  0  0  0  0  0  0
    0.1555   17.2460  -20.7474 O   0  0  0  0  0  0  0  0  0  0  0  0
   -0.6463   16.6204  -19.8056 C   0  0  0  0  0  0  0  0  0  0  0  0
   -1.1517   22.8318  -20.9513 C   0  0  0  0  0  0  0  0  0  0  0  0
   -2.5408   22.4296  -20.5900 C   0  0  0  0  0  0  0  0  0  0  0  0
   -3.2876   22.8768  -19.5657 N   0  0  0  0  0  0  0  0  0  0  0  0
   -4.4884   22.2883  -19.5379 C   0  0  0  0  0  0  0  0  0  0  0  0
   -4.4914   21.4222  -20.6099 C   0  0  0  0  0  0  0  0  0  0  0  0
   -3.3083   21.5224  -21.2308 N   0  0  0  0  0  0  0  0  0  0  0  0
   -3.0191   20.9774  -22.0857 H   0  0  0  0  0  0  0  0  0  0  0  0
 24 25  1  0  0  0
 25 18  1  0  0  0
 18 19  2  0  0  0
 19 20  1  0  0  0
 20 26  1  0  0  0
 26 27  1  0  0  0
 20 21  2  0  0  0
 21 22  1  0  0  0
 22 23  2  0  0  0
 22  1  1  0  0  0
  1 28  1  0  0  0
 28 29  1  0  0  0
 29 30  2  0  0  0
 30 31  1  0  0  0
 31 32  2  0  0  0
 32 33  1  0  0  0
  1  2  1  0  0  0
  2  3  2  0  0  0
  3  4  1  0  0  0
  4  5  2  0  0  0
  5  6  1  0  0  0
  6  7  2  0  0  0
  7  8  1  0  0  0
  8  9  2  0  0  0
  9 10  1  0  0  0
 10 11  2  0  0  0
  8 12  1  0  0  0
 12 13  2  0  0  0
 13 14  1  0  0  0
 14 15  2  0  0  0
 15 16  1  0  0  0
 16 17  2  0  0  0
 23 18  1  0  0  0
 33 29  1  0  0  0
 11  2  1  0  0  0
 17 12  1  0  0  0
 10  5  1  0  0  0
 33 34  1  0  0  0
M  END
> <minimizedAffinity>
-8.24403

> <CNNscore>
0.4166243076

> <CNNaffinity>
7.1624021530

> <CNN_VS>
2.9840307236

> <CNNaffinity_variance>
0.2460638285

$$$$
[H]c1nc([H])c([H])c(-c2c([H])nc3c([H])c([H])c(N(c4c([H])c(OC([H])([H])[H])c([H])c(OC([H])([H])[H])c4[H])C([H])([H])c4nc([H])c([H])n4[H])nc3c2[H])c1[H]


 34 38  0  0  0  0  0  0  0  0999 V2000
   -0.1014   20.5349  -21.4940 N   0  0  0  0  0  0  0  0  0  0  0  0
   -0.0968   21.0480  -22.8176 C   0  0  0  0  0  0  0  0  0  0  0  0
    1.0841   21.2889  -23.5054 C   0  0  0  0  0  0  0  0  0  0  0  0
    1.1264   21.8055  -24.7721 C   0  0  0  0  0  0  0  0  0  0  0  0
   -0.0683   22.1010  -25.3914 C   0  0  0  0  0  0  0  0  0  0  0  0
   -0.1285   22.6208  -26.6292 N   0  0  0  0  0  0  0  0  0  0  0  0
   -1.3155   22.8983  -27.1809 C   0  0  0  0  0  0  0  0  0  0  0  0
   -2.5273   22.6791  -26.5429 C   0  0  0  0  0  0  0  0  0  0  0  0
   -2.4828   22.1462  -25.2748 C   0  0  0  0  0  0  0  0  0  0  0  0
   -1.2413   21.8573  -24.6998 C   0  0  0  0  0  0  0  0  0  0  0  0
   -1.2397   21.3466  -23.4538 N   0  0  0  0  0  0  0  0  0  0  0  0
   -3.7658   23.0168  -27.2131 C   0  0  0  0  0  0  0  0  0  0  0  0
   -4.8906   23.3759  -26.5107 C   0  0  0  0  0  0  0  0  0  0  0  0
   -6.0794   23.7001  -27.1852 C   0  0  0  0  0  0  0  0  0  0  0  0
   -6.1172   23.6592  -28.5242 N   0  0  0  0  0  0  0  0  0  0  0  0
   -5.0278   23.3106  -29.2294 C   0  0  0  0  0  0  0  0  0  0  0  0
   -3.8298   22.9824  -28.5800 C   0  0  0  0  0  0  0  0  0  0  0  0
   -1.7373   22.6873  -18.9817 C   0  0  0  0  0  0  0  0  0  0  0  0
   -0.6609   23.3621  -18.4204 C   0  0  0  0  0  0  0  0  0  0  0  0
    0.6264   23.1149  -18.8612 C   0  0  0  0  0  0  0  0  0  0  0  0
    0.8184   22.1744  -19.8799 C   0  0  0  0  0  0  0  0  0  0  0  0
   -0.2189   21.4970  -20.4503 C   0  0  0  0  0  0  0  0  0  0  0  0
   -1.5011   21.7645  -19.9894 C   0  0  0  0  0  0  0  0  0  0  0  0
   -3.4375   22.5904  -17.2283 C   0  0  0  0  0  0  0  0  0  0  0  0
   -2.9992   22.9572  -18.5195 O   0  0  0  0  0  0  0  0  0  0  0  0
    1.7516   23.7457  -18.3555 O   0  0  0  0  0  0  0  0  0  0  0  0
    2.7327   23.1882  -17.5507 C   0  0  0  0  0  0  0  0  0  0  0  0
    0.0270   19.1664  -21.1733 C   0  0  0  0  0  0  0  0  0  0  0  0
    1.3652   18.7443  -20.6705 C   0  0  0  0  0  0  0  0  0  0  0  0
    1.6368   17.9032  -19.6578 N   0  0  0  0  0  0  0  0  0  0  0  0
    2.9541   17.7602  -19.4760 C   0  0  0  0  0  0  0  0  0  0  0  0
    3.5401   18.5597  -20.4335 C   0  0  0  0  0  0  0  0  0  0  0  0
    2.5651   19.1442  -21.1428 N   0  0  0  0  0  0  0  0  0  0  0  0
    2.7102   19.8137  -21.9442 H   0  0  0  0  0  0  0  0  0  0  0  0
 24 25  1  0  0  0
 25 18  1  0  0  0
 18 19  2  0  0  0
 19 20  1  0  0  0
 20 26  1  0  0  0
 26 27  1  0  0  0
 20 21  2  0  0  0
 21 22  1  0  0  0
 22 23  2  0  0  0
 22  1  1  0  0  0
  1 28  1  0  0  0
 28 29  1  0  0  0
 29 30  2  0  0  0
 30 31  1  0  0  0
 31 32  2  0  0  0
 32 33  1  0  0  0
  1  2  1  0  0  0
  2  3  2  0  0  0
  3  4  1  0  0  0
  4  5  2  0  0  0
  5  6  1  0  0  0
  6  7  2  0  0  0
  7  8  1  0  0  0
  8  9  2  0  0  0
  9 10  1  0  0  0
 10 11  2  0  0  0
  8 12  1  0  0  0
 12 13  2  0  0  0
 13 14  1  0  0  0
 14 15  2  0  0  0
 15 16  1  0  0  0
 16 17  2  0  0  0
 23 18  1  0  0  0
 33 29  1  0  0  0
 11  2  1  0  0  0
 17 12  1  0  0  0
 10  5  1  0  0  0
 33 34  1  0  0  0
M  END
> <minimizedAffinity>
-7.48933

> <CNNscore>
0.4056770205

> <CNNaffinity>
6.9339203835

> <CNN_VS>
2.8129322529

> <CNNaffinity_variance>
0.1599987894

$$$$
[H]c1nc([H])c([H])c(-c2c([H])nc3c([H])c([H])c(N(c4c([H])c(OC([H])([H])[H])c([H])c(OC([H])([H])[H])c4[H])C([H])([H])c4nc([H])c([H])n4[H])nc3c2[H])c1[H]


 34 38  0  0  0  0  0  0  0  0999 V2000
   -0.1981   20.3924  -21.4118 N   0  0  0  0  0  0  0  0  0  0  0  0
   -0.1673   20.9553  -22.7146 C   0  0  0  0  0  0  0  0  0  0  0  0
    1.0270   21.2520  -23.3560 C   0  0  0  0  0  0  0  0  0  0  0  0
    1.0936   21.8173  -24.6007 C   0  0  0  0  0  0  0  0  0  0  0  0
   -0.0894   22.1056  -25.2454 C   0  0  0  0  0  0  0  0  0  0  0  0
   -0.1260   22.6703  -26.4643 N   0  0  0  0  0  0  0  0  0  0  0  0
   -1.3029   22.9383  -27.0419 C   0  0  0  0  0  0  0  0  0  0  0  0
   -2.5271   22.6643  -26.4505 C   0  0  0  0  0  0  0  0  0  0  0  0
   -2.5066   22.0850  -25.2022 C   0  0  0  0  0  0  0  0  0  0  0  0
   -1.2757   21.8061  -24.6001 C   0  0  0  0  0  0  0  0  0  0  0  0
   -1.2981   21.2487  -23.3745 N   0  0  0  0  0  0  0  0  0  0  0  0
   -3.7534   22.9957  -27.1457 C   0  0  0  0  0  0  0  0  0  0  0  0
   -4.8932   23.3520  -26.4666 C   0  0  0  0  0  0  0  0  0  0  0  0
   -6.0697   23.6701  -27.1652 C   0  0  0  0  0  0  0  0  0  0  0  0
   -6.0808   23.6259  -28.5046 N   0  0  0  0  0  0  0  0  0  0  0  0
   -4.9764   23.2799  -29.1872 C   0  0  0  0  0  0  0  0  0  0  0  0
   -3.7902   22.9579  -28.5136 C   0  0  0  0  0  0  0  0  0  0  0  0
    0.1022   23.0118  -18.8293 C   0  0  0  0  0  0  0  0  0  0  0  0
   -1.1774   23.0476  -18.2903 C   0  0  0  0  0  0  0  0  0  0  0  0
   -2.1637   22.2074  -18.7737 C   0  0  0  0  0  0  0  0  0  0  0  0
   -1.8447   21.3254  -19.8127 C   0  0  0  0  0  0  0  0  0  0  0  0
   -0.5974   21.2674  -20.3613 C   0  0  0  0  0  0  0  0  0  0  0  0
    0.3743   22.1216  -19.8570 C   0  0  0  0  0  0  0  0  0  0  0  0
    2.4366   23.5746  -18.3733 C   0  0  0  0  0  0  0  0  0  0  0  0
    1.0545   23.8595  -18.3259 O   0  0  0  0  0  0  0  0  0  0  0  0
   -3.4619   22.1802  -18.2903 O   0  0  0  0  0  0  0  0  0  0  0  0
   -4.5957   22.6837  -18.9083 C   0  0  0  0  0  0  0  0  0  0  0  0
    0.1611   19.0602  -21.1146 C   0  0  0  0  0  0  0  0  0  0  0  0
    1.5671   18.8564  -20.6634 C   0  0  0  0  0  0  0  0  0  0  0  0
    2.0350   18.8504  -19.4033 N   0  0  0  0  0  0  0  0  0  0  0  0
    3.3565   18.6469  -19.3695 C   0  0  0  0  0  0  0  0  0  0  0  0
    3.7361   18.5173  -20.6881 C   0  0  0  0  0  0  0  0  0  0  0  0
    2.6429   18.6469  -21.4518 N   0  0  0  0  0  0  0  0  0  0  0  0
    2.6237   18.5954  -22.5047 H   0  0  0  0  0  0  0  0  0  0  0  0
 24 25  1  0  0  0
 25 18  1  0  0  0
 18 19  2  0  0  0
 19 20  1  0  0  0
 20 26  1  0  0  0
 26 27  1  0  0  0
 20 21  2  0  0  0
 21 22  1  0  0  0
 22 23  2  0  0  0
 22  1  1  0  0  0
  1 28  1  0  0  0
 28 29  1  0  0  0
 29 30  2  0  0  0
 30 31  1  0  0  0
 31 32  2  0  0  0
 32 33  1  0  0  0
  1  2  1  0  0  0
  2  3  2  0  0  0
  3  4  1  0  0  0
  4  5  2  0  0  0
  5  6  1  0  0  0
  6  7  2  0  0  0
  7  8  1  0  0  0
  8  9  2  0  0  0
  9 10  1  0  0  0
 10 11  2  0  0  0
  8 12  1  0  0  0
 12 13  2  0  0  0
 13 14  1  0  0  0
 14 15  2  0  0  0
 15 16  1  0  0  0
 16 17  2  0  0  0
 23 18  1  0  0  0
 33 29  1  0  0  0
 11  2  1  0  0  0
 17 12  1  0  0  0
 10  5  1  0  0  0
 33 34  1  0  0  0
M  END
> <minimizedAffinity>
-7.43443

> <CNNscore>
0.4032178819

> <CNNaffinity>
6.9459915161

> <CNN_VS>
2.8007478714

> <CNNaffinity_variance>
0.2064259946

$$$$
[H]c1nn(-c2c([H])c([H])c3c(nc(C([H])([H])[H])n3[H])c2[H])c(N([H])[H])c1C(=O)c1c([H])c2c([H])c([H])c(C([H])([H])N3C([H])([H])C([H])([H])OC([H])([H])C3([H])[H])c([H])c2n1[H]


 38 43  0  0  0  0  0  0  0  0999 V2000
   -0.2279   22.1220  -25.2186 N   0  0  0  0  0  0  0  0  0  0  0  0
    0.3456   22.5526  -26.3224 N   0  0  0  0  0  0  0  0  0  0  0  0
   -0.5982   22.9642  -27.1807 C   0  0  0  0  0  0  0  0  0  0  0  0
   -1.8327   22.7925  -26.6058 C   0  0  0  0  0  0  0  0  0  0  0  0
   -1.5360   22.2477  -25.3453 C   0  0  0  0  0  0  0  0  0  0  0  0
   -2.4987   21.8957  -24.3770 N   0  0  0  0  0  0  0  0  0  0  0  0
   -2.6048   22.4604  -23.5109 H   0  0  0  0  0  0  0  0  0  0  0  0
   -3.1013   21.0646  -24.5389 H   0  0  0  0  0  0  0  0  0  0  0  0
    5.1535   19.3271  -20.9823 C   0  0  0  0  0  0  0  0  0  0  0  0
    3.9568   19.8844  -21.6503 C   0  0  0  0  0  0  0  0  0  0  0  0
    3.7670   20.2339  -22.9371 N   0  0  0  0  0  0  0  0  0  0  0  0
    2.5262   20.7003  -23.1165 C   0  0  0  0  0  0  0  0  0  0  0  0
    1.8210   21.1868  -24.2133 C   0  0  0  0  0  0  0  0  0  0  0  0
    0.5154   21.6102  -24.0913 C   0  0  0  0  0  0  0  0  0  0  0  0
   -0.0700   21.5368  -22.8501 C   0  0  0  0  0  0  0  0  0  0  0  0
    0.6031   21.0580  -21.7381 C   0  0  0  0  0  0  0  0  0  0  0  0
    1.9246   20.6336  -21.8790 C   0  0  0  0  0  0  0  0  0  0  0  0
    2.8107   20.1374  -21.0137 N   0  0  0  0  0  0  0  0  0  0  0  0
    2.6233   19.9761  -19.9932 H   0  0  0  0  0  0  0  0  0  0  0  0
   -3.1702   23.0591  -27.1079 C   0  0  0  0  0  0  0  0  0  0  0  0
   -3.4769   22.7230  -28.2779 O   0  0  0  0  0  0  0  0  0  0  0  0
   -4.1821   23.7082  -26.3004 C   0  0  0  0  0  0  0  0  0  0  0  0
   -4.2658   25.0640  -26.0959 C   0  0  0  0  0  0  0  0  0  0  0  0
   -5.3741   25.2805  -25.2718 C   0  0  0  0  0  0  0  0  0  0  0  0
   -5.9471   26.4107  -24.7337 C   0  0  0  0  0  0  0  0  0  0  0  0
   -7.0735   26.3522  -23.9215 C   0  0  0  0  0  0  0  0  0  0  0  0
   -7.6553   25.1323  -23.6297 C   0  0  0  0  0  0  0  0  0  0  0  0
   -7.0678   24.0120  -24.1774 C   0  0  0  0  0  0  0  0  0  0  0  0
   -5.9371   24.0626  -24.9939 C   0  0  0  0  0  0  0  0  0  0  0  0
   -5.2018   23.1378  -25.6237 N   0  0  0  0  0  0  0  0  0  0  0  0
   -5.3669   22.1036  -25.6140 H   0  0  0  0  0  0  0  0  0  0  0  0
   -8.8584   25.0329  -22.7580 C   0  0  0  0  0  0  0  0  0  0  0  0
   -9.3755   26.3370  -22.3917 N   0  0  0  0  0  0  0  0  0  0  0  0
  -10.8335   26.3589  -22.4743 C   0  0  0  0  0  0  0  0  0  0  0  0
  -11.2141   27.8461  -22.4573 C   0  0  0  0  0  0  0  0  0  0  0  0
  -10.6176   28.4744  -21.3828 O   0  0  0  0  0  0  0  0  0  0  0  0
  -10.1218   27.6026  -20.4282 C   0  0  0  0  0  0  0  0  0  0  0  0
   -9.0759   26.6525  -20.9986 C   0  0  0  0  0  0  0  0  0  0  0  0
  9 10  1  0  0  0
 10 11  2  0  0  0
 11 12  1  0  0  0
 12 13  2  0  0  0
 13 14  1  0  0  0
 14 15  2  0  0  0
 15 16  1  0  0  0
 16 17  2  0  0  0
 17 18  1  0  0  0
 14  1  1  0  0  0
  1  2  1  0  0  0
  2  3  2  0  0  0
  3  4  1  0  0  0
  4 20  1  0  0  0
 20 21  2  0  0  0
 20 22  1  0  0  0
 22 23  2  0  0  0
 23 24  1  0  0  0
 24 25  2  0  0  0
 25 26  1  0  0  0
 26 27  2  0  0  0
 27 32  1  0  0  0
 32 33  1  0  0  0
 33 34  1  0  0  0
 34 35  1  0  0  0
 35 36  1  0  0  0
 36 37  1  0  0  0
 37 38  1  0  0  0
 27 28  1  0  0  0
 28 29  2  0  0  0
 29 30  1  0  0  0
  4  5  2  0  0  0
  5  6  1  0  0  0
 18 10  1  0  0  0
  5  1  1  0  0  0
 17 12  1  0  0  0
 30 22  1  0  0  0
 29 24  1  0  0  0
 38 33  1  0  0  0
 18 19  1  0  0  0
 30 31  1  0  0  0
  6  7  1  0  0  0
  6  8  1  0  0  0
M  END
> <minimizedAffinity>
-9.15684

> <CNNscore>
0.4672240019

> <CNNaffinity>
6.9537315369

> <CNN_VS>
3.2489502430

> <CNNaffinity_variance>
0.2073017061

$$$$
[H]c1nn(-c2c([H])c([H])c3c(nc(C([H])([H])[H])n3[H])c2[H])c(N([H])[H])c1C(=O)c1c([H])c2c([H])c([H])c(C([H])([H])N3C([H])([H])C([H])([H])OC([H])([H])C3([H])[H])c([H])c2n1[H]


 38 43  0  0  0  0  0  0  0  0999 V2000
    0.0019   22.0176  -25.1984 N   0  0  0  0  0  0  0  0  0  0  0  0
    0.6276   22.3169  -26.3173 N   0  0  0  0  0  0  0  0  0  0  0  0
   -0.2702   22.6832  -27.2428 C   0  0  0  0  0  0  0  0  0  0  0  0
   -1.5282   22.6181  -26.6976 C   0  0  0  0  0  0  0  0  0  0  0  0
   -1.2948   22.1844  -25.3819 C   0  0  0  0  0  0  0  0  0  0  0  0
   -2.3015   21.9663  -24.4190 N   0  0  0  0  0  0  0  0  0  0  0  0
   -2.4091   22.6150  -23.6140 H   0  0  0  0  0  0  0  0  0  0  0  0
   -2.9351   21.1490  -24.5229 H   0  0  0  0  0  0  0  0  0  0  0  0
    1.4857   20.0415  -18.2263 C   0  0  0  0  0  0  0  0  0  0  0  0
    1.3985   20.4010  -19.6588 C   0  0  0  0  0  0  0  0  0  0  0  0
    0.3425   20.8147  -20.3853 N   0  0  0  0  0  0  0  0  0  0  0  0
    0.7045   21.0308  -21.6547 C   0  0  0  0  0  0  0  0  0  0  0  0
    0.0319   21.4530  -22.7977 C   0  0  0  0  0  0  0  0  0  0  0  0
    0.6867   21.5855  -24.0028 C   0  0  0  0  0  0  0  0  0  0  0  0
    2.0277   21.2873  -24.0410 C   0  0  0  0  0  0  0  0  0  0  0  0
    2.7272   20.8647  -22.9225 C   0  0  0  0  0  0  0  0  0  0  0  0
    2.0490   20.7356  -21.7103 C   0  0  0  0  0  0  0  0  0  0  0  0
    2.4410   20.3587  -20.4919 N   0  0  0  0  0  0  0  0  0  0  0  0
    3.4203   20.0750  -20.2407 H   0  0  0  0  0  0  0  0  0  0  0  0
   -2.8365   22.8904  -27.2689 C   0  0  0  0  0  0  0  0  0  0  0  0
   -3.1043   22.4996  -28.4315 O   0  0  0  0  0  0  0  0  0  0  0  0
   -3.8626   23.6068  -26.5399 C   0  0  0  0  0  0  0  0  0  0  0  0
   -3.8907   24.9694  -26.3689 C   0  0  0  0  0  0  0  0  0  0  0  0
   -5.0355   25.2589  -25.6206 C   0  0  0  0  0  0  0  0  0  0  0  0
   -5.5835   26.4280  -25.1427 C   0  0  0  0  0  0  0  0  0  0  0  0
   -6.7593   26.4435  -24.4017 C   0  0  0  0  0  0  0  0  0  0  0  0
   -7.4183   25.2605  -24.1222 C   0  0  0  0  0  0  0  0  0  0  0  0
   -6.8548   24.1004  -24.6089 C   0  0  0  0  0  0  0  0  0  0  0  0
   -5.6748   24.0768  -25.3536 C   0  0  0  0  0  0  0  0  0  0  0  0
   -4.9493   23.1027  -25.9170 N   0  0  0  0  0  0  0  0  0  0  0  0
   -5.1662   22.0783  -25.8966 H   0  0  0  0  0  0  0  0  0  0  0  0
   -8.6763   25.2403  -23.3259 C   0  0  0  0  0  0  0  0  0  0  0  0
   -8.4525   24.7954  -21.9641 N   0  0  0  0  0  0  0  0  0  0  0  0
   -8.0457   25.9111  -21.1140 C   0  0  0  0  0  0  0  0  0  0  0  0
   -7.4709   25.2616  -19.8473 C   0  0  0  0  0  0  0  0  0  0  0  0
   -8.3715   24.3511  -19.3326 O   0  0  0  0  0  0  0  0  0  0  0  0
   -9.6505   24.4749  -19.8484 C   0  0  0  0  0  0  0  0  0  0  0  0
   -9.6847   24.2970  -21.3614 C   0  0  0  0  0  0  0  0  0  0  0  0
  9 10  1  0  0  0
 10 11  2  0  0  0
 11 12  1  0  0  0
 12 13  2  0  0  0
 13 14  1  0  0  0
 14 15  2  0  0  0
 15 16  1  0  0  0
 16 17  2  0  0  0
 17 18  1  0  0  0
 14  1  1  0  0  0
  1  2  1  0  0  0
  2  3  2  0  0  0
  3  4  1  0  0  0
  4 20  1  0  0  0
 20 21  2  0  0  0
 20 22  1  0  0  0
 22 23  2  0  0  0
 23 24  1  0  0  0
 24 25  2  0  0  0
 25 26  1  0  0  0
 26 27  2  0  0  0
 27 32  1  0  0  0
 32 33  1  0  0  0
 33 34  1  0  0  0
 34 35  1  0  0  0
 35 36  1  0  0  0
 36 37  1  0  0  0
 37 38  1  0  0  0
 27 28  1  0  0  0
 28 29  2  0  0  0
 29 30  1  0  0  0
  4  5  2  0  0  0
  5  6  1  0  0  0
 18 10  1  0  0  0
  5  1  1  0  0  0
 17 12  1  0  0  0
 30 22  1  0  0  0
 29 24  1  0  0  0
 38 33  1  0  0  0
 18 19  1  0  0  0
 30 31  1  0  0  0
  6  7  1  0  0  0
  6  8  1  0  0  0
M  END
> <minimizedAffinity>
-8.98326

> <CNNscore>
0.4083661437

> <CNNaffinity>
6.9670114517

> <CNN_VS>
2.8450915813

> <CNNaffinity_variance>
0.1567910165

$$$$
[H]c1nn(-c2c([H])c([H])c3c(nc(C([H])([H])[H])n3[H])c2[H])c(N([H])[H])c1C(=O)c1c([H])c2c([H])c([H])c(C([H])([H])N3C([H])([H])C([H])([H])OC([H])([H])C3([H])[H])c([H])c2n1[H]


 38 43  0  0  0  0  0  0  0  0999 V2000
   -0.3355   21.9138  -24.5897 N   0  0  0  0  0  0  0  0  0  0  0  0
    0.0094   22.3598  -25.7793 N   0  0  0  0  0  0  0  0  0  0  0  0
   -1.0948   22.6656  -26.4751 C   0  0  0  0  0  0  0  0  0  0  0  0
   -2.1985   22.4065  -25.7013 C   0  0  0  0  0  0  0  0  0  0  0  0
   -1.6526   21.9249  -24.4998 C   0  0  0  0  0  0  0  0  0  0  0  0
   -2.4089   21.5205  -23.3806 N   0  0  0  0  0  0  0  0  0  0  0  0
   -2.4210   22.0986  -22.5169 H   0  0  0  0  0  0  0  0  0  0  0  0
   -2.9543   20.6371  -23.4287 H   0  0  0  0  0  0  0  0  0  0  0  0
    2.7828   19.8372  -18.2116 C   0  0  0  0  0  0  0  0  0  0  0  0
    2.3572   20.2347  -19.5716 C   0  0  0  0  0  0  0  0  0  0  0  0
    1.1407   20.5868  -20.0302 N   0  0  0  0  0  0  0  0  0  0  0  0
    1.1980   20.8718  -21.3359 C   0  0  0  0  0  0  0  0  0  0  0  0
    0.2622   21.2761  -22.2834 C   0  0  0  0  0  0  0  0  0  0  0  0
    0.6245   21.4989  -23.5941 C   0  0  0  0  0  0  0  0  0  0  0  0
    1.9417   21.3091  -23.9372 C   0  0  0  0  0  0  0  0  0  0  0  0
    2.8983   20.9073  -23.0194 C   0  0  0  0  0  0  0  0  0  0  0  0
    2.5146   20.6859  -21.6965 C   0  0  0  0  0  0  0  0  0  0  0  0
    3.1909   20.3020  -20.6124 N   0  0  0  0  0  0  0  0  0  0  0  0
    4.2189   20.0887  -20.5940 H   0  0  0  0  0  0  0  0  0  0  0  0
   -3.6184   22.5448  -25.9787 C   0  0  0  0  0  0  0  0  0  0  0  0
   -4.0268   22.5367  -27.1658 O   0  0  0  0  0  0  0  0  0  0  0  0
   -4.5994   22.6943  -24.9239 C   0  0  0  0  0  0  0  0  0  0  0  0
   -5.3498   21.6673  -24.4052 C   0  0  0  0  0  0  0  0  0  0  0  0
   -6.1628   22.2224  -23.4126 C   0  0  0  0  0  0  0  0  0  0  0  0
   -7.1105   21.6984  -22.5625 C   0  0  0  0  0  0  0  0  0  0  0  0
   -7.7973   22.4866  -21.6466 C   0  0  0  0  0  0  0  0  0  0  0  0
   -7.5388   23.8426  -21.5675 C   0  0  0  0  0  0  0  0  0  0  0  0
   -6.5868   24.3491  -22.4263 C   0  0  0  0  0  0  0  0  0  0  0  0
   -5.8930   23.5642  -23.3484 C   0  0  0  0  0  0  0  0  0  0  0  0
   -4.9517   23.8193  -24.2657 N   0  0  0  0  0  0  0  0  0  0  0  0
   -4.5243   24.7532  -24.4711 H   0  0  0  0  0  0  0  0  0  0  0  0
   -8.2607   24.7171  -20.6025 C   0  0  0  0  0  0  0  0  0  0  0  0
   -9.0041   25.7681  -21.2698 N   0  0  0  0  0  0  0  0  0  0  0  0
  -10.3988   25.3779  -21.4577 C   0  0  0  0  0  0  0  0  0  0  0  0
  -10.9557   26.3655  -22.4929 C   0  0  0  0  0  0  0  0  0  0  0  0
  -10.6943   27.6618  -22.0978 O   0  0  0  0  0  0  0  0  0  0  0  0
  -10.3172   27.7781  -20.7706 C   0  0  0  0  0  0  0  0  0  0  0  0
   -9.0613   26.9760  -20.4526 C   0  0  0  0  0  0  0  0  0  0  0  0
  9 10  1  0  0  0
 10 11  2  0  0  0
 11 12  1  0  0  0
 12 13  2  0  0  0
 13 14  1  0  0  0
 14 15  2  0  0  0
 15 16  1  0  0  0
 16 17  2  0  0  0
 17 18  1  0  0  0
 14  1  1  0  0  0
  1  2  1  0  0  0
  2  3  2  0  0  0
  3  4  1  0  0  0
  4 20  1  0  0  0
 20 21  2  0  0  0
 20 22  1  0  0  0
 22 23  2  0  0  0
 23 24  1  0  0  0
 24 25  2  0  0  0
 25 26  1  0  0  0
 26 27  2  0  0  0
 27 32  1  0  0  0
 32 33  1  0  0  0
 33 34  1  0  0  0
 34 35  1  0  0  0
 35 36  1  0  0  0
 36 37  1  0  0  0
 37 38  1  0  0  0
 27 28  1  0  0  0
 28 29  2  0  0  0
 29 30  1  0  0  0
  4  5  2  0  0  0
  5  6  1  0  0  0
 18 10  1  0  0  0
  5  1  1  0  0  0
 17 12  1  0  0  0
 30 22  1  0  0  0
 29 24  1  0  0  0
 38 33  1  0  0  0
 18 19  1  0  0  0
 30 31  1  0  0  0
  6  7  1  0  0  0
  6  8  1  0  0  0
M  END
> <minimizedAffinity>
-8.48204

> <CNNscore>
0.2183676213

> <CNNaffinity>
6.6269845963

> <CNN_VS>
1.4471188784

> <CNNaffinity_variance>
0.1903557330

$$$$
[H]c1nn(-c2c([H])c([H])c3c(nc(C([H])([H])[H])n3[H])c2[H])c(N([H])[H])c1C(=O)c1c([H])c2c([H])c([H])c(C([H])([H])N3C([H])([H])C([H])([H])OC([H])([H])C3([H])[H])c([H])c2n1[H]


 38 43  0  0  0  0  0  0  0  0999 V2000
   -3.5665   22.7590  -26.8782 N   0  0  0  0  0  0  0  0  0  0  0  0
   -2.3026   22.3921  -26.8497 N   0  0  0  0  0  0  0  0  0  0  0  0
   -2.0193   21.8716  -25.6473 C   0  0  0  0  0  0  0  0  0  0  0  0
   -3.1485   21.9034  -24.8676 C   0  0  0  0  0  0  0  0  0  0  0  0
   -4.1128   22.4839  -25.7082 C   0  0  0  0  0  0  0  0  0  0  0  0
   -5.4528   22.7276  -25.3430 N   0  0  0  0  0  0  0  0  0  0  0  0
   -6.2211   22.1582  -25.7502 H   0  0  0  0  0  0  0  0  0  0  0  0
   -5.6639   23.4836  -24.6619 H   0  0  0  0  0  0  0  0  0  0  0  0
   -6.2396   27.6732  -31.7179 C   0  0  0  0  0  0  0  0  0  0  0  0
   -5.7735   26.5398  -30.8889 C   0  0  0  0  0  0  0  0  0  0  0  0
   -5.1616   26.5384  -29.6890 N   0  0  0  0  0  0  0  0  0  0  0  0
   -4.9101   25.2854  -29.2942 C   0  0  0  0  0  0  0  0  0  0  0  0
   -4.3126   24.7231  -28.1701 C   0  0  0  0  0  0  0  0  0  0  0  0
   -4.1883   23.3573  -28.0360 C   0  0  0  0  0  0  0  0  0  0  0  0
   -4.6739   22.5660  -29.0492 C   0  0  0  0  0  0  0  0  0  0  0  0
   -5.2740   23.0928  -30.1811 C   0  0  0  0  0  0  0  0  0  0  0  0
   -5.3916   24.4778  -30.3011 C   0  0  0  0  0  0  0  0  0  0  0  0
   -5.9071   25.2613  -31.2500 N   0  0  0  0  0  0  0  0  0  0  0  0
   -6.3465   24.9139  -32.1382 H   0  0  0  0  0  0  0  0  0  0  0  0
   -3.3789   21.4833  -23.4955 C   0  0  0  0  0  0  0  0  0  0  0  0
   -4.4497   20.9031  -23.1912 O   0  0  0  0  0  0  0  0  0  0  0  0
   -2.4072   21.7102  -22.4458 C   0  0  0  0  0  0  0  0  0  0  0  0
   -2.5110   22.6859  -21.4845 C   0  0  0  0  0  0  0  0  0  0  0  0
   -1.3841   22.5675  -20.6657 C   0  0  0  0  0  0  0  0  0  0  0  0
   -0.9414   23.2565  -19.5591 C   0  0  0  0  0  0  0  0  0  0  0  0
    0.2469   22.9334  -18.9147 C   0  0  0  0  0  0  0  0  0  0  0  0
    1.0271   21.8913  -19.3806 C   0  0  0  0  0  0  0  0  0  0  0  0
    0.5678   21.2131  -20.4893 C   0  0  0  0  0  0  0  0  0  0  0  0
   -0.6241   21.5315  -21.1416 C   0  0  0  0  0  0  0  0  0  0  0  0
   -1.2618   21.0357  -22.2095 N   0  0  0  0  0  0  0  0  0  0  0  0
   -0.9435   20.2341  -22.8037 H   0  0  0  0  0  0  0  0  0  0  0  0
    2.3087   21.5225  -18.7182 C   0  0  0  0  0  0  0  0  0  0  0  0
    3.1297   22.6836  -18.4348 N   0  0  0  0  0  0  0  0  0  0  0  0
    3.2748   22.8773  -16.9945 C   0  0  0  0  0  0  0  0  0  0  0  0
    3.8034   24.3097  -16.8335 C   0  0  0  0  0  0  0  0  0  0  0  0
    4.9179   24.4941  -17.6265 O   0  0  0  0  0  0  0  0  0  0  0  0
    5.4746   23.3156  -18.0939 C   0  0  0  0  0  0  0  0  0  0  0  0
    4.4919   22.5006  -18.9258 C   0  0  0  0  0  0  0  0  0  0  0  0
  9 10  1  0  0  0
 10 11  2  0  0  0
 11 12  1  0  0  0
 12 13  2  0  0  0
 13 14  1  0  0  0
 14 15  2  0  0  0
 15 16  1  0  0  0
 16 17  2  0  0  0
 17 18  1  0  0  0
 14  1  1  0  0  0
  1  2  1  0  0  0
  2  3  2  0  0  0
  3  4  1  0  0  0
  4 20  1  0  0  0
 20 21  2  0  0  0
 20 22  1  0  0  0
 22 23  2  0  0  0
 23 24  1  0  0  0
 24 25  2  0  0  0
 25 26  1  0  0  0
 26 27  2  0  0  0
 27 32  1  0  0  0
 32 33  1  0  0  0
 33 34  1  0  0  0
 34 35  1  0  0  0
 35 36  1  0  0  0
 36 37  1  0  0  0
 37 38  1  0  0  0
 27 28  1  0  0  0
 28 29  2  0  0  0
 29 30  1  0  0  0
  4  5  2  0  0  0
  5  6  1  0  0  0
 18 10  1  0  0  0
  5  1  1  0  0  0
 17 12  1  0  0  0
 30 22  1  0  0  0
 29 24  1  0  0  0
 38 33  1  0  0  0
 18 19  1  0  0  0
 30 31  1  0  0  0
  6  7  1  0  0  0
  6  8  1  0  0  0
M  END
> <minimizedAffinity>
-9.30481

> <CNNscore>
0.2130290121

> <CNNaffinity>
6.3761587143

> <CNN_VS>
1.3583067656

> <CNNaffinity_variance>
0.1481654793

$$$$
[H]c1nn(-c2c([H])c([H])c3c(nc(C([H])([H])[H])n3[H])c2[H])c(N([H])[H])c1C(=O)c1c([H])c2c([H])c([H])c(C([H])([H])N3C([H])([H])C([H])([H])OC([H])([H])C3([H])[H])c([H])c2n1[H]


 38 43  0  0  0  0  0  0  0  0999 V2000
   -1.4122   22.5933  -22.1486 N   0  0  0  0  0  0  0  0  0  0  0  0
   -1.5902   23.6460  -21.3786 N   0  0  0  0  0  0  0  0  0  0  0  0
   -1.2637   23.3324  -20.1169 C   0  0  0  0  0  0  0  0  0  0  0  0
   -0.8571   22.0222  -20.0714 C   0  0  0  0  0  0  0  0  0  0  0  0
   -0.9726   21.5951  -21.4047 C   0  0  0  0  0  0  0  0  0  0  0  0
   -0.6624   20.2974  -21.8608 N   0  0  0  0  0  0  0  0  0  0  0  0
    0.1809   20.1328  -22.4456 H   0  0  0  0  0  0  0  0  0  0  0  0
   -1.2870   19.5068  -21.6059 H   0  0  0  0  0  0  0  0  0  0  0  0
   -4.7672   23.1917  -28.7139 C   0  0  0  0  0  0  0  0  0  0  0  0
   -3.9193   23.0203  -27.5136 C   0  0  0  0  0  0  0  0  0  0  0  0
   -4.2299   23.1445  -26.2089 N   0  0  0  0  0  0  0  0  0  0  0  0
   -3.1566   22.9029  -25.4481 C   0  0  0  0  0  0  0  0  0  0  0  0
   -2.9208   22.8944  -24.0764 C   0  0  0  0  0  0  0  0  0  0  0  0
   -1.6738   22.6013  -23.5687 C   0  0  0  0  0  0  0  0  0  0  0  0
   -0.6679   22.3171  -24.4609 C   0  0  0  0  0  0  0  0  0  0  0  0
   -0.8684   22.3168  -25.8316 C   0  0  0  0  0  0  0  0  0  0  0  0
   -2.1370   22.6159  -26.3290 C   0  0  0  0  0  0  0  0  0  0  0  0
   -2.6258   22.6939  -27.5680 N   0  0  0  0  0  0  0  0  0  0  0  0
   -2.0690   22.5229  -28.4417 H   0  0  0  0  0  0  0  0  0  0  0  0
   -0.4189   21.1918  -18.9620 C   0  0  0  0  0  0  0  0  0  0  0  0
   -0.8046   19.9997  -18.8835 O   0  0  0  0  0  0  0  0  0  0  0  0
    0.4598   21.6912  -17.9247 C   0  0  0  0  0  0  0  0  0  0  0  0
    1.6133   22.4007  -18.1545 C   0  0  0  0  0  0  0  0  0  0  0  0
    2.1602   22.6986  -16.9029 C   0  0  0  0  0  0  0  0  0  0  0  0
    3.2910   23.3728  -16.5001 C   0  0  0  0  0  0  0  0  0  0  0  0
    3.6182   23.5302  -15.1585 C   0  0  0  0  0  0  0  0  0  0  0  0
    2.7984   23.0020  -14.1783 C   0  0  0  0  0  0  0  0  0  0  0  0
    1.6709   22.3307  -14.6006 C   0  0  0  0  0  0  0  0  0  0  0  0
    1.3356   22.1686  -15.9455 C   0  0  0  0  0  0  0  0  0  0  0  0
    0.3240   21.5703  -16.5869 N   0  0  0  0  0  0  0  0  0  0  0  0
   -0.4800   21.0676  -16.1422 H   0  0  0  0  0  0  0  0  0  0  0  0
    3.1223   23.1466  -12.7321 C   0  0  0  0  0  0  0  0  0  0  0  0
    1.9718   23.5646  -11.9549 N   0  0  0  0  0  0  0  0  0  0  0  0
    1.8514   22.7679  -10.7368 C   0  0  0  0  0  0  0  0  0  0  0  0
    0.4257   23.0247  -10.2286 C   0  0  0  0  0  0  0  0  0  0  0  0
    0.1932   24.3823  -10.1392 O   0  0  0  0  0  0  0  0  0  0  0  0
    1.3422   25.1528  -10.1955 C   0  0  0  0  0  0  0  0  0  0  0  0
    2.1201   24.9395  -11.4884 C   0  0  0  0  0  0  0  0  0  0  0  0
  9 10  1  0  0  0
 10 11  2  0  0  0
 11 12  1  0  0  0
 12 13  2  0  0  0
 13 14  1  0  0  0
 14 15  2  0  0  0
 15 16  1  0  0  0
 16 17  2  0  0  0
 17 18  1  0  0  0
 14  1  1  0  0  0
  1  2  1  0  0  0
  2  3  2  0  0  0
  3  4  1  0  0  0
  4 20  1  0  0  0
 20 21  2  0  0  0
 20 22  1  0  0  0
 22 23  2  0  0  0
 23 24  1  0  0  0
 24 25  2  0  0  0
 25 26  1  0  0  0
 26 27  2  0  0  0
 27 32  1  0  0  0
 32 33  1  0  0  0
 33 34  1  0  0  0
 34 35  1  0  0  0
 35 36  1  0  0  0
 36 37  1  0  0  0
 37 38  1  0  0  0
 27 28  1  0  0  0
 28 29  2  0  0  0
 29 30  1  0  0  0
  4  5  2  0  0  0
  5  6  1  0  0  0
 18 10  1  0  0  0
  5  1  1  0  0  0
 17 12  1  0  0  0
 30 22  1  0  0  0
 29 24  1  0  0  0
 38 33  1  0  0  0
 18 19  1  0  0  0
 30 31  1  0  0  0
  6  7  1  0  0  0
  6  8  1  0  0  0
M  END
> <minimizedAffinity>
-8.12739

> <CNNscore>
0.1329358965

> <CNNaffinity>
5.4984636307

> <CNN_VS>
0.7309432030

> <CNNaffinity_variance>
0.0265820511

$$$$
[H]c1nn(-c2c([H])c([H])c3c(nc(C([H])([H])[H])n3[H])c2[H])c(N([H])[H])c1C(=O)c1c([H])c2c([H])c([H])c(C([H])([H])N3C([H])([H])C([H])([H])OC([H])([H])C3([H])[H])c([H])c2n1[H]


 38 43  0  0  0  0  0  0  0  0999 V2000
   -1.3473   22.2815  -23.7873 N   0  0  0  0  0  0  0  0  0  0  0  0
   -0.4008   21.4382  -23.4323 N   0  0  0  0  0  0  0  0  0  0  0  0
   -0.2475   21.4788  -22.1013 C   0  0  0  0  0  0  0  0  0  0  0  0
   -1.1329   22.3862  -21.5754 C   0  0  0  0  0  0  0  0  0  0  0  0
   -1.8146   22.8727  -22.7033 C   0  0  0  0  0  0  0  0  0  0  0  0
   -2.8376   23.8425  -22.6655 N   0  0  0  0  0  0  0  0  0  0  0  0
   -3.8242   23.5741  -22.8523 H   0  0  0  0  0  0  0  0  0  0  0  0
   -2.5940   24.8293  -22.4491 H   0  0  0  0  0  0  0  0  0  0  0  0
   -5.4335   23.3924  -29.8524 C   0  0  0  0  0  0  0  0  0  0  0  0
   -4.4470   23.1654  -28.7734 C   0  0  0  0  0  0  0  0  0  0  0  0
   -4.6309   23.0295  -27.4461 N   0  0  0  0  0  0  0  0  0  0  0  0
   -3.4595   22.8394  -26.8290 C   0  0  0  0  0  0  0  0  0  0  0  0
   -3.0800   22.6485  -25.5037 C   0  0  0  0  0  0  0  0  0  0  0  0
   -1.7573   22.4757  -25.1581 C   0  0  0  0  0  0  0  0  0  0  0  0
   -0.8225   22.4979  -26.1652 C   0  0  0  0  0  0  0  0  0  0  0  0
   -1.1660   22.6857  -27.4940 C   0  0  0  0  0  0  0  0  0  0  0  0
   -2.5096   22.8592  -27.8266 C   0  0  0  0  0  0  0  0  0  0  0  0
   -3.1338   23.0573  -28.9891 N   0  0  0  0  0  0  0  0  0  0  0  0
   -2.6548   23.1171  -29.9217 H   0  0  0  0  0  0  0  0  0  0  0  0
   -1.3650   22.8178  -20.2071 C   0  0  0  0  0  0  0  0  0  0  0  0
   -0.7167   23.7855  -19.7388 O   0  0  0  0  0  0  0  0  0  0  0  0
   -2.3301   22.1664  -19.3460 C   0  0  0  0  0  0  0  0  0  0  0  0
   -2.5707   22.5157  -18.0395 C   0  0  0  0  0  0  0  0  0  0  0  0
   -3.5678   21.6564  -17.5687 C   0  0  0  0  0  0  0  0  0  0  0  0
   -4.2086   21.5235  -16.3575 C   0  0  0  0  0  0  0  0  0  0  0  0
   -5.1870   20.5602  -16.1416 C   0  0  0  0  0  0  0  0  0  0  0  0
   -5.5456   19.6959  -17.1595 C   0  0  0  0  0  0  0  0  0  0  0  0
   -4.8934   19.8442  -18.3649 C   0  0  0  0  0  0  0  0  0  0  0  0
   -3.9103   20.8089  -18.5894 C   0  0  0  0  0  0  0  0  0  0  0  0
   -3.1524   21.1375  -19.6430 N   0  0  0  0  0  0  0  0  0  0  0  0
   -3.1692   20.6795  -20.5848 H   0  0  0  0  0  0  0  0  0  0  0  0
   -6.5849   18.6483  -16.9606 C   0  0  0  0  0  0  0  0  0  0  0  0
   -6.2588   17.4179  -17.6550 N   0  0  0  0  0  0  0  0  0  0  0  0
   -5.7538   16.4140  -16.7223 C   0  0  0  0  0  0  0  0  0  0  0  0
   -5.0911   15.3453  -17.6031 C   0  0  0  0  0  0  0  0  0  0  0  0
   -5.9681   14.9323  -18.5856 O   0  0  0  0  0  0  0  0  0  0  0  0
   -7.2824   15.3024  -18.3555 C   0  0  0  0  0  0  0  0  0  0  0  0
   -7.4483   16.8132  -18.2462 C   0  0  0  0  0  0  0  0  0  0  0  0
  9 10  1  0  0  0
 10 11  2  0  0  0
 11 12  1  0  0  0
 12 13  2  0  0  0
 13 14  1  0  0  0
 14 15  2  0  0  0
 15 16  1  0  0  0
 16 17  2  0  0  0
 17 18  1  0  0  0
 14  1  1  0  0  0
  1  2  1  0  0  0
  2  3  2  0  0  0
  3  4  1  0  0  0
  4 20  1  0  0  0
 20 21  2  0  0  0
 20 22  1  0  0  0
 22 23  2  0  0  0
 23 24  1  0  0  0
 24 25  2  0  0  0
 25 26  1  0  0  0
 26 27  2  0  0  0
 27 32  1  0  0  0
 32 33  1  0  0  0
 33 34  1  0  0  0
 34 35  1  0  0  0
 35 36  1  0  0  0
 36 37  1  0  0  0
 37 38  1  0  0  0
 27 28  1  0  0  0
 28 29  2  0  0  0
 29 30  1  0  0  0
  4  5  2  0  0  0
  5  6  1  0  0  0
 18 10  1  0  0  0
  5  1  1  0  0  0
 17 12  1  0  0  0
 30 22  1  0  0  0
 29 24  1  0  0  0
 38 33  1  0  0  0
 18 19  1  0  0  0
 30 31  1  0  0  0
  6  7  1  0  0  0
  6  8  1  0  0  0
M  END
> <minimizedAffinity>
-7.84790

> <CNNscore>
0.1231951714

> <CNNaffinity>
6.0950193405

> <CNN_VS>
0.7508769631

> <CNNaffinity_variance>
0.2428527176

$$$$
[H]c1nn(-c2c([H])c([H])c3c(nc(C([H])([H])[H])n3[H])c2[H])c(N([H])[H])c1C(=O)c1c([H])c2c([H])c([H])c(C([H])([H])N3C([H])([H])C([H])([H])OC([H])([H])C3([H])[H])c([H])c2n1[H]


 38 43  0  0  0  0  0  0  0  0999 V2000
    2.1830   20.9693  -19.4913 N   0  0  0  0  0  0  0  0  0  0  0  0
    0.9128   20.6559  -19.6372 N   0  0  0  0  0  0  0  0  0  0  0  0
    0.6108   20.6264  -20.9429 C   0  0  0  0  0  0  0  0  0  0  0  0
    1.7339   20.9329  -21.6699 C   0  0  0  0  0  0  0  0  0  0  0  0
    2.7149   21.1446  -20.6869 C   0  0  0  0  0  0  0  0  0  0  0  0
    4.0559   21.4899  -20.9533 N   0  0  0  0  0  0  0  0  0  0  0  0
    4.8176   20.7997  -20.7992 H   0  0  0  0  0  0  0  0  0  0  0  0
    4.2744   22.4430  -21.3054 H   0  0  0  0  0  0  0  0  0  0  0  0
    3.7684   22.9148  -12.5330 C   0  0  0  0  0  0  0  0  0  0  0  0
    3.6298   22.4044  -13.9148 C   0  0  0  0  0  0  0  0  0  0  0  0
    2.6949   22.6712  -14.8469 N   0  0  0  0  0  0  0  0  0  0  0  0
    2.9467   21.9892  -15.9697 C   0  0  0  0  0  0  0  0  0  0  0  0
    2.3199   21.8933  -17.2087 C   0  0  0  0  0  0  0  0  0  0  0  0
    2.8244   21.0832  -18.2026 C   0  0  0  0  0  0  0  0  0  0  0  0
    3.9683   20.3713  -17.9318 C   0  0  0  0  0  0  0  0  0  0  0  0
    4.6169   20.4437  -16.7100 C   0  0  0  0  0  0  0  0  0  0  0  0
    4.0927   21.2686  -15.7145 C   0  0  0  0  0  0  0  0  0  0  0  0
    4.4828   21.5387  -14.4675 N   0  0  0  0  0  0  0  0  0  0  0  0
    5.3308   21.1273  -14.0045 H   0  0  0  0  0  0  0  0  0  0  0  0
    1.9459   21.0534  -23.1027 C   0  0  0  0  0  0  0  0  0  0  0  0
    3.0689   20.7811  -23.5932 O   0  0  0  0  0  0  0  0  0  0  0  0
    0.8967   21.4822  -24.0043 C   0  0  0  0  0  0  0  0  0  0  0  0
   -0.4251   21.6159  -23.6555 C   0  0  0  0  0  0  0  0  0  0  0  0
   -1.1020   22.0531  -24.7979 C   0  0  0  0  0  0  0  0  0  0  0  0
   -2.4196   22.3534  -25.0607 C   0  0  0  0  0  0  0  0  0  0  0  0
   -2.8450   22.7742  -26.3152 C   0  0  0  0  0  0  0  0  0  0  0  0
   -1.9354   22.9028  -27.3486 C   0  0  0  0  0  0  0  0  0  0  0  0
   -0.6209   22.5979  -27.0666 C   0  0  0  0  0  0  0  0  0  0  0  0
   -0.1862   22.1750  -25.8097 C   0  0  0  0  0  0  0  0  0  0  0  0
    1.0041   21.8264  -25.3054 N   0  0  0  0  0  0  0  0  0  0  0  0
    1.9150   21.8112  -25.8221 H   0  0  0  0  0  0  0  0  0  0  0  0
   -2.3579   23.3448  -28.7063 C   0  0  0  0  0  0  0  0  0  0  0  0
   -3.7294   23.8149  -28.7243 N   0  0  0  0  0  0  0  0  0  0  0  0
   -3.8237   25.1150  -29.3829 C   0  0  0  0  0  0  0  0  0  0  0  0
   -5.2028   25.6642  -28.9914 C   0  0  0  0  0  0  0  0  0  0  0  0
   -6.1794   24.7281  -29.2652 O   0  0  0  0  0  0  0  0  0  0  0  0
   -5.7579   23.7055  -30.0981 C   0  0  0  0  0  0  0  0  0  0  0  0
   -4.5803   22.9327  -29.5167 C   0  0  0  0  0  0  0  0  0  0  0  0
  9 10  1  0  0  0
 10 11  2  0  0  0
 11 12  1  0  0  0
 12 13  2  0  0  0
 13 14  1  0  0  0
 14 15  2  0  0  0
 15 16  1  0  0  0
 16 17  2  0  0  0
 17 18  1  0  0  0
 14  1  1  0  0  0
  1  2  1  0  0  0
  2  3  2  0  0  0
  3  4  1  0  0  0
  4 20  1  0  0  0
 20 21  2  0  0  0
 20 22  1  0  0  0
 22 23  2  0  0  0
 23 24  1  0  0  0
 24 25  2  0  0  0
 25 26  1  0  0  0
 26 27  2  0  0  0
 27 32  1  0  0  0
 32 33  1  0  0  0
 33 34  1  0  0  0
 34 35  1  0  0  0
 35 36  1  0  0  0
 36 37  1  0  0  0
 37 38  1  0  0  0
 27 28  1  0  0  0
 28 29  2  0  0  0
 29 30  1  0  0  0
  4  5  2  0  0  0
  5  6  1  0  0  0
 18 10  1  0  0  0
  5  1  1  0  0  0
 17 12  1  0  0  0
 30 22  1  0  0  0
 29 24  1  0  0  0
 38 33  1  0  0  0
 18 19  1  0  0  0
 30 31  1  0  0  0
  6  7  1  0  0  0
  6  8  1  0  0  0
M  END
> <minimizedAffinity>
-8.96135

> <CNNscore>
0.1103589237

> <CNNaffinity>
5.9913959503

> <CNN_VS>
0.6612039804

> <CNNaffinity_variance>
0.1300908774

$$$$
[H]c1nn(-c2c([H])c([H])c3c(nc(C([H])([H])[H])n3[H])c2[H])c(N([H])[H])c1C(=O)c1c([H])c2c([H])c([H])c(C([H])([H])N3C([H])([H])C([H])([H])OC([H])([H])C3([H])[H])c([H])c2n1[H]


 38 43  0  0  0  0  0  0  0  0999 V2000
   -2.8875   23.0202  -26.6108 N   0  0  0  0  0  0  0  0  0  0  0  0
   -3.3186   22.5876  -27.7770 N   0  0  0  0  0  0  0  0  0  0  0  0
   -4.5153   23.1328  -28.0370 C   0  0  0  0  0  0  0  0  0  0  0  0
   -4.8708   23.9522  -26.9948 C   0  0  0  0  0  0  0  0  0  0  0  0
   -3.7887   23.8423  -26.1057 C   0  0  0  0  0  0  0  0  0  0  0  0
   -3.6954   24.5135  -24.8691 N   0  0  0  0  0  0  0  0  0  0  0  0
   -3.0228   25.2960  -24.7445 H   0  0  0  0  0  0  0  0  0  0  0  0
   -4.3069   24.2167  -24.0829 H   0  0  0  0  0  0  0  0  0  0  0  0
    2.3222   20.7146  -21.8928 C   0  0  0  0  0  0  0  0  0  0  0  0
    1.4393   21.1865  -22.9822 C   0  0  0  0  0  0  0  0  0  0  0  0
    0.1183   21.4492  -22.9741 N   0  0  0  0  0  0  0  0  0  0  0  0
   -0.2848   21.8552  -24.1831 C   0  0  0  0  0  0  0  0  0  0  0  0
   -1.5094   22.2431  -24.7187 C   0  0  0  0  0  0  0  0  0  0  0  0
   -1.6233   22.6200  -26.0392 C   0  0  0  0  0  0  0  0  0  0  0  0
   -0.4875   22.6010  -26.8125 C   0  0  0  0  0  0  0  0  0  0  0  0
    0.7466   22.2205  -26.3113 C   0  0  0  0  0  0  0  0  0  0  0  0
    0.8444   21.8416  -24.9722 C   0  0  0  0  0  0  0  0  0  0  0  0
    1.8695   21.4344  -24.2216 N   0  0  0  0  0  0  0  0  0  0  0  0
    2.8564   21.3292  -24.5646 H   0  0  0  0  0  0  0  0  0  0  0  0
   -6.0601   24.7567  -26.7696 C   0  0  0  0  0  0  0  0  0  0  0  0
   -6.5851   25.3771  -27.7263 O   0  0  0  0  0  0  0  0  0  0  0  0
   -6.6757   24.8745  -25.4641 C   0  0  0  0  0  0  0  0  0  0  0  0
   -6.9346   23.8177  -24.6255 C   0  0  0  0  0  0  0  0  0  0  0  0
   -7.5220   24.3504  -23.4741 C   0  0  0  0  0  0  0  0  0  0  0  0
   -7.9926   23.7926  -22.3068 C   0  0  0  0  0  0  0  0  0  0  0  0
   -8.5492   24.5627  -21.2924 C   0  0  0  0  0  0  0  0  0  0  0  0
   -8.6448   25.9345  -21.4363 C   0  0  0  0  0  0  0  0  0  0  0  0
   -8.1683   26.4749  -22.6116 C   0  0  0  0  0  0  0  0  0  0  0  0
   -7.6081   25.7084  -23.6344 C   0  0  0  0  0  0  0  0  0  0  0  0
   -7.0931   25.9948  -24.8367 N   0  0  0  0  0  0  0  0  0  0  0  0
   -7.0100   26.9476  -25.2637 H   0  0  0  0  0  0  0  0  0  0  0  0
   -9.2412   26.7887  -20.3724 C   0  0  0  0  0  0  0  0  0  0  0  0
   -9.9659   27.9178  -20.9222 N   0  0  0  0  0  0  0  0  0  0  0  0
  -11.3838   27.6013  -21.0713 C   0  0  0  0  0  0  0  0  0  0  0  0
  -11.9419   28.6880  -22.0012 C   0  0  0  0  0  0  0  0  0  0  0  0
  -11.6050   29.9381  -21.5228 O   0  0  0  0  0  0  0  0  0  0  0  0
  -11.1637   29.9359  -20.2104 C   0  0  0  0  0  0  0  0  0  0  0  0
   -9.9320   29.0604  -20.0147 C   0  0  0  0  0  0  0  0  0  0  0  0
  9 10  1  0  0  0
 10 11  2  0  0  0
 11 12  1  0  0  0
 12 13  2  0  0  0
 13 14  1  0  0  0
 14 15  2  0  0  0
 15 16  1  0  0  0
 16 17  2  0  0  0
 17 18  1  0  0  0
 14  1  1  0  0  0
  1  2  1  0  0  0
  2  3  2  0  0  0
  3  4  1  0  0  0
  4 20  1  0  0  0
 20 21  2  0  0  0
 20 22  1  0  0  0
 22 23  2  0  0  0
 23 24  1  0  0  0
 24 25  2  0  0  0
 25 26  1  0  0  0
 26 27  2  0  0  0
 27 32  1  0  0  0
 32 33  1  0  0  0
 33 34  1  0  0  0
 34 35  1  0  0  0
 35 36  1  0  0  0
 36 37  1  0  0  0
 37 38  1  0  0  0
 27 28  1  0  0  0
 28 29  2  0  0  0
 29 30  1  0  0  0
  4  5  2  0  0  0
  5  6  1  0  0  0
 18 10  1  0  0  0
  5  1  1  0  0  0
 17 12  1  0  0  0
 30 22  1  0  0  0
 29 24  1  0  0  0
 38 33  1  0  0  0
 18 19  1  0  0  0
 30 31  1  0  0  0
  6  7  1  0  0  0
  6  8  1  0  0  0
M  END
> <minimizedAffinity>
-9.79421

> <CNNscore>
0.1088159606

> <CNNaffinity>
6.3439569473

> <CNN_VS>
0.6903237700

> <CNNaffinity_variance>
0.0334660374

$$$$
[H]c1nn(-c2c([H])c([H])c3c(nc(C([H])([H])[H])n3[H])c2[H])c(N([H])[H])c1C(=O)c1c([H])c2c([H])c([H])c(C([H])([H])N3C([H])([H])C([H])([H])OC([H])([H])C3([H])[H])c([H])c2n1[H]


 38 43  0  0  0  0  0  0  0  0999 V2000
   -5.0308   23.0499  -24.7618 N   0  0  0  0  0  0  0  0  0  0  0  0
   -5.5350   21.8610  -24.5063 N   0  0  0  0  0  0  0  0  0  0  0  0
   -5.6392   21.6996  -23.1796 C   0  0  0  0  0  0  0  0  0  0  0  0
   -5.1836   22.8327  -22.5530 C   0  0  0  0  0  0  0  0  0  0  0  0
   -4.8046   23.6677  -23.6172 C   0  0  0  0  0  0  0  0  0  0  0  0
   -4.2675   24.9630  -23.4682 N   0  0  0  0  0  0  0  0  0  0  0  0
   -4.8316   25.7987  -23.7206 H   0  0  0  0  0  0  0  0  0  0  0  0
   -3.3006   25.0728  -23.1034 H   0  0  0  0  0  0  0  0  0  0  0  0
   -5.6833   26.6231  -31.2056 C   0  0  0  0  0  0  0  0  0  0  0  0
   -5.3725   25.8236  -30.0002 C   0  0  0  0  0  0  0  0  0  0  0  0
   -6.0456   25.7097  -28.8391 N   0  0  0  0  0  0  0  0  0  0  0  0
   -5.4083   24.8763  -28.0094 C   0  0  0  0  0  0  0  0  0  0  0  0
   -5.6539   24.4142  -26.7197 C   0  0  0  0  0  0  0  0  0  0  0  0
   -4.7925   23.5344  -26.1010 C   0  0  0  0  0  0  0  0  0  0  0  0
   -3.6810   23.1265  -26.7987 C   0  0  0  0  0  0  0  0  0  0  0  0
   -3.4068   23.5668  -28.0831 C   0  0  0  0  0  0  0  0  0  0  0  0
   -4.2891   24.4576  -28.6949 C   0  0  0  0  0  0  0  0  0  0  0  0
   -4.2934   25.0447  -29.8930 N   0  0  0  0  0  0  0  0  0  0  0  0
   -3.5563   24.9073  -30.6282 H   0  0  0  0  0  0  0  0  0  0  0  0
   -5.0651   23.1677  -21.1437 C   0  0  0  0  0  0  0  0  0  0  0  0
   -4.1232   23.8997  -20.7527 O   0  0  0  0  0  0  0  0  0  0  0  0
   -6.0050   22.6835  -20.1541 C   0  0  0  0  0  0  0  0  0  0  0  0
   -5.8046   22.7367  -18.7962 C   0  0  0  0  0  0  0  0  0  0  0  0
   -6.9386   22.1788  -18.1984 C   0  0  0  0  0  0  0  0  0  0  0  0
   -7.3081   21.9591  -16.8906 C   0  0  0  0  0  0  0  0  0  0  0  0
   -8.5205   21.3681  -16.5552 C   0  0  0  0  0  0  0  0  0  0  0  0
   -9.4006   20.9795  -17.5483 C   0  0  0  0  0  0  0  0  0  0  0  0
   -9.0136   21.2077  -18.8515 C   0  0  0  0  0  0  0  0  0  0  0  0
   -7.7981   21.8005  -19.1962 C   0  0  0  0  0  0  0  0  0  0  0  0
   -7.2126   22.1152  -20.3584 N   0  0  0  0  0  0  0  0  0  0  0  0
   -7.6093   21.9560  -21.3146 H   0  0  0  0  0  0  0  0  0  0  0  0
  -10.7048   20.3379  -17.2246 C   0  0  0  0  0  0  0  0  0  0  0  0
  -10.5718   19.3181  -16.2025 N   0  0  0  0  0  0  0  0  0  0  0  0
  -11.8709   18.9978  -15.6171 C   0  0  0  0  0  0  0  0  0  0  0  0
  -11.5511   18.2344  -14.3241 C   0  0  0  0  0  0  0  0  0  0  0  0
  -10.6876   17.1915  -14.5921 O   0  0  0  0  0  0  0  0  0  0  0  0
  -10.5853   16.8801  -15.9374 C   0  0  0  0  0  0  0  0  0  0  0  0
  -10.0976   18.0597  -16.7697 C   0  0  0  0  0  0  0  0  0  0  0  0
  9 10  1  0  0  0
 10 11  2  0  0  0
 11 12  1  0  0  0
 12 13  2  0  0  0
 13 14  1  0  0  0
 14 15  2  0  0  0
 15 16  1  0  0  0
 16 17  2  0  0  0
 17 18  1  0  0  0
 14  1  1  0  0  0
  1  2  1  0  0  0
  2  3  2  0  0  0
  3  4  1  0  0  0
  4 20  1  0  0  0
 20 21  2  0  0  0
 20 22  1  0  0  0
 22 23  2  0  0  0
 23 24  1  0  0  0
 24 25  2  0  0  0
 25 26  1  0  0  0
 26 27  2  0  0  0
 27 32  1  0  0  0
 32 33  1  0  0  0
 33 34  1  0  0  0
 34 35  1  0  0  0
 35 36  1  0  0  0
 36 37  1  0  0  0
 37 38  1  0  0  0
 27 28  1  0  0  0
 28 29  2  0  0  0
 29 30  1  0  0  0
  4  5  2  0  0  0
  5  6  1  0  0  0
 18 10  1  0  0  0
  5  1  1  0  0  0
 17 12  1  0  0  0
 30 22  1  0  0  0
 29 24  1  0  0  0
 38 33  1  0  0  0
 18 19  1  0  0  0
 30 31  1  0  0  0
  6  7  1  0  0  0
  6  8  1  0  0  0
M  END
> <minimizedAffinity>
-7.81301

> <CNNscore>
0.1004186198

> <CNNaffinity>
5.9114403725

> <CNN_VS>
0.5936186910

> <CNNaffinity_variance>
0.3048786819

$$$$
[H]c1nc(N([H])[H])c(-c2nn(-c3c([H])c(OC([H])([H])[H])c([H])c(OC([H])([H])[H])c3[H])c(=O)c([H])c2[H])nc1-c1c([H])nn(C2([H])C([H])([H])C([H])([H])N(C([H])([H])C([H])([H])OC([H])([H])[H])C([H])([H])C2([H])[H])c1[H]


 41 45  0  0  0  0  0  0  0  0999 V2000
   -0.1717   22.1466  -25.4342 C   0  0  0  0  0  0  0  0  0  0  0  0
    0.5369   22.2801  -26.6075 C   0  0  0  0  0  0  0  0  0  0  0  0
   -0.0634   22.6702  -27.7538 N   0  0  0  0  0  0  0  0  0  0  0  0
   -1.3997   22.9332  -27.7305 C   0  0  0  0  0  0  0  0  0  0  0  0
   -2.0404   23.3417  -28.9225 N   0  0  0  0  0  0  0  0  0  0  0  0
   -2.1294   22.8076  -26.5726 C   0  0  0  0  0  0  0  0  0  0  0  0
   -1.4856   22.4185  -25.4675 N   0  0  0  0  0  0  0  0  0  0  0  0
   -2.4956   22.6051  -29.5103 H   0  0  0  0  0  0  0  0  0  0  0  0
   -2.0489   24.3484  -29.1903 H   0  0  0  0  0  0  0  0  0  0  0  0
   -3.5684   23.0939  -26.5686 C   0  0  0  0  0  0  0  0  0  0  0  0
   -4.2223   23.2625  -27.7690 C   0  0  0  0  0  0  0  0  0  0  0  0
   -5.5924   23.5400  -27.8395 C   0  0  0  0  0  0  0  0  0  0  0  0
   -6.2248   23.6287  -26.5951 C   0  0  0  0  0  0  0  0  0  0  0  0
   -7.4597   23.8752  -26.5272 O   0  0  0  0  0  0  0  0  0  0  0  0
   -5.5652   23.4604  -25.4422 N   0  0  0  0  0  0  0  0  0  0  0  0
   -4.2550   23.1965  -25.4251 N   0  0  0  0  0  0  0  0  0  0  0  0
   -6.2355   23.5571  -24.1992 C   0  0  0  0  0  0  0  0  0  0  0  0
   -6.5544   24.8282  -23.7091 C   0  0  0  0  0  0  0  0  0  0  0  0
   -7.2073   24.9788  -22.5015 C   0  0  0  0  0  0  0  0  0  0  0  0
   -7.5589   23.8547  -21.7515 C   0  0  0  0  0  0  0  0  0  0  0  0
   -7.2507   22.5984  -22.2231 C   0  0  0  0  0  0  0  0  0  0  0  0
   -6.6058   22.4850  -23.4187 C   0  0  0  0  0  0  0  0  0  0  0  0
   -7.5459   26.2004  -21.9698 O   0  0  0  0  0  0  0  0  0  0  0  0
   -8.2172   26.2771  -20.7483 C   0  0  0  0  0  0  0  0  0  0  0  0
   -7.5885   21.4441  -21.4965 O   0  0  0  0  0  0  0  0  0  0  0  0
   -8.3239   21.4776  -20.3112 C   0  0  0  0  0  0  0  0  0  0  0  0
    0.6887   21.2140  -22.0680 N   0  0  0  0  0  0  0  0  0  0  0  0
   -0.2028   21.6168  -22.9676 C   0  0  0  0  0  0  0  0  0  0  0  0
    0.4410   21.7303  -24.1793 C   0  0  0  0  0  0  0  0  0  0  0  0
    1.7710   21.3741  -23.9649 C   0  0  0  0  0  0  0  0  0  0  0  0
    1.8596   21.0705  -22.6627 N   0  0  0  0  0  0  0  0  0  0  0  0
    1.1341   18.5066  -19.4607 N   0  0  0  0  0  0  0  0  0  0  0  0
    2.1353   19.5136  -19.5818 C   0  0  0  0  0  0  0  0  0  0  0  0
    1.6198   20.8876  -19.8477 C   0  0  0  0  0  0  0  0  0  0  0  0
    0.3794   20.9794  -20.6488 C   0  0  0  0  0  0  0  0  0  0  0  0
   -0.5034   19.7650  -20.5994 C   0  0  0  0  0  0  0  0  0  0  0  0
    0.3539   18.5307  -20.7048 C   0  0  0  0  0  0  0  0  0  0  0  0
    1.7389   17.1824  -19.4234 C   0  0  0  0  0  0  0  0  0  0  0  0
    1.8303   16.5532  -20.7686 C   0  0  0  0  0  0  0  0  0  0  0  0
    3.5049   17.1297  -22.2430 C   0  0  0  0  0  0  0  0  0  0  0  0
    3.1477   16.4102  -21.1454 O   0  0  0  0  0  0  0  0  0  0  0  0
 40 41  1  0  0  0
 41 39  1  0  0  0
 39 38  1  0  0  0
 38 32  1  0  0  0
 32 33  1  0  0  0
 33 34  1  0  0  0
 34 35  1  0  0  0
 35 36  1  0  0  0
 36 37  1  0  0  0
 35 27  1  0  0  0
 27 28  1  0  0  0
 28 29  2  0  0  0
 29 30  1  0  0  0
 30 31  2  0  0  0
 29  1  1  0  0  0
  1  2  2  0  0  0
  2  3  1  0  0  0
  3  4  2  0  0  0
  4  5  1  0  0  0
  4  6  1  0  0  0
  6  7  2  0  0  0
  6 10  1  0  0  0
 10 11  1  0  0  0
 11 12  2  0  0  0
 12 13  1  0  0  0
 13 14  2  0  0  0
 13 15  1  0  0  0
 15 16  1  0  0  0
 15 17  1  0  0  0
 17 18  2  0  0  0
 18 19  1  0  0  0
 19 23  1  0  0  0
 23 24  1  0  0  0
 19 20  2  0  0  0
 20 21  1  0  0  0
 21 25  1  0  0  0
 25 26  1  0  0  0
 21 22  2  0  0  0
 37 32  1  0  0  0
 31 27  1  0  0  0
  7  1  1  0  0  0
 16 10  2  0  0  0
 22 17  1  0  0  0
  5  8  1  0  0  0
  5  9  1  0  0  0
M  END
> <minimizedAffinity>
-8.31058

> <CNNscore>
0.6749915481

> <CNNaffinity>
7.6591911316

> <CNN_VS>
5.1698894501

> <CNNaffinity_variance>
0.0688799769

$$$$
[H]c1nc(N([H])[H])c(-c2nn(-c3c([H])c(OC([H])([H])[H])c([H])c(OC([H])([H])[H])c3[H])c(=O)c([H])c2[H])nc1-c1c([H])nn(C2([H])C([H])([H])C([H])([H])N(C([H])([H])C([H])([H])OC([H])([H])[H])C([H])([H])C2([H])[H])c1[H]


 41 45  0  0  0  0  0  0  0  0999 V2000
   -0.2506   22.0399  -24.9123 C   0  0  0  0  0  0  0  0  0  0  0  0
    0.5459   22.1384  -26.0314 C   0  0  0  0  0  0  0  0  0  0  0  0
    0.0429   22.5292  -27.2233 N   0  0  0  0  0  0  0  0  0  0  0  0
   -1.2835   22.8287  -27.3020 C   0  0  0  0  0  0  0  0  0  0  0  0
   -1.8230   23.2384  -28.5428 N   0  0  0  0  0  0  0  0  0  0  0  0
   -2.0998   22.7385  -26.2000 C   0  0  0  0  0  0  0  0  0  0  0  0
   -1.5503   22.3469  -25.0459 N   0  0  0  0  0  0  0  0  0  0  0  0
   -2.2541   22.5066  -29.1542 H   0  0  0  0  0  0  0  0  0  0  0  0
   -1.7834   24.2413  -28.8219 H   0  0  0  0  0  0  0  0  0  0  0  0
   -3.5266   23.0638  -26.3058 C   0  0  0  0  0  0  0  0  0  0  0  0
   -4.0844   23.2383  -27.5529 C   0  0  0  0  0  0  0  0  0  0  0  0
   -5.4371   23.5522  -27.7278 C   0  0  0  0  0  0  0  0  0  0  0  0
   -6.1578   23.6703  -26.5348 C   0  0  0  0  0  0  0  0  0  0  0  0
   -7.3870   23.9509  -26.5613 O   0  0  0  0  0  0  0  0  0  0  0  0
   -5.5908   23.4955  -25.3345 N   0  0  0  0  0  0  0  0  0  0  0  0
   -4.2933   23.1963  -25.2175 N   0  0  0  0  0  0  0  0  0  0  0  0
   -6.3489   23.6225  -24.1459 C   0  0  0  0  0  0  0  0  0  0  0  0
   -6.6518   22.4656  -23.4197 C   0  0  0  0  0  0  0  0  0  0  0  0
   -7.3889   22.5335  -22.2537 C   0  0  0  0  0  0  0  0  0  0  0  0
   -7.8427   23.7676  -21.7841 C   0  0  0  0  0  0  0  0  0  0  0  0
   -7.5511   24.9133  -22.4897 C   0  0  0  0  0  0  0  0  0  0  0  0
   -6.8215   24.8112  -23.6366 C   0  0  0  0  0  0  0  0  0  0  0  0
   -7.7171   21.4324  -21.4991 O   0  0  0  0  0  0  0  0  0  0  0  0
   -8.5662   21.5586  -20.3983 C   0  0  0  0  0  0  0  0  0  0  0  0
   -7.9906   26.1728  -22.0481 O   0  0  0  0  0  0  0  0  0  0  0  0
   -8.3859   26.4245  -20.7340 C   0  0  0  0  0  0  0  0  0  0  0  0
    1.5821   20.8276  -22.0640 N   0  0  0  0  0  0  0  0  0  0  0  0
    1.4933   21.0715  -23.3674 C   0  0  0  0  0  0  0  0  0  0  0  0
    0.2560   21.6240  -23.6109 C   0  0  0  0  0  0  0  0  0  0  0  0
   -0.4001   21.7018  -22.3839 C   0  0  0  0  0  0  0  0  0  0  0  0
    0.4568   21.2029  -21.4824 N   0  0  0  0  0  0  0  0  0  0  0  0
    3.2583   20.7954  -18.6705 N   0  0  0  0  0  0  0  0  0  0  0  0
    2.3049   19.7806  -18.9743 C   0  0  0  0  0  0  0  0  0  0  0  0
    2.3561   19.2645  -20.3727 C   0  0  0  0  0  0  0  0  0  0  0  0
    2.7611   20.2330  -21.4151 C   0  0  0  0  0  0  0  0  0  0  0  0
    3.6038   21.3779  -20.9296 C   0  0  0  0  0  0  0  0  0  0  0  0
    3.0383   21.8863  -19.6290 C   0  0  0  0  0  0  0  0  0  0  0  0
    2.9860   21.3825  -17.3660 C   0  0  0  0  0  0  0  0  0  0  0  0
    1.8914   20.6856  -16.6381 C   0  0  0  0  0  0  0  0  0  0  0  0
    0.7248   21.8321  -15.0149 C   0  0  0  0  0  0  0  0  0  0  0  0
    0.8739   21.5654  -16.3403 O   0  0  0  0  0  0  0  0  0  0  0  0
 40 41  1  0  0  0
 41 39  1  0  0  0
 39 38  1  0  0  0
 38 32  1  0  0  0
 32 33  1  0  0  0
 33 34  1  0  0  0
 34 35  1  0  0  0
 35 36  1  0  0  0
 36 37  1  0  0  0
 35 27  1  0  0  0
 27 28  1  0  0  0
 28 29  2  0  0  0
 29 30  1  0  0  0
 30 31  2  0  0  0
 29  1  1  0  0  0
  1  2  2  0  0  0
  2  3  1  0  0  0
  3  4  2  0  0  0
  4  5  1  0  0  0
  4  6  1  0  0  0
  6  7  2  0  0  0
  6 10  1  0  0  0
 10 11  1  0  0  0
 11 12  2  0  0  0
 12 13  1  0  0  0
 13 14  2  0  0  0
 13 15  1  0  0  0
 15 16  1  0  0  0
 15 17  1  0  0  0
 17 18  2  0  0  0
 18 19  1  0  0  0
 19 23  1  0  0  0
 23 24  1  0  0  0
 19 20  2  0  0  0
 20 21  1  0  0  0
 21 25  1  0  0  0
 25 26  1  0  0  0
 21 22  2  0  0  0
 37 32  1  0  0  0
 31 27  1  0  0  0
  7  1  1  0  0  0
 16 10  2  0  0  0
 22 17  1  0  0  0
  5  8  1  0  0  0
  5  9  1  0  0  0
M  END
> <minimizedAffinity>
-8.21575

> <CNNscore>
0.6018721461

> <CNNaffinity>
7.5087537766

> <CNN_VS>
4.5193095207

> <CNNaffinity_variance>
0.1181306988

$$$$
[H]c1nc(N([H])[H])c(-c2nn(-c3c([H])c(OC([H])([H])[H])c([H])c(OC([H])([H])[H])c3[H])c(=O)c([H])c2[H])nc1-c1c([H])nn(C2([H])C([H])([H])C([H])([H])N(C([H])([H])C([H])([H])OC([H])([H])[H])C([H])([H])C2([H])[H])c1[H]


 41 45  0  0  0  0  0  0  0  0999 V2000
   -2.0029   22.8752  -26.3749 C   0  0  0  0  0  0  0  0  0  0  0  0
   -0.9001   22.7345  -27.1875 C   0  0  0  0  0  0  0  0  0  0  0  0
    0.2735   22.2649  -26.7093 N   0  0  0  0  0  0  0  0  0  0  0  0
    0.3499   21.9278  -25.3918 C   0  0  0  0  0  0  0  0  0  0  0  0
    1.5715   21.4357  -24.8782 N   0  0  0  0  0  0  0  0  0  0  0  0
   -0.7362   22.0587  -24.5598 C   0  0  0  0  0  0  0  0  0  0  0  0
   -1.8724   22.5282  -25.0850 N   0  0  0  0  0  0  0  0  0  0  0  0
    2.2279   22.1208  -24.4368 H   0  0  0  0  0  0  0  0  0  0  0  0
    1.7933   20.4200  -24.9462 H   0  0  0  0  0  0  0  0  0  0  0  0
   -0.6331   21.6917  -23.1430 C   0  0  0  0  0  0  0  0  0  0  0  0
   -1.7753   21.6556  -22.3744 C   0  0  0  0  0  0  0  0  0  0  0  0
   -1.7504   21.3166  -21.0166 C   0  0  0  0  0  0  0  0  0  0  0  0
   -0.4755   21.0225  -20.5218 C   0  0  0  0  0  0  0  0  0  0  0  0
   -0.3229   20.7031  -19.3114 O   0  0  0  0  0  0  0  0  0  0  0  0
    0.6194   21.0651  -21.2911 N   0  0  0  0  0  0  0  0  0  0  0  0
    0.5457   21.3948  -22.5844 N   0  0  0  0  0  0  0  0  0  0  0  0
    1.8955   20.7620  -20.7587 C   0  0  0  0  0  0  0  0  0  0  0  0
    2.4160   19.4790  -20.9602 C   0  0  0  0  0  0  0  0  0  0  0  0
    3.6558   19.1309  -20.4614 C   0  0  0  0  0  0  0  0  0  0  0  0
    4.4086   20.0636  -19.7453 C   0  0  0  0  0  0  0  0  0  0  0  0
    3.9074   21.3295  -19.5404 C   0  0  0  0  0  0  0  0  0  0  0  0
    2.6803   21.6405  -20.0461 C   0  0  0  0  0  0  0  0  0  0  0  0
    4.2179   17.8875  -20.6273 O   0  0  0  0  0  0  0  0  0  0  0  0
    4.4941   17.4026  -21.9069 C   0  0  0  0  0  0  0  0  0  0  0  0
    4.6360   22.2948  -18.8248 O   0  0  0  0  0  0  0  0  0  0  0  0
    5.9905   22.5458  -19.0459 C   0  0  0  0  0  0  0  0  0  0  0  0
   -5.0914   24.5947  -27.0424 N   0  0  0  0  0  0  0  0  0  0  0  0
   -3.9708   24.4539  -26.3420 C   0  0  0  0  0  0  0  0  0  0  0  0
   -3.2844   23.3761  -26.8547 C   0  0  0  0  0  0  0  0  0  0  0  0
   -4.0502   22.8716  -27.9040 C   0  0  0  0  0  0  0  0  0  0  0  0
   -5.1361   23.6542  -27.9691 N   0  0  0  0  0  0  0  0  0  0  0  0
   -7.0178   26.0619  -24.1333 N   0  0  0  0  0  0  0  0  0  0  0  0
   -5.7753   26.6546  -24.5019 C   0  0  0  0  0  0  0  0  0  0  0  0
   -5.5233   26.7316  -25.9699 C   0  0  0  0  0  0  0  0  0  0  0  0
   -6.0941   25.6417  -26.7916 C   0  0  0  0  0  0  0  0  0  0  0  0
   -7.2901   24.9539  -26.1973 C   0  0  0  0  0  0  0  0  0  0  0  0
   -7.0425   24.7200  -24.7298 C   0  0  0  0  0  0  0  0  0  0  0  0
   -7.0723   25.8340  -22.6961 C   0  0  0  0  0  0  0  0  0  0  0  0
   -6.3399   24.6077  -22.2794 C   0  0  0  0  0  0  0  0  0  0  0  0
   -4.0425   24.4773  -22.1549 C   0  0  0  0  0  0  0  0  0  0  0  0
   -5.1919   24.9412  -21.5946 O   0  0  0  0  0  0  0  0  0  0  0  0
 40 41  1  0  0  0
 41 39  1  0  0  0
 39 38  1  0  0  0
 38 32  1  0  0  0
 32 33  1  0  0  0
 33 34  1  0  0  0
 34 35  1  0  0  0
 35 36  1  0  0  0
 36 37  1  0  0  0
 35 27  1  0  0  0
 27 28  1  0  0  0
 28 29  2  0  0  0
 29 30  1  0  0  0
 30 31  2  0  0  0
 29  1  1  0  0  0
  1  2  2  0  0  0
  2  3  1  0  0  0
  3  4  2  0  0  0
  4  5  1  0  0  0
  4  6  1  0  0  0
  6  7  2  0  0  0
  6 10  1  0  0  0
 10 11  1  0  0  0
 11 12  2  0  0  0
 12 13  1  0  0  0
 13 14  2  0  0  0
 13 15  1  0  0  0
 15 16  1  0  0  0
 15 17  1  0  0  0
 17 18  2  0  0  0
 18 19  1  0  0  0
 19 23  1  0  0  0
 23 24  1  0  0  0
 19 20  2  0  0  0
 20 21  1  0  0  0
 21 25  1  0  0  0
 25 26  1  0  0  0
 21 22  2  0  0  0
 37 32  1  0  0  0
 31 27  1  0  0  0
  7  1  1  0  0  0
 16 10  2  0  0  0
 22 17  1  0  0  0
  5  8  1  0  0  0
  5  9  1  0  0  0
M  END
> <minimizedAffinity>
-8.15848

> <CNNscore>
0.5560060740

> <CNNaffinity>
7.4868097305

> <CNN_VS>
4.1627116203

> <CNNaffinity_variance>
0.0713940039

$$$$
[H]c1nc(N([H])[H])c(-c2nn(-c3c([H])c(OC([H])([H])[H])c([H])c(OC([H])([H])[H])c3[H])c(=O)c([H])c2[H])nc1-c1c([H])nn(C2([H])C([H])([H])C([H])([H])N(C([H])([H])C([H])([H])OC([H])([H])[H])C([H])([H])C2([H])[H])c1[H]


 41 45  0  0  0  0  0  0  0  0999 V2000
   -2.0932   22.9115  -26.3678 C   0  0  0  0  0  0  0  0  0  0  0  0
   -1.0509   22.5867  -27.2073 C   0  0  0  0  0  0  0  0  0  0  0  0
    0.1306   22.1414  -26.7255 N   0  0  0  0  0  0  0  0  0  0  0  0
    0.2770   22.0167  -25.3771 C   0  0  0  0  0  0  0  0  0  0  0  0
    1.5079   21.5525  -24.8596 N   0  0  0  0  0  0  0  0  0  0  0  0
   -0.7477   22.3342  -24.5179 C   0  0  0  0  0  0  0  0  0  0  0  0
   -1.8950   22.7701  -25.0479 N   0  0  0  0  0  0  0  0  0  0  0  0
    2.2183   22.2656  -24.5736 H   0  0  0  0  0  0  0  0  0  0  0  0
    1.6833   20.5292  -24.7731 H   0  0  0  0  0  0  0  0  0  0  0  0
   -0.5695   22.1948  -23.0682 C   0  0  0  0  0  0  0  0  0  0  0  0
   -1.3774   22.9193  -22.2202 C   0  0  0  0  0  0  0  0  0  0  0  0
   -1.2611   22.8372  -20.8278 C   0  0  0  0  0  0  0  0  0  0  0  0
   -0.2622   21.9633  -20.3858 C   0  0  0  0  0  0  0  0  0  0  0  0
   -0.0598   21.8035  -19.1514 O   0  0  0  0  0  0  0  0  0  0  0  0
    0.5098   21.2704  -21.2322 N   0  0  0  0  0  0  0  0  0  0  0  0
    0.3613   21.3819  -22.5559 N   0  0  0  0  0  0  0  0  0  0  0  0
    1.5125   20.3943  -20.7518 C   0  0  0  0  0  0  0  0  0  0  0  0
    2.8101   20.8906  -20.5860 C   0  0  0  0  0  0  0  0  0  0  0  0
    3.8255   20.0782  -20.1212 C   0  0  0  0  0  0  0  0  0  0  0  0
    3.5652   18.7424  -19.8092 C   0  0  0  0  0  0  0  0  0  0  0  0
    2.2923   18.2421  -19.9679 C   0  0  0  0  0  0  0  0  0  0  0  0
    1.3130   19.0708  -20.4289 C   0  0  0  0  0  0  0  0  0  0  0  0
    5.1180   20.5093  -19.9387 O   0  0  0  0  0  0  0  0  0  0  0  0
    5.3749   21.8244  -19.5475 C   0  0  0  0  0  0  0  0  0  0  0  0
    1.9924   16.9033  -19.6643 O   0  0  0  0  0  0  0  0  0  0  0  0
    0.8631   16.5206  -18.9399 C   0  0  0  0  0  0  0  0  0  0  0  0
   -5.2152   24.5719  -27.0292 N   0  0  0  0  0  0  0  0  0  0  0  0
   -4.0991   24.4412  -26.3197 C   0  0  0  0  0  0  0  0  0  0  0  0
   -3.3812   23.3929  -26.8501 C   0  0  0  0  0  0  0  0  0  0  0  0
   -4.1231   22.8957  -27.9199 C   0  0  0  0  0  0  0  0  0  0  0  0
   -5.2269   23.6533  -27.9787 N   0  0  0  0  0  0  0  0  0  0  0  0
   -7.1137   26.0122  -24.0886 N   0  0  0  0  0  0  0  0  0  0  0  0
   -5.9018   26.6411  -24.4970 C   0  0  0  0  0  0  0  0  0  0  0  0
   -5.6908   26.7071  -25.9720 C   0  0  0  0  0  0  0  0  0  0  0  0
   -6.2457   25.5882  -26.7649 C   0  0  0  0  0  0  0  0  0  0  0  0
   -7.4020   24.8687  -26.1310 C   0  0  0  0  0  0  0  0  0  0  0  0
   -7.1087   24.6625  -24.6677 C   0  0  0  0  0  0  0  0  0  0  0  0
   -7.1232   25.8015  -22.6477 C   0  0  0  0  0  0  0  0  0  0  0  0
   -6.1086   24.8076  -22.2045 C   0  0  0  0  0  0  0  0  0  0  0  0
   -6.4320   24.8137  -19.9229 C   0  0  0  0  0  0  0  0  0  0  0  0
   -5.6173   25.1417  -20.9615 O   0  0  0  0  0  0  0  0  0  0  0  0
 40 41  1  0  0  0
 41 39  1  0  0  0
 39 38  1  0  0  0
 38 32  1  0  0  0
 32 33  1  0  0  0
 33 34  1  0  0  0
 34 35  1  0  0  0
 35 36  1  0  0  0
 36 37  1  0  0  0
 35 27  1  0  0  0
 27 28  1  0  0  0
 28 29  2  0  0  0
 29 30  1  0  0  0
 30 31  2  0  0  0
 29  1  1  0  0  0
  1  2  2  0  0  0
  2  3  1  0  0  0
  3  4  2  0  0  0
  4  5  1  0  0  0
  4  6  1  0  0  0
  6  7  2  0  0  0
  6 10  1  0  0  0
 10 11  1  0  0  0
 11 12  2  0  0  0
 12 13  1  0  0  0
 13 14  2  0  0  0
 13 15  1  0  0  0
 15 16  1  0  0  0
 15 17  1  0  0  0
 17 18  2  0  0  0
 18 19  1  0  0  0
 19 23  1  0  0  0
 23 24  1  0  0  0
 19 20  2  0  0  0
 20 21  1  0  0  0
 21 25  1  0  0  0
 25 26  1  0  0  0
 21 22  2  0  0  0
 37 32  1  0  0  0
 31 27  1  0  0  0
  7  1  1  0  0  0
 16 10  2  0  0  0
 22 17  1  0  0  0
  5  8  1  0  0  0
  5  9  1  0  0  0
M  END
> <minimizedAffinity>
-8.05346

> <CNNscore>
0.4859271049

> <CNNaffinity>
7.4517645836

> <CNN_VS>
3.6210143566

> <CNNaffinity_variance>
0.1215253323

$$$$
[H]c1nc(N([H])[H])c(-c2nn(-c3c([H])c(OC([H])([H])[H])c([H])c(OC([H])([H])[H])c3[H])c(=O)c([H])c2[H])nc1-c1c([H])nn(C2([H])C([H])([H])C([H])([H])N(C([H])([H])C([H])([H])OC([H])([H])[H])C([H])([H])C2([H])[H])c1[H]


 41 45  0  0  0  0  0  0  0  0999 V2000
   -2.0372   22.9376  -26.3640 C   0  0  0  0  0  0  0  0  0  0  0  0
   -0.9520   22.6921  -27.1755 C   0  0  0  0  0  0  0  0  0  0  0  0
    0.2204   22.2480  -26.6707 N   0  0  0  0  0  0  0  0  0  0  0  0
    0.3135   22.0437  -25.3272 C   0  0  0  0  0  0  0  0  0  0  0  0
    1.5341   21.5798  -24.7857 N   0  0  0  0  0  0  0  0  0  0  0  0
   -0.7548   22.2811  -24.4958 C   0  0  0  0  0  0  0  0  0  0  0  0
   -1.8907   22.7196  -25.0478 N   0  0  0  0  0  0  0  0  0  0  0  0
    2.2117   22.2917  -24.4262 H   0  0  0  0  0  0  0  0  0  0  0  0
    1.7345   20.5579  -24.7541 H   0  0  0  0  0  0  0  0  0  0  0  0
   -0.6337   22.0567  -23.0509 C   0  0  0  0  0  0  0  0  0  0  0  0
   -1.2107   22.9556  -22.1816 C   0  0  0  0  0  0  0  0  0  0  0  0
   -1.1324   22.8052  -20.7922 C   0  0  0  0  0  0  0  0  0  0  0  0
   -0.4238   21.6731  -20.3766 C   0  0  0  0  0  0  0  0  0  0  0  0
   -0.2837   21.4282  -19.1474 O   0  0  0  0  0  0  0  0  0  0  0  0
    0.1276   20.8144  -21.2432 N   0  0  0  0  0  0  0  0  0  0  0  0
    0.0262   21.0002  -22.5631 N   0  0  0  0  0  0  0  0  0  0  0  0
    0.8390   19.6779  -20.7892 C   0  0  0  0  0  0  0  0  0  0  0  0
    0.1495   18.4679  -20.6546 C   0  0  0  0  0  0  0  0  0  0  0  0
    0.7957   17.3293  -20.2150 C   0  0  0  0  0  0  0  0  0  0  0  0
    2.1547   17.3745  -19.8981 C   0  0  0  0  0  0  0  0  0  0  0  0
    2.8443   18.5593  -20.0265 C   0  0  0  0  0  0  0  0  0  0  0  0
    2.1765   19.6646  -20.4630 C   0  0  0  0  0  0  0  0  0  0  0  0
    0.1713   16.1141  -20.0630 O   0  0  0  0  0  0  0  0  0  0  0  0
   -1.1342   16.0475  -19.5732 C   0  0  0  0  0  0  0  0  0  0  0  0
    4.2124   18.6434  -19.7172 O   0  0  0  0  0  0  0  0  0  0  0  0
    4.9614   19.8086  -19.8842 C   0  0  0  0  0  0  0  0  0  0  0  0
   -5.1931   24.5277  -27.0373 N   0  0  0  0  0  0  0  0  0  0  0  0
   -4.1154   24.3656  -26.2766 C   0  0  0  0  0  0  0  0  0  0  0  0
   -3.3169   23.4149  -26.8718 C   0  0  0  0  0  0  0  0  0  0  0  0
   -3.9694   23.0100  -28.0347 C   0  0  0  0  0  0  0  0  0  0  0  0
   -5.1038   23.7219  -28.0804 N   0  0  0  0  0  0  0  0  0  0  0  0
   -7.1379   25.7529  -24.0302 N   0  0  0  0  0  0  0  0  0  0  0  0
   -5.9784   26.4745  -24.4376 C   0  0  0  0  0  0  0  0  0  0  0  0
   -5.7961   26.5954  -25.9130 C   0  0  0  0  0  0  0  0  0  0  0  0
   -6.2861   25.4632  -26.7296 C   0  0  0  0  0  0  0  0  0  0  0  0
   -7.3803   24.6489  -26.1000 C   0  0  0  0  0  0  0  0  0  0  0  0
   -7.0502   24.4231  -24.6476 C   0  0  0  0  0  0  0  0  0  0  0  0
   -7.1098   25.5025  -22.5959 C   0  0  0  0  0  0  0  0  0  0  0  0
   -5.8467   24.8554  -22.1490 C   0  0  0  0  0  0  0  0  0  0  0  0
   -6.6543   25.5735  -20.1137 C   0  0  0  0  0  0  0  0  0  0  0  0
   -5.5713   25.1880  -20.8408 O   0  0  0  0  0  0  0  0  0  0  0  0
 40 41  1  0  0  0
 41 39  1  0  0  0
 39 38  1  0  0  0
 38 32  1  0  0  0
 32 33  1  0  0  0
 33 34  1  0  0  0
 34 35  1  0  0  0
 35 36  1  0  0  0
 36 37  1  0  0  0
 35 27  1  0  0  0
 27 28  1  0  0  0
 28 29  2  0  0  0
 29 30  1  0  0  0
 30 31  2  0  0  0
 29  1  1  0  0  0
  1  2  2  0  0  0
  2  3  1  0  0  0
  3  4  2  0  0  0
  4  5  1  0  0  0
  4  6  1  0  0  0
  6  7  2  0  0  0
  6 10  1  0  0  0
 10 11  1  0  0  0
 11 12  2  0  0  0
 12 13  1  0  0  0
 13 14  2  0  0  0
 13 15  1  0  0  0
 15 16  1  0  0  0
 15 17  1  0  0  0
 17 18  2  0  0  0
 18 19  1  0  0  0
 19 23  1  0  0  0
 23 24  1  0  0  0
 19 20  2  0  0  0
 20 21  1  0  0  0
 21 25  1  0  0  0
 25 26  1  0  0  0
 21 22  2  0  0  0
 37 32  1  0  0  0
 31 27  1  0  0  0
  7  1  1  0  0  0
 16 10  2  0  0  0
 22 17  1  0  0  0
  5  8  1  0  0  0
  5  9  1  0  0  0
M  END
> <minimizedAffinity>
-8.22074

> <CNNscore>
0.4842845201

> <CNNaffinity>
7.4393568039

> <CNN_VS>
3.6027653217

> <CNNaffinity_variance>
0.0802581012

$$$$
[H]c1nc(N([H])[H])c(-c2nn(-c3c([H])c(OC([H])([H])[H])c([H])c(OC([H])([H])[H])c3[H])c(=O)c([H])c2[H])nc1-c1c([H])nn(C2([H])C([H])([H])C([H])([H])N(C([H])([H])C([H])([H])OC([H])([H])[H])C([H])([H])C2([H])[H])c1[H]


 41 45  0  0  0  0  0  0  0  0999 V2000
   -2.0848   22.9549  -26.2893 C   0  0  0  0  0  0  0  0  0  0  0  0
   -1.0044   22.7466  -27.1175 C   0  0  0  0  0  0  0  0  0  0  0  0
    0.1787   22.3047  -26.6364 N   0  0  0  0  0  0  0  0  0  0  0  0
    0.2878   22.0649  -25.3001 C   0  0  0  0  0  0  0  0  0  0  0  0
    1.5198   21.6028  -24.7833 N   0  0  0  0  0  0  0  0  0  0  0  0
   -0.7753   22.2648  -24.4522 C   0  0  0  0  0  0  0  0  0  0  0  0
   -1.9223   22.7028  -24.9811 N   0  0  0  0  0  0  0  0  0  0  0  0
    2.1913   22.3136  -24.4107 H   0  0  0  0  0  0  0  0  0  0  0  0
    1.7341   20.5833  -24.7818 H   0  0  0  0  0  0  0  0  0  0  0  0
   -0.6370   22.0023  -23.0153 C   0  0  0  0  0  0  0  0  0  0  0  0
   -1.1625   22.9025  -22.1152 C   0  0  0  0  0  0  0  0  0  0  0  0
   -1.0650   22.7169  -20.7313 C   0  0  0  0  0  0  0  0  0  0  0  0
   -0.3938   21.5489  -20.3548 C   0  0  0  0  0  0  0  0  0  0  0  0
   -0.2411   21.2704  -19.1343 O   0  0  0  0  0  0  0  0  0  0  0  0
    0.1079   20.6899  -21.2509 N   0  0  0  0  0  0  0  0  0  0  0  0
   -0.0100   20.9101  -22.5640 N   0  0  0  0  0  0  0  0  0  0  0  0
    0.7824   19.5166  -20.8361 C   0  0  0  0  0  0  0  0  0  0  0  0
    2.1787   19.5432  -20.7510 C   0  0  0  0  0  0  0  0  0  0  0  0
    2.8858   18.4259  -20.3524 C   0  0  0  0  0  0  0  0  0  0  0  0
    2.2087   17.2488  -20.0275 C   0  0  0  0  0  0  0  0  0  0  0  0
    0.8347   17.2100  -20.1072 C   0  0  0  0  0  0  0  0  0  0  0  0
    0.1673   18.3303  -20.5042 C   0  0  0  0  0  0  0  0  0  0  0  0
    4.2562   18.3924  -20.2505 O   0  0  0  0  0  0  0  0  0  0  0  0
    5.0497   19.0746  -21.1744 C   0  0  0  0  0  0  0  0  0  0  0  0
    0.1189   16.0436  -19.7882 O   0  0  0  0  0  0  0  0  0  0  0  0
   -1.2616   16.0275  -19.5874 C   0  0  0  0  0  0  0  0  0  0  0  0
   -5.2326   24.5742  -26.9298 N   0  0  0  0  0  0  0  0  0  0  0  0
   -4.1250   24.4370  -26.2083 C   0  0  0  0  0  0  0  0  0  0  0  0
   -3.3756   23.4286  -26.7715 C   0  0  0  0  0  0  0  0  0  0  0  0
   -4.0895   22.9624  -27.8737 C   0  0  0  0  0  0  0  0  0  0  0  0
   -5.2090   23.6977  -27.9179 N   0  0  0  0  0  0  0  0  0  0  0  0
   -7.1899   25.8624  -23.9572 N   0  0  0  0  0  0  0  0  0  0  0  0
   -5.9902   26.5343  -24.3319 C   0  0  0  0  0  0  0  0  0  0  0  0
   -5.7686   26.6582  -25.8015 C   0  0  0  0  0  0  0  0  0  0  0  0
   -6.2896   25.5554  -26.6389 C   0  0  0  0  0  0  0  0  0  0  0  0
   -7.4333   24.7862  -26.0416 C   0  0  0  0  0  0  0  0  0  0  0  0
   -7.1473   24.5347  -24.5839 C   0  0  0  0  0  0  0  0  0  0  0  0
   -7.2062   25.6000  -22.5249 C   0  0  0  0  0  0  0  0  0  0  0  0
   -6.0132   24.8388  -22.0653 C   0  0  0  0  0  0  0  0  0  0  0  0
   -6.6599   25.5136  -19.9589 C   0  0  0  0  0  0  0  0  0  0  0  0
   -5.6301   25.2553  -20.8093 O   0  0  0  0  0  0  0  0  0  0  0  0
 40 41  1  0  0  0
 41 39  1  0  0  0
 39 38  1  0  0  0
 38 32  1  0  0  0
 32 33  1  0  0  0
 33 34  1  0  0  0
 34 35  1  0  0  0
 35 36  1  0  0  0
 36 37  1  0  0  0
 35 27  1  0  0  0
 27 28  1  0  0  0
 28 29  2  0  0  0
 29 30  1  0  0  0
 30 31  2  0  0  0
 29  1  1  0  0  0
  1  2  2  0  0  0
  2  3  1  0  0  0
  3  4  2  0  0  0
  4  5  1  0  0  0
  4  6  1  0  0  0
  6  7  2  0  0  0
  6 10  1  0  0  0
 10 11  1  0  0  0
 11 12  2  0  0  0
 12 13  1  0  0  0
 13 14  2  0  0  0
 13 15  1  0  0  0
 15 16  1  0  0  0
 15 17  1  0  0  0
 17 18  2  0  0  0
 18 19  1  0  0  0
 19 23  1  0  0  0
 23 24  1  0  0  0
 19 20  2  0  0  0
 20 21  1  0  0  0
 21 25  1  0  0  0
 25 26  1  0  0  0
 21 22  2  0  0  0
 37 32  1  0  0  0
 31 27  1  0  0  0
  7  1  1  0  0  0
 16 10  2  0  0  0
 22 17  1  0  0  0
  5  8  1  0  0  0
  5  9  1  0  0  0
M  END
> <minimizedAffinity>
-8.21030

> <CNNscore>
0.4716534913

> <CNNaffinity>
7.4098634720

> <CNN_VS>
3.4948880672

> <CNNaffinity_variance>
0.0732848793

$$$$
[H]c1nc(N([H])[H])c(-c2nn(-c3c([H])c(OC([H])([H])[H])c([H])c(OC([H])([H])[H])c3[H])c(=O)c([H])c2[H])nc1-c1c([H])nn(C2([H])C([H])([H])C([H])([H])N(C([H])([H])C([H])([H])OC([H])([H])[H])C([H])([H])C2([H])[H])c1[H]


 41 45  0  0  0  0  0  0  0  0999 V2000
   -0.2413   22.1181  -25.2250 C   0  0  0  0  0  0  0  0  0  0  0  0
    0.4816   22.2255  -26.3923 C   0  0  0  0  0  0  0  0  0  0  0  0
   -0.0991   22.6159  -27.5485 N   0  0  0  0  0  0  0  0  0  0  0  0
   -1.4299   22.9059  -27.5415 C   0  0  0  0  0  0  0  0  0  0  0  0
   -2.0503   23.3150  -28.7441 N   0  0  0  0  0  0  0  0  0  0  0  0
   -2.1737   22.8067  -26.3901 C   0  0  0  0  0  0  0  0  0  0  0  0
   -1.5490   22.4159  -25.2746 N   0  0  0  0  0  0  0  0  0  0  0  0
   -2.5142   22.5818  -29.3292 H   0  0  0  0  0  0  0  0  0  0  0  0
   -2.0357   24.3189  -29.0219 H   0  0  0  0  0  0  0  0  0  0  0  0
   -3.6066   23.1218  -26.4037 C   0  0  0  0  0  0  0  0  0  0  0  0
   -4.2469   23.2819  -27.6125 C   0  0  0  0  0  0  0  0  0  0  0  0
   -5.6104   23.5855  -27.7000 C   0  0  0  0  0  0  0  0  0  0  0  0
   -6.2514   23.7091  -26.4628 C   0  0  0  0  0  0  0  0  0  0  0  0
   -7.4816   23.9815  -26.4101 O   0  0  0  0  0  0  0  0  0  0  0  0
   -5.6050   23.5484  -25.3014 N   0  0  0  0  0  0  0  0  0  0  0  0
   -4.3005   23.2586  -25.2682 N   0  0  0  0  0  0  0  0  0  0  0  0
   -6.2836   23.6807  -24.0662 C   0  0  0  0  0  0  0  0  0  0  0  0
   -6.6292   22.5198  -23.3659 C   0  0  0  0  0  0  0  0  0  0  0  0
   -7.2925   22.5926  -22.1568 C   0  0  0  0  0  0  0  0  0  0  0  0
   -7.6274   23.8358  -21.6166 C   0  0  0  0  0  0  0  0  0  0  0  0
   -7.2927   24.9856  -22.2960 C   0  0  0  0  0  0  0  0  0  0  0  0
   -6.6383   24.8784  -23.4871 C   0  0  0  0  0  0  0  0  0  0  0  0
   -7.6576   21.4880  -21.4247 O   0  0  0  0  0  0  0  0  0  0  0  0
   -8.6071   21.5977  -20.4072 C   0  0  0  0  0  0  0  0  0  0  0  0
   -7.6130   26.2542  -21.7838 O   0  0  0  0  0  0  0  0  0  0  0  0
   -8.6478   26.4693  -20.8730 C   0  0  0  0  0  0  0  0  0  0  0  0
    0.5661   21.2025  -21.8411 N   0  0  0  0  0  0  0  0  0  0  0  0
   -0.3079   21.6140  -22.7538 C   0  0  0  0  0  0  0  0  0  0  0  0
    0.3501   21.7023  -23.9599 C   0  0  0  0  0  0  0  0  0  0  0  0
    1.6706   21.3217  -23.7283 C   0  0  0  0  0  0  0  0  0  0  0  0
    1.7398   21.0295  -22.4222 N   0  0  0  0  0  0  0  0  0  0  0  0
    1.5011   22.6070  -18.4530 N   0  0  0  0  0  0  0  0  0  0  0  0
    0.3773   23.1555  -19.1364 C   0  0  0  0  0  0  0  0  0  0  0  0
   -0.4664   22.1626  -19.8624 C   0  0  0  0  0  0  0  0  0  0  0  0
    0.2379   20.9885  -20.4230 C   0  0  0  0  0  0  0  0  0  0  0  0
    1.5248   20.6287  -19.7366 C   0  0  0  0  0  0  0  0  0  0  0  0
    2.2999   21.8895  -19.4552 C   0  0  0  0  0  0  0  0  0  0  0  0
    2.3742   23.6663  -17.9667 C   0  0  0  0  0  0  0  0  0  0  0  0
    3.0567   23.3107  -16.6933 C   0  0  0  0  0  0  0  0  0  0  0  0
    4.8781   24.7218  -16.7387 C   0  0  0  0  0  0  0  0  0  0  0  0
    4.4217   23.4433  -16.8247 O   0  0  0  0  0  0  0  0  0  0  0  0
 40 41  1  0  0  0
 41 39  1  0  0  0
 39 38  1  0  0  0
 38 32  1  0  0  0
 32 33  1  0  0  0
 33 34  1  0  0  0
 34 35  1  0  0  0
 35 36  1  0  0  0
 36 37  1  0  0  0
 35 27  1  0  0  0
 27 28  1  0  0  0
 28 29  2  0  0  0
 29 30  1  0  0  0
 30 31  2  0  0  0
 29  1  1  0  0  0
  1  2  2  0  0  0
  2  3  1  0  0  0
  3  4  2  0  0  0
  4  5  1  0  0  0
  4  6  1  0  0  0
  6  7  2  0  0  0
  6 10  1  0  0  0
 10 11  1  0  0  0
 11 12  2  0  0  0
 12 13  1  0  0  0
 13 14  2  0  0  0
 13 15  1  0  0  0
 15 16  1  0  0  0
 15 17  1  0  0  0
 17 18  2  0  0  0
 18 19  1  0  0  0
 19 23  1  0  0  0
 23 24  1  0  0  0
 19 20  2  0  0  0
 20 21  1  0  0  0
 21 25  1  0  0  0
 25 26  1  0  0  0
 21 22  2  0  0  0
 37 32  1  0  0  0
 31 27  1  0  0  0
  7  1  1  0  0  0
 16 10  2  0  0  0
 22 17  1  0  0  0
  5  8  1  0  0  0
  5  9  1  0  0  0
M  END
> <minimizedAffinity>
-8.85470

> <CNNscore>
0.4309489429

> <CNNaffinity>
7.3541274071

> <CNN_VS>
3.1692533493

> <CNNaffinity_variance>
0.1357431710

$$$$
[H]c1nc(N([H])[H])c(-c2nn(-c3c([H])c(OC([H])([H])[H])c([H])c(OC([H])([H])[H])c3[H])c(=O)c([H])c2[H])nc1-c1c([H])nn(C2([H])C([H])([H])C([H])([H])N(C([H])([H])C([H])([H])OC([H])([H])[H])C([H])([H])C2([H])[H])c1[H]


 41 45  0  0  0  0  0  0  0  0999 V2000
   -1.5688   22.6408  -25.9717 C   0  0  0  0  0  0  0  0  0  0  0  0
   -0.4267   22.4418  -26.7150 C   0  0  0  0  0  0  0  0  0  0  0  0
    0.7151   21.9934  -26.1478 N   0  0  0  0  0  0  0  0  0  0  0  0
    0.7190   21.7374  -24.8100 C   0  0  0  0  0  0  0  0  0  0  0  0
    1.9068   21.2683  -24.2036 N   0  0  0  0  0  0  0  0  0  0  0  0
   -0.4074   21.9277  -24.0459 C   0  0  0  0  0  0  0  0  0  0  0  0
   -1.5095   22.3728  -24.6579 N   0  0  0  0  0  0  0  0  0  0  0  0
    2.5467   21.9742  -23.7709 H   0  0  0  0  0  0  0  0  0  0  0  0
    2.1206   20.2487  -24.1977 H   0  0  0  0  0  0  0  0  0  0  0  0
   -0.3823   21.6478  -22.6059 C   0  0  0  0  0  0  0  0  0  0  0  0
   -1.5712   21.4444  -21.9410 C   0  0  0  0  0  0  0  0  0  0  0  0
   -1.6218   21.1756  -20.5684 C   0  0  0  0  0  0  0  0  0  0  0  0
   -0.3702   21.1338  -19.9452 C   0  0  0  0  0  0  0  0  0  0  0  0
   -0.2845   20.9003  -18.7089 O   0  0  0  0  0  0  0  0  0  0  0  0
    0.7713   21.3352  -20.6154 N   0  0  0  0  0  0  0  0  0  0  0  0
    0.7693   21.5890  -21.9278 N   0  0  0  0  0  0  0  0  0  0  0  0
    2.0219   21.2863  -19.9542 C   0  0  0  0  0  0  0  0  0  0  0  0
    2.4709   22.4320  -19.2883 C   0  0  0  0  0  0  0  0  0  0  0  0
    3.6839   22.4383  -18.6281 C   0  0  0  0  0  0  0  0  0  0  0  0
    4.4808   21.2918  -18.6183 C   0  0  0  0  0  0  0  0  0  0  0  0
    4.0500   20.1580  -19.2699 C   0  0  0  0  0  0  0  0  0  0  0  0
    2.8478   20.1855  -19.9119 C   0  0  0  0  0  0  0  0  0  0  0  0
    4.1766   23.5326  -17.9578 O   0  0  0  0  0  0  0  0  0  0  0  0
    3.5632   23.9773  -16.7853 C   0  0  0  0  0  0  0  0  0  0  0  0
    4.8245   18.9856  -19.2818 O   0  0  0  0  0  0  0  0  0  0  0  0
    5.0557   18.2133  -18.1430 C   0  0  0  0  0  0  0  0  0  0  0  0
   -4.7167   24.1823  -26.7816 N   0  0  0  0  0  0  0  0  0  0  0  0
   -3.7035   23.9854  -25.9444 C   0  0  0  0  0  0  0  0  0  0  0  0
   -2.8180   23.1211  -26.5480 C   0  0  0  0  0  0  0  0  0  0  0  0
   -3.3497   22.8052  -27.7968 C   0  0  0  0  0  0  0  0  0  0  0  0
   -4.5041   23.4806  -27.8806 N   0  0  0  0  0  0  0  0  0  0  0  0
   -6.9862   25.0311  -23.8739 N   0  0  0  0  0  0  0  0  0  0  0  0
   -5.8222   25.8244  -24.0897 C   0  0  0  0  0  0  0  0  0  0  0  0
   -5.5046   26.1034  -25.5200 C   0  0  0  0  0  0  0  0  0  0  0  0
   -5.8698   25.0486  -26.4910 C   0  0  0  0  0  0  0  0  0  0  0  0
   -6.9865   24.1419  -26.0582 C   0  0  0  0  0  0  0  0  0  0  0  0
   -6.7881   23.7758  -24.6103 C   0  0  0  0  0  0  0  0  0  0  0  0
   -7.0856   24.6337  -22.4764 C   0  0  0  0  0  0  0  0  0  0  0  0
   -6.0106   25.2221  -21.6327 C   0  0  0  0  0  0  0  0  0  0  0  0
   -4.6199   23.3988  -21.4045 C   0  0  0  0  0  0  0  0  0  0  0  0
   -5.4749   24.2658  -20.7982 O   0  0  0  0  0  0  0  0  0  0  0  0
 40 41  1  0  0  0
 41 39  1  0  0  0
 39 38  1  0  0  0
 38 32  1  0  0  0
 32 33  1  0  0  0
 33 34  1  0  0  0
 34 35  1  0  0  0
 35 36  1  0  0  0
 36 37  1  0  0  0
 35 27  1  0  0  0
 27 28  1  0  0  0
 28 29  2  0  0  0
 29 30  1  0  0  0
 30 31  2  0  0  0
 29  1  1  0  0  0
  1  2  2  0  0  0
  2  3  1  0  0  0
  3  4  2  0  0  0
  4  5  1  0  0  0
  4  6  1  0  0  0
  6  7  2  0  0  0
  6 10  1  0  0  0
 10 11  1  0  0  0
 11 12  2  0  0  0
 12 13  1  0  0  0
 13 14  2  0  0  0
 13 15  1  0  0  0
 15 16  1  0  0  0
 15 17  1  0  0  0
 17 18  2  0  0  0
 18 19  1  0  0  0
 19 23  1  0  0  0
 23 24  1  0  0  0
 19 20  2  0  0  0
 20 21  1  0  0  0
 21 25  1  0  0  0
 25 26  1  0  0  0
 21 22  2  0  0  0
 37 32  1  0  0  0
 31 27  1  0  0  0
  7  1  1  0  0  0
 16 10  2  0  0  0
 22 17  1  0  0  0
  5  8  1  0  0  0
  5  9  1  0  0  0
M  END
> <minimizedAffinity>
-7.45116

> <CNNscore>
0.4017734230

> <CNNaffinity>
7.3397164345

> <CNN_VS>
2.9489030838

> <CNNaffinity_variance>
0.1440207660

$$$$
[H]c1nc(N([H])[H])c(-c2nn(-c3c([H])c(OC([H])([H])[H])c([H])c(OC([H])([H])[H])c3[H])c(=O)c([H])c2[H])nc1-c1c([H])nn(C2([H])C([H])([H])C([H])([H])N(C([H])([H])C([H])([H])OC([H])([H])[H])C([H])([H])C2([H])[H])c1[H]


 41 45  0  0  0  0  0  0  0  0999 V2000
   -0.1258   21.6311  -23.7166 C   0  0  0  0  0  0  0  0  0  0  0  0
    0.8019   21.6861  -24.7329 C   0  0  0  0  0  0  0  0  0  0  0  0
    0.4576   22.0682  -25.9826 N   0  0  0  0  0  0  0  0  0  0  0  0
   -0.8402   22.4032  -26.2252 C   0  0  0  0  0  0  0  0  0  0  0  0
   -1.2143   22.8043  -27.5281 N   0  0  0  0  0  0  0  0  0  0  0  0
   -1.7852   22.3567  -25.2284 C   0  0  0  0  0  0  0  0  0  0  0  0
   -1.3903   21.9717  -24.0106 N   0  0  0  0  0  0  0  0  0  0  0  0
   -1.5906   22.0735  -28.1757 H   0  0  0  0  0  0  0  0  0  0  0  0
   -1.1113   23.8002  -27.8158 H   0  0  0  0  0  0  0  0  0  0  0  0
   -3.1785   22.7197  -25.5104 C   0  0  0  0  0  0  0  0  0  0  0  0
   -3.5770   22.8863  -26.8182 C   0  0  0  0  0  0  0  0  0  0  0  0
   -4.8889   23.2346  -27.1597 C   0  0  0  0  0  0  0  0  0  0  0  0
   -5.7438   23.3951  -26.0642 C   0  0  0  0  0  0  0  0  0  0  0  0
   -6.9519   23.7094  -26.2430 O   0  0  0  0  0  0  0  0  0  0  0  0
   -5.3306   23.2270  -24.8019 N   0  0  0  0  0  0  0  0  0  0  0  0
   -4.0661   22.8939  -24.5247 N   0  0  0  0  0  0  0  0  0  0  0  0
   -6.2218   23.3975  -23.7154 C   0  0  0  0  0  0  0  0  0  0  0  0
   -6.5657   24.6981  -23.3310 C   0  0  0  0  0  0  0  0  0  0  0  0
   -7.4304   24.9203  -22.2773 C   0  0  0  0  0  0  0  0  0  0  0  0
   -7.9747   23.8404  -21.5795 C   0  0  0  0  0  0  0  0  0  0  0  0
   -7.6441   22.5557  -21.9482 C   0  0  0  0  0  0  0  0  0  0  0  0
   -6.7877   22.3713  -22.9927 C   0  0  0  0  0  0  0  0  0  0  0  0
   -7.8040   26.1738  -21.8547 O   0  0  0  0  0  0  0  0  0  0  0  0
   -8.3964   26.3494  -20.6029 C   0  0  0  0  0  0  0  0  0  0  0  0
   -8.1719   21.4441  -21.2697 O   0  0  0  0  0  0  0  0  0  0  0  0
   -8.6268   21.5010  -19.9520 C   0  0  0  0  0  0  0  0  0  0  0  0
    1.3696   20.6440  -20.5972 N   0  0  0  0  0  0  0  0  0  0  0  0
    1.4766   20.9938  -21.8748 C   0  0  0  0  0  0  0  0  0  0  0  0
    0.2082   21.2258  -22.3573 C   0  0  0  0  0  0  0  0  0  0  0  0
   -0.6732   20.9977  -21.3023 C   0  0  0  0  0  0  0  0  0  0  0  0
    0.0923   20.6472  -20.2597 N   0  0  0  0  0  0  0  0  0  0  0  0
    3.2035   22.0811  -17.6142 N   0  0  0  0  0  0  0  0  0  0  0  0
    2.1394   21.1608  -17.3870 C   0  0  0  0  0  0  0  0  0  0  0  0
    2.0680   20.0270  -18.3534 C   0  0  0  0  0  0  0  0  0  0  0  0
    2.5146   20.3131  -19.7345 C   0  0  0  0  0  0  0  0  0  0  0  0
    3.4909   21.4469  -19.8675 C   0  0  0  0  0  0  0  0  0  0  0  0
    3.0456   22.5839  -18.9851 C   0  0  0  0  0  0  0  0  0  0  0  0
    3.0575   23.2554  -16.7655 C   0  0  0  0  0  0  0  0  0  0  0  0
    2.5601   22.9229  -15.4032 C   0  0  0  0  0  0  0  0  0  0  0  0
    4.5736   22.5288  -14.3539 C   0  0  0  0  0  0  0  0  0  0  0  0
    3.4703   23.3188  -14.4477 O   0  0  0  0  0  0  0  0  0  0  0  0
 40 41  1  0  0  0
 41 39  1  0  0  0
 39 38  1  0  0  0
 38 32  1  0  0  0
 32 33  1  0  0  0
 33 34  1  0  0  0
 34 35  1  0  0  0
 35 36  1  0  0  0
 36 37  1  0  0  0
 35 27  1  0  0  0
 27 28  1  0  0  0
 28 29  2  0  0  0
 29 30  1  0  0  0
 30 31  2  0  0  0
 29  1  1  0  0  0
  1  2  2  0  0  0
  2  3  1  0  0  0
  3  4  2  0  0  0
  4  5  1  0  0  0
  4  6  1  0  0  0
  6  7  2  0  0  0
  6 10  1  0  0  0
 10 11  1  0  0  0
 11 12  2  0  0  0
 12 13  1  0  0  0
 13 14  2  0  0  0
 13 15  1  0  0  0
 15 16  1  0  0  0
 15 17  1  0  0  0
 17 18  2  0  0  0
 18 19  1  0  0  0
 19 23  1  0  0  0
 23 24  1  0  0  0
 19 20  2  0  0  0
 20 21  1  0  0  0
 21 25  1  0  0  0
 25 26  1  0  0  0
 21 22  2  0  0  0
 37 32  1  0  0  0
 31 27  1  0  0  0
  7  1  1  0  0  0
 16 10  2  0  0  0
 22 17  1  0  0  0
  5  8  1  0  0  0
  5  9  1  0  0  0
M  END
> <minimizedAffinity>
-8.07309

> <CNNscore>
0.3652615845

> <CNNaffinity>
7.0656938553

> <CNN_VS>
2.5808265209

> <CNNaffinity_variance>
0.1509722322

$$$$
[H]c1nc(N([H])c2nn([H])c(C([H])([H])C([H])([H])c3c([H])c(OC([H])([H])[H])c([H])c(OC([H])([H])[H])c3[H])c2[H])c2c([H])c([H])c(N3C([H])([H])C([H])([H])N(C([H])(C([H])([H])[H])C([H])([H])[H])C([H])([H])C3([H])[H])c([H])c2n1


 39 43  0  0  0  0  0  0  0  0999 V2000
   -2.6495   22.7481  -28.5082 N   0  0  0  0  0  0  0  0  0  0  0  0
   -2.6811   21.9517  -29.1774 H   0  0  0  0  0  0  0  0  0  0  0  0
   -3.6383   23.7397  -28.3511 C   0  0  0  0  0  0  0  0  0  0  0  0
   -3.7598   24.7168  -29.2736 N   0  0  0  0  0  0  0  0  0  0  0  0
   -4.6769   25.6889  -29.1822 C   0  0  0  0  0  0  0  0  0  0  0  0
   -5.4986   25.6720  -28.1226 N   0  0  0  0  0  0  0  0  0  0  0  0
   -5.4460   24.7316  -27.1536 C   0  0  0  0  0  0  0  0  0  0  0  0
   -6.2910   24.7311  -26.0810 C   0  0  0  0  0  0  0  0  0  0  0  0
   -6.2597   23.7674  -25.0580 C   0  0  0  0  0  0  0  0  0  0  0  0
   -5.3007   22.7976  -25.2050 C   0  0  0  0  0  0  0  0  0  0  0  0
   -4.4223   22.7822  -26.3022 C   0  0  0  0  0  0  0  0  0  0  0  0
   -4.4824   23.7370  -27.2788 C   0  0  0  0  0  0  0  0  0  0  0  0
   -7.1811   23.8647  -23.9922 N   0  0  0  0  0  0  0  0  0  0  0  0
   -7.1884   22.9301  -22.9118 C   0  0  0  0  0  0  0  0  0  0  0  0
   -6.9519   23.7647  -21.6430 C   0  0  0  0  0  0  0  0  0  0  0  0
   -8.0120   24.6964  -21.4920 N   0  0  0  0  0  0  0  0  0  0  0  0
   -8.8742   24.8345  -22.6107 C   0  0  0  0  0  0  0  0  0  0  0  0
   -8.1652   24.9279  -23.9492 C   0  0  0  0  0  0  0  0  0  0  0  0
   -7.5328   25.9484  -20.9509 C   0  0  0  0  0  0  0  0  0  0  0  0
   -8.5971   26.8615  -20.4508 C   0  0  0  0  0  0  0  0  0  0  0  0
   -6.6101   25.6139  -19.7961 C   0  0  0  0  0  0  0  0  0  0  0  0
    0.0494   22.6970  -26.0949 C   0  0  0  0  0  0  0  0  0  0  0  0
   -1.3082   22.5644  -26.3518 C   0  0  0  0  0  0  0  0  0  0  0  0
   -1.4512   22.7690  -27.7031 C   0  0  0  0  0  0  0  0  0  0  0  0
   -0.2373   23.0088  -28.2084 N   0  0  0  0  0  0  0  0  0  0  0  0
    0.6839   22.9712  -27.2611 N   0  0  0  0  0  0  0  0  0  0  0  0
    1.7124   23.1184  -27.3502 H   0  0  0  0  0  0  0  0  0  0  0  0
    0.7254   22.5675  -24.7790 C   0  0  0  0  0  0  0  0  0  0  0  0
    0.0832   21.4288  -24.0345 C   0  0  0  0  0  0  0  0  0  0  0  0
   -0.6233   21.8911  -20.3443 C   0  0  0  0  0  0  0  0  0  0  0  0
   -0.0692   21.4462  -21.5247 C   0  0  0  0  0  0  0  0  0  0  0  0
   -0.5021   21.8977  -22.7458 C   0  0  0  0  0  0  0  0  0  0  0  0
   -1.5226   22.8252  -22.7989 C   0  0  0  0  0  0  0  0  0  0  0  0
   -2.0908   23.2831  -21.6217 C   0  0  0  0  0  0  0  0  0  0  0  0
   -1.6422   22.8177  -20.4081 C   0  0  0  0  0  0  0  0  0  0  0  0
    1.0293   21.7764  -18.5255 C   0  0  0  0  0  0  0  0  0  0  0  0
   -0.2086   21.4558  -19.1134 O   0  0  0  0  0  0  0  0  0  0  0  0
   -3.1187   24.2151  -21.6308 O   0  0  0  0  0  0  0  0  0  0  0  0
   -3.5717   24.8610  -22.7881 C   0  0  0  0  0  0  0  0  0  0  0  0
 36 37  1  0  0  0
 37 30  1  0  0  0
 30 31  2  0  0  0
 31 32  1  0  0  0
 32 29  1  0  0  0
 29 28  1  0  0  0
 28 22  1  0  0  0
 22 23  2  0  0  0
 23 24  1  0  0  0
 24  1  1  0  0  0
  1  3  1  0  0  0
  3  4  2  0  0  0
  4  5  1  0  0  0
  5  6  2  0  0  0
  6  7  1  0  0  0
  7  8  2  0  0  0
  8  9  1  0  0  0
  9 10  2  0  0  0
 10 11  1  0  0  0
 11 12  2  0  0  0
  9 13  1  0  0  0
 13 14  1  0  0  0
 14 15  1  0  0  0
 15 16  1  0  0  0
 16 17  1  0  0  0
 17 18  1  0  0  0
 16 19  1  0  0  0
 19 20  1  0  0  0
 19 21  1  0  0  0
 24 25  2  0  0  0
 25 26  1  0  0  0
 32 33  2  0  0  0
 33 34  1  0  0  0
 34 38  1  0  0  0
 38 39  1  0  0  0
 34 35  2  0  0  0
 35 30  1  0  0  0
 26 22  1  0  0  0
 12  3  1  0  0  0
 18 13  1  0  0  0
 12  7  1  0  0  0
  1  2  1  0  0  0
 26 27  1  0  0  0
M  END
> <minimizedAffinity>
-8.82201

> <CNNscore>
0.6421355009

> <CNNaffinity>
7.6083288193

> <CNN_VS>
4.8855781555

> <CNNaffinity_variance>
0.0654435977

$$$$
[H]c1nc(N([H])c2nn([H])c(C([H])([H])C([H])([H])c3c([H])c(OC([H])([H])[H])c([H])c(OC([H])([H])[H])c3[H])c2[H])c2c([H])c([H])c(N3C([H])([H])C([H])([H])N(C([H])(C([H])([H])[H])C([H])([H])[H])C([H])([H])C3([H])[H])c([H])c2n1


 39 43  0  0  0  0  0  0  0  0999 V2000
   -3.7183   22.7336  -28.8873 N   0  0  0  0  0  0  0  0  0  0  0  0
   -3.9600   21.8874  -29.4428 H   0  0  0  0  0  0  0  0  0  0  0  0
   -4.5745   23.8186  -28.6130 C   0  0  0  0  0  0  0  0  0  0  0  0
   -4.9637   24.6349  -29.6145 N   0  0  0  0  0  0  0  0  0  0  0  0
   -5.7742   25.6836  -29.4203 C   0  0  0  0  0  0  0  0  0  0  0  0
   -6.2056   25.9144  -28.1717 N   0  0  0  0  0  0  0  0  0  0  0  0
   -5.8653   25.1479  -27.1121 C   0  0  0  0  0  0  0  0  0  0  0  0
   -6.3141   25.3988  -25.8471 C   0  0  0  0  0  0  0  0  0  0  0  0
   -5.9771   24.6203  -24.7262 C   0  0  0  0  0  0  0  0  0  0  0  0
   -5.1450   23.5609  -24.9858 C   0  0  0  0  0  0  0  0  0  0  0  0
   -4.6732   23.2873  -26.2812 C   0  0  0  0  0  0  0  0  0  0  0  0
   -5.0226   24.0674  -27.3482 C   0  0  0  0  0  0  0  0  0  0  0  0
   -6.4975   24.9727  -23.4615 N   0  0  0  0  0  0  0  0  0  0  0  0
   -7.8476   25.4086  -23.2947 C   0  0  0  0  0  0  0  0  0  0  0  0
   -8.4860   24.4086  -22.3176 C   0  0  0  0  0  0  0  0  0  0  0  0
   -7.7973   24.4619  -21.0776 N   0  0  0  0  0  0  0  0  0  0  0  0
   -6.5774   25.1871  -21.0818 C   0  0  0  0  0  0  0  0  0  0  0  0
   -5.6761   24.9039  -22.2694 C   0  0  0  0  0  0  0  0  0  0  0  0
   -7.7094   23.1516  -20.4732 C   0  0  0  0  0  0  0  0  0  0  0  0
   -8.7935   22.8369  -19.5025 C   0  0  0  0  0  0  0  0  0  0  0  0
   -7.7648   22.1352  -21.5960 C   0  0  0  0  0  0  0  0  0  0  0  0
   -0.5006   22.3964  -27.2615 C   0  0  0  0  0  0  0  0  0  0  0  0
   -1.8513   22.0777  -27.2851 C   0  0  0  0  0  0  0  0  0  0  0  0
   -2.3641   22.7194  -28.3867 C   0  0  0  0  0  0  0  0  0  0  0  0
   -1.3619   23.3791  -28.9758 N   0  0  0  0  0  0  0  0  0  0  0  0
   -0.2291   23.2011  -28.3181 N   0  0  0  0  0  0  0  0  0  0  0  0
    0.7148   23.5871  -28.5358 H   0  0  0  0  0  0  0  0  0  0  0  0
    0.5043   21.9498  -26.2634 C   0  0  0  0  0  0  0  0  0  0  0  0
    0.4561   22.8977  -25.0963 C   0  0  0  0  0  0  0  0  0  0  0  0
   -2.1664   21.8641  -22.5695 C   0  0  0  0  0  0  0  0  0  0  0  0
   -1.5560   22.4530  -23.6553 C   0  0  0  0  0  0  0  0  0  0  0  0
   -0.2238   22.2694  -23.9274 C   0  0  0  0  0  0  0  0  0  0  0  0
    0.5317   21.4721  -23.0920 C   0  0  0  0  0  0  0  0  0  0  0  0
   -0.0663   20.8725  -21.9959 C   0  0  0  0  0  0  0  0  0  0  0  0
   -1.4030   21.0694  -21.7410 C   0  0  0  0  0  0  0  0  0  0  0  0
   -4.0816   21.7486  -21.0297 C   0  0  0  0  0  0  0  0  0  0  0  0
   -3.4941   22.0318  -22.2769 O   0  0  0  0  0  0  0  0  0  0  0  0
    0.6573   20.0638  -21.1312 O   0  0  0  0  0  0  0  0  0  0  0  0
    1.9754   20.3293  -20.7389 C   0  0  0  0  0  0  0  0  0  0  0  0
 36 37  1  0  0  0
 37 30  1  0  0  0
 30 31  2  0  0  0
 31 32  1  0  0  0
 32 29  1  0  0  0
 29 28  1  0  0  0
 28 22  1  0  0  0
 22 23  2  0  0  0
 23 24  1  0  0  0
 24  1  1  0  0  0
  1  3  1  0  0  0
  3  4  2  0  0  0
  4  5  1  0  0  0
  5  6  2  0  0  0
  6  7  1  0  0  0
  7  8  2  0  0  0
  8  9  1  0  0  0
  9 10  2  0  0  0
 10 11  1  0  0  0
 11 12  2  0  0  0
  9 13  1  0  0  0
 13 14  1  0  0  0
 14 15  1  0  0  0
 15 16  1  0  0  0
 16 17  1  0  0  0
 17 18  1  0  0  0
 16 19  1  0  0  0
 19 20  1  0  0  0
 19 21  1  0  0  0
 24 25  2  0  0  0
 25 26  1  0  0  0
 32 33  2  0  0  0
 33 34  1  0  0  0
 34 38  1  0  0  0
 38 39  1  0  0  0
 34 35  2  0  0  0
 35 30  1  0  0  0
 26 22  1  0  0  0
 12  3  1  0  0  0
 18 13  1  0  0  0
 12  7  1  0  0  0
  1  2  1  0  0  0
 26 27  1  0  0  0
M  END
> <minimizedAffinity>
-8.56233

> <CNNscore>
0.5847690701

> <CNNaffinity>
7.8001542091

> <CNN_VS>
4.5612888336

> <CNNaffinity_variance>
0.2832865715

$$$$
[H]c1nc(N([H])c2nn([H])c(C([H])([H])C([H])([H])c3c([H])c(OC([H])([H])[H])c([H])c(OC([H])([H])[H])c3[H])c2[H])c2c([H])c([H])c(N3C([H])([H])C([H])([H])N(C([H])(C([H])([H])[H])C([H])([H])[H])C([H])([H])C3([H])[H])c([H])c2n1


 39 43  0  0  0  0  0  0  0  0999 V2000
   -3.5586   22.6557  -26.7832 N   0  0  0  0  0  0  0  0  0  0  0  0
   -4.1830   21.8375  -26.9371 H   0  0  0  0  0  0  0  0  0  0  0  0
   -2.1557   22.6654  -26.9151 C   0  0  0  0  0  0  0  0  0  0  0  0
   -1.5953   23.0371  -28.0849 N   0  0  0  0  0  0  0  0  0  0  0  0
   -0.2697   23.0663  -28.2756 C   0  0  0  0  0  0  0  0  0  0  0  0
    0.5152   22.7077  -27.2491 N   0  0  0  0  0  0  0  0  0  0  0  0
    0.0378   22.3227  -26.0450 C   0  0  0  0  0  0  0  0  0  0  0  0
    0.8528   21.9602  -25.0111 C   0  0  0  0  0  0  0  0  0  0  0  0
    0.3856   21.5550  -23.7487 C   0  0  0  0  0  0  0  0  0  0  0  0
   -0.9794   21.5447  -23.6122 C   0  0  0  0  0  0  0  0  0  0  0  0
   -1.8338   21.9145  -24.6652 C   0  0  0  0  0  0  0  0  0  0  0  0
   -1.3428   22.3035  -25.8804 C   0  0  0  0  0  0  0  0  0  0  0  0
    1.3194   21.1991  -22.7508 N   0  0  0  0  0  0  0  0  0  0  0  0
    0.9389   21.0355  -21.3836 C   0  0  0  0  0  0  0  0  0  0  0  0
    1.3046   19.5865  -21.0244 C   0  0  0  0  0  0  0  0  0  0  0  0
    2.7054   19.4085  -21.1678 N   0  0  0  0  0  0  0  0  0  0  0  0
    3.3956   20.4608  -21.8237 C   0  0  0  0  0  0  0  0  0  0  0  0
    2.7148   20.9810  -23.0762 C   0  0  0  0  0  0  0  0  0  0  0  0
    3.0147   18.0888  -21.6704 C   0  0  0  0  0  0  0  0  0  0  0  0
    4.4411   17.8798  -22.0420 C   0  0  0  0  0  0  0  0  0  0  0  0
    2.6557   17.0985  -20.5807 C   0  0  0  0  0  0  0  0  0  0  0  0
   -5.6062   25.3569  -25.5096 C   0  0  0  0  0  0  0  0  0  0  0  0
   -5.2829   24.0073  -25.4858 C   0  0  0  0  0  0  0  0  0  0  0  0
   -4.2707   23.8525  -26.4023 C   0  0  0  0  0  0  0  0  0  0  0  0
   -4.0169   25.0524  -26.9336 N   0  0  0  0  0  0  0  0  0  0  0  0
   -4.8072   25.9755  -26.4133 N   0  0  0  0  0  0  0  0  0  0  0  0
   -4.8425   26.9953  -26.6281 H   0  0  0  0  0  0  0  0  0  0  0  0
   -6.6449   26.0401  -24.6974 C   0  0  0  0  0  0  0  0  0  0  0  0
   -7.6599   25.0122  -24.2774 C   0  0  0  0  0  0  0  0  0  0  0  0
   -7.7239   25.5598  -20.5322 C   0  0  0  0  0  0  0  0  0  0  0  0
   -7.2725   25.3270  -21.8130 C   0  0  0  0  0  0  0  0  0  0  0  0
   -8.1275   25.2636  -22.8841 C   0  0  0  0  0  0  0  0  0  0  0  0
   -9.4809   25.4377  -22.6780 C   0  0  0  0  0  0  0  0  0  0  0  0
   -9.9516   25.6726  -21.3968 C   0  0  0  0  0  0  0  0  0  0  0  0
   -9.0777   25.7324  -20.3369 C   0  0  0  0  0  0  0  0  0  0  0  0
   -6.4657   24.5182  -18.6926 C   0  0  0  0  0  0  0  0  0  0  0  0
   -6.8907   25.6277  -19.4471 O   0  0  0  0  0  0  0  0  0  0  0  0
  -11.3044   25.8530  -21.1463 O   0  0  0  0  0  0  0  0  0  0  0  0
  -11.8851   25.7163  -19.8791 C   0  0  0  0  0  0  0  0  0  0  0  0
 36 37  1  0  0  0
 37 30  1  0  0  0
 30 31  2  0  0  0
 31 32  1  0  0  0
 32 29  1  0  0  0
 29 28  1  0  0  0
 28 22  1  0  0  0
 22 23  2  0  0  0
 23 24  1  0  0  0
 24  1  1  0  0  0
  1  3  1  0  0  0
  3  4  2  0  0  0
  4  5  1  0  0  0
  5  6  2  0  0  0
  6  7  1  0  0  0
  7  8  2  0  0  0
  8  9  1  0  0  0
  9 10  2  0  0  0
 10 11  1  0  0  0
 11 12  2  0  0  0
  9 13  1  0  0  0
 13 14  1  0  0  0
 14 15  1  0  0  0
 15 16  1  0  0  0
 16 17  1  0  0  0
 17 18  1  0  0  0
 16 19  1  0  0  0
 19 20  1  0  0  0
 19 21  1  0  0  0
 24 25  2  0  0  0
 25 26  1  0  0  0
 32 33  2  0  0  0
 33 34  1  0  0  0
 34 38  1  0  0  0
 38 39  1  0  0  0
 34 35  2  0  0  0
 35 30  1  0  0  0
 26 22  1  0  0  0
 12  3  1  0  0  0
 18 13  1  0  0  0
 12  7  1  0  0  0
  1  2  1  0  0  0
 26 27  1  0  0  0
M  END
> <minimizedAffinity>
-8.82585

> <CNNscore>
0.4572803378

> <CNNaffinity>
7.2345061302

> <CNN_VS>
3.3081974983

> <CNNaffinity_variance>
0.1184580773

$$$$
[H]c1nc(N([H])c2nn([H])c(C([H])([H])C([H])([H])c3c([H])c(OC([H])([H])[H])c([H])c(OC([H])([H])[H])c3[H])c2[H])c2c([H])c([H])c(N3C([H])([H])C([H])([H])N(C([H])(C([H])([H])[H])C([H])([H])[H])C([H])([H])C3([H])[H])c([H])c2n1


 39 43  0  0  0  0  0  0  0  0999 V2000
   -3.5324   22.5419  -27.4299 N   0  0  0  0  0  0  0  0  0  0  0  0
   -4.0626   21.7575  -27.8617 H   0  0  0  0  0  0  0  0  0  0  0  0
   -2.1297   22.6544  -27.3566 C   0  0  0  0  0  0  0  0  0  0  0  0
   -1.4360   23.0948  -28.4269 N   0  0  0  0  0  0  0  0  0  0  0  0
   -0.1026   23.2227  -28.4228 C   0  0  0  0  0  0  0  0  0  0  0  0
    0.5510   22.8943  -27.2988 N   0  0  0  0  0  0  0  0  0  0  0  0
   -0.0647   22.4455  -26.1827 C   0  0  0  0  0  0  0  0  0  0  0  0
    0.6179   22.1152  -25.0472 C   0  0  0  0  0  0  0  0  0  0  0  0
    0.0054   21.6455  -23.8722 C   0  0  0  0  0  0  0  0  0  0  0  0
   -1.3605   21.5351  -23.9354 C   0  0  0  0  0  0  0  0  0  0  0  0
   -2.0797   21.8704  -25.0955 C   0  0  0  0  0  0  0  0  0  0  0  0
   -1.4493   22.3244  -26.2205 C   0  0  0  0  0  0  0  0  0  0  0  0
    0.8099   21.3310  -22.7549 N   0  0  0  0  0  0  0  0  0  0  0  0
    0.2722   21.2565  -21.4336 C   0  0  0  0  0  0  0  0  0  0  0  0
    0.5561   19.8244  -20.9531 C   0  0  0  0  0  0  0  0  0  0  0  0
    1.9590   19.6105  -20.9240 N   0  0  0  0  0  0  0  0  0  0  0  0
    2.7469   20.6082  -21.5547 C   0  0  0  0  0  0  0  0  0  0  0  0
    2.2270   21.0665  -22.9047 C   0  0  0  0  0  0  0  0  0  0  0  0
    2.2884   18.2575  -21.3120 C   0  0  0  0  0  0  0  0  0  0  0  0
    3.5836   17.7521  -20.7795 C   0  0  0  0  0  0  0  0  0  0  0  0
    1.1795   17.3611  -20.7986 C   0  0  0  0  0  0  0  0  0  0  0  0
   -5.9869   24.7394  -25.9273 C   0  0  0  0  0  0  0  0  0  0  0  0
   -5.6097   23.4482  -26.2694 C   0  0  0  0  0  0  0  0  0  0  0  0
   -4.3833   23.5693  -26.8775 C   0  0  0  0  0  0  0  0  0  0  0  0
   -4.0619   24.8666  -26.8890 N   0  0  0  0  0  0  0  0  0  0  0  0
   -5.0105   25.5927  -26.3230 N   0  0  0  0  0  0  0  0  0  0  0  0
   -5.0420   26.6260  -26.1863 H   0  0  0  0  0  0  0  0  0  0  0  0
   -7.2394   25.1518  -25.2443 C   0  0  0  0  0  0  0  0  0  0  0  0
   -6.8740   25.7075  -23.8950 C   0  0  0  0  0  0  0  0  0  0  0  0
   -4.6833   23.6267  -21.6142 C   0  0  0  0  0  0  0  0  0  0  0  0
   -5.1210   24.6328  -22.4477 C   0  0  0  0  0  0  0  0  0  0  0  0
   -6.3810   24.6294  -22.9906 C   0  0  0  0  0  0  0  0  0  0  0  0
   -7.2396   23.5898  -22.6962 C   0  0  0  0  0  0  0  0  0  0  0  0
   -6.8156   22.5704  -21.8600 C   0  0  0  0  0  0  0  0  0  0  0  0
   -5.5486   22.5927  -21.3263 C   0  0  0  0  0  0  0  0  0  0  0  0
   -2.8958   22.5325  -20.3260 C   0  0  0  0  0  0  0  0  0  0  0  0
   -3.4307   23.6076  -21.0600 O   0  0  0  0  0  0  0  0  0  0  0  0
   -7.6472   21.5071  -21.5387 O   0  0  0  0  0  0  0  0  0  0  0  0
   -8.6692   21.5809  -20.5839 C   0  0  0  0  0  0  0  0  0  0  0  0
 36 37  1  0  0  0
 37 30  1  0  0  0
 30 31  2  0  0  0
 31 32  1  0  0  0
 32 29  1  0  0  0
 29 28  1  0  0  0
 28 22  1  0  0  0
 22 23  2  0  0  0
 23 24  1  0  0  0
 24  1  1  0  0  0
  1  3  1  0  0  0
  3  4  2  0  0  0
  4  5  1  0  0  0
  5  6  2  0  0  0
  6  7  1  0  0  0
  7  8  2  0  0  0
  8  9  1  0  0  0
  9 10  2  0  0  0
 10 11  1  0  0  0
 11 12  2  0  0  0
  9 13  1  0  0  0
 13 14  1  0  0  0
 14 15  1  0  0  0
 15 16  1  0  0  0
 16 17  1  0  0  0
 17 18  1  0  0  0
 16 19  1  0  0  0
 19 20  1  0  0  0
 19 21  1  0  0  0
 24 25  2  0  0  0
 25 26  1  0  0  0
 32 33  2  0  0  0
 33 34  1  0  0  0
 34 38  1  0  0  0
 38 39  1  0  0  0
 34 35  2  0  0  0
 35 30  1  0  0  0
 26 22  1  0  0  0
 12  3  1  0  0  0
 18 13  1  0  0  0
 12  7  1  0  0  0
  1  2  1  0  0  0
 26 27  1  0  0  0
M  END
> <minimizedAffinity>
-8.81548

> <CNNscore>
0.3794453740

> <CNNaffinity>
7.3947691917

> <CNN_VS>
2.8059110641

> <CNNaffinity_variance>
0.0778187290

$$$$
[H]c1nc(N([H])c2nn([H])c(C([H])([H])C([H])([H])c3c([H])c(OC([H])([H])[H])c([H])c(OC([H])([H])[H])c3[H])c2[H])c2c([H])c([H])c(N3C([H])([H])C([H])([H])N(C([H])(C([H])([H])[H])C([H])([H])[H])C([H])([H])C3([H])[H])c([H])c2n1


 39 43  0  0  0  0  0  0  0  0999 V2000
   -3.5490   22.5521  -27.7140 N   0  0  0  0  0  0  0  0  0  0  0  0
   -4.0266   21.8008  -28.2530 H   0  0  0  0  0  0  0  0  0  0  0  0
   -2.1577   22.6932  -27.5411 C   0  0  0  0  0  0  0  0  0  0  0  0
   -1.4015   23.1678  -28.5529 N   0  0  0  0  0  0  0  0  0  0  0  0
   -0.0748   23.3241  -28.4536 C   0  0  0  0  0  0  0  0  0  0  0  0
    0.5065   22.9893  -27.2924 N   0  0  0  0  0  0  0  0  0  0  0  0
   -0.1749   22.5072  -26.2296 C   0  0  0  0  0  0  0  0  0  0  0  0
    0.4345   22.1708  -25.0549 C   0  0  0  0  0  0  0  0  0  0  0  0
   -0.2473   21.6668  -23.9336 C   0  0  0  0  0  0  0  0  0  0  0  0
   -1.6027   21.5283  -24.0938 C   0  0  0  0  0  0  0  0  0  0  0  0
   -2.2471   21.8693  -25.2955 C   0  0  0  0  0  0  0  0  0  0  0  0
   -1.5505   22.3571  -26.3660 C   0  0  0  0  0  0  0  0  0  0  0  0
    0.4846   21.3492  -22.7683 N   0  0  0  0  0  0  0  0  0  0  0  0
   -0.1284   21.3080  -21.4787 C   0  0  0  0  0  0  0  0  0  0  0  0
    0.0910   19.8767  -20.9634 C   0  0  0  0  0  0  0  0  0  0  0  0
    1.4840   19.6284  -20.8518 N   0  0  0  0  0  0  0  0  0  0  0  0
    2.3317   20.5965  -21.4504 C   0  0  0  0  0  0  0  0  0  0  0  0
    1.9006   21.0471  -22.8338 C   0  0  0  0  0  0  0  0  0  0  0  0
    1.7998   18.2618  -21.2020 C   0  0  0  0  0  0  0  0  0  0  0  0
    3.0768   17.7498  -20.6332 C   0  0  0  0  0  0  0  0  0  0  0  0
    0.6677   17.3945  -20.6893 C   0  0  0  0  0  0  0  0  0  0  0  0
   -6.1539   24.5229  -26.1514 C   0  0  0  0  0  0  0  0  0  0  0  0
   -5.7093   23.2797  -26.5794 C   0  0  0  0  0  0  0  0  0  0  0  0
   -4.4645   23.4972  -27.1194 C   0  0  0  0  0  0  0  0  0  0  0  0
   -4.1971   24.8023  -27.0114 N   0  0  0  0  0  0  0  0  0  0  0  0
   -5.1981   25.4425  -26.4321 N   0  0  0  0  0  0  0  0  0  0  0  0
   -5.2783   26.4590  -26.2137 H   0  0  0  0  0  0  0  0  0  0  0  0
   -7.4502   24.8295  -25.4948 C   0  0  0  0  0  0  0  0  0  0  0  0
   -7.1601   25.4983  -24.1789 C   0  0  0  0  0  0  0  0  0  0  0  0
   -6.7184   22.5796  -21.8090 C   0  0  0  0  0  0  0  0  0  0  0  0
   -7.2766   23.4630  -22.7070 C   0  0  0  0  0  0  0  0  0  0  0  0
   -6.5749   24.5306  -23.2071 C   0  0  0  0  0  0  0  0  0  0  0  0
   -5.2708   24.7302  -22.8020 C   0  0  0  0  0  0  0  0  0  0  0  0
   -4.6944   23.8516  -21.8997 C   0  0  0  0  0  0  0  0  0  0  0  0
   -5.4151   22.7877  -21.4105 C   0  0  0  0  0  0  0  0  0  0  0  0
   -8.6708   21.5754  -20.6991 C   0  0  0  0  0  0  0  0  0  0  0  0
   -7.3979   21.5067  -21.2957 O   0  0  0  0  0  0  0  0  0  0  0  0
   -3.3864   24.0162  -21.4667 O   0  0  0  0  0  0  0  0  0  0  0  0
   -2.3090   24.2663  -22.3261 C   0  0  0  0  0  0  0  0  0  0  0  0
 36 37  1  0  0  0
 37 30  1  0  0  0
 30 31  2  0  0  0
 31 32  1  0  0  0
 32 29  1  0  0  0
 29 28  1  0  0  0
 28 22  1  0  0  0
 22 23  2  0  0  0
 23 24  1  0  0  0
 24  1  1  0  0  0
  1  3  1  0  0  0
  3  4  2  0  0  0
  4  5  1  0  0  0
  5  6  2  0  0  0
  6  7  1  0  0  0
  7  8  2  0  0  0
  8  9  1  0  0  0
  9 10  2  0  0  0
 10 11  1  0  0  0
 11 12  2  0  0  0
  9 13  1  0  0  0
 13 14  1  0  0  0
 14 15  1  0  0  0
 15 16  1  0  0  0
 16 17  1  0  0  0
 17 18  1  0  0  0
 16 19  1  0  0  0
 19 20  1  0  0  0
 19 21  1  0  0  0
 24 25  2  0  0  0
 25 26  1  0  0  0
 32 33  2  0  0  0
 33 34  1  0  0  0
 34 38  1  0  0  0
 38 39  1  0  0  0
 34 35  2  0  0  0
 35 30  1  0  0  0
 26 22  1  0  0  0
 12  3  1  0  0  0
 18 13  1  0  0  0
 12  7  1  0  0  0
  1  2  1  0  0  0
 26 27  1  0  0  0
M  END
> <minimizedAffinity>
-8.74043

> <CNNscore>
0.3675683141

> <CNNaffinity>
7.3607764244

> <CNN_VS>
2.7055881023

> <CNNaffinity_variance>
0.0699070916

$$$$
[H]c1nc(N([H])c2nn([H])c(C([H])([H])C([H])([H])c3c([H])c(OC([H])([H])[H])c([H])c(OC([H])([H])[H])c3[H])c2[H])c2c([H])c([H])c(N3C([H])([H])C([H])([H])N(C([H])(C([H])([H])[H])C([H])([H])[H])C([H])([H])C3([H])[H])c([H])c2n1


 39 43  0  0  0  0  0  0  0  0999 V2000
    1.1405   21.7608  -24.4267 N   0  0  0  0  0  0  0  0  0  0  0  0
    1.5400   21.8639  -25.3820 H   0  0  0  0  0  0  0  0  0  0  0  0
   -0.1292   22.2042  -24.0058 C   0  0  0  0  0  0  0  0  0  0  0  0
   -0.3678   22.4039  -22.6929 N   0  0  0  0  0  0  0  0  0  0  0  0
   -1.5522   22.8226  -22.2278 C   0  0  0  0  0  0  0  0  0  0  0  0
   -2.5277   23.0468  -23.1203 N   0  0  0  0  0  0  0  0  0  0  0  0
   -2.3743   22.8725  -24.4515 C   0  0  0  0  0  0  0  0  0  0  0  0
   -3.3797   23.1054  -25.3456 C   0  0  0  0  0  0  0  0  0  0  0  0
   -3.2501   22.9324  -26.7346 C   0  0  0  0  0  0  0  0  0  0  0  0
   -2.0161   22.5026  -27.1521 C   0  0  0  0  0  0  0  0  0  0  0  0
   -0.9694   22.2577  -26.2465 C   0  0  0  0  0  0  0  0  0  0  0  0
   -1.1325   22.4371  -24.9010 C   0  0  0  0  0  0  0  0  0  0  0  0
   -4.3580   23.2012  -27.5682 N   0  0  0  0  0  0  0  0  0  0  0  0
   -5.5533   23.8011  -27.0664 C   0  0  0  0  0  0  0  0  0  0  0  0
   -5.7314   25.0995  -27.8695 C   0  0  0  0  0  0  0  0  0  0  0  0
   -5.8826   24.7818  -29.2445 N   0  0  0  0  0  0  0  0  0  0  0  0
   -5.5925   23.4393  -29.6016 C   0  0  0  0  0  0  0  0  0  0  0  0
   -4.3266   22.8781  -28.9808 C   0  0  0  0  0  0  0  0  0  0  0  0
   -5.2442   25.7723  -30.0819 C   0  0  0  0  0  0  0  0  0  0  0  0
   -3.7595   25.8142  -29.9797 C   0  0  0  0  0  0  0  0  0  0  0  0
   -5.6146   25.4529  -31.5163 C   0  0  0  0  0  0  0  0  0  0  0  0
    2.9540   19.9966  -21.8363 C   0  0  0  0  0  0  0  0  0  0  0  0
    1.7405   20.4703  -22.3153 C   0  0  0  0  0  0  0  0  0  0  0  0
    2.0295   21.0923  -23.5061 C   0  0  0  0  0  0  0  0  0  0  0  0
    3.3460   20.9862  -23.7108 N   0  0  0  0  0  0  0  0  0  0  0  0
    3.9261   20.3308  -22.7202 N   0  0  0  0  0  0  0  0  0  0  0  0
    4.9348   20.0944  -22.6017 H   0  0  0  0  0  0  0  0  0  0  0  0
    3.1845   19.2481  -20.5746 C   0  0  0  0  0  0  0  0  0  0  0  0
    4.1449   20.0407  -19.7305 C   0  0  0  0  0  0  0  0  0  0  0  0
    3.2170   23.1917  -17.8489 C   0  0  0  0  0  0  0  0  0  0  0  0
    3.9026   22.2902  -18.6336 C   0  0  0  0  0  0  0  0  0  0  0  0
    3.4189   21.0312  -18.8850 C   0  0  0  0  0  0  0  0  0  0  0  0
    2.2101   20.6513  -18.3381 C   0  0  0  0  0  0  0  0  0  0  0  0
    1.5080   21.5453  -17.5468 C   0  0  0  0  0  0  0  0  0  0  0  0
    2.0105   22.8025  -17.3072 C   0  0  0  0  0  0  0  0  0  0  0  0
    4.6798   24.7593  -16.6426 C   0  0  0  0  0  0  0  0  0  0  0  0
    3.6787   24.4538  -17.5835 O   0  0  0  0  0  0  0  0  0  0  0  0
    0.2894   21.2033  -16.9780 O   0  0  0  0  0  0  0  0  0  0  0  0
   -0.9377   21.7391  -17.3890 C   0  0  0  0  0  0  0  0  0  0  0  0
 36 37  1  0  0  0
 37 30  1  0  0  0
 30 31  2  0  0  0
 31 32  1  0  0  0
 32 29  1  0  0  0
 29 28  1  0  0  0
 28 22  1  0  0  0
 22 23  2  0  0  0
 23 24  1  0  0  0
 24  1  1  0  0  0
  1  3  1  0  0  0
  3  4  2  0  0  0
  4  5  1  0  0  0
  5  6  2  0  0  0
  6  7  1  0  0  0
  7  8  2  0  0  0
  8  9  1  0  0  0
  9 10  2  0  0  0
 10 11  1  0  0  0
 11 12  2  0  0  0
  9 13  1  0  0  0
 13 14  1  0  0  0
 14 15  1  0  0  0
 15 16  1  0  0  0
 16 17  1  0  0  0
 17 18  1  0  0  0
 16 19  1  0  0  0
 19 20  1  0  0  0
 19 21  1  0  0  0
 24 25  2  0  0  0
 25 26  1  0  0  0
 32 33  2  0  0  0
 33 34  1  0  0  0
 34 38  1  0  0  0
 38 39  1  0  0  0
 34 35  2  0  0  0
 35 30  1  0  0  0
 26 22  1  0  0  0
 12  3  1  0  0  0
 18 13  1  0  0  0
 12  7  1  0  0  0
  1  2  1  0  0  0
 26 27  1  0  0  0
M  END
> <minimizedAffinity>
-8.81316

> <CNNscore>
0.2482905835

> <CNNaffinity>
6.5914573669

> <CNN_VS>
1.6365967989

> <CNNaffinity_variance>
0.2927561402

$$$$
[H]c1nc(N([H])c2nn([H])c(C([H])([H])C([H])([H])c3c([H])c(OC([H])([H])[H])c([H])c(OC([H])([H])[H])c3[H])c2[H])c2c([H])c([H])c(N3C([H])([H])C([H])([H])N(C([H])(C([H])([H])[H])C([H])([H])[H])C([H])([H])C3([H])[H])c([H])c2n1


 39 43  0  0  0  0  0  0  0  0999 V2000
    1.0491   21.6864  -24.3893 N   0  0  0  0  0  0  0  0  0  0  0  0
    1.4184   21.6745  -25.3621 H   0  0  0  0  0  0  0  0  0  0  0  0
   -0.2122   22.1687  -23.9863 C   0  0  0  0  0  0  0  0  0  0  0  0
   -0.4558   22.3969  -22.6790 N   0  0  0  0  0  0  0  0  0  0  0  0
   -1.6327   22.8532  -22.2307 C   0  0  0  0  0  0  0  0  0  0  0  0
   -2.5953   23.0865  -23.1348 N   0  0  0  0  0  0  0  0  0  0  0  0
   -2.4362   22.8854  -24.4616 C   0  0  0  0  0  0  0  0  0  0  0  0
   -3.4286   23.1280  -25.3676 C   0  0  0  0  0  0  0  0  0  0  0  0
   -3.2927   22.9279  -26.7524 C   0  0  0  0  0  0  0  0  0  0  0  0
   -2.0668   22.4601  -27.1525 C   0  0  0  0  0  0  0  0  0  0  0  0
   -1.0336   22.2046  -26.2343 C   0  0  0  0  0  0  0  0  0  0  0  0
   -1.2025   22.4113  -24.8935 C   0  0  0  0  0  0  0  0  0  0  0  0
   -4.3870   23.2100  -27.5993 N   0  0  0  0  0  0  0  0  0  0  0  0
   -5.5891   23.8053  -27.1081 C   0  0  0  0  0  0  0  0  0  0  0  0
   -5.7526   25.1148  -27.8960 C   0  0  0  0  0  0  0  0  0  0  0  0
   -5.8828   24.8161  -29.2775 N   0  0  0  0  0  0  0  0  0  0  0  0
   -5.5893   23.4781  -29.6483 C   0  0  0  0  0  0  0  0  0  0  0  0
   -4.3341   22.9063  -29.0156 C   0  0  0  0  0  0  0  0  0  0  0  0
   -5.2299   25.8168  -30.0911 C   0  0  0  0  0  0  0  0  0  0  0  0
   -3.7449   25.8363  -29.9863 C   0  0  0  0  0  0  0  0  0  0  0  0
   -5.6024   25.5354  -31.5329 C   0  0  0  0  0  0  0  0  0  0  0  0
    2.9738   20.3325  -21.6373 C   0  0  0  0  0  0  0  0  0  0  0  0
    1.7571   20.8075  -22.1069 C   0  0  0  0  0  0  0  0  0  0  0  0
    1.9727   21.1421  -23.4221 C   0  0  0  0  0  0  0  0  0  0  0  0
    3.2515   20.8753  -23.7049 N   0  0  0  0  0  0  0  0  0  0  0  0
    3.8764   20.3868  -22.6474 N   0  0  0  0  0  0  0  0  0  0  0  0
    4.8718   20.0878  -22.5629 H   0  0  0  0  0  0  0  0  0  0  0  0
    3.2715   19.8411  -20.2679 C   0  0  0  0  0  0  0  0  0  0  0  0
    1.9928   19.8640  -19.4757 C   0  0  0  0  0  0  0  0  0  0  0  0
   -0.2624   16.8781  -18.9023 C   0  0  0  0  0  0  0  0  0  0  0  0
    0.1704   18.1633  -19.1458 C   0  0  0  0  0  0  0  0  0  0  0  0
    1.5035   18.4800  -19.2139 C   0  0  0  0  0  0  0  0  0  0  0  0
    2.4432   17.4854  -19.0340 C   0  0  0  0  0  0  0  0  0  0  0  0
    2.0253   16.1880  -18.7882 C   0  0  0  0  0  0  0  0  0  0  0  0
    0.6842   15.8917  -18.7239 C   0  0  0  0  0  0  0  0  0  0  0  0
   -2.1971   15.5259  -19.5957 C   0  0  0  0  0  0  0  0  0  0  0  0
   -1.5871   16.5368  -18.8298 O   0  0  0  0  0  0  0  0  0  0  0  0
    2.9372   15.1589  -18.6016 O   0  0  0  0  0  0  0  0  0  0  0  0
    3.4376   14.7817  -17.3490 C   0  0  0  0  0  0  0  0  0  0  0  0
 36 37  1  0  0  0
 37 30  1  0  0  0
 30 31  2  0  0  0
 31 32  1  0  0  0
 32 29  1  0  0  0
 29 28  1  0  0  0
 28 22  1  0  0  0
 22 23  2  0  0  0
 23 24  1  0  0  0
 24  1  1  0  0  0
  1  3  1  0  0  0
  3  4  2  0  0  0
  4  5  1  0  0  0
  5  6  2  0  0  0
  6  7  1  0  0  0
  7  8  2  0  0  0
  8  9  1  0  0  0
  9 10  2  0  0  0
 10 11  1  0  0  0
 11 12  2  0  0  0
  9 13  1  0  0  0
 13 14  1  0  0  0
 14 15  1  0  0  0
 15 16  1  0  0  0
 16 17  1  0  0  0
 17 18  1  0  0  0
 16 19  1  0  0  0
 19 20  1  0  0  0
 19 21  1  0  0  0
 24 25  2  0  0  0
 25 26  1  0  0  0
 32 33  2  0  0  0
 33 34  1  0  0  0
 34 38  1  0  0  0
 38 39  1  0  0  0
 34 35  2  0  0  0
 35 30  1  0  0  0
 26 22  1  0  0  0
 12  3  1  0  0  0
 18 13  1  0  0  0
 12  7  1  0  0  0
  1  2  1  0  0  0
 26 27  1  0  0  0
M  END
> <minimizedAffinity>
-8.20464

> <CNNscore>
0.2397155762

> <CNNaffinity>
6.5638990402

> <CNN_VS>
1.5734688044

> <CNNaffinity_variance>
0.1310252100

$$$$
[H]c1nc(N([H])c2nn([H])c(C([H])([H])C([H])([H])c3c([H])c(OC([H])([H])[H])c([H])c(OC([H])([H])[H])c3[H])c2[H])c2c([H])c([H])c(N3C([H])([H])C([H])([H])N(C([H])(C([H])([H])[H])C([H])([H])[H])C([H])([H])C3([H])[H])c([H])c2n1


 39 43  0  0  0  0  0  0  0  0999 V2000
    1.0262   21.7258  -24.3896 N   0  0  0  0  0  0  0  0  0  0  0  0
    1.4524   22.0512  -25.2816 H   0  0  0  0  0  0  0  0  0  0  0  0
   -0.3476   21.7304  -24.0761 C   0  0  0  0  0  0  0  0  0  0  0  0
   -0.7513   21.4087  -22.8294 N   0  0  0  0  0  0  0  0  0  0  0  0
   -2.0410   21.3925  -22.4677 C   0  0  0  0  0  0  0  0  0  0  0  0
   -2.9527   21.7123  -23.3978 N   0  0  0  0  0  0  0  0  0  0  0  0
   -2.6357   22.0464  -24.6682 C   0  0  0  0  0  0  0  0  0  0  0  0
   -3.5783   22.3686  -25.6022 C   0  0  0  0  0  0  0  0  0  0  0  0
   -3.2791   22.7193  -26.9302 C   0  0  0  0  0  0  0  0  0  0  0  0
   -1.9432   22.7187  -27.2424 C   0  0  0  0  0  0  0  0  0  0  0  0
   -0.9591   22.3898  -26.2943 C   0  0  0  0  0  0  0  0  0  0  0  0
   -1.2881   22.0534  -25.0107 C   0  0  0  0  0  0  0  0  0  0  0  0
   -4.3350   23.0327  -27.8140 N   0  0  0  0  0  0  0  0  0  0  0  0
   -5.4325   23.8569  -27.4181 C   0  0  0  0  0  0  0  0  0  0  0  0
   -5.4201   25.0521  -28.3844 C   0  0  0  0  0  0  0  0  0  0  0  0
   -5.6127   24.5835  -29.7102 N   0  0  0  0  0  0  0  0  0  0  0  0
   -5.5182   23.1784  -29.8863 C   0  0  0  0  0  0  0  0  0  0  0  0
   -4.3475   22.5280  -29.1726 C   0  0  0  0  0  0  0  0  0  0  0  0
   -4.8366   25.3558  -30.6542 C   0  0  0  0  0  0  0  0  0  0  0  0
   -5.5346   26.5473  -31.2105 C   0  0  0  0  0  0  0  0  0  0  0  0
   -3.5909   25.8272  -29.9311 C   0  0  0  0  0  0  0  0  0  0  0  0
    3.1302   20.6554  -21.6440 C   0  0  0  0  0  0  0  0  0  0  0  0
    1.9389   21.2300  -22.0649 C   0  0  0  0  0  0  0  0  0  0  0  0
    1.9972   21.2401  -23.4378 C   0  0  0  0  0  0  0  0  0  0  0  0
    3.1645   20.6983  -23.7988 N   0  0  0  0  0  0  0  0  0  0  0  0
    3.8655   20.3379  -22.7377 N   0  0  0  0  0  0  0  0  0  0  0  0
    4.8074   19.8917  -22.7034 H   0  0  0  0  0  0  0  0  0  0  0  0
    3.5588   20.4151  -20.2426 C   0  0  0  0  0  0  0  0  0  0  0  0
    2.6244   21.1657  -19.3335 C   0  0  0  0  0  0  0  0  0  0  0  0
    4.9523   20.9833  -16.3539 C   0  0  0  0  0  0  0  0  0  0  0  0
    4.3870   20.7512  -17.5888 C   0  0  0  0  0  0  0  0  0  0  0  0
    3.2523   21.4025  -18.0020 C   0  0  0  0  0  0  0  0  0  0  0  0
    2.6555   22.3182  -17.1595 C   0  0  0  0  0  0  0  0  0  0  0  0
    3.2108   22.5634  -15.9146 C   0  0  0  0  0  0  0  0  0  0  0  0
    4.3485   21.8999  -15.5197 C   0  0  0  0  0  0  0  0  0  0  0  0
    7.1775   20.9854  -15.3047 C   0  0  0  0  0  0  0  0  0  0  0  0
    6.0842   20.3462  -15.9187 O   0  0  0  0  0  0  0  0  0  0  0  0
    2.6422   23.4760  -15.0375 O   0  0  0  0  0  0  0  0  0  0  0  0
    2.8301   23.4411  -13.6500 C   0  0  0  0  0  0  0  0  0  0  0  0
 36 37  1  0  0  0
 37 30  1  0  0  0
 30 31  2  0  0  0
 31 32  1  0  0  0
 32 29  1  0  0  0
 29 28  1  0  0  0
 28 22  1  0  0  0
 22 23  2  0  0  0
 23 24  1  0  0  0
 24  1  1  0  0  0
  1  3  1  0  0  0
  3  4  2  0  0  0
  4  5  1  0  0  0
  5  6  2  0  0  0
  6  7  1  0  0  0
  7  8  2  0  0  0
  8  9  1  0  0  0
  9 10  2  0  0  0
 10 11  1  0  0  0
 11 12  2  0  0  0
  9 13  1  0  0  0
 13 14  1  0  0  0
 14 15  1  0  0  0
 15 16  1  0  0  0
 16 17  1  0  0  0
 17 18  1  0  0  0
 16 19  1  0  0  0
 19 20  1  0  0  0
 19 21  1  0  0  0
 24 25  2  0  0  0
 25 26  1  0  0  0
 32 33  2  0  0  0
 33 34  1  0  0  0
 34 38  1  0  0  0
 38 39  1  0  0  0
 34 35  2  0  0  0
 35 30  1  0  0  0
 26 22  1  0  0  0
 12  3  1  0  0  0
 18 13  1  0  0  0
 12  7  1  0  0  0
  1  2  1  0  0  0
 26 27  1  0  0  0
M  END
> <minimizedAffinity>
-8.35373

> <CNNscore>
0.1944460422

> <CNNaffinity>
6.5377106667

> <CNN_VS>
1.2712320089

> <CNNaffinity_variance>
0.1112094894

$$$$
[H]c1nc(N([H])c2nn([H])c(C([H])([H])C([H])([H])c3c([H])c(OC([H])([H])[H])c([H])c(OC([H])([H])[H])c3[H])c2[H])c2c([H])c([H])c(N3C([H])([H])C([H])([H])N(C([H])(C([H])([H])[H])C([H])([H])[H])C([H])([H])C3([H])[H])c([H])c2n1


 39 43  0  0  0  0  0  0  0  0999 V2000
   -0.6450   20.9472  -22.2627 N   0  0  0  0  0  0  0  0  0  0  0  0
   -1.0473   19.9874  -22.2666 H   0  0  0  0  0  0  0  0  0  0  0  0
   -0.2935   21.6949  -21.1213 C   0  0  0  0  0  0  0  0  0  0  0  0
   -1.1999   22.5181  -20.5543 N   0  0  0  0  0  0  0  0  0  0  0  0
   -0.9287   23.2568  -19.4702 C   0  0  0  0  0  0  0  0  0  0  0  0
    0.3001   23.1596  -18.9419 N   0  0  0  0  0  0  0  0  0  0  0  0
    1.2668   22.3608  -19.4456 C   0  0  0  0  0  0  0  0  0  0  0  0
    2.5131   22.2754  -18.8942 C   0  0  0  0  0  0  0  0  0  0  0  0
    3.5383   21.4547  -19.3959 C   0  0  0  0  0  0  0  0  0  0  0  0
    3.2028   20.7222  -20.5062 C   0  0  0  0  0  0  0  0  0  0  0  0
    1.9253   20.7974  -21.0873 C   0  0  0  0  0  0  0  0  0  0  0  0
    0.9524   21.6076  -20.5713 C   0  0  0  0  0  0  0  0  0  0  0  0
    4.7925   21.4456  -18.7468 N   0  0  0  0  0  0  0  0  0  0  0  0
    6.0146   21.2748  -19.4665 C   0  0  0  0  0  0  0  0  0  0  0  0
    6.8433   22.5366  -19.1770 C   0  0  0  0  0  0  0  0  0  0  0  0
    7.1022   22.6164  -17.7837 N   0  0  0  0  0  0  0  0  0  0  0  0
    6.3671   21.7169  -16.9685 C   0  0  0  0  0  0  0  0  0  0  0  0
    4.8924   21.6127  -17.3106 C   0  0  0  0  0  0  0  0  0  0  0  0
    7.0808   23.9878  -17.3271 C   0  0  0  0  0  0  0  0  0  0  0  0
    5.8819   24.7665  -17.7428 C   0  0  0  0  0  0  0  0  0  0  0  0
    7.1277   23.9570  -15.8126 C   0  0  0  0  0  0  0  0  0  0  0  0
   -0.6889   22.2807  -25.6288 C   0  0  0  0  0  0  0  0  0  0  0  0
   -1.3999   21.7764  -24.5487 C   0  0  0  0  0  0  0  0  0  0  0  0
   -0.4605   21.4933  -23.5865 C   0  0  0  0  0  0  0  0  0  0  0  0
    0.7382   21.8168  -24.0814 N   0  0  0  0  0  0  0  0  0  0  0  0
    0.6286   22.2932  -25.3095 N   0  0  0  0  0  0  0  0  0  0  0  0
    1.3845   22.6261  -25.9460 H   0  0  0  0  0  0  0  0  0  0  0  0
   -1.2445   22.7376  -26.9280 C   0  0  0  0  0  0  0  0  0  0  0  0
   -2.6254   22.1588  -27.0744 C   0  0  0  0  0  0  0  0  0  0  0  0
   -4.8313   25.1693  -26.4409 C   0  0  0  0  0  0  0  0  0  0  0  0
   -3.8881   24.1794  -26.2711 C   0  0  0  0  0  0  0  0  0  0  0  0
   -3.6408   23.2383  -27.2383 C   0  0  0  0  0  0  0  0  0  0  0  0
   -4.3552   23.2799  -28.4183 C   0  0  0  0  0  0  0  0  0  0  0  0
   -5.3072   24.2684  -28.6053 C   0  0  0  0  0  0  0  0  0  0  0  0
   -5.5397   25.2022  -27.6232 C   0  0  0  0  0  0  0  0  0  0  0  0
   -4.3348   27.2864  -25.2904 C   0  0  0  0  0  0  0  0  0  0  0  0
   -5.0962   26.1198  -25.4908 O   0  0  0  0  0  0  0  0  0  0  0  0
   -6.0472   24.3458  -29.7766 O   0  0  0  0  0  0  0  0  0  0  0  0
   -5.6388   25.0637  -30.9078 C   0  0  0  0  0  0  0  0  0  0  0  0
 36 37  1  0  0  0
 37 30  1  0  0  0
 30 31  2  0  0  0
 31 32  1  0  0  0
 32 29  1  0  0  0
 29 28  1  0  0  0
 28 22  1  0  0  0
 22 23  2  0  0  0
 23 24  1  0  0  0
 24  1  1  0  0  0
  1  3  1  0  0  0
  3  4  2  0  0  0
  4  5  1  0  0  0
  5  6  2  0  0  0
  6  7  1  0  0  0
  7  8  2  0  0  0
  8  9  1  0  0  0
  9 10  2  0  0  0
 10 11  1  0  0  0
 11 12  2  0  0  0
  9 13  1  0  0  0
 13 14  1  0  0  0
 14 15  1  0  0  0
 15 16  1  0  0  0
 16 17  1  0  0  0
 17 18  1  0  0  0
 16 19  1  0  0  0
 19 20  1  0  0  0
 19 21  1  0  0  0
 24 25  2  0  0  0
 25 26  1  0  0  0
 32 33  2  0  0  0
 33 34  1  0  0  0
 34 38  1  0  0  0
 38 39  1  0  0  0
 34 35  2  0  0  0
 35 30  1  0  0  0
 26 22  1  0  0  0
 12  3  1  0  0  0
 18 13  1  0  0  0
 12  7  1  0  0  0
  1  2  1  0  0  0
 26 27  1  0  0  0
M  END
> <minimizedAffinity>
-8.51256

> <CNNscore>
0.1753832996

> <CNNaffinity>
6.6873612404

> <CNN_VS>
1.1728514433

> <CNNaffinity_variance>
0.1039600372

$$$$
[H]c1nc2c([H])c([H])c(N(c3c([H])c(F)c([H])c(F)c3[H])C([H])([H])c3nc([H])c([H])n3[H])nc2c([H])c1-c1c([H])nn(C([H])([H])[H])c1[H]


 32 36  0  0  0  0  0  0  0  0999 V2000
   -0.4654   21.8146  -24.1730 C   0  0  0  0  0  0  0  0  0  0  0  0
    0.5257   21.7907  -25.1301 C   0  0  0  0  0  0  0  0  0  0  0  0
    0.3246   22.1512  -26.4098 N   0  0  0  0  0  0  0  0  0  0  0  0
   -0.9042   22.5678  -26.8314 C   0  0  0  0  0  0  0  0  0  0  0  0
   -1.1342   22.9265  -28.1331 C   0  0  0  0  0  0  0  0  0  0  0  0
   -2.4293   23.3263  -28.4701 C   0  0  0  0  0  0  0  0  0  0  0  0
   -3.4599   23.3639  -27.5207 C   0  0  0  0  0  0  0  0  0  0  0  0
   -3.1146   22.9907  -26.2762 N   0  0  0  0  0  0  0  0  0  0  0  0
   -1.9170   22.6058  -25.9076 C   0  0  0  0  0  0  0  0  0  0  0  0
   -1.7121   22.2303  -24.5667 C   0  0  0  0  0  0  0  0  0  0  0  0
   -1.3358   20.7115  -19.3602 C   0  0  0  0  0  0  0  0  0  0  0  0
   -0.6672   20.9171  -20.6384 N   0  0  0  0  0  0  0  0  0  0  0  0
   -1.2205   21.3292  -21.7993 C   0  0  0  0  0  0  0  0  0  0  0  0
   -0.2409   21.4004  -22.7804 C   0  0  0  0  0  0  0  0  0  0  0  0
    0.9239   21.0121  -22.1537 C   0  0  0  0  0  0  0  0  0  0  0  0
    0.6150   20.7339  -20.8733 N   0  0  0  0  0  0  0  0  0  0  0  0
   -4.7452   23.7491  -27.9212 N   0  0  0  0  0  0  0  0  0  0  0  0
   -5.1242   24.2079  -29.2094 C   0  0  0  0  0  0  0  0  0  0  0  0
   -5.0200   25.5968  -29.4725 C   0  0  0  0  0  0  0  0  0  0  0  0
   -5.3612   26.1372  -30.6861 C   0  0  0  0  0  0  0  0  0  0  0  0
   -5.2375   27.4726  -30.8899 F   0  0  0  0  0  0  0  0  0  0  0  0
   -5.8226   25.3346  -31.6940 C   0  0  0  0  0  0  0  0  0  0  0  0
   -5.9250   23.9944  -31.4419 C   0  0  0  0  0  0  0  0  0  0  0  0
   -6.3803   23.1595  -32.4030 F   0  0  0  0  0  0  0  0  0  0  0  0
   -5.5833   23.4127  -30.2161 C   0  0  0  0  0  0  0  0  0  0  0  0
   -5.8376   23.5940  -26.9385 C   0  0  0  0  0  0  0  0  0  0  0  0
   -5.7952   24.6612  -25.9242 C   0  0  0  0  0  0  0  0  0  0  0  0
   -6.0203   25.9825  -26.0787 N   0  0  0  0  0  0  0  0  0  0  0  0
   -5.8473   26.5433  -24.8800 C   0  0  0  0  0  0  0  0  0  0  0  0
   -5.5128   25.5796  -23.9618 C   0  0  0  0  0  0  0  0  0  0  0  0
   -5.4859   24.4150  -24.6327 N   0  0  0  0  0  0  0  0  0  0  0  0
   -5.2582   23.4938  -24.2021 H   0  0  0  0  0  0  0  0  0  0  0  0
 11 12  1  0  0  0
 12 13  1  0  0  0
 13 14  2  0  0  0
 14 15  1  0  0  0
 15 16  2  0  0  0
 14  1  1  0  0  0
  1  2  2  0  0  0
  2  3  1  0  0  0
  3  4  2  0  0  0
  4  5  1  0  0  0
  5  6  2  0  0  0
  6  7  1  0  0  0
  7  8  2  0  0  0
  8  9  1  0  0  0
  9 10  2  0  0  0
  7 17  1  0  0  0
 17 26  1  0  0  0
 26 27  1  0  0  0
 27 28  2  0  0  0
 28 29  1  0  0  0
 29 30  2  0  0  0
 30 31  1  0  0  0
 17 18  1  0  0  0
 18 19  2  0  0  0
 19 20  1  0  0  0
 20 21  1  0  0  0
 20 22  2  0  0  0
 22 23  1  0  0  0
 23 24  1  0  0  0
 23 25  2  0  0  0
 16 12  1  0  0  0
 10  1  1  0  0  0
 31 27  1  0  0  0
 25 18  1  0  0  0
  9  4  1  0  0  0
 31 32  1  0  0  0
M  END
> <minimizedAffinity>
-9.69894

> <CNNscore>
0.8225336671

> <CNNaffinity>
8.0419044495

> <CNN_VS>
6.6147370338

> <CNNaffinity_variance>
0.0822625831

$$$$
[H]c1nc2c([H])c([H])c(N(c3c([H])c(F)c([H])c(F)c3[H])C([H])([H])c3nc([H])c([H])n3[H])nc2c([H])c1-c1c([H])nn(C([H])([H])[H])c1[H]


 32 36  0  0  0  0  0  0  0  0999 V2000
    0.1411   21.4923  -23.1574 C   0  0  0  0  0  0  0  0  0  0  0  0
    1.1258   21.3441  -24.1099 C   0  0  0  0  0  0  0  0  0  0  0  0
    0.9491   21.6491  -25.4075 N   0  0  0  0  0  0  0  0  0  0  0  0
   -0.2466   22.1317  -25.8533 C   0  0  0  0  0  0  0  0  0  0  0  0
   -0.4523   22.4358  -27.1728 C   0  0  0  0  0  0  0  0  0  0  0  0
   -1.7152   22.9110  -27.5332 C   0  0  0  0  0  0  0  0  0  0  0  0
   -2.7382   23.0754  -26.5892 C   0  0  0  0  0  0  0  0  0  0  0  0
   -2.4187   22.7452  -25.3257 N   0  0  0  0  0  0  0  0  0  0  0  0
   -1.2519   22.2936  -24.9347 C   0  0  0  0  0  0  0  0  0  0  0  0
   -1.0724   21.9767  -23.5753 C   0  0  0  0  0  0  0  0  0  0  0  0
   -0.8532   20.2305  -18.4080 C   0  0  0  0  0  0  0  0  0  0  0  0
   -0.1446   20.5755  -19.6335 N   0  0  0  0  0  0  0  0  0  0  0  0
   -0.6790   20.8563  -20.8415 C   0  0  0  0  0  0  0  0  0  0  0  0
    0.3375   21.1382  -21.7442 C   0  0  0  0  0  0  0  0  0  0  0  0
    1.5045   21.0133  -21.0212 C   0  0  0  0  0  0  0  0  0  0  0  0
    1.1614   20.6756  -19.7640 N   0  0  0  0  0  0  0  0  0  0  0  0
   -3.9926   23.5320  -27.0123 N   0  0  0  0  0  0  0  0  0  0  0  0
   -4.7946   24.5095  -26.3682 C   0  0  0  0  0  0  0  0  0  0  0  0
   -6.1065   24.1368  -25.9821 C   0  0  0  0  0  0  0  0  0  0  0  0
   -6.9579   25.0095  -25.3536 C   0  0  0  0  0  0  0  0  0  0  0  0
   -8.2022   24.6022  -24.9987 F   0  0  0  0  0  0  0  0  0  0  0  0
   -6.5562   26.2888  -25.0794 C   0  0  0  0  0  0  0  0  0  0  0  0
   -5.2912   26.6507  -25.4520 C   0  0  0  0  0  0  0  0  0  0  0  0
   -4.8484   27.9047  -25.2083 F   0  0  0  0  0  0  0  0  0  0  0  0
   -4.3990   25.7838  -26.0924 C   0  0  0  0  0  0  0  0  0  0  0  0
   -4.5081   23.0096  -28.2946 C   0  0  0  0  0  0  0  0  0  0  0  0
   -4.7546   24.1012  -29.2523 C   0  0  0  0  0  0  0  0  0  0  0  0
   -5.8972   24.4175  -29.8965 N   0  0  0  0  0  0  0  0  0  0  0  0
   -5.6223   25.4699  -30.6698 C   0  0  0  0  0  0  0  0  0  0  0  0
   -4.3051   25.8246  -30.5180 C   0  0  0  0  0  0  0  0  0  0  0  0
   -3.7832   24.9597  -29.6311 N   0  0  0  0  0  0  0  0  0  0  0  0
   -2.7916   24.9726  -29.3113 H   0  0  0  0  0  0  0  0  0  0  0  0
 11 12  1  0  0  0
 12 13  1  0  0  0
 13 14  2  0  0  0
 14 15  1  0  0  0
 15 16  2  0  0  0
 14  1  1  0  0  0
  1  2  2  0  0  0
  2  3  1  0  0  0
  3  4  2  0  0  0
  4  5  1  0  0  0
  5  6  2  0  0  0
  6  7  1  0  0  0
  7  8  2  0  0  0
  8  9  1  0  0  0
  9 10  2  0  0  0
  7 17  1  0  0  0
 17 26  1  0  0  0
 26 27  1  0  0  0
 27 28  2  0  0  0
 28 29  1  0  0  0
 29 30  2  0  0  0
 30 31  1  0  0  0
 17 18  1  0  0  0
 18 19  2  0  0  0
 19 20  1  0  0  0
 20 21  1  0  0  0
 20 22  2  0  0  0
 22 23  1  0  0  0
 23 24  1  0  0  0
 23 25  2  0  0  0
 16 12  1  0  0  0
 10  1  1  0  0  0
 31 27  1  0  0  0
 25 18  1  0  0  0
  9  4  1  0  0  0
 31 32  1  0  0  0
M  END
> <minimizedAffinity>
-9.16805

> <CNNscore>
0.7128087282

> <CNNaffinity>
7.8061509132

> <CNN_VS>
5.5642924309

> <CNNaffinity_variance>
0.0116319135

$$$$
[H]c1nc2c([H])c([H])c(N(c3c([H])c(F)c([H])c(F)c3[H])C([H])([H])c3nc([H])c([H])n3[H])nc2c([H])c1-c1c([H])nn(C([H])([H])[H])c1[H]


 32 36  0  0  0  0  0  0  0  0999 V2000
    0.0191   21.5307  -23.4375 C   0  0  0  0  0  0  0  0  0  0  0  0
    1.0271   21.4577  -24.3743 C   0  0  0  0  0  0  0  0  0  0  0  0
    0.8584   21.7873  -25.6669 N   0  0  0  0  0  0  0  0  0  0  0  0
   -0.3522   22.2202  -26.1233 C   0  0  0  0  0  0  0  0  0  0  0  0
   -0.5495   22.5481  -27.4384 C   0  0  0  0  0  0  0  0  0  0  0  0
   -1.8284   22.9680  -27.8110 C   0  0  0  0  0  0  0  0  0  0  0  0
   -2.8753   23.0554  -26.8830 C   0  0  0  0  0  0  0  0  0  0  0  0
   -2.5621   22.7088  -25.6224 N   0  0  0  0  0  0  0  0  0  0  0  0
   -1.3809   22.3068  -25.2205 C   0  0  0  0  0  0  0  0  0  0  0  0
   -1.2099   21.9638  -23.8663 C   0  0  0  0  0  0  0  0  0  0  0  0
   -0.8803   20.8548  -18.5517 C   0  0  0  0  0  0  0  0  0  0  0  0
   -0.2291   20.8641  -19.8550 N   0  0  0  0  0  0  0  0  0  0  0  0
   -0.7327   21.3178  -21.0230 C   0  0  0  0  0  0  0  0  0  0  0  0
    0.2079   21.1500  -22.0302 C   0  0  0  0  0  0  0  0  0  0  0  0
    1.2975   20.5752  -21.4116 C   0  0  0  0  0  0  0  0  0  0  0  0
    0.9853   20.4253  -20.1107 N   0  0  0  0  0  0  0  0  0  0  0  0
   -4.1436   23.4588  -27.3185 N   0  0  0  0  0  0  0  0  0  0  0  0
   -5.0355   24.3219  -26.6307 C   0  0  0  0  0  0  0  0  0  0  0  0
   -4.5208   25.5484  -26.1407 C   0  0  0  0  0  0  0  0  0  0  0  0
   -5.3028   26.4496  -25.4640 C   0  0  0  0  0  0  0  0  0  0  0  0
   -4.7637   27.6127  -25.0205 F   0  0  0  0  0  0  0  0  0  0  0  0
   -6.6257   26.1822  -25.2375 C   0  0  0  0  0  0  0  0  0  0  0  0
   -7.1240   24.9990  -25.7084 C   0  0  0  0  0  0  0  0  0  0  0  0
   -8.4235   24.6854  -25.5061 F   0  0  0  0  0  0  0  0  0  0  0  0
   -6.3532   24.0605  -26.4034 C   0  0  0  0  0  0  0  0  0  0  0  0
   -4.5753   23.0113  -28.6587 C   0  0  0  0  0  0  0  0  0  0  0  0
   -4.6921   24.1491  -29.5868 C   0  0  0  0  0  0  0  0  0  0  0  0
   -3.8576   25.1971  -29.7471 N   0  0  0  0  0  0  0  0  0  0  0  0
   -4.3948   25.9738  -30.6902 C   0  0  0  0  0  0  0  0  0  0  0  0
   -5.5710   25.4206  -31.1310 C   0  0  0  0  0  0  0  0  0  0  0  0
   -5.7374   24.2851  -30.4312 N   0  0  0  0  0  0  0  0  0  0  0  0
   -6.5485   23.6402  -30.5415 H   0  0  0  0  0  0  0  0  0  0  0  0
 11 12  1  0  0  0
 12 13  1  0  0  0
 13 14  2  0  0  0
 14 15  1  0  0  0
 15 16  2  0  0  0
 14  1  1  0  0  0
  1  2  2  0  0  0
  2  3  1  0  0  0
  3  4  2  0  0  0
  4  5  1  0  0  0
  5  6  2  0  0  0
  6  7  1  0  0  0
  7  8  2  0  0  0
  8  9  1  0  0  0
  9 10  2  0  0  0
  7 17  1  0  0  0
 17 26  1  0  0  0
 26 27  1  0  0  0
 27 28  2  0  0  0
 28 29  1  0  0  0
 29 30  2  0  0  0
 30 31  1  0  0  0
 17 18  1  0  0  0
 18 19  2  0  0  0
 19 20  1  0  0  0
 20 21  1  0  0  0
 20 22  2  0  0  0
 22 23  1  0  0  0
 23 24  1  0  0  0
 23 25  2  0  0  0
 16 12  1  0  0  0
 10  1  1  0  0  0
 31 27  1  0  0  0
 25 18  1  0  0  0
  9  4  1  0  0  0
 31 32  1  0  0  0
M  END
> <minimizedAffinity>
-9.44167

> <CNNscore>
0.7121582031

> <CNNaffinity>
7.8082532883

> <CNN_VS>
5.5607118607

> <CNNaffinity_variance>
0.0215540044

$$$$
[H]c1nc2c([H])c([H])c(N(c3c([H])c(F)c([H])c(F)c3[H])C([H])([H])c3nc([H])c([H])n3[H])nc2c([H])c1-c1c([H])nn(C([H])([H])[H])c1[H]


 32 36  0  0  0  0  0  0  0  0999 V2000
   -0.1662   21.6391  -23.5336 C   0  0  0  0  0  0  0  0  0  0  0  0
    0.8434   21.6741  -24.4708 C   0  0  0  0  0  0  0  0  0  0  0  0
    0.6488   22.0323  -25.7521 N   0  0  0  0  0  0  0  0  0  0  0  0
   -0.5917   22.3864  -26.1958 C   0  0  0  0  0  0  0  0  0  0  0  0
   -0.8146   22.7414  -27.4998 C   0  0  0  0  0  0  0  0  0  0  0  0
   -2.1222   23.0747  -27.8603 C   0  0  0  0  0  0  0  0  0  0  0  0
   -3.1718   23.0513  -26.9315 C   0  0  0  0  0  0  0  0  0  0  0  0
   -2.8319   22.6883  -25.6825 N   0  0  0  0  0  0  0  0  0  0  0  0
   -1.6231   22.3645  -25.2923 C   0  0  0  0  0  0  0  0  0  0  0  0
   -1.4251   21.9911  -23.9498 C   0  0  0  0  0  0  0  0  0  0  0  0
    2.1308   20.0686  -19.3630 C   0  0  0  0  0  0  0  0  0  0  0  0
    1.1112   20.5253  -20.2983 N   0  0  0  0  0  0  0  0  0  0  0  0
    1.2723   20.8404  -21.6015 C   0  0  0  0  0  0  0  0  0  0  0  0
    0.0524   21.2277  -22.1393 C   0  0  0  0  0  0  0  0  0  0  0  0
   -0.8461   21.1301  -21.0984 C   0  0  0  0  0  0  0  0  0  0  0  0
   -0.1625   20.7053  -20.0192 N   0  0  0  0  0  0  0  0  0  0  0  0
   -4.4676   23.3710  -27.3555 N   0  0  0  0  0  0  0  0  0  0  0  0
   -4.8435   23.8273  -28.6454 C   0  0  0  0  0  0  0  0  0  0  0  0
   -4.7974   25.2225  -28.8913 C   0  0  0  0  0  0  0  0  0  0  0  0
   -5.1407   25.7613  -30.1051 C   0  0  0  0  0  0  0  0  0  0  0  0
   -5.0738   27.1033  -30.2919 F   0  0  0  0  0  0  0  0  0  0  0  0
   -5.5469   24.9506  -31.1301 C   0  0  0  0  0  0  0  0  0  0  0  0
   -5.5930   23.6044  -30.8947 C   0  0  0  0  0  0  0  0  0  0  0  0
   -5.9926   22.7611  -31.8732 F   0  0  0  0  0  0  0  0  0  0  0  0
   -5.2478   23.0243  -29.6691 C   0  0  0  0  0  0  0  0  0  0  0  0
   -5.5707   23.1412  -26.3998 C   0  0  0  0  0  0  0  0  0  0  0  0
   -5.8271   24.3416  -25.5856 C   0  0  0  0  0  0  0  0  0  0  0  0
   -6.7907   25.2739  -25.7360 N   0  0  0  0  0  0  0  0  0  0  0  0
   -6.6054   26.1757  -24.7698 C   0  0  0  0  0  0  0  0  0  0  0  0
   -5.5244   25.8178  -24.0035 C   0  0  0  0  0  0  0  0  0  0  0  0
   -5.0545   24.6730  -24.5285 N   0  0  0  0  0  0  0  0  0  0  0  0
   -4.2292   24.1534  -24.1616 H   0  0  0  0  0  0  0  0  0  0  0  0
 11 12  1  0  0  0
 12 13  1  0  0  0
 13 14  2  0  0  0
 14 15  1  0  0  0
 15 16  2  0  0  0
 14  1  1  0  0  0
  1  2  2  0  0  0
  2  3  1  0  0  0
  3  4  2  0  0  0
  4  5  1  0  0  0
  5  6  2  0  0  0
  6  7  1  0  0  0
  7  8  2  0  0  0
  8  9  1  0  0  0
  9 10  2  0  0  0
  7 17  1  0  0  0
 17 26  1  0  0  0
 26 27  1  0  0  0
 27 28  2  0  0  0
 28 29  1  0  0  0
 29 30  2  0  0  0
 30 31  1  0  0  0
 17 18  1  0  0  0
 18 19  2  0  0  0
 19 20  1  0  0  0
 20 21  1  0  0  0
 20 22  2  0  0  0
 22 23  1  0  0  0
 23 24  1  0  0  0
 23 25  2  0  0  0
 16 12  1  0  0  0
 10  1  1  0  0  0
 31 27  1  0  0  0
 25 18  1  0  0  0
  9  4  1  0  0  0
 31 32  1  0  0  0
M  END
> <minimizedAffinity>
-9.35502

> <CNNscore>
0.6644598842

> <CNNaffinity>
7.6897363663

> <CNN_VS>
5.1095213890

> <CNNaffinity_variance>
0.0612533204

$$$$
[H]c1nc2c([H])c([H])c(N(c3c([H])c(F)c([H])c(F)c3[H])C([H])([H])c3nc([H])c([H])n3[H])nc2c([H])c1-c1c([H])nn(C([H])([H])[H])c1[H]


 32 36  0  0  0  0  0  0  0  0999 V2000
    0.3373   21.7550  -24.4102 C   0  0  0  0  0  0  0  0  0  0  0  0
    0.7847   21.4680  -25.6816 C   0  0  0  0  0  0  0  0  0  0  0  0
    0.1310   21.8413  -26.7958 N   0  0  0  0  0  0  0  0  0  0  0  0
   -1.0381   22.5400  -26.7166 C   0  0  0  0  0  0  0  0  0  0  0  0
   -1.7270   22.9183  -27.8383 C   0  0  0  0  0  0  0  0  0  0  0  0
   -2.9212   23.6187  -27.6531 C   0  0  0  0  0  0  0  0  0  0  0  0
   -3.4035   23.9286  -26.3740 C   0  0  0  0  0  0  0  0  0  0  0  0
   -2.6416   23.5066  -25.3499 N   0  0  0  0  0  0  0  0  0  0  0  0
   -1.5159   22.8453  -25.4679 C   0  0  0  0  0  0  0  0  0  0  0  0
   -0.8356   22.4577  -24.2984 C   0  0  0  0  0  0  0  0  0  0  0  0
    4.0328   20.2908  -21.3547 C   0  0  0  0  0  0  0  0  0  0  0  0
    2.7230   20.6749  -21.8643 N   0  0  0  0  0  0  0  0  0  0  0  0
    2.4058   21.0417  -23.1247 C   0  0  0  0  0  0  0  0  0  0  0  0
    1.0489   21.3260  -23.1975 C   0  0  0  0  0  0  0  0  0  0  0  0
    0.5685   21.1126  -21.9232 C   0  0  0  0  0  0  0  0  0  0  0  0
    1.6097   20.7241  -21.1635 N   0  0  0  0  0  0  0  0  0  0  0  0
   -4.6197   24.6112  -26.2484 N   0  0  0  0  0  0  0  0  0  0  0  0
   -5.6135   24.3871  -25.2606 C   0  0  0  0  0  0  0  0  0  0  0  0
   -5.7178   23.0838  -24.7131 C   0  0  0  0  0  0  0  0  0  0  0  0
   -6.6453   22.7676  -23.7533 C   0  0  0  0  0  0  0  0  0  0  0  0
   -6.7007   21.5065  -23.2566 F   0  0  0  0  0  0  0  0  0  0  0  0
   -7.5130   23.7199  -23.2916 C   0  0  0  0  0  0  0  0  0  0  0  0
   -7.4147   24.9776  -23.8193 C   0  0  0  0  0  0  0  0  0  0  0  0
   -8.2523   25.9529  -23.4004 F   0  0  0  0  0  0  0  0  0  0  0  0
   -6.4789   25.3319  -24.7973 C   0  0  0  0  0  0  0  0  0  0  0  0
   -4.8707   25.7285  -27.1820 C   0  0  0  0  0  0  0  0  0  0  0  0
   -5.1927   25.2317  -28.5307 C   0  0  0  0  0  0  0  0  0  0  0  0
   -5.9268   24.1553  -28.8812 N   0  0  0  0  0  0  0  0  0  0  0  0
   -5.9196   24.1044  -30.2148 C   0  0  0  0  0  0  0  0  0  0  0  0
   -5.1816   25.1484  -30.7141 C   0  0  0  0  0  0  0  0  0  0  0  0
   -4.7382   25.8380  -29.6488 N   0  0  0  0  0  0  0  0  0  0  0  0
   -4.1429   26.6912  -29.7072 H   0  0  0  0  0  0  0  0  0  0  0  0
 11 12  1  0  0  0
 12 13  1  0  0  0
 13 14  2  0  0  0
 14 15  1  0  0  0
 15 16  2  0  0  0
 14  1  1  0  0  0
  1  2  2  0  0  0
  2  3  1  0  0  0
  3  4  2  0  0  0
  4  5  1  0  0  0
  5  6  2  0  0  0
  6  7  1  0  0  0
  7  8  2  0  0  0
  8  9  1  0  0  0
  9 10  2  0  0  0
  7 17  1  0  0  0
 17 26  1  0  0  0
 26 27  1  0  0  0
 27 28  2  0  0  0
 28 29  1  0  0  0
 29 30  2  0  0  0
 30 31  1  0  0  0
 17 18  1  0  0  0
 18 19  2  0  0  0
 19 20  1  0  0  0
 20 21  1  0  0  0
 20 22  2  0  0  0
 22 23  1  0  0  0
 23 24  1  0  0  0
 23 25  2  0  0  0
 16 12  1  0  0  0
 10  1  1  0  0  0
 31 27  1  0  0  0
 25 18  1  0  0  0
  9  4  1  0  0  0
 31 32  1  0  0  0
M  END
> <minimizedAffinity>
-8.55665

> <CNNscore>
0.6089020371

> <CNNaffinity>
7.8127570152

> <CNN_VS>
4.7572035789

> <CNNaffinity_variance>
0.2061582506

$$$$
[H]c1nc2c([H])c([H])c(N(c3c([H])c(F)c([H])c(F)c3[H])C([H])([H])c3nc([H])c([H])n3[H])nc2c([H])c1-c1c([H])nn(C([H])([H])[H])c1[H]


 32 36  0  0  0  0  0  0  0  0999 V2000
   -3.1609   23.3417  -28.0084 C   0  0  0  0  0  0  0  0  0  0  0  0
   -1.8586   23.0909  -28.3827 C   0  0  0  0  0  0  0  0  0  0  0  0
   -0.9170   22.6518  -27.5292 N   0  0  0  0  0  0  0  0  0  0  0  0
   -1.2156   22.4292  -26.2167 C   0  0  0  0  0  0  0  0  0  0  0  0
   -0.2686   21.9950  -25.3275 C   0  0  0  0  0  0  0  0  0  0  0  0
   -0.6689   21.8092  -24.0024 C   0  0  0  0  0  0  0  0  0  0  0  0
   -1.9858   22.0530  -23.5889 C   0  0  0  0  0  0  0  0  0  0  0  0
   -2.8259   22.4747  -24.5500 N   0  0  0  0  0  0  0  0  0  0  0  0
   -2.5021   22.6670  -25.8056 C   0  0  0  0  0  0  0  0  0  0  0  0
   -3.4918   23.1259  -26.6947 C   0  0  0  0  0  0  0  0  0  0  0  0
   -5.5835   26.3351  -31.2189 C   0  0  0  0  0  0  0  0  0  0  0  0
   -5.2313   25.2023  -30.3731 N   0  0  0  0  0  0  0  0  0  0  0  0
   -4.1376   25.0671  -29.5925 C   0  0  0  0  0  0  0  0  0  0  0  0
   -4.1789   23.8399  -28.9446 C   0  0  0  0  0  0  0  0  0  0  0  0
   -5.3472   23.2469  -29.3731 C   0  0  0  0  0  0  0  0  0  0  0  0
   -5.9403   24.1029  -30.2262 N   0  0  0  0  0  0  0  0  0  0  0  0
   -2.3242   21.8735  -22.2419 N   0  0  0  0  0  0  0  0  0  0  0  0
   -1.4418   21.9542  -21.1336 C   0  0  0  0  0  0  0  0  0  0  0  0
   -0.8231   20.7571  -20.6940 C   0  0  0  0  0  0  0  0  0  0  0  0
    0.0452   20.7317  -19.6325 C   0  0  0  0  0  0  0  0  0  0  0  0
    0.6163   19.5607  -19.2546 F   0  0  0  0  0  0  0  0  0  0  0  0
    0.3411   21.8833  -18.9549 C   0  0  0  0  0  0  0  0  0  0  0  0
   -0.2556   23.0392  -19.3767 C   0  0  0  0  0  0  0  0  0  0  0  0
   -0.0004   24.2030  -18.7375 F   0  0  0  0  0  0  0  0  0  0  0  0
   -1.1436   23.0983  -20.4564 C   0  0  0  0  0  0  0  0  0  0  0  0
   -3.7503   21.6549  -21.9235 C   0  0  0  0  0  0  0  0  0  0  0  0
   -4.5256   22.8978  -22.0772 C   0  0  0  0  0  0  0  0  0  0  0  0
   -4.4318   24.0442  -21.3720 N   0  0  0  0  0  0  0  0  0  0  0  0
   -5.3522   24.8746  -21.8665 C   0  0  0  0  0  0  0  0  0  0  0  0
   -6.0320   24.2577  -22.8869 C   0  0  0  0  0  0  0  0  0  0  0  0
   -5.5016   23.0278  -23.0017 N   0  0  0  0  0  0  0  0  0  0  0  0
   -5.8140   22.3155  -23.6950 H   0  0  0  0  0  0  0  0  0  0  0  0
 11 12  1  0  0  0
 12 13  1  0  0  0
 13 14  2  0  0  0
 14 15  1  0  0  0
 15 16  2  0  0  0
 14  1  1  0  0  0
  1  2  2  0  0  0
  2  3  1  0  0  0
  3  4  2  0  0  0
  4  5  1  0  0  0
  5  6  2  0  0  0
  6  7  1  0  0  0
  7  8  2  0  0  0
  8  9  1  0  0  0
  9 10  2  0  0  0
  7 17  1  0  0  0
 17 26  1  0  0  0
 26 27  1  0  0  0
 27 28  2  0  0  0
 28 29  1  0  0  0
 29 30  2  0  0  0
 30 31  1  0  0  0
 17 18  1  0  0  0
 18 19  2  0  0  0
 19 20  1  0  0  0
 20 21  1  0  0  0
 20 22  2  0  0  0
 22 23  1  0  0  0
 23 24  1  0  0  0
 23 25  2  0  0  0
 16 12  1  0  0  0
 10  1  1  0  0  0
 31 27  1  0  0  0
 25 18  1  0  0  0
  9  4  1  0  0  0
 31 32  1  0  0  0
M  END
> <minimizedAffinity>
-8.91435

> <CNNscore>
0.5018969774

> <CNNaffinity>
7.5778436661

> <CNN_VS>
3.8032968044

> <CNNaffinity_variance>
0.2043822557

$$$$
[H]c1nc2c([H])c([H])c(N(c3c([H])c(F)c([H])c(F)c3[H])C([H])([H])c3nc([H])c([H])n3[H])nc2c([H])c1-c1c([H])nn(C([H])([H])[H])c1[H]


 32 36  0  0  0  0  0  0  0  0999 V2000
    0.1423   21.5093  -22.9138 C   0  0  0  0  0  0  0  0  0  0  0  0
    1.0378   21.2644  -23.9322 C   0  0  0  0  0  0  0  0  0  0  0  0
    0.8045   21.5931  -25.2149 N   0  0  0  0  0  0  0  0  0  0  0  0
   -0.3623   22.2001  -25.5775 C   0  0  0  0  0  0  0  0  0  0  0  0
   -0.6260   22.5311  -26.8801 C   0  0  0  0  0  0  0  0  0  0  0  0
   -1.8544   23.1374  -27.1529 C   0  0  0  0  0  0  0  0  0  0  0  0
   -2.7868   23.4024  -26.1403 C   0  0  0  0  0  0  0  0  0  0  0  0
   -2.4168   23.0340  -24.9015 N   0  0  0  0  0  0  0  0  0  0  0  0
   -1.2792   22.4611  -24.5916 C   0  0  0  0  0  0  0  0  0  0  0  0
   -1.0400   22.1199  -23.2473 C   0  0  0  0  0  0  0  0  0  0  0  0
    0.1136   21.5920  -17.9009 C   0  0  0  0  0  0  0  0  0  0  0  0
    0.3636   21.1988  -19.2814 N   0  0  0  0  0  0  0  0  0  0  0  0
   -0.0567   21.8220  -20.4033 C   0  0  0  0  0  0  0  0  0  0  0  0
    0.3981   21.1291  -21.5170 C   0  0  0  0  0  0  0  0  0  0  0  0
    1.1097   20.0627  -21.0104 C   0  0  0  0  0  0  0  0  0  0  0  0
    1.0591   20.1501  -19.6680 N   0  0  0  0  0  0  0  0  0  0  0  0
   -4.0129   23.9896  -26.4761 N   0  0  0  0  0  0  0  0  0  0  0  0
   -4.5657   24.0997  -27.7784 C   0  0  0  0  0  0  0  0  0  0  0  0
   -4.6298   22.9255  -28.5696 C   0  0  0  0  0  0  0  0  0  0  0  0
   -5.1469   22.9289  -29.8401 C   0  0  0  0  0  0  0  0  0  0  0  0
   -5.1915   21.7767  -30.5546 F   0  0  0  0  0  0  0  0  0  0  0  0
   -5.6218   24.0892  -30.3889 C   0  0  0  0  0  0  0  0  0  0  0  0
   -5.5600   25.2235  -29.6275 C   0  0  0  0  0  0  0  0  0  0  0  0
   -6.0114   26.3965  -30.1258 F   0  0  0  0  0  0  0  0  0  0  0  0
   -5.0404   25.2522  -28.3287 C   0  0  0  0  0  0  0  0  0  0  0  0
   -4.8588   24.4766  -25.3670 C   0  0  0  0  0  0  0  0  0  0  0  0
   -5.3392   23.3599  -24.5353 C   0  0  0  0  0  0  0  0  0  0  0  0
   -6.1326   22.3264  -24.8857 N   0  0  0  0  0  0  0  0  0  0  0  0
   -6.3047   21.5863  -23.7885 C   0  0  0  0  0  0  0  0  0  0  0  0
   -5.6206   22.1477  -22.7393 C   0  0  0  0  0  0  0  0  0  0  0  0
   -5.0264   23.2509  -23.2259 N   0  0  0  0  0  0  0  0  0  0  0  0
   -4.4328   23.8958  -22.6624 H   0  0  0  0  0  0  0  0  0  0  0  0
 11 12  1  0  0  0
 12 13  1  0  0  0
 13 14  2  0  0  0
 14 15  1  0  0  0
 15 16  2  0  0  0
 14  1  1  0  0  0
  1  2  2  0  0  0
  2  3  1  0  0  0
  3  4  2  0  0  0
  4  5  1  0  0  0
  5  6  2  0  0  0
  6  7  1  0  0  0
  7  8  2  0  0  0
  8  9  1  0  0  0
  9 10  2  0  0  0
  7 17  1  0  0  0
 17 26  1  0  0  0
 26 27  1  0  0  0
 27 28  2  0  0  0
 28 29  1  0  0  0
 29 30  2  0  0  0
 30 31  1  0  0  0
 17 18  1  0  0  0
 18 19  2  0  0  0
 19 20  1  0  0  0
 20 21  1  0  0  0
 20 22  2  0  0  0
 22 23  1  0  0  0
 23 24  1  0  0  0
 23 25  2  0  0  0
 16 12  1  0  0  0
 10  1  1  0  0  0
 31 27  1  0  0  0
 25 18  1  0  0  0
  9  4  1  0  0  0
 31 32  1  0  0  0
M  END
> <minimizedAffinity>
-8.78958

> <CNNscore>
0.4947536588

> <CNNaffinity>
7.4740295410

> <CNN_VS>
3.6978034973

> <CNNaffinity_variance>
0.1182176247

$$$$
[H]c1nc2c([H])c([H])c(N(c3c([H])c(F)c([H])c(F)c3[H])C([H])([H])c3nc([H])c([H])n3[H])nc2c([H])c1-c1c([H])nn(C([H])([H])[H])c1[H]


 32 36  0  0  0  0  0  0  0  0999 V2000
    0.9645   21.0585  -22.2025 C   0  0  0  0  0  0  0  0  0  0  0  0
    1.8301   21.1629  -23.2697 C   0  0  0  0  0  0  0  0  0  0  0  0
    1.4433   21.5474  -24.4987 N   0  0  0  0  0  0  0  0  0  0  0  0
    0.1398   21.8596  -24.7530 C   0  0  0  0  0  0  0  0  0  0  0  0
   -0.2781   22.2403  -26.0006 C   0  0  0  0  0  0  0  0  0  0  0  0
   -1.6354   22.5265  -26.1639 C   0  0  0  0  0  0  0  0  0  0  0  0
   -2.5421   22.4323  -25.0991 C   0  0  0  0  0  0  0  0  0  0  0  0
   -2.0159   22.0500  -23.9225 N   0  0  0  0  0  0  0  0  0  0  0  0
   -0.7525   21.7683  -23.7157 C   0  0  0  0  0  0  0  0  0  0  0  0
   -0.3532   21.3670  -22.4272 C   0  0  0  0  0  0  0  0  0  0  0  0
    1.5040   18.2430  -18.0892 C   0  0  0  0  0  0  0  0  0  0  0  0
    1.6110   19.3349  -19.0479 N   0  0  0  0  0  0  0  0  0  0  0  0
    1.0501   19.4111  -20.2740 C   0  0  0  0  0  0  0  0  0  0  0  0
    1.3930   20.6187  -20.8668 C   0  0  0  0  0  0  0  0  0  0  0  0
    2.1848   21.2618  -19.9395 C   0  0  0  0  0  0  0  0  0  0  0  0
    2.2842   20.4519  -18.8688 N   0  0  0  0  0  0  0  0  0  0  0  0
   -3.8961   22.7071  -25.3273 N   0  0  0  0  0  0  0  0  0  0  0  0
   -4.4196   23.7363  -26.1521 C   0  0  0  0  0  0  0  0  0  0  0  0
   -4.9389   23.3674  -27.4184 C   0  0  0  0  0  0  0  0  0  0  0  0
   -5.4670   24.2883  -28.2869 C   0  0  0  0  0  0  0  0  0  0  0  0
   -5.9572   23.8835  -29.4852 F   0  0  0  0  0  0  0  0  0  0  0  0
   -5.5050   25.6139  -27.9485 C   0  0  0  0  0  0  0  0  0  0  0  0
   -5.0035   25.9720  -26.7277 C   0  0  0  0  0  0  0  0  0  0  0  0
   -5.0131   27.2697  -26.3482 F   0  0  0  0  0  0  0  0  0  0  0  0
   -4.4603   25.0569  -25.8193 C   0  0  0  0  0  0  0  0  0  0  0  0
   -4.8861   21.7956  -24.7174 C   0  0  0  0  0  0  0  0  0  0  0  0
   -5.5015   22.4013  -23.5240 C   0  0  0  0  0  0  0  0  0  0  0  0
   -6.7059   22.9977  -23.4056 N   0  0  0  0  0  0  0  0  0  0  0  0
   -6.8091   23.4044  -22.1386 C   0  0  0  0  0  0  0  0  0  0  0  0
   -5.6710   23.0667  -21.4498 C   0  0  0  0  0  0  0  0  0  0  0  0
   -4.8699   22.4429  -22.3309 N   0  0  0  0  0  0  0  0  0  0  0  0
   -3.9248   22.0682  -22.1030 H   0  0  0  0  0  0  0  0  0  0  0  0
 11 12  1  0  0  0
 12 13  1  0  0  0
 13 14  2  0  0  0
 14 15  1  0  0  0
 15 16  2  0  0  0
 14  1  1  0  0  0
  1  2  2  0  0  0
  2  3  1  0  0  0
  3  4  2  0  0  0
  4  5  1  0  0  0
  5  6  2  0  0  0
  6  7  1  0  0  0
  7  8  2  0  0  0
  8  9  1  0  0  0
  9 10  2  0  0  0
  7 17  1  0  0  0
 17 26  1  0  0  0
 26 27  1  0  0  0
 27 28  2  0  0  0
 28 29  1  0  0  0
 29 30  2  0  0  0
 30 31  1  0  0  0
 17 18  1  0  0  0
 18 19  2  0  0  0
 19 20  1  0  0  0
 20 21  1  0  0  0
 20 22  2  0  0  0
 22 23  1  0  0  0
 23 24  1  0  0  0
 23 25  2  0  0  0
 16 12  1  0  0  0
 10  1  1  0  0  0
 31 27  1  0  0  0
 25 18  1  0  0  0
  9  4  1  0  0  0
 31 32  1  0  0  0
M  END
> <minimizedAffinity>
-7.98593

> <CNNscore>
0.2218421847

> <CNNaffinity>
7.0165138245

> <CNN_VS>
1.5565587282

> <CNNaffinity_variance>
0.1382961422

$$$$
[H]c1nc2c([H])c([H])c(N(c3c([H])c(F)c([H])c(F)c3[H])C([H])([H])c3nc([H])c([H])n3[H])nc2c([H])c1-c1c([H])nn(C([H])([H])[H])c1[H]


 32 36  0  0  0  0  0  0  0  0999 V2000
   -7.6853   24.3221  -22.4976 C   0  0  0  0  0  0  0  0  0  0  0  0
   -7.6282   25.6972  -22.5666 C   0  0  0  0  0  0  0  0  0  0  0  0
   -6.8744   26.3605  -23.4610 N   0  0  0  0  0  0  0  0  0  0  0  0
   -6.1096   25.6838  -24.3657 C   0  0  0  0  0  0  0  0  0  0  0  0
   -5.3242   26.3395  -25.2764 C   0  0  0  0  0  0  0  0  0  0  0  0
   -4.5671   25.5581  -26.1522 C   0  0  0  0  0  0  0  0  0  0  0  0
   -4.6036   24.1575  -26.1101 C   0  0  0  0  0  0  0  0  0  0  0  0
   -5.4112   23.6272  -25.1752 N   0  0  0  0  0  0  0  0  0  0  0  0
   -6.1401   24.3133  -24.3289 C   0  0  0  0  0  0  0  0  0  0  0  0
   -6.9277   23.6139  -23.3955 C   0  0  0  0  0  0  0  0  0  0  0  0
  -11.2719   23.3310  -19.1374 C   0  0  0  0  0  0  0  0  0  0  0  0
  -10.1125   23.1995  -20.0099 N   0  0  0  0  0  0  0  0  0  0  0  0
   -9.6124   24.1235  -20.8583 C   0  0  0  0  0  0  0  0  0  0  0  0
   -8.4976   23.6056  -21.5037 C   0  0  0  0  0  0  0  0  0  0  0  0
   -8.3534   22.3295  -21.0027 C   0  0  0  0  0  0  0  0  0  0  0  0
   -9.3443   22.1354  -20.1124 N   0  0  0  0  0  0  0  0  0  0  0  0
   -3.8039   23.4254  -26.9964 N   0  0  0  0  0  0  0  0  0  0  0  0
   -2.4800   22.9732  -26.7594 C   0  0  0  0  0  0  0  0  0  0  0  0
   -2.1395   22.5919  -25.4373 C   0  0  0  0  0  0  0  0  0  0  0  0
   -0.8867   22.1412  -25.1075 C   0  0  0  0  0  0  0  0  0  0  0  0
   -0.6126   21.7824  -23.8284 F   0  0  0  0  0  0  0  0  0  0  0  0
    0.0874   22.0481  -26.0644 C   0  0  0  0  0  0  0  0  0  0  0  0
   -0.2387   22.4165  -27.3402 C   0  0  0  0  0  0  0  0  0  0  0  0
    0.6896   22.3479  -28.3209 F   0  0  0  0  0  0  0  0  0  0  0  0
   -1.5072   22.8781  -27.7085 C   0  0  0  0  0  0  0  0  0  0  0  0
   -4.4139   23.0101  -28.2763 C   0  0  0  0  0  0  0  0  0  0  0  0
   -4.7421   24.1778  -29.1121 C   0  0  0  0  0  0  0  0  0  0  0  0
   -5.9498   24.5899  -29.5503 N   0  0  0  0  0  0  0  0  0  0  0  0
   -5.7377   25.6821  -30.2873 C   0  0  0  0  0  0  0  0  0  0  0  0
   -4.3953   25.9664  -30.3182 C   0  0  0  0  0  0  0  0  0  0  0  0
   -3.7935   25.0176  -29.5802 N   0  0  0  0  0  0  0  0  0  0  0  0
   -2.7657   24.9635  -29.4172 H   0  0  0  0  0  0  0  0  0  0  0  0
 11 12  1  0  0  0
 12 13  1  0  0  0
 13 14  2  0  0  0
 14 15  1  0  0  0
 15 16  2  0  0  0
 14  1  1  0  0  0
  1  2  2  0  0  0
  2  3  1  0  0  0
  3  4  2  0  0  0
  4  5  1  0  0  0
  5  6  2  0  0  0
  6  7  1  0  0  0
  7  8  2  0  0  0
  8  9  1  0  0  0
  9 10  2  0  0  0
  7 17  1  0  0  0
 17 26  1  0  0  0
 26 27  1  0  0  0
 27 28  2  0  0  0
 28 29  1  0  0  0
 29 30  2  0  0  0
 30 31  1  0  0  0
 17 18  1  0  0  0
 18 19  2  0  0  0
 19 20  1  0  0  0
 20 21  1  0  0  0
 20 22  2  0  0  0
 22 23  1  0  0  0
 23 24  1  0  0  0
 23 25  2  0  0  0
 16 12  1  0  0  0
 10  1  1  0  0  0
 31 27  1  0  0  0
 25 18  1  0  0  0
  9  4  1  0  0  0
 31 32  1  0  0  0
M  END
> <minimizedAffinity>
-9.86140

> <CNNscore>
0.2172660679

> <CNNaffinity>
6.9322104454

> <CNN_VS>
1.5061341524

> <CNNaffinity_variance>
0.2615351081

$$$$
[H]c1nc([H])c(N2C(=O)N(c3c(F)c(OC([H])([H])[H])c([H])c(OC([H])([H])[H])c3F)C([H])([H])c3c([H])nc(-c4c(C([H])([H])[H])nn(C([H])([H])[H])c4[H])c([H])c32)nc1[H]


 36 40  0  0  0  0  0  0  0  0999 V2000
    0.5163   21.4731  -18.0381 N   0  0  0  0  0  0  0  0  0  0  0  0
   -0.4751   22.3059  -18.6693 C   0  0  0  0  0  0  0  0  0  0  0  0
   -0.5142   22.2020  -20.1336 C   0  0  0  0  0  0  0  0  0  0  0  0
   -1.4451   22.9582  -20.8190 C   0  0  0  0  0  0  0  0  0  0  0  0
   -1.5604   22.9341  -22.1428 N   0  0  0  0  0  0  0  0  0  0  0  0
   -0.7605   22.1555  -22.9218 C   0  0  0  0  0  0  0  0  0  0  0  0
    0.1567   21.4046  -22.2977 C   0  0  0  0  0  0  0  0  0  0  0  0
    0.2990   21.4124  -20.8894 C   0  0  0  0  0  0  0  0  0  0  0  0
    1.2524   20.6236  -20.2170 N   0  0  0  0  0  0  0  0  0  0  0  0
    1.3763   20.6400  -18.8002 C   0  0  0  0  0  0  0  0  0  0  0  0
    2.2577   19.9075  -18.2198 O   0  0  0  0  0  0  0  0  0  0  0  0
    1.7209   22.3706  -14.6373 C   0  0  0  0  0  0  0  0  0  0  0  0
    0.9934   21.4754  -13.8719 C   0  0  0  0  0  0  0  0  0  0  0  0
    0.1213   20.5924  -14.4564 C   0  0  0  0  0  0  0  0  0  0  0  0
   -0.0477   20.5808  -15.8328 C   0  0  0  0  0  0  0  0  0  0  0  0
   -0.8985   19.7169  -16.4279 F   0  0  0  0  0  0  0  0  0  0  0  0
    0.6639   21.4633  -16.6422 C   0  0  0  0  0  0  0  0  0  0  0  0
    1.5194   22.3231  -16.0171 C   0  0  0  0  0  0  0  0  0  0  0  0
    2.2332   23.2010  -16.7944 F   0  0  0  0  0  0  0  0  0  0  0  0
    2.1840   24.0796  -13.0273 C   0  0  0  0  0  0  0  0  0  0  0  0
    2.6189   23.2922  -14.1213 O   0  0  0  0  0  0  0  0  0  0  0  0
   -0.5925   19.7091  -13.6796 O   0  0  0  0  0  0  0  0  0  0  0  0
   -1.8414   20.0520  -13.1341 C   0  0  0  0  0  0  0  0  0  0  0  0
   -0.9785   22.1477  -24.3637 C   0  0  0  0  0  0  0  0  0  0  0  0
    0.0453   22.4205  -25.3050 C   0  0  0  0  0  0  0  0  0  0  0  0
   -0.4920   22.2903  -26.5120 N   0  0  0  0  0  0  0  0  0  0  0  0
    0.3063   22.5103  -27.7358 C   0  0  0  0  0  0  0  0  0  0  0  0
   -1.7407   21.9643  -26.4118 N   0  0  0  0  0  0  0  0  0  0  0  0
   -2.0938   21.8615  -25.0925 C   0  0  0  0  0  0  0  0  0  0  0  0
   -3.4401   21.4857  -24.6578 C   0  0  0  0  0  0  0  0  0  0  0  0
    2.0943   19.7815  -20.9896 C   0  0  0  0  0  0  0  0  0  0  0  0
    3.1438   20.2384  -21.7452 C   0  0  0  0  0  0  0  0  0  0  0  0
    3.8887   19.3387  -22.4496 N   0  0  0  0  0  0  0  0  0  0  0  0
    3.6179   18.0265  -22.4181 C   0  0  0  0  0  0  0  0  0  0  0  0
    2.5516   17.5938  -21.6457 C   0  0  0  0  0  0  0  0  0  0  0  0
    1.8214   18.4626  -20.9574 N   0  0  0  0  0  0  0  0  0  0  0  0
 20 21  1  0  0  0
 21 12  1  0  0  0
 12 13  2  0  0  0
 13 14  1  0  0  0
 14 22  1  0  0  0
 22 23  1  0  0  0
 14 15  2  0  0  0
 15 16  1  0  0  0
 15 17  1  0  0  0
 17  1  1  0  0  0
  1  2  1  0  0  0
  2  3  1  0  0  0
  3  4  2  0  0  0
  4  5  1  0  0  0
  5  6  2  0  0  0
  6  7  1  0  0  0
  7  8  2  0  0  0
  8  9  1  0  0  0
  9 10  1  0  0  0
 10 11  2  0  0  0
  9 31  1  0  0  0
 31 32  2  0  0  0
 32 33  1  0  0  0
 33 34  2  0  0  0
 34 35  1  0  0  0
 35 36  2  0  0  0
  6 24  1  0  0  0
 24 25  2  0  0  0
 25 26  1  0  0  0
 26 27  1  0  0  0
 26 28  1  0  0  0
 28 29  2  0  0  0
 29 30  1  0  0  0
 17 18  2  0  0  0
 18 19  1  0  0  0
 18 12  1  0  0  0
 10  1  1  0  0  0
 36 31  1  0  0  0
 29 24  1  0  0  0
  8  3  1  0  0  0
M  END
> <minimizedAffinity>
-6.74803

> <CNNscore>
0.2249951214

> <CNNaffinity>
6.2344093323

> <CNN_VS>
1.4027116299

> <CNNaffinity_variance>
0.1467970908

$$$$
[H]c1nc([H])c(N2C(=O)N(c3c(F)c(OC([H])([H])[H])c([H])c(OC([H])([H])[H])c3F)C([H])([H])c3c([H])nc(-c4c(C([H])([H])[H])nn(C([H])([H])[H])c4[H])c([H])c32)nc1[H]


 36 40  0  0  0  0  0  0  0  0999 V2000
   -5.4789   22.4601  -20.2860 N   0  0  0  0  0  0  0  0  0  0  0  0
   -4.1816   21.8401  -20.3732 C   0  0  0  0  0  0  0  0  0  0  0  0
   -3.5077   22.0183  -21.6656 C   0  0  0  0  0  0  0  0  0  0  0  0
   -2.2525   21.4659  -21.8312 C   0  0  0  0  0  0  0  0  0  0  0  0
   -1.5609   21.5720  -22.9612 N   0  0  0  0  0  0  0  0  0  0  0  0
   -2.0474   22.2383  -24.0439 C   0  0  0  0  0  0  0  0  0  0  0  0
   -3.2622   22.7906  -23.9268 C   0  0  0  0  0  0  0  0  0  0  0  0
   -4.0182   22.6920  -22.7341 C   0  0  0  0  0  0  0  0  0  0  0  0
   -5.2930   23.2732  -22.5915 N   0  0  0  0  0  0  0  0  0  0  0  0
   -6.0352   23.1688  -21.3827 C   0  0  0  0  0  0  0  0  0  0  0  0
   -7.1958   23.7113  -21.2878 O   0  0  0  0  0  0  0  0  0  0  0  0
   -7.8716   21.1849  -17.7422 C   0  0  0  0  0  0  0  0  0  0  0  0
   -7.7669   22.1778  -16.7832 C   0  0  0  0  0  0  0  0  0  0  0  0
   -6.9269   23.2473  -16.9628 C   0  0  0  0  0  0  0  0  0  0  0  0
   -6.1634   23.3536  -18.1155 C   0  0  0  0  0  0  0  0  0  0  0  0
   -5.3332   24.4005  -18.3131 F   0  0  0  0  0  0  0  0  0  0  0  0
   -6.2370   22.3784  -19.1074 C   0  0  0  0  0  0  0  0  0  0  0  0
   -7.0857   21.3332  -18.8854 C   0  0  0  0  0  0  0  0  0  0  0  0
   -7.1766   20.3606  -19.8499 F   0  0  0  0  0  0  0  0  0  0  0  0
   -9.7822   20.1603  -16.7287 C   0  0  0  0  0  0  0  0  0  0  0  0
   -8.6955   20.0753  -17.6330 O   0  0  0  0  0  0  0  0  0  0  0  0
   -6.8368   24.2252  -15.9990 O   0  0  0  0  0  0  0  0  0  0  0  0
   -6.6500   23.9069  -14.6431 C   0  0  0  0  0  0  0  0  0  0  0  0
   -1.2100   22.3514  -25.2324 C   0  0  0  0  0  0  0  0  0  0  0  0
   -1.7025   22.7772  -26.4914 C   0  0  0  0  0  0  0  0  0  0  0  0
   -0.6700   22.7982  -27.3255 N   0  0  0  0  0  0  0  0  0  0  0  0
   -0.8324   23.1974  -28.7389 C   0  0  0  0  0  0  0  0  0  0  0  0
    0.4082   22.4306  -26.7105 N   0  0  0  0  0  0  0  0  0  0  0  0
    0.1258   22.1418  -25.4018 C   0  0  0  0  0  0  0  0  0  0  0  0
    1.1481   21.7172  -24.4440 C   0  0  0  0  0  0  0  0  0  0  0  0
   -5.8302   23.9944  -23.6897 C   0  0  0  0  0  0  0  0  0  0  0  0
   -6.5700   23.4193  -24.6913 C   0  0  0  0  0  0  0  0  0  0  0  0
   -7.0383   24.2087  -25.7003 N   0  0  0  0  0  0  0  0  0  0  0  0
   -6.7922   25.5258  -25.7321 C   0  0  0  0  0  0  0  0  0  0  0  0
   -6.0422   26.0793  -24.7065 C   0  0  0  0  0  0  0  0  0  0  0  0
   -5.5824   25.3182  -23.7210 N   0  0  0  0  0  0  0  0  0  0  0  0
 20 21  1  0  0  0
 21 12  1  0  0  0
 12 13  2  0  0  0
 13 14  1  0  0  0
 14 22  1  0  0  0
 22 23  1  0  0  0
 14 15  2  0  0  0
 15 16  1  0  0  0
 15 17  1  0  0  0
 17  1  1  0  0  0
  1  2  1  0  0  0
  2  3  1  0  0  0
  3  4  2  0  0  0
  4  5  1  0  0  0
  5  6  2  0  0  0
  6  7  1  0  0  0
  7  8  2  0  0  0
  8  9  1  0  0  0
  9 10  1  0  0  0
 10 11  2  0  0  0
  9 31  1  0  0  0
 31 32  2  0  0  0
 32 33  1  0  0  0
 33 34  2  0  0  0
 34 35  1  0  0  0
 35 36  2  0  0  0
  6 24  1  0  0  0
 24 25  2  0  0  0
 25 26  1  0  0  0
 26 27  1  0  0  0
 26 28  1  0  0  0
 28 29  2  0  0  0
 29 30  1  0  0  0
 17 18  2  0  0  0
 18 19  1  0  0  0
 18 12  1  0  0  0
 10  1  1  0  0  0
 36 31  1  0  0  0
 29 24  1  0  0  0
  8  3  1  0  0  0
M  END
> <minimizedAffinity>
-7.62393

> <CNNscore>
0.1947222054

> <CNNaffinity>
6.7837591171

> <CNN_VS>
1.3209484816

> <CNNaffinity_variance>
0.0736559108

$$$$
[H]c1nc([H])c(N2C(=O)N(c3c(F)c(OC([H])([H])[H])c([H])c(OC([H])([H])[H])c3F)C([H])([H])c3c([H])nc(-c4c(C([H])([H])[H])nn(C([H])([H])[H])c4[H])c([H])c32)nc1[H]


 36 40  0  0  0  0  0  0  0  0999 V2000
    0.5618   21.7906  -17.9704 N   0  0  0  0  0  0  0  0  0  0  0  0
   -0.4320   22.6057  -18.6207 C   0  0  0  0  0  0  0  0  0  0  0  0
   -0.5013   22.4343  -20.0775 C   0  0  0  0  0  0  0  0  0  0  0  0
   -1.4365   23.1696  -20.7795 C   0  0  0  0  0  0  0  0  0  0  0  0
   -1.5783   23.0854  -22.0983 N   0  0  0  0  0  0  0  0  0  0  0  0
   -0.8032   22.2612  -22.8552 C   0  0  0  0  0  0  0  0  0  0  0  0
    0.1172   21.5286  -22.2145 C   0  0  0  0  0  0  0  0  0  0  0  0
    0.2874   21.6001  -20.8111 C   0  0  0  0  0  0  0  0  0  0  0  0
    1.2445   20.8313  -20.1209 N   0  0  0  0  0  0  0  0  0  0  0  0
    1.3967   20.9120  -18.7091 C   0  0  0  0  0  0  0  0  0  0  0  0
    2.2806   20.1961  -18.1121 O   0  0  0  0  0  0  0  0  0  0  0  0
   -0.0170   21.2156  -14.3433 C   0  0  0  0  0  0  0  0  0  0  0  0
    1.0425   21.9272  -13.8069 C   0  0  0  0  0  0  0  0  0  0  0  0
    1.9339   22.5841  -14.6167 C   0  0  0  0  0  0  0  0  0  0  0  0
    1.7883   22.5470  -15.9952 C   0  0  0  0  0  0  0  0  0  0  0  0
    2.6528   23.1901  -16.8096 F   0  0  0  0  0  0  0  0  0  0  0  0
    0.7368   21.8439  -16.5787 C   0  0  0  0  0  0  0  0  0  0  0  0
   -0.1246   21.2061  -15.7342 C   0  0  0  0  0  0  0  0  0  0  0  0
   -1.1699   20.5082  -16.2862 F   0  0  0  0  0  0  0  0  0  0  0  0
   -1.5196   21.1999  -12.4806 C   0  0  0  0  0  0  0  0  0  0  0  0
   -0.9568   20.5265  -13.5923 O   0  0  0  0  0  0  0  0  0  0  0  0
    2.9803   23.2873  -14.0655 O   0  0  0  0  0  0  0  0  0  0  0  0
    4.2343   22.6911  -13.8489 C   0  0  0  0  0  0  0  0  0  0  0  0
   -1.0498   22.1892  -24.2907 C   0  0  0  0  0  0  0  0  0  0  0  0
   -0.0568   22.4650  -25.2637 C   0  0  0  0  0  0  0  0  0  0  0  0
   -0.6128   22.2673  -26.4529 N   0  0  0  0  0  0  0  0  0  0  0  0
    0.1512   22.4707  -27.7013 C   0  0  0  0  0  0  0  0  0  0  0  0
   -1.8453   21.8970  -26.3134 N   0  0  0  0  0  0  0  0  0  0  0  0
   -2.1673   21.8317  -24.9838 C   0  0  0  0  0  0  0  0  0  0  0  0
   -3.4886   21.4208  -24.5061 C   0  0  0  0  0  0  0  0  0  0  0  0
    2.0609   19.9435  -20.8693 C   0  0  0  0  0  0  0  0  0  0  0  0
    3.1261   20.3474  -21.6332 C   0  0  0  0  0  0  0  0  0  0  0  0
    3.8435   19.4069  -22.3122 N   0  0  0  0  0  0  0  0  0  0  0  0
    3.5311   18.1052  -22.2481 C   0  0  0  0  0  0  0  0  0  0  0  0
    2.4499   17.7264  -21.4681 C   0  0  0  0  0  0  0  0  0  0  0  0
    1.7462   18.6352  -20.8043 N   0  0  0  0  0  0  0  0  0  0  0  0
 20 21  1  0  0  0
 21 12  1  0  0  0
 12 13  2  0  0  0
 13 14  1  0  0  0
 14 22  1  0  0  0
 22 23  1  0  0  0
 14 15  2  0  0  0
 15 16  1  0  0  0
 15 17  1  0  0  0
 17  1  1  0  0  0
  1  2  1  0  0  0
  2  3  1  0  0  0
  3  4  2  0  0  0
  4  5  1  0  0  0
  5  6  2  0  0  0
  6  7  1  0  0  0
  7  8  2  0  0  0
  8  9  1  0  0  0
  9 10  1  0  0  0
 10 11  2  0  0  0
  9 31  1  0  0  0
 31 32  2  0  0  0
 32 33  1  0  0  0
 33 34  2  0  0  0
 34 35  1  0  0  0
 35 36  2  0  0  0
  6 24  1  0  0  0
 24 25  2  0  0  0
 25 26  1  0  0  0
 26 27  1  0  0  0
 26 28  1  0  0  0
 28 29  2  0  0  0
 29 30  1  0  0  0
 17 18  2  0  0  0
 18 19  1  0  0  0
 18 12  1  0  0  0
 10  1  1  0  0  0
 36 31  1  0  0  0
 29 24  1  0  0  0
  8  3  1  0  0  0
M  END
> <minimizedAffinity>
-6.79893

> <CNNscore>
0.1884534806

> <CNNaffinity>
6.2444558144

> <CNN_VS>
1.1767894030

> <CNNaffinity_variance>
0.0955940634

$$$$
[H]c1nc([H])c(N2C(=O)N(c3c(F)c(OC([H])([H])[H])c([H])c(OC([H])([H])[H])c3F)C([H])([H])c3c([H])nc(-c4c(C([H])([H])[H])nn(C([H])([H])[H])c4[H])c([H])c32)nc1[H]


 36 40  0  0  0  0  0  0  0  0999 V2000
   -4.1388   22.3491  -17.1801 N   0  0  0  0  0  0  0  0  0  0  0  0
   -2.8738   21.9768  -16.6005 C   0  0  0  0  0  0  0  0  0  0  0  0
   -1.7760   21.8477  -17.5672 C   0  0  0  0  0  0  0  0  0  0  0  0
   -0.5240   21.5055  -17.0944 C   0  0  0  0  0  0  0  0  0  0  0  0
    0.5331   21.3647  -17.8876 N   0  0  0  0  0  0  0  0  0  0  0  0
    0.4533   21.5491  -19.2339 C   0  0  0  0  0  0  0  0  0  0  0  0
   -0.7431   21.8829  -19.7355 C   0  0  0  0  0  0  0  0  0  0  0  0
   -1.8836   22.0392  -18.9118 C   0  0  0  0  0  0  0  0  0  0  0  0
   -3.1466   22.3973  -19.4216 N   0  0  0  0  0  0  0  0  0  0  0  0
   -4.2800   22.5559  -18.5772 C   0  0  0  0  0  0  0  0  0  0  0  0
   -5.4175   22.8832  -19.0766 O   0  0  0  0  0  0  0  0  0  0  0  0
   -6.7250   23.9833  -15.0676 C   0  0  0  0  0  0  0  0  0  0  0  0
   -7.5255   22.8943  -14.7681 C   0  0  0  0  0  0  0  0  0  0  0  0
   -7.2269   21.6448  -15.2494 C   0  0  0  0  0  0  0  0  0  0  0  0
   -6.1109   21.4495  -16.0490 C   0  0  0  0  0  0  0  0  0  0  0  0
   -5.7976   20.2268  -16.5297 F   0  0  0  0  0  0  0  0  0  0  0  0
   -5.2768   22.5163  -16.3755 C   0  0  0  0  0  0  0  0  0  0  0  0
   -5.6131   23.7402  -15.8744 C   0  0  0  0  0  0  0  0  0  0  0  0
   -4.8048   24.8064  -16.1812 F   0  0  0  0  0  0  0  0  0  0  0  0
   -7.4912   25.4226  -13.3157 C   0  0  0  0  0  0  0  0  0  0  0  0
   -6.9608   25.2743  -14.6207 O   0  0  0  0  0  0  0  0  0  0  0  0
   -8.0337   20.5739  -14.9403 O   0  0  0  0  0  0  0  0  0  0  0  0
   -9.1352   20.2273  -15.7411 C   0  0  0  0  0  0  0  0  0  0  0  0
    1.6670   21.4221  -20.0324 C   0  0  0  0  0  0  0  0  0  0  0  0
    1.6973   20.7994  -21.3052 C   0  0  0  0  0  0  0  0  0  0  0  0
    2.9426   20.8953  -21.7551 N   0  0  0  0  0  0  0  0  0  0  0  0
    3.3297   20.3397  -23.0684 C   0  0  0  0  0  0  0  0  0  0  0  0
    3.6827   21.5137  -20.8916 N   0  0  0  0  0  0  0  0  0  0  0  0
    2.9347   21.8646  -19.7993 C   0  0  0  0  0  0  0  0  0  0  0  0
    3.4890   22.5968  -18.6593 C   0  0  0  0  0  0  0  0  0  0  0  0
   -3.2702   22.6187  -20.8182 C   0  0  0  0  0  0  0  0  0  0  0  0
   -3.7063   21.6680  -21.7055 C   0  0  0  0  0  0  0  0  0  0  0  0
   -3.7871   21.9900  -23.0285 N   0  0  0  0  0  0  0  0  0  0  0  0
   -3.4517   23.2081  -23.4756 C   0  0  0  0  0  0  0  0  0  0  0  0
   -3.0147   24.1485  -22.5560 C   0  0  0  0  0  0  0  0  0  0  0  0
   -2.9329   23.8434  -21.2668 N   0  0  0  0  0  0  0  0  0  0  0  0
 20 21  1  0  0  0
 21 12  1  0  0  0
 12 13  2  0  0  0
 13 14  1  0  0  0
 14 22  1  0  0  0
 22 23  1  0  0  0
 14 15  2  0  0  0
 15 16  1  0  0  0
 15 17  1  0  0  0
 17  1  1  0  0  0
  1  2  1  0  0  0
  2  3  1  0  0  0
  3  4  2  0  0  0
  4  5  1  0  0  0
  5  6  2  0  0  0
  6  7  1  0  0  0
  7  8  2  0  0  0
  8  9  1  0  0  0
  9 10  1  0  0  0
 10 11  2  0  0  0
  9 31  1  0  0  0
 31 32  2  0  0  0
 32 33  1  0  0  0
 33 34  2  0  0  0
 34 35  1  0  0  0
 35 36  2  0  0  0
  6 24  1  0  0  0
 24 25  2  0  0  0
 25 26  1  0  0  0
 26 27  1  0  0  0
 26 28  1  0  0  0
 28 29  2  0  0  0
 29 30  1  0  0  0
 17 18  2  0  0  0
 18 19  1  0  0  0
 18 12  1  0  0  0
 10  1  1  0  0  0
 36 31  1  0  0  0
 29 24  1  0  0  0
  8  3  1  0  0  0
M  END
> <minimizedAffinity>
-6.25296

> <CNNscore>
0.1386250854

> <CNNaffinity>
6.0672302246

> <CNN_VS>
0.8410702944

> <CNNaffinity_variance>
0.0240502227

$$$$
[H]c1nc([H])c(N2C(=O)N(c3c(F)c(OC([H])([H])[H])c([H])c(OC([H])([H])[H])c3F)C([H])([H])c3c([H])nc(-c4c(C([H])([H])[H])nn(C([H])([H])[H])c4[H])c([H])c32)nc1[H]


 36 40  0  0  0  0  0  0  0  0999 V2000
   -0.4712   21.5546  -20.5217 N   0  0  0  0  0  0  0  0  0  0  0  0
    0.2794   21.4087  -21.7424 C   0  0  0  0  0  0  0  0  0  0  0  0
   -0.4695   21.7421  -22.9608 C   0  0  0  0  0  0  0  0  0  0  0  0
    0.1792   21.6416  -24.1762 C   0  0  0  0  0  0  0  0  0  0  0  0
   -0.4105   21.9212  -25.3340 N   0  0  0  0  0  0  0  0  0  0  0  0
   -1.7074   22.3289  -25.4021 C   0  0  0  0  0  0  0  0  0  0  0  0
   -2.3747   22.4408  -24.2460 C   0  0  0  0  0  0  0  0  0  0  0  0
   -1.7690   22.1494  -23.0002 C   0  0  0  0  0  0  0  0  0  0  0  0
   -2.4534   22.2692  -21.7753 N   0  0  0  0  0  0  0  0  0  0  0  0
   -1.8260   21.9778  -20.5326 C   0  0  0  0  0  0  0  0  0  0  0  0
   -2.4809   22.0978  -19.4339 O   0  0  0  0  0  0  0  0  0  0  0  0
    0.6795   19.6634  -17.5349 C   0  0  0  0  0  0  0  0  0  0  0  0
    1.2713   20.6825  -16.8085 C   0  0  0  0  0  0  0  0  0  0  0  0
    1.2960   21.9681  -17.2866 C   0  0  0  0  0  0  0  0  0  0  0  0
    0.7248   22.2713  -18.5133 C   0  0  0  0  0  0  0  0  0  0  0  0
    0.7353   23.5312  -18.9999 F   0  0  0  0  0  0  0  0  0  0  0  0
    0.1179   21.2777  -19.2780 C   0  0  0  0  0  0  0  0  0  0  0  0
    0.1172   20.0143  -18.7626 C   0  0  0  0  0  0  0  0  0  0  0  0
   -0.4769   19.0186  -19.4975 F   0  0  0  0  0  0  0  0  0  0  0  0
   -0.3796   18.0077  -16.1694 C   0  0  0  0  0  0  0  0  0  0  0  0
    0.6155   18.3421  -17.1202 O   0  0  0  0  0  0  0  0  0  0  0  0
    1.8879   22.9684  -16.5501 O   0  0  0  0  0  0  0  0  0  0  0  0
    3.2246   23.3461  -16.7628 C   0  0  0  0  0  0  0  0  0  0  0  0
   -2.2705   22.6618  -26.7055 C   0  0  0  0  0  0  0  0  0  0  0  0
   -3.6639   22.7502  -26.9495 C   0  0  0  0  0  0  0  0  0  0  0  0
   -3.8140   23.1059  -28.2197 N   0  0  0  0  0  0  0  0  0  0  0  0
   -5.1550   23.2870  -28.8132 C   0  0  0  0  0  0  0  0  0  0  0  0
   -2.6572   23.2470  -28.7834 N   0  0  0  0  0  0  0  0  0  0  0  0
   -1.6610   22.9826  -27.8814 C   0  0  0  0  0  0  0  0  0  0  0  0
   -0.2396   23.0785  -28.2175 C   0  0  0  0  0  0  0  0  0  0  0  0
   -3.8023   22.7106  -21.7987 C   0  0  0  0  0  0  0  0  0  0  0  0
   -4.8783   21.8686  -21.9194 C   0  0  0  0  0  0  0  0  0  0  0  0
   -6.1337   22.4020  -21.9303 N   0  0  0  0  0  0  0  0  0  0  0  0
   -6.3354   23.7228  -21.8258 C   0  0  0  0  0  0  0  0  0  0  0  0
   -5.2293   24.5491  -21.7047 C   0  0  0  0  0  0  0  0  0  0  0  0
   -4.0043   24.0383  -21.6935 N   0  0  0  0  0  0  0  0  0  0  0  0
 20 21  1  0  0  0
 21 12  1  0  0  0
 12 13  2  0  0  0
 13 14  1  0  0  0
 14 22  1  0  0  0
 22 23  1  0  0  0
 14 15  2  0  0  0
 15 16  1  0  0  0
 15 17  1  0  0  0
 17  1  1  0  0  0
  1  2  1  0  0  0
  2  3  1  0  0  0
  3  4  2  0  0  0
  4  5  1  0  0  0
  5  6  2  0  0  0
  6  7  1  0  0  0
  7  8  2  0  0  0
  8  9  1  0  0  0
  9 10  1  0  0  0
 10 11  2  0  0  0
  9 31  1  0  0  0
 31 32  2  0  0  0
 32 33  1  0  0  0
 33 34  2  0  0  0
 34 35  1  0  0  0
 35 36  2  0  0  0
  6 24  1  0  0  0
 24 25  2  0  0  0
 25 26  1  0  0  0
 26 27  1  0  0  0
 26 28  1  0  0  0
 28 29  2  0  0  0
 29 30  1  0  0  0
 17 18  2  0  0  0
 18 19  1  0  0  0
 18 12  1  0  0  0
 10  1  1  0  0  0
 36 31  1  0  0  0
 29 24  1  0  0  0
  8  3  1  0  0  0
M  END
> <minimizedAffinity>
-7.88766

> <CNNscore>
0.1341920942

> <CNNaffinity>
6.8738617897

> <CNN_VS>
0.9224178791

> <CNNaffinity_variance>
0.0276427716

$$$$
[H]c1nc([H])c(N2C(=O)N(c3c(F)c(OC([H])([H])[H])c([H])c(OC([H])([H])[H])c3F)C([H])([H])c3c([H])nc(-c4c(C([H])([H])[H])nn(C([H])([H])[H])c4[H])c([H])c32)nc1[H]


 36 40  0  0  0  0  0  0  0  0999 V2000
   -0.5464   21.5099  -20.4466 N   0  0  0  0  0  0  0  0  0  0  0  0
    0.2101   21.3336  -21.6596 C   0  0  0  0  0  0  0  0  0  0  0  0
   -0.5142   21.6915  -22.8859 C   0  0  0  0  0  0  0  0  0  0  0  0
    0.1420   21.5642  -24.0947 C   0  0  0  0  0  0  0  0  0  0  0  0
   -0.4258   21.8626  -25.2588 N   0  0  0  0  0  0  0  0  0  0  0  0
   -1.7061   22.3176  -25.3403 C   0  0  0  0  0  0  0  0  0  0  0  0
   -2.3800   22.4566  -24.1910 C   0  0  0  0  0  0  0  0  0  0  0  0
   -1.7975   22.1461  -22.9388 C   0  0  0  0  0  0  0  0  0  0  0  0
   -2.4888   22.2939  -21.7208 N   0  0  0  0  0  0  0  0  0  0  0  0
   -1.8845   21.9827  -20.4715 C   0  0  0  0  0  0  0  0  0  0  0  0
   -2.5451   22.1293  -19.3794 O   0  0  0  0  0  0  0  0  0  0  0  0
    1.3065   21.9381  -17.2521 C   0  0  0  0  0  0  0  0  0  0  0  0
    1.1675   20.6708  -16.7126 C   0  0  0  0  0  0  0  0  0  0  0  0
    0.4779   19.6908  -17.3804 C   0  0  0  0  0  0  0  0  0  0  0  0
   -0.0951   19.9539  -18.6155 C   0  0  0  0  0  0  0  0  0  0  0  0
   -0.7747   19.0018  -19.2907 F   0  0  0  0  0  0  0  0  0  0  0  0
    0.0201   21.2146  -19.1967 C   0  0  0  0  0  0  0  0  0  0  0  0
    0.7145   22.1575  -18.4962 C   0  0  0  0  0  0  0  0  0  0  0  0
    0.8430   23.4070  -19.0499 F   0  0  0  0  0  0  0  0  0  0  0  0
    3.3789   23.0753  -16.8784 C   0  0  0  0  0  0  0  0  0  0  0  0
    1.9862   22.9793  -16.6389 O   0  0  0  0  0  0  0  0  0  0  0  0
    0.3509   18.4366  -16.8290 O   0  0  0  0  0  0  0  0  0  0  0  0
   -0.7527   18.0924  -16.0301 C   0  0  0  0  0  0  0  0  0  0  0  0
   -2.2440   22.6678  -26.6498 C   0  0  0  0  0  0  0  0  0  0  0  0
   -3.6305   22.8118  -26.9063 C   0  0  0  0  0  0  0  0  0  0  0  0
   -3.7551   23.1681  -28.1791 N   0  0  0  0  0  0  0  0  0  0  0  0
   -5.0825   23.4013  -28.7849 C   0  0  0  0  0  0  0  0  0  0  0  0
   -2.5887   23.2599  -28.7331 N   0  0  0  0  0  0  0  0  0  0  0  0
   -1.6119   22.9588  -27.8215 C   0  0  0  0  0  0  0  0  0  0  0  0
   -0.1849   22.9955  -28.1455 C   0  0  0  0  0  0  0  0  0  0  0  0
   -3.8202   22.7846  -21.7582 C   0  0  0  0  0  0  0  0  0  0  0  0
   -4.9280   21.9792  -21.8320 C   0  0  0  0  0  0  0  0  0  0  0  0
   -6.1624   22.5588  -21.8619 N   0  0  0  0  0  0  0  0  0  0  0  0
   -6.3135   23.8899  -21.8206 C   0  0  0  0  0  0  0  0  0  0  0  0
   -5.1762   24.6784  -21.7459 C   0  0  0  0  0  0  0  0  0  0  0  0
   -3.9712   24.1226  -21.7166 N   0  0  0  0  0  0  0  0  0  0  0  0
 20 21  1  0  0  0
 21 12  1  0  0  0
 12 13  2  0  0  0
 13 14  1  0  0  0
 14 22  1  0  0  0
 22 23  1  0  0  0
 14 15  2  0  0  0
 15 16  1  0  0  0
 15 17  1  0  0  0
 17  1  1  0  0  0
  1  2  1  0  0  0
  2  3  1  0  0  0
  3  4  2  0  0  0
  4  5  1  0  0  0
  5  6  2  0  0  0
  6  7  1  0  0  0
  7  8  2  0  0  0
  8  9  1  0  0  0
  9 10  1  0  0  0
 10 11  2  0  0  0
  9 31  1  0  0  0
 31 32  2  0  0  0
 32 33  1  0  0  0
 33 34  2  0  0  0
 34 35  1  0  0  0
 35 36  2  0  0  0
  6 24  1  0  0  0
 24 25  2  0  0  0
 25 26  1  0  0  0
 26 27  1  0  0  0
 26 28  1  0  0  0
 28 29  2  0  0  0
 29 30  1  0  0  0
 17 18  2  0  0  0
 18 19  1  0  0  0
 18 12  1  0  0  0
 10  1  1  0  0  0
 36 31  1  0  0  0
 29 24  1  0  0  0
  8  3  1  0  0  0
M  END
> <minimizedAffinity>
-7.87893

> <CNNscore>
0.1240821928

> <CNNaffinity>
6.8097715378

> <CNN_VS>
0.8449713588

> <CNNaffinity_variance>
0.0288539827

$$$$
[H]c1nc([H])c(N2C(=O)N(c3c(F)c(OC([H])([H])[H])c([H])c(OC([H])([H])[H])c3F)C([H])([H])c3c([H])nc(-c4c(C([H])([H])[H])nn(C([H])([H])[H])c4[H])c([H])c32)nc1[H]


 36 40  0  0  0  0  0  0  0  0999 V2000
   -1.4134   22.1079  -23.8727 N   0  0  0  0  0  0  0  0  0  0  0  0
   -1.1270   21.8075  -25.2520 C   0  0  0  0  0  0  0  0  0  0  0  0
   -2.0504   22.4235  -26.2134 C   0  0  0  0  0  0  0  0  0  0  0  0
   -1.8408   22.1973  -27.5598 C   0  0  0  0  0  0  0  0  0  0  0  0
   -2.6194   22.7097  -28.5073 N   0  0  0  0  0  0  0  0  0  0  0  0
   -3.6880   23.4998  -28.2126 C   0  0  0  0  0  0  0  0  0  0  0  0
   -3.9278   23.7459  -26.9178 C   0  0  0  0  0  0  0  0  0  0  0  0
   -3.1133   23.2123  -25.8905 C   0  0  0  0  0  0  0  0  0  0  0  0
   -3.3466   23.4673  -24.5253 N   0  0  0  0  0  0  0  0  0  0  0  0
   -2.5132   22.9273  -23.5071 C   0  0  0  0  0  0  0  0  0  0  0  0
   -2.7557   23.1805  -22.2712 O   0  0  0  0  0  0  0  0  0  0  0  0
    1.6140   21.1624  -21.9328 C   0  0  0  0  0  0  0  0  0  0  0  0
    1.0259   20.5788  -20.8237 C   0  0  0  0  0  0  0  0  0  0  0  0
   -0.3386   20.4960  -20.7094 C   0  0  0  0  0  0  0  0  0  0  0  0
   -1.1579   20.9983  -21.7091 C   0  0  0  0  0  0  0  0  0  0  0  0
   -2.5034   20.9232  -21.6173 F   0  0  0  0  0  0  0  0  0  0  0  0
   -0.6100   21.5934  -22.8430 C   0  0  0  0  0  0  0  0  0  0  0  0
    0.7515   21.6534  -22.9134 C   0  0  0  0  0  0  0  0  0  0  0  0
    1.3146   22.2338  -24.0226 F   0  0  0  0  0  0  0  0  0  0  0  0
    3.8052   21.1915  -20.9711 C   0  0  0  0  0  0  0  0  0  0  0  0
    2.9822   21.2841  -22.1200 O   0  0  0  0  0  0  0  0  0  0  0  0
   -0.9053   19.9115  -19.6001 O   0  0  0  0  0  0  0  0  0  0  0  0
   -0.3740   18.7407  -19.0330 C   0  0  0  0  0  0  0  0  0  0  0  0
   -4.4674   24.0630  -29.3090 C   0  0  0  0  0  0  0  0  0  0  0  0
   -4.6125   25.4566  -29.5225 C   0  0  0  0  0  0  0  0  0  0  0  0
   -5.3468   25.6073  -30.6182 N   0  0  0  0  0  0  0  0  0  0  0  0
   -5.6960   26.9487  -31.1302 C   0  0  0  0  0  0  0  0  0  0  0  0
   -5.6683   24.4507  -31.1026 N   0  0  0  0  0  0  0  0  0  0  0  0
   -5.1435   23.4540  -30.3235 C   0  0  0  0  0  0  0  0  0  0  0  0
   -5.3183   22.0329  -30.6278 C   0  0  0  0  0  0  0  0  0  0  0  0
   -4.4390   24.3028  -24.1741 C   0  0  0  0  0  0  0  0  0  0  0  0
   -4.3847   25.6733  -24.1829 C   0  0  0  0  0  0  0  0  0  0  0  0
   -5.4966   26.3786  -23.8267 N   0  0  0  0  0  0  0  0  0  0  0  0
   -6.6331   25.7636  -23.4713 C   0  0  0  0  0  0  0  0  0  0  0  0
   -6.6587   24.3779  -23.4720 C   0  0  0  0  0  0  0  0  0  0  0  0
   -5.5811   23.6840  -23.8169 N   0  0  0  0  0  0  0  0  0  0  0  0
 20 21  1  0  0  0
 21 12  1  0  0  0
 12 13  2  0  0  0
 13 14  1  0  0  0
 14 22  1  0  0  0
 22 23  1  0  0  0
 14 15  2  0  0  0
 15 16  1  0  0  0
 15 17  1  0  0  0
 17  1  1  0  0  0
  1  2  1  0  0  0
  2  3  1  0  0  0
  3  4  2  0  0  0
  4  5  1  0  0  0
  5  6  2  0  0  0
  6  7  1  0  0  0
  7  8  2  0  0  0
  8  9  1  0  0  0
  9 10  1  0  0  0
 10 11  2  0  0  0
  9 31  1  0  0  0
 31 32  2  0  0  0
 32 33  1  0  0  0
 33 34  2  0  0  0
 34 35  1  0  0  0
 35 36  2  0  0  0
  6 24  1  0  0  0
 24 25  2  0  0  0
 25 26  1  0  0  0
 26 27  1  0  0  0
 26 28  1  0  0  0
 28 29  2  0  0  0
 29 30  1  0  0  0
 17 18  2  0  0  0
 18 19  1  0  0  0
 18 12  1  0  0  0
 10  1  1  0  0  0
 36 31  1  0  0  0
 29 24  1  0  0  0
  8  3  1  0  0  0
M  END
> <minimizedAffinity>
-8.25226

> <CNNscore>
0.1210574657

> <CNNaffinity>
7.2268257141

> <CNN_VS>
0.8748611808

> <CNNaffinity_variance>
0.2890390158

$$$$
[H]c1nc([H])c(N2C(=O)N(c3c(F)c(OC([H])([H])[H])c([H])c(OC([H])([H])[H])c3F)C([H])([H])c3c([H])nc(-c4c(C([H])([H])[H])nn(C([H])([H])[H])c4[H])c([H])c32)nc1[H]


 36 40  0  0  0  0  0  0  0  0999 V2000
   -4.2136   21.1273  -18.5914 N   0  0  0  0  0  0  0  0  0  0  0  0
   -3.3647   21.1204  -17.4277 C   0  0  0  0  0  0  0  0  0  0  0  0
   -1.9748   21.5177  -17.6860 C   0  0  0  0  0  0  0  0  0  0  0  0
   -1.0947   21.5505  -16.6218 C   0  0  0  0  0  0  0  0  0  0  0  0
    0.1818   21.8969  -16.7518 N   0  0  0  0  0  0  0  0  0  0  0  0
    0.7149   22.2456  -17.9547 C   0  0  0  0  0  0  0  0  0  0  0  0
   -0.1041   22.2282  -19.0146 C   0  0  0  0  0  0  0  0  0  0  0  0
   -1.4672   21.8634  -18.9021 C   0  0  0  0  0  0  0  0  0  0  0  0
   -2.3436   21.8473  -20.0043 N   0  0  0  0  0  0  0  0  0  0  0  0
   -3.7122   21.4840  -19.8705 C   0  0  0  0  0  0  0  0  0  0  0  0
   -4.4835   21.4799  -20.8979 O   0  0  0  0  0  0  0  0  0  0  0  0
   -7.8898   21.4457  -18.1376 C   0  0  0  0  0  0  0  0  0  0  0  0
   -8.2739   20.1243  -18.2883 C   0  0  0  0  0  0  0  0  0  0  0  0
   -7.3474   19.1434  -18.5358 C   0  0  0  0  0  0  0  0  0  0  0  0
   -6.0014   19.4602  -18.6396 C   0  0  0  0  0  0  0  0  0  0  0  0
   -5.0731   18.5088  -18.8792 F   0  0  0  0  0  0  0  0  0  0  0  0
   -5.5693   20.7765  -18.4945 C   0  0  0  0  0  0  0  0  0  0  0  0
   -6.5260   21.7181  -18.2495 C   0  0  0  0  0  0  0  0  0  0  0  0
   -6.1239   23.0221  -18.1008 F   0  0  0  0  0  0  0  0  0  0  0  0
   -9.7987   22.7122  -18.8302 C   0  0  0  0  0  0  0  0  0  0  0  0
   -8.7650   22.4914  -17.8874 O   0  0  0  0  0  0  0  0  0  0  0  0
   -7.7478   17.8351  -18.6816 O   0  0  0  0  0  0  0  0  0  0  0  0
   -8.2962   17.1097  -17.6103 C   0  0  0  0  0  0  0  0  0  0  0  0
    2.1125   22.6585  -18.0094 C   0  0  0  0  0  0  0  0  0  0  0  0
    2.6894   23.5695  -17.0895 C   0  0  0  0  0  0  0  0  0  0  0  0
    3.9723   23.6856  -17.4106 N   0  0  0  0  0  0  0  0  0  0  0  0
    4.8777   24.5701  -16.6482 C   0  0  0  0  0  0  0  0  0  0  0  0
    4.2460   22.9395  -18.4325 N   0  0  0  0  0  0  0  0  0  0  0  0
    3.1201   22.2769  -18.8438 C   0  0  0  0  0  0  0  0  0  0  0  0
    3.1167   21.3393  -19.9679 C   0  0  0  0  0  0  0  0  0  0  0  0
   -1.8340   22.2233  -21.2746 C   0  0  0  0  0  0  0  0  0  0  0  0
   -1.8329   23.5117  -21.7450 C   0  0  0  0  0  0  0  0  0  0  0  0
   -1.3165   23.7602  -22.9828 N   0  0  0  0  0  0  0  0  0  0  0  0
   -0.8135   22.7777  -23.7430 C   0  0  0  0  0  0  0  0  0  0  0  0
   -0.8277   21.4858  -23.2415 C   0  0  0  0  0  0  0  0  0  0  0  0
   -1.3284   21.2352  -22.0381 N   0  0  0  0  0  0  0  0  0  0  0  0
 20 21  1  0  0  0
 21 12  1  0  0  0
 12 13  2  0  0  0
 13 14  1  0  0  0
 14 22  1  0  0  0
 22 23  1  0  0  0
 14 15  2  0  0  0
 15 16  1  0  0  0
 15 17  1  0  0  0
 17  1  1  0  0  0
  1  2  1  0  0  0
  2  3  1  0  0  0
  3  4  2  0  0  0
  4  5  1  0  0  0
  5  6  2  0  0  0
  6  7  1  0  0  0
  7  8  2  0  0  0
  8  9  1  0  0  0
  9 10  1  0  0  0
 10 11  2  0  0  0
  9 31  1  0  0  0
 31 32  2  0  0  0
 32 33  1  0  0  0
 33 34  2  0  0  0
 34 35  1  0  0  0
 35 36  2  0  0  0
  6 24  1  0  0  0
 24 25  2  0  0  0
 25 26  1  0  0  0
 26 27  1  0  0  0
 26 28  1  0  0  0
 28 29  2  0  0  0
 29 30  1  0  0  0
 17 18  2  0  0  0
 18 19  1  0  0  0
 18 12  1  0  0  0
 10  1  1  0  0  0
 36 31  1  0  0  0
 29 24  1  0  0  0
  8  3  1  0  0  0
M  END
> <minimizedAffinity>
-6.38684

> <CNNscore>
0.1180631816

> <CNNaffinity>
5.8438310623

> <CNN_VS>
0.6899412870

> <CNNaffinity_variance>
0.1807360798

$$$$
[H]c1nc([H])c(N2C(=O)N(c3c(F)c(OC([H])([H])[H])c([H])c(OC([H])([H])[H])c3F)C([H])([H])c3c([H])nc(-c4c(C([H])([H])[H])nn(C([H])([H])[H])c4[H])c([H])c32)nc1[H]


 36 40  0  0  0  0  0  0  0  0999 V2000
   -6.4703   23.3632  -22.1433 N   0  0  0  0  0  0  0  0  0  0  0  0
   -7.3825   24.0098  -23.0514 C   0  0  0  0  0  0  0  0  0  0  0  0
   -6.8690   24.1710  -24.4177 C   0  0  0  0  0  0  0  0  0  0  0  0
   -7.6847   24.7709  -25.3573 C   0  0  0  0  0  0  0  0  0  0  0  0
   -7.3128   24.9619  -26.6189 N   0  0  0  0  0  0  0  0  0  0  0  0
   -6.0899   24.5765  -27.0758 C   0  0  0  0  0  0  0  0  0  0  0  0
   -5.2662   23.9894  -26.1975 C   0  0  0  0  0  0  0  0  0  0  0  0
   -5.6390   23.7744  -24.8490 C   0  0  0  0  0  0  0  0  0  0  0  0
   -4.7886   23.1520  -23.9149 N   0  0  0  0  0  0  0  0  0  0  0  0
   -5.1833   22.9388  -22.5652 C   0  0  0  0  0  0  0  0  0  0  0  0
   -4.3815   22.3678  -21.7396 O   0  0  0  0  0  0  0  0  0  0  0  0
   -7.9182   21.7264  -19.1356 C   0  0  0  0  0  0  0  0  0  0  0  0
   -7.5667   22.6438  -18.1603 C   0  0  0  0  0  0  0  0  0  0  0  0
   -6.8663   23.7795  -18.4787 C   0  0  0  0  0  0  0  0  0  0  0  0
   -6.4959   24.0302  -19.7913 C   0  0  0  0  0  0  0  0  0  0  0  0
   -5.8093   25.1442  -20.1260 F   0  0  0  0  0  0  0  0  0  0  0  0
   -6.8286   23.1352  -20.8054 C   0  0  0  0  0  0  0  0  0  0  0  0
   -7.5254   22.0197  -20.4418 C   0  0  0  0  0  0  0  0  0  0  0  0
   -7.8663   21.1238  -21.4245 F   0  0  0  0  0  0  0  0  0  0  0  0
   -7.9078   19.4738  -18.3275 C   0  0  0  0  0  0  0  0  0  0  0  0
   -8.6232   20.5576  -18.8929 O   0  0  0  0  0  0  0  0  0  0  0  0
   -6.5266   24.6806  -17.4959 O   0  0  0  0  0  0  0  0  0  0  0  0
   -5.6438   24.3387  -16.4574 C   0  0  0  0  0  0  0  0  0  0  0  0
   -5.7721   24.7779  -28.4848 C   0  0  0  0  0  0  0  0  0  0  0  0
   -5.9724   26.0093  -29.1573 C   0  0  0  0  0  0  0  0  0  0  0  0
   -5.5441   25.8456  -30.4032 N   0  0  0  0  0  0  0  0  0  0  0  0
   -5.6108   26.9444  -31.3889 C   0  0  0  0  0  0  0  0  0  0  0  0
   -5.0994   24.6411  -30.5676 N   0  0  0  0  0  0  0  0  0  0  0  0
   -5.2182   23.9343  -29.4005 C   0  0  0  0  0  0  0  0  0  0  0  0
   -4.7795   22.5443  -29.2658 C   0  0  0  0  0  0  0  0  0  0  0  0
   -3.5111   22.7162  -24.3541 C   0  0  0  0  0  0  0  0  0  0  0  0
   -3.3214   21.7797  -25.3381 C   0  0  0  0  0  0  0  0  0  0  0  0
   -2.0472   21.4350  -25.6820 N   0  0  0  0  0  0  0  0  0  0  0  0
   -0.9846   21.9893  -25.0823 C   0  0  0  0  0  0  0  0  0  0  0  0
   -1.2068   22.9328  -24.0917 C   0  0  0  0  0  0  0  0  0  0  0  0
   -2.4434   23.2739  -23.7508 N   0  0  0  0  0  0  0  0  0  0  0  0
 20 21  1  0  0  0
 21 12  1  0  0  0
 12 13  2  0  0  0
 13 14  1  0  0  0
 14 22  1  0  0  0
 22 23  1  0  0  0
 14 15  2  0  0  0
 15 16  1  0  0  0
 15 17  1  0  0  0
 17  1  1  0  0  0
  1  2  1  0  0  0
  2  3  1  0  0  0
  3  4  2  0  0  0
  4  5  1  0  0  0
  5  6  2  0  0  0
  6  7  1  0  0  0
  7  8  2  0  0  0
  8  9  1  0  0  0
  9 10  1  0  0  0
 10 11  2  0  0  0
  9 31  1  0  0  0
 31 32  2  0  0  0
 32 33  1  0  0  0
 33 34  2  0  0  0
 34 35  1  0  0  0
 35 36  2  0  0  0
  6 24  1  0  0  0
 24 25  2  0  0  0
 25 26  1  0  0  0
 26 27  1  0  0  0
 26 28  1  0  0  0
 28 29  2  0  0  0
 29 30  1  0  0  0
 17 18  2  0  0  0
 18 19  1  0  0  0
 18 12  1  0  0  0
 10  1  1  0  0  0
 36 31  1  0  0  0
 29 24  1  0  0  0
  8  3  1  0  0  0
M  END
> <minimizedAffinity>
-8.54537

> <CNNscore>
0.1108946204

> <CNNaffinity>
6.6933212280

> <CNN_VS>
0.7422533035

> <CNNaffinity_variance>
0.3899999559

$$$$
[H]c1c([H])c(OC([H])([H])[H])c(F)c(-c2c([H])c([H])c3c(N([H])C(=O)c4c([H])c([H])c(N(C([H])([H])[H])C([H])([H])C([H])([H])N(C([H])([H])[H])C([H])([H])[H])c([H])c4[H])nn([H])c3c2[H])c1F


 37 40  0  0  0  0  0  0  0  0999 V2000
   -3.4149   23.1433  -27.9099 C   0  0  0  0  0  0  0  0  0  0  0  0
   -3.9116   22.8728  -26.6587 C   0  0  0  0  0  0  0  0  0  0  0  0
   -3.0999   22.4696  -25.6028 C   0  0  0  0  0  0  0  0  0  0  0  0
   -1.7430   22.3332  -25.8091 C   0  0  0  0  0  0  0  0  0  0  0  0
   -0.7048   21.9653  -24.9847 C   0  0  0  0  0  0  0  0  0  0  0  0
    0.4053   22.0195  -25.7499 N   0  0  0  0  0  0  0  0  0  0  0  0
    0.0963   22.3952  -26.9797 N   0  0  0  0  0  0  0  0  0  0  0  0
   -1.2195   22.6011  -27.0653 C   0  0  0  0  0  0  0  0  0  0  0  0
   -2.0494   23.0013  -28.1023 C   0  0  0  0  0  0  0  0  0  0  0  0
    0.7424   22.5267  -27.8052 H   0  0  0  0  0  0  0  0  0  0  0  0
   -5.3852   25.4258  -30.0924 C   0  0  0  0  0  0  0  0  0  0  0  0
   -5.9306   24.5469  -31.0209 C   0  0  0  0  0  0  0  0  0  0  0  0
   -5.6604   23.1902  -30.9491 C   0  0  0  0  0  0  0  0  0  0  0  0
   -4.8361   22.7291  -29.9333 C   0  0  0  0  0  0  0  0  0  0  0  0
   -4.5579   21.3929  -29.8452 F   0  0  0  0  0  0  0  0  0  0  0  0
   -4.2715   23.5567  -28.9901 C   0  0  0  0  0  0  0  0  0  0  0  0
   -4.5752   24.9209  -29.1055 C   0  0  0  0  0  0  0  0  0  0  0  0
   -4.0441   25.7804  -28.2025 F   0  0  0  0  0  0  0  0  0  0  0  0
   -5.9792   27.3640  -31.3631 C   0  0  0  0  0  0  0  0  0  0  0  0
   -5.6248   26.7909  -30.1205 O   0  0  0  0  0  0  0  0  0  0  0  0
   -0.7926   21.5910  -23.6019 N   0  0  0  0  0  0  0  0  0  0  0  0
   -0.9938   22.5802  -22.6130 C   0  0  0  0  0  0  0  0  0  0  0  0
   -1.1055   23.7788  -22.9425 O   0  0  0  0  0  0  0  0  0  0  0  0
   -0.6975   20.5869  -23.3525 H   0  0  0  0  0  0  0  0  0  0  0  0
   -1.0698   22.1867  -21.2119 C   0  0  0  0  0  0  0  0  0  0  0  0
   -0.7964   20.8631  -20.8579 C   0  0  0  0  0  0  0  0  0  0  0  0
   -0.8591   20.4122  -19.5614 C   0  0  0  0  0  0  0  0  0  0  0  0
   -1.2089   21.3032  -18.5513 C   0  0  0  0  0  0  0  0  0  0  0  0
   -1.4798   22.6142  -18.9073 C   0  0  0  0  0  0  0  0  0  0  0  0
   -1.4189   23.0731  -20.1978 C   0  0  0  0  0  0  0  0  0  0  0  0
   -1.2504   20.8059  -17.2318 N   0  0  0  0  0  0  0  0  0  0  0  0
   -2.5177   20.6454  -16.5387 C   0  0  0  0  0  0  0  0  0  0  0  0
   -0.0366   20.4520  -16.5498 C   0  0  0  0  0  0  0  0  0  0  0  0
    0.5995   21.6689  -15.9438 C   0  0  0  0  0  0  0  0  0  0  0  0
    1.9823   21.7049  -16.4543 N   0  0  0  0  0  0  0  0  0  0  0  0
    2.2495   20.3786  -16.9848 C   0  0  0  0  0  0  0  0  0  0  0  0
    2.0418   22.7150  -17.4750 C   0  0  0  0  0  0  0  0  0  0  0  0
 19 20  1  0  0  0
 20 11  1  0  0  0
 11 12  2  0  0  0
 12 13  1  0  0  0
 13 14  2  0  0  0
 14 15  1  0  0  0
 14 16  1  0  0  0
 16  1  1  0  0  0
  1  2  2  0  0  0
  2  3  1  0  0  0
  3  4  2  0  0  0
  4  5  1  0  0  0
  5 21  1  0  0  0
 21 22  1  0  0  0
 22 23  2  0  0  0
 22 25  1  0  0  0
 25 26  2  0  0  0
 26 27  1  0  0  0
 27 28  2  0  0  0
 28 29  1  0  0  0
 29 30  2  0  0  0
 28 31  1  0  0  0
 31 32  1  0  0  0
 31 33  1  0  0  0
 33 34  1  0  0  0
 34 35  1  0  0  0
 35 36  1  0  0  0
 35 37  1  0  0  0
  5  6  2  0  0  0
  6  7  1  0  0  0
  7  8  1  0  0  0
  8  9  2  0  0  0
 16 17  2  0  0  0
 17 18  1  0  0  0
 17 11  1  0  0  0
  9  1  1  0  0  0
  8  4  1  0  0  0
 30 25  1  0  0  0
 21 24  1  0  0  0
  7 10  1  0  0  0
M  END
> <minimizedAffinity>
-8.26555

> <CNNscore>
0.6594495773

> <CNNaffinity>
7.0032835007

> <CNN_VS>
4.6183123589

> <CNNaffinity_variance>
0.2025001049

$$$$
[H]c1c([H])c(OC([H])([H])[H])c(F)c(-c2c([H])c([H])c3c(N([H])C(=O)c4c([H])c([H])c(N(C([H])([H])[H])C([H])([H])C([H])([H])N(C([H])([H])[H])C([H])([H])[H])c([H])c4[H])nn([H])c3c2[H])c1F


 37 40  0  0  0  0  0  0  0  0999 V2000
   -2.6718   22.6863  -25.6159 C   0  0  0  0  0  0  0  0  0  0  0  0
   -3.0920   22.0510  -24.4733 C   0  0  0  0  0  0  0  0  0  0  0  0
   -2.2038   21.5435  -23.5300 C   0  0  0  0  0  0  0  0  0  0  0  0
   -0.8472   21.6780  -23.7400 C   0  0  0  0  0  0  0  0  0  0  0  0
    0.2540   21.2955  -23.0093 C   0  0  0  0  0  0  0  0  0  0  0  0
    1.3244   21.7059  -23.7209 N   0  0  0  0  0  0  0  0  0  0  0  0
    0.9329   22.3086  -24.8311 N   0  0  0  0  0  0  0  0  0  0  0  0
   -0.4003   22.3163  -24.8874 C   0  0  0  0  0  0  0  0  0  0  0  0
   -1.3057   22.8136  -25.8134 C   0  0  0  0  0  0  0  0  0  0  0  0
    1.5318   22.7335  -25.5907 H   0  0  0  0  0  0  0  0  0  0  0  0
   -5.5803   24.5862  -26.9525 C   0  0  0  0  0  0  0  0  0  0  0  0
   -5.5250   24.2923  -28.3098 C   0  0  0  0  0  0  0  0  0  0  0  0
   -4.5317   23.4672  -28.8115 C   0  0  0  0  0  0  0  0  0  0  0  0
   -3.5962   22.9423  -27.9323 C   0  0  0  0  0  0  0  0  0  0  0  0
   -2.6081   22.1251  -28.4081 F   0  0  0  0  0  0  0  0  0  0  0  0
   -3.6066   23.2022  -26.5811 C   0  0  0  0  0  0  0  0  0  0  0  0
   -4.6314   24.0424  -26.1224 C   0  0  0  0  0  0  0  0  0  0  0  0
   -4.6873   24.3318  -24.7998 F   0  0  0  0  0  0  0  0  0  0  0  0
   -7.6864   24.7789  -25.8338 C   0  0  0  0  0  0  0  0  0  0  0  0
   -6.5533   25.4053  -26.4011 O   0  0  0  0  0  0  0  0  0  0  0  0
    0.2568   20.5946  -21.7568 N   0  0  0  0  0  0  0  0  0  0  0  0
   -0.0487   21.2826  -20.5608 C   0  0  0  0  0  0  0  0  0  0  0  0
   -0.3312   22.4978  -20.5944 O   0  0  0  0  0  0  0  0  0  0  0  0
    0.4943   19.5831  -21.7545 H   0  0  0  0  0  0  0  0  0  0  0  0
   -0.0309   20.5605  -19.2951 C   0  0  0  0  0  0  0  0  0  0  0  0
   -0.4108   19.2162  -19.2696 C   0  0  0  0  0  0  0  0  0  0  0  0
   -0.4326   18.4717  -18.1150 C   0  0  0  0  0  0  0  0  0  0  0  0
   -0.0629   19.0724  -16.9154 C   0  0  0  0  0  0  0  0  0  0  0  0
    0.3122   20.4055  -16.9456 C   0  0  0  0  0  0  0  0  0  0  0  0
    0.3378   21.1558  -18.0927 C   0  0  0  0  0  0  0  0  0  0  0  0
   -0.0861   18.2722  -15.7537 N   0  0  0  0  0  0  0  0  0  0  0  0
   -0.3512   18.8616  -14.4519 C   0  0  0  0  0  0  0  0  0  0  0  0
    0.1553   16.8588  -15.8396 C   0  0  0  0  0  0  0  0  0  0  0  0
   -1.0262   16.0916  -15.3217 C   0  0  0  0  0  0  0  0  0  0  0  0
   -1.5438   15.3169  -16.4646 N   0  0  0  0  0  0  0  0  0  0  0  0
   -0.3776   14.8070  -17.1657 C   0  0  0  0  0  0  0  0  0  0  0  0
   -2.3602   14.2582  -15.9368 C   0  0  0  0  0  0  0  0  0  0  0  0
 19 20  1  0  0  0
 20 11  1  0  0  0
 11 12  2  0  0  0
 12 13  1  0  0  0
 13 14  2  0  0  0
 14 15  1  0  0  0
 14 16  1  0  0  0
 16  1  1  0  0  0
  1  2  2  0  0  0
  2  3  1  0  0  0
  3  4  2  0  0  0
  4  5  1  0  0  0
  5 21  1  0  0  0
 21 22  1  0  0  0
 22 23  2  0  0  0
 22 25  1  0  0  0
 25 26  2  0  0  0
 26 27  1  0  0  0
 27 28  2  0  0  0
 28 29  1  0  0  0
 29 30  2  0  0  0
 28 31  1  0  0  0
 31 32  1  0  0  0
 31 33  1  0  0  0
 33 34  1  0  0  0
 34 35  1  0  0  0
 35 36  1  0  0  0
 35 37  1  0  0  0
  5  6  2  0  0  0
  6  7  1  0  0  0
  7  8  1  0  0  0
  8  9  2  0  0  0
 16 17  2  0  0  0
 17 18  1  0  0  0
 17 11  1  0  0  0
  9  1  1  0  0  0
  8  4  1  0  0  0
 30 25  1  0  0  0
 21 24  1  0  0  0
  7 10  1  0  0  0
M  END
> <minimizedAffinity>
-6.57802

> <CNNscore>
0.3890881836

> <CNNaffinity>
6.5255560875

> <CNN_VS>
2.5390167236

> <CNNaffinity_variance>
0.2912928462

$$$$
[H]c1c([H])c(OC([H])([H])[H])c(F)c(-c2c([H])c([H])c3c(N([H])C(=O)c4c([H])c([H])c(N(C([H])([H])[H])C([H])([H])C([H])([H])N(C([H])([H])[H])C([H])([H])[H])c([H])c4[H])nn([H])c3c2[H])c1F


 37 40  0  0  0  0  0  0  0  0999 V2000
   -3.8316   23.3284  -27.7571 C   0  0  0  0  0  0  0  0  0  0  0  0
   -4.4701   23.2261  -26.5457 C   0  0  0  0  0  0  0  0  0  0  0  0
   -3.8148   22.8223  -25.3866 C   0  0  0  0  0  0  0  0  0  0  0  0
   -2.4724   22.5104  -25.4444 C   0  0  0  0  0  0  0  0  0  0  0  0
   -1.5678   22.0952  -24.4946 C   0  0  0  0  0  0  0  0  0  0  0  0
   -0.3946   21.9530  -25.1460 N   0  0  0  0  0  0  0  0  0  0  0  0
   -0.5410   22.2558  -26.4250 N   0  0  0  0  0  0  0  0  0  0  0  0
   -1.8073   22.6066  -26.6577 C   0  0  0  0  0  0  0  0  0  0  0  0
   -2.4828   23.0113  -27.7998 C   0  0  0  0  0  0  0  0  0  0  0  0
    0.1890   22.2395  -27.1887 H   0  0  0  0  0  0  0  0  0  0  0  0
   -5.3557   25.6304  -30.2537 C   0  0  0  0  0  0  0  0  0  0  0  0
   -5.8673   24.7456  -31.1958 C   0  0  0  0  0  0  0  0  0  0  0  0
   -5.7199   23.3782  -31.0302 C   0  0  0  0  0  0  0  0  0  0  0  0
   -5.0526   22.9125  -29.9069 C   0  0  0  0  0  0  0  0  0  0  0  0
   -4.8974   21.5659  -29.7251 F   0  0  0  0  0  0  0  0  0  0  0  0
   -4.5279   23.7455  -28.9457 C   0  0  0  0  0  0  0  0  0  0  0  0
   -4.7030   25.1205  -29.1588 C   0  0  0  0  0  0  0  0  0  0  0  0
   -4.2044   25.9857  -28.2427 F   0  0  0  0  0  0  0  0  0  0  0  0
   -6.1679   27.5033  -31.5014 C   0  0  0  0  0  0  0  0  0  0  0  0
   -5.4768   27.0062  -30.3729 O   0  0  0  0  0  0  0  0  0  0  0  0
   -1.8273   21.8534  -23.1039 N   0  0  0  0  0  0  0  0  0  0  0  0
   -1.7507   22.9158  -22.1752 C   0  0  0  0  0  0  0  0  0  0  0  0
   -1.4673   24.0669  -22.5654 O   0  0  0  0  0  0  0  0  0  0  0  0
   -2.0621   20.8869  -22.8035 H   0  0  0  0  0  0  0  0  0  0  0  0
   -2.0057   22.6532  -20.7647 C   0  0  0  0  0  0  0  0  0  0  0  0
   -3.1929   22.0183  -20.3913 C   0  0  0  0  0  0  0  0  0  0  0  0
   -3.5113   21.7476  -19.0823 C   0  0  0  0  0  0  0  0  0  0  0  0
   -2.6210   22.1177  -18.0789 C   0  0  0  0  0  0  0  0  0  0  0  0
   -1.4457   22.7476  -18.4539 C   0  0  0  0  0  0  0  0  0  0  0  0
   -1.1193   23.0208  -19.7571 C   0  0  0  0  0  0  0  0  0  0  0  0
   -2.9774   21.8118  -16.7486 N   0  0  0  0  0  0  0  0  0  0  0  0
   -1.9770   21.3534  -15.7991 C   0  0  0  0  0  0  0  0  0  0  0  0
   -4.3391   21.9464  -16.3115 C   0  0  0  0  0  0  0  0  0  0  0  0
   -4.4576   23.0411  -15.2915 C   0  0  0  0  0  0  0  0  0  0  0  0
   -5.6484   23.8246  -15.6687 N   0  0  0  0  0  0  0  0  0  0  0  0
   -6.1076   24.4698  -14.4503 C   0  0  0  0  0  0  0  0  0  0  0  0
   -5.2422   24.7795  -16.6633 C   0  0  0  0  0  0  0  0  0  0  0  0
 19 20  1  0  0  0
 20 11  1  0  0  0
 11 12  2  0  0  0
 12 13  1  0  0  0
 13 14  2  0  0  0
 14 15  1  0  0  0
 14 16  1  0  0  0
 16  1  1  0  0  0
  1  2  2  0  0  0
  2  3  1  0  0  0
  3  4  2  0  0  0
  4  5  1  0  0  0
  5 21  1  0  0  0
 21 22  1  0  0  0
 22 23  2  0  0  0
 22 25  1  0  0  0
 25 26  2  0  0  0
 26 27  1  0  0  0
 27 28  2  0  0  0
 28 29  1  0  0  0
 29 30  2  0  0  0
 28 31  1  0  0  0
 31 32  1  0  0  0
 31 33  1  0  0  0
 33 34  1  0  0  0
 34 35  1  0  0  0
 35 36  1  0  0  0
 35 37  1  0  0  0
  5  6  2  0  0  0
  6  7  1  0  0  0
  7  8  1  0  0  0
  8  9  2  0  0  0
 16 17  2  0  0  0
 17 18  1  0  0  0
 17 11  1  0  0  0
  9  1  1  0  0  0
  8  4  1  0  0  0
 30 25  1  0  0  0
 21 24  1  0  0  0
  7 10  1  0  0  0
M  END
> <minimizedAffinity>
-8.49603

> <CNNscore>
0.3478171229

> <CNNaffinity>
6.7927489281

> <CNN_VS>
2.3626344204

> <CNNaffinity_variance>
0.2750778794

$$$$
[H]c1c([H])c(OC([H])([H])[H])c(F)c(-c2c([H])c([H])c3c(N([H])C(=O)c4c([H])c([H])c(N(C([H])([H])[H])C([H])([H])C([H])([H])N(C([H])([H])[H])C([H])([H])[H])c([H])c4[H])nn([H])c3c2[H])c1F


 37 40  0  0  0  0  0  0  0  0999 V2000
   -1.6004   22.3245  -25.0119 C   0  0  0  0  0  0  0  0  0  0  0  0
   -2.1151   21.8957  -23.8132 C   0  0  0  0  0  0  0  0  0  0  0  0
   -1.3109   21.4279  -22.7785 C   0  0  0  0  0  0  0  0  0  0  0  0
    0.0569   21.3890  -22.9520 C   0  0  0  0  0  0  0  0  0  0  0  0
    1.0915   20.9934  -22.1360 C   0  0  0  0  0  0  0  0  0  0  0  0
    2.2173   21.1896  -22.8535 N   0  0  0  0  0  0  0  0  0  0  0  0
    1.9212   21.6763  -24.0470 N   0  0  0  0  0  0  0  0  0  0  0  0
    0.5985   21.8173  -24.1549 C   0  0  0  0  0  0  0  0  0  0  0  0
   -0.2242   22.2792  -25.1718 C   0  0  0  0  0  0  0  0  0  0  0  0
    2.5812   21.9302  -24.8319 H   0  0  0  0  0  0  0  0  0  0  0  0
   -4.3187   24.2486  -26.6746 C   0  0  0  0  0  0  0  0  0  0  0  0
   -4.2041   23.8366  -27.9971 C   0  0  0  0  0  0  0  0  0  0  0  0
   -3.2322   22.9218  -28.3678 C   0  0  0  0  0  0  0  0  0  0  0  0
   -2.3781   22.4273  -27.3931 C   0  0  0  0  0  0  0  0  0  0  0  0
   -1.4123   21.5229  -27.7391 F   0  0  0  0  0  0  0  0  0  0  0  0
   -2.4494   22.8026  -26.0712 C   0  0  0  0  0  0  0  0  0  0  0  0
   -3.4496   23.7304  -25.7465 C   0  0  0  0  0  0  0  0  0  0  0  0
   -3.5630   24.1349  -24.4582 F   0  0  0  0  0  0  0  0  0  0  0  0
   -4.9292   26.5310  -26.2975 C   0  0  0  0  0  0  0  0  0  0  0  0
   -5.2736   25.1607  -26.2527 O   0  0  0  0  0  0  0  0  0  0  0  0
    0.9873   20.4699  -20.8037 N   0  0  0  0  0  0  0  0  0  0  0  0
    0.7090   21.3370  -19.7231 C   0  0  0  0  0  0  0  0  0  0  0  0
    0.5436   22.5570  -19.9281 O   0  0  0  0  0  0  0  0  0  0  0  0
    1.1281   19.4509  -20.6583 H   0  0  0  0  0  0  0  0  0  0  0  0
    0.6172   20.7931  -18.3742 C   0  0  0  0  0  0  0  0  0  0  0  0
    0.3409   21.6526  -17.3079 C   0  0  0  0  0  0  0  0  0  0  0  0
    0.2511   21.2186  -16.0073 C   0  0  0  0  0  0  0  0  0  0  0  0
    0.4420   19.8684  -15.7299 C   0  0  0  0  0  0  0  0  0  0  0  0
    0.7164   19.0203  -16.7901 C   0  0  0  0  0  0  0  0  0  0  0  0
    0.8070   19.4442  -18.0908 C   0  0  0  0  0  0  0  0  0  0  0  0
    0.3295   19.4593  -14.3844 N   0  0  0  0  0  0  0  0  0  0  0  0
   -0.9036   18.8712  -13.8882 C   0  0  0  0  0  0  0  0  0  0  0  0
    1.4343   19.6206  -13.4806 C   0  0  0  0  0  0  0  0  0  0  0  0
    1.1621   20.7338  -12.5114 C   0  0  0  0  0  0  0  0  0  0  0  0
    2.2244   21.7332  -12.7274 N   0  0  0  0  0  0  0  0  0  0  0  0
    1.5459   22.9810  -13.0348 C   0  0  0  0  0  0  0  0  0  0  0  0
    2.9901   21.8215  -11.5142 C   0  0  0  0  0  0  0  0  0  0  0  0
 19 20  1  0  0  0
 20 11  1  0  0  0
 11 12  2  0  0  0
 12 13  1  0  0  0
 13 14  2  0  0  0
 14 15  1  0  0  0
 14 16  1  0  0  0
 16  1  1  0  0  0
  1  2  2  0  0  0
  2  3  1  0  0  0
  3  4  2  0  0  0
  4  5  1  0  0  0
  5 21  1  0  0  0
 21 22  1  0  0  0
 22 23  2  0  0  0
 22 25  1  0  0  0
 25 26  2  0  0  0
 26 27  1  0  0  0
 27 28  2  0  0  0
 28 29  1  0  0  0
 29 30  2  0  0  0
 28 31  1  0  0  0
 31 32  1  0  0  0
 31 33  1  0  0  0
 33 34  1  0  0  0
 34 35  1  0  0  0
 35 36  1  0  0  0
 35 37  1  0  0  0
  5  6  2  0  0  0
  6  7  1  0  0  0
  7  8  1  0  0  0
  8  9  2  0  0  0
 16 17  2  0  0  0
 17 18  1  0  0  0
 17 11  1  0  0  0
  9  1  1  0  0  0
  8  4  1  0  0  0
 30 25  1  0  0  0
 21 24  1  0  0  0
  7 10  1  0  0  0
M  END
> <minimizedAffinity>
-6.94703

> <CNNscore>
0.3232900202

> <CNNaffinity>
6.2041778564

> <CNN_VS>
2.0057487488

> <CNNaffinity_variance>
0.0640364736

$$$$
[H]c1c([H])c(OC([H])([H])[H])c(F)c(-c2c([H])c([H])c3c(N([H])C(=O)c4c([H])c([H])c(N(C([H])([H])[H])C([H])([H])C([H])([H])N(C([H])([H])[H])C([H])([H])[H])c([H])c4[H])nn([H])c3c2[H])c1F


 37 40  0  0  0  0  0  0  0  0999 V2000
   -3.6707   23.5969  -26.8742 C   0  0  0  0  0  0  0  0  0  0  0  0
   -4.2871   23.3255  -25.6775 C   0  0  0  0  0  0  0  0  0  0  0  0
   -3.6289   22.7024  -24.6216 C   0  0  0  0  0  0  0  0  0  0  0  0
   -2.3068   22.3391  -24.7711 C   0  0  0  0  0  0  0  0  0  0  0  0
   -1.4050   21.7275  -23.9311 C   0  0  0  0  0  0  0  0  0  0  0  0
   -0.2557   21.6386  -24.6325 N   0  0  0  0  0  0  0  0  0  0  0  0
   -0.4136   22.1573  -25.8388 N   0  0  0  0  0  0  0  0  0  0  0  0
   -1.6642   22.6035  -25.9715 C   0  0  0  0  0  0  0  0  0  0  0  0
   -2.3420   23.2256  -27.0098 C   0  0  0  0  0  0  0  0  0  0  0  0
    0.2975   22.2327  -26.6165 H   0  0  0  0  0  0  0  0  0  0  0  0
   -5.3641   23.9767  -30.1671 C   0  0  0  0  0  0  0  0  0  0  0  0
   -5.7196   25.3204  -30.1617 C   0  0  0  0  0  0  0  0  0  0  0  0
   -5.4121   26.1257  -29.0773 C   0  0  0  0  0  0  0  0  0  0  0  0
   -4.7435   25.5634  -27.9999 C   0  0  0  0  0  0  0  0  0  0  0  0
   -4.4304   26.3421  -26.9201 F   0  0  0  0  0  0  0  0  0  0  0  0
   -4.3696   24.2399  -27.9556 C   0  0  0  0  0  0  0  0  0  0  0  0
   -4.7034   23.4668  -29.0769 C   0  0  0  0  0  0  0  0  0  0  0  0
   -4.3592   22.1561  -29.0846 F   0  0  0  0  0  0  0  0  0  0  0  0
   -6.3881   23.6634  -32.3065 C   0  0  0  0  0  0  0  0  0  0  0  0
   -5.6483   23.1295  -31.2268 O   0  0  0  0  0  0  0  0  0  0  0  0
   -1.6465   21.2703  -22.5922 N   0  0  0  0  0  0  0  0  0  0  0  0
   -1.5299   22.1676  -21.5068 C   0  0  0  0  0  0  0  0  0  0  0  0
   -1.2268   23.3607  -21.7128 O   0  0  0  0  0  0  0  0  0  0  0  0
   -1.8983   20.2729  -22.4462 H   0  0  0  0  0  0  0  0  0  0  0  0
   -1.7670   21.6866  -20.1518 C   0  0  0  0  0  0  0  0  0  0  0  0
   -2.6945   22.3491  -19.3438 C   0  0  0  0  0  0  0  0  0  0  0  0
   -2.9641   21.9645  -18.0525 C   0  0  0  0  0  0  0  0  0  0  0  0
   -2.2902   20.8707  -17.5175 C   0  0  0  0  0  0  0  0  0  0  0  0
   -1.3711   20.2177  -18.3222 C   0  0  0  0  0  0  0  0  0  0  0  0
   -1.0964   20.5936  -19.6116 C   0  0  0  0  0  0  0  0  0  0  0  0
   -2.6032   20.4989  -16.1931 N   0  0  0  0  0  0  0  0  0  0  0  0
   -2.2921   21.3817  -15.0813 C   0  0  0  0  0  0  0  0  0  0  0  0
   -3.2336   19.2370  -15.9220 C   0  0  0  0  0  0  0  0  0  0  0  0
   -4.5778   19.4467  -15.2881 C   0  0  0  0  0  0  0  0  0  0  0  0
   -5.4981   19.7954  -16.3861 N   0  0  0  0  0  0  0  0  0  0  0  0
   -6.4242   18.6818  -16.5034 C   0  0  0  0  0  0  0  0  0  0  0  0
   -6.1659   21.0149  -16.0216 C   0  0  0  0  0  0  0  0  0  0  0  0
 19 20  1  0  0  0
 20 11  1  0  0  0
 11 12  2  0  0  0
 12 13  1  0  0  0
 13 14  2  0  0  0
 14 15  1  0  0  0
 14 16  1  0  0  0
 16  1  1  0  0  0
  1  2  2  0  0  0
  2  3  1  0  0  0
  3  4  2  0  0  0
  4  5  1  0  0  0
  5 21  1  0  0  0
 21 22  1  0  0  0
 22 23  2  0  0  0
 22 25  1  0  0  0
 25 26  2  0  0  0
 26 27  1  0  0  0
 27 28  2  0  0  0
 28 29  1  0  0  0
 29 30  2  0  0  0
 28 31  1  0  0  0
 31 32  1  0  0  0
 31 33  1  0  0  0
 33 34  1  0  0  0
 34 35  1  0  0  0
 35 36  1  0  0  0
 35 37  1  0  0  0
  5  6  2  0  0  0
  6  7  1  0  0  0
  7  8  1  0  0  0
  8  9  2  0  0  0
 16 17  2  0  0  0
 17 18  1  0  0  0
 17 11  1  0  0  0
  9  1  1  0  0  0
  8  4  1  0  0  0
 30 25  1  0  0  0
 21 24  1  0  0  0
  7 10  1  0  0  0
M  END
> <minimizedAffinity>
-6.99749

> <CNNscore>
0.3097520471

> <CNNaffinity>
6.6640458107

> <CNN_VS>
2.0642018318

> <CNNaffinity_variance>
0.5604556203

$$$$
[H]c1c([H])c(OC([H])([H])[H])c(F)c(-c2c([H])c([H])c3c(N([H])C(=O)c4c([H])c([H])c(N(C([H])([H])[H])C([H])([H])C([H])([H])N(C([H])([H])[H])C([H])([H])[H])c([H])c4[H])nn([H])c3c2[H])c1F


 37 40  0  0  0  0  0  0  0  0999 V2000
    2.2409   20.6015  -22.1551 C   0  0  0  0  0  0  0  0  0  0  0  0
    1.0062   20.6249  -21.5545 C   0  0  0  0  0  0  0  0  0  0  0  0
   -0.1223   21.1405  -22.1846 C   0  0  0  0  0  0  0  0  0  0  0  0
   -0.0085   21.6501  -23.4612 C   0  0  0  0  0  0  0  0  0  0  0  0
   -0.9178   22.2113  -24.3278 C   0  0  0  0  0  0  0  0  0  0  0  0
   -0.2192   22.5187  -25.4406 N   0  0  0  0  0  0  0  0  0  0  0  0
    1.0501   22.1778  -25.2937 N   0  0  0  0  0  0  0  0  0  0  0  0
    1.2293   21.6368  -24.0870 C   0  0  0  0  0  0  0  0  0  0  0  0
    2.3399   21.1176  -23.4379 C   0  0  0  0  0  0  0  0  0  0  0  0
    1.8422   22.2922  -25.9834 H   0  0  0  0  0  0  0  0  0  0  0  0
    5.1364   20.4554  -19.8206 C   0  0  0  0  0  0  0  0  0  0  0  0
    5.6654   19.1979  -20.0865 C   0  0  0  0  0  0  0  0  0  0  0  0
    5.0810   18.3745  -21.0348 C   0  0  0  0  0  0  0  0  0  0  0  0
    3.9595   18.8309  -21.7114 C   0  0  0  0  0  0  0  0  0  0  0  0
    3.3684   18.0329  -22.6518 F   0  0  0  0  0  0  0  0  0  0  0  0
    3.3970   20.0662  -21.4855 C   0  0  0  0  0  0  0  0  0  0  0  0
    4.0249   20.8620  -20.5166 C   0  0  0  0  0  0  0  0  0  0  0  0
    3.5108   22.0881  -20.2542 F   0  0  0  0  0  0  0  0  0  0  0  0
    5.2880   21.1486  -17.5357 C   0  0  0  0  0  0  0  0  0  0  0  0
    5.6836   21.3167  -18.8823 O   0  0  0  0  0  0  0  0  0  0  0  0
   -2.3154   22.4324  -24.0874 N   0  0  0  0  0  0  0  0  0  0  0  0
   -2.7293   23.4855  -23.2409 C   0  0  0  0  0  0  0  0  0  0  0  0
   -1.8801   24.2303  -22.7100 O   0  0  0  0  0  0  0  0  0  0  0  0
   -3.0033   21.7998  -24.5413 H   0  0  0  0  0  0  0  0  0  0  0  0
   -4.1512   23.6911  -22.9970 C   0  0  0  0  0  0  0  0  0  0  0  0
   -4.5565   24.3592  -21.8388 C   0  0  0  0  0  0  0  0  0  0  0  0
   -5.8775   24.5805  -21.5320 C   0  0  0  0  0  0  0  0  0  0  0  0
   -6.8605   24.1238  -22.4046 C   0  0  0  0  0  0  0  0  0  0  0  0
   -6.4538   23.4614  -23.5511 C   0  0  0  0  0  0  0  0  0  0  0  0
   -5.1385   23.2369  -23.8659 C   0  0  0  0  0  0  0  0  0  0  0  0
   -8.2045   24.3810  -22.0614 N   0  0  0  0  0  0  0  0  0  0  0  0
   -9.0223   25.2646  -22.8757 C   0  0  0  0  0  0  0  0  0  0  0  0
   -8.7865   23.7739  -20.8969 C   0  0  0  0  0  0  0  0  0  0  0  0
   -9.6987   24.7412  -20.2004 C   0  0  0  0  0  0  0  0  0  0  0  0
  -10.3690   23.9755  -19.1333 N   0  0  0  0  0  0  0  0  0  0  0  0
  -11.7952   24.1109  -19.3768 C   0  0  0  0  0  0  0  0  0  0  0  0
   -9.9321   22.6103  -19.2389 C   0  0  0  0  0  0  0  0  0  0  0  0
 19 20  1  0  0  0
 20 11  1  0  0  0
 11 12  2  0  0  0
 12 13  1  0  0  0
 13 14  2  0  0  0
 14 15  1  0  0  0
 14 16  1  0  0  0
 16  1  1  0  0  0
  1  2  2  0  0  0
  2  3  1  0  0  0
  3  4  2  0  0  0
  4  5  1  0  0  0
  5 21  1  0  0  0
 21 22  1  0  0  0
 22 23  2  0  0  0
 22 25  1  0  0  0
 25 26  2  0  0  0
 26 27  1  0  0  0
 27 28  2  0  0  0
 28 29  1  0  0  0
 29 30  2  0  0  0
 28 31  1  0  0  0
 31 32  1  0  0  0
 31 33  1  0  0  0
 33 34  1  0  0  0
 34 35  1  0  0  0
 35 36  1  0  0  0
 35 37  1  0  0  0
  5  6  2  0  0  0
  6  7  1  0  0  0
  7  8  1  0  0  0
  8  9  2  0  0  0
 16 17  2  0  0  0
 17 18  1  0  0  0
 17 11  1  0  0  0
  9  1  1  0  0  0
  8  4  1  0  0  0
 30 25  1  0  0  0
 21 24  1  0  0  0
  7 10  1  0  0  0
M  END
> <minimizedAffinity>
-7.26734

> <CNNscore>
0.2934397161

> <CNNaffinity>
6.1201324463

> <CNN_VS>
1.7958899736

> <CNNaffinity_variance>
0.1209821254

$$$$
[H]c1c([H])c(OC([H])([H])[H])c(F)c(-c2c([H])c([H])c3c(N([H])C(=O)c4c([H])c([H])c(N(C([H])([H])[H])C([H])([H])C([H])([H])N(C([H])([H])[H])C([H])([H])[H])c([H])c4[H])nn([H])c3c2[H])c1F


 37 40  0  0  0  0  0  0  0  0999 V2000
   -3.3873   23.2835  -25.1271 C   0  0  0  0  0  0  0  0  0  0  0  0
   -3.0232   23.4254  -23.8107 C   0  0  0  0  0  0  0  0  0  0  0  0
   -1.7920   22.9959  -23.3248 C   0  0  0  0  0  0  0  0  0  0  0  0
   -0.8950   22.4037  -24.1892 C   0  0  0  0  0  0  0  0  0  0  0  0
    0.3704   21.8921  -24.0167 C   0  0  0  0  0  0  0  0  0  0  0  0
    0.7532   21.4485  -25.2322 N   0  0  0  0  0  0  0  0  0  0  0  0
   -0.2035   21.6617  -26.1200 N   0  0  0  0  0  0  0  0  0  0  0  0
   -1.2420   22.2501  -25.5233 C   0  0  0  0  0  0  0  0  0  0  0  0
   -2.4758   22.6861  -25.9837 C   0  0  0  0  0  0  0  0  0  0  0  0
   -0.2050   21.4244  -27.1495 H   0  0  0  0  0  0  0  0  0  0  0  0
   -5.8491   25.2440  -27.1149 C   0  0  0  0  0  0  0  0  0  0  0  0
   -7.0621   24.7395  -26.6610 C   0  0  0  0  0  0  0  0  0  0  0  0
   -7.0945   23.7459  -25.6963 C   0  0  0  0  0  0  0  0  0  0  0  0
   -5.8935   23.2668  -25.1945 C   0  0  0  0  0  0  0  0  0  0  0  0
   -5.9045   22.2864  -24.2410 F   0  0  0  0  0  0  0  0  0  0  0  0
   -4.6669   23.7319  -25.6098 C   0  0  0  0  0  0  0  0  0  0  0  0
   -4.6872   24.7371  -26.5874 C   0  0  0  0  0  0  0  0  0  0  0  0
   -3.5061   25.2302  -27.0328 F   0  0  0  0  0  0  0  0  0  0  0  0
   -5.6946   25.8298  -29.4294 C   0  0  0  0  0  0  0  0  0  0  0  0
   -5.7627   26.2376  -28.0777 O   0  0  0  0  0  0  0  0  0  0  0  0
    1.1176   21.8340  -22.7926 N   0  0  0  0  0  0  0  0  0  0  0  0
    0.7305   20.9392  -21.7697 C   0  0  0  0  0  0  0  0  0  0  0  0
   -0.2553   20.1916  -21.9341 O   0  0  0  0  0  0  0  0  0  0  0  0
    1.9349   22.4654  -22.6796 H   0  0  0  0  0  0  0  0  0  0  0  0
    1.4920   20.8990  -20.5278 C   0  0  0  0  0  0  0  0  0  0  0  0
    1.1795   21.7981  -19.5050 C   0  0  0  0  0  0  0  0  0  0  0  0
    1.8588   21.8312  -18.3111 C   0  0  0  0  0  0  0  0  0  0  0  0
    2.9037   20.9362  -18.1021 C   0  0  0  0  0  0  0  0  0  0  0  0
    3.2102   20.0473  -19.1192 C   0  0  0  0  0  0  0  0  0  0  0  0
    2.5375   20.0064  -20.3131 C   0  0  0  0  0  0  0  0  0  0  0  0
    3.5687   20.9925  -16.8592 N   0  0  0  0  0  0  0  0  0  0  0  0
    3.6674   19.8127  -16.0162 C   0  0  0  0  0  0  0  0  0  0  0  0
    4.1580   22.2213  -16.4050 C   0  0  0  0  0  0  0  0  0  0  0  0
    5.4161   22.5146  -17.1692 C   0  0  0  0  0  0  0  0  0  0  0  0
    5.2013   23.8168  -17.8266 N   0  0  0  0  0  0  0  0  0  0  0  0
    4.5541   24.6638  -16.8390 C   0  0  0  0  0  0  0  0  0  0  0  0
    6.4890   24.3261  -18.2116 C   0  0  0  0  0  0  0  0  0  0  0  0
 19 20  1  0  0  0
 20 11  1  0  0  0
 11 12  2  0  0  0
 12 13  1  0  0  0
 13 14  2  0  0  0
 14 15  1  0  0  0
 14 16  1  0  0  0
 16  1  1  0  0  0
  1  2  2  0  0  0
  2  3  1  0  0  0
  3  4  2  0  0  0
  4  5  1  0  0  0
  5 21  1  0  0  0
 21 22  1  0  0  0
 22 23  2  0  0  0
 22 25  1  0  0  0
 25 26  2  0  0  0
 26 27  1  0  0  0
 27 28  2  0  0  0
 28 29  1  0  0  0
 29 30  2  0  0  0
 28 31  1  0  0  0
 31 32  1  0  0  0
 31 33  1  0  0  0
 33 34  1  0  0  0
 34 35  1  0  0  0
 35 36  1  0  0  0
 35 37  1  0  0  0
  5  6  2  0  0  0
  6  7  1  0  0  0
  7  8  1  0  0  0
  8  9  2  0  0  0
 16 17  2  0  0  0
 17 18  1  0  0  0
 17 11  1  0  0  0
  9  1  1  0  0  0
  8  4  1  0  0  0
 30 25  1  0  0  0
 21 24  1  0  0  0
  7 10  1  0  0  0
M  END
> <minimizedAffinity>
-7.04415

> <CNNscore>
0.2791594565

> <CNNaffinity>
6.4171648026

> <CNN_VS>
1.7914122343

> <CNNaffinity_variance>
0.6050397158

$$$$
[H]c1c([H])c(OC([H])([H])[H])c(F)c(-c2c([H])c([H])c3c(N([H])C(=O)c4c([H])c([H])c(N(C([H])([H])[H])C([H])([H])C([H])([H])N(C([H])([H])[H])C([H])([H])[H])c([H])c4[H])nn([H])c3c2[H])c1F


 37 40  0  0  0  0  0  0  0  0999 V2000
   -1.6281   22.3711  -24.8333 C   0  0  0  0  0  0  0  0  0  0  0  0
   -2.0923   21.8182  -23.6652 C   0  0  0  0  0  0  0  0  0  0  0  0
   -1.2426   21.2868  -22.6999 C   0  0  0  0  0  0  0  0  0  0  0  0
    0.1199   21.3110  -22.9135 C   0  0  0  0  0  0  0  0  0  0  0  0
    1.1909   20.8792  -22.1656 C   0  0  0  0  0  0  0  0  0  0  0  0
    2.2876   21.1782  -22.8926 N   0  0  0  0  0  0  0  0  0  0  0  0
    1.9400   21.7603  -24.0281 N   0  0  0  0  0  0  0  0  0  0  0  0
    0.6109   21.8647  -24.0866 C   0  0  0  0  0  0  0  0  0  0  0  0
   -0.2567   22.3880  -25.0342 C   0  0  0  0  0  0  0  0  0  0  0  0
    2.5674   22.1067  -24.8044 H   0  0  0  0  0  0  0  0  0  0  0  0
   -4.3119   24.5079  -26.2779 C   0  0  0  0  0  0  0  0  0  0  0  0
   -4.3478   24.0812  -27.6002 C   0  0  0  0  0  0  0  0  0  0  0  0
   -3.4913   23.0863  -28.0424 C   0  0  0  0  0  0  0  0  0  0  0  0
   -2.5994   22.5268  -27.1394 C   0  0  0  0  0  0  0  0  0  0  0  0
   -1.7460   21.5429  -27.5565 F   0  0  0  0  0  0  0  0  0  0  0  0
   -2.5237   22.9134  -25.8210 C   0  0  0  0  0  0  0  0  0  0  0  0
   -3.4112   23.9233  -25.4223 C   0  0  0  0  0  0  0  0  0  0  0  0
   -3.3778   24.3424  -24.1341 F   0  0  0  0  0  0  0  0  0  0  0  0
   -4.6731   26.8299  -25.8285 C   0  0  0  0  0  0  0  0  0  0  0  0
   -5.1472   25.4989  -25.7863 O   0  0  0  0  0  0  0  0  0  0  0  0
    1.1439   20.2342  -20.8843 N   0  0  0  0  0  0  0  0  0  0  0  0
    0.9263   20.9983  -19.7156 C   0  0  0  0  0  0  0  0  0  0  0  0
    0.7647   22.2331  -19.7981 O   0  0  0  0  0  0  0  0  0  0  0  0
    1.2803   19.2051  -20.8413 H   0  0  0  0  0  0  0  0  0  0  0  0
    0.8923   20.3313  -18.4204 C   0  0  0  0  0  0  0  0  0  0  0  0
    0.7375   21.0962  -17.2614 C   0  0  0  0  0  0  0  0  0  0  0  0
    0.7087   20.5430  -16.0040 C   0  0  0  0  0  0  0  0  0  0  0  0
    0.8385   19.1642  -15.8682 C   0  0  0  0  0  0  0  0  0  0  0  0
    0.9924   18.4102  -17.0199 C   0  0  0  0  0  0  0  0  0  0  0  0
    1.0215   18.9532  -18.2784 C   0  0  0  0  0  0  0  0  0  0  0  0
    0.7915   18.6325  -14.5623 N   0  0  0  0  0  0  0  0  0  0  0  0
    1.7083   17.5806  -14.1559 C   0  0  0  0  0  0  0  0  0  0  0  0
   -0.1680   19.1224  -13.6121 C   0  0  0  0  0  0  0  0  0  0  0  0
   -1.4767   18.4045  -13.7692 C   0  0  0  0  0  0  0  0  0  0  0  0
   -2.4446   19.4152  -14.2337 N   0  0  0  0  0  0  0  0  0  0  0  0
   -2.8589   18.9946  -15.5615 C   0  0  0  0  0  0  0  0  0  0  0  0
   -3.5417   19.4243  -13.3051 C   0  0  0  0  0  0  0  0  0  0  0  0
 19 20  1  0  0  0
 20 11  1  0  0  0
 11 12  2  0  0  0
 12 13  1  0  0  0
 13 14  2  0  0  0
 14 15  1  0  0  0
 14 16  1  0  0  0
 16  1  1  0  0  0
  1  2  2  0  0  0
  2  3  1  0  0  0
  3  4  2  0  0  0
  4  5  1  0  0  0
  5 21  1  0  0  0
 21 22  1  0  0  0
 22 23  2  0  0  0
 22 25  1  0  0  0
 25 26  2  0  0  0
 26 27  1  0  0  0
 27 28  2  0  0  0
 28 29  1  0  0  0
 29 30  2  0  0  0
 28 31  1  0  0  0
 31 32  1  0  0  0
 31 33  1  0  0  0
 33 34  1  0  0  0
 34 35  1  0  0  0
 35 36  1  0  0  0
 35 37  1  0  0  0
  5  6  2  0  0  0
  6  7  1  0  0  0
  7  8  1  0  0  0
  8  9  2  0  0  0
 16 17  2  0  0  0
 17 18  1  0  0  0
 17 11  1  0  0  0
  9  1  1  0  0  0
  8  4  1  0  0  0
 30 25  1  0  0  0
 21 24  1  0  0  0
  7 10  1  0  0  0
M  END
> <minimizedAffinity>
-6.57037

> <CNNscore>
0.2737497985

> <CNNaffinity>
6.2108964920

> <CNN_VS>
1.7002316713

> <CNNaffinity_variance>
0.0981257334

$$$$
[H]c1c([H])c(OC([H])([H])[H])c(F)c(-c2c([H])c([H])c3c(N([H])C(=O)c4c([H])c([H])c(N(C([H])([H])[H])C([H])([H])C([H])([H])N(C([H])([H])[H])C([H])([H])[H])c([H])c4[H])nn([H])c3c2[H])c1F


 37 40  0  0  0  0  0  0  0  0999 V2000
    2.3562   20.5618  -22.1297 C   0  0  0  0  0  0  0  0  0  0  0  0
    1.1800   20.6279  -21.4241 C   0  0  0  0  0  0  0  0  0  0  0  0
    0.0089   21.1452  -21.9693 C   0  0  0  0  0  0  0  0  0  0  0  0
    0.0178   21.6121  -23.2671 C   0  0  0  0  0  0  0  0  0  0  0  0
   -0.9551   22.1633  -24.0686 C   0  0  0  0  0  0  0  0  0  0  0  0
   -0.3527   22.4219  -25.2480 N   0  0  0  0  0  0  0  0  0  0  0  0
    0.9189   22.0613  -25.2019 N   0  0  0  0  0  0  0  0  0  0  0  0
    1.1950   21.5551  -23.9984 C   0  0  0  0  0  0  0  0  0  0  0  0
    2.3499   21.0352  -23.4325 C   0  0  0  0  0  0  0  0  0  0  0  0
    1.6486   22.1386  -25.9620 H   0  0  0  0  0  0  0  0  0  0  0  0
    5.0515   18.1036  -21.3893 C   0  0  0  0  0  0  0  0  0  0  0  0
    5.8579   18.8090  -20.5039 C   0  0  0  0  0  0  0  0  0  0  0  0
    5.5333   20.1043  -20.1351 C   0  0  0  0  0  0  0  0  0  0  0  0
    4.3892   20.6803  -20.6673 C   0  0  0  0  0  0  0  0  0  0  0  0
    4.0514   21.9579  -20.3151 F   0  0  0  0  0  0  0  0  0  0  0  0
    3.5580   20.0255  -21.5469 C   0  0  0  0  0  0  0  0  0  0  0  0
    3.9295   18.7172  -21.8889 C   0  0  0  0  0  0  0  0  0  0  0  0
    3.1459   18.0273  -22.7529 F   0  0  0  0  0  0  0  0  0  0  0  0
    4.8335   15.7554  -20.9860 C   0  0  0  0  0  0  0  0  0  0  0  0
    5.3321   16.8063  -21.7893 O   0  0  0  0  0  0  0  0  0  0  0  0
   -2.3221   22.4188  -23.7138 N   0  0  0  0  0  0  0  0  0  0  0  0
   -2.6471   23.5339  -22.9089 C   0  0  0  0  0  0  0  0  0  0  0  0
   -1.7467   24.3029  -22.5146 O   0  0  0  0  0  0  0  0  0  0  0  0
   -3.0540   21.7650  -24.0548 H   0  0  0  0  0  0  0  0  0  0  0  0
   -4.0381   23.7746  -22.5472 C   0  0  0  0  0  0  0  0  0  0  0  0
   -4.7965   24.6700  -23.3057 C   0  0  0  0  0  0  0  0  0  0  0  0
   -6.1093   24.9593  -23.0209 C   0  0  0  0  0  0  0  0  0  0  0  0
   -6.7181   24.3401  -21.9335 C   0  0  0  0  0  0  0  0  0  0  0  0
   -5.9620   23.4538  -21.1842 C   0  0  0  0  0  0  0  0  0  0  0  0
   -4.6522   23.1584  -21.4613 C   0  0  0  0  0  0  0  0  0  0  0  0
   -8.0702   24.6533  -21.6807 N   0  0  0  0  0  0  0  0  0  0  0  0
   -8.8490   25.4122  -22.6450 C   0  0  0  0  0  0  0  0  0  0  0  0
   -8.6993   24.2278  -20.4614 C   0  0  0  0  0  0  0  0  0  0  0  0
  -10.1760   24.0527  -20.6654 C   0  0  0  0  0  0  0  0  0  0  0  0
  -10.8148   24.4576  -19.3996 N   0  0  0  0  0  0  0  0  0  0  0  0
  -11.8498   25.4121  -19.7591 C   0  0  0  0  0  0  0  0  0  0  0  0
  -11.3606   23.2752  -18.7915 C   0  0  0  0  0  0  0  0  0  0  0  0
 19 20  1  0  0  0
 20 11  1  0  0  0
 11 12  2  0  0  0
 12 13  1  0  0  0
 13 14  2  0  0  0
 14 15  1  0  0  0
 14 16  1  0  0  0
 16  1  1  0  0  0
  1  2  2  0  0  0
  2  3  1  0  0  0
  3  4  2  0  0  0
  4  5  1  0  0  0
  5 21  1  0  0  0
 21 22  1  0  0  0
 22 23  2  0  0  0
 22 25  1  0  0  0
 25 26  2  0  0  0
 26 27  1  0  0  0
 27 28  2  0  0  0
 28 29  1  0  0  0
 29 30  2  0  0  0
 28 31  1  0  0  0
 31 32  1  0  0  0
 31 33  1  0  0  0
 33 34  1  0  0  0
 34 35  1  0  0  0
 35 36  1  0  0  0
 35 37  1  0  0  0
  5  6  2  0  0  0
  6  7  1  0  0  0
  7  8  1  0  0  0
  8  9  2  0  0  0
 16 17  2  0  0  0
 17 18  1  0  0  0
 17 11  1  0  0  0
  9  1  1  0  0  0
  8  4  1  0  0  0
 30 25  1  0  0  0
 21 24  1  0  0  0
  7 10  1  0  0  0
M  END
> <minimizedAffinity>
-7.09630

> <CNNscore>
0.2674163580

> <CNNaffinity>
6.0434288979

> <CNN_VS>
1.6161117554

> <CNNaffinity_variance>
0.1028918773

$$$$
[H]c1nc(N([H])C(=O)c2c([H])c([H])c(N3C([H])([H])C([H])([H])N(C([H])([H])[H])C([H])([H])C3([H])[H])c([H])c2[H])c([H])c(Oc2c([H])c([H])c3c(C(=O)N([H])C([H])([H])[H])c([H])c([H])c([H])c3c2[H])c1[H]


 39 43  0  0  0  0  0  0  0  0999 V2000
    0.3572   21.6157  -24.3280 C   0  0  0  0  0  0  0  0  0  0  0  0
    1.6350   21.2589  -23.9781 C   0  0  0  0  0  0  0  0  0  0  0  0
    1.9371   21.0041  -22.6608 C   0  0  0  0  0  0  0  0  0  0  0  0
    0.9743   21.1083  -21.7322 N   0  0  0  0  0  0  0  0  0  0  0  0
   -0.3213   21.4621  -22.0292 C   0  0  0  0  0  0  0  0  0  0  0  0
   -0.6042   21.7096  -23.3255 C   0  0  0  0  0  0  0  0  0  0  0  0
   -1.2193   21.4921  -20.9743 N   0  0  0  0  0  0  0  0  0  0  0  0
   -1.6611   22.6957  -20.3207 C   0  0  0  0  0  0  0  0  0  0  0  0
   -1.2535   23.8020  -20.6115 O   0  0  0  0  0  0  0  0  0  0  0  0
   -1.6431   20.5936  -20.6372 H   0  0  0  0  0  0  0  0  0  0  0  0
   -2.6720   22.4312  -19.2453 C   0  0  0  0  0  0  0  0  0  0  0  0
   -2.3034   22.5087  -17.9361 C   0  0  0  0  0  0  0  0  0  0  0  0
   -3.2495   22.3585  -16.9246 C   0  0  0  0  0  0  0  0  0  0  0  0
   -4.5717   22.1298  -17.1914 C   0  0  0  0  0  0  0  0  0  0  0  0
   -4.9356   22.0474  -18.5285 C   0  0  0  0  0  0  0  0  0  0  0  0
   -3.9875   22.1979  -19.5572 C   0  0  0  0  0  0  0  0  0  0  0  0
   -5.5608   22.0341  -16.1356 N   0  0  0  0  0  0  0  0  0  0  0  0
   -5.1219   21.6369  -14.8154 C   0  0  0  0  0  0  0  0  0  0  0  0
   -5.7370   22.4136  -13.7024 C   0  0  0  0  0  0  0  0  0  0  0  0
   -6.9488   23.0750  -14.0452 N   0  0  0  0  0  0  0  0  0  0  0  0
   -6.8442   24.4959  -14.1242 C   0  0  0  0  0  0  0  0  0  0  0  0
   -7.6939   22.4404  -15.0816 C   0  0  0  0  0  0  0  0  0  0  0  0
   -6.9399   22.3117  -16.3749 C   0  0  0  0  0  0  0  0  0  0  0  0
   -0.0068   21.8873  -25.6514 O   0  0  0  0  0  0  0  0  0  0  0  0
   -5.3718   23.2815  -26.3987 C   0  0  0  0  0  0  0  0  0  0  0  0
   -6.3236   22.8061  -25.4708 C   0  0  0  0  0  0  0  0  0  0  0  0
   -5.9503   22.0092  -24.4319 C   0  0  0  0  0  0  0  0  0  0  0  0
   -4.6199   21.6835  -24.3130 C   0  0  0  0  0  0  0  0  0  0  0  0
   -3.6450   22.1225  -25.1914 C   0  0  0  0  0  0  0  0  0  0  0  0
   -2.3175   21.7833  -25.0078 C   0  0  0  0  0  0  0  0  0  0  0  0
   -1.3482   22.2407  -25.8590 C   0  0  0  0  0  0  0  0  0  0  0  0
   -1.7195   23.0428  -26.8999 C   0  0  0  0  0  0  0  0  0  0  0  0
   -3.0692   23.3814  -27.0778 C   0  0  0  0  0  0  0  0  0  0  0  0
   -4.0615   22.9361  -26.2433 C   0  0  0  0  0  0  0  0  0  0  0  0
   -5.4352   23.1892  -30.0958 C   0  0  0  0  0  0  0  0  0  0  0  0
   -5.6339   23.6024  -28.8731 N   0  0  0  0  0  0  0  0  0  0  0  0
   -5.8519   24.0554  -27.5397 C   0  0  0  0  0  0  0  0  0  0  0  0
   -6.4558   25.1069  -27.2414 O   0  0  0  0  0  0  0  0  0  0  0  0
   -6.2091   24.7622  -29.3385 H   0  0  0  0  0  0  0  0  0  0  0  0
 35 36  1  0  0  0
 36 37  1  0  0  0
 37 38  2  0  0  0
 37 25  1  0  0  0
 25 26  2  0  0  0
 26 27  1  0  0  0
 27 28  2  0  0  0
 28 29  1  0  0  0
 29 30  2  0  0  0
 30 31  1  0  0  0
 31 24  1  0  0  0
 24  1  1  0  0  0
  1  2  2  0  0  0
  2  3  1  0  0  0
  3  4  2  0  0  0
  4  5  1  0  0  0
  5  7  1  0  0  0
  7  8  1  0  0  0
  8  9  2  0  0  0
  8 11  1  0  0  0
 11 12  2  0  0  0
 12 13  1  0  0  0
 13 14  2  0  0  0
 14 15  1  0  0  0
 15 16  2  0  0  0
 14 17  1  0  0  0
 17 18  1  0  0  0
 18 19  1  0  0  0
 19 20  1  0  0  0
 20 21  1  0  0  0
 20 22  1  0  0  0
 22 23  1  0  0  0
  5  6  2  0  0  0
 31 32  2  0  0  0
 32 33  1  0  0  0
 33 34  2  0  0  0
 34 25  1  0  0  0
 34 29  1  0  0  0
  6  1  1  0  0  0
 16 11  1  0  0  0
 23 17  1  0  0  0
 36 39  1  0  0  0
  7 10  1  0  0  0
M  END
> <minimizedAffinity>
-9.21251

> <CNNscore>
0.2893899083

> <CNNaffinity>
6.6499991417

> <CNN_VS>
1.9244426489

> <CNNaffinity_variance>
0.1187771931

$$$$
[H]c1nc(N([H])C(=O)c2c([H])c([H])c(N3C([H])([H])C([H])([H])N(C([H])([H])[H])C([H])([H])C3([H])[H])c([H])c2[H])c([H])c(Oc2c([H])c([H])c3c(C(=O)N([H])C([H])([H])[H])c([H])c([H])c([H])c3c2[H])c1[H]


 39 43  0  0  0  0  0  0  0  0999 V2000
   -4.6249   23.6880  -27.1895 C   0  0  0  0  0  0  0  0  0  0  0  0
   -4.2837   23.4881  -28.5034 C   0  0  0  0  0  0  0  0  0  0  0  0
   -3.0355   23.0048  -28.8195 C   0  0  0  0  0  0  0  0  0  0  0  0
   -2.1651   22.7343  -27.8349 N   0  0  0  0  0  0  0  0  0  0  0  0
   -2.4565   22.9166  -26.5031 C   0  0  0  0  0  0  0  0  0  0  0  0
   -3.6846   23.3916  -26.2067 C   0  0  0  0  0  0  0  0  0  0  0  0
   -1.4749   22.5582  -25.5931 N   0  0  0  0  0  0  0  0  0  0  0  0
   -1.7324   21.8879  -24.3459 C   0  0  0  0  0  0  0  0  0  0  0  0
   -2.8478   21.6076  -23.9560 O   0  0  0  0  0  0  0  0  0  0  0  0
   -0.4692   22.7474  -25.8241 H   0  0  0  0  0  0  0  0  0  0  0  0
   -0.4771   21.5798  -23.5859 C   0  0  0  0  0  0  0  0  0  0  0  0
   -0.5563   21.1263  -22.3037 C   0  0  0  0  0  0  0  0  0  0  0  0
    0.5938   20.7465  -21.6152 C   0  0  0  0  0  0  0  0  0  0  0  0
    1.8370   20.8092  -22.1827 C   0  0  0  0  0  0  0  0  0  0  0  0
    1.9071   21.2776  -23.4876 C   0  0  0  0  0  0  0  0  0  0  0  0
    0.7512   21.6633  -24.1912 C   0  0  0  0  0  0  0  0  0  0  0  0
    3.0227   20.3561  -21.4817 N   0  0  0  0  0  0  0  0  0  0  0  0
    3.1456   20.6570  -20.0719 C   0  0  0  0  0  0  0  0  0  0  0  0
    3.6693   19.5328  -19.2458 C   0  0  0  0  0  0  0  0  0  0  0  0
    4.3776   18.5420  -19.9808 N   0  0  0  0  0  0  0  0  0  0  0  0
    3.6967   17.2934  -20.0966 C   0  0  0  0  0  0  0  0  0  0  0  0
    5.0109   19.0254  -21.1628 C   0  0  0  0  0  0  0  0  0  0  0  0
    4.0586   19.6378  -22.1504 C   0  0  0  0  0  0  0  0  0  0  0  0
   -5.8792   24.1780  -26.8096 O   0  0  0  0  0  0  0  0  0  0  0  0
   -6.8662   24.2418  -21.3044 C   0  0  0  0  0  0  0  0  0  0  0  0
   -7.1100   23.0134  -20.6527 C   0  0  0  0  0  0  0  0  0  0  0  0
   -7.1273   21.8434  -21.3489 C   0  0  0  0  0  0  0  0  0  0  0  0
   -6.8987   21.8944  -22.7036 C   0  0  0  0  0  0  0  0  0  0  0  0
   -6.6527   23.0688  -23.3928 C   0  0  0  0  0  0  0  0  0  0  0  0
   -6.4045   23.0567  -24.7526 C   0  0  0  0  0  0  0  0  0  0  0  0
   -6.1321   24.2141  -25.4304 C   0  0  0  0  0  0  0  0  0  0  0  0
   -6.1110   25.3885  -24.7340 C   0  0  0  0  0  0  0  0  0  0  0  0
   -6.3641   25.3905  -23.3542 C   0  0  0  0  0  0  0  0  0  0  0  0
   -6.6423   24.2477  -22.6498 C   0  0  0  0  0  0  0  0  0  0  0  0
   -9.2387   26.9597  -20.4891 C   0  0  0  0  0  0  0  0  0  0  0  0
   -8.1459   26.2450  -20.5024 N   0  0  0  0  0  0  0  0  0  0  0  0
   -6.9522   25.4670  -20.5152 C   0  0  0  0  0  0  0  0  0  0  0  0
   -5.9194   25.7482  -19.8720 O   0  0  0  0  0  0  0  0  0  0  0  0
   -7.5055   27.1757  -19.7171 H   0  0  0  0  0  0  0  0  0  0  0  0
 35 36  1  0  0  0
 36 37  1  0  0  0
 37 38  2  0  0  0
 37 25  1  0  0  0
 25 26  2  0  0  0
 26 27  1  0  0  0
 27 28  2  0  0  0
 28 29  1  0  0  0
 29 30  2  0  0  0
 30 31  1  0  0  0
 31 24  1  0  0  0
 24  1  1  0  0  0
  1  2  2  0  0  0
  2  3  1  0  0  0
  3  4  2  0  0  0
  4  5  1  0  0  0
  5  7  1  0  0  0
  7  8  1  0  0  0
  8  9  2  0  0  0
  8 11  1  0  0  0
 11 12  2  0  0  0
 12 13  1  0  0  0
 13 14  2  0  0  0
 14 15  1  0  0  0
 15 16  2  0  0  0
 14 17  1  0  0  0
 17 18  1  0  0  0
 18 19  1  0  0  0
 19 20  1  0  0  0
 20 21  1  0  0  0
 20 22  1  0  0  0
 22 23  1  0  0  0
  5  6  2  0  0  0
 31 32  2  0  0  0
 32 33  1  0  0  0
 33 34  2  0  0  0
 34 25  1  0  0  0
 34 29  1  0  0  0
  6  1  1  0  0  0
 16 11  1  0  0  0
 23 17  1  0  0  0
 36 39  1  0  0  0
  7 10  1  0  0  0
M  END
> <minimizedAffinity>
-9.36224

> <CNNscore>
0.2698429227

> <CNNaffinity>
6.9686594009

> <CNN_VS>
1.8804434538

> <CNNaffinity_variance>
0.2066463530

$$$$
[H]c1nc(N([H])C(=O)c2c([H])c([H])c(N3C([H])([H])C([H])([H])N(C([H])([H])[H])C([H])([H])C3([H])[H])c([H])c2[H])c([H])c(Oc2c([H])c([H])c3c(C(=O)N([H])C([H])([H])[H])c([H])c([H])c([H])c3c2[H])c1[H]


 39 43  0  0  0  0  0  0  0  0999 V2000
   -0.1066   21.9952  -24.6287 C   0  0  0  0  0  0  0  0  0  0  0  0
    1.0208   21.6393  -23.9323 C   0  0  0  0  0  0  0  0  0  0  0  0
    0.9088   21.1670  -22.6455 C   0  0  0  0  0  0  0  0  0  0  0  0
   -0.3062   21.0600  -22.0866 N   0  0  0  0  0  0  0  0  0  0  0  0
   -1.4670   21.4027  -22.7402 C   0  0  0  0  0  0  0  0  0  0  0  0
   -1.3429   21.8650  -24.0021 C   0  0  0  0  0  0  0  0  0  0  0  0
   -2.6539   21.2032  -22.0535 N   0  0  0  0  0  0  0  0  0  0  0  0
   -3.3362   22.2233  -21.3019 C   0  0  0  0  0  0  0  0  0  0  0  0
   -2.9094   23.3523  -21.1677 O   0  0  0  0  0  0  0  0  0  0  0  0
   -3.1205   20.2647  -22.0997 H   0  0  0  0  0  0  0  0  0  0  0  0
   -4.6228   21.7375  -20.7046 C   0  0  0  0  0  0  0  0  0  0  0  0
   -4.6200   21.1559  -19.4726 C   0  0  0  0  0  0  0  0  0  0  0  0
   -5.8162   20.7842  -18.8629 C   0  0  0  0  0  0  0  0  0  0  0  0
   -7.0309   20.9812  -19.4606 C   0  0  0  0  0  0  0  0  0  0  0  0
   -7.0222   21.5697  -20.7178 C   0  0  0  0  0  0  0  0  0  0  0  0
   -5.8193   21.9489  -21.3417 C   0  0  0  0  0  0  0  0  0  0  0  0
   -8.2752   20.6470  -18.7954 N   0  0  0  0  0  0  0  0  0  0  0  0
   -8.3301   19.4347  -18.0076 C   0  0  0  0  0  0  0  0  0  0  0  0
   -9.0479   19.5761  -16.7094 C   0  0  0  0  0  0  0  0  0  0  0  0
   -9.9331   20.6877  -16.6439 N   0  0  0  0  0  0  0  0  0  0  0  0
   -9.4970   21.7400  -15.7845 C   0  0  0  0  0  0  0  0  0  0  0  0
  -10.4738   21.0854  -17.9013 C   0  0  0  0  0  0  0  0  0  0  0  0
   -9.4312   21.4756  -18.9104 C   0  0  0  0  0  0  0  0  0  0  0  0
   -0.0526   22.4823  -25.9392 O   0  0  0  0  0  0  0  0  0  0  0  0
   -5.0112   23.4827  -28.3263 C   0  0  0  0  0  0  0  0  0  0  0  0
   -6.1306   23.6799  -27.4891 C   0  0  0  0  0  0  0  0  0  0  0  0
   -6.0130   23.6064  -26.1347 C   0  0  0  0  0  0  0  0  0  0  0  0
   -4.7722   23.3364  -25.6077 C   0  0  0  0  0  0  0  0  0  0  0  0
   -3.6416   23.1367  -26.3801 C   0  0  0  0  0  0  0  0  0  0  0  0
   -2.4137   22.8931  -25.7938 C   0  0  0  0  0  0  0  0  0  0  0  0
   -1.2892   22.7245  -26.5555 C   0  0  0  0  0  0  0  0  0  0  0  0
   -1.4038   22.8010  -27.9140 C   0  0  0  0  0  0  0  0  0  0  0  0
   -2.6543   23.0486  -28.4996 C   0  0  0  0  0  0  0  0  0  0  0  0
   -3.7976   23.2188  -27.7625 C   0  0  0  0  0  0  0  0  0  0  0  0
   -5.2932   25.8261  -31.1740 C   0  0  0  0  0  0  0  0  0  0  0  0
   -5.2602   24.7072  -30.5018 N   0  0  0  0  0  0  0  0  0  0  0  0
   -5.2246   23.4846  -29.7705 C   0  0  0  0  0  0  0  0  0  0  0  0
   -5.3585   22.3528  -30.2807 O   0  0  0  0  0  0  0  0  0  0  0  0
   -5.5628   23.9936  -31.6385 H   0  0  0  0  0  0  0  0  0  0  0  0
 35 36  1  0  0  0
 36 37  1  0  0  0
 37 38  2  0  0  0
 37 25  1  0  0  0
 25 26  2  0  0  0
 26 27  1  0  0  0
 27 28  2  0  0  0
 28 29  1  0  0  0
 29 30  2  0  0  0
 30 31  1  0  0  0
 31 24  1  0  0  0
 24  1  1  0  0  0
  1  2  2  0  0  0
  2  3  1  0  0  0
  3  4  2  0  0  0
  4  5  1  0  0  0
  5  7  1  0  0  0
  7  8  1  0  0  0
  8  9  2  0  0  0
  8 11  1  0  0  0
 11 12  2  0  0  0
 12 13  1  0  0  0
 13 14  2  0  0  0
 14 15  1  0  0  0
 15 16  2  0  0  0
 14 17  1  0  0  0
 17 18  1  0  0  0
 18 19  1  0  0  0
 19 20  1  0  0  0
 20 21  1  0  0  0
 20 22  1  0  0  0
 22 23  1  0  0  0
  5  6  2  0  0  0
 31 32  2  0  0  0
 32 33  1  0  0  0
 33 34  2  0  0  0
 34 25  1  0  0  0
 34 29  1  0  0  0
  6  1  1  0  0  0
 16 11  1  0  0  0
 23 17  1  0  0  0
 36 39  1  0  0  0
  7 10  1  0  0  0
M  END
> <minimizedAffinity>
-10.14657

> <CNNscore>
0.2697512209

> <CNNaffinity>
6.7414793968

> <CNN_VS>
1.8185223341

> <CNNaffinity_variance>
0.0937878042

$$$$
[H]c1nc(N([H])C(=O)c2c([H])c([H])c(N3C([H])([H])C([H])([H])N(C([H])([H])[H])C([H])([H])C3([H])[H])c([H])c2[H])c([H])c(Oc2c([H])c([H])c3c(C(=O)N([H])C([H])([H])[H])c([H])c([H])c([H])c3c2[H])c1[H]


 39 43  0  0  0  0  0  0  0  0999 V2000
    0.3576   21.6945  -24.3473 C   0  0  0  0  0  0  0  0  0  0  0  0
    1.6082   21.3428  -23.9058 C   0  0  0  0  0  0  0  0  0  0  0  0
    1.8012   21.0243  -22.5819 C   0  0  0  0  0  0  0  0  0  0  0  0
    0.7598   21.0619  -21.7368 N   0  0  0  0  0  0  0  0  0  0  0  0
   -0.5130   21.4074  -22.1273 C   0  0  0  0  0  0  0  0  0  0  0  0
   -0.6885   21.7179  -23.4290 C   0  0  0  0  0  0  0  0  0  0  0  0
   -1.4990   21.3655  -21.1547 N   0  0  0  0  0  0  0  0  0  0  0  0
   -1.9302   22.5049  -20.3887 C   0  0  0  0  0  0  0  0  0  0  0  0
   -1.4372   23.6093  -20.4989 O   0  0  0  0  0  0  0  0  0  0  0  0
   -2.0007   20.4622  -20.9731 H   0  0  0  0  0  0  0  0  0  0  0  0
   -3.0467   22.1764  -19.4433 C   0  0  0  0  0  0  0  0  0  0  0  0
   -2.7694   21.8996  -18.1386 C   0  0  0  0  0  0  0  0  0  0  0  0
   -3.8002   21.6846  -17.2264 C   0  0  0  0  0  0  0  0  0  0  0  0
   -5.1181   21.7398  -17.5894 C   0  0  0  0  0  0  0  0  0  0  0  0
   -5.3894   22.0174  -18.9222 C   0  0  0  0  0  0  0  0  0  0  0  0
   -4.3553   22.2362  -19.8510 C   0  0  0  0  0  0  0  0  0  0  0  0
   -6.1864   21.5743  -16.6232 N   0  0  0  0  0  0  0  0  0  0  0  0
   -5.9098   20.8332  -15.4118 C   0  0  0  0  0  0  0  0  0  0  0  0
   -6.4858   21.4356  -14.1764 C   0  0  0  0  0  0  0  0  0  0  0  0
   -7.5589   22.3403  -14.4075 N   0  0  0  0  0  0  0  0  0  0  0  0
   -7.2419   23.7088  -14.1568 C   0  0  0  0  0  0  0  0  0  0  0  0
   -8.3095   22.0747  -15.5898 C   0  0  0  0  0  0  0  0  0  0  0  0
   -7.4884   22.1136  -16.8475 C   0  0  0  0  0  0  0  0  0  0  0  0
    0.1031   22.0289  -25.6818 O   0  0  0  0  0  0  0  0  0  0  0  0
   -5.0863   23.7322  -26.8882 C   0  0  0  0  0  0  0  0  0  0  0  0
   -5.5377   23.6146  -28.2205 C   0  0  0  0  0  0  0  0  0  0  0  0
   -4.7241   23.1202  -29.1939 C   0  0  0  0  0  0  0  0  0  0  0  0
   -3.4519   22.7378  -28.8399 C   0  0  0  0  0  0  0  0  0  0  0  0
   -2.9582   22.8291  -27.5504 C   0  0  0  0  0  0  0  0  0  0  0  0
   -1.6776   22.4055  -27.2476 C   0  0  0  0  0  0  0  0  0  0  0  0
   -1.1982   22.4680  -25.9672 C   0  0  0  0  0  0  0  0  0  0  0  0
   -2.0133   22.9604  -24.9886 C   0  0  0  0  0  0  0  0  0  0  0  0
   -3.3112   23.3877  -25.3058 C   0  0  0  0  0  0  0  0  0  0  0  0
   -3.8172   23.3395  -26.5791 C   0  0  0  0  0  0  0  0  0  0  0  0
   -5.6114   26.9464  -25.1350 C   0  0  0  0  0  0  0  0  0  0  0  0
   -5.7853   25.7072  -25.5080 N   0  0  0  0  0  0  0  0  0  0  0  0
   -5.9772   24.3546  -25.9134 C   0  0  0  0  0  0  0  0  0  0  0  0
   -6.8921   23.6152  -25.4944 O   0  0  0  0  0  0  0  0  0  0  0  0
   -6.8196   25.5630  -24.6123 H   0  0  0  0  0  0  0  0  0  0  0  0
 35 36  1  0  0  0
 36 37  1  0  0  0
 37 38  2  0  0  0
 37 25  1  0  0  0
 25 26  2  0  0  0
 26 27  1  0  0  0
 27 28  2  0  0  0
 28 29  1  0  0  0
 29 30  2  0  0  0
 30 31  1  0  0  0
 31 24  1  0  0  0
 24  1  1  0  0  0
  1  2  2  0  0  0
  2  3  1  0  0  0
  3  4  2  0  0  0
  4  5  1  0  0  0
  5  7  1  0  0  0
  7  8  1  0  0  0
  8  9  2  0  0  0
  8 11  1  0  0  0
 11 12  2  0  0  0
 12 13  1  0  0  0
 13 14  2  0  0  0
 14 15  1  0  0  0
 15 16  2  0  0  0
 14 17  1  0  0  0
 17 18  1  0  0  0
 18 19  1  0  0  0
 19 20  1  0  0  0
 20 21  1  0  0  0
 20 22  1  0  0  0
 22 23  1  0  0  0
  5  6  2  0  0  0
 31 32  2  0  0  0
 32 33  1  0  0  0
 33 34  2  0  0  0
 34 25  1  0  0  0
 34 29  1  0  0  0
  6  1  1  0  0  0
 16 11  1  0  0  0
 23 17  1  0  0  0
 36 39  1  0  0  0
  7 10  1  0  0  0
M  END
> <minimizedAffinity>
-9.08878

> <CNNscore>
0.2692157328

> <CNNaffinity>
6.5436921120

> <CNN_VS>
1.7616648674

> <CNNaffinity_variance>
0.1879014075

$$$$
[H]c1nc(N([H])C(=O)c2c([H])c([H])c(N3C([H])([H])C([H])([H])N(C([H])([H])[H])C([H])([H])C3([H])[H])c([H])c2[H])c([H])c(Oc2c([H])c([H])c3c(C(=O)N([H])C([H])([H])[H])c([H])c([H])c([H])c3c2[H])c1[H]


 39 43  0  0  0  0  0  0  0  0999 V2000
   -2.3657   22.1932  -25.9275 C   0  0  0  0  0  0  0  0  0  0  0  0
   -1.3359   22.3389  -26.8226 C   0  0  0  0  0  0  0  0  0  0  0  0
   -0.0352   22.3265  -26.3759 C   0  0  0  0  0  0  0  0  0  0  0  0
    0.2100   22.1714  -25.0660 N   0  0  0  0  0  0  0  0  0  0  0  0
   -0.7847   22.0216  -24.1278 C   0  0  0  0  0  0  0  0  0  0  0  0
   -2.0564   22.0358  -24.5793 C   0  0  0  0  0  0  0  0  0  0  0  0
   -0.3832   21.8315  -22.8152 N   0  0  0  0  0  0  0  0  0  0  0  0
   -0.7527   22.6919  -21.7224 C   0  0  0  0  0  0  0  0  0  0  0  0
   -1.4245   23.6943  -21.8591 O   0  0  0  0  0  0  0  0  0  0  0  0
    0.1997   20.9931  -22.5746 H   0  0  0  0  0  0  0  0  0  0  0  0
   -0.2157   22.2163  -20.4058 C   0  0  0  0  0  0  0  0  0  0  0  0
   -0.3966   22.9735  -19.2878 C   0  0  0  0  0  0  0  0  0  0  0  0
    0.0126   22.5042  -18.0415 C   0  0  0  0  0  0  0  0  0  0  0  0
    0.6057   21.2817  -17.8819 C   0  0  0  0  0  0  0  0  0  0  0  0
    0.7899   20.5205  -19.0280 C   0  0  0  0  0  0  0  0  0  0  0  0
    0.3798   20.9857  -20.2910 C   0  0  0  0  0  0  0  0  0  0  0  0
    0.9746   20.7742  -16.5747 N   0  0  0  0  0  0  0  0  0  0  0  0
    0.5721   21.5260  -15.4060 C   0  0  0  0  0  0  0  0  0  0  0  0
    0.0671   20.6904  -14.2802 C   0  0  0  0  0  0  0  0  0  0  0  0
    0.4703   19.3272  -14.3316 N   0  0  0  0  0  0  0  0  0  0  0  0
   -0.5806   18.4117  -14.6374 C   0  0  0  0  0  0  0  0  0  0  0  0
    1.7119   19.1045  -14.9954 C   0  0  0  0  0  0  0  0  0  0  0  0
    1.7244   19.5694  -16.4241 C   0  0  0  0  0  0  0  0  0  0  0  0
   -3.7072   22.1990  -26.3248 O   0  0  0  0  0  0  0  0  0  0  0  0
   -7.5015   23.0347  -22.3010 C   0  0  0  0  0  0  0  0  0  0  0  0
   -8.2376   24.2393  -22.3133 C   0  0  0  0  0  0  0  0  0  0  0  0
   -8.0152   25.1854  -23.2668 C   0  0  0  0  0  0  0  0  0  0  0  0
   -7.0546   24.9315  -24.2171 C   0  0  0  0  0  0  0  0  0  0  0  0
   -6.3056   23.7686  -24.2540 C   0  0  0  0  0  0  0  0  0  0  0  0
   -5.3697   23.5567  -25.2491 C   0  0  0  0  0  0  0  0  0  0  0  0
   -4.6489   22.3945  -25.3038 C   0  0  0  0  0  0  0  0  0  0  0  0
   -4.8724   21.4427  -24.3505 C   0  0  0  0  0  0  0  0  0  0  0  0
   -5.8242   21.6671  -23.3447 C   0  0  0  0  0  0  0  0  0  0  0  0
   -6.5587   22.8218  -23.2633 C   0  0  0  0  0  0  0  0  0  0  0  0
   -6.2980   22.3087  -18.8796 C   0  0  0  0  0  0  0  0  0  0  0  0
   -6.9800   22.2119  -19.9890 N   0  0  0  0  0  0  0  0  0  0  0  0
   -7.7255   22.1041  -21.1987 C   0  0  0  0  0  0  0  0  0  0  0  0
   -8.6063   21.2447  -21.4107 O   0  0  0  0  0  0  0  0  0  0  0  0
   -7.6014   21.0736  -19.5296 H   0  0  0  0  0  0  0  0  0  0  0  0
 35 36  1  0  0  0
 36 37  1  0  0  0
 37 38  2  0  0  0
 37 25  1  0  0  0
 25 26  2  0  0  0
 26 27  1  0  0  0
 27 28  2  0  0  0
 28 29  1  0  0  0
 29 30  2  0  0  0
 30 31  1  0  0  0
 31 24  1  0  0  0
 24  1  1  0  0  0
  1  2  2  0  0  0
  2  3  1  0  0  0
  3  4  2  0  0  0
  4  5  1  0  0  0
  5  7  1  0  0  0
  7  8  1  0  0  0
  8  9  2  0  0  0
  8 11  1  0  0  0
 11 12  2  0  0  0
 12 13  1  0  0  0
 13 14  2  0  0  0
 14 15  1  0  0  0
 15 16  2  0  0  0
 14 17  1  0  0  0
 17 18  1  0  0  0
 18 19  1  0  0  0
 19 20  1  0  0  0
 20 21  1  0  0  0
 20 22  1  0  0  0
 22 23  1  0  0  0
  5  6  2  0  0  0
 31 32  2  0  0  0
 32 33  1  0  0  0
 33 34  2  0  0  0
 34 25  1  0  0  0
 34 29  1  0  0  0
  6  1  1  0  0  0
 16 11  1  0  0  0
 23 17  1  0  0  0
 36 39  1  0  0  0
  7 10  1  0  0  0
M  END
> <minimizedAffinity>
-8.42461

> <CNNscore>
0.2271472961

> <CNNaffinity>
6.3780927658

> <CNN_VS>
1.4487664700

> <CNNaffinity_variance>
0.0538776815

$$$$
[H]c1nc(N([H])C(=O)c2c([H])c([H])c(N3C([H])([H])C([H])([H])N(C([H])([H])[H])C([H])([H])C3([H])[H])c([H])c2[H])c([H])c(Oc2c([H])c([H])c3c(C(=O)N([H])C([H])([H])[H])c([H])c([H])c([H])c3c2[H])c1[H]


 39 43  0  0  0  0  0  0  0  0999 V2000
   -4.5898   23.9158  -27.1889 C   0  0  0  0  0  0  0  0  0  0  0  0
   -4.3580   23.5469  -28.4899 C   0  0  0  0  0  0  0  0  0  0  0  0
   -3.1809   22.9181  -28.8227 C   0  0  0  0  0  0  0  0  0  0  0  0
   -2.2720   22.6729  -27.8668 N   0  0  0  0  0  0  0  0  0  0  0  0
   -2.4546   23.0217  -26.5488 C   0  0  0  0  0  0  0  0  0  0  0  0
   -3.6137   23.6383  -26.2359 C   0  0  0  0  0  0  0  0  0  0  0  0
   -1.4478   22.6713  -25.6636 N   0  0  0  0  0  0  0  0  0  0  0  0
   -1.6532   21.8945  -24.4696 C   0  0  0  0  0  0  0  0  0  0  0  0
   -2.7442   21.5049  -24.1055 O   0  0  0  0  0  0  0  0  0  0  0  0
   -0.4592   22.9505  -25.8762 H   0  0  0  0  0  0  0  0  0  0  0  0
   -0.3774   21.6253  -23.7292 C   0  0  0  0  0  0  0  0  0  0  0  0
   -0.4220   21.2149  -22.4309 C   0  0  0  0  0  0  0  0  0  0  0  0
    0.7477   20.8705  -21.7571 C   0  0  0  0  0  0  0  0  0  0  0  0
    1.9768   20.9264  -22.3553 C   0  0  0  0  0  0  0  0  0  0  0  0
    2.0116   21.3508  -23.6765 C   0  0  0  0  0  0  0  0  0  0  0  0
    0.8357   21.7006  -24.3656 C   0  0  0  0  0  0  0  0  0  0  0  0
    3.1832   20.5096  -21.6673 N   0  0  0  0  0  0  0  0  0  0  0  0
    3.6641   21.3199  -20.5695 C   0  0  0  0  0  0  0  0  0  0  0  0
    4.1403   20.5410  -19.3918 C   0  0  0  0  0  0  0  0  0  0  0  0
    4.4768   19.1887  -19.6771 N   0  0  0  0  0  0  0  0  0  0  0  0
    3.5699   18.2280  -19.1379 C   0  0  0  0  0  0  0  0  0  0  0  0
    4.9143   18.9597  -21.0143 C   0  0  0  0  0  0  0  0  0  0  0  0
    3.8982   19.3370  -22.0547 C   0  0  0  0  0  0  0  0  0  0  0  0
   -5.7679   24.5586  -26.7932 O   0  0  0  0  0  0  0  0  0  0  0  0
   -7.8276   23.1858  -21.7773 C   0  0  0  0  0  0  0  0  0  0  0  0
   -8.5768   24.1528  -21.0727 C   0  0  0  0  0  0  0  0  0  0  0  0
   -8.7752   25.3968  -21.5892 C   0  0  0  0  0  0  0  0  0  0  0  0
   -8.2260   25.6817  -22.8170 C   0  0  0  0  0  0  0  0  0  0  0  0
   -7.4853   24.7725  -23.5516 C   0  0  0  0  0  0  0  0  0  0  0  0
   -6.9780   25.1068  -24.7933 C   0  0  0  0  0  0  0  0  0  0  0  0
   -6.2702   24.1992  -25.5338 C   0  0  0  0  0  0  0  0  0  0  0  0
   -6.0725   22.9498  -25.0195 C   0  0  0  0  0  0  0  0  0  0  0  0
   -6.5913   22.6202  -23.7585 C   0  0  0  0  0  0  0  0  0  0  0  0
   -7.3015   23.5089  -22.9935 C   0  0  0  0  0  0  0  0  0  0  0  0
   -5.2187   21.4271  -19.8326 C   0  0  0  0  0  0  0  0  0  0  0  0
   -6.3455   21.6562  -20.4516 N   0  0  0  0  0  0  0  0  0  0  0  0
   -7.5760   21.9035  -21.1263 C   0  0  0  0  0  0  0  0  0  0  0  0
   -8.5129   21.0822  -21.2096 O   0  0  0  0  0  0  0  0  0  0  0  0
   -6.7598   20.3659  -20.2140 H   0  0  0  0  0  0  0  0  0  0  0  0
 35 36  1  0  0  0
 36 37  1  0  0  0
 37 38  2  0  0  0
 37 25  1  0  0  0
 25 26  2  0  0  0
 26 27  1  0  0  0
 27 28  2  0  0  0
 28 29  1  0  0  0
 29 30  2  0  0  0
 30 31  1  0  0  0
 31 24  1  0  0  0
 24  1  1  0  0  0
  1  2  2  0  0  0
  2  3  1  0  0  0
  3  4  2  0  0  0
  4  5  1  0  0  0
  5  7  1  0  0  0
  7  8  1  0  0  0
  8  9  2  0  0  0
  8 11  1  0  0  0
 11 12  2  0  0  0
 12 13  1  0  0  0
 13 14  2  0  0  0
 14 15  1  0  0  0
 15 16  2  0  0  0
 14 17  1  0  0  0
 17 18  1  0  0  0
 18 19  1  0  0  0
 19 20  1  0  0  0
 20 21  1  0  0  0
 20 22  1  0  0  0
 22 23  1  0  0  0
  5  6  2  0  0  0
 31 32  2  0  0  0
 32 33  1  0  0  0
 33 34  2  0  0  0
 34 25  1  0  0  0
 34 29  1  0  0  0
  6  1  1  0  0  0
 16 11  1  0  0  0
 23 17  1  0  0  0
 36 39  1  0  0  0
  7 10  1  0  0  0
M  END
> <minimizedAffinity>
-9.55642

> <CNNscore>
0.2236252427

> <CNNaffinity>
6.8094291687

> <CNN_VS>
1.5227602720

> <CNNaffinity_variance>
0.0593818650

$$$$
[H]c1nc(N([H])C(=O)c2c([H])c([H])c(N3C([H])([H])C([H])([H])N(C([H])([H])[H])C([H])([H])C3([H])[H])c([H])c2[H])c([H])c(Oc2c([H])c([H])c3c(C(=O)N([H])C([H])([H])[H])c([H])c([H])c([H])c3c2[H])c1[H]


 39 43  0  0  0  0  0  0  0  0999 V2000
   -0.4784   21.8265  -24.6461 C   0  0  0  0  0  0  0  0  0  0  0  0
    0.7139   21.6283  -23.9966 C   0  0  0  0  0  0  0  0  0  0  0  0
    0.7195   21.3289  -22.6543 C   0  0  0  0  0  0  0  0  0  0  0  0
   -0.4455   21.2343  -21.9957 N   0  0  0  0  0  0  0  0  0  0  0  0
   -1.6673   21.4234  -22.5986 C   0  0  0  0  0  0  0  0  0  0  0  0
   -1.6586   21.7168  -23.9159 C   0  0  0  0  0  0  0  0  0  0  0  0
   -2.7899   21.2560  -21.8037 N   0  0  0  0  0  0  0  0  0  0  0  0
   -3.3105   22.2612  -20.9151 C   0  0  0  0  0  0  0  0  0  0  0  0
   -2.7857   23.3439  -20.7506 O   0  0  0  0  0  0  0  0  0  0  0  0
   -3.3303   20.3588  -21.8637 H   0  0  0  0  0  0  0  0  0  0  0  0
   -4.5633   21.8228  -20.2177 C   0  0  0  0  0  0  0  0  0  0  0  0
   -5.7482   21.8249  -20.8899 C   0  0  0  0  0  0  0  0  0  0  0  0
   -6.9042   21.3329  -20.2877 C   0  0  0  0  0  0  0  0  0  0  0  0
   -6.9063   20.8324  -19.0145 C   0  0  0  0  0  0  0  0  0  0  0  0
   -5.6948   20.8396  -18.3367 C   0  0  0  0  0  0  0  0  0  0  0  0
   -4.5220   21.3342  -18.9364 C   0  0  0  0  0  0  0  0  0  0  0  0
   -8.0997   20.2670  -18.4156 N   0  0  0  0  0  0  0  0  0  0  0  0
   -8.0412   18.9117  -17.9127 C   0  0  0  0  0  0  0  0  0  0  0  0
   -8.7209   18.7115  -16.6018 C   0  0  0  0  0  0  0  0  0  0  0  0
   -9.6795   19.7111  -16.2768 N   0  0  0  0  0  0  0  0  0  0  0  0
   -9.2887   20.5812  -15.2156 C   0  0  0  0  0  0  0  0  0  0  0  0
  -10.2909   20.3306  -17.4056 C   0  0  0  0  0  0  0  0  0  0  0  0
   -9.3146   21.0098  -18.3238 C   0  0  0  0  0  0  0  0  0  0  0  0
   -0.5444   22.1342  -26.0094 O   0  0  0  0  0  0  0  0  0  0  0  0
   -5.3588   24.3233  -27.8301 C   0  0  0  0  0  0  0  0  0  0  0  0
   -5.8713   23.8794  -29.0683 C   0  0  0  0  0  0  0  0  0  0  0  0
   -5.2005   22.9580  -29.8133 C   0  0  0  0  0  0  0  0  0  0  0  0
   -4.0115   22.4724  -29.3228 C   0  0  0  0  0  0  0  0  0  0  0  0
   -3.4640   22.8703  -28.1158 C   0  0  0  0  0  0  0  0  0  0  0  0
   -2.2765   22.3287  -27.6606 C   0  0  0  0  0  0  0  0  0  0  0  0
   -1.7487   22.6996  -26.4535 C   0  0  0  0  0  0  0  0  0  0  0  0
   -2.4211   23.6212  -25.7030 C   0  0  0  0  0  0  0  0  0  0  0  0
   -3.6256   24.1650  -26.1735 C   0  0  0  0  0  0  0  0  0  0  0  0
   -4.1764   23.8146  -27.3791 C   0  0  0  0  0  0  0  0  0  0  0  0
   -7.8155   24.7816  -25.1033 C   0  0  0  0  0  0  0  0  0  0  0  0
   -6.9859   25.0659  -26.0709 N   0  0  0  0  0  0  0  0  0  0  0  0
   -6.0812   25.3789  -27.1264 C   0  0  0  0  0  0  0  0  0  0  0  0
   -5.8300   26.5368  -27.5207 O   0  0  0  0  0  0  0  0  0  0  0  0
   -7.3114   26.3998  -25.9831 H   0  0  0  0  0  0  0  0  0  0  0  0
 35 36  1  0  0  0
 36 37  1  0  0  0
 37 38  2  0  0  0
 37 25  1  0  0  0
 25 26  2  0  0  0
 26 27  1  0  0  0
 27 28  2  0  0  0
 28 29  1  0  0  0
 29 30  2  0  0  0
 30 31  1  0  0  0
 31 24  1  0  0  0
 24  1  1  0  0  0
  1  2  2  0  0  0
  2  3  1  0  0  0
  3  4  2  0  0  0
  4  5  1  0  0  0
  5  7  1  0  0  0
  7  8  1  0  0  0
  8  9  2  0  0  0
  8 11  1  0  0  0
 11 12  2  0  0  0
 12 13  1  0  0  0
 13 14  2  0  0  0
 14 15  1  0  0  0
 15 16  2  0  0  0
 14 17  1  0  0  0
 17 18  1  0  0  0
 18 19  1  0  0  0
 19 20  1  0  0  0
 20 21  1  0  0  0
 20 22  1  0  0  0
 22 23  1  0  0  0
  5  6  2  0  0  0
 31 32  2  0  0  0
 32 33  1  0  0  0
 33 34  2  0  0  0
 34 25  1  0  0  0
 34 29  1  0  0  0
  6  1  1  0  0  0
 16 11  1  0  0  0
 23 17  1  0  0  0
 36 39  1  0  0  0
  7 10  1  0  0  0
M  END
> <minimizedAffinity>
-9.12903

> <CNNscore>
0.1731370240

> <CNNaffinity>
6.6108231544

> <CNN_VS>
1.1445782185

> <CNNaffinity_variance>
0.0846114531

$$$$
[H]c1nc(N([H])C(=O)c2c([H])c([H])c(N3C([H])([H])C([H])([H])N(C([H])([H])[H])C([H])([H])C3([H])[H])c([H])c2[H])c([H])c(Oc2c([H])c([H])c3c(C(=O)N([H])C([H])([H])[H])c([H])c([H])c([H])c3c2[H])c1[H]


 39 43  0  0  0  0  0  0  0  0999 V2000
   -0.6456   22.6887  -25.5579 C   0  0  0  0  0  0  0  0  0  0  0  0
   -0.7362   22.1355  -26.8103 C   0  0  0  0  0  0  0  0  0  0  0  0
   -1.9642   22.0182  -27.4184 C   0  0  0  0  0  0  0  0  0  0  0  0
   -3.0610   22.4480  -26.7764 N   0  0  0  0  0  0  0  0  0  0  0  0
   -3.0256   23.0095  -25.5212 C   0  0  0  0  0  0  0  0  0  0  0  0
   -1.8144   23.1186  -24.9356 C   0  0  0  0  0  0  0  0  0  0  0  0
   -4.2318   23.4443  -24.9959 N   0  0  0  0  0  0  0  0  0  0  0  0
   -5.2118   22.5795  -24.3936 C   0  0  0  0  0  0  0  0  0  0  0  0
   -5.0865   21.3735  -24.3254 O   0  0  0  0  0  0  0  0  0  0  0  0
   -4.4498   24.4705  -24.9958 H   0  0  0  0  0  0  0  0  0  0  0  0
   -6.3982   23.3298  -23.8666 C   0  0  0  0  0  0  0  0  0  0  0  0
   -6.7911   23.1531  -22.5742 C   0  0  0  0  0  0  0  0  0  0  0  0
   -7.8318   23.9107  -22.0412 C   0  0  0  0  0  0  0  0  0  0  0  0
   -8.4985   24.8523  -22.7763 C   0  0  0  0  0  0  0  0  0  0  0  0
   -8.0937   25.0207  -24.0935 C   0  0  0  0  0  0  0  0  0  0  0  0
   -7.0436   24.2606  -24.6407 C   0  0  0  0  0  0  0  0  0  0  0  0
   -9.5402   25.6789  -22.1983 N   0  0  0  0  0  0  0  0  0  0  0  0
  -10.8545   25.6520  -22.8026 C   0  0  0  0  0  0  0  0  0  0  0  0
  -11.9802   25.6190  -21.8267 C   0  0  0  0  0  0  0  0  0  0  0  0
  -11.6409   26.0692  -20.5207 N   0  0  0  0  0  0  0  0  0  0  0  0
  -11.5999   25.0398  -19.5334 C   0  0  0  0  0  0  0  0  0  0  0  0
  -10.5800   27.0204  -20.4823 C   0  0  0  0  0  0  0  0  0  0  0  0
   -9.2925   26.5125  -21.0670 C   0  0  0  0  0  0  0  0  0  0  0  0
    0.5760   22.8323  -24.8912 O   0  0  0  0  0  0  0  0  0  0  0  0
    1.2936   19.4662  -20.4820 C   0  0  0  0  0  0  0  0  0  0  0  0
    0.2720   19.4082  -19.5096 C   0  0  0  0  0  0  0  0  0  0  0  0
   -0.8510   20.1688  -19.6283 C   0  0  0  0  0  0  0  0  0  0  0  0
   -0.9604   20.9927  -20.7236 C   0  0  0  0  0  0  0  0  0  0  0  0
    0.0082   21.0877  -21.7073 C   0  0  0  0  0  0  0  0  0  0  0  0
   -0.1673   21.9155  -22.8004 C   0  0  0  0  0  0  0  0  0  0  0  0
    0.7766   21.9885  -23.7888 C   0  0  0  0  0  0  0  0  0  0  0  0
    1.9023   21.2242  -23.6736 C   0  0  0  0  0  0  0  0  0  0  0  0
    2.0712   20.3873  -22.5606 C   0  0  0  0  0  0  0  0  0  0  0  0
    1.1445   20.2957  -21.5544 C   0  0  0  0  0  0  0  0  0  0  0  0
    2.8350   16.2190  -21.3542 C   0  0  0  0  0  0  0  0  0  0  0  0
    2.6785   17.4027  -20.8254 N   0  0  0  0  0  0  0  0  0  0  0  0
    2.5102   18.6941  -20.2471 C   0  0  0  0  0  0  0  0  0  0  0  0
    3.3574   19.2601  -19.5251 O   0  0  0  0  0  0  0  0  0  0  0  0
    3.8730   17.2811  -20.1537 H   0  0  0  0  0  0  0  0  0  0  0  0
 35 36  1  0  0  0
 36 37  1  0  0  0
 37 38  2  0  0  0
 37 25  1  0  0  0
 25 26  2  0  0  0
 26 27  1  0  0  0
 27 28  2  0  0  0
 28 29  1  0  0  0
 29 30  2  0  0  0
 30 31  1  0  0  0
 31 24  1  0  0  0
 24  1  1  0  0  0
  1  2  2  0  0  0
  2  3  1  0  0  0
  3  4  2  0  0  0
  4  5  1  0  0  0
  5  7  1  0  0  0
  7  8  1  0  0  0
  8  9  2  0  0  0
  8 11  1  0  0  0
 11 12  2  0  0  0
 12 13  1  0  0  0
 13 14  2  0  0  0
 14 15  1  0  0  0
 15 16  2  0  0  0
 14 17  1  0  0  0
 17 18  1  0  0  0
 18 19  1  0  0  0
 19 20  1  0  0  0
 20 21  1  0  0  0
 20 22  1  0  0  0
 22 23  1  0  0  0
  5  6  2  0  0  0
 31 32  2  0  0  0
 32 33  1  0  0  0
 33 34  2  0  0  0
 34 25  1  0  0  0
 34 29  1  0  0  0
  6  1  1  0  0  0
 16 11  1  0  0  0
 23 17  1  0  0  0
 36 39  1  0  0  0
  7 10  1  0  0  0
M  END
> <minimizedAffinity>
-7.94814

> <CNNscore>
0.1539010257

> <CNNaffinity>
6.2156019211

> <CNN_VS>
0.9565874934

> <CNNaffinity_variance>
0.0770636350

$$$$
[H]c1nc(N([H])C(=O)c2c([H])c([H])c(N3C([H])([H])C([H])([H])N(C([H])([H])[H])C([H])([H])C3([H])[H])c([H])c2[H])c([H])c(Oc2c([H])c([H])c3c(C(=O)N([H])C([H])([H])[H])c([H])c([H])c([H])c3c2[H])c1[H]


 39 43  0  0  0  0  0  0  0  0999 V2000
   -6.8380   22.6161  -21.2958 C   0  0  0  0  0  0  0  0  0  0  0  0
   -8.0637   23.2038  -21.4823 C   0  0  0  0  0  0  0  0  0  0  0  0
   -8.7416   23.7272  -20.4062 C   0  0  0  0  0  0  0  0  0  0  0  0
   -8.1929   23.6559  -19.1840 N   0  0  0  0  0  0  0  0  0  0  0  0
   -6.9682   23.0780  -18.9425 C   0  0  0  0  0  0  0  0  0  0  0  0
   -6.3137   22.5681  -20.0070 C   0  0  0  0  0  0  0  0  0  0  0  0
   -6.5078   23.1103  -17.6360 N   0  0  0  0  0  0  0  0  0  0  0  0
   -5.8456   24.2395  -17.0382 C   0  0  0  0  0  0  0  0  0  0  0  0
   -5.5928   25.2623  -17.6420 O   0  0  0  0  0  0  0  0  0  0  0  0
   -6.6732   22.2815  -17.0144 H   0  0  0  0  0  0  0  0  0  0  0  0
   -5.5022   24.0110  -15.5966 C   0  0  0  0  0  0  0  0  0  0  0  0
   -6.2262   24.6292  -14.6222 C   0  0  0  0  0  0  0  0  0  0  0  0
   -5.9820   24.3559  -13.2781 C   0  0  0  0  0  0  0  0  0  0  0  0
   -5.0201   23.4693  -12.8777 C   0  0  0  0  0  0  0  0  0  0  0  0
   -4.2846   22.8489  -13.8783 C   0  0  0  0  0  0  0  0  0  0  0  0
   -4.5241   23.1181  -15.2385 C   0  0  0  0  0  0  0  0  0  0  0  0
   -4.8116   23.1447  -11.4800 N   0  0  0  0  0  0  0  0  0  0  0  0
   -3.9406   23.9956  -10.6986 C   0  0  0  0  0  0  0  0  0  0  0  0
   -4.4440   24.3007   -9.3296 C   0  0  0  0  0  0  0  0  0  0  0  0
   -5.4189   23.3860   -8.8432 N   0  0  0  0  0  0  0  0  0  0  0  0
   -6.7383   23.9218   -8.7529 C   0  0  0  0  0  0  0  0  0  0  0  0
   -5.3099   22.0690   -9.3776 C   0  0  0  0  0  0  0  0  0  0  0  0
   -5.4338   22.0126  -10.8739 C   0  0  0  0  0  0  0  0  0  0  0  0
   -6.1043   22.0666  -22.3529 O   0  0  0  0  0  0  0  0  0  0  0  0
   -5.3276   25.4059  -26.7724 C   0  0  0  0  0  0  0  0  0  0  0  0
   -4.6737   26.6410  -26.5727 C   0  0  0  0  0  0  0  0  0  0  0  0
   -4.2617   27.0221  -25.3322 C   0  0  0  0  0  0  0  0  0  0  0  0
   -4.4999   26.1678  -24.2816 C   0  0  0  0  0  0  0  0  0  0  0  0
   -5.1340   24.9456  -24.4200 C   0  0  0  0  0  0  0  0  0  0  0  0
   -5.3242   24.1159  -23.3308 C   0  0  0  0  0  0  0  0  0  0  0  0
   -5.9250   22.8942  -23.4711 C   0  0  0  0  0  0  0  0  0  0  0  0
   -6.3362   22.5083  -24.7147 C   0  0  0  0  0  0  0  0  0  0  0  0
   -6.1386   23.3573  -25.8138 C   0  0  0  0  0  0  0  0  0  0  0  0
   -5.5426   24.5870  -25.7031 C   0  0  0  0  0  0  0  0  0  0  0  0
   -4.9737   22.8752  -29.4465 C   0  0  0  0  0  0  0  0  0  0  0  0
   -5.3796   23.9387  -28.8067 N   0  0  0  0  0  0  0  0  0  0  0  0
   -5.8242   25.1000  -28.1107 C   0  0  0  0  0  0  0  0  0  0  0  0
   -6.6505   25.9203  -28.5619 O   0  0  0  0  0  0  0  0  0  0  0  0
   -6.1171   24.3366  -29.8979 H   0  0  0  0  0  0  0  0  0  0  0  0
 35 36  1  0  0  0
 36 37  1  0  0  0
 37 38  2  0  0  0
 37 25  1  0  0  0
 25 26  2  0  0  0
 26 27  1  0  0  0
 27 28  2  0  0  0
 28 29  1  0  0  0
 29 30  2  0  0  0
 30 31  1  0  0  0
 31 24  1  0  0  0
 24  1  1  0  0  0
  1  2  2  0  0  0
  2  3  1  0  0  0
  3  4  2  0  0  0
  4  5  1  0  0  0
  5  7  1  0  0  0
  7  8  1  0  0  0
  8  9  2  0  0  0
  8 11  1  0  0  0
 11 12  2  0  0  0
 12 13  1  0  0  0
 13 14  2  0  0  0
 14 15  1  0  0  0
 15 16  2  0  0  0
 14 17  1  0  0  0
 17 18  1  0  0  0
 18 19  1  0  0  0
 19 20  1  0  0  0
 20 21  1  0  0  0
 20 22  1  0  0  0
 22 23  1  0  0  0
  5  6  2  0  0  0
 31 32  2  0  0  0
 32 33  1  0  0  0
 33 34  2  0  0  0
 34 25  1  0  0  0
 34 29  1  0  0  0
  6  1  1  0  0  0
 16 11  1  0  0  0
 23 17  1  0  0  0
 36 39  1  0  0  0
  7 10  1  0  0  0
M  END
> <minimizedAffinity>
-7.95441

> <CNNscore>
0.1518195421

> <CNNaffinity>
5.6378965378

> <CNN_VS>
0.8559428453

> <CNNaffinity_variance>
0.0760917217

$$$$
[H]c1nc(N([H])[H])c(-c2nn(-c3c([H])c(OC([H])([H])[H])c([H])c(OC([H])([H])[H])c3[H])c(=O)c([H])c2[H])nc1-c1c([H])nn(C([H])([H])[C@]2([H])OC([H])([H])C(C([H])([H])[H])(C([H])([H])[H])N([H])C2([H])[H])c1[H]


 41 45  0  0  0  0  0  0  0  0999 V2000
   -2.2098   22.7550  -26.4997 C   0  0  0  0  0  0  0  0  0  0  0  0
   -1.7116   22.3500  -25.3114 N   0  0  0  0  0  0  0  0  0  0  0  0
   -0.4080   22.0623  -25.1740 C   0  0  0  0  0  0  0  0  0  0  0  0
    0.4285   22.1839  -26.2643 C   0  0  0  0  0  0  0  0  0  0  0  0
   -0.0516   22.5853  -27.4524 N   0  0  0  0  0  0  0  0  0  0  0  0
   -1.3484   22.8642  -27.5614 C   0  0  0  0  0  0  0  0  0  0  0  0
   -1.8748   23.2902  -28.8116 N   0  0  0  0  0  0  0  0  0  0  0  0
   -1.8842   24.3288  -29.0136 H   0  0  0  0  0  0  0  0  0  0  0  0
   -2.2368   22.5950  -29.4984 H   0  0  0  0  0  0  0  0  0  0  0  0
   -5.6871   23.4745  -25.5530 N   0  0  0  0  0  0  0  0  0  0  0  0
   -4.3725   23.1897  -25.5534 N   0  0  0  0  0  0  0  0  0  0  0  0
   -3.6412   23.0699  -26.6442 C   0  0  0  0  0  0  0  0  0  0  0  0
   -4.2402   23.2432  -27.8688 C   0  0  0  0  0  0  0  0  0  0  0  0
   -5.6067   23.5407  -27.9071 C   0  0  0  0  0  0  0  0  0  0  0  0
   -6.3035   23.6497  -26.7302 C   0  0  0  0  0  0  0  0  0  0  0  0
   -7.5319   23.9153  -26.7138 O   0  0  0  0  0  0  0  0  0  0  0  0
   -7.2659   22.5689  -22.3051 C   0  0  0  0  0  0  0  0  0  0  0  0
   -7.5762   23.8164  -21.8243 C   0  0  0  0  0  0  0  0  0  0  0  0
   -7.2674   24.9543  -22.5696 C   0  0  0  0  0  0  0  0  0  0  0  0
   -6.6391   24.8147  -23.8105 C   0  0  0  0  0  0  0  0  0  0  0  0
   -6.3275   23.5662  -24.2932 C   0  0  0  0  0  0  0  0  0  0  0  0
   -6.6509   22.4713  -23.5239 C   0  0  0  0  0  0  0  0  0  0  0  0
   -8.1139   21.4690  -20.2761 C   0  0  0  0  0  0  0  0  0  0  0  0
   -7.5750   21.4473  -21.5613 O   0  0  0  0  0  0  0  0  0  0  0  0
   -7.6075   26.1616  -22.0237 O   0  0  0  0  0  0  0  0  0  0  0  0
   -8.1246   26.3366  -20.7127 C   0  0  0  0  0  0  0  0  0  0  0  0
    0.1772   21.6232  -23.9169 C   0  0  0  0  0  0  0  0  0  0  0  0
   -0.4758   21.2900  -22.7520 C   0  0  0  0  0  0  0  0  0  0  0  0
    0.4474   20.9413  -21.8407 N   0  0  0  0  0  0  0  0  0  0  0  0
    1.6737   21.0281  -22.3464 N   0  0  0  0  0  0  0  0  0  0  0  0
    1.5274   21.4435  -23.6149 C   0  0  0  0  0  0  0  0  0  0  0  0
    2.9211   20.7310  -21.6571 C   0  0  0  0  0  0  0  0  0  0  0  0
    3.1989   19.2463  -21.7890 C   0  0  0  0  0  0  0  0  0  0  0  0
    4.6696   18.9745  -21.9225 C   0  0  0  0  0  0  0  0  0  0  0  0
    4.8373   17.6250  -22.4228 N   0  0  0  0  0  0  0  0  0  0  0  0
    3.9719   16.7409  -21.7059 C   0  0  0  0  0  0  0  0  0  0  0  0
    4.7949   15.5314  -21.2503 C   0  0  0  0  0  0  0  0  0  0  0  0
    2.9105   16.2226  -22.6440 C   0  0  0  0  0  0  0  0  0  0  0  0
    3.3827   17.3577  -20.4630 C   0  0  0  0  0  0  0  0  0  0  0  0
    2.7137   18.5346  -20.7070 O   0  0  0  0  0  0  0  0  0  0  0  0
    4.6251   17.6542  -23.4432 H   0  0  0  0  0  0  0  0  0  0  0  0
 23 24  1  0  0  0
 24 17  1  0  0  0
 17 18  2  0  0  0
 18 19  1  0  0  0
 19 25  1  0  0  0
 25 26  1  0  0  0
 19 20  2  0  0  0
 20 21  1  0  0  0
 21 22  2  0  0  0
 21 10  1  0  0  0
 10 11  1  0  0  0
 11 12  2  0  0  0
 12 13  1  0  0  0
 13 14  2  0  0  0
 14 15  1  0  0  0
 15 16  2  0  0  0
 12  1  1  0  0  0
  1  2  2  0  0  0
  2  3  1  0  0  0
  3  4  2  0  0  0
  4  5  1  0  0  0
  5  6  2  0  0  0
  6  7  1  0  0  0
  3 27  1  0  0  0
 27 28  1  0  0  0
 28 29  2  0  0  0
 29 30  1  0  0  0
 30 32  1  0  0  0
 32 33  1  0  0  0
 33 34  1  0  0  0
 34 35  1  0  0  0
 35 36  1  0  0  0
 36 37  1  0  0  0
 36 38  1  0  0  0
 36 39  1  0  0  0
 39 40  1  0  0  0
 30 31  1  0  0  0
 22 17  1  0  0  0
 15 10  1  0  0  0
  6  1  1  0  0  0
 31 27  2  0  0  0
 40 33  1  0  0  0
  7  8  1  0  0  0
  7  9  1  0  0  0
 35 41  1  0  0  0
M  END
> <minimizedAffinity>
-9.34491

> <CNNscore>
0.8226975203

> <CNNaffinity>
7.5916290283

> <CNN_VS>
6.2456145287

> <CNNaffinity_variance>
0.1176639199

$$$$
[H]c1nc(N([H])[H])c(-c2nn(-c3c([H])c(OC([H])([H])[H])c([H])c(OC([H])([H])[H])c3[H])c(=O)c([H])c2[H])nc1-c1c([H])nn(C([H])([H])[C@]2([H])OC([H])([H])C(C([H])([H])[H])(C([H])([H])[H])N([H])C2([H])[H])c1[H]


 41 45  0  0  0  0  0  0  0  0999 V2000
   -2.2122   22.7612  -26.5095 C   0  0  0  0  0  0  0  0  0  0  0  0
   -1.7178   22.3531  -25.3207 N   0  0  0  0  0  0  0  0  0  0  0  0
   -0.4160   22.0587  -25.1814 C   0  0  0  0  0  0  0  0  0  0  0  0
    0.4228   22.1765  -26.2704 C   0  0  0  0  0  0  0  0  0  0  0  0
   -0.0534   22.5810  -27.4590 N   0  0  0  0  0  0  0  0  0  0  0  0
   -1.3486   22.8666  -27.5699 C   0  0  0  0  0  0  0  0  0  0  0  0
   -1.8708   23.2959  -28.8206 N   0  0  0  0  0  0  0  0  0  0  0  0
   -1.8746   24.3347  -29.0221 H   0  0  0  0  0  0  0  0  0  0  0  0
   -2.2354   22.6030  -29.5084 H   0  0  0  0  0  0  0  0  0  0  0  0
   -5.6806   23.5275  -25.5671 N   0  0  0  0  0  0  0  0  0  0  0  0
   -4.3682   23.2330  -25.5657 N   0  0  0  0  0  0  0  0  0  0  0  0
   -3.6417   23.0835  -26.6561 C   0  0  0  0  0  0  0  0  0  0  0  0
   -4.2438   23.2340  -27.8822 C   0  0  0  0  0  0  0  0  0  0  0  0
   -5.6082   23.5408  -27.9224 C   0  0  0  0  0  0  0  0  0  0  0  0
   -6.2999   23.6812  -26.7458 C   0  0  0  0  0  0  0  0  0  0  0  0
   -7.5263   23.9562  -26.7311 O   0  0  0  0  0  0  0  0  0  0  0  0
   -7.2974   24.9713  -22.5400 C   0  0  0  0  0  0  0  0  0  0  0  0
   -7.5681   23.8260  -21.8339 C   0  0  0  0  0  0  0  0  0  0  0  0
   -7.2172   22.5799  -22.3532 C   0  0  0  0  0  0  0  0  0  0  0  0
   -6.5874   22.5061  -23.5990 C   0  0  0  0  0  0  0  0  0  0  0  0
   -6.3157   23.6520  -24.3075 C   0  0  0  0  0  0  0  0  0  0  0  0
   -6.6797   24.8599  -23.7563 C   0  0  0  0  0  0  0  0  0  0  0  0
   -8.2562   26.3959  -20.7803 C   0  0  0  0  0  0  0  0  0  0  0  0
   -7.6478   26.2012  -22.0191 O   0  0  0  0  0  0  0  0  0  0  0  0
   -7.5203   21.4853  -21.5910 O   0  0  0  0  0  0  0  0  0  0  0  0
   -8.3469   21.5105  -20.4365 C   0  0  0  0  0  0  0  0  0  0  0  0
    0.1650   21.6159  -23.9237 C   0  0  0  0  0  0  0  0  0  0  0  0
   -0.4907   21.2968  -22.7563 C   0  0  0  0  0  0  0  0  0  0  0  0
    0.4290   20.9382  -21.8453 N   0  0  0  0  0  0  0  0  0  0  0  0
    1.6556   21.0050  -22.3535 N   0  0  0  0  0  0  0  0  0  0  0  0
    1.5130   21.4176  -23.6234 C   0  0  0  0  0  0  0  0  0  0  0  0
    2.8997   20.6923  -21.6652 C   0  0  0  0  0  0  0  0  0  0  0  0
    3.1432   19.1995  -21.7713 C   0  0  0  0  0  0  0  0  0  0  0  0
    4.5969   18.8968  -21.9943 C   0  0  0  0  0  0  0  0  0  0  0  0
    4.7081   17.5307  -22.4644 N   0  0  0  0  0  0  0  0  0  0  0  0
    3.8781   16.6836  -21.6656 C   0  0  0  0  0  0  0  0  0  0  0  0
    4.7095   15.4724  -21.2301 C   0  0  0  0  0  0  0  0  0  0  0  0
    2.7477   16.1587  -22.5152 C   0  0  0  0  0  0  0  0  0  0  0  0
    3.3840   17.3464  -20.4051 C   0  0  0  0  0  0  0  0  0  0  0  0
    2.7198   18.5281  -20.6387 O   0  0  0  0  0  0  0  0  0  0  0  0
    4.4285   17.5347  -23.4688 H   0  0  0  0  0  0  0  0  0  0  0  0
 23 24  1  0  0  0
 24 17  1  0  0  0
 17 18  2  0  0  0
 18 19  1  0  0  0
 19 25  1  0  0  0
 25 26  1  0  0  0
 19 20  2  0  0  0
 20 21  1  0  0  0
 21 22  2  0  0  0
 21 10  1  0  0  0
 10 11  1  0  0  0
 11 12  2  0  0  0
 12 13  1  0  0  0
 13 14  2  0  0  0
 14 15  1  0  0  0
 15 16  2  0  0  0
 12  1  1  0  0  0
  1  2  2  0  0  0
  2  3  1  0  0  0
  3  4  2  0  0  0
  4  5  1  0  0  0
  5  6  2  0  0  0
  6  7  1  0  0  0
  3 27  1  0  0  0
 27 28  1  0  0  0
 28 29  2  0  0  0
 29 30  1  0  0  0
 30 32  1  0  0  0
 32 33  1  0  0  0
 33 34  1  0  0  0
 34 35  1  0  0  0
 35 36  1  0  0  0
 36 37  1  0  0  0
 36 38  1  0  0  0
 36 39  1  0  0  0
 39 40  1  0  0  0
 30 31  1  0  0  0
 22 17  1  0  0  0
 15 10  1  0  0  0
  6  1  1  0  0  0
 31 27  2  0  0  0
 40 33  1  0  0  0
  7  8  1  0  0  0
  7  9  1  0  0  0
 35 41  1  0  0  0
M  END
> <minimizedAffinity>
-9.41252

> <CNNscore>
0.8129920363

> <CNNaffinity>
7.5753569603

> <CNN_VS>
6.1587047577

> <CNNaffinity_variance>
0.1179134101

$$$$
[H]c1nc(N([H])[H])c(-c2nn(-c3c([H])c(OC([H])([H])[H])c([H])c(OC([H])([H])[H])c3[H])c(=O)c([H])c2[H])nc1-c1c([H])nn(C([H])([H])[C@]2([H])OC([H])([H])C(C([H])([H])[H])(C([H])([H])[H])N([H])C2([H])[H])c1[H]


 41 45  0  0  0  0  0  0  0  0999 V2000
   -2.2744   22.7824  -26.4993 C   0  0  0  0  0  0  0  0  0  0  0  0
   -1.7665   22.3716  -25.3171 N   0  0  0  0  0  0  0  0  0  0  0  0
   -0.4637   22.0742  -25.1941 C   0  0  0  0  0  0  0  0  0  0  0  0
    0.3620   22.1918  -26.2930 C   0  0  0  0  0  0  0  0  0  0  0  0
   -0.1278   22.5990  -27.4753 N   0  0  0  0  0  0  0  0  0  0  0  0
   -1.4236   22.8875  -27.5699 C   0  0  0  0  0  0  0  0  0  0  0  0
   -1.9600   23.3197  -28.8137 N   0  0  0  0  0  0  0  0  0  0  0  0
   -1.9641   24.3588  -29.0136 H   0  0  0  0  0  0  0  0  0  0  0  0
   -2.3344   22.6285  -29.4979 H   0  0  0  0  0  0  0  0  0  0  0  0
   -5.7383   23.5153  -25.5148 N   0  0  0  0  0  0  0  0  0  0  0  0
   -4.4257   23.2221  -25.5296 N   0  0  0  0  0  0  0  0  0  0  0  0
   -3.7049   23.1081  -26.6280 C   0  0  0  0  0  0  0  0  0  0  0  0
   -4.3136   23.2970  -27.8455 C   0  0  0  0  0  0  0  0  0  0  0  0
   -5.6784   23.6037  -27.8688 C   0  0  0  0  0  0  0  0  0  0  0  0
   -6.3640   23.7059  -26.6846 C   0  0  0  0  0  0  0  0  0  0  0  0
   -7.5904   23.9793  -26.6547 O   0  0  0  0  0  0  0  0  0  0  0  0
   -7.3056   22.5883  -22.2673 C   0  0  0  0  0  0  0  0  0  0  0  0
   -7.5913   23.8335  -21.7659 C   0  0  0  0  0  0  0  0  0  0  0  0
   -7.2698   24.9770  -22.4970 C   0  0  0  0  0  0  0  0  0  0  0  0
   -6.6538   24.8453  -23.7450 C   0  0  0  0  0  0  0  0  0  0  0  0
   -6.3669   23.5991  -24.2485 C   0  0  0  0  0  0  0  0  0  0  0  0
   -6.7022   22.4985  -23.4925 C   0  0  0  0  0  0  0  0  0  0  0  0
   -8.2569   21.4716  -20.2940 C   0  0  0  0  0  0  0  0  0  0  0  0
   -7.6273   21.4610  -21.5374 O   0  0  0  0  0  0  0  0  0  0  0  0
   -7.5854   26.1815  -21.9308 O   0  0  0  0  0  0  0  0  0  0  0  0
   -8.2590   26.3375  -20.6903 C   0  0  0  0  0  0  0  0  0  0  0  0
    0.1316   21.6284  -23.9442 C   0  0  0  0  0  0  0  0  0  0  0  0
   -0.5004   21.3927  -22.7444 C   0  0  0  0  0  0  0  0  0  0  0  0
    0.4254   20.9959  -21.8556 N   0  0  0  0  0  0  0  0  0  0  0  0
    1.6334   20.9586  -22.4091 N   0  0  0  0  0  0  0  0  0  0  0  0
    1.4725   21.3422  -23.6859 C   0  0  0  0  0  0  0  0  0  0  0  0
    2.8773   20.5775  -21.7559 C   0  0  0  0  0  0  0  0  0  0  0  0
    2.9712   21.3182  -20.4362 C   0  0  0  0  0  0  0  0  0  0  0  0
    2.8860   20.3742  -19.2717 C   0  0  0  0  0  0  0  0  0  0  0  0
    2.5950   21.1480  -18.0816 N   0  0  0  0  0  0  0  0  0  0  0  0
    3.4331   22.3060  -18.0504 C   0  0  0  0  0  0  0  0  0  0  0  0
    4.0688   22.3989  -16.6593 C   0  0  0  0  0  0  0  0  0  0  0  0
    2.5793   23.5368  -18.2270 C   0  0  0  0  0  0  0  0  0  0  0  0
    4.5667   22.2511  -19.0425 C   0  0  0  0  0  0  0  0  0  0  0  0
    4.1460   22.0410  -20.3351 O   0  0  0  0  0  0  0  0  0  0  0  0
    1.5810   21.3875  -18.1194 H   0  0  0  0  0  0  0  0  0  0  0  0
 23 24  1  0  0  0
 24 17  1  0  0  0
 17 18  2  0  0  0
 18 19  1  0  0  0
 19 25  1  0  0  0
 25 26  1  0  0  0
 19 20  2  0  0  0
 20 21  1  0  0  0
 21 22  2  0  0  0
 21 10  1  0  0  0
 10 11  1  0  0  0
 11 12  2  0  0  0
 12 13  1  0  0  0
 13 14  2  0  0  0
 14 15  1  0  0  0
 15 16  2  0  0  0
 12  1  1  0  0  0
  1  2  2  0  0  0
  2  3  1  0  0  0
  3  4  2  0  0  0
  4  5  1  0  0  0
  5  6  2  0  0  0
  6  7  1  0  0  0
  3 27  1  0  0  0
 27 28  1  0  0  0
 28 29  2  0  0  0
 29 30  1  0  0  0
 30 32  1  0  0  0
 32 33  1  0  0  0
 33 34  1  0  0  0
 34 35  1  0  0  0
 35 36  1  0  0  0
 36 37  1  0  0  0
 36 38  1  0  0  0
 36 39  1  0  0  0
 39 40  1  0  0  0
 30 31  1  0  0  0
 22 17  1  0  0  0
 15 10  1  0  0  0
  6  1  1  0  0  0
 31 27  2  0  0  0
 40 33  1  0  0  0
  7  8  1  0  0  0
  7  9  1  0  0  0
 35 41  1  0  0  0
M  END
> <minimizedAffinity>
-9.43779

> <CNNscore>
0.7083847523

> <CNNaffinity>
7.4509749413

> <CNN_VS>
5.2781572342

> <CNNaffinity_variance>
0.0783812925

$$$$
[H]c1nc(N([H])[H])c(-c2nn(-c3c([H])c(OC([H])([H])[H])c([H])c(OC([H])([H])[H])c3[H])c(=O)c([H])c2[H])nc1-c1c([H])nn(C([H])([H])[C@]2([H])OC([H])([H])C(C([H])([H])[H])(C([H])([H])[H])N([H])C2([H])[H])c1[H]


 41 45  0  0  0  0  0  0  0  0999 V2000
   -0.6057   22.0033  -24.4185 C   0  0  0  0  0  0  0  0  0  0  0  0
   -1.7604   22.4815  -24.9305 N   0  0  0  0  0  0  0  0  0  0  0  0
   -1.8489   22.8254  -26.2246 C   0  0  0  0  0  0  0  0  0  0  0  0
   -0.7426   22.6862  -27.0371 C   0  0  0  0  0  0  0  0  0  0  0  0
    0.4126   22.2122  -26.5430 N   0  0  0  0  0  0  0  0  0  0  0  0
    0.4733   21.8786  -25.2560 C   0  0  0  0  0  0  0  0  0  0  0  0
    1.6882   21.3754  -24.7152 N   0  0  0  0  0  0  0  0  0  0  0  0
    1.8428   20.3290  -24.7420 H   0  0  0  0  0  0  0  0  0  0  0  0
    2.3954   22.0237  -24.3082 H   0  0  0  0  0  0  0  0  0  0  0  0
    0.8797   20.9499  -21.2265 N   0  0  0  0  0  0  0  0  0  0  0  0
    0.6666   21.3097  -22.5048 N   0  0  0  0  0  0  0  0  0  0  0  0
   -0.5148   21.6269  -22.9976 C   0  0  0  0  0  0  0  0  0  0  0  0
   -1.6112   21.5946  -22.1696 C   0  0  0  0  0  0  0  0  0  0  0  0
   -1.4272   21.2249  -20.8329 C   0  0  0  0  0  0  0  0  0  0  0  0
   -0.1675   20.9076  -20.3912 C   0  0  0  0  0  0  0  0  0  0  0  0
    0.0473   20.5697  -19.1998 O   0  0  0  0  0  0  0  0  0  0  0  0
    4.1703   19.2302  -20.9486 C   0  0  0  0  0  0  0  0  0  0  0  0
    4.8264   20.0868  -20.1005 C   0  0  0  0  0  0  0  0  0  0  0  0
    4.1855   21.2284  -19.6193 C   0  0  0  0  0  0  0  0  0  0  0  0
    2.8691   21.4939  -20.0077 C   0  0  0  0  0  0  0  0  0  0  0  0
    2.2107   20.6372  -20.8571 C   0  0  0  0  0  0  0  0  0  0  0  0
    2.8822   19.5228  -21.3070 C   0  0  0  0  0  0  0  0  0  0  0  0
    6.1825   17.8688  -21.3266 C   0  0  0  0  0  0  0  0  0  0  0  0
    4.8117   18.1021  -21.4205 O   0  0  0  0  0  0  0  0  0  0  0  0
    4.9048   22.0331  -18.7790 O   0  0  0  0  0  0  0  0  0  0  0  0
    4.3717   23.1459  -18.0760 C   0  0  0  0  0  0  0  0  0  0  0  0
   -3.0683   23.3443  -26.8239 C   0  0  0  0  0  0  0  0  0  0  0  0
   -3.4594   23.2710  -28.1416 C   0  0  0  0  0  0  0  0  0  0  0  0
   -4.6516   23.8788  -28.2578 N   0  0  0  0  0  0  0  0  0  0  0  0
   -5.0646   24.3480  -27.0846 N   0  0  0  0  0  0  0  0  0  0  0  0
   -4.1089   24.0301  -26.1965 C   0  0  0  0  0  0  0  0  0  0  0  0
   -6.3055   25.0627  -26.8225 C   0  0  0  0  0  0  0  0  0  0  0  0
   -6.5505   25.0632  -25.3262 C   0  0  0  0  0  0  0  0  0  0  0  0
   -6.4439   26.4476  -24.7548 C   0  0  0  0  0  0  0  0  0  0  0  0
   -6.3019   26.3346  -23.3172 N   0  0  0  0  0  0  0  0  0  0  0  0
   -7.2494   25.3869  -22.8186 C   0  0  0  0  0  0  0  0  0  0  0  0
   -7.9737   26.0176  -21.6246 C   0  0  0  0  0  0  0  0  0  0  0  0
   -6.5107   24.1796  -22.2973 C   0  0  0  0  0  0  0  0  0  0  0  0
   -8.3105   25.0165  -23.8232 C   0  0  0  0  0  0  0  0  0  0  0  0
   -7.7941   24.5479  -25.0089 O   0  0  0  0  0  0  0  0  0  0  0  0
   -5.3157   26.0503  -23.1339 H   0  0  0  0  0  0  0  0  0  0  0  0
 23 24  1  0  0  0
 24 17  1  0  0  0
 17 18  2  0  0  0
 18 19  1  0  0  0
 19 25  1  0  0  0
 25 26  1  0  0  0
 19 20  2  0  0  0
 20 21  1  0  0  0
 21 22  2  0  0  0
 21 10  1  0  0  0
 10 11  1  0  0  0
 11 12  2  0  0  0
 12 13  1  0  0  0
 13 14  2  0  0  0
 14 15  1  0  0  0
 15 16  2  0  0  0
 12  1  1  0  0  0
  1  2  2  0  0  0
  2  3  1  0  0  0
  3  4  2  0  0  0
  4  5  1  0  0  0
  5  6  2  0  0  0
  6  7  1  0  0  0
  3 27  1  0  0  0
 27 28  1  0  0  0
 28 29  2  0  0  0
 29 30  1  0  0  0
 30 32  1  0  0  0
 32 33  1  0  0  0
 33 34  1  0  0  0
 34 35  1  0  0  0
 35 36  1  0  0  0
 36 37  1  0  0  0
 36 38  1  0  0  0
 36 39  1  0  0  0
 39 40  1  0  0  0
 30 31  1  0  0  0
 22 17  1  0  0  0
 15 10  1  0  0  0
  6  1  1  0  0  0
 31 27  2  0  0  0
 40 33  1  0  0  0
  7  8  1  0  0  0
  7  9  1  0  0  0
 35 41  1  0  0  0
M  END
> <minimizedAffinity>
-8.45842

> <CNNscore>
0.5512217879

> <CNNaffinity>
7.3911004066

> <CNN_VS>
4.0741357803

> <CNNaffinity_variance>
0.1842827797

$$$$
[H]c1nc(N([H])[H])c(-c2nn(-c3c([H])c(OC([H])([H])[H])c([H])c(OC([H])([H])[H])c3[H])c(=O)c([H])c2[H])nc1-c1c([H])nn(C([H])([H])[C@]2([H])OC([H])([H])C(C([H])([H])[H])(C([H])([H])[H])N([H])C2([H])[H])c1[H]


 41 45  0  0  0  0  0  0  0  0999 V2000
   -0.5849   21.9507  -24.3951 C   0  0  0  0  0  0  0  0  0  0  0  0
   -1.7537   22.4093  -24.8929 N   0  0  0  0  0  0  0  0  0  0  0  0
   -1.8637   22.7521  -26.1857 C   0  0  0  0  0  0  0  0  0  0  0  0
   -0.7650   22.6320  -27.0115 C   0  0  0  0  0  0  0  0  0  0  0  0
    0.4040   22.1776  -26.5316 N   0  0  0  0  0  0  0  0  0  0  0  0
    0.4859   21.8447  -25.2456 C   0  0  0  0  0  0  0  0  0  0  0  0
    1.7155   21.3621  -24.7198 N   0  0  0  0  0  0  0  0  0  0  0  0
    1.8876   20.3184  -24.7490 H   0  0  0  0  0  0  0  0  0  0  0  0
    2.4164   22.0221  -24.3210 H   0  0  0  0  0  0  0  0  0  0  0  0
    0.9482   20.8716  -21.2343 N   0  0  0  0  0  0  0  0  0  0  0  0
    0.7144   21.2333  -22.5086 N   0  0  0  0  0  0  0  0  0  0  0  0
   -0.4705   21.5754  -22.9756 C   0  0  0  0  0  0  0  0  0  0  0  0
   -1.5485   21.5690  -22.1233 C   0  0  0  0  0  0  0  0  0  0  0  0
   -1.3429   21.1981  -20.7900 C   0  0  0  0  0  0  0  0  0  0  0  0
   -0.0808   20.8542  -20.3757 C   0  0  0  0  0  0  0  0  0  0  0  0
    0.1532   20.5141  -19.1885 O   0  0  0  0  0  0  0  0  0  0  0  0
    4.4783   21.0968  -20.0729 C   0  0  0  0  0  0  0  0  0  0  0  0
    4.8764   19.7936  -20.2366 C   0  0  0  0  0  0  0  0  0  0  0  0
    3.9840   18.8422  -20.7304 C   0  0  0  0  0  0  0  0  0  0  0  0
    2.6801   19.2261  -21.0574 C   0  0  0  0  0  0  0  0  0  0  0  0
    2.2799   20.5306  -20.8939 C   0  0  0  0  0  0  0  0  0  0  0  0
    3.1942   21.4356  -20.4037 C   0  0  0  0  0  0  0  0  0  0  0  0
    5.1360   22.8479  -18.4770 C   0  0  0  0  0  0  0  0  0  0  0  0
    5.3679   22.0328  -19.5836 O   0  0  0  0  0  0  0  0  0  0  0  0
    4.4544   17.5648  -20.8649 O   0  0  0  0  0  0  0  0  0  0  0  0
    3.9780   16.4484  -20.1277 C   0  0  0  0  0  0  0  0  0  0  0  0
   -3.0989   23.2503  -26.7699 C   0  0  0  0  0  0  0  0  0  0  0  0
   -3.5806   23.0317  -28.0406 C   0  0  0  0  0  0  0  0  0  0  0  0
   -4.7525   23.6772  -28.1598 N   0  0  0  0  0  0  0  0  0  0  0  0
   -5.0663   24.3089  -27.0331 N   0  0  0  0  0  0  0  0  0  0  0  0
   -4.0663   24.0588  -26.1724 C   0  0  0  0  0  0  0  0  0  0  0  0
   -6.2569   25.1101  -26.7884 C   0  0  0  0  0  0  0  0  0  0  0  0
   -6.5448   25.0972  -25.2998 C   0  0  0  0  0  0  0  0  0  0  0  0
   -6.4872   26.4808  -24.7194 C   0  0  0  0  0  0  0  0  0  0  0  0
   -6.3840   26.3637  -23.2788 N   0  0  0  0  0  0  0  0  0  0  0  0
   -7.3230   25.3916  -22.8120 C   0  0  0  0  0  0  0  0  0  0  0  0
   -8.0959   25.9990  -21.6367 C   0  0  0  0  0  0  0  0  0  0  0  0
   -6.5714   24.1992  -22.2750 C   0  0  0  0  0  0  0  0  0  0  0  0
   -8.3457   25.0016  -23.8485 C   0  0  0  0  0  0  0  0  0  0  0  0
   -7.7846   24.5514  -25.0209 O   0  0  0  0  0  0  0  0  0  0  0  0
   -5.3971   26.1016  -23.0684 H   0  0  0  0  0  0  0  0  0  0  0  0
 23 24  1  0  0  0
 24 17  1  0  0  0
 17 18  2  0  0  0
 18 19  1  0  0  0
 19 25  1  0  0  0
 25 26  1  0  0  0
 19 20  2  0  0  0
 20 21  1  0  0  0
 21 22  2  0  0  0
 21 10  1  0  0  0
 10 11  1  0  0  0
 11 12  2  0  0  0
 12 13  1  0  0  0
 13 14  2  0  0  0
 14 15  1  0  0  0
 15 16  2  0  0  0
 12  1  1  0  0  0
  1  2  2  0  0  0
  2  3  1  0  0  0
  3  4  2  0  0  0
  4  5  1  0  0  0
  5  6  2  0  0  0
  6  7  1  0  0  0
  3 27  1  0  0  0
 27 28  1  0  0  0
 28 29  2  0  0  0
 29 30  1  0  0  0
 30 32  1  0  0  0
 32 33  1  0  0  0
 33 34  1  0  0  0
 34 35  1  0  0  0
 35 36  1  0  0  0
 36 37  1  0  0  0
 36 38  1  0  0  0
 36 39  1  0  0  0
 39 40  1  0  0  0
 30 31  1  0  0  0
 22 17  1  0  0  0
 15 10  1  0  0  0
  6  1  1  0  0  0
 31 27  2  0  0  0
 40 33  1  0  0  0
  7  8  1  0  0  0
  7  9  1  0  0  0
 35 41  1  0  0  0
M  END
> <minimizedAffinity>
-8.55006

> <CNNscore>
0.5491316319

> <CNNaffinity>
7.3541779518

> <CNN_VS>
4.0384116173

> <CNNaffinity_variance>
0.1976097375

$$$$
[H]c1nc(N([H])[H])c(-c2nn(-c3c([H])c(OC([H])([H])[H])c([H])c(OC([H])([H])[H])c3[H])c(=O)c([H])c2[H])nc1-c1c([H])nn(C([H])([H])[C@]2([H])OC([H])([H])C(C([H])([H])[H])(C([H])([H])[H])N([H])C2([H])[H])c1[H]


 41 45  0  0  0  0  0  0  0  0999 V2000
   -2.0261   22.6359  -25.9959 C   0  0  0  0  0  0  0  0  0  0  0  0
   -1.6350   22.2997  -24.7476 N   0  0  0  0  0  0  0  0  0  0  0  0
   -0.3544   21.9952  -24.4864 C   0  0  0  0  0  0  0  0  0  0  0  0
    0.5695   22.0279  -25.5104 C   0  0  0  0  0  0  0  0  0  0  0  0
    0.1964   22.3602  -26.7569 N   0  0  0  0  0  0  0  0  0  0  0  0
   -1.0800   22.6577  -26.9888 C   0  0  0  0  0  0  0  0  0  0  0  0
   -1.4935   23.0114  -28.3023 N   0  0  0  0  0  0  0  0  0  0  0  0
   -1.4602   24.0345  -28.5702 H   0  0  0  0  0  0  0  0  0  0  0  0
   -1.8172   22.2801  -28.9706 H   0  0  0  0  0  0  0  0  0  0  0  0
   -5.5609   23.4331  -25.3841 N   0  0  0  0  0  0  0  0  0  0  0  0
   -4.2569   23.1278  -25.2592 N   0  0  0  0  0  0  0  0  0  0  0  0
   -3.4327   22.9697  -26.2764 C   0  0  0  0  0  0  0  0  0  0  0  0
   -3.9160   23.1222  -27.5538 C   0  0  0  0  0  0  0  0  0  0  0  0
   -5.2680   23.4401  -27.7223 C   0  0  0  0  0  0  0  0  0  0  0  0
   -6.0657   23.5891  -26.6159 C   0  0  0  0  0  0  0  0  0  0  0  0
   -7.2857   23.8743  -26.7167 O   0  0  0  0  0  0  0  0  0  0  0  0
   -7.4908   24.8924  -22.5543 C   0  0  0  0  0  0  0  0  0  0  0  0
   -7.7845   23.7561  -21.8429 C   0  0  0  0  0  0  0  0  0  0  0  0
   -7.3462   22.5110  -22.2937 C   0  0  0  0  0  0  0  0  0  0  0  0
   -6.6051   22.4290  -23.4762 C   0  0  0  0  0  0  0  0  0  0  0  0
   -6.3103   23.5659  -24.1898 C   0  0  0  0  0  0  0  0  0  0  0  0
   -6.7631   24.7732  -23.7074 C   0  0  0  0  0  0  0  0  0  0  0  0
   -8.2966   26.3990  -20.7861 C   0  0  0  0  0  0  0  0  0  0  0  0
   -7.9282   26.1214  -22.1013 O   0  0  0  0  0  0  0  0  0  0  0  0
   -7.6788   21.4254  -21.5308 O   0  0  0  0  0  0  0  0  0  0  0  0
   -8.3892   21.4902  -20.3028 C   0  0  0  0  0  0  0  0  0  0  0  0
    0.1170   21.6277  -23.1604 C   0  0  0  0  0  0  0  0  0  0  0  0
    1.3452   21.1123  -22.8134 C   0  0  0  0  0  0  0  0  0  0  0  0
    1.3563   20.9185  -21.4842 N   0  0  0  0  0  0  0  0  0  0  0  0
    0.1989   21.2799  -20.9394 N   0  0  0  0  0  0  0  0  0  0  0  0
   -0.5708   21.7160  -21.9497 C   0  0  0  0  0  0  0  0  0  0  0  0
   -0.1564   21.2131  -19.5292 C   0  0  0  0  0  0  0  0  0  0  0  0
   -0.3314   19.7560  -19.1483 C   0  0  0  0  0  0  0  0  0  0  0  0
    0.5786   19.3731  -18.0170 C   0  0  0  0  0  0  0  0  0  0  0  0
    0.6487   17.9269  -17.9616 N   0  0  0  0  0  0  0  0  0  0  0  0
   -0.6675   17.3818  -18.0845 C   0  0  0  0  0  0  0  0  0  0  0  0
   -0.8633   16.3486  -16.9701 C   0  0  0  0  0  0  0  0  0  0  0  0
   -0.7734   16.6414  -19.3944 C   0  0  0  0  0  0  0  0  0  0  0  0
   -1.7583   18.4091  -17.9202 C   0  0  0  0  0  0  0  0  0  0  0  0
   -1.6350   19.4733  -18.7829 O   0  0  0  0  0  0  0  0  0  0  0  0
    1.2811   17.6267  -18.7342 H   0  0  0  0  0  0  0  0  0  0  0  0
 23 24  1  0  0  0
 24 17  1  0  0  0
 17 18  2  0  0  0
 18 19  1  0  0  0
 19 25  1  0  0  0
 25 26  1  0  0  0
 19 20  2  0  0  0
 20 21  1  0  0  0
 21 22  2  0  0  0
 21 10  1  0  0  0
 10 11  1  0  0  0
 11 12  2  0  0  0
 12 13  1  0  0  0
 13 14  2  0  0  0
 14 15  1  0  0  0
 15 16  2  0  0  0
 12  1  1  0  0  0
  1  2  2  0  0  0
  2  3  1  0  0  0
  3  4  2  0  0  0
  4  5  1  0  0  0
  5  6  2  0  0  0
  6  7  1  0  0  0
  3 27  1  0  0  0
 27 28  1  0  0  0
 28 29  2  0  0  0
 29 30  1  0  0  0
 30 32  1  0  0  0
 32 33  1  0  0  0
 33 34  1  0  0  0
 34 35  1  0  0  0
 35 36  1  0  0  0
 36 37  1  0  0  0
 36 38  1  0  0  0
 36 39  1  0  0  0
 39 40  1  0  0  0
 30 31  1  0  0  0
 22 17  1  0  0  0
 15 10  1  0  0  0
  6  1  1  0  0  0
 31 27  2  0  0  0
 40 33  1  0  0  0
  7  8  1  0  0  0
  7  9  1  0  0  0
 35 41  1  0  0  0
M  END
> <minimizedAffinity>
-8.36753

> <CNNscore>
0.5035059452

> <CNNaffinity>
7.2836356163

> <CNN_VS>
3.6673538685

> <CNNaffinity_variance>
0.1525583267

$$$$
[H]c1nc(N([H])[H])c(-c2nn(-c3c([H])c(OC([H])([H])[H])c([H])c(OC([H])([H])[H])c3[H])c(=O)c([H])c2[H])nc1-c1c([H])nn(C([H])([H])[C@]2([H])OC([H])([H])C(C([H])([H])[H])(C([H])([H])[H])N([H])C2([H])[H])c1[H]


 41 45  0  0  0  0  0  0  0  0999 V2000
   -2.2793   22.7774  -26.5370 C   0  0  0  0  0  0  0  0  0  0  0  0
   -1.7519   22.3809  -25.3585 N   0  0  0  0  0  0  0  0  0  0  0  0
   -0.4439   22.1019  -25.2491 C   0  0  0  0  0  0  0  0  0  0  0  0
    0.3672   22.2236  -26.3584 C   0  0  0  0  0  0  0  0  0  0  0  0
   -0.1419   22.6167  -27.5373 N   0  0  0  0  0  0  0  0  0  0  0  0
   -1.4426   22.8871  -27.6183 C   0  0  0  0  0  0  0  0  0  0  0  0
   -1.9995   23.3042  -28.8582 N   0  0  0  0  0  0  0  0  0  0  0  0
   -2.0199   24.3418  -29.0645 H   0  0  0  0  0  0  0  0  0  0  0  0
   -2.3725   22.6037  -29.5337 H   0  0  0  0  0  0  0  0  0  0  0  0
   -5.7368   23.4891  -25.5155 N   0  0  0  0  0  0  0  0  0  0  0  0
   -4.4211   23.2115  -25.5442 N   0  0  0  0  0  0  0  0  0  0  0  0
   -3.7154   23.0828  -26.6508 C   0  0  0  0  0  0  0  0  0  0  0  0
   -4.3446   23.2384  -27.8626 C   0  0  0  0  0  0  0  0  0  0  0  0
   -5.7133   23.5280  -27.8715 C   0  0  0  0  0  0  0  0  0  0  0  0
   -6.3822   23.6472  -26.6795 C   0  0  0  0  0  0  0  0  0  0  0  0
   -7.6114   23.9062  -26.6367 O   0  0  0  0  0  0  0  0  0  0  0  0
   -7.2193   22.6143  -22.2141 C   0  0  0  0  0  0  0  0  0  0  0  0
   -7.5388   23.8647  -21.7471 C   0  0  0  0  0  0  0  0  0  0  0  0
   -7.2679   24.9944  -22.5191 C   0  0  0  0  0  0  0  0  0  0  0  0
   -6.6681   24.8435  -23.7728 C   0  0  0  0  0  0  0  0  0  0  0  0
   -6.3474   23.5922  -24.2418 C   0  0  0  0  0  0  0  0  0  0  0  0
   -6.6330   22.5057  -23.4461 C   0  0  0  0  0  0  0  0  0  0  0  0
   -8.3851   21.4720  -20.3752 C   0  0  0  0  0  0  0  0  0  0  0  0
   -7.4908   21.5009  -21.4439 O   0  0  0  0  0  0  0  0  0  0  0  0
   -7.6148   26.2052  -21.9856 O   0  0  0  0  0  0  0  0  0  0  0  0
   -8.1866   26.3848  -20.6980 C   0  0  0  0  0  0  0  0  0  0  0  0
    0.1721   21.6721  -24.0036 C   0  0  0  0  0  0  0  0  0  0  0  0
    1.5051   21.4307  -23.7598 C   0  0  0  0  0  0  0  0  0  0  0  0
    1.6334   21.0532  -22.4770 N   0  0  0  0  0  0  0  0  0  0  0  0
    0.4536   21.0339  -21.8649 N   0  0  0  0  0  0  0  0  0  0  0  0
   -0.4513   21.4096  -22.7833 C   0  0  0  0  0  0  0  0  0  0  0  0
    0.2004   20.6758  -20.4767 C   0  0  0  0  0  0  0  0  0  0  0  0
   -1.1664   21.2044  -20.0878 C   0  0  0  0  0  0  0  0  0  0  0  0
   -1.8654   20.2706  -19.1422 C   0  0  0  0  0  0  0  0  0  0  0  0
   -3.2714   20.6200  -19.1172 N   0  0  0  0  0  0  0  0  0  0  0  0
   -3.4071   22.0393  -19.0090 C   0  0  0  0  0  0  0  0  0  0  0  0
   -4.4094   22.3400  -17.8897 C   0  0  0  0  0  0  0  0  0  0  0  0
   -4.0011   22.5761  -20.2874 C   0  0  0  0  0  0  0  0  0  0  0  0
   -2.1227   22.7368  -18.6400 C   0  0  0  0  0  0  0  0  0  0  0  0
   -1.0859   22.4529  -19.4983 O   0  0  0  0  0  0  0  0  0  0  0  0
   -3.6906   20.2426  -19.9940 H   0  0  0  0  0  0  0  0  0  0  0  0
 23 24  1  0  0  0
 24 17  1  0  0  0
 17 18  2  0  0  0
 18 19  1  0  0  0
 19 25  1  0  0  0
 25 26  1  0  0  0
 19 20  2  0  0  0
 20 21  1  0  0  0
 21 22  2  0  0  0
 21 10  1  0  0  0
 10 11  1  0  0  0
 11 12  2  0  0  0
 12 13  1  0  0  0
 13 14  2  0  0  0
 14 15  1  0  0  0
 15 16  2  0  0  0
 12  1  1  0  0  0
  1  2  2  0  0  0
  2  3  1  0  0  0
  3  4  2  0  0  0
  4  5  1  0  0  0
  5  6  2  0  0  0
  6  7  1  0  0  0
  3 27  1  0  0  0
 27 28  1  0  0  0
 28 29  2  0  0  0
 29 30  1  0  0  0
 30 32  1  0  0  0
 32 33  1  0  0  0
 33 34  1  0  0  0
 34 35  1  0  0  0
 35 36  1  0  0  0
 36 37  1  0  0  0
 36 38  1  0  0  0
 36 39  1  0  0  0
 39 40  1  0  0  0
 30 31  1  0  0  0
 22 17  1  0  0  0
 15 10  1  0  0  0
  6  1  1  0  0  0
 31 27  2  0  0  0
 40 33  1  0  0  0
  7  8  1  0  0  0
  7  9  1  0  0  0
 35 41  1  0  0  0
M  END
> <minimizedAffinity>
-9.06731

> <CNNscore>
0.4500178099

> <CNNaffinity>
7.2745957375

> <CNN_VS>
3.2736976147

> <CNNaffinity_variance>
0.2619814575

$$$$
[H]c1nc(N([H])[H])c(-c2nn(-c3c([H])c(OC([H])([H])[H])c([H])c(OC([H])([H])[H])c3[H])c(=O)c([H])c2[H])nc1-c1c([H])nn(C([H])([H])[C@]2([H])OC([H])([H])C(C([H])([H])[H])(C([H])([H])[H])N([H])C2([H])[H])c1[H]


 41 45  0  0  0  0  0  0  0  0999 V2000
   -0.5652   22.0952  -24.1671 C   0  0  0  0  0  0  0  0  0  0  0  0
   -1.7277   22.5264  -24.7027 N   0  0  0  0  0  0  0  0  0  0  0  0
   -1.8274   22.7809  -26.0165 C   0  0  0  0  0  0  0  0  0  0  0  0
   -0.7247   22.5974  -26.8250 C   0  0  0  0  0  0  0  0  0  0  0  0
    0.4382   22.1691  -26.3077 N   0  0  0  0  0  0  0  0  0  0  0  0
    0.5100   21.9243  -25.0015 C   0  0  0  0  0  0  0  0  0  0  0  0
    1.7330   21.4706  -24.4360 N   0  0  0  0  0  0  0  0  0  0  0  0
    1.8979   20.4263  -24.3928 H   0  0  0  0  0  0  0  0  0  0  0  0
    2.4361   22.1517  -24.0786 H   0  0  0  0  0  0  0  0  0  0  0  0
    0.3411   20.3683  -21.0524 N   0  0  0  0  0  0  0  0  0  0  0  0
    0.1790   20.7315  -22.3373 N   0  0  0  0  0  0  0  0  0  0  0  0
   -0.4620   21.8169  -22.7246 C   0  0  0  0  0  0  0  0  0  0  0  0
   -1.0065   22.6436  -21.7713 C   0  0  0  0  0  0  0  0  0  0  0  0
   -0.8574   22.2974  -20.4240 C   0  0  0  0  0  0  0  0  0  0  0  0
   -0.1773   21.1516  -20.0964 C   0  0  0  0  0  0  0  0  0  0  0  0
   -0.0177   20.7992  -18.9005 O   0  0  0  0  0  0  0  0  0  0  0  0
    3.1086   17.9436  -20.4831 C   0  0  0  0  0  0  0  0  0  0  0  0
    2.3918   16.7864  -20.3082 C   0  0  0  0  0  0  0  0  0  0  0  0
    0.9989   16.8042  -20.3793 C   0  0  0  0  0  0  0  0  0  0  0  0
    0.3380   18.0102  -20.6301 C   0  0  0  0  0  0  0  0  0  0  0  0
    1.0543   19.1699  -20.8053 C   0  0  0  0  0  0  0  0  0  0  0  0
    2.4272   19.1053  -20.7268 C   0  0  0  0  0  0  0  0  0  0  0  0
    5.2563   18.7376  -19.5872 C   0  0  0  0  0  0  0  0  0  0  0  0
    4.4874   17.9177  -20.4113 O   0  0  0  0  0  0  0  0  0  0  0  0
    0.3554   15.6114  -20.1940 O   0  0  0  0  0  0  0  0  0  0  0  0
   -0.5237   15.3288  -19.1150 C   0  0  0  0  0  0  0  0  0  0  0  0
   -3.0556   23.2462  -26.6414 C   0  0  0  0  0  0  0  0  0  0  0  0
   -3.4911   23.0117  -27.9259 C   0  0  0  0  0  0  0  0  0  0  0  0
   -4.6745   23.6273  -28.0845 N   0  0  0  0  0  0  0  0  0  0  0  0
   -5.0395   24.2543  -26.9706 N   0  0  0  0  0  0  0  0  0  0  0  0
   -4.0614   24.0319  -26.0778 C   0  0  0  0  0  0  0  0  0  0  0  0
   -6.2569   25.0260  -26.7668 C   0  0  0  0  0  0  0  0  0  0  0  0
   -6.5621   25.0550  -25.2819 C   0  0  0  0  0  0  0  0  0  0  0  0
   -6.5066   26.4539  -24.7391 C   0  0  0  0  0  0  0  0  0  0  0  0
   -6.4205   26.3762  -23.2947 N   0  0  0  0  0  0  0  0  0  0  0  0
   -7.3681   25.4202  -22.8124 C   0  0  0  0  0  0  0  0  0  0  0  0
   -8.1525   26.0621  -21.6633 C   0  0  0  0  0  0  0  0  0  0  0  0
   -6.6268   24.2407  -22.2340 C   0  0  0  0  0  0  0  0  0  0  0  0
   -8.3800   25.0050  -23.8496 C   0  0  0  0  0  0  0  0  0  0  0  0
   -7.8069   24.5209  -25.0026 O   0  0  0  0  0  0  0  0  0  0  0  0
   -5.4370   26.1169  -23.0657 H   0  0  0  0  0  0  0  0  0  0  0  0
 23 24  1  0  0  0
 24 17  1  0  0  0
 17 18  2  0  0  0
 18 19  1  0  0  0
 19 25  1  0  0  0
 25 26  1  0  0  0
 19 20  2  0  0  0
 20 21  1  0  0  0
 21 22  2  0  0  0
 21 10  1  0  0  0
 10 11  1  0  0  0
 11 12  2  0  0  0
 12 13  1  0  0  0
 13 14  2  0  0  0
 14 15  1  0  0  0
 15 16  2  0  0  0
 12  1  1  0  0  0
  1  2  2  0  0  0
  2  3  1  0  0  0
  3  4  2  0  0  0
  4  5  1  0  0  0
  5  6  2  0  0  0
  6  7  1  0  0  0
  3 27  1  0  0  0
 27 28  1  0  0  0
 28 29  2  0  0  0
 29 30  1  0  0  0
 30 32  1  0  0  0
 32 33  1  0  0  0
 33 34  1  0  0  0
 34 35  1  0  0  0
 35 36  1  0  0  0
 36 37  1  0  0  0
 36 38  1  0  0  0
 36 39  1  0  0  0
 39 40  1  0  0  0
 30 31  1  0  0  0
 22 17  1  0  0  0
 15 10  1  0  0  0
  6  1  1  0  0  0
 31 27  2  0  0  0
 40 33  1  0  0  0
  7  8  1  0  0  0
  7  9  1  0  0  0
 35 41  1  0  0  0
M  END
> <minimizedAffinity>
-8.22614

> <CNNscore>
0.4245219827

> <CNNaffinity>
7.1502275467

> <CNN_VS>
3.0354287624

> <CNNaffinity_variance>
0.1957210451

$$$$
[H]c1nc(N([H])[H])c(-c2nn(-c3c([H])c(OC([H])([H])[H])c([H])c(OC([H])([H])[H])c3[H])c(=O)c([H])c2[H])nc1-c1c([H])nn(C([H])([H])[C@]2([H])OC([H])([H])C(C([H])([H])[H])(C([H])([H])[H])N([H])C2([H])[H])c1[H]


 41 45  0  0  0  0  0  0  0  0999 V2000
   -2.2956   22.8103  -26.5568 C   0  0  0  0  0  0  0  0  0  0  0  0
   -1.7595   22.4160  -25.3815 N   0  0  0  0  0  0  0  0  0  0  0  0
   -0.4530   22.1252  -25.2843 C   0  0  0  0  0  0  0  0  0  0  0  0
    0.3472   22.2325  -26.4030 C   0  0  0  0  0  0  0  0  0  0  0  0
   -0.1708   22.6233  -27.5787 N   0  0  0  0  0  0  0  0  0  0  0  0
   -1.4696   22.9055  -27.6476 C   0  0  0  0  0  0  0  0  0  0  0  0
   -2.0357   23.3204  -28.8840 N   0  0  0  0  0  0  0  0  0  0  0  0
   -2.0486   24.3569  -29.0965 H   0  0  0  0  0  0  0  0  0  0  0  0
   -2.4225   22.6194  -29.5511 H   0  0  0  0  0  0  0  0  0  0  0  0
   -5.7377   23.5497  -25.5031 N   0  0  0  0  0  0  0  0  0  0  0  0
   -4.4248   23.2606  -25.5440 N   0  0  0  0  0  0  0  0  0  0  0  0
   -3.7300   23.1287  -26.6571 C   0  0  0  0  0  0  0  0  0  0  0  0
   -4.3683   23.2931  -27.8630 C   0  0  0  0  0  0  0  0  0  0  0  0
   -5.7345   23.5947  -27.8591 C   0  0  0  0  0  0  0  0  0  0  0  0
   -6.3919   23.7166  -26.6609 C   0  0  0  0  0  0  0  0  0  0  0  0
   -7.6183   23.9863  -26.6067 O   0  0  0  0  0  0  0  0  0  0  0  0
   -7.2599   24.9470  -22.4059 C   0  0  0  0  0  0  0  0  0  0  0  0
   -7.5168   23.7906  -21.7129 C   0  0  0  0  0  0  0  0  0  0  0  0
   -7.1877   22.5523  -22.2641 C   0  0  0  0  0  0  0  0  0  0  0  0
   -6.5939   22.4977  -23.5285 C   0  0  0  0  0  0  0  0  0  0  0  0
   -6.3362   23.6548  -24.2238 C   0  0  0  0  0  0  0  0  0  0  0  0
   -6.6776   24.8544  -23.6411 C   0  0  0  0  0  0  0  0  0  0  0  0
   -8.3175   26.3400  -20.6777 C   0  0  0  0  0  0  0  0  0  0  0  0
   -7.5886   26.1691  -21.8533 O   0  0  0  0  0  0  0  0  0  0  0  0
   -7.4751   21.4456  -21.5132 O   0  0  0  0  0  0  0  0  0  0  0  0
   -7.5155   21.4227  -20.0938 C   0  0  0  0  0  0  0  0  0  0  0  0
    0.1722   21.6971  -24.0428 C   0  0  0  0  0  0  0  0  0  0  0  0
    1.5076   21.4613  -23.8071 C   0  0  0  0  0  0  0  0  0  0  0  0
    1.6451   21.0834  -22.5254 N   0  0  0  0  0  0  0  0  0  0  0  0
    0.4690   21.0586  -21.9063 N   0  0  0  0  0  0  0  0  0  0  0  0
   -0.4428   21.4311  -22.8190 C   0  0  0  0  0  0  0  0  0  0  0  0
    0.2257   20.6984  -20.5170 C   0  0  0  0  0  0  0  0  0  0  0  0
   -1.1384   21.2266  -20.1175 C   0  0  0  0  0  0  0  0  0  0  0  0
   -1.8290   20.2934  -19.1653 C   0  0  0  0  0  0  0  0  0  0  0  0
   -3.2350   20.6419  -19.1293 N   0  0  0  0  0  0  0  0  0  0  0  0
   -3.3707   22.0613  -19.0216 C   0  0  0  0  0  0  0  0  0  0  0  0
   -4.3642   22.3625  -17.8946 C   0  0  0  0  0  0  0  0  0  0  0  0
   -3.9754   22.5963  -20.2957 C   0  0  0  0  0  0  0  0  0  0  0  0
   -2.0838   22.7599  -18.6637 C   0  0  0  0  0  0  0  0  0  0  0  0
   -1.0539   22.4758  -19.5300 O   0  0  0  0  0  0  0  0  0  0  0  0
   -3.6611   20.2633  -20.0024 H   0  0  0  0  0  0  0  0  0  0  0  0
 23 24  1  0  0  0
 24 17  1  0  0  0
 17 18  2  0  0  0
 18 19  1  0  0  0
 19 25  1  0  0  0
 25 26  1  0  0  0
 19 20  2  0  0  0
 20 21  1  0  0  0
 21 22  2  0  0  0
 21 10  1  0  0  0
 10 11  1  0  0  0
 11 12  2  0  0  0
 12 13  1  0  0  0
 13 14  2  0  0  0
 14 15  1  0  0  0
 15 16  2  0  0  0
 12  1  1  0  0  0
  1  2  2  0  0  0
  2  3  1  0  0  0
  3  4  2  0  0  0
  4  5  1  0  0  0
  5  6  2  0  0  0
  6  7  1  0  0  0
  3 27  1  0  0  0
 27 28  1  0  0  0
 28 29  2  0  0  0
 29 30  1  0  0  0
 30 32  1  0  0  0
 32 33  1  0  0  0
 33 34  1  0  0  0
 34 35  1  0  0  0
 35 36  1  0  0  0
 36 37  1  0  0  0
 36 38  1  0  0  0
 36 39  1  0  0  0
 39 40  1  0  0  0
 30 31  1  0  0  0
 22 17  1  0  0  0
 15 10  1  0  0  0
  6  1  1  0  0  0
 31 27  2  0  0  0
 40 33  1  0  0  0
  7  8  1  0  0  0
  7  9  1  0  0  0
 35 41  1  0  0  0
M  END
> <minimizedAffinity>
-9.00632

> <CNNscore>
0.4222265482

> <CNNaffinity>
7.2692856789

> <CNN_VS>
3.0692853928

> <CNNaffinity_variance>
0.2461005747

$$$$
[H]C([H])=C([H])C(=O)N1C([H])([H])C([H])([H])N(C([H])([H])C([H])([H])C([H])([H])n2c(=O)c(-c3c(Cl)c(OC([H])([H])[H])c([H])c(OC([H])([H])[H])c3Cl)c([H])c3c([H])nc(N([H])C([H])([H])C([H])([H])OC([H])([H])[H])nc32)C([H])([H])C1([H])[H]


 42 45  0  0  0  0  0  0  0  0999 V2000
   -4.8117   23.8490  -27.6620 C   0  0  0  0  0  0  0  0  0  0  0  0
   -4.1154   22.7779  -28.0764 N   0  0  0  0  0  0  0  0  0  0  0  0
   -3.2207   22.1944  -27.2295 C   0  0  0  0  0  0  0  0  0  0  0  0
   -3.0605   22.7274  -25.9690 C   0  0  0  0  0  0  0  0  0  0  0  0
   -2.1825   22.1464  -25.1157 C   0  0  0  0  0  0  0  0  0  0  0  0
   -2.0192   22.6689  -23.8288 C   0  0  0  0  0  0  0  0  0  0  0  0
   -2.7452   23.7623  -23.4369 C   0  0  0  0  0  0  0  0  0  0  0  0
   -2.5728   24.2119  -22.2554 O   0  0  0  0  0  0  0  0  0  0  0  0
   -3.6188   24.3442  -24.2821 N   0  0  0  0  0  0  0  0  0  0  0  0
   -3.7776   23.8412  -25.5246 C   0  0  0  0  0  0  0  0  0  0  0  0
   -4.6347   24.3459  -26.4293 N   0  0  0  0  0  0  0  0  0  0  0  0
   -1.0353   21.9727  -23.0146 C   0  0  0  0  0  0  0  0  0  0  0  0
    0.2956   21.9293  -23.3711 C   0  0  0  0  0  0  0  0  0  0  0  0
    0.8061   22.7154  -24.8562 Cl  0  0  0  0  0  0  0  0  0  0  0  0
    1.2376   21.2784  -22.5847 C   0  0  0  0  0  0  0  0  0  0  0  0
    0.8052   20.6706  -21.4271 C   0  0  0  0  0  0  0  0  0  0  0  0
   -0.5207   20.6817  -21.0181 C   0  0  0  0  0  0  0  0  0  0  0  0
   -1.4101   21.3499  -21.8511 C   0  0  0  0  0  0  0  0  0  0  0  0
   -3.0874   21.3764  -21.3538 Cl  0  0  0  0  0  0  0  0  0  0  0  0
    2.5558   21.2795  -23.0118 O   0  0  0  0  0  0  0  0  0  0  0  0
    3.4760   20.4993  -22.2693 C   0  0  0  0  0  0  0  0  0  0  0  0
   -0.9361   20.0629  -19.8466 O   0  0  0  0  0  0  0  0  0  0  0  0
    0.0419   19.8393  -18.8497 C   0  0  0  0  0  0  0  0  0  0  0  0
   -5.7405   24.4460  -28.5677 N   0  0  0  0  0  0  0  0  0  0  0  0
   -6.6962   24.7249  -28.3001 H   0  0  0  0  0  0  0  0  0  0  0  0
   -5.3156   24.6750  -29.9478 C   0  0  0  0  0  0  0  0  0  0  0  0
   -4.3949   25.8476  -30.0401 C   0  0  0  0  0  0  0  0  0  0  0  0
   -5.9892   26.7233  -31.4330 C   0  0  0  0  0  0  0  0  0  0  0  0
   -5.1657   26.9795  -30.3312 O   0  0  0  0  0  0  0  0  0  0  0  0
   -4.4159   25.4601  -23.8719 C   0  0  0  0  0  0  0  0  0  0  0  0
   -5.6638   25.1575  -23.1367 C   0  0  0  0  0  0  0  0  0  0  0  0
   -6.8972   25.5209  -23.8877 C   0  0  0  0  0  0  0  0  0  0  0  0
   -7.9484   26.0052  -23.0138 N   0  0  0  0  0  0  0  0  0  0  0  0
   -7.3908   26.1659  -21.6850 C   0  0  0  0  0  0  0  0  0  0  0  0
   -8.4965   25.9311  -20.6469 C   0  0  0  0  0  0  0  0  0  0  0  0
   -9.6743   26.5148  -21.2056 N   0  0  0  0  0  0  0  0  0  0  0  0
  -10.2691   25.6866  -22.2996 C   0  0  0  0  0  0  0  0  0  0  0  0
   -9.0813   25.1468  -23.0918 C   0  0  0  0  0  0  0  0  0  0  0  0
  -10.2601   27.7096  -20.8886 C   0  0  0  0  0  0  0  0  0  0  0  0
  -11.3925   27.9440  -21.5550 O   0  0  0  0  0  0  0  0  0  0  0  0
   -9.9519   28.7894  -20.0021 C   0  0  0  0  0  0  0  0  0  0  0  0
  -10.0278   30.0764  -20.2252 C   0  0  0  0  0  0  0  0  0  0  0  0
 28 29  1  0  0  0
 29 27  1  0  0  0
 27 26  1  0  0  0
 26 24  1  0  0  0
 24  1  1  0  0  0
  1  2  2  0  0  0
  2  3  1  0  0  0
  3  4  2  0  0  0
  4  5  1  0  0  0
  5  6  2  0  0  0
  6 12  1  0  0  0
 12 13  2  0  0  0
 13 14  1  0  0  0
 13 15  1  0  0  0
 15 20  1  0  0  0
 20 21  1  0  0  0
 15 16  2  0  0  0
 16 17  1  0  0  0
 17 22  1  0  0  0
 22 23  1  0  0  0
 17 18  2  0  0  0
 18 19  1  0  0  0
  6  7  1  0  0  0
  7  8  2  0  0  0
  7  9  1  0  0  0
  9 30  1  0  0  0
 30 31  1  0  0  0
 31 32  1  0  0  0
 32 33  1  0  0  0
 33 34  1  0  0  0
 34 35  1  0  0  0
 35 36  1  0  0  0
 36 37  1  0  0  0
 37 38  1  0  0  0
 36 39  1  0  0  0
 39 40  2  0  0  0
 39 41  1  0  0  0
 41 42  2  0  0  0
  9 10  1  0  0  0
 10 11  2  0  0  0
 11  1  1  0  0  0
 10  4  1  0  0  0
 18 12  1  0  0  0
 38 33  1  0  0  0
 24 25  1  0  0  0
M  END
> <minimizedAffinity>
-7.60707

> <CNNscore>
0.2133051902

> <CNNaffinity>
7.4114303589

> <CNN_VS>
1.5808966160

> <CNNaffinity_variance>
0.1213766932

$$$$
[H]C([H])=C([H])C(=O)N1C([H])([H])C([H])([H])N(C([H])([H])C([H])([H])C([H])([H])n2c(=O)c(-c3c(Cl)c(OC([H])([H])[H])c([H])c(OC([H])([H])[H])c3Cl)c([H])c3c([H])nc(N([H])C([H])([H])C([H])([H])OC([H])([H])[H])nc32)C([H])([H])C1([H])[H]


 42 45  0  0  0  0  0  0  0  0999 V2000
   -4.8055   23.7724  -26.9303 C   0  0  0  0  0  0  0  0  0  0  0  0
   -4.1808   22.6682  -27.3712 N   0  0  0  0  0  0  0  0  0  0  0  0
   -3.2616   22.0567  -26.5718 C   0  0  0  0  0  0  0  0  0  0  0  0
   -3.0032   22.5962  -25.3305 C   0  0  0  0  0  0  0  0  0  0  0  0
   -2.1001   21.9878  -24.5237 C   0  0  0  0  0  0  0  0  0  0  0  0
   -1.8375   22.5169  -23.2561 C   0  0  0  0  0  0  0  0  0  0  0  0
   -2.4922   23.6444  -22.8361 C   0  0  0  0  0  0  0  0  0  0  0  0
   -2.2299   24.0993  -21.6733 O   0  0  0  0  0  0  0  0  0  0  0  0
   -3.3903   24.2536  -23.6350 N   0  0  0  0  0  0  0  0  0  0  0  0
   -3.6450   23.7442  -24.8588 C   0  0  0  0  0  0  0  0  0  0  0  0
   -4.5336   24.2749  -25.7172 N   0  0  0  0  0  0  0  0  0  0  0  0
   -0.8359   21.7886  -22.4932 C   0  0  0  0  0  0  0  0  0  0  0  0
   -1.1414   21.1865  -21.2914 C   0  0  0  0  0  0  0  0  0  0  0  0
   -2.7742   21.3247  -20.6597 Cl  0  0  0  0  0  0  0  0  0  0  0  0
   -0.1887   20.4771  -20.5712 C   0  0  0  0  0  0  0  0  0  0  0  0
    1.0828   20.3884  -21.0927 C   0  0  0  0  0  0  0  0  0  0  0  0
    1.4476   20.9736  -22.2969 C   0  0  0  0  0  0  0  0  0  0  0  0
    0.4466   21.6683  -22.9651 C   0  0  0  0  0  0  0  0  0  0  0  0
    0.8852   22.4136  -24.4862 Cl  0  0  0  0  0  0  0  0  0  0  0  0
   -0.5745   19.9011  -19.3715 O   0  0  0  0  0  0  0  0  0  0  0  0
    0.3930   19.1248  -18.6871 C   0  0  0  0  0  0  0  0  0  0  0  0
    2.7356   20.8719  -22.8056 O   0  0  0  0  0  0  0  0  0  0  0  0
    3.5474   19.8250  -22.3102 C   0  0  0  0  0  0  0  0  0  0  0  0
   -5.7618   24.3984  -27.7865 N   0  0  0  0  0  0  0  0  0  0  0  0
   -6.6494   24.8001  -27.4496 H   0  0  0  0  0  0  0  0  0  0  0  0
   -5.4684   24.4748  -29.2168 C   0  0  0  0  0  0  0  0  0  0  0  0
   -4.5180   25.5886  -29.5125 C   0  0  0  0  0  0  0  0  0  0  0  0
   -5.5574   26.3561  -31.4045 C   0  0  0  0  0  0  0  0  0  0  0  0
   -5.2502   26.6437  -30.0702 O   0  0  0  0  0  0  0  0  0  0  0  0
   -4.1139   25.4067  -23.1929 C   0  0  0  0  0  0  0  0  0  0  0  0
   -5.4559   25.1742  -22.6146 C   0  0  0  0  0  0  0  0  0  0  0  0
   -6.5682   25.6056  -23.5057 C   0  0  0  0  0  0  0  0  0  0  0  0
   -7.7197   26.0729  -22.7582 N   0  0  0  0  0  0  0  0  0  0  0  0
   -7.3368   26.1836  -21.3641 C   0  0  0  0  0  0  0  0  0  0  0  0
   -8.5685   25.9275  -20.4852 C   0  0  0  0  0  0  0  0  0  0  0  0
   -9.6605   26.5425  -21.1704 N   0  0  0  0  0  0  0  0  0  0  0  0
  -10.1152   25.7573  -22.3592 C   0  0  0  0  0  0  0  0  0  0  0  0
   -8.8391   25.2304  -23.0101 C   0  0  0  0  0  0  0  0  0  0  0  0
  -10.2738   27.7328  -20.8908 C   0  0  0  0  0  0  0  0  0  0  0  0
  -11.3093   28.0018  -21.6889 O   0  0  0  0  0  0  0  0  0  0  0  0
  -10.0747   28.7794  -19.9360 C   0  0  0  0  0  0  0  0  0  0  0  0
   -9.8787   30.0550  -20.1512 C   0  0  0  0  0  0  0  0  0  0  0  0
 28 29  1  0  0  0
 29 27  1  0  0  0
 27 26  1  0  0  0
 26 24  1  0  0  0
 24  1  1  0  0  0
  1  2  2  0  0  0
  2  3  1  0  0  0
  3  4  2  0  0  0
  4  5  1  0  0  0
  5  6  2  0  0  0
  6 12  1  0  0  0
 12 13  2  0  0  0
 13 14  1  0  0  0
 13 15  1  0  0  0
 15 20  1  0  0  0
 20 21  1  0  0  0
 15 16  2  0  0  0
 16 17  1  0  0  0
 17 22  1  0  0  0
 22 23  1  0  0  0
 17 18  2  0  0  0
 18 19  1  0  0  0
  6  7  1  0  0  0
  7  8  2  0  0  0
  7  9  1  0  0  0
  9 30  1  0  0  0
 30 31  1  0  0  0
 31 32  1  0  0  0
 32 33  1  0  0  0
 33 34  1  0  0  0
 34 35  1  0  0  0
 35 36  1  0  0  0
 36 37  1  0  0  0
 37 38  1  0  0  0
 36 39  1  0  0  0
 39 40  2  0  0  0
 39 41  1  0  0  0
 41 42  2  0  0  0
  9 10  1  0  0  0
 10 11  2  0  0  0
 11  1  1  0  0  0
 10  4  1  0  0  0
 18 12  1  0  0  0
 38 33  1  0  0  0
 24 25  1  0  0  0
M  END
> <minimizedAffinity>
-7.77467

> <CNNscore>
0.1005398631

> <CNNaffinity>
7.1607904434

> <CNN_VS>
0.7199448943

> <CNNaffinity_variance>
0.2007564306

$$$$
[H]C([H])=C([H])C(=O)N1C([H])([H])C([H])([H])N(C([H])([H])C([H])([H])C([H])([H])n2c(=O)c(-c3c(Cl)c(OC([H])([H])[H])c([H])c(OC([H])([H])[H])c3Cl)c([H])c3c([H])nc(N([H])C([H])([H])C([H])([H])OC([H])([H])[H])nc32)C([H])([H])C1([H])[H]


 42 45  0  0  0  0  0  0  0  0999 V2000
   -2.2675   22.3571  -25.0718 C   0  0  0  0  0  0  0  0  0  0  0  0
   -0.9523   22.2170  -25.3057 N   0  0  0  0  0  0  0  0  0  0  0  0
   -0.1260   21.8613  -24.2817 C   0  0  0  0  0  0  0  0  0  0  0  0
   -0.6723   21.6565  -23.0333 C   0  0  0  0  0  0  0  0  0  0  0  0
    0.1396   21.2902  -22.0119 C   0  0  0  0  0  0  0  0  0  0  0  0
   -0.4030   21.0663  -20.7426 C   0  0  0  0  0  0  0  0  0  0  0  0
   -1.7488   21.2174  -20.5373 C   0  0  0  0  0  0  0  0  0  0  0  0
   -2.2107   21.0035  -19.3673 O   0  0  0  0  0  0  0  0  0  0  0  0
   -2.5602   21.5823  -21.5495 N   0  0  0  0  0  0  0  0  0  0  0  0
   -2.0381   21.7989  -22.7753 C   0  0  0  0  0  0  0  0  0  0  0  0
   -2.7709   22.1512  -23.8462 N   0  0  0  0  0  0  0  0  0  0  0  0
    0.5702   20.6987  -19.7260 C   0  0  0  0  0  0  0  0  0  0  0  0
    1.0933   21.6321  -18.8569 C   0  0  0  0  0  0  0  0  0  0  0  0
    0.5868   23.3076  -18.9998 Cl  0  0  0  0  0  0  0  0  0  0  0  0
    2.0102   21.2776  -17.8755 C   0  0  0  0  0  0  0  0  0  0  0  0
    2.3883   19.9561  -17.7904 C   0  0  0  0  0  0  0  0  0  0  0  0
    1.8953   18.9736  -18.6373 C   0  0  0  0  0  0  0  0  0  0  0  0
    0.9825   19.3968  -19.5958 C   0  0  0  0  0  0  0  0  0  0  0  0
    0.3478   18.1735  -20.6740 Cl  0  0  0  0  0  0  0  0  0  0  0  0
    2.4895   22.2745  -17.0410 O   0  0  0  0  0  0  0  0  0  0  0  0
    3.7809   22.7854  -17.3207 C   0  0  0  0  0  0  0  0  0  0  0  0
    2.2892   17.6461  -18.5344 O   0  0  0  0  0  0  0  0  0  0  0  0
    1.7096   16.8764  -17.4990 C   0  0  0  0  0  0  0  0  0  0  0  0
   -3.1134   22.7342  -26.1589 N   0  0  0  0  0  0  0  0  0  0  0  0
   -4.1419   22.7619  -26.0957 H   0  0  0  0  0  0  0  0  0  0  0  0
   -2.4898   23.1008  -27.4295 C   0  0  0  0  0  0  0  0  0  0  0  0
   -3.4460   22.9373  -28.5653 C   0  0  0  0  0  0  0  0  0  0  0  0
   -4.9203   24.2576  -29.7196 C   0  0  0  0  0  0  0  0  0  0  0  0
   -3.6459   24.1958  -29.1455 O   0  0  0  0  0  0  0  0  0  0  0  0
   -3.9740   21.7015  -21.3603 C   0  0  0  0  0  0  0  0  0  0  0  0
   -4.4553   22.9065  -20.6492 C   0  0  0  0  0  0  0  0  0  0  0  0
   -5.8563   23.2769  -20.9919 C   0  0  0  0  0  0  0  0  0  0  0  0
   -5.9546   23.9015  -22.2970 N   0  0  0  0  0  0  0  0  0  0  0  0
   -6.4441   25.2539  -22.1131 C   0  0  0  0  0  0  0  0  0  0  0  0
   -7.2484   25.6677  -23.3529 C   0  0  0  0  0  0  0  0  0  0  0  0
   -6.5500   25.1065  -24.4653 N   0  0  0  0  0  0  0  0  0  0  0  0
   -6.7564   23.6310  -24.5951 C   0  0  0  0  0  0  0  0  0  0  0  0
   -6.7369   23.0911  -23.1675 C   0  0  0  0  0  0  0  0  0  0  0  0
   -5.7228   25.7385  -25.3526 C   0  0  0  0  0  0  0  0  0  0  0  0
   -5.2677   24.9411  -26.3215 O   0  0  0  0  0  0  0  0  0  0  0  0
   -5.2162   27.0683  -25.5005 C   0  0  0  0  0  0  0  0  0  0  0  0
   -4.0479   27.5410  -25.1490 C   0  0  0  0  0  0  0  0  0  0  0  0
 28 29  1  0  0  0
 29 27  1  0  0  0
 27 26  1  0  0  0
 26 24  1  0  0  0
 24  1  1  0  0  0
  1  2  2  0  0  0
  2  3  1  0  0  0
  3  4  2  0  0  0
  4  5  1  0  0  0
  5  6  2  0  0  0
  6 12  1  0  0  0
 12 13  2  0  0  0
 13 14  1  0  0  0
 13 15  1  0  0  0
 15 20  1  0  0  0
 20 21  1  0  0  0
 15 16  2  0  0  0
 16 17  1  0  0  0
 17 22  1  0  0  0
 22 23  1  0  0  0
 17 18  2  0  0  0
 18 19  1  0  0  0
  6  7  1  0  0  0
  7  8  2  0  0  0
  7  9  1  0  0  0
  9 30  1  0  0  0
 30 31  1  0  0  0
 31 32  1  0  0  0
 32 33  1  0  0  0
 33 34  1  0  0  0
 34 35  1  0  0  0
 35 36  1  0  0  0
 36 37  1  0  0  0
 37 38  1  0  0  0
 36 39  1  0  0  0
 39 40  2  0  0  0
 39 41  1  0  0  0
 41 42  2  0  0  0
  9 10  1  0  0  0
 10 11  2  0  0  0
 11  1  1  0  0  0
 10  4  1  0  0  0
 18 12  1  0  0  0
 38 33  1  0  0  0
 24 25  1  0  0  0
M  END
> <minimizedAffinity>
-6.72775

> <CNNscore>
0.0951213464

> <CNNaffinity>
7.3418412209

> <CNN_VS>
0.6983658075

> <CNNaffinity_variance>
0.1380621046

$$$$
[H]C([H])=C([H])C(=O)N1C([H])([H])C([H])([H])N(C([H])([H])C([H])([H])C([H])([H])n2c(=O)c(-c3c(Cl)c(OC([H])([H])[H])c([H])c(OC([H])([H])[H])c3Cl)c([H])c3c([H])nc(N([H])C([H])([H])C([H])([H])OC([H])([H])[H])nc32)C([H])([H])C1([H])[H]


 42 45  0  0  0  0  0  0  0  0999 V2000
   -2.3922   22.3165  -25.0080 C   0  0  0  0  0  0  0  0  0  0  0  0
   -1.0849   22.1795  -25.2839 N   0  0  0  0  0  0  0  0  0  0  0  0
   -0.2243   21.8333  -24.2851 C   0  0  0  0  0  0  0  0  0  0  0  0
   -0.7287   21.6346  -23.0183 C   0  0  0  0  0  0  0  0  0  0  0  0
    0.1174   21.2779  -22.0216 C   0  0  0  0  0  0  0  0  0  0  0  0
   -0.3826   21.0602  -20.7339 C   0  0  0  0  0  0  0  0  0  0  0  0
   -1.7216   21.2079  -20.4857 C   0  0  0  0  0  0  0  0  0  0  0  0
   -2.1442   21.0000  -19.3000 O   0  0  0  0  0  0  0  0  0  0  0  0
   -2.5669   21.5635  -21.4732 N   0  0  0  0  0  0  0  0  0  0  0  0
   -2.0859   21.7739  -22.7167 C   0  0  0  0  0  0  0  0  0  0  0  0
   -2.8546   22.1167  -23.7653 N   0  0  0  0  0  0  0  0  0  0  0  0
    0.6245   20.7026  -19.7473 C   0  0  0  0  0  0  0  0  0  0  0  0
    1.0996   19.4134  -19.6358 C   0  0  0  0  0  0  0  0  0  0  0  0
    0.4534   18.1724  -20.6972 Cl  0  0  0  0  0  0  0  0  0  0  0  0
    2.0734   19.0758  -18.7046 C   0  0  0  0  0  0  0  0  0  0  0  0
    2.5585   20.0713  -17.8860 C   0  0  0  0  0  0  0  0  0  0  0  0
    2.1183   21.3856  -17.9529 C   0  0  0  0  0  0  0  0  0  0  0  0
    1.1432   21.6541  -18.9060 C   0  0  0  0  0  0  0  0  0  0  0  0
    0.5742   23.3056  -19.0077 Cl  0  0  0  0  0  0  0  0  0  0  0  0
    2.4983   17.7579  -18.6548 O   0  0  0  0  0  0  0  0  0  0  0  0
    3.7519   17.4608  -19.2440 C   0  0  0  0  0  0  0  0  0  0  0  0
    2.6211   22.3749  -17.1184 O   0  0  0  0  0  0  0  0  0  0  0  0
    3.8548   22.9636  -17.4812 C   0  0  0  0  0  0  0  0  0  0  0  0
   -3.2745   22.6836  -26.0692 N   0  0  0  0  0  0  0  0  0  0  0  0
   -4.2912   22.5149  -26.0472 H   0  0  0  0  0  0  0  0  0  0  0  0
   -2.7081   23.3334  -27.2501 C   0  0  0  0  0  0  0  0  0  0  0  0
   -3.2569   22.7400  -28.5063 C   0  0  0  0  0  0  0  0  0  0  0  0
   -5.3392   23.0995  -29.3915 C   0  0  0  0  0  0  0  0  0  0  0  0
   -4.1038   23.6861  -29.0961 O   0  0  0  0  0  0  0  0  0  0  0  0
   -3.9742   21.6789  -21.2387 C   0  0  0  0  0  0  0  0  0  0  0  0
   -4.4522   22.9462  -20.6430 C   0  0  0  0  0  0  0  0  0  0  0  0
   -5.8676   23.2628  -20.9800 C   0  0  0  0  0  0  0  0  0  0  0  0
   -5.9929   23.9021  -22.2757 N   0  0  0  0  0  0  0  0  0  0  0  0
   -6.4485   25.2623  -22.0645 C   0  0  0  0  0  0  0  0  0  0  0  0
   -7.2816   25.7044  -23.2752 C   0  0  0  0  0  0  0  0  0  0  0  0
   -6.6292   25.1401  -24.4136 N   0  0  0  0  0  0  0  0  0  0  0  0
   -6.8698   23.6705  -24.5505 C   0  0  0  0  0  0  0  0  0  0  0  0
   -6.8178   23.1163  -23.1293 C   0  0  0  0  0  0  0  0  0  0  0  0
   -5.8165   25.7638  -25.3201 C   0  0  0  0  0  0  0  0  0  0  0  0
   -5.4078   24.9668  -26.3098 O   0  0  0  0  0  0  0  0  0  0  0  0
   -5.2873   27.0844  -25.4713 C   0  0  0  0  0  0  0  0  0  0  0  0
   -4.0824   27.5172  -25.2018 C   0  0  0  0  0  0  0  0  0  0  0  0
 28 29  1  0  0  0
 29 27  1  0  0  0
 27 26  1  0  0  0
 26 24  1  0  0  0
 24  1  1  0  0  0
  1  2  2  0  0  0
  2  3  1  0  0  0
  3  4  2  0  0  0
  4  5  1  0  0  0
  5  6  2  0  0  0
  6 12  1  0  0  0
 12 13  2  0  0  0
 13 14  1  0  0  0
 13 15  1  0  0  0
 15 20  1  0  0  0
 20 21  1  0  0  0
 15 16  2  0  0  0
 16 17  1  0  0  0
 17 22  1  0  0  0
 22 23  1  0  0  0
 17 18  2  0  0  0
 18 19  1  0  0  0
  6  7  1  0  0  0
  7  8  2  0  0  0
  7  9  1  0  0  0
  9 30  1  0  0  0
 30 31  1  0  0  0
 31 32  1  0  0  0
 32 33  1  0  0  0
 33 34  1  0  0  0
 34 35  1  0  0  0
 35 36  1  0  0  0
 36 37  1  0  0  0
 37 38  1  0  0  0
 36 39  1  0  0  0
 39 40  2  0  0  0
 39 41  1  0  0  0
 41 42  2  0  0  0
  9 10  1  0  0  0
 10 11  2  0  0  0
 11  1  1  0  0  0
 10  4  1  0  0  0
 18 12  1  0  0  0
 38 33  1  0  0  0
 24 25  1  0  0  0
M  END
> <minimizedAffinity>
-6.77482

> <CNNscore>
0.0739922002

> <CNNaffinity>
7.2048501968

> <CNN_VS>
0.5331026912

> <CNNaffinity_variance>
0.1268671006

$$$$
[H]C([H])=C([H])C(=O)N1C([H])([H])C([H])([H])N(C([H])([H])C([H])([H])C([H])([H])n2c(=O)c(-c3c(Cl)c(OC([H])([H])[H])c([H])c(OC([H])([H])[H])c3Cl)c([H])c3c([H])nc(N([H])C([H])([H])C([H])([H])OC([H])([H])[H])nc32)C([H])([H])C1([H])[H]


 42 45  0  0  0  0  0  0  0  0999 V2000
   -5.8996   24.3699  -19.0860 C   0  0  0  0  0  0  0  0  0  0  0  0
   -6.3084   25.2941  -19.9706 N   0  0  0  0  0  0  0  0  0  0  0  0
   -5.9034   25.2012  -21.2689 C   0  0  0  0  0  0  0  0  0  0  0  0
   -5.0829   24.1551  -21.6312 C   0  0  0  0  0  0  0  0  0  0  0  0
   -4.6854   24.0474  -22.9223 C   0  0  0  0  0  0  0  0  0  0  0  0
   -3.8632   22.9835  -23.3069 C   0  0  0  0  0  0  0  0  0  0  0  0
   -3.4642   22.0573  -22.3800 C   0  0  0  0  0  0  0  0  0  0  0  0
   -2.7157   21.0986  -22.7654 O   0  0  0  0  0  0  0  0  0  0  0  0
   -3.8560   22.1606  -21.0947 N   0  0  0  0  0  0  0  0  0  0  0  0
   -4.6496   23.1868  -20.7219 C   0  0  0  0  0  0  0  0  0  0  0  0
   -5.1010   23.3627  -19.4675 N   0  0  0  0  0  0  0  0  0  0  0  0
   -3.4878   22.9876  -24.7121 C   0  0  0  0  0  0  0  0  0  0  0  0
   -2.1669   22.9954  -25.1061 C   0  0  0  0  0  0  0  0  0  0  0  0
   -0.9116   23.0242  -23.8782 Cl  0  0  0  0  0  0  0  0  0  0  0  0
   -1.8088   22.9826  -26.4481 C   0  0  0  0  0  0  0  0  0  0  0  0
   -2.8165   22.9616  -27.3864 C   0  0  0  0  0  0  0  0  0  0  0  0
   -4.1625   22.9529  -27.0490 C   0  0  0  0  0  0  0  0  0  0  0  0
   -4.4503   22.9670  -25.6895 C   0  0  0  0  0  0  0  0  0  0  0  0
   -6.1418   22.9558  -25.2419 Cl  0  0  0  0  0  0  0  0  0  0  0  0
   -0.4593   22.9917  -26.7625 O   0  0  0  0  0  0  0  0  0  0  0  0
   -0.1153   22.9141  -28.1346 C   0  0  0  0  0  0  0  0  0  0  0  0
   -5.1636   22.9312  -28.0110 O   0  0  0  0  0  0  0  0  0  0  0  0
   -4.7600   22.9299  -29.3665 C   0  0  0  0  0  0  0  0  0  0  0  0
   -6.3333   24.4897  -17.7307 N   0  0  0  0  0  0  0  0  0  0  0  0
   -6.7514   25.3478  -17.3413 H   0  0  0  0  0  0  0  0  0  0  0  0
   -6.1772   23.3355  -16.8468 C   0  0  0  0  0  0  0  0  0  0  0  0
   -5.4278   23.7035  -15.6081 C   0  0  0  0  0  0  0  0  0  0  0  0
   -6.4818   22.3842  -14.0598 C   0  0  0  0  0  0  0  0  0  0  0  0
   -5.3161   22.5556  -14.8144 O   0  0  0  0  0  0  0  0  0  0  0  0
   -3.4830   21.1764  -20.1246 C   0  0  0  0  0  0  0  0  0  0  0  0
   -2.2976   21.4739  -19.2905 C   0  0  0  0  0  0  0  0  0  0  0  0
   -1.4916   20.2678  -18.9543 C   0  0  0  0  0  0  0  0  0  0  0  0
   -0.1394   20.3504  -19.4719 N   0  0  0  0  0  0  0  0  0  0  0  0
   -0.0110   19.3904  -20.5510 C   0  0  0  0  0  0  0  0  0  0  0  0
    1.4415   18.8989  -20.6131 C   0  0  0  0  0  0  0  0  0  0  0  0
    2.2445   20.0451  -20.3276 N   0  0  0  0  0  0  0  0  0  0  0  0
    2.2356   20.4129  -18.8781 C   0  0  0  0  0  0  0  0  0  0  0  0
    0.7985   20.1944  -18.4125 C   0  0  0  0  0  0  0  0  0  0  0  0
    2.9502   20.8245  -21.2026 C   0  0  0  0  0  0  0  0  0  0  0  0
    3.6513   21.7938  -20.6106 O   0  0  0  0  0  0  0  0  0  0  0  0
    3.1248   20.8569  -22.6222 C   0  0  0  0  0  0  0  0  0  0  0  0
    2.2339   21.0981  -23.5496 C   0  0  0  0  0  0  0  0  0  0  0  0
 28 29  1  0  0  0
 29 27  1  0  0  0
 27 26  1  0  0  0
 26 24  1  0  0  0
 24  1  1  0  0  0
  1  2  2  0  0  0
  2  3  1  0  0  0
  3  4  2  0  0  0
  4  5  1  0  0  0
  5  6  2  0  0  0
  6 12  1  0  0  0
 12 13  2  0  0  0
 13 14  1  0  0  0
 13 15  1  0  0  0
 15 20  1  0  0  0
 20 21  1  0  0  0
 15 16  2  0  0  0
 16 17  1  0  0  0
 17 22  1  0  0  0
 22 23  1  0  0  0
 17 18  2  0  0  0
 18 19  1  0  0  0
  6  7  1  0  0  0
  7  8  2  0  0  0
  7  9  1  0  0  0
  9 30  1  0  0  0
 30 31  1  0  0  0
 31 32  1  0  0  0
 32 33  1  0  0  0
 33 34  1  0  0  0
 34 35  1  0  0  0
 35 36  1  0  0  0
 36 37  1  0  0  0
 37 38  1  0  0  0
 36 39  1  0  0  0
 39 40  2  0  0  0
 39 41  1  0  0  0
 41 42  2  0  0  0
  9 10  1  0  0  0
 10 11  2  0  0  0
 11  1  1  0  0  0
 10  4  1  0  0  0
 18 12  1  0  0  0
 38 33  1  0  0  0
 24 25  1  0  0  0
M  END
> <minimizedAffinity>
-6.61687

> <CNNscore>
0.0642906725

> <CNNaffinity>
6.8303298950

> <CNN_VS>
0.4391264915

> <CNNaffinity_variance>
0.1877960861

$$$$
[H]C([H])=C([H])C(=O)N1C([H])([H])C([H])([H])N(C([H])([H])C([H])([H])C([H])([H])n2c(=O)c(-c3c(Cl)c(OC([H])([H])[H])c([H])c(OC([H])([H])[H])c3Cl)c([H])c3c([H])nc(N([H])C([H])([H])C([H])([H])OC([H])([H])[H])nc32)C([H])([H])C1([H])[H]


 42 45  0  0  0  0  0  0  0  0999 V2000
   -4.1884   23.6866  -27.1060 C   0  0  0  0  0  0  0  0  0  0  0  0
   -3.5707   22.5535  -27.4784 N   0  0  0  0  0  0  0  0  0  0  0  0
   -2.7473   21.9206  -26.5956 C   0  0  0  0  0  0  0  0  0  0  0  0
   -2.5759   22.4688  -25.3431 C   0  0  0  0  0  0  0  0  0  0  0  0
   -1.7692   21.8397  -24.4543 C   0  0  0  0  0  0  0  0  0  0  0  0
   -1.5962   22.3778  -23.1751 C   0  0  0  0  0  0  0  0  0  0  0  0
   -2.2410   23.5348  -22.8265 C   0  0  0  0  0  0  0  0  0  0  0  0
   -2.0622   23.9971  -21.6508 O   0  0  0  0  0  0  0  0  0  0  0  0
   -3.0435   24.1647  -23.7070 N   0  0  0  0  0  0  0  0  0  0  0  0
   -3.2116   23.6467  -24.9421 C   0  0  0  0  0  0  0  0  0  0  0  0
   -4.0025   24.1969  -25.8801 N   0  0  0  0  0  0  0  0  0  0  0  0
   -0.6921   21.6245  -22.3202 C   0  0  0  0  0  0  0  0  0  0  0  0
    0.6281   21.4263  -22.6633 C   0  0  0  0  0  0  0  0  0  0  0  0
    1.2218   22.0813  -24.1808 Cl  0  0  0  0  0  0  0  0  0  0  0  0
    1.4952   20.7209  -21.8386 C   0  0  0  0  0  0  0  0  0  0  0  0
    0.9987   20.2188  -20.6564 C   0  0  0  0  0  0  0  0  0  0  0  0
   -0.3202   20.3870  -20.2591 C   0  0  0  0  0  0  0  0  0  0  0  0
   -1.1329   21.1017  -21.1308 C   0  0  0  0  0  0  0  0  0  0  0  0
   -2.8000   21.3260  -20.6489 Cl  0  0  0  0  0  0  0  0  0  0  0  0
    2.8077   20.5647  -22.2547 O   0  0  0  0  0  0  0  0  0  0  0  0
    3.3765   19.2736  -22.1268 C   0  0  0  0  0  0  0  0  0  0  0  0
   -0.8009   19.8729  -19.0623 O   0  0  0  0  0  0  0  0  0  0  0  0
   -0.2710   18.6353  -18.6291 C   0  0  0  0  0  0  0  0  0  0  0  0
   -5.0432   24.3345  -28.0488 N   0  0  0  0  0  0  0  0  0  0  0  0
   -5.8774   23.8893  -28.4595 H   0  0  0  0  0  0  0  0  0  0  0  0
   -4.7203   25.7016  -28.4543 C   0  0  0  0  0  0  0  0  0  0  0  0
   -4.1019   25.7279  -29.8138 C   0  0  0  0  0  0  0  0  0  0  0  0
   -5.6163   25.3348  -31.4874 C   0  0  0  0  0  0  0  0  0  0  0  0
   -5.0176   26.3186  -30.6928 O   0  0  0  0  0  0  0  0  0  0  0  0
   -3.7579   25.3503  -23.3425 C   0  0  0  0  0  0  0  0  0  0  0  0
   -5.2294   25.2390  -23.2345 C   0  0  0  0  0  0  0  0  0  0  0  0
   -5.6830   23.9686  -22.6038 C   0  0  0  0  0  0  0  0  0  0  0  0
   -5.8262   24.0910  -21.1659 N   0  0  0  0  0  0  0  0  0  0  0  0
   -6.1435   22.7808  -20.6319 C   0  0  0  0  0  0  0  0  0  0  0  0
   -7.0032   22.9490  -19.3719 C   0  0  0  0  0  0  0  0  0  0  0  0
   -6.4731   24.0914  -18.6982 N   0  0  0  0  0  0  0  0  0  0  0  0
   -6.8536   25.3801  -19.3548 C   0  0  0  0  0  0  0  0  0  0  0  0
   -6.7681   25.1122  -20.8550 C   0  0  0  0  0  0  0  0  0  0  0  0
   -5.6623   24.1252  -17.5970 C   0  0  0  0  0  0  0  0  0  0  0  0
   -5.3868   25.3604  -17.1728 O   0  0  0  0  0  0  0  0  0  0  0  0
   -5.0255   23.1443  -16.7729 C   0  0  0  0  0  0  0  0  0  0  0  0
   -3.7799   22.7443  -16.7935 C   0  0  0  0  0  0  0  0  0  0  0  0
 28 29  1  0  0  0
 29 27  1  0  0  0
 27 26  1  0  0  0
 26 24  1  0  0  0
 24  1  1  0  0  0
  1  2  2  0  0  0
  2  3  1  0  0  0
  3  4  2  0  0  0
  4  5  1  0  0  0
  5  6  2  0  0  0
  6 12  1  0  0  0
 12 13  2  0  0  0
 13 14  1  0  0  0
 13 15  1  0  0  0
 15 20  1  0  0  0
 20 21  1  0  0  0
 15 16  2  0  0  0
 16 17  1  0  0  0
 17 22  1  0  0  0
 22 23  1  0  0  0
 17 18  2  0  0  0
 18 19  1  0  0  0
  6  7  1  0  0  0
  7  8  2  0  0  0
  7  9  1  0  0  0
  9 30  1  0  0  0
 30 31  1  0  0  0
 31 32  1  0  0  0
 32 33  1  0  0  0
 33 34  1  0  0  0
 34 35  1  0  0  0
 35 36  1  0  0  0
 36 37  1  0  0  0
 37 38  1  0  0  0
 36 39  1  0  0  0
 39 40  2  0  0  0
 39 41  1  0  0  0
 41 42  2  0  0  0
  9 10  1  0  0  0
 10 11  2  0  0  0
 11  1  1  0  0  0
 10  4  1  0  0  0
 18 12  1  0  0  0
 38 33  1  0  0  0
 24 25  1  0  0  0
M  END
> <minimizedAffinity>
-7.36392

> <CNNscore>
0.0636255667

> <CNNaffinity>
6.7798218727

> <CNN_VS>
0.4313700199

> <CNNaffinity_variance>
0.5617686510

$$$$
[H]C([H])=C([H])C(=O)N1C([H])([H])C([H])([H])N(C([H])([H])C([H])([H])C([H])([H])n2c(=O)c(-c3c(Cl)c(OC([H])([H])[H])c([H])c(OC([H])([H])[H])c3Cl)c([H])c3c([H])nc(N([H])C([H])([H])C([H])([H])OC([H])([H])[H])nc32)C([H])([H])C1([H])[H]


 42 45  0  0  0  0  0  0  0  0999 V2000
   -8.1459   21.2692  -19.0794 C   0  0  0  0  0  0  0  0  0  0  0  0
   -8.8018   21.0886  -20.2375 N   0  0  0  0  0  0  0  0  0  0  0  0
   -8.2177   21.4826  -21.4044 C   0  0  0  0  0  0  0  0  0  0  0  0
   -6.9659   22.0566  -21.3551 C   0  0  0  0  0  0  0  0  0  0  0  0
   -6.3719   22.4398  -22.5113 C   0  0  0  0  0  0  0  0  0  0  0  0
   -5.0962   23.0118  -22.4776 C   0  0  0  0  0  0  0  0  0  0  0  0
   -4.4540   23.1817  -21.2798 C   0  0  0  0  0  0  0  0  0  0  0  0
   -3.2904   23.7052  -21.2855 O   0  0  0  0  0  0  0  0  0  0  0  0
   -5.0408   22.8032  -20.1272 N   0  0  0  0  0  0  0  0  0  0  0  0
   -6.2721   22.2509  -20.1580 C   0  0  0  0  0  0  0  0  0  0  0  0
   -6.9284   21.8307  -19.0623 N   0  0  0  0  0  0  0  0  0  0  0  0
   -4.5737   23.4000  -23.7783 C   0  0  0  0  0  0  0  0  0  0  0  0
   -4.9537   24.5773  -24.3864 C   0  0  0  0  0  0  0  0  0  0  0  0
   -6.1139   25.6185  -23.5776 Cl  0  0  0  0  0  0  0  0  0  0  0  0
   -4.4418   24.9556  -25.6211 C   0  0  0  0  0  0  0  0  0  0  0  0
   -3.5352   24.1168  -26.2301 C   0  0  0  0  0  0  0  0  0  0  0  0
   -3.1162   22.9203  -25.6659 C   0  0  0  0  0  0  0  0  0  0  0  0
   -3.6677   22.6027  -24.4305 C   0  0  0  0  0  0  0  0  0  0  0  0
   -3.1524   21.0981  -23.7008 Cl  0  0  0  0  0  0  0  0  0  0  0  0
   -4.8739   26.1541  -26.1661 O   0  0  0  0  0  0  0  0  0  0  0  0
   -5.4750   26.1012  -27.4478 C   0  0  0  0  0  0  0  0  0  0  0  0
   -2.2003   22.0887  -26.2964 O   0  0  0  0  0  0  0  0  0  0  0  0
   -1.4792   22.6278  -27.3872 C   0  0  0  0  0  0  0  0  0  0  0  0
   -8.7790   20.8523  -17.8692 N   0  0  0  0  0  0  0  0  0  0  0  0
   -9.0899   19.8851  -17.6941 H   0  0  0  0  0  0  0  0  0  0  0  0
   -8.9987   21.8482  -16.8214 C   0  0  0  0  0  0  0  0  0  0  0  0
   -8.2779   21.4774  -15.5667 C   0  0  0  0  0  0  0  0  0  0  0  0
   -8.0509   23.1174  -13.9831 C   0  0  0  0  0  0  0  0  0  0  0  0
   -8.9025   22.1350  -14.5001 O   0  0  0  0  0  0  0  0  0  0  0  0
   -4.3641   22.9343  -18.8727 C   0  0  0  0  0  0  0  0  0  0  0  0
   -3.4130   21.8606  -18.5094 C   0  0  0  0  0  0  0  0  0  0  0  0
   -3.6274   21.3173  -17.1397 C   0  0  0  0  0  0  0  0  0  0  0  0
   -4.5765   20.2208  -17.1273 N   0  0  0  0  0  0  0  0  0  0  0  0
   -4.3670   19.4579  -15.9121 C   0  0  0  0  0  0  0  0  0  0  0  0
   -4.7366   17.9913  -16.1723 C   0  0  0  0  0  0  0  0  0  0  0  0
   -5.8831   18.0321  -17.0233 N   0  0  0  0  0  0  0  0  0  0  0  0
   -5.5447   18.3907  -18.4352 C   0  0  0  0  0  0  0  0  0  0  0  0
   -4.4725   19.4723  -18.3337 C   0  0  0  0  0  0  0  0  0  0  0  0
   -7.1938   17.8285  -16.6894 C   0  0  0  0  0  0  0  0  0  0  0  0
   -8.0258   17.8786  -17.7319 O   0  0  0  0  0  0  0  0  0  0  0  0
   -7.9053   17.5702  -15.4754 C   0  0  0  0  0  0  0  0  0  0  0  0
   -7.8102   18.1874  -14.3257 C   0  0  0  0  0  0  0  0  0  0  0  0
 28 29  1  0  0  0
 29 27  1  0  0  0
 27 26  1  0  0  0
 26 24  1  0  0  0
 24  1  1  0  0  0
  1  2  2  0  0  0
  2  3  1  0  0  0
  3  4  2  0  0  0
  4  5  1  0  0  0
  5  6  2  0  0  0
  6 12  1  0  0  0
 12 13  2  0  0  0
 13 14  1  0  0  0
 13 15  1  0  0  0
 15 20  1  0  0  0
 20 21  1  0  0  0
 15 16  2  0  0  0
 16 17  1  0  0  0
 17 22  1  0  0  0
 22 23  1  0  0  0
 17 18  2  0  0  0
 18 19  1  0  0  0
  6  7  1  0  0  0
  7  8  2  0  0  0
  7  9  1  0  0  0
  9 30  1  0  0  0
 30 31  1  0  0  0
 31 32  1  0  0  0
 32 33  1  0  0  0
 33 34  1  0  0  0
 34 35  1  0  0  0
 35 36  1  0  0  0
 36 37  1  0  0  0
 37 38  1  0  0  0
 36 39  1  0  0  0
 39 40  2  0  0  0
 39 41  1  0  0  0
 41 42  2  0  0  0
  9 10  1  0  0  0
 10 11  2  0  0  0
 11  1  1  0  0  0
 10  4  1  0  0  0
 18 12  1  0  0  0
 38 33  1  0  0  0
 24 25  1  0  0  0
M  END
> <minimizedAffinity>
-5.52898

> <CNNscore>
0.0619362779

> <CNNaffinity>
5.9575281143

> <CNN_VS>
0.3689871132

> <CNNaffinity_variance>
0.3756670356

$$$$
[H]C([H])=C([H])C(=O)N1C([H])([H])C([H])([H])N(C([H])([H])C([H])([H])C([H])([H])n2c(=O)c(-c3c(Cl)c(OC([H])([H])[H])c([H])c(OC([H])([H])[H])c3Cl)c([H])c3c([H])nc(N([H])C([H])([H])C([H])([H])OC([H])([H])[H])nc32)C([H])([H])C1([H])[H]


 42 45  0  0  0  0  0  0  0  0999 V2000
   -4.0796   23.6212  -27.3901 C   0  0  0  0  0  0  0  0  0  0  0  0
   -3.4266   22.4874  -27.6934 N   0  0  0  0  0  0  0  0  0  0  0  0
   -2.6570   21.8852  -26.7431 C   0  0  0  0  0  0  0  0  0  0  0  0
   -2.5750   22.4645  -25.4955 C   0  0  0  0  0  0  0  0  0  0  0  0
   -1.8225   21.8661  -24.5405 C   0  0  0  0  0  0  0  0  0  0  0  0
   -1.7405   22.4359  -23.2659 C   0  0  0  0  0  0  0  0  0  0  0  0
   -2.4193   23.5929  -22.9887 C   0  0  0  0  0  0  0  0  0  0  0  0
   -2.3238   24.0846  -21.8152 O   0  0  0  0  0  0  0  0  0  0  0  0
   -3.1682   24.1922  -23.9353 N   0  0  0  0  0  0  0  0  0  0  0  0
   -3.2483   23.6436  -25.1659 C   0  0  0  0  0  0  0  0  0  0  0  0
   -3.9810   24.1621  -26.1671 N   0  0  0  0  0  0  0  0  0  0  0  0
   -0.8873   21.7138  -22.3352 C   0  0  0  0  0  0  0  0  0  0  0  0
   -1.3768   21.2119  -21.1483 C   0  0  0  0  0  0  0  0  0  0  0  0
   -3.0659   21.4733  -20.7447 Cl  0  0  0  0  0  0  0  0  0  0  0  0
   -0.5656   20.5081  -20.2675 C   0  0  0  0  0  0  0  0  0  0  0  0
    0.7546   20.3214  -20.6122 C   0  0  0  0  0  0  0  0  0  0  0  0
    1.3022   20.8033  -21.7926 C   0  0  0  0  0  0  0  0  0  0  0  0
    0.4356   21.4984  -22.6275 C   0  0  0  0  0  0  0  0  0  0  0  0
    1.1057   22.1145  -24.1219 Cl  0  0  0  0  0  0  0  0  0  0  0  0
   -1.1329   20.0360  -19.0947 O   0  0  0  0  0  0  0  0  0  0  0  0
   -0.7561   18.7374  -18.6721 C   0  0  0  0  0  0  0  0  0  0  0  0
    2.6362   20.6037  -22.1219 O   0  0  0  0  0  0  0  0  0  0  0  0
    3.6064   21.0468  -21.1931 C   0  0  0  0  0  0  0  0  0  0  0  0
   -4.8768   24.2365  -28.4027 N   0  0  0  0  0  0  0  0  0  0  0  0
   -5.0664   25.2491  -28.4398 H   0  0  0  0  0  0  0  0  0  0  0  0
   -5.4553   23.3874  -29.4428 C   0  0  0  0  0  0  0  0  0  0  0  0
   -5.7164   24.1665  -30.6903 C   0  0  0  0  0  0  0  0  0  0  0  0
   -5.4825   26.3705  -31.2704 C   0  0  0  0  0  0  0  0  0  0  0  0
   -4.8437   25.2612  -30.7057 O   0  0  0  0  0  0  0  0  0  0  0  0
   -3.9177   25.3773  -23.6474 C   0  0  0  0  0  0  0  0  0  0  0  0
   -5.3615   25.2062  -23.3729 C   0  0  0  0  0  0  0  0  0  0  0  0
   -5.6895   23.9153  -22.7071 C   0  0  0  0  0  0  0  0  0  0  0  0
   -5.8826   24.0691  -21.2780 N   0  0  0  0  0  0  0  0  0  0  0  0
   -6.3742   22.8104  -20.7522 C   0  0  0  0  0  0  0  0  0  0  0  0
   -7.2648   23.0909  -19.5342 C   0  0  0  0  0  0  0  0  0  0  0  0
   -6.6362   24.1713  -18.8429 N   0  0  0  0  0  0  0  0  0  0  0  0
   -6.8337   25.4883  -19.5235 C   0  0  0  0  0  0  0  0  0  0  0  0
   -6.7121   25.1961  -21.0166 C   0  0  0  0  0  0  0  0  0  0  0  0
   -5.8779   24.1226  -17.7056 C   0  0  0  0  0  0  0  0  0  0  0  0
   -5.4797   25.3219  -17.2758 O   0  0  0  0  0  0  0  0  0  0  0  0
   -5.3978   23.0833  -16.8475 C   0  0  0  0  0  0  0  0  0  0  0  0
   -4.2118   22.5315  -16.8176 C   0  0  0  0  0  0  0  0  0  0  0  0
 28 29  1  0  0  0
 29 27  1  0  0  0
 27 26  1  0  0  0
 26 24  1  0  0  0
 24  1  1  0  0  0
  1  2  2  0  0  0
  2  3  1  0  0  0
  3  4  2  0  0  0
  4  5  1  0  0  0
  5  6  2  0  0  0
  6 12  1  0  0  0
 12 13  2  0  0  0
 13 14  1  0  0  0
 13 15  1  0  0  0
 15 20  1  0  0  0
 20 21  1  0  0  0
 15 16  2  0  0  0
 16 17  1  0  0  0
 17 22  1  0  0  0
 22 23  1  0  0  0
 17 18  2  0  0  0
 18 19  1  0  0  0
  6  7  1  0  0  0
  7  8  2  0  0  0
  7  9  1  0  0  0
  9 30  1  0  0  0
 30 31  1  0  0  0
 31 32  1  0  0  0
 32 33  1  0  0  0
 33 34  1  0  0  0
 34 35  1  0  0  0
 35 36  1  0  0  0
 36 37  1  0  0  0
 37 38  1  0  0  0
 36 39  1  0  0  0
 39 40  2  0  0  0
 39 41  1  0  0  0
 41 42  2  0  0  0
  9 10  1  0  0  0
 10 11  2  0  0  0
 11  1  1  0  0  0
 10  4  1  0  0  0
 18 12  1  0  0  0
 38 33  1  0  0  0
 24 25  1  0  0  0
M  END
> <minimizedAffinity>
-7.54362

> <CNNscore>
0.0611062534

> <CNNaffinity>
6.9017167091

> <CNN_VS>
0.4217380583

> <CNNaffinity_variance>
0.4150015712

$$$$
[H]C([H])=C([H])C(=O)N1C([H])([H])C([H])([H])N(C([H])([H])C([H])([H])C([H])([H])n2c(=O)c(-c3c(Cl)c(OC([H])([H])[H])c([H])c(OC([H])([H])[H])c3Cl)c([H])c3c([H])nc(N([H])C([H])([H])C([H])([H])OC([H])([H])[H])nc32)C([H])([H])C1([H])[H]


 42 45  0  0  0  0  0  0  0  0999 V2000
   -8.1181   21.2749  -19.1294 C   0  0  0  0  0  0  0  0  0  0  0  0
   -8.7819   21.1106  -20.2854 N   0  0  0  0  0  0  0  0  0  0  0  0
   -8.1967   21.5011  -21.4529 C   0  0  0  0  0  0  0  0  0  0  0  0
   -6.9357   22.0548  -21.4065 C   0  0  0  0  0  0  0  0  0  0  0  0
   -6.3408   22.4344  -22.5634 C   0  0  0  0  0  0  0  0  0  0  0  0
   -5.0560   22.9859  -22.5325 C   0  0  0  0  0  0  0  0  0  0  0  0
   -4.4058   23.1395  -21.3368 C   0  0  0  0  0  0  0  0  0  0  0  0
   -3.2341   23.6444  -21.3450 O   0  0  0  0  0  0  0  0  0  0  0  0
   -4.9936   22.7645  -20.1835 N   0  0  0  0  0  0  0  0  0  0  0  0
   -6.2336   22.2321  -20.2115 C   0  0  0  0  0  0  0  0  0  0  0  0
   -6.8917   21.8169  -19.1149 N   0  0  0  0  0  0  0  0  0  0  0  0
   -4.5331   23.3723  -23.8336 C   0  0  0  0  0  0  0  0  0  0  0  0
   -4.8978   24.5580  -24.4346 C   0  0  0  0  0  0  0  0  0  0  0  0
   -6.0389   25.6126  -23.6162 Cl  0  0  0  0  0  0  0  0  0  0  0  0
   -4.3854   24.9343  -25.6697 C   0  0  0  0  0  0  0  0  0  0  0  0
   -3.4941   24.0848  -26.2864 C   0  0  0  0  0  0  0  0  0  0  0  0
   -3.0907   22.8795  -25.7295 C   0  0  0  0  0  0  0  0  0  0  0  0
   -3.6418   22.5644  -24.4932 C   0  0  0  0  0  0  0  0  0  0  0  0
   -3.1463   21.0489  -23.7727 Cl  0  0  0  0  0  0  0  0  0  0  0  0
   -4.8017   26.1416  -26.2074 O   0  0  0  0  0  0  0  0  0  0  0  0
   -5.4845   26.0950  -27.4478 C   0  0  0  0  0  0  0  0  0  0  0  0
   -2.1901   22.0372  -26.3677 O   0  0  0  0  0  0  0  0  0  0  0  0
   -0.8220   22.3921  -26.3156 C   0  0  0  0  0  0  0  0  0  0  0  0
   -8.7524   20.8620  -17.9184 N   0  0  0  0  0  0  0  0  0  0  0  0
   -8.2982   20.2606  -17.2151 H   0  0  0  0  0  0  0  0  0  0  0  0
  -10.1183   21.3153  -17.6603 C   0  0  0  0  0  0  0  0  0  0  0  0
  -10.2659   21.8081  -16.2579 C   0  0  0  0  0  0  0  0  0  0  0  0
   -8.9910   22.4104  -14.4521 C   0  0  0  0  0  0  0  0  0  0  0  0
   -9.0442   21.6150  -15.6020 O   0  0  0  0  0  0  0  0  0  0  0  0
   -4.3094   22.8785  -18.9314 C   0  0  0  0  0  0  0  0  0  0  0  0
   -3.2990   21.8423  -18.6236 C   0  0  0  0  0  0  0  0  0  0  0  0
   -3.8798   20.6051  -18.0327 C   0  0  0  0  0  0  0  0  0  0  0  0
   -3.0608   19.4368  -18.2922 N   0  0  0  0  0  0  0  0  0  0  0  0
   -3.6017   18.3291  -17.5288 C   0  0  0  0  0  0  0  0  0  0  0  0
   -2.4602   17.3729  -17.1574 C   0  0  0  0  0  0  0  0  0  0  0  0
   -1.5995   17.3456  -18.2969 N   0  0  0  0  0  0  0  0  0  0  0  0
   -0.7694   18.5829  -18.4264 C   0  0  0  0  0  0  0  0  0  0  0  0
   -1.6924   19.7339  -18.0354 C   0  0  0  0  0  0  0  0  0  0  0  0
   -1.4916   16.3745  -19.2541 C   0  0  0  0  0  0  0  0  0  0  0  0
   -0.5461   16.6216  -20.1632 O   0  0  0  0  0  0  0  0  0  0  0  0
   -2.1549   15.1362  -19.5255 C   0  0  0  0  0  0  0  0  0  0  0  0
   -3.3816   14.9396  -19.9358 C   0  0  0  0  0  0  0  0  0  0  0  0
 28 29  1  0  0  0
 29 27  1  0  0  0
 27 26  1  0  0  0
 26 24  1  0  0  0
 24  1  1  0  0  0
  1  2  2  0  0  0
  2  3  1  0  0  0
  3  4  2  0  0  0
  4  5  1  0  0  0
  5  6  2  0  0  0
  6 12  1  0  0  0
 12 13  2  0  0  0
 13 14  1  0  0  0
 13 15  1  0  0  0
 15 20  1  0  0  0
 20 21  1  0  0  0
 15 16  2  0  0  0
 16 17  1  0  0  0
 17 22  1  0  0  0
 22 23  1  0  0  0
 17 18  2  0  0  0
 18 19  1  0  0  0
  6  7  1  0  0  0
  7  8  2  0  0  0
  7  9  1  0  0  0
  9 30  1  0  0  0
 30 31  1  0  0  0
 31 32  1  0  0  0
 32 33  1  0  0  0
 33 34  1  0  0  0
 34 35  1  0  0  0
 35 36  1  0  0  0
 36 37  1  0  0  0
 37 38  1  0  0  0
 36 39  1  0  0  0
 39 40  2  0  0  0
 39 41  1  0  0  0
 41 42  2  0  0  0
  9 10  1  0  0  0
 10 11  2  0  0  0
 11  1  1  0  0  0
 10  4  1  0  0  0
 18 12  1  0  0  0
 38 33  1  0  0  0
 24 25  1  0  0  0
M  END
> <minimizedAffinity>
-6.15201

> <CNNscore>
0.0489605181

> <CNNaffinity>
5.9903373718

> <CNN_VS>
0.2932900190

> <CNNaffinity_variance>
0.3427242935

$$$$
[H]C1=C(C#Cc2c([H])c(OC([H])([H])[H])c([H])c(OC([H])([H])[H])c2[H])c2c(N([H])[H])nc([H])nc2C1([H])[C@]1([H])C([H])([H])N(C(=O)/C([H])=C(\[H])C([H])([H])N(C([H])([H])[H])C([H])([H])[H])C([H])([H])C1([H])[H]


 37 40  0  0  0  0  0  0  0  0999 V2000
   -1.8309   21.8831  -24.8356 C   0  0  0  0  0  0  0  0  0  0  0  0
   -3.1102   21.9132  -25.1202 C   0  0  0  0  0  0  0  0  0  0  0  0
   -3.3705   22.3605  -26.5182 C   0  0  0  0  0  0  0  0  0  0  0  0
   -2.0134   22.5932  -27.0403 C   0  0  0  0  0  0  0  0  0  0  0  0
   -1.4972   23.0007  -28.2265 N   0  0  0  0  0  0  0  0  0  0  0  0
   -0.1862   23.1371  -28.4615 C   0  0  0  0  0  0  0  0  0  0  0  0
    0.6767   22.8569  -27.4718 N   0  0  0  0  0  0  0  0  0  0  0  0
    0.2543   22.4517  -26.2796 C   0  0  0  0  0  0  0  0  0  0  0  0
    1.1298   22.1437  -25.2025 N   0  0  0  0  0  0  0  0  0  0  0  0
   -1.1178   22.3102  -26.0382 C   0  0  0  0  0  0  0  0  0  0  0  0
    1.5263   22.9334  -24.6600 H   0  0  0  0  0  0  0  0  0  0  0  0
    1.3931   21.1794  -24.9296 H   0  0  0  0  0  0  0  0  0  0  0  0
   -4.2523   23.5516  -26.4594 C   0  0  0  0  0  0  0  0  0  0  0  0
   -5.4410   23.4936  -27.4188 C   0  0  0  0  0  0  0  0  0  0  0  0
   -6.3091   24.5395  -26.7826 C   0  0  0  0  0  0  0  0  0  0  0  0
   -6.2033   24.2648  -25.3603 N   0  0  0  0  0  0  0  0  0  0  0  0
   -4.8975   23.7395  -25.1132 C   0  0  0  0  0  0  0  0  0  0  0  0
   -7.2954   24.5094  -24.4931 C   0  0  0  0  0  0  0  0  0  0  0  0
   -8.4204   24.9205  -25.0243 O   0  0  0  0  0  0  0  0  0  0  0  0
   -7.3265   24.3618  -23.0703 C   0  0  0  0  0  0  0  0  0  0  0  0
   -7.3494   23.2701  -22.3488 C   0  0  0  0  0  0  0  0  0  0  0  0
   -7.3832   23.3071  -20.8449 C   0  0  0  0  0  0  0  0  0  0  0  0
   -6.2013   23.9805  -20.3497 N   0  0  0  0  0  0  0  0  0  0  0  0
   -6.6159   24.9672  -19.3779 C   0  0  0  0  0  0  0  0  0  0  0  0
   -5.2139   23.0665  -19.8571 C   0  0  0  0  0  0  0  0  0  0  0  0
   -0.7200   21.1818  -22.5220 C   0  0  0  0  0  0  0  0  0  0  0  0
   -1.2334   21.4969  -23.5709 C   0  0  0  0  0  0  0  0  0  0  0  0
    0.9057   21.3539  -19.1495 C   0  0  0  0  0  0  0  0  0  0  0  0
    1.1252   20.0133  -18.9204 C   0  0  0  0  0  0  0  0  0  0  0  0
    0.7552   19.0414  -19.8426 C   0  0  0  0  0  0  0  0  0  0  0  0
    0.1531   19.4763  -21.0088 C   0  0  0  0  0  0  0  0  0  0  0  0
   -0.0893   20.8064  -21.2868 C   0  0  0  0  0  0  0  0  0  0  0  0
    0.3011   21.7252  -20.3315 C   0  0  0  0  0  0  0  0  0  0  0  0
    2.4574   23.0618  -18.3246 C   0  0  0  0  0  0  0  0  0  0  0  0
    1.2836   22.3058  -18.2142 O   0  0  0  0  0  0  0  0  0  0  0  0
    0.9703   17.6871  -19.6249 O   0  0  0  0  0  0  0  0  0  0  0  0
    0.6666   16.7835  -20.6734 C   0  0  0  0  0  0  0  0  0  0  0  0
 34 35  1  0  0  0
 35 28  1  0  0  0
 28 29  2  0  0  0
 29 30  1  0  0  0
 30 36  1  0  0  0
 36 37  1  0  0  0
 30 31  2  0  0  0
 31 32  1  0  0  0
 32 33  2  0  0  0
 32 26  1  0  0  0
 26 27  3  0  0  0
 27  1  1  0  0  0
  1  2  2  0  0  0
  2  3  1  0  0  0
  3 13  1  0  0  0
 13 14  1  0  0  0
 14 15  1  0  0  0
 15 16  1  0  0  0
 16 17  1  0  0  0
 16 18  1  0  0  0
 18 19  2  0  0  0
 18 20  1  0  0  0
 20 21  2  0  0  0
 21 22  1  0  0  0
 22 23  1  0  0  0
 23 24  1  0  0  0
 23 25  1  0  0  0
  3  4  1  0  0  0
  4  5  2  0  0  0
  5  6  1  0  0  0
  6  7  2  0  0  0
  7  8  1  0  0  0
  8  9  1  0  0  0
  8 10  2  0  0  0
 33 28  1  0  0  0
 10  1  1  0  0  0
 17 13  1  0  0  0
 10  4  1  0  0  0
  9 11  1  0  0  0
  9 12  1  0  0  0
M  END
> <minimizedAffinity>
-8.63869

> <CNNscore>
0.5766508579

> <CNNaffinity>
7.2486572266

> <CNN_VS>
4.1799445152

> <CNNaffinity_variance>
0.1608344615

$$$$
[H]C1=C(C#Cc2c([H])c(OC([H])([H])[H])c([H])c(OC([H])([H])[H])c2[H])c2c(N([H])[H])nc([H])nc2C1([H])[C@]1([H])C([H])([H])N(C(=O)/C([H])=C(\[H])C([H])([H])N(C([H])([H])[H])C([H])([H])[H])C([H])([H])C1([H])[H]


 37 40  0  0  0  0  0  0  0  0999 V2000
   -1.2789   21.4505  -23.3487 C   0  0  0  0  0  0  0  0  0  0  0  0
   -2.5842   21.3913  -23.2437 C   0  0  0  0  0  0  0  0  0  0  0  0
   -3.2729   21.7458  -24.5174 C   0  0  0  0  0  0  0  0  0  0  0  0
   -2.1479   22.0275  -25.4248 C   0  0  0  0  0  0  0  0  0  0  0  0
   -2.0313   22.3986  -26.7241 N   0  0  0  0  0  0  0  0  0  0  0  0
   -0.8595   22.5973  -27.3404 C   0  0  0  0  0  0  0  0  0  0  0  0
    0.2727   22.4217  -26.6404 N   0  0  0  0  0  0  0  0  0  0  0  0
    0.2472   22.0585  -25.3631 C   0  0  0  0  0  0  0  0  0  0  0  0
    1.4189   21.8608  -24.5823 N   0  0  0  0  0  0  0  0  0  0  0  0
   -0.9807   21.8517  -24.7225 C   0  0  0  0  0  0  0  0  0  0  0  0
    1.8994   22.7005  -24.2094 H   0  0  0  0  0  0  0  0  0  0  0  0
    1.8184   20.9297  -24.3656 H   0  0  0  0  0  0  0  0  0  0  0  0
   -4.1814   22.8856  -24.2429 C   0  0  0  0  0  0  0  0  0  0  0  0
   -3.5330   24.0213  -23.4514 C   0  0  0  0  0  0  0  0  0  0  0  0
   -4.5095   25.1165  -23.7669 C   0  0  0  0  0  0  0  0  0  0  0  0
   -4.7689   24.9562  -25.1869 N   0  0  0  0  0  0  0  0  0  0  0  0
   -4.6680   23.5643  -25.4946 C   0  0  0  0  0  0  0  0  0  0  0  0
   -5.0428   26.0797  -26.0037 C   0  0  0  0  0  0  0  0  0  0  0  0
   -4.9832   27.2673  -25.4533 O   0  0  0  0  0  0  0  0  0  0  0  0
   -5.3876   26.0826  -27.3923 C   0  0  0  0  0  0  0  0  0  0  0  0
   -4.7235   25.6050  -28.4139 C   0  0  0  0  0  0  0  0  0  0  0  0
   -5.2461   25.7010  -29.8217 C   0  0  0  0  0  0  0  0  0  0  0  0
   -5.9455   24.4805  -30.1636 N   0  0  0  0  0  0  0  0  0  0  0  0
   -6.1027   24.4356  -31.6000 C   0  0  0  0  0  0  0  0  0  0  0  0
   -5.3167   23.3152  -29.6163 C   0  0  0  0  0  0  0  0  0  0  0  0
    0.4810   20.9338  -21.4214 C   0  0  0  0  0  0  0  0  0  0  0  0
   -0.3119   21.1690  -22.3040 C   0  0  0  0  0  0  0  0  0  0  0  0
    2.4256   19.1744  -18.7439 C   0  0  0  0  0  0  0  0  0  0  0  0
    3.2208   20.2102  -18.3050 C   0  0  0  0  0  0  0  0  0  0  0  0
    3.1425   21.4815  -18.8615 C   0  0  0  0  0  0  0  0  0  0  0  0
    2.2277   21.6675  -19.8814 C   0  0  0  0  0  0  0  0  0  0  0  0
    1.4083   20.6639  -20.3575 C   0  0  0  0  0  0  0  0  0  0  0  0
    1.5325   19.4222  -19.7643 C   0  0  0  0  0  0  0  0  0  0  0  0
    2.0068   16.7601  -18.7773 C   0  0  0  0  0  0  0  0  0  0  0  0
    2.5216   17.9140  -18.1731 O   0  0  0  0  0  0  0  0  0  0  0  0
    3.9375   22.5346  -18.4292 O   0  0  0  0  0  0  0  0  0  0  0  0
    3.3187   23.5942  -17.7207 C   0  0  0  0  0  0  0  0  0  0  0  0
 34 35  1  0  0  0
 35 28  1  0  0  0
 28 29  2  0  0  0
 29 30  1  0  0  0
 30 36  1  0  0  0
 36 37  1  0  0  0
 30 31  2  0  0  0
 31 32  1  0  0  0
 32 33  2  0  0  0
 32 26  1  0  0  0
 26 27  3  0  0  0
 27  1  1  0  0  0
  1  2  2  0  0  0
  2  3  1  0  0  0
  3 13  1  0  0  0
 13 14  1  0  0  0
 14 15  1  0  0  0
 15 16  1  0  0  0
 16 17  1  0  0  0
 16 18  1  0  0  0
 18 19  2  0  0  0
 18 20  1  0  0  0
 20 21  2  0  0  0
 21 22  1  0  0  0
 22 23  1  0  0  0
 23 24  1  0  0  0
 23 25  1  0  0  0
  3  4  1  0  0  0
  4  5  2  0  0  0
  5  6  1  0  0  0
  6  7  2  0  0  0
  7  8  1  0  0  0
  8  9  1  0  0  0
  8 10  2  0  0  0
 33 28  1  0  0  0
 10  1  1  0  0  0
 17 13  1  0  0  0
 10  4  1  0  0  0
  9 11  1  0  0  0
  9 12  1  0  0  0
M  END
> <minimizedAffinity>
-8.39064

> <CNNscore>
0.5511555076

> <CNNaffinity>
7.3392882347

> <CNN_VS>
4.0450892448

> <CNNaffinity_variance>
0.1927755028

$$$$
[H]C1=C(C#Cc2c([H])c(OC([H])([H])[H])c([H])c(OC([H])([H])[H])c2[H])c2c(N([H])[H])nc([H])nc2C1([H])[C@]1([H])C([H])([H])N(C(=O)/C([H])=C(\[H])C([H])([H])N(C([H])([H])[H])C([H])([H])[H])C([H])([H])C1([H])[H]


 37 40  0  0  0  0  0  0  0  0999 V2000
   -1.8433   21.8706  -24.8067 C   0  0  0  0  0  0  0  0  0  0  0  0
   -3.1202   21.9068  -25.1013 C   0  0  0  0  0  0  0  0  0  0  0  0
   -3.3678   22.3635  -26.4986 C   0  0  0  0  0  0  0  0  0  0  0  0
   -2.0058   22.5948  -27.0084 C   0  0  0  0  0  0  0  0  0  0  0  0
   -1.4788   23.0078  -28.1879 N   0  0  0  0  0  0  0  0  0  0  0  0
   -0.1655   23.1412  -28.4116 C   0  0  0  0  0  0  0  0  0  0  0  0
    0.6885   22.8519  -27.4169 N   0  0  0  0  0  0  0  0  0  0  0  0
    0.2552   22.4409  -26.2305 C   0  0  0  0  0  0  0  0  0  0  0  0
    1.1211   22.1234  -25.1484 N   0  0  0  0  0  0  0  0  0  0  0  0
   -1.1192   22.3027  -26.0010 C   0  0  0  0  0  0  0  0  0  0  0  0
    1.5159   22.9083  -24.5980 H   0  0  0  0  0  0  0  0  0  0  0  0
    1.3790   21.1566  -24.8794 H   0  0  0  0  0  0  0  0  0  0  0  0
   -4.2460   23.5573  -26.4395 C   0  0  0  0  0  0  0  0  0  0  0  0
   -5.4230   23.5125  -27.4139 C   0  0  0  0  0  0  0  0  0  0  0  0
   -6.2952   24.5556  -26.7786 C   0  0  0  0  0  0  0  0  0  0  0  0
   -6.2079   24.2674  -25.3578 N   0  0  0  0  0  0  0  0  0  0  0  0
   -4.9071   23.7350  -25.0996 C   0  0  0  0  0  0  0  0  0  0  0  0
   -7.3097   24.5079  -24.5018 C   0  0  0  0  0  0  0  0  0  0  0  0
   -8.4266   24.9280  -25.0428 O   0  0  0  0  0  0  0  0  0  0  0  0
   -7.3588   24.3472  -23.0809 C   0  0  0  0  0  0  0  0  0  0  0  0
   -7.3288   23.2503  -22.3675 C   0  0  0  0  0  0  0  0  0  0  0  0
   -7.3935   23.2731  -20.8644 C   0  0  0  0  0  0  0  0  0  0  0  0
   -6.2327   23.9605  -20.3395 N   0  0  0  0  0  0  0  0  0  0  0  0
   -6.5682   24.4845  -19.0345 C   0  0  0  0  0  0  0  0  0  0  0  0
   -5.0584   23.1396  -20.3459 C   0  0  0  0  0  0  0  0  0  0  0  0
   -0.7541   21.1536  -22.4876 C   0  0  0  0  0  0  0  0  0  0  0  0
   -1.2572   21.4746  -23.5397 C   0  0  0  0  0  0  0  0  0  0  0  0
    0.7895   19.1166  -19.7465 C   0  0  0  0  0  0  0  0  0  0  0  0
    1.0590   20.1107  -18.8316 C   0  0  0  0  0  0  0  0  0  0  0  0
    0.7497   21.4422  -19.0829 C   0  0  0  0  0  0  0  0  0  0  0  0
    0.1557   21.7326  -20.2973 C   0  0  0  0  0  0  0  0  0  0  0  0
   -0.1353   20.7747  -21.2475 C   0  0  0  0  0  0  0  0  0  0  0  0
    0.1959   19.4691  -20.9397 C   0  0  0  0  0  0  0  0  0  0  0  0
    0.9574   16.7633  -20.4093 C   0  0  0  0  0  0  0  0  0  0  0  0
    1.1074   17.7945  -19.4734 O   0  0  0  0  0  0  0  0  0  0  0  0
    1.0155   22.4543  -18.1703 O   0  0  0  0  0  0  0  0  0  0  0  0
    2.1434   23.2815  -18.3970 C   0  0  0  0  0  0  0  0  0  0  0  0
 34 35  1  0  0  0
 35 28  1  0  0  0
 28 29  2  0  0  0
 29 30  1  0  0  0
 30 36  1  0  0  0
 36 37  1  0  0  0
 30 31  2  0  0  0
 31 32  1  0  0  0
 32 33  2  0  0  0
 32 26  1  0  0  0
 26 27  3  0  0  0
 27  1  1  0  0  0
  1  2  2  0  0  0
  2  3  1  0  0  0
  3 13  1  0  0  0
 13 14  1  0  0  0
 14 15  1  0  0  0
 15 16  1  0  0  0
 16 17  1  0  0  0
 16 18  1  0  0  0
 18 19  2  0  0  0
 18 20  1  0  0  0
 20 21  2  0  0  0
 21 22  1  0  0  0
 22 23  1  0  0  0
 23 24  1  0  0  0
 23 25  1  0  0  0
  3  4  1  0  0  0
  4  5  2  0  0  0
  5  6  1  0  0  0
  6  7  2  0  0  0
  7  8  1  0  0  0
  8  9  1  0  0  0
  8 10  2  0  0  0
 33 28  1  0  0  0
 10  1  1  0  0  0
 17 13  1  0  0  0
 10  4  1  0  0  0
  9 11  1  0  0  0
  9 12  1  0  0  0
M  END
> <minimizedAffinity>
-8.60797

> <CNNscore>
0.5471362472

> <CNNaffinity>
7.2157058716

> <CNN_VS>
3.9479742050

> <CNNaffinity_variance>
0.1722512841

$$$$
[H]C1=C(C#Cc2c([H])c(OC([H])([H])[H])c([H])c(OC([H])([H])[H])c2[H])c2c(N([H])[H])nc([H])nc2C1([H])[C@]1([H])C([H])([H])N(C(=O)/C([H])=C(\[H])C([H])([H])N(C([H])([H])[H])C([H])([H])[H])C([H])([H])C1([H])[H]


 37 40  0  0  0  0  0  0  0  0999 V2000
   -1.3624   21.5193  -23.3402 C   0  0  0  0  0  0  0  0  0  0  0  0
   -2.6698   21.4384  -23.2894 C   0  0  0  0  0  0  0  0  0  0  0  0
   -3.3083   21.7290  -24.6047 C   0  0  0  0  0  0  0  0  0  0  0  0
   -2.1498   21.9972  -25.4733 C   0  0  0  0  0  0  0  0  0  0  0  0
   -1.9831   22.3195  -26.7801 N   0  0  0  0  0  0  0  0  0  0  0  0
   -0.7891   22.5171  -27.3527 C   0  0  0  0  0  0  0  0  0  0  0  0
    0.3142   22.3915  -26.5982 N   0  0  0  0  0  0  0  0  0  0  0  0
    0.2393   22.0782  -25.3097 C   0  0  0  0  0  0  0  0  0  0  0  0
    1.3790   21.9345  -24.4719 N   0  0  0  0  0  0  0  0  0  0  0  0
   -1.0115   21.8723  -24.7148 C   0  0  0  0  0  0  0  0  0  0  0  0
    1.8275   22.7974  -24.1124 H   0  0  0  0  0  0  0  0  0  0  0  0
    1.7854   21.0206  -24.2011 H   0  0  0  0  0  0  0  0  0  0  0  0
   -4.2484   22.8604  -24.4154 C   0  0  0  0  0  0  0  0  0  0  0  0
   -3.6551   24.0401  -23.6452 C   0  0  0  0  0  0  0  0  0  0  0  0
   -4.6374   25.1017  -24.0458 C   0  0  0  0  0  0  0  0  0  0  0  0
   -4.8336   24.8789  -25.4676 N   0  0  0  0  0  0  0  0  0  0  0  0
   -4.6941   23.4780  -25.7131 C   0  0  0  0  0  0  0  0  0  0  0  0
   -5.0934   25.9628  -26.3406 C   0  0  0  0  0  0  0  0  0  0  0  0
   -5.0790   27.1726  -25.8377 O   0  0  0  0  0  0  0  0  0  0  0  0
   -5.3792   25.9025  -27.7412 C   0  0  0  0  0  0  0  0  0  0  0  0
   -4.5957   25.5695  -28.7352 C   0  0  0  0  0  0  0  0  0  0  0  0
   -5.0733   25.5654  -30.1621 C   0  0  0  0  0  0  0  0  0  0  0  0
   -5.9162   24.4104  -30.3880 N   0  0  0  0  0  0  0  0  0  0  0  0
   -6.2516   24.3623  -31.7934 C   0  0  0  0  0  0  0  0  0  0  0  0
   -5.3325   23.1990  -29.8934 C   0  0  0  0  0  0  0  0  0  0  0  0
    0.3382   21.1309  -21.3313 C   0  0  0  0  0  0  0  0  0  0  0  0
   -0.4372   21.2981  -22.2445 C   0  0  0  0  0  0  0  0  0  0  0  0
    2.1320   21.5128  -18.0629 C   0  0  0  0  0  0  0  0  0  0  0  0
    3.1073   20.5512  -18.2108 C   0  0  0  0  0  0  0  0  0  0  0  0
    3.2004   19.7712  -19.3575 C   0  0  0  0  0  0  0  0  0  0  0  0
    2.2681   20.0002  -20.3525 C   0  0  0  0  0  0  0  0  0  0  0  0
    1.2718   20.9505  -20.2541 C   0  0  0  0  0  0  0  0  0  0  0  0
    1.2310   21.6942  -19.0904 C   0  0  0  0  0  0  0  0  0  0  0  0
    3.0016   23.2624  -16.5837 C   0  0  0  0  0  0  0  0  0  0  0  0
    2.0589   22.2791  -16.9092 O   0  0  0  0  0  0  0  0  0  0  0  0
    4.1780   18.7987  -19.5201 O   0  0  0  0  0  0  0  0  0  0  0  0
    4.5861   18.4727  -20.8373 C   0  0  0  0  0  0  0  0  0  0  0  0
 34 35  1  0  0  0
 35 28  1  0  0  0
 28 29  2  0  0  0
 29 30  1  0  0  0
 30 36  1  0  0  0
 36 37  1  0  0  0
 30 31  2  0  0  0
 31 32  1  0  0  0
 32 33  2  0  0  0
 32 26  1  0  0  0
 26 27  3  0  0  0
 27  1  1  0  0  0
  1  2  2  0  0  0
  2  3  1  0  0  0
  3 13  1  0  0  0
 13 14  1  0  0  0
 14 15  1  0  0  0
 15 16  1  0  0  0
 16 17  1  0  0  0
 16 18  1  0  0  0
 18 19  2  0  0  0
 18 20  1  0  0  0
 20 21  2  0  0  0
 21 22  1  0  0  0
 22 23  1  0  0  0
 23 24  1  0  0  0
 23 25  1  0  0  0
  3  4  1  0  0  0
  4  5  2  0  0  0
  5  6  1  0  0  0
  6  7  2  0  0  0
  7  8  1  0  0  0
  8  9  1  0  0  0
  8 10  2  0  0  0
 33 28  1  0  0  0
 10  1  1  0  0  0
 17 13  1  0  0  0
 10  4  1  0  0  0
  9 11  1  0  0  0
  9 12  1  0  0  0
M  END
> <minimizedAffinity>
-8.40185

> <CNNscore>
0.5434457660

> <CNNaffinity>
7.3577485085

> <CNN_VS>
3.9985373020

> <CNNaffinity_variance>
0.1671905071

$$$$
[H]C1=C(C#Cc2c([H])c(OC([H])([H])[H])c([H])c(OC([H])([H])[H])c2[H])c2c(N([H])[H])nc([H])nc2C1([H])[C@]1([H])C([H])([H])N(C(=O)/C([H])=C(\[H])C([H])([H])N(C([H])([H])[H])C([H])([H])[H])C([H])([H])C1([H])[H]


 37 40  0  0  0  0  0  0  0  0999 V2000
   -1.8888   22.4940  -23.6989 C   0  0  0  0  0  0  0  0  0  0  0  0
   -0.8463   22.4479  -22.9055 C   0  0  0  0  0  0  0  0  0  0  0  0
    0.4325   22.2956  -23.6565 C   0  0  0  0  0  0  0  0  0  0  0  0
   -0.0184   22.2630  -25.0578 C   0  0  0  0  0  0  0  0  0  0  0  0
    0.5953   22.1513  -26.2622 N   0  0  0  0  0  0  0  0  0  0  0  0
   -0.0546   22.1483  -27.4327 C   0  0  0  0  0  0  0  0  0  0  0  0
   -1.3924   22.2620  -27.4253 N   0  0  0  0  0  0  0  0  0  0  0  0
   -2.0708   22.3759  -26.2891 C   0  0  0  0  0  0  0  0  0  0  0  0
   -3.4862   22.4985  -26.2320 N   0  0  0  0  0  0  0  0  0  0  0  0
   -1.3870   22.3786  -25.0672 C   0  0  0  0  0  0  0  0  0  0  0  0
   -4.0516   21.6366  -26.3431 H   0  0  0  0  0  0  0  0  0  0  0  0
   -3.9828   23.3961  -26.0863 H   0  0  0  0  0  0  0  0  0  0  0  0
    1.1058   21.0681  -23.1666 C   0  0  0  0  0  0  0  0  0  0  0  0
    2.5913   20.9908  -23.5188 C   0  0  0  0  0  0  0  0  0  0  0  0
    3.0165   19.9527  -22.5217 C   0  0  0  0  0  0  0  0  0  0  0  0
    2.3340   20.3405  -21.2996 N   0  0  0  0  0  0  0  0  0  0  0  0
    1.0948   20.9503  -21.6666 C   0  0  0  0  0  0  0  0  0  0  0  0
    2.9259   20.1064  -20.0350 C   0  0  0  0  0  0  0  0  0  0  0  0
    4.1332   19.5979  -20.0074 O   0  0  0  0  0  0  0  0  0  0  0  0
    2.3562   20.3605  -18.7474 C   0  0  0  0  0  0  0  0  0  0  0  0
    2.3426   21.4672  -18.0488 C   0  0  0  0  0  0  0  0  0  0  0  0
    1.6902   21.5496  -16.6954 C   0  0  0  0  0  0  0  0  0  0  0  0
    2.6957   21.8120  -15.6876 N   0  0  0  0  0  0  0  0  0  0  0  0
    2.7275   23.2358  -15.4394 C   0  0  0  0  0  0  0  0  0  0  0  0
    2.5067   21.0253  -14.5050 C   0  0  0  0  0  0  0  0  0  0  0  0
   -4.4283   22.7662  -22.9537 C   0  0  0  0  0  0  0  0  0  0  0  0
   -3.2764   22.6359  -23.2991 C   0  0  0  0  0  0  0  0  0  0  0  0
   -7.7926   22.1084  -21.4388 C   0  0  0  0  0  0  0  0  0  0  0  0
   -8.4185   23.3039  -21.7164 C   0  0  0  0  0  0  0  0  0  0  0  0
   -7.7702   24.3319  -22.3908 C   0  0  0  0  0  0  0  0  0  0  0  0
   -6.4615   24.1060  -22.7755 C   0  0  0  0  0  0  0  0  0  0  0  0
   -5.7893   22.9273  -22.5221 C   0  0  0  0  0  0  0  0  0  0  0  0
   -6.4867   21.9432  -21.8484 C   0  0  0  0  0  0  0  0  0  0  0  0
   -8.7617   21.1589  -19.3981 C   0  0  0  0  0  0  0  0  0  0  0  0
   -8.4600   21.0969  -20.7644 O   0  0  0  0  0  0  0  0  0  0  0  0
   -8.3885   25.5417  -22.6772 O   0  0  0  0  0  0  0  0  0  0  0  0
   -9.6699   25.7866  -22.1243 C   0  0  0  0  0  0  0  0  0  0  0  0
 34 35  1  0  0  0
 35 28  1  0  0  0
 28 29  2  0  0  0
 29 30  1  0  0  0
 30 36  1  0  0  0
 36 37  1  0  0  0
 30 31  2  0  0  0
 31 32  1  0  0  0
 32 33  2  0  0  0
 32 26  1  0  0  0
 26 27  3  0  0  0
 27  1  1  0  0  0
  1  2  2  0  0  0
  2  3  1  0  0  0
  3 13  1  0  0  0
 13 14  1  0  0  0
 14 15  1  0  0  0
 15 16  1  0  0  0
 16 17  1  0  0  0
 16 18  1  0  0  0
 18 19  2  0  0  0
 18 20  1  0  0  0
 20 21  2  0  0  0
 21 22  1  0  0  0
 22 23  1  0  0  0
 23 24  1  0  0  0
 23 25  1  0  0  0
  3  4  1  0  0  0
  4  5  2  0  0  0
  5  6  1  0  0  0
  6  7  2  0  0  0
  7  8  1  0  0  0
  8  9  1  0  0  0
  8 10  2  0  0  0
 33 28  1  0  0  0
 10  1  1  0  0  0
 17 13  1  0  0  0
 10  4  1  0  0  0
  9 11  1  0  0  0
  9 12  1  0  0  0
M  END
> <minimizedAffinity>
-6.99463

> <CNNscore>
0.5323515534

> <CNNaffinity>
7.0752897263

> <CNN_VS>
3.7665414810

> <CNNaffinity_variance>
0.3072847128

$$$$
[H]C1=C(C#Cc2c([H])c(OC([H])([H])[H])c([H])c(OC([H])([H])[H])c2[H])c2c(N([H])[H])nc([H])nc2C1([H])[C@]1([H])C([H])([H])N(C(=O)/C([H])=C(\[H])C([H])([H])N(C([H])([H])[H])C([H])([H])[H])C([H])([H])C1([H])[H]


 37 40  0  0  0  0  0  0  0  0999 V2000
   -2.3141   22.7792  -23.3251 C   0  0  0  0  0  0  0  0  0  0  0  0
   -1.2443   22.6267  -22.5829 C   0  0  0  0  0  0  0  0  0  0  0  0
   -0.0282   22.3325  -23.3935 C   0  0  0  0  0  0  0  0  0  0  0  0
   -0.5492   22.3389  -24.7707 C   0  0  0  0  0  0  0  0  0  0  0  0
   -0.0118   22.1535  -26.0021 N   0  0  0  0  0  0  0  0  0  0  0  0
   -0.7158   22.2123  -27.1393 C   0  0  0  0  0  0  0  0  0  0  0  0
   -2.0317   22.4692  -27.0681 N   0  0  0  0  0  0  0  0  0  0  0  0
   -2.6366   22.6633  -25.9017 C   0  0  0  0  0  0  0  0  0  0  0  0
   -4.0260   22.9379  -25.7770 N   0  0  0  0  0  0  0  0  0  0  0  0
   -1.8963   22.6010  -24.7146 C   0  0  0  0  0  0  0  0  0  0  0  0
   -4.6854   22.1411  -25.8498 H   0  0  0  0  0  0  0  0  0  0  0  0
   -4.4158   23.8847  -25.6182 H   0  0  0  0  0  0  0  0  0  0  0  0
    0.5334   21.0432  -22.9220 C   0  0  0  0  0  0  0  0  0  0  0  0
    1.9530   21.1495  -22.3653 C   0  0  0  0  0  0  0  0  0  0  0  0
    2.0006   19.8635  -21.5930 C   0  0  0  0  0  0  0  0  0  0  0  0
    0.7080   19.8030  -20.9334 N   0  0  0  0  0  0  0  0  0  0  0  0
   -0.2457   20.4442  -21.7827 C   0  0  0  0  0  0  0  0  0  0  0  0
    0.5728   19.1969  -19.6610 C   0  0  0  0  0  0  0  0  0  0  0  0
    1.6582   18.7603  -19.0710 O   0  0  0  0  0  0  0  0  0  0  0  0
   -0.6328   18.9937  -18.9179 C   0  0  0  0  0  0  0  0  0  0  0  0
   -1.5089   19.8716  -18.4999 C   0  0  0  0  0  0  0  0  0  0  0  0
   -2.7318   19.4709  -17.7202 C   0  0  0  0  0  0  0  0  0  0  0  0
   -3.7717   20.4605  -17.9070 N   0  0  0  0  0  0  0  0  0  0  0  0
   -3.7173   21.3893  -16.8005 C   0  0  0  0  0  0  0  0  0  0  0  0
   -3.7058   21.0911  -19.1919 C   0  0  0  0  0  0  0  0  0  0  0  0
   -4.7817   23.3174  -22.4886 C   0  0  0  0  0  0  0  0  0  0  0  0
   -3.6569   23.0723  -22.8597 C   0  0  0  0  0  0  0  0  0  0  0  0
   -7.9344   25.1762  -21.6813 C   0  0  0  0  0  0  0  0  0  0  0  0
   -8.7208   24.1345  -21.2407 C   0  0  0  0  0  0  0  0  0  0  0  0
   -8.2502   22.8274  -21.1977 C   0  0  0  0  0  0  0  0  0  0  0  0
   -6.9507   22.6116  -21.6179 C   0  0  0  0  0  0  0  0  0  0  0  0
   -6.1219   23.6195  -22.0679 C   0  0  0  0  0  0  0  0  0  0  0  0
   -6.6468   24.8975  -22.0873 C   0  0  0  0  0  0  0  0  0  0  0  0
   -9.2408   27.0077  -20.7096 C   0  0  0  0  0  0  0  0  0  0  0  0
   -8.4260   26.4727  -21.7153 O   0  0  0  0  0  0  0  0  0  0  0  0
   -9.0315   21.7680  -20.7560 O   0  0  0  0  0  0  0  0  0  0  0  0
   -8.6409   21.0957  -19.5714 C   0  0  0  0  0  0  0  0  0  0  0  0
 34 35  1  0  0  0
 35 28  1  0  0  0
 28 29  2  0  0  0
 29 30  1  0  0  0
 30 36  1  0  0  0
 36 37  1  0  0  0
 30 31  2  0  0  0
 31 32  1  0  0  0
 32 33  2  0  0  0
 32 26  1  0  0  0
 26 27  3  0  0  0
 27  1  1  0  0  0
  1  2  2  0  0  0
  2  3  1  0  0  0
  3 13  1  0  0  0
 13 14  1  0  0  0
 14 15  1  0  0  0
 15 16  1  0  0  0
 16 17  1  0  0  0
 16 18  1  0  0  0
 18 19  2  0  0  0
 18 20  1  0  0  0
 20 21  2  0  0  0
 21 22  1  0  0  0
 22 23  1  0  0  0
 23 24  1  0  0  0
 23 25  1  0  0  0
  3  4  1  0  0  0
  4  5  2  0  0  0
  5  6  1  0  0  0
  6  7  2  0  0  0
  7  8  1  0  0  0
  8  9  1  0  0  0
  8 10  2  0  0  0
 33 28  1  0  0  0
 10  1  1  0  0  0
 17 13  1  0  0  0
 10  4  1  0  0  0
  9 11  1  0  0  0
  9 12  1  0  0  0
M  END
> <minimizedAffinity>
-6.49614

> <CNNscore>
0.1592531502

> <CNNaffinity>
6.6860527992

> <CNN_VS>
1.0647749901

> <CNNaffinity_variance>
0.3672774434

$$$$
[H]C1=C(C#Cc2c([H])c(OC([H])([H])[H])c([H])c(OC([H])([H])[H])c2[H])c2c(N([H])[H])nc([H])nc2C1([H])[C@]1([H])C([H])([H])N(C(=O)/C([H])=C(\[H])C([H])([H])N(C([H])([H])[H])C([H])([H])[H])C([H])([H])C1([H])[H]


 37 40  0  0  0  0  0  0  0  0999 V2000
   -6.7777   22.9558  -23.0188 C   0  0  0  0  0  0  0  0  0  0  0  0
   -7.2644   21.8757  -22.4576 C   0  0  0  0  0  0  0  0  0  0  0  0
   -8.1362   22.1866  -21.2890 C   0  0  0  0  0  0  0  0  0  0  0  0
   -8.0989   23.6579  -21.2412 C   0  0  0  0  0  0  0  0  0  0  0  0
   -8.6578   24.6079  -20.4509 N   0  0  0  0  0  0  0  0  0  0  0  0
   -8.4663   25.9226  -20.6165 C   0  0  0  0  0  0  0  0  0  0  0  0
   -7.6765   26.3356  -21.6206 N   0  0  0  0  0  0  0  0  0  0  0  0
   -7.0906   25.4706  -22.4407 C   0  0  0  0  0  0  0  0  0  0  0  0
   -6.2469   25.8607  -23.5165 N   0  0  0  0  0  0  0  0  0  0  0  0
   -7.2938   24.0964  -22.2639 C   0  0  0  0  0  0  0  0  0  0  0  0
   -5.2699   26.1269  -23.2936 H   0  0  0  0  0  0  0  0  0  0  0  0
   -6.5511   25.8941  -24.5065 H   0  0  0  0  0  0  0  0  0  0  0  0
   -7.5786   21.4883  -20.1052 C   0  0  0  0  0  0  0  0  0  0  0  0
   -6.6229   22.3423  -19.2722 C   0  0  0  0  0  0  0  0  0  0  0  0
   -6.6462   21.5486  -17.9986 C   0  0  0  0  0  0  0  0  0  0  0  0
   -8.0486   21.2163  -17.8186 N   0  0  0  0  0  0  0  0  0  0  0  0
   -8.6337   21.0760  -19.1149 C   0  0  0  0  0  0  0  0  0  0  0  0
   -8.6044   21.1022  -16.5214 C   0  0  0  0  0  0  0  0  0  0  0  0
   -7.8337   21.3758  -15.4977 O   0  0  0  0  0  0  0  0  0  0  0  0
   -9.9377   20.7136  -16.1773 C   0  0  0  0  0  0  0  0  0  0  0  0
  -10.5882   19.6192  -16.4802 C   0  0  0  0  0  0  0  0  0  0  0  0
  -12.0032   19.3799  -16.0277 C   0  0  0  0  0  0  0  0  0  0  0  0
  -12.1102   18.0570  -15.4496 N   0  0  0  0  0  0  0  0  0  0  0  0
  -11.5937   17.1023  -16.4044 C   0  0  0  0  0  0  0  0  0  0  0  0
  -11.4955   17.9703  -14.1583 C   0  0  0  0  0  0  0  0  0  0  0  0
   -5.1741   23.0717  -25.1386 C   0  0  0  0  0  0  0  0  0  0  0  0
   -5.8976   23.0121  -24.1711 C   0  0  0  0  0  0  0  0  0  0  0  0
   -3.9312   23.7818  -28.6023 C   0  0  0  0  0  0  0  0  0  0  0  0
   -2.6561   23.2687  -28.5094 C   0  0  0  0  0  0  0  0  0  0  0  0
   -2.1816   22.6906  -27.3378 C   0  0  0  0  0  0  0  0  0  0  0  0
   -3.0468   22.6503  -26.2600 C   0  0  0  0  0  0  0  0  0  0  0  0
   -4.3329   23.1498  -26.3008 C   0  0  0  0  0  0  0  0  0  0  0  0
   -4.7468   23.7121  -27.4931 C   0  0  0  0  0  0  0  0  0  0  0  0
   -5.6541   24.1060  -30.3145 C   0  0  0  0  0  0  0  0  0  0  0  0
   -4.3826   24.3541  -29.7823 O   0  0  0  0  0  0  0  0  0  0  0  0
   -0.8991   22.1696  -27.2300 O   0  0  0  0  0  0  0  0  0  0  0  0
   -0.2156   22.3216  -25.9981 C   0  0  0  0  0  0  0  0  0  0  0  0
 34 35  1  0  0  0
 35 28  1  0  0  0
 28 29  2  0  0  0
 29 30  1  0  0  0
 30 36  1  0  0  0
 36 37  1  0  0  0
 30 31  2  0  0  0
 31 32  1  0  0  0
 32 33  2  0  0  0
 32 26  1  0  0  0
 26 27  3  0  0  0
 27  1  1  0  0  0
  1  2  2  0  0  0
  2  3  1  0  0  0
  3 13  1  0  0  0
 13 14  1  0  0  0
 14 15  1  0  0  0
 15 16  1  0  0  0
 16 17  1  0  0  0
 16 18  1  0  0  0
 18 19  2  0  0  0
 18 20  1  0  0  0
 20 21  2  0  0  0
 21 22  1  0  0  0
 22 23  1  0  0  0
 23 24  1  0  0  0
 23 25  1  0  0  0
  3  4  1  0  0  0
  4  5  2  0  0  0
  5  6  1  0  0  0
  6  7  2  0  0  0
  7  8  1  0  0  0
  8  9  1  0  0  0
  8 10  2  0  0  0
 33 28  1  0  0  0
 10  1  1  0  0  0
 17 13  1  0  0  0
 10  4  1  0  0  0
  9 11  1  0  0  0
  9 12  1  0  0  0
M  END
> <minimizedAffinity>
-7.83420

> <CNNscore>
0.0975184366

> <CNNaffinity>
6.2519550323

> <CNN_VS>
0.6096808910

> <CNNaffinity_variance>
0.1307587028

$$$$
[H]C1=C(C#Cc2c([H])c(OC([H])([H])[H])c([H])c(OC([H])([H])[H])c2[H])c2c(N([H])[H])nc([H])nc2C1([H])[C@]1([H])C([H])([H])N(C(=O)/C([H])=C(\[H])C([H])([H])N(C([H])([H])[H])C([H])([H])[H])C([H])([H])C1([H])[H]


 37 40  0  0  0  0  0  0  0  0999 V2000
   -0.1857   20.8596  -21.1636 C   0  0  0  0  0  0  0  0  0  0  0  0
    0.8466   20.1109  -20.8598 C   0  0  0  0  0  0  0  0  0  0  0  0
    0.9830   19.9011  -19.3902 C   0  0  0  0  0  0  0  0  0  0  0  0
   -0.1604   20.6550  -18.8493 C   0  0  0  0  0  0  0  0  0  0  0  0
   -0.6527   20.8946  -17.6084 N   0  0  0  0  0  0  0  0  0  0  0  0
   -1.7424   21.6346  -17.3688 C   0  0  0  0  0  0  0  0  0  0  0  0
   -2.3936   22.1759  -18.4106 N   0  0  0  0  0  0  0  0  0  0  0  0
   -1.9780   21.9902  -19.6584 C   0  0  0  0  0  0  0  0  0  0  0  0
   -2.6345   22.5429  -20.7921 N   0  0  0  0  0  0  0  0  0  0  0  0
   -0.8379   21.2155  -19.9045 C   0  0  0  0  0  0  0  0  0  0  0  0
   -2.4634   23.5417  -21.0113 H   0  0  0  0  0  0  0  0  0  0  0  0
   -3.2714   22.0070  -21.4091 H   0  0  0  0  0  0  0  0  0  0  0  0
    2.3249   20.3841  -18.9831 C   0  0  0  0  0  0  0  0  0  0  0  0
    2.9758   21.3337  -19.9887 C   0  0  0  0  0  0  0  0  0  0  0  0
    4.0069   21.9557  -19.0929 C   0  0  0  0  0  0  0  0  0  0  0  0
    3.2902   22.2058  -17.8547 N   0  0  0  0  0  0  0  0  0  0  0  0
    2.3000   21.1856  -17.7099 C   0  0  0  0  0  0  0  0  0  0  0  0
    3.6159   23.3187  -17.0424 C   0  0  0  0  0  0  0  0  0  0  0  0
    4.5299   24.1500  -17.4786 O   0  0  0  0  0  0  0  0  0  0  0  0
    3.0588   23.6593  -15.7693 C   0  0  0  0  0  0  0  0  0  0  0  0
    3.3211   23.1612  -14.5878 C   0  0  0  0  0  0  0  0  0  0  0  0
    2.6272   23.6469  -13.3441 C   0  0  0  0  0  0  0  0  0  0  0  0
    2.9278   22.7574  -12.2423 N   0  0  0  0  0  0  0  0  0  0  0  0
    4.3629   22.6020  -12.1642 C   0  0  0  0  0  0  0  0  0  0  0  0
    2.3268   23.1826  -11.0131 C   0  0  0  0  0  0  0  0  0  0  0  0
   -0.9659   21.6025  -23.5963 C   0  0  0  0  0  0  0  0  0  0  0  0
   -0.6055   21.2581  -22.4942 C   0  0  0  0  0  0  0  0  0  0  0  0
   -3.1679   22.5836  -26.4659 C   0  0  0  0  0  0  0  0  0  0  0  0
   -2.2130   22.8263  -27.4289 C   0  0  0  0  0  0  0  0  0  0  0  0
   -0.8555   22.6785  -27.1693 C   0  0  0  0  0  0  0  0  0  0  0  0
   -0.4979   22.2749  -25.8962 C   0  0  0  0  0  0  0  0  0  0  0  0
   -1.4143   22.0190  -24.8962 C   0  0  0  0  0  0  0  0  0  0  0  0
   -2.7486   22.1835  -25.2151 C   0  0  0  0  0  0  0  0  0  0  0  0
   -4.9897   23.4806  -27.8376 C   0  0  0  0  0  0  0  0  0  0  0  0
   -4.5169   22.7380  -26.7483 O   0  0  0  0  0  0  0  0  0  0  0  0
    0.1176   22.9196  -28.1300 O   0  0  0  0  0  0  0  0  0  0  0  0
   -0.2641   23.5957  -29.3153 C   0  0  0  0  0  0  0  0  0  0  0  0
 34 35  1  0  0  0
 35 28  1  0  0  0
 28 29  2  0  0  0
 29 30  1  0  0  0
 30 36  1  0  0  0
 36 37  1  0  0  0
 30 31  2  0  0  0
 31 32  1  0  0  0
 32 33  2  0  0  0
 32 26  1  0  0  0
 26 27  3  0  0  0
 27  1  1  0  0  0
  1  2  2  0  0  0
  2  3  1  0  0  0
  3 13  1  0  0  0
 13 14  1  0  0  0
 14 15  1  0  0  0
 15 16  1  0  0  0
 16 17  1  0  0  0
 16 18  1  0  0  0
 18 19  2  0  0  0
 18 20  1  0  0  0
 20 21  2  0  0  0
 21 22  1  0  0  0
 22 23  1  0  0  0
 23 24  1  0  0  0
 23 25  1  0  0  0
  3  4  1  0  0  0
  4  5  2  0  0  0
  5  6  1  0  0  0
  6  7  2  0  0  0
  7  8  1  0  0  0
  8  9  1  0  0  0
  8 10  2  0  0  0
 33 28  1  0  0  0
 10  1  1  0  0  0
 17 13  1  0  0  0
 10  4  1  0  0  0
  9 11  1  0  0  0
  9 12  1  0  0  0
M  END
> <minimizedAffinity>
-6.99279

> <CNNscore>
0.0939801782

> <CNNaffinity>
6.1128692627

> <CNN_VS>
0.5744885206

> <CNNaffinity_variance>
0.0434078276

$$$$
[H]C1=C(C#Cc2c([H])c(OC([H])([H])[H])c([H])c(OC([H])([H])[H])c2[H])c2c(N([H])[H])nc([H])nc2C1([H])[C@]1([H])C([H])([H])N(C(=O)/C([H])=C(\[H])C([H])([H])N(C([H])([H])[H])C([H])([H])[H])C([H])([H])C1([H])[H]


 37 40  0  0  0  0  0  0  0  0999 V2000
   -5.0002   22.5653  -22.0972 C   0  0  0  0  0  0  0  0  0  0  0  0
   -4.9018   21.4412  -21.4299 C   0  0  0  0  0  0  0  0  0  0  0  0
   -5.3144   21.5888  -20.0050 C   0  0  0  0  0  0  0  0  0  0  0  0
   -5.6899   23.0103  -19.9236 C   0  0  0  0  0  0  0  0  0  0  0  0
   -6.1563   23.8262  -18.9457 N   0  0  0  0  0  0  0  0  0  0  0  0
   -6.4319   25.1239  -19.1260 C   0  0  0  0  0  0  0  0  0  0  0  0
   -6.2387   25.6591  -20.3421 N   0  0  0  0  0  0  0  0  0  0  0  0
   -5.7845   24.9296  -21.3548 C   0  0  0  0  0  0  0  0  0  0  0  0
   -5.5645   25.4522  -22.6587 N   0  0  0  0  0  0  0  0  0  0  0  0
   -5.4977   23.5727  -21.1618 C   0  0  0  0  0  0  0  0  0  0  0  0
   -4.6987   25.9988  -22.8214 H   0  0  0  0  0  0  0  0  0  0  0  0
   -6.2172   25.3186  -23.4523 H   0  0  0  0  0  0  0  0  0  0  0  0
   -4.1728   21.1732  -19.1541 C   0  0  0  0  0  0  0  0  0  0  0  0
   -3.1343   22.2715  -18.9267 C   0  0  0  0  0  0  0  0  0  0  0  0
   -2.4456   21.6994  -17.7221 C   0  0  0  0  0  0  0  0  0  0  0  0
   -3.5352   21.2157  -16.8925 N   0  0  0  0  0  0  0  0  0  0  0  0
   -4.5880   20.7895  -17.7597 C   0  0  0  0  0  0  0  0  0  0  0  0
   -3.4353   21.2403  -15.4804 C   0  0  0  0  0  0  0  0  0  0  0  0
   -2.3640   21.7774  -14.9505 O   0  0  0  0  0  0  0  0  0  0  0  0
   -4.3816   20.7375  -14.5324 C   0  0  0  0  0  0  0  0  0  0  0  0
   -5.5230   21.2490  -14.1470 C   0  0  0  0  0  0  0  0  0  0  0  0
   -6.3967   20.5733  -13.1251 C   0  0  0  0  0  0  0  0  0  0  0  0
   -6.3587   19.1402  -13.3262 N   0  0  0  0  0  0  0  0  0  0  0  0
   -6.1513   18.5079  -12.0428 C   0  0  0  0  0  0  0  0  0  0  0  0
   -7.5085   18.6533  -14.0290 C   0  0  0  0  0  0  0  0  0  0  0  0
   -4.4230   22.9309  -24.6685 C   0  0  0  0  0  0  0  0  0  0  0  0
   -4.6805   22.7726  -23.4973 C   0  0  0  0  0  0  0  0  0  0  0  0
   -2.5639   23.1173  -27.9174 C   0  0  0  0  0  0  0  0  0  0  0  0
   -3.6007   23.4282  -28.7695 C   0  0  0  0  0  0  0  0  0  0  0  0
   -4.9046   23.5811  -28.3130 C   0  0  0  0  0  0  0  0  0  0  0  0
   -5.1223   23.4076  -26.9586 C   0  0  0  0  0  0  0  0  0  0  0  0
   -4.1192   23.0958  -26.0632 C   0  0  0  0  0  0  0  0  0  0  0  0
   -2.8442   22.9568  -26.5772 C   0  0  0  0  0  0  0  0  0  0  0  0
   -0.1488   22.9051  -27.5602 C   0  0  0  0  0  0  0  0  0  0  0  0
   -1.2706   22.9697  -28.3962 O   0  0  0  0  0  0  0  0  0  0  0  0
   -5.9591   23.8943  -29.1602 O   0  0  0  0  0  0  0  0  0  0  0  0
   -5.6607   24.2417  -30.5012 C   0  0  0  0  0  0  0  0  0  0  0  0
 34 35  1  0  0  0
 35 28  1  0  0  0
 28 29  2  0  0  0
 29 30  1  0  0  0
 30 36  1  0  0  0
 36 37  1  0  0  0
 30 31  2  0  0  0
 31 32  1  0  0  0
 32 33  2  0  0  0
 32 26  1  0  0  0
 26 27  3  0  0  0
 27  1  1  0  0  0
  1  2  2  0  0  0
  2  3  1  0  0  0
  3 13  1  0  0  0
 13 14  1  0  0  0
 14 15  1  0  0  0
 15 16  1  0  0  0
 16 17  1  0  0  0
 16 18  1  0  0  0
 18 19  2  0  0  0
 18 20  1  0  0  0
 20 21  2  0  0  0
 21 22  1  0  0  0
 22 23  1  0  0  0
 23 24  1  0  0  0
 23 25  1  0  0  0
  3  4  1  0  0  0
  4  5  2  0  0  0
  5  6  1  0  0  0
  6  7  2  0  0  0
  7  8  1  0  0  0
  8  9  1  0  0  0
  8 10  2  0  0  0
 33 28  1  0  0  0
 10  1  1  0  0  0
 17 13  1  0  0  0
 10  4  1  0  0  0
  9 11  1  0  0  0
  9 12  1  0  0  0
M  END
> <minimizedAffinity>
-6.57769

> <CNNscore>
0.0934646577

> <CNNaffinity>
6.3681197166

> <CNN_VS>
0.5951941013

> <CNNaffinity_variance>
0.3782131672

$$$$
[H]C([H])=C([H])C(=O)N([H])c1c([H])c([H])c([H])c(C([H])([H])N2C(=O)N(c3c(Cl)c(OC([H])([H])[H])c([H])c(OC([H])([H])[H])c3Cl)C([H])([H])c3c([H])nc(N([H])C([H])([H])C([H])([H])C([H])([H])C([H])([H])N(C([H])([H])C([H])([H])[H])C([H])([H])C([H])([H])[H])nc32)c1[H]


 47 50  0  0  0  0  0  0  0  0999 V2000
    0.4994   22.3786  -24.5025 C   0  0  0  0  0  0  0  0  0  0  0  0
    1.3712   21.4747  -23.9739 N   0  0  0  0  0  0  0  0  0  0  0  0
    1.2550   20.9513  -22.7650 C   0  0  0  0  0  0  0  0  0  0  0  0
    0.1552   21.3571  -21.9748 C   0  0  0  0  0  0  0  0  0  0  0  0
   -0.0467   20.7204  -20.6658 C   0  0  0  0  0  0  0  0  0  0  0  0
   -0.8738   21.5003  -19.8104 N   0  0  0  0  0  0  0  0  0  0  0  0
   -1.8210   22.4096  -20.3147 C   0  0  0  0  0  0  0  0  0  0  0  0
   -2.7096   22.8441  -19.5380 O   0  0  0  0  0  0  0  0  0  0  0  0
   -1.7479   22.8070  -21.6713 N   0  0  0  0  0  0  0  0  0  0  0  0
   -0.7219   22.2626  -22.4910 C   0  0  0  0  0  0  0  0  0  0  0  0
   -0.5292   22.7499  -23.7450 N   0  0  0  0  0  0  0  0  0  0  0  0
   -0.6584   21.3391  -18.3999 C   0  0  0  0  0  0  0  0  0  0  0  0
    0.3754   22.0612  -17.8503 C   0  0  0  0  0  0  0  0  0  0  0  0
    1.3331   23.1312  -18.8588 Cl  0  0  0  0  0  0  0  0  0  0  0  0
    0.6710   21.9554  -16.4855 C   0  0  0  0  0  0  0  0  0  0  0  0
   -0.0706   21.1221  -15.6573 C   0  0  0  0  0  0  0  0  0  0  0  0
   -1.0965   20.4105  -16.2199 C   0  0  0  0  0  0  0  0  0  0  0  0
   -1.3855   20.5201  -17.5787 C   0  0  0  0  0  0  0  0  0  0  0  0
   -2.6996   19.6069  -18.2876 Cl  0  0  0  0  0  0  0  0  0  0  0  0
    1.7102   22.6941  -15.9818 O   0  0  0  0  0  0  0  0  0  0  0  0
    2.4355   22.2743  -14.8589 C   0  0  0  0  0  0  0  0  0  0  0  0
   -1.8519   19.5743  -15.4235 O   0  0  0  0  0  0  0  0  0  0  0  0
   -1.4560   18.2875  -15.0638 C   0  0  0  0  0  0  0  0  0  0  0  0
    0.7306   22.8925  -25.8096 N   0  0  0  0  0  0  0  0  0  0  0  0
    1.2061   23.8138  -25.8915 H   0  0  0  0  0  0  0  0  0  0  0  0
    0.3411   22.1992  -26.9953 C   0  0  0  0  0  0  0  0  0  0  0  0
   -0.8657   22.8547  -27.6316 C   0  0  0  0  0  0  0  0  0  0  0  0
   -2.1765   22.3732  -27.0692 C   0  0  0  0  0  0  0  0  0  0  0  0
   -3.0584   23.4569  -26.5934 C   0  0  0  0  0  0  0  0  0  0  0  0
   -4.3212   23.6387  -27.2614 N   0  0  0  0  0  0  0  0  0  0  0  0
   -4.9346   22.8907  -29.4848 C   0  0  0  0  0  0  0  0  0  0  0  0
   -4.2550   23.9010  -28.6281 C   0  0  0  0  0  0  0  0  0  0  0  0
   -5.3002   24.2389  -26.4415 C   0  0  0  0  0  0  0  0  0  0  0  0
   -6.6454   23.5960  -26.5640 C   0  0  0  0  0  0  0  0  0  0  0  0
   -2.7075   23.7537  -22.1848 C   0  0  0  0  0  0  0  0  0  0  0  0
   -3.9487   23.0735  -22.6810 C   0  0  0  0  0  0  0  0  0  0  0  0
   -3.9356   21.9499  -23.4528 C   0  0  0  0  0  0  0  0  0  0  0  0
   -5.1221   21.3395  -23.8805 C   0  0  0  0  0  0  0  0  0  0  0  0
   -6.3410   21.9077  -23.4964 C   0  0  0  0  0  0  0  0  0  0  0  0
   -6.3981   23.0249  -22.7299 C   0  0  0  0  0  0  0  0  0  0  0  0
   -5.1805   23.5894  -22.3350 C   0  0  0  0  0  0  0  0  0  0  0  0
   -7.6119   23.6325  -22.3322 N   0  0  0  0  0  0  0  0  0  0  0  0
   -8.1606   24.7813  -22.8925 C   0  0  0  0  0  0  0  0  0  0  0  0
   -7.6174   25.4402  -23.8426 O   0  0  0  0  0  0  0  0  0  0  0  0
   -8.1656   23.1766  -21.5347 H   0  0  0  0  0  0  0  0  0  0  0  0
   -9.4241   25.3282  -22.4221 C   0  0  0  0  0  0  0  0  0  0  0  0
  -10.0809   24.8485  -21.4002 C   0  0  0  0  0  0  0  0  0  0  0  0
 31 32  1  0  0  0
 32 30  1  0  0  0
 30 33  1  0  0  0
 33 34  1  0  0  0
 30 29  1  0  0  0
 29 28  1  0  0  0
 28 27  1  0  0  0
 27 26  1  0  0  0
 26 24  1  0  0  0
 24  1  1  0  0  0
  1  2  2  0  0  0
  2  3  1  0  0  0
  3  4  2  0  0  0
  4  5  1  0  0  0
  5  6  1  0  0  0
  6  7  1  0  0  0
  7  8  2  0  0  0
  7  9  1  0  0  0
  9 35  1  0  0  0
 35 36  1  0  0  0
 36 37  2  0  0  0
 37 38  1  0  0  0
 38 39  2  0  0  0
 39 40  1  0  0  0
 40 42  1  0  0  0
 42 43  1  0  0  0
 43 44  2  0  0  0
 43 46  1  0  0  0
 46 47  2  0  0  0
 40 41  2  0  0  0
  9 10  1  0  0  0
 10 11  2  0  0  0
  6 12  1  0  0  0
 12 13  2  0  0  0
 13 14  1  0  0  0
 13 15  1  0  0  0
 15 20  1  0  0  0
 20 21  1  0  0  0
 15 16  2  0  0  0
 16 17  1  0  0  0
 17 22  1  0  0  0
 22 23  1  0  0  0
 17 18  2  0  0  0
 18 19  1  0  0  0
 11  1  1  0  0  0
 18 12  1  0  0  0
 10  4  1  0  0  0
 41 36  1  0  0  0
 24 25  1  0  0  0
 42 45  1  0  0  0
M  END
> <minimizedAffinity>
-7.52724

> <CNNscore>
0.1381030232

> <CNNaffinity>
7.1198945045

> <CNN_VS>
0.9832789302

> <CNNaffinity_variance>
0.8761174083

$$$$
[H]C([H])=C([H])C(=O)N([H])c1c([H])c([H])c([H])c(C([H])([H])N2C(=O)N(c3c(Cl)c(OC([H])([H])[H])c([H])c(OC([H])([H])[H])c3Cl)C([H])([H])c3c([H])nc(N([H])C([H])([H])C([H])([H])C([H])([H])C([H])([H])N(C([H])([H])C([H])([H])[H])C([H])([H])C([H])([H])[H])nc32)c1[H]


 47 50  0  0  0  0  0  0  0  0999 V2000
    0.7235   22.1856  -24.6047 C   0  0  0  0  0  0  0  0  0  0  0  0
    1.5635   21.2582  -24.0653 N   0  0  0  0  0  0  0  0  0  0  0  0
    1.4674   20.8006  -22.8284 C   0  0  0  0  0  0  0  0  0  0  0  0
    0.4255   21.3072  -22.0180 C   0  0  0  0  0  0  0  0  0  0  0  0
    0.2416   20.7462  -20.6722 C   0  0  0  0  0  0  0  0  0  0  0  0
   -0.5043   21.6131  -19.8258 N   0  0  0  0  0  0  0  0  0  0  0  0
   -1.4183   22.5513  -20.3383 C   0  0  0  0  0  0  0  0  0  0  0  0
   -2.2483   23.0735  -19.5509 O   0  0  0  0  0  0  0  0  0  0  0  0
   -1.3783   22.8789  -21.7148 N   0  0  0  0  0  0  0  0  0  0  0  0
   -0.4192   22.2370  -22.5448 C   0  0  0  0  0  0  0  0  0  0  0  0
   -0.2506   22.6521  -23.8279 N   0  0  0  0  0  0  0  0  0  0  0  0
   -0.2409   21.5066  -18.4183 C   0  0  0  0  0  0  0  0  0  0  0  0
   -1.0641   20.6698  -17.7012 C   0  0  0  0  0  0  0  0  0  0  0  0
   -2.3375   19.7794  -18.5169 Cl  0  0  0  0  0  0  0  0  0  0  0  0
   -0.8935   20.5152  -16.3198 C   0  0  0  0  0  0  0  0  0  0  0  0
    0.1082   21.2006  -15.6436 C   0  0  0  0  0  0  0  0  0  0  0  0
    0.9193   22.0294  -16.3720 C   0  0  0  0  0  0  0  0  0  0  0  0
    0.7441   22.1789  -17.7463 C   0  0  0  0  0  0  0  0  0  0  0  0
    1.7870   23.2400  -18.6682 Cl  0  0  0  0  0  0  0  0  0  0  0  0
   -1.7374   19.6704  -15.6466 O   0  0  0  0  0  0  0  0  0  0  0  0
   -1.3603   18.3619  -15.3169 C   0  0  0  0  0  0  0  0  0  0  0  0
    1.9237   22.7238  -15.7292 O   0  0  0  0  0  0  0  0  0  0  0  0
    3.2165   22.2310  -15.5627 C   0  0  0  0  0  0  0  0  0  0  0  0
    0.9299   22.6224  -25.9436 N   0  0  0  0  0  0  0  0  0  0  0  0
    1.8952   22.5711  -26.3272 H   0  0  0  0  0  0  0  0  0  0  0  0
   -0.1243   23.1194  -26.7680 C   0  0  0  0  0  0  0  0  0  0  0  0
   -1.1017   22.0175  -27.1166 C   0  0  0  0  0  0  0  0  0  0  0  0
   -2.5146   22.3105  -26.6874 C   0  0  0  0  0  0  0  0  0  0  0  0
   -3.3174   23.0125  -27.7078 C   0  0  0  0  0  0  0  0  0  0  0  0
   -4.4802   23.7385  -27.2666 N   0  0  0  0  0  0  0  0  0  0  0  0
   -5.3452   23.0036  -29.4092 C   0  0  0  0  0  0  0  0  0  0  0  0
   -5.5926   23.6731  -28.1028 C   0  0  0  0  0  0  0  0  0  0  0  0
   -4.1619   24.9132  -26.5527 C   0  0  0  0  0  0  0  0  0  0  0  0
   -5.2489   25.9400  -26.5942 C   0  0  0  0  0  0  0  0  0  0  0  0
   -2.3029   23.8548  -22.2379 C   0  0  0  0  0  0  0  0  0  0  0  0
   -3.5131   23.2063  -22.8414 C   0  0  0  0  0  0  0  0  0  0  0  0
   -3.5616   21.8943  -23.2085 C   0  0  0  0  0  0  0  0  0  0  0  0
   -4.7207   21.3275  -23.7548 C   0  0  0  0  0  0  0  0  0  0  0  0
   -5.8473   22.1399  -23.9192 C   0  0  0  0  0  0  0  0  0  0  0  0
   -5.8407   23.4496  -23.5676 C   0  0  0  0  0  0  0  0  0  0  0  0
   -4.6542   23.9586  -23.0287 C   0  0  0  0  0  0  0  0  0  0  0  0
   -6.9573   24.3027  -23.7298 N   0  0  0  0  0  0  0  0  0  0  0  0
   -8.0224   24.4151  -22.8421 C   0  0  0  0  0  0  0  0  0  0  0  0
   -8.1237   23.7412  -21.7616 O   0  0  0  0  0  0  0  0  0  0  0  0
   -6.9955   24.9213  -24.6051 H   0  0  0  0  0  0  0  0  0  0  0  0
   -9.1252   25.3312  -23.0896 C   0  0  0  0  0  0  0  0  0  0  0  0
  -10.0660   25.5782  -22.2181 C   0  0  0  0  0  0  0  0  0  0  0  0
 31 32  1  0  0  0
 32 30  1  0  0  0
 30 33  1  0  0  0
 33 34  1  0  0  0
 30 29  1  0  0  0
 29 28  1  0  0  0
 28 27  1  0  0  0
 27 26  1  0  0  0
 26 24  1  0  0  0
 24  1  1  0  0  0
  1  2  2  0  0  0
  2  3  1  0  0  0
  3  4  2  0  0  0
  4  5  1  0  0  0
  5  6  1  0  0  0
  6  7  1  0  0  0
  7  8  2  0  0  0
  7  9  1  0  0  0
  9 35  1  0  0  0
 35 36  1  0  0  0
 36 37  2  0  0  0
 37 38  1  0  0  0
 38 39  2  0  0  0
 39 40  1  0  0  0
 40 42  1  0  0  0
 42 43  1  0  0  0
 43 44  2  0  0  0
 43 46  1  0  0  0
 46 47  2  0  0  0
 40 41  2  0  0  0
  9 10  1  0  0  0
 10 11  2  0  0  0
  6 12  1  0  0  0
 12 13  2  0  0  0
 13 14  1  0  0  0
 13 15  1  0  0  0
 15 20  1  0  0  0
 20 21  1  0  0  0
 15 16  2  0  0  0
 16 17  1  0  0  0
 17 22  1  0  0  0
 22 23  1  0  0  0
 17 18  2  0  0  0
 18 19  1  0  0  0
 11  1  1  0  0  0
 18 12  1  0  0  0
 10  4  1  0  0  0
 41 36  1  0  0  0
 24 25  1  0  0  0
 42 45  1  0  0  0
M  END
> <minimizedAffinity>
-7.34841

> <CNNscore>
0.0876851976

> <CNNaffinity>
7.2149658203

> <CNN_VS>
0.6326457262

> <CNNaffinity_variance>
0.5186327100

$$$$
[H]C([H])=C([H])C(=O)N([H])c1c([H])c([H])c([H])c(C([H])([H])N2C(=O)N(c3c(Cl)c(OC([H])([H])[H])c([H])c(OC([H])([H])[H])c3Cl)C([H])([H])c3c([H])nc(N([H])C([H])([H])C([H])([H])C([H])([H])C([H])([H])N(C([H])([H])C([H])([H])[H])C([H])([H])C([H])([H])[H])nc32)c1[H]


 47 50  0  0  0  0  0  0  0  0999 V2000
   -2.6727   22.3937  -19.6402 C   0  0  0  0  0  0  0  0  0  0  0  0
   -2.4755   21.1257  -19.1820 N   0  0  0  0  0  0  0  0  0  0  0  0
   -3.3416   20.4645  -18.4328 C   0  0  0  0  0  0  0  0  0  0  0  0
   -4.5474   21.1174  -18.0884 C   0  0  0  0  0  0  0  0  0  0  0  0
   -5.5647   20.3703  -17.3356 C   0  0  0  0  0  0  0  0  0  0  0  0
   -6.4891   21.2312  -16.6811 N   0  0  0  0  0  0  0  0  0  0  0  0
   -6.7589   22.5300  -17.1488 C   0  0  0  0  0  0  0  0  0  0  0  0
   -7.7791   23.1245  -16.7161 O   0  0  0  0  0  0  0  0  0  0  0  0
   -5.8815   23.1265  -18.0857 N   0  0  0  0  0  0  0  0  0  0  0  0
   -4.7551   22.3864  -18.5380 C   0  0  0  0  0  0  0  0  0  0  0  0
   -3.8122   22.9933  -19.3060 N   0  0  0  0  0  0  0  0  0  0  0  0
   -7.1015   20.7156  -15.4890 C   0  0  0  0  0  0  0  0  0  0  0  0
   -8.2726   20.0134  -15.6549 C   0  0  0  0  0  0  0  0  0  0  0  0
   -8.9274   19.7645  -17.2638 Cl  0  0  0  0  0  0  0  0  0  0  0  0
   -8.9501   19.4872  -14.5479 C   0  0  0  0  0  0  0  0  0  0  0  0
   -8.4567   19.6608  -13.2608 C   0  0  0  0  0  0  0  0  0  0  0  0
   -7.2896   20.3619  -13.1129 C   0  0  0  0  0  0  0  0  0  0  0  0
   -6.6205   20.8830  -14.2184 C   0  0  0  0  0  0  0  0  0  0  0  0
   -5.1289   21.7768  -14.0184 Cl  0  0  0  0  0  0  0  0  0  0  0  0
  -10.1135   18.7943  -14.7614 O   0  0  0  0  0  0  0  0  0  0  0  0
  -10.1537   17.3942  -14.7253 C   0  0  0  0  0  0  0  0  0  0  0  0
   -6.7737   20.5510  -11.8471 O   0  0  0  0  0  0  0  0  0  0  0  0
   -7.2056   21.5536  -10.9808 C   0  0  0  0  0  0  0  0  0  0  0  0
   -1.6638   23.0190  -20.4258 N   0  0  0  0  0  0  0  0  0  0  0  0
   -0.8439   23.4233  -19.9299 H   0  0  0  0  0  0  0  0  0  0  0  0
   -1.7339   23.1090  -21.8489 C   0  0  0  0  0  0  0  0  0  0  0  0
   -1.5808   21.7436  -22.4838 C   0  0  0  0  0  0  0  0  0  0  0  0
   -0.3491   21.6145  -23.3398 C   0  0  0  0  0  0  0  0  0  0  0  0
   -0.2238   22.6628  -24.3713 C   0  0  0  0  0  0  0  0  0  0  0  0
   -0.6303   22.3373  -25.7140 N   0  0  0  0  0  0  0  0  0  0  0  0
    0.0105   22.8154  -28.0031 C   0  0  0  0  0  0  0  0  0  0  0  0
    0.3881   22.2873  -26.6634 C   0  0  0  0  0  0  0  0  0  0  0  0
   -1.9161   22.8209  -26.0360 C   0  0  0  0  0  0  0  0  0  0  0  0
   -2.9868   21.7860  -25.8942 C   0  0  0  0  0  0  0  0  0  0  0  0
   -6.1470   24.4655  -18.5520 C   0  0  0  0  0  0  0  0  0  0  0  0
   -6.8181   24.4641  -19.8933 C   0  0  0  0  0  0  0  0  0  0  0  0
   -8.0173   23.8628  -20.1359 C   0  0  0  0  0  0  0  0  0  0  0  0
   -8.6143   23.9008  -21.4029 C   0  0  0  0  0  0  0  0  0  0  0  0
   -7.9524   24.5776  -22.4325 C   0  0  0  0  0  0  0  0  0  0  0  0
   -6.7582   25.1884  -22.2334 C   0  0  0  0  0  0  0  0  0  0  0  0
   -6.2117   25.1151  -20.9476 C   0  0  0  0  0  0  0  0  0  0  0  0
   -6.0560   25.8720  -23.2534 N   0  0  0  0  0  0  0  0  0  0  0  0
   -5.0317   25.3354  -24.0266 C   0  0  0  0  0  0  0  0  0  0  0  0
   -4.5901   24.1437  -23.8967 O   0  0  0  0  0  0  0  0  0  0  0  0
   -6.3294   26.8885  -23.4587 H   0  0  0  0  0  0  0  0  0  0  0  0
   -4.3733   26.1149  -25.0636 C   0  0  0  0  0  0  0  0  0  0  0  0
   -4.8014   27.2797  -25.4707 C   0  0  0  0  0  0  0  0  0  0  0  0
 31 32  1  0  0  0
 32 30  1  0  0  0
 30 33  1  0  0  0
 33 34  1  0  0  0
 30 29  1  0  0  0
 29 28  1  0  0  0
 28 27  1  0  0  0
 27 26  1  0  0  0
 26 24  1  0  0  0
 24  1  1  0  0  0
  1  2  2  0  0  0
  2  3  1  0  0  0
  3  4  2  0  0  0
  4  5  1  0  0  0
  5  6  1  0  0  0
  6  7  1  0  0  0
  7  8  2  0  0  0
  7  9  1  0  0  0
  9 35  1  0  0  0
 35 36  1  0  0  0
 36 37  2  0  0  0
 37 38  1  0  0  0
 38 39  2  0  0  0
 39 40  1  0  0  0
 40 42  1  0  0  0
 42 43  1  0  0  0
 43 44  2  0  0  0
 43 46  1  0  0  0
 46 47  2  0  0  0
 40 41  2  0  0  0
  9 10  1  0  0  0
 10 11  2  0  0  0
  6 12  1  0  0  0
 12 13  2  0  0  0
 13 14  1  0  0  0
 13 15  1  0  0  0
 15 20  1  0  0  0
 20 21  1  0  0  0
 15 16  2  0  0  0
 16 17  1  0  0  0
 17 22  1  0  0  0
 22 23  1  0  0  0
 17 18  2  0  0  0
 18 19  1  0  0  0
 11  1  1  0  0  0
 18 12  1  0  0  0
 10  4  1  0  0  0
 41 36  1  0  0  0
 24 25  1  0  0  0
 42 45  1  0  0  0
M  END
> <minimizedAffinity>
-6.46351

> <CNNscore>
0.0367523283

> <CNNaffinity>
6.2631702423

> <CNN_VS>
0.2301860899

> <CNNaffinity_variance>
0.3333658874

$$$$
[H]C([H])=C([H])C(=O)N([H])c1c([H])c([H])c([H])c(C([H])([H])N2C(=O)N(c3c(Cl)c(OC([H])([H])[H])c([H])c(OC([H])([H])[H])c3Cl)C([H])([H])c3c([H])nc(N([H])C([H])([H])C([H])([H])C([H])([H])C([H])([H])N(C([H])([H])C([H])([H])[H])C([H])([H])C([H])([H])[H])nc32)c1[H]


 47 50  0  0  0  0  0  0  0  0999 V2000
   -3.2027   22.6234  -20.3080 C   0  0  0  0  0  0  0  0  0  0  0  0
   -2.2775   23.5034  -20.7836 N   0  0  0  0  0  0  0  0  0  0  0  0
   -2.3695   24.1180  -21.9509 C   0  0  0  0  0  0  0  0  0  0  0  0
   -3.5010   23.8427  -22.7526 C   0  0  0  0  0  0  0  0  0  0  0  0
   -3.6719   24.5828  -24.0106 C   0  0  0  0  0  0  0  0  0  0  0  0
   -4.5568   23.9218  -24.9073 N   0  0  0  0  0  0  0  0  0  0  0  0
   -5.5579   23.0432  -24.4553 C   0  0  0  0  0  0  0  0  0  0  0  0
   -6.4804   22.7245  -25.2484 O   0  0  0  0  0  0  0  0  0  0  0  0
   -5.4991   22.5464  -23.1312 N   0  0  0  0  0  0  0  0  0  0  0  0
   -4.4317   22.9624  -22.2894 C   0  0  0  0  0  0  0  0  0  0  0  0
   -4.2606   22.3755  -21.0756 N   0  0  0  0  0  0  0  0  0  0  0  0
   -4.3440   24.1685  -26.3057 C   0  0  0  0  0  0  0  0  0  0  0  0
   -3.3710   23.4153  -26.9208 C   0  0  0  0  0  0  0  0  0  0  0  0
   -2.4842   22.2089  -26.0056 Cl  0  0  0  0  0  0  0  0  0  0  0  0
   -3.0817   23.5977  -28.2789 C   0  0  0  0  0  0  0  0  0  0  0  0
   -3.7686   24.5400  -29.0344 C   0  0  0  0  0  0  0  0  0  0  0  0
   -4.7342   25.2812  -28.4072 C   0  0  0  0  0  0  0  0  0  0  0  0
   -5.0172   25.0949  -27.0556 C   0  0  0  0  0  0  0  0  0  0  0  0
   -6.2542   26.0470  -26.2638 Cl  0  0  0  0  0  0  0  0  0  0  0  0
   -2.1042   22.8243  -28.8494 O   0  0  0  0  0  0  0  0  0  0  0  0
   -0.7719   23.2527  -28.9162 C   0  0  0  0  0  0  0  0  0  0  0  0
   -5.4343   26.2250  -29.1306 O   0  0  0  0  0  0  0  0  0  0  0  0
   -5.5568   26.1971  -30.5185 C   0  0  0  0  0  0  0  0  0  0  0  0
   -2.9943   22.0038  -19.0436 N   0  0  0  0  0  0  0  0  0  0  0  0
   -2.6445   22.5971  -18.2644 H   0  0  0  0  0  0  0  0  0  0  0  0
   -3.2459   20.6183  -18.8085 C   0  0  0  0  0  0  0  0  0  0  0  0
   -2.2197   20.0372  -17.8597 C   0  0  0  0  0  0  0  0  0  0  0  0
   -1.1306   21.0072  -17.4861 C   0  0  0  0  0  0  0  0  0  0  0  0
    0.1782   20.7028  -18.0967 C   0  0  0  0  0  0  0  0  0  0  0  0
    0.6817   21.6098  -19.0957 N   0  0  0  0  0  0  0  0  0  0  0  0
    2.0558   23.4934  -18.4303 C   0  0  0  0  0  0  0  0  0  0  0  0
    0.7022   22.9567  -18.7403 C   0  0  0  0  0  0  0  0  0  0  0  0
    0.3911   21.1988  -20.4138 C   0  0  0  0  0  0  0  0  0  0  0  0
    1.5521   20.5487  -21.0972 C   0  0  0  0  0  0  0  0  0  0  0  0
   -6.5149   21.6306  -22.6724 C   0  0  0  0  0  0  0  0  0  0  0  0
   -7.5679   22.3282  -21.8637 C   0  0  0  0  0  0  0  0  0  0  0  0
   -7.9425   23.6227  -22.0696 C   0  0  0  0  0  0  0  0  0  0  0  0
   -8.9433   24.2285  -21.2984 C   0  0  0  0  0  0  0  0  0  0  0  0
   -9.5646   23.4731  -20.2986 C   0  0  0  0  0  0  0  0  0  0  0  0
   -9.2212   22.1829  -20.0610 C   0  0  0  0  0  0  0  0  0  0  0  0
   -8.2147   21.6336  -20.8626 C   0  0  0  0  0  0  0  0  0  0  0  0
   -9.8202   21.3932  -19.0519 N   0  0  0  0  0  0  0  0  0  0  0  0
   -9.5588   21.4912  -17.6892 C   0  0  0  0  0  0  0  0  0  0  0  0
   -8.7241   22.3141  -17.1810 O   0  0  0  0  0  0  0  0  0  0  0  0
  -10.5397   20.6558  -19.3502 H   0  0  0  0  0  0  0  0  0  0  0  0
  -10.2343   20.6398  -16.7220 C   0  0  0  0  0  0  0  0  0  0  0  0
   -9.8361   20.4961  -15.4865 C   0  0  0  0  0  0  0  0  0  0  0  0
 31 32  1  0  0  0
 32 30  1  0  0  0
 30 33  1  0  0  0
 33 34  1  0  0  0
 30 29  1  0  0  0
 29 28  1  0  0  0
 28 27  1  0  0  0
 27 26  1  0  0  0
 26 24  1  0  0  0
 24  1  1  0  0  0
  1  2  2  0  0  0
  2  3  1  0  0  0
  3  4  2  0  0  0
  4  5  1  0  0  0
  5  6  1  0  0  0
  6  7  1  0  0  0
  7  8  2  0  0  0
  7  9  1  0  0  0
  9 35  1  0  0  0
 35 36  1  0  0  0
 36 37  2  0  0  0
 37 38  1  0  0  0
 38 39  2  0  0  0
 39 40  1  0  0  0
 40 42  1  0  0  0
 42 43  1  0  0  0
 43 44  2  0  0  0
 43 46  1  0  0  0
 46 47  2  0  0  0
 40 41  2  0  0  0
  9 10  1  0  0  0
 10 11  2  0  0  0
  6 12  1  0  0  0
 12 13  2  0  0  0
 13 14  1  0  0  0
 13 15  1  0  0  0
 15 20  1  0  0  0
 20 21  1  0  0  0
 15 16  2  0  0  0
 16 17  1  0  0  0
 17 22  1  0  0  0
 22 23  1  0  0  0
 17 18  2  0  0  0
 18 19  1  0  0  0
 11  1  1  0  0  0
 18 12  1  0  0  0
 10  4  1  0  0  0
 41 36  1  0  0  0
 24 25  1  0  0  0
 42 45  1  0  0  0
M  END
> <minimizedAffinity>
-7.32678

> <CNNscore>
0.0354996622

> <CNNaffinity>
6.9436597824

> <CNN_VS>
0.2464975715

> <CNNaffinity_variance>
0.3333260119

$$$$
[H]C([H])=C([H])C(=O)N([H])c1c([H])c([H])c([H])c(C([H])([H])N2C(=O)N(c3c(Cl)c(OC([H])([H])[H])c([H])c(OC([H])([H])[H])c3Cl)C([H])([H])c3c([H])nc(N([H])C([H])([H])C([H])([H])C([H])([H])C([H])([H])N(C([H])([H])C([H])([H])[H])C([H])([H])C([H])([H])[H])nc32)c1[H]


 47 50  0  0  0  0  0  0  0  0999 V2000
   -6.9672   25.7613  -23.5428 C   0  0  0  0  0  0  0  0  0  0  0  0
   -7.2789   26.5557  -22.4806 N   0  0  0  0  0  0  0  0  0  0  0  0
   -7.4831   26.1073  -21.2535 C   0  0  0  0  0  0  0  0  0  0  0  0
   -7.3690   24.7153  -21.0337 C   0  0  0  0  0  0  0  0  0  0  0  0
   -7.4996   24.2042  -19.6621 C   0  0  0  0  0  0  0  0  0  0  0  0
   -7.8124   22.8166  -19.6329 N   0  0  0  0  0  0  0  0  0  0  0  0
   -7.4655   21.9515  -20.6863 C   0  0  0  0  0  0  0  0  0  0  0  0
   -7.5012   20.7111  -20.4816 O   0  0  0  0  0  0  0  0  0  0  0  0
   -7.0893   22.4969  -21.9371 N   0  0  0  0  0  0  0  0  0  0  0  0
   -7.0607   23.9101  -22.0883 C   0  0  0  0  0  0  0  0  0  0  0  0
   -6.8647   24.4541  -23.3183 N   0  0  0  0  0  0  0  0  0  0  0  0
   -8.5412   22.3545  -18.4853 C   0  0  0  0  0  0  0  0  0  0  0  0
   -7.7931   21.8745  -17.4354 C   0  0  0  0  0  0  0  0  0  0  0  0
   -6.0410   21.8750  -17.5326 Cl  0  0  0  0  0  0  0  0  0  0  0  0
   -8.4176   21.3871  -16.2805 C   0  0  0  0  0  0  0  0  0  0  0  0
   -9.8024   21.3775  -16.1681 C   0  0  0  0  0  0  0  0  0  0  0  0
  -10.5324   21.8590  -17.2219 C   0  0  0  0  0  0  0  0  0  0  0  0
   -9.9050   22.3425  -18.3683 C   0  0  0  0  0  0  0  0  0  0  0  0
  -10.8475   22.9568  -19.7092 Cl  0  0  0  0  0  0  0  0  0  0  0  0
   -7.6316   20.9188  -15.2596 O   0  0  0  0  0  0  0  0  0  0  0  0
   -7.5394   19.5512  -14.9693 C   0  0  0  0  0  0  0  0  0  0  0  0
  -11.9099   21.8632  -17.1406 O   0  0  0  0  0  0  0  0  0  0  0  0
  -12.7033   20.7593  -17.4474 C   0  0  0  0  0  0  0  0  0  0  0  0
   -6.7864   26.3484  -24.8269 N   0  0  0  0  0  0  0  0  0  0  0  0
   -7.6027   26.3671  -25.4710 H   0  0  0  0  0  0  0  0  0  0  0  0
   -5.5443   26.9059  -25.2564 C   0  0  0  0  0  0  0  0  0  0  0  0
   -5.0248   26.1856  -26.4820 C   0  0  0  0  0  0  0  0  0  0  0  0
   -6.0979   25.4673  -27.2558 C   0  0  0  0  0  0  0  0  0  0  0  0
   -5.9686   25.5965  -28.7205 C   0  0  0  0  0  0  0  0  0  0  0  0
   -5.9796   24.3893  -29.5058 N   0  0  0  0  0  0  0  0  0  0  0  0
   -4.1554   22.8773  -28.9911 C   0  0  0  0  0  0  0  0  0  0  0  0
   -5.5946   23.2269  -28.8412 C   0  0  0  0  0  0  0  0  0  0  0  0
   -5.6527   24.6072  -30.8610 C   0  0  0  0  0  0  0  0  0  0  0  0
   -5.1696   25.9963  -31.1340 C   0  0  0  0  0  0  0  0  0  0  0  0
   -6.7513   21.6103  -23.0237 C   0  0  0  0  0  0  0  0  0  0  0  0
   -5.2944   21.6872  -23.3713 C   0  0  0  0  0  0  0  0  0  0  0  0
   -4.8304   21.8667  -24.6406 C   0  0  0  0  0  0  0  0  0  0  0  0
   -3.4590   21.9481  -24.9158 C   0  0  0  0  0  0  0  0  0  0  0  0
   -2.5573   21.8429  -23.8518 C   0  0  0  0  0  0  0  0  0  0  0  0
   -2.9772   21.6635  -22.5750 C   0  0  0  0  0  0  0  0  0  0  0  0
   -4.3580   21.5887  -22.3630 C   0  0  0  0  0  0  0  0  0  0  0  0
   -2.0938   21.5421  -21.4769 N   0  0  0  0  0  0  0  0  0  0  0  0
   -1.5073   22.6016  -20.7924 C   0  0  0  0  0  0  0  0  0  0  0  0
   -1.6932   23.8306  -21.0872 O   0  0  0  0  0  0  0  0  0  0  0  0
   -1.8508   20.5558  -21.1327 H   0  0  0  0  0  0  0  0  0  0  0  0
   -0.6165   22.3780  -19.6641 C   0  0  0  0  0  0  0  0  0  0  0  0
   -1.0339   22.0545  -18.4696 C   0  0  0  0  0  0  0  0  0  0  0  0
 31 32  1  0  0  0
 32 30  1  0  0  0
 30 33  1  0  0  0
 33 34  1  0  0  0
 30 29  1  0  0  0
 29 28  1  0  0  0
 28 27  1  0  0  0
 27 26  1  0  0  0
 26 24  1  0  0  0
 24  1  1  0  0  0
  1  2  2  0  0  0
  2  3  1  0  0  0
  3  4  2  0  0  0
  4  5  1  0  0  0
  5  6  1  0  0  0
  6  7  1  0  0  0
  7  8  2  0  0  0
  7  9  1  0  0  0
  9 35  1  0  0  0
 35 36  1  0  0  0
 36 37  2  0  0  0
 37 38  1  0  0  0
 38 39  2  0  0  0
 39 40  1  0  0  0
 40 42  1  0  0  0
 42 43  1  0  0  0
 43 44  2  0  0  0
 43 46  1  0  0  0
 46 47  2  0  0  0
 40 41  2  0  0  0
  9 10  1  0  0  0
 10 11  2  0  0  0
  6 12  1  0  0  0
 12 13  2  0  0  0
 13 14  1  0  0  0
 13 15  1  0  0  0
 15 20  1  0  0  0
 20 21  1  0  0  0
 15 16  2  0  0  0
 16 17  1  0  0  0
 17 22  1  0  0  0
 22 23  1  0  0  0
 17 18  2  0  0  0
 18 19  1  0  0  0
 11  1  1  0  0  0
 18 12  1  0  0  0
 10  4  1  0  0  0
 41 36  1  0  0  0
 24 25  1  0  0  0
 42 45  1  0  0  0
M  END
> <minimizedAffinity>
-7.95707

> <CNNscore>
0.0314235836

> <CNNaffinity>
6.0752840042

> <CNN_VS>
0.1909071952

> <CNNaffinity_variance>
2.1768212318

$$$$
[H]C([H])=C([H])C(=O)N([H])c1c([H])c([H])c([H])c(C([H])([H])N2C(=O)N(c3c(Cl)c(OC([H])([H])[H])c([H])c(OC([H])([H])[H])c3Cl)C([H])([H])c3c([H])nc(N([H])C([H])([H])C([H])([H])C([H])([H])C([H])([H])N(C([H])([H])C([H])([H])[H])C([H])([H])C([H])([H])[H])nc32)c1[H]


 47 50  0  0  0  0  0  0  0  0999 V2000
   -7.2024   25.6577  -23.5313 C   0  0  0  0  0  0  0  0  0  0  0  0
   -7.4834   26.4682  -22.4727 N   0  0  0  0  0  0  0  0  0  0  0  0
   -7.6171   26.0429  -21.2277 C   0  0  0  0  0  0  0  0  0  0  0  0
   -7.4567   24.6597  -20.9836 C   0  0  0  0  0  0  0  0  0  0  0  0
   -7.5083   24.1769  -19.5965 C   0  0  0  0  0  0  0  0  0  0  0  0
   -7.7834   22.7830  -19.5223 N   0  0  0  0  0  0  0  0  0  0  0  0
   -7.4650   21.9029  -20.5723 C   0  0  0  0  0  0  0  0  0  0  0  0
   -7.4588   20.6671  -20.3393 O   0  0  0  0  0  0  0  0  0  0  0  0
   -7.1632   22.4287  -21.8513 N   0  0  0  0  0  0  0  0  0  0  0  0
   -7.1783   23.8385  -22.0342 C   0  0  0  0  0  0  0  0  0  0  0  0
   -7.0554   24.3589  -23.2837 N   0  0  0  0  0  0  0  0  0  0  0  0
   -8.4444   22.3293  -18.3311 C   0  0  0  0  0  0  0  0  0  0  0  0
   -9.8190   22.3792  -18.3349 C   0  0  0  0  0  0  0  0  0  0  0  0
  -10.6735   22.9494  -19.7576 Cl  0  0  0  0  0  0  0  0  0  0  0  0
  -10.5493   21.9729  -17.2111 C   0  0  0  0  0  0  0  0  0  0  0  0
   -9.9049   21.5108  -16.0702 C   0  0  0  0  0  0  0  0  0  0  0  0
   -8.5362   21.4670  -16.0828 C   0  0  0  0  0  0  0  0  0  0  0  0
   -7.8154   21.8729  -17.2042 C   0  0  0  0  0  0  0  0  0  0  0  0
   -6.0662   21.8120  -17.2102 Cl  0  0  0  0  0  0  0  0  0  0  0  0
  -11.9177   22.0399  -17.2605 O   0  0  0  0  0  0  0  0  0  0  0  0
  -12.7025   20.9029  -17.4935 C   0  0  0  0  0  0  0  0  0  0  0  0
   -7.8669   21.0126  -14.9650 O   0  0  0  0  0  0  0  0  0  0  0  0
   -8.5035   20.4414  -13.8647 C   0  0  0  0  0  0  0  0  0  0  0  0
   -7.0983   26.2196  -24.8349 N   0  0  0  0  0  0  0  0  0  0  0  0
   -7.3932   27.2088  -24.9617 H   0  0  0  0  0  0  0  0  0  0  0  0
   -6.6095   25.4865  -25.9583 C   0  0  0  0  0  0  0  0  0  0  0  0
   -5.1169   25.6784  -26.1195 C   0  0  0  0  0  0  0  0  0  0  0  0
   -4.5673   25.0748  -27.3844 C   0  0  0  0  0  0  0  0  0  0  0  0
   -5.5025   24.1591  -28.0668 C   0  0  0  0  0  0  0  0  0  0  0  0
   -5.8922   24.4782  -29.4159 N   0  0  0  0  0  0  0  0  0  0  0  0
   -4.8566   22.3334  -29.8708 C   0  0  0  0  0  0  0  0  0  0  0  0
   -5.6430   23.4945  -30.3706 C   0  0  0  0  0  0  0  0  0  0  0  0
   -5.7646   25.8502  -29.7195 C   0  0  0  0  0  0  0  0  0  0  0  0
   -5.1250   26.1021  -31.0481 C   0  0  0  0  0  0  0  0  0  0  0  0
   -6.8547   21.5262  -22.9335 C   0  0  0  0  0  0  0  0  0  0  0  0
   -5.4231   21.6442  -23.3648 C   0  0  0  0  0  0  0  0  0  0  0  0
   -5.0386   21.8343  -24.6589 C   0  0  0  0  0  0  0  0  0  0  0  0
   -3.6883   21.9545  -25.0130 C   0  0  0  0  0  0  0  0  0  0  0  0
   -2.7239   21.8775  -24.0029 C   0  0  0  0  0  0  0  0  0  0  0  0
   -3.0640   21.6887  -22.7038 C   0  0  0  0  0  0  0  0  0  0  0  0
   -4.4276   21.5748  -22.4124 C   0  0  0  0  0  0  0  0  0  0  0  0
   -2.1155   21.5951  -21.6586 N   0  0  0  0  0  0  0  0  0  0  0  0
   -1.5165   22.6723  -21.0139 C   0  0  0  0  0  0  0  0  0  0  0  0
   -1.7495   23.8948  -21.3025 O   0  0  0  0  0  0  0  0  0  0  0  0
   -1.8287   20.6169  -21.3251 H   0  0  0  0  0  0  0  0  0  0  0  0
   -0.5563   22.4769  -19.9385 C   0  0  0  0  0  0  0  0  0  0  0  0
   -0.4848   23.2486  -18.8874 C   0  0  0  0  0  0  0  0  0  0  0  0
 31 32  1  0  0  0
 32 30  1  0  0  0
 30 33  1  0  0  0
 33 34  1  0  0  0
 30 29  1  0  0  0
 29 28  1  0  0  0
 28 27  1  0  0  0
 27 26  1  0  0  0
 26 24  1  0  0  0
 24  1  1  0  0  0
  1  2  2  0  0  0
  2  3  1  0  0  0
  3  4  2  0  0  0
  4  5  1  0  0  0
  5  6  1  0  0  0
  6  7  1  0  0  0
  7  8  2  0  0  0
  7  9  1  0  0  0
  9 35  1  0  0  0
 35 36  1  0  0  0
 36 37  2  0  0  0
 37 38  1  0  0  0
 38 39  2  0  0  0
 39 40  1  0  0  0
 40 42  1  0  0  0
 42 43  1  0  0  0
 43 44  2  0  0  0
 43 46  1  0  0  0
 46 47  2  0  0  0
 40 41  2  0  0  0
  9 10  1  0  0  0
 10 11  2  0  0  0
  6 12  1  0  0  0
 12 13  2  0  0  0
 13 14  1  0  0  0
 13 15  1  0  0  0
 15 20  1  0  0  0
 20 21  1  0  0  0
 15 16  2  0  0  0
 16 17  1  0  0  0
 17 22  1  0  0  0
 22 23  1  0  0  0
 17 18  2  0  0  0
 18 19  1  0  0  0
 11  1  1  0  0  0
 18 12  1  0  0  0
 10  4  1  0  0  0
 41 36  1  0  0  0
 24 25  1  0  0  0
 42 45  1  0  0  0
M  END
> <minimizedAffinity>
-7.88078

> <CNNscore>
0.0305422638

> <CNNaffinity>
6.0653424263

> <CNN_VS>
0.1852492839

> <CNNaffinity_variance>
2.0237088203

$$$$
[H]C([H])=C([H])C(=O)N([H])c1c([H])c([H])c([H])c(C([H])([H])N2C(=O)N(c3c(Cl)c(OC([H])([H])[H])c([H])c(OC([H])([H])[H])c3Cl)C([H])([H])c3c([H])nc(N([H])C([H])([H])C([H])([H])C([H])([H])C([H])([H])N(C([H])([H])C([H])([H])[H])C([H])([H])C([H])([H])[H])nc32)c1[H]


 47 50  0  0  0  0  0  0  0  0999 V2000
   -1.2958   21.7781  -20.6357 C   0  0  0  0  0  0  0  0  0  0  0  0
   -1.3646   20.8227  -19.6666 N   0  0  0  0  0  0  0  0  0  0  0  0
   -2.4541   20.5519  -18.9679 C   0  0  0  0  0  0  0  0  0  0  0  0
   -3.6192   21.3024  -19.2475 C   0  0  0  0  0  0  0  0  0  0  0  0
   -4.8658   20.9570  -18.5501 C   0  0  0  0  0  0  0  0  0  0  0  0
   -5.8062   22.0244  -18.5695 N   0  0  0  0  0  0  0  0  0  0  0  0
   -5.8015   23.0044  -19.5785 C   0  0  0  0  0  0  0  0  0  0  0  0
   -6.8150   23.7375  -19.7086 O   0  0  0  0  0  0  0  0  0  0  0  0
   -4.6654   23.1368  -20.4122 N   0  0  0  0  0  0  0  0  0  0  0  0
   -3.5624   22.2625  -20.2122 C   0  0  0  0  0  0  0  0  0  0  0  0
   -2.4010   22.4753  -20.8852 N   0  0  0  0  0  0  0  0  0  0  0  0
   -6.7360   22.0707  -17.4763 C   0  0  0  0  0  0  0  0  0  0  0  0
   -7.9180   21.3879  -17.6463 C   0  0  0  0  0  0  0  0  0  0  0  0
   -8.2133   20.4988  -19.1301 Cl  0  0  0  0  0  0  0  0  0  0  0  0
   -8.8925   21.3901  -16.6406 C   0  0  0  0  0  0  0  0  0  0  0  0
   -8.6888   22.0789  -15.4513 C   0  0  0  0  0  0  0  0  0  0  0  0
   -7.5068   22.7532  -15.2976 C   0  0  0  0  0  0  0  0  0  0  0  0
   -6.5413   22.7472  -16.3023 C   0  0  0  0  0  0  0  0  0  0  0  0
   -5.0334   23.6115  -16.0954 Cl  0  0  0  0  0  0  0  0  0  0  0  0
  -10.0549   20.6956  -16.8541 O   0  0  0  0  0  0  0  0  0  0  0  0
  -10.3169   19.4815  -16.2056 C   0  0  0  0  0  0  0  0  0  0  0  0
   -7.2745   23.4466  -14.1275 O   0  0  0  0  0  0  0  0  0  0  0  0
   -8.2601   23.7066  -13.1771 C   0  0  0  0  0  0  0  0  0  0  0  0
   -0.0643   21.9995  -21.3144 N   0  0  0  0  0  0  0  0  0  0  0  0
    0.5536   22.7585  -20.9628 H   0  0  0  0  0  0  0  0  0  0  0  0
    0.3486   21.2282  -22.4425 C   0  0  0  0  0  0  0  0  0  0  0  0
    1.8235   20.8985  -22.3597 C   0  0  0  0  0  0  0  0  0  0  0  0
    2.3523   20.8621  -20.9506 C   0  0  0  0  0  0  0  0  0  0  0  0
    2.9621   19.5723  -20.5726 C   0  0  0  0  0  0  0  0  0  0  0  0
    2.6109   18.4096  -21.3464 N   0  0  0  0  0  0  0  0  0  0  0  0
    0.3356   17.8320  -20.7395 C   0  0  0  0  0  0  0  0  0  0  0  0
    1.7829   17.4846  -20.7141 C   0  0  0  0  0  0  0  0  0  0  0  0
    3.6333   18.0023  -22.2293 C   0  0  0  0  0  0  0  0  0  0  0  0
    5.0074   18.2285  -21.6831 C   0  0  0  0  0  0  0  0  0  0  0  0
   -4.6520   24.1538  -21.4352 C   0  0  0  0  0  0  0  0  0  0  0  0
   -4.9228   23.5792  -22.7938 C   0  0  0  0  0  0  0  0  0  0  0  0
   -6.0878   22.9564  -23.1306 C   0  0  0  0  0  0  0  0  0  0  0  0
   -6.3024   22.4481  -24.4186 C   0  0  0  0  0  0  0  0  0  0  0  0
   -5.2881   22.5928  -25.3708 C   0  0  0  0  0  0  0  0  0  0  0  0
   -4.1145   23.2052  -25.0766 C   0  0  0  0  0  0  0  0  0  0  0  0
   -3.9585   23.6909  -23.7739 C   0  0  0  0  0  0  0  0  0  0  0  0
   -3.0636   23.3593  -26.0107 N   0  0  0  0  0  0  0  0  0  0  0  0
   -1.9145   22.5776  -26.0684 C   0  0  0  0  0  0  0  0  0  0  0  0
   -1.6643   21.6178  -25.2634 O   0  0  0  0  0  0  0  0  0  0  0  0
   -3.1503   24.1389  -26.7421 H   0  0  0  0  0  0  0  0  0  0  0  0
   -0.8894   22.8055  -27.0754 C   0  0  0  0  0  0  0  0  0  0  0  0
    0.3573   22.4449  -26.9290 C   0  0  0  0  0  0  0  0  0  0  0  0
 31 32  1  0  0  0
 32 30  1  0  0  0
 30 33  1  0  0  0
 33 34  1  0  0  0
 30 29  1  0  0  0
 29 28  1  0  0  0
 28 27  1  0  0  0
 27 26  1  0  0  0
 26 24  1  0  0  0
 24  1  1  0  0  0
  1  2  2  0  0  0
  2  3  1  0  0  0
  3  4  2  0  0  0
  4  5  1  0  0  0
  5  6  1  0  0  0
  6  7  1  0  0  0
  7  8  2  0  0  0
  7  9  1  0  0  0
  9 35  1  0  0  0
 35 36  1  0  0  0
 36 37  2  0  0  0
 37 38  1  0  0  0
 38 39  2  0  0  0
 39 40  1  0  0  0
 40 42  1  0  0  0
 42 43  1  0  0  0
 43 44  2  0  0  0
 43 46  1  0  0  0
 46 47  2  0  0  0
 40 41  2  0  0  0
  9 10  1  0  0  0
 10 11  2  0  0  0
  6 12  1  0  0  0
 12 13  2  0  0  0
 13 14  1  0  0  0
 13 15  1  0  0  0
 15 20  1  0  0  0
 20 21  1  0  0  0
 15 16  2  0  0  0
 16 17  1  0  0  0
 17 22  1  0  0  0
 22 23  1  0  0  0
 17 18  2  0  0  0
 18 19  1  0  0  0
 11  1  1  0  0  0
 18 12  1  0  0  0
 10  4  1  0  0  0
 41 36  1  0  0  0
 24 25  1  0  0  0
 42 45  1  0  0  0
M  END
> <minimizedAffinity>
-5.97342

> <CNNscore>
0.0278417598

> <CNNaffinity>
6.3384308815

> <CNN_VS>
0.1764730662

> <CNNaffinity_variance>
0.3925398886

$$$$
[H]C([H])=C([H])C(=O)N([H])c1c([H])c([H])c([H])c(C([H])([H])N2C(=O)N(c3c(Cl)c(OC([H])([H])[H])c([H])c(OC([H])([H])[H])c3Cl)C([H])([H])c3c([H])nc(N([H])C([H])([H])C([H])([H])C([H])([H])C([H])([H])N(C([H])([H])C([H])([H])[H])C([H])([H])C([H])([H])[H])nc32)c1[H]


 47 50  0  0  0  0  0  0  0  0999 V2000
   -3.5788   22.5038  -20.1453 C   0  0  0  0  0  0  0  0  0  0  0  0
   -2.5880   23.3347  -20.5749 N   0  0  0  0  0  0  0  0  0  0  0  0
   -2.5821   23.9350  -21.7532 C   0  0  0  0  0  0  0  0  0  0  0  0
   -3.6748   23.6979  -22.6184 C   0  0  0  0  0  0  0  0  0  0  0  0
   -3.7364   24.4257  -23.8936 C   0  0  0  0  0  0  0  0  0  0  0  0
   -4.5949   23.7910  -24.8340 N   0  0  0  0  0  0  0  0  0  0  0  0
   -5.6598   22.9645  -24.4324 C   0  0  0  0  0  0  0  0  0  0  0  0
   -6.5466   22.6750  -25.2759 O   0  0  0  0  0  0  0  0  0  0  0  0
   -5.7030   22.4857  -23.1011 N   0  0  0  0  0  0  0  0  0  0  0  0
   -4.6703   22.8668  -22.2015 C   0  0  0  0  0  0  0  0  0  0  0  0
   -4.5989   22.2913  -20.9723 N   0  0  0  0  0  0  0  0  0  0  0  0
   -4.2877   24.0068  -26.2199 C   0  0  0  0  0  0  0  0  0  0  0  0
   -5.0347   24.9593  -26.8732 C   0  0  0  0  0  0  0  0  0  0  0  0
   -6.2681   25.8562  -26.0050 Cl  0  0  0  0  0  0  0  0  0  0  0  0
   -4.8176   25.2268  -28.2306 C   0  0  0  0  0  0  0  0  0  0  0  0
   -3.8455   24.5394  -28.9466 C   0  0  0  0  0  0  0  0  0  0  0  0
   -3.1102   23.5947  -28.2815 C   0  0  0  0  0  0  0  0  0  0  0  0
   -3.3314   23.3332  -26.9308 C   0  0  0  0  0  0  0  0  0  0  0  0
   -2.3853   22.1243  -26.0898 Cl  0  0  0  0  0  0  0  0  0  0  0  0
   -5.5860   26.1847  -28.8400 O   0  0  0  0  0  0  0  0  0  0  0  0
   -5.7155   26.2477  -30.2337 C   0  0  0  0  0  0  0  0  0  0  0  0
   -2.1369   22.8951  -28.9650 O   0  0  0  0  0  0  0  0  0  0  0  0
   -0.7816   23.2166  -28.9199 C   0  0  0  0  0  0  0  0  0  0  0  0
   -3.4748   21.8948  -18.8629 N   0  0  0  0  0  0  0  0  0  0  0  0
   -4.3564   21.6342  -18.3768 H   0  0  0  0  0  0  0  0  0  0  0  0
   -2.2229   21.6308  -18.2294 C   0  0  0  0  0  0  0  0  0  0  0  0
   -1.6230   20.3377  -18.7383 C   0  0  0  0  0  0  0  0  0  0  0  0
   -0.1298   20.3994  -18.9196 C   0  0  0  0  0  0  0  0  0  0  0  0
    0.3052   21.2987  -20.0062 C   0  0  0  0  0  0  0  0  0  0  0  0
    0.5590   20.7177  -21.2992 N   0  0  0  0  0  0  0  0  0  0  0  0
    2.5377   19.3217  -21.4237 C   0  0  0  0  0  0  0  0  0  0  0  0
    1.8969   20.6407  -21.6803 C   0  0  0  0  0  0  0  0  0  0  0  0
   -0.4609   20.9854  -22.2366 C   0  0  0  0  0  0  0  0  0  0  0  0
    0.0268   21.7248  -23.4421 C   0  0  0  0  0  0  0  0  0  0  0  0
   -6.7847   21.6229  -22.6934 C   0  0  0  0  0  0  0  0  0  0  0  0
   -7.6987   22.3010  -21.7166 C   0  0  0  0  0  0  0  0  0  0  0  0
   -8.1314   21.7213  -20.5611 C   0  0  0  0  0  0  0  0  0  0  0  0
   -8.9733   22.4000  -19.6701 C   0  0  0  0  0  0  0  0  0  0  0  0
   -9.3689   23.7036  -19.9873 C   0  0  0  0  0  0  0  0  0  0  0  0
   -8.9617   24.3162  -21.1264 C   0  0  0  0  0  0  0  0  0  0  0  0
   -8.1230   23.5876  -21.9768 C   0  0  0  0  0  0  0  0  0  0  0  0
   -9.3506   25.6283  -21.4841 N   0  0  0  0  0  0  0  0  0  0  0  0
  -10.5966   25.9924  -21.9839 C   0  0  0  0  0  0  0  0  0  0  0  0
  -11.5498   25.1677  -22.1919 O   0  0  0  0  0  0  0  0  0  0  0  0
   -8.6342   26.4170  -21.3614 H   0  0  0  0  0  0  0  0  0  0  0  0
  -10.9091   27.3742  -22.3149 C   0  0  0  0  0  0  0  0  0  0  0  0
  -11.8687   28.0524  -21.7450 C   0  0  0  0  0  0  0  0  0  0  0  0
 31 32  1  0  0  0
 32 30  1  0  0  0
 30 33  1  0  0  0
 33 34  1  0  0  0
 30 29  1  0  0  0
 29 28  1  0  0  0
 28 27  1  0  0  0
 27 26  1  0  0  0
 26 24  1  0  0  0
 24  1  1  0  0  0
  1  2  2  0  0  0
  2  3  1  0  0  0
  3  4  2  0  0  0
  4  5  1  0  0  0
  5  6  1  0  0  0
  6  7  1  0  0  0
  7  8  2  0  0  0
  7  9  1  0  0  0
  9 35  1  0  0  0
 35 36  1  0  0  0
 36 37  2  0  0  0
 37 38  1  0  0  0
 38 39  2  0  0  0
 39 40  1  0  0  0
 40 42  1  0  0  0
 42 43  1  0  0  0
 43 44  2  0  0  0
 43 46  1  0  0  0
 46 47  2  0  0  0
 40 41  2  0  0  0
  9 10  1  0  0  0
 10 11  2  0  0  0
  6 12  1  0  0  0
 12 13  2  0  0  0
 13 14  1  0  0  0
 13 15  1  0  0  0
 15 20  1  0  0  0
 20 21  1  0  0  0
 15 16  2  0  0  0
 16 17  1  0  0  0
 17 22  1  0  0  0
 22 23  1  0  0  0
 17 18  2  0  0  0
 18 19  1  0  0  0
 11  1  1  0  0  0
 18 12  1  0  0  0
 10  4  1  0  0  0
 41 36  1  0  0  0
 24 25  1  0  0  0
 42 45  1  0  0  0
M  END
> <minimizedAffinity>
-7.25305

> <CNNscore>
0.0272583533

> <CNNaffinity>
6.8833451271

> <CNN_VS>
0.1876286566

> <CNNaffinity_variance>
0.5611575842

$$$$
[H]C([H])=C([H])C(=O)N([H])c1c([H])c([H])c([H])c(C([H])([H])N2C(=O)N(c3c(Cl)c(OC([H])([H])[H])c([H])c(OC([H])([H])[H])c3Cl)C([H])([H])c3c([H])nc(N([H])C([H])([H])C([H])([H])C([H])([H])C([H])([H])N(C([H])([H])C([H])([H])[H])C([H])([H])C([H])([H])[H])nc32)c1[H]


 47 50  0  0  0  0  0  0  0  0999 V2000
   -3.6050   22.3857  -20.0076 C   0  0  0  0  0  0  0  0  0  0  0  0
   -2.5626   23.1502  -20.4382 N   0  0  0  0  0  0  0  0  0  0  0  0
   -2.5209   23.7529  -21.6145 C   0  0  0  0  0  0  0  0  0  0  0  0
   -3.6300   23.5922  -22.4764 C   0  0  0  0  0  0  0  0  0  0  0  0
   -3.6475   24.3270  -23.7489 C   0  0  0  0  0  0  0  0  0  0  0  0
   -4.5497   23.7543  -24.6882 N   0  0  0  0  0  0  0  0  0  0  0  0
   -5.6659   22.9991  -24.2854 C   0  0  0  0  0  0  0  0  0  0  0  0
   -6.5730   22.7723  -25.1264 O   0  0  0  0  0  0  0  0  0  0  0  0
   -5.7362   22.5196  -22.9555 N   0  0  0  0  0  0  0  0  0  0  0  0
   -4.6772   22.8278  -22.0585 C   0  0  0  0  0  0  0  0  0  0  0  0
   -4.6399   22.2445  -20.8315 N   0  0  0  0  0  0  0  0  0  0  0  0
   -4.2337   23.9540  -26.0745 C   0  0  0  0  0  0  0  0  0  0  0  0
   -4.9366   24.9390  -26.7287 C   0  0  0  0  0  0  0  0  0  0  0  0
   -6.1269   25.8927  -25.8609 Cl  0  0  0  0  0  0  0  0  0  0  0  0
   -4.7081   25.1946  -28.0865 C   0  0  0  0  0  0  0  0  0  0  0  0
   -3.7690   24.4623  -28.8022 C   0  0  0  0  0  0  0  0  0  0  0  0
   -3.0776   23.4856  -28.1363 C   0  0  0  0  0  0  0  0  0  0  0  0
   -3.3098   23.2362  -26.7851 C   0  0  0  0  0  0  0  0  0  0  0  0
   -2.4198   21.9862  -25.9431 Cl  0  0  0  0  0  0  0  0  0  0  0  0
   -5.4320   26.1860  -28.6967 O   0  0  0  0  0  0  0  0  0  0  0  0
   -5.6166   26.2145  -30.0853 C   0  0  0  0  0  0  0  0  0  0  0  0
   -2.1378   22.7412  -28.8194 O   0  0  0  0  0  0  0  0  0  0  0  0
   -0.7868   23.0769  -28.8834 C   0  0  0  0  0  0  0  0  0  0  0  0
   -3.5373   21.7665  -18.7277 N   0  0  0  0  0  0  0  0  0  0  0  0
   -4.3691   21.2341  -18.4018 H   0  0  0  0  0  0  0  0  0  0  0  0
   -2.3858   21.8469  -17.8877 C   0  0  0  0  0  0  0  0  0  0  0  0
   -2.7533   21.5879  -16.4424 C   0  0  0  0  0  0  0  0  0  0  0  0
   -3.5955   22.6767  -15.8329 C   0  0  0  0  0  0  0  0  0  0  0  0
   -4.9808   22.2654  -15.5325 C   0  0  0  0  0  0  0  0  0  0  0  0
   -6.0482   23.1284  -15.9681 N   0  0  0  0  0  0  0  0  0  0  0  0
   -6.2755   24.1706  -18.1456 C   0  0  0  0  0  0  0  0  0  0  0  0
   -6.4612   22.9673  -17.2889 C   0  0  0  0  0  0  0  0  0  0  0  0
   -6.0195   24.3983  -15.3537 C   0  0  0  0  0  0  0  0  0  0  0  0
   -6.8953   24.4870  -14.1442 C   0  0  0  0  0  0  0  0  0  0  0  0
   -6.8716   21.7293  -22.5465 C   0  0  0  0  0  0  0  0  0  0  0  0
   -7.8126   22.5142  -21.6818 C   0  0  0  0  0  0  0  0  0  0  0  0
   -8.1583   23.8101  -21.9263 C   0  0  0  0  0  0  0  0  0  0  0  0
   -9.0545   24.4991  -21.0985 C   0  0  0  0  0  0  0  0  0  0  0  0
   -9.6005   23.8269  -20.0002 C   0  0  0  0  0  0  0  0  0  0  0  0
   -9.2826   22.5384  -19.7215 C   0  0  0  0  0  0  0  0  0  0  0  0
   -8.3817   21.9038  -20.5833 C   0  0  0  0  0  0  0  0  0  0  0  0
   -9.8067   21.8315  -18.6141 N   0  0  0  0  0  0  0  0  0  0  0  0
  -11.1430   21.8128  -18.2280 C   0  0  0  0  0  0  0  0  0  0  0  0
  -12.0687   22.4519  -18.8334 O   0  0  0  0  0  0  0  0  0  0  0  0
   -9.1270   21.2561  -18.0165 H   0  0  0  0  0  0  0  0  0  0  0  0
  -11.5912   21.0451  -17.0762 C   0  0  0  0  0  0  0  0  0  0  0  0
  -11.7370   19.7473  -17.0879 C   0  0  0  0  0  0  0  0  0  0  0  0
 31 32  1  0  0  0
 32 30  1  0  0  0
 30 33  1  0  0  0
 33 34  1  0  0  0
 30 29  1  0  0  0
 29 28  1  0  0  0
 28 27  1  0  0  0
 27 26  1  0  0  0
 26 24  1  0  0  0
 24  1  1  0  0  0
  1  2  2  0  0  0
  2  3  1  0  0  0
  3  4  2  0  0  0
  4  5  1  0  0  0
  5  6  1  0  0  0
  6  7  1  0  0  0
  7  8  2  0  0  0
  7  9  1  0  0  0
  9 35  1  0  0  0
 35 36  1  0  0  0
 36 37  2  0  0  0
 37 38  1  0  0  0
 38 39  2  0  0  0
 39 40  1  0  0  0
 40 42  1  0  0  0
 42 43  1  0  0  0
 43 44  2  0  0  0
 43 46  1  0  0  0
 46 47  2  0  0  0
 40 41  2  0  0  0
  9 10  1  0  0  0
 10 11  2  0  0  0
  6 12  1  0  0  0
 12 13  2  0  0  0
 13 14  1  0  0  0
 13 15  1  0  0  0
 15 20  1  0  0  0
 20 21  1  0  0  0
 15 16  2  0  0  0
 16 17  1  0  0  0
 17 22  1  0  0  0
 22 23  1  0  0  0
 17 18  2  0  0  0
 18 19  1  0  0  0
 11  1  1  0  0  0
 18 12  1  0  0  0
 10  4  1  0  0  0
 41 36  1  0  0  0
 24 25  1  0  0  0
 42 45  1  0  0  0
M  END
> <minimizedAffinity>
-7.01895

> <CNNscore>
0.0271322392

> <CNNaffinity>
6.5946960449

> <CNN_VS>
0.1789288670

> <CNNaffinity_variance>
0.3859426975

$$$$
[H]OC([H])(C([H])([H])Oc1c(OC([H])([H])[H])c([H])c2c(Oc3c([H])c([H])c(N([H])c4c([H])c([H])c(C(C([H])([H])[H])(C([H])([H])[H])C([H])([H])[H])c([H])c4[H])c([H])c3[H])c([H])c([H])nc2c1[H])C([H])([H])N1C([H])([H])C([H])([H])OC([H])([H])C1([H])[H]


 43 47  0  0  0  0  0  0  0  0999 V2000
   -0.9765   22.1089  -23.4095 C   0  0  0  0  0  0  0  0  0  0  0  0
   -1.8434   22.6214  -24.3677 C   0  0  0  0  0  0  0  0  0  0  0  0
   -1.3766   22.6733  -25.6816 C   0  0  0  0  0  0  0  0  0  0  0  0
   -2.2919   23.1455  -26.6929 C   0  0  0  0  0  0  0  0  0  0  0  0
   -1.8816   23.2248  -27.9768 C   0  0  0  0  0  0  0  0  0  0  0  0
   -0.5729   22.8136  -28.3317 C   0  0  0  0  0  0  0  0  0  0  0  0
    0.2441   22.3532  -27.3328 N   0  0  0  0  0  0  0  0  0  0  0  0
   -0.1741   22.2878  -26.0504 C   0  0  0  0  0  0  0  0  0  0  0  0
    0.7112   21.7635  -25.0900 C   0  0  0  0  0  0  0  0  0  0  0  0
    0.3057   21.6654  -23.7790 C   0  0  0  0  0  0  0  0  0  0  0  0
   -1.4801   23.1894  -21.2876 C   0  0  0  0  0  0  0  0  0  0  0  0
   -1.3276   22.0453  -22.0832 O   0  0  0  0  0  0  0  0  0  0  0  0
   -3.4760   23.4063  -26.2778 O   0  0  0  0  0  0  0  0  0  0  0  0
   -4.6553   23.6759  -25.8597 C   0  0  0  0  0  0  0  0  0  0  0  0
   -4.6014   24.6951  -24.8095 C   0  0  0  0  0  0  0  0  0  0  0  0
   -5.7037   25.1687  -24.2378 C   0  0  0  0  0  0  0  0  0  0  0  0
   -6.9804   24.7408  -24.5907 C   0  0  0  0  0  0  0  0  0  0  0  0
   -7.0625   23.7793  -25.5586 C   0  0  0  0  0  0  0  0  0  0  0  0
   -5.9084   23.2611  -26.1741 C   0  0  0  0  0  0  0  0  0  0  0  0
   -8.0175   25.4282  -24.0397 N   0  0  0  0  0  0  0  0  0  0  0  0
   -8.2953   26.3965  -24.6243 H   0  0  0  0  0  0  0  0  0  0  0  0
   -8.9063   25.3524  -22.9675 C   0  0  0  0  0  0  0  0  0  0  0  0
   -8.5585   24.6240  -21.8423 C   0  0  0  0  0  0  0  0  0  0  0  0
   -9.4590   24.2762  -20.8640 C   0  0  0  0  0  0  0  0  0  0  0  0
  -10.7681   24.6514  -20.9697 C   0  0  0  0  0  0  0  0  0  0  0  0
  -11.1543   25.4049  -22.0956 C   0  0  0  0  0  0  0  0  0  0  0  0
  -10.2342   25.7422  -23.0673 C   0  0  0  0  0  0  0  0  0  0  0  0
  -11.8314   24.1766  -20.0752 C   0  0  0  0  0  0  0  0  0  0  0  0
  -13.1004   23.8490  -20.8391 C   0  0  0  0  0  0  0  0  0  0  0  0
  -11.3506   22.9011  -19.3329 C   0  0  0  0  0  0  0  0  0  0  0  0
  -12.1449   25.1343  -18.9848 C   0  0  0  0  0  0  0  0  0  0  0  0
    1.0642   21.0855  -22.7422 O   0  0  0  0  0  0  0  0  0  0  0  0
    2.3793   20.9426  -22.6970 C   0  0  0  0  0  0  0  0  0  0  0  0
    3.4686   20.5389  -21.8624 C   0  0  0  0  0  0  0  0  0  0  0  0
    2.7228   19.4518  -21.0407 O   0  0  0  0  0  0  0  0  0  0  0  0
    2.0252   20.1026  -20.7039 H   0  0  0  0  0  0  0  0  0  0  0  0
    3.9630   21.3300  -20.6970 C   0  0  0  0  0  0  0  0  0  0  0  0
    4.0586   20.7268  -19.4086 N   0  0  0  0  0  0  0  0  0  0  0  0
    5.4845   20.7981  -19.0347 C   0  0  0  0  0  0  0  0  0  0  0  0
    6.0165   22.1945  -19.1899 C   0  0  0  0  0  0  0  0  0  0  0  0
    5.3688   23.0269  -18.3160 O   0  0  0  0  0  0  0  0  0  0  0  0
    4.0054   22.9531  -18.3677 C   0  0  0  0  0  0  0  0  0  0  0  0
    3.3692   21.6283  -18.4395 C   0  0  0  0  0  0  0  0  0  0  0  0
 11 12  1  0  0  0
 12  1  1  0  0  0
  1  2  2  0  0  0
  2  3  1  0  0  0
  3  4  2  0  0  0
  4 13  1  0  0  0
 13 14  1  0  0  0
 14 15  2  0  0  0
 15 16  1  0  0  0
 16 17  2  0  0  0
 17 20  1  0  0  0
 20 22  1  0  0  0
 22 23  2  0  0  0
 23 24  1  0  0  0
 24 25  2  0  0  0
 25 26  1  0  0  0
 26 27  2  0  0  0
 25 28  1  0  0  0
 28 29  1  0  0  0
 28 30  1  0  0  0
 28 31  1  0  0  0
 17 18  1  0  0  0
 18 19  2  0  0  0
  4  5  1  0  0  0
  5  6  2  0  0  0
  6  7  1  0  0  0
  7  8  2  0  0  0
  8  9  1  0  0  0
  9 10  2  0  0  0
 10 32  1  0  0  0
 32 33  1  0  0  0
 33 34  1  0  0  0
 34 35  1  0  0  0
 34 37  1  0  0  0
 37 38  1  0  0  0
 38 39  1  0  0  0
 39 40  1  0  0  0
 40 41  1  0  0  0
 41 42  1  0  0  0
 42 43  1  0  0  0
 10  1  1  0  0  0
 43 38  1  0  0  0
  8  3  1  0  0  0
 19 14  1  0  0  0
 27 22  1  0  0  0
 20 21  1  0  0  0
 35 36  1  0  0  0
M  END
> <minimizedAffinity>
-8.29809

> <CNNscore>
0.3975385427

> <CNNaffinity>
6.7478156090

> <CNN_VS>
2.6825168133

> <CNNaffinity_variance>
0.1605537236

$$$$
[H]OC([H])(C([H])([H])Oc1c(OC([H])([H])[H])c([H])c2c(Oc3c([H])c([H])c(N([H])c4c([H])c([H])c(C(C([H])([H])[H])(C([H])([H])[H])C([H])([H])[H])c([H])c4[H])c([H])c3[H])c([H])c([H])nc2c1[H])C([H])([H])N1C([H])([H])C([H])([H])OC([H])([H])C1([H])[H]


 43 47  0  0  0  0  0  0  0  0999 V2000
   -0.7331   21.7821  -22.6118 C   0  0  0  0  0  0  0  0  0  0  0  0
   -1.5564   22.2893  -23.6105 C   0  0  0  0  0  0  0  0  0  0  0  0
   -1.0257   22.3492  -24.8996 C   0  0  0  0  0  0  0  0  0  0  0  0
   -1.8944   22.8157  -25.9537 C   0  0  0  0  0  0  0  0  0  0  0  0
   -1.4220   22.9023  -27.2156 C   0  0  0  0  0  0  0  0  0  0  0  0
   -0.0936   22.5043  -27.5064 C   0  0  0  0  0  0  0  0  0  0  0  0
    0.6774   22.0486  -26.4695 N   0  0  0  0  0  0  0  0  0  0  0  0
    0.1970   21.9758  -25.2095 C   0  0  0  0  0  0  0  0  0  0  0  0
    1.0387   21.4569  -24.2077 C   0  0  0  0  0  0  0  0  0  0  0  0
    0.5700   21.3515  -22.9186 C   0  0  0  0  0  0  0  0  0  0  0  0
   -2.4276   22.1151  -20.8968 C   0  0  0  0  0  0  0  0  0  0  0  0
   -1.1485   21.7116  -21.3046 O   0  0  0  0  0  0  0  0  0  0  0  0
   -3.1000   23.0645  -25.5970 O   0  0  0  0  0  0  0  0  0  0  0  0
   -4.3017   23.3230  -25.2405 C   0  0  0  0  0  0  0  0  0  0  0  0
   -4.3267   24.4736  -24.3349 C   0  0  0  0  0  0  0  0  0  0  0  0
   -5.4659   24.9585  -23.8521 C   0  0  0  0  0  0  0  0  0  0  0  0
   -6.7097   24.4194  -24.1682 C   0  0  0  0  0  0  0  0  0  0  0  0
   -6.7179   23.3353  -25.0005 C   0  0  0  0  0  0  0  0  0  0  0  0
   -5.5236   22.8033  -25.5199 C   0  0  0  0  0  0  0  0  0  0  0  0
   -7.7942   25.1168  -23.7331 N   0  0  0  0  0  0  0  0  0  0  0  0
   -8.0663   26.0231  -24.4123 H   0  0  0  0  0  0  0  0  0  0  0  0
   -8.7382   25.1025  -22.7064 C   0  0  0  0  0  0  0  0  0  0  0  0
   -8.5591   24.2552  -21.6259 C   0  0  0  0  0  0  0  0  0  0  0  0
   -9.5498   23.9809  -20.7136 C   0  0  0  0  0  0  0  0  0  0  0  0
  -10.7824   24.5548  -20.8437 C   0  0  0  0  0  0  0  0  0  0  0  0
  -10.9956   25.4327  -21.9246 C   0  0  0  0  0  0  0  0  0  0  0  0
   -9.9875   25.6934  -22.8303 C   0  0  0  0  0  0  0  0  0  0  0  0
  -11.9483   24.1853  -20.0310 C   0  0  0  0  0  0  0  0  0  0  0  0
  -13.1464   23.8410  -20.8954 C   0  0  0  0  0  0  0  0  0  0  0  0
  -11.5959   22.9562  -19.1512 C   0  0  0  0  0  0  0  0  0  0  0  0
  -12.3308   25.2342  -19.0522 C   0  0  0  0  0  0  0  0  0  0  0  0
    1.2817   20.7757  -21.8470 O   0  0  0  0  0  0  0  0  0  0  0  0
    2.5740   20.8977  -21.5879 C   0  0  0  0  0  0  0  0  0  0  0  0
    3.8228   20.2001  -21.5909 C   0  0  0  0  0  0  0  0  0  0  0  0
    4.0998   20.2549  -23.1183 O   0  0  0  0  0  0  0  0  0  0  0  0
    3.2386   19.7773  -23.3503 H   0  0  0  0  0  0  0  0  0  0  0  0
    3.9508   18.7202  -21.4432 C   0  0  0  0  0  0  0  0  0  0  0  0
    4.3713   17.9224  -22.5476 N   0  0  0  0  0  0  0  0  0  0  0  0
    5.6091   17.2482  -22.1101 C   0  0  0  0  0  0  0  0  0  0  0  0
    5.4134   16.5595  -20.7893 C   0  0  0  0  0  0  0  0  0  0  0  0
    4.4857   15.5617  -20.9305 O   0  0  0  0  0  0  0  0  0  0  0  0
    3.3172   15.9536  -21.5205 C   0  0  0  0  0  0  0  0  0  0  0  0
    3.3782   16.8201  -22.7081 C   0  0  0  0  0  0  0  0  0  0  0  0
 11 12  1  0  0  0
 12  1  1  0  0  0
  1  2  2  0  0  0
  2  3  1  0  0  0
  3  4  2  0  0  0
  4 13  1  0  0  0
 13 14  1  0  0  0
 14 15  2  0  0  0
 15 16  1  0  0  0
 16 17  2  0  0  0
 17 20  1  0  0  0
 20 22  1  0  0  0
 22 23  2  0  0  0
 23 24  1  0  0  0
 24 25  2  0  0  0
 25 26  1  0  0  0
 26 27  2  0  0  0
 25 28  1  0  0  0
 28 29  1  0  0  0
 28 30  1  0  0  0
 28 31  1  0  0  0
 17 18  1  0  0  0
 18 19  2  0  0  0
  4  5  1  0  0  0
  5  6  2  0  0  0
  6  7  1  0  0  0
  7  8  2  0  0  0
  8  9  1  0  0  0
  9 10  2  0  0  0
 10 32  1  0  0  0
 32 33  1  0  0  0
 33 34  1  0  0  0
 34 35  1  0  0  0
 34 37  1  0  0  0
 37 38  1  0  0  0
 38 39  1  0  0  0
 39 40  1  0  0  0
 40 41  1  0  0  0
 41 42  1  0  0  0
 42 43  1  0  0  0
 10  1  1  0  0  0
 43 38  1  0  0  0
  8  3  1  0  0  0
 19 14  1  0  0  0
 27 22  1  0  0  0
 20 21  1  0  0  0
 35 36  1  0  0  0
M  END
> <minimizedAffinity>
-8.32831

> <CNNscore>
0.3846923709

> <CNNaffinity>
6.6651344299

> <CNN_VS>
2.5640263557

> <CNNaffinity_variance>
0.0682615414

$$$$
[H]OC([H])(C([H])([H])Oc1c(OC([H])([H])[H])c([H])c2c(Oc3c([H])c([H])c(N([H])c4c([H])c([H])c(C(C([H])([H])[H])(C([H])([H])[H])C([H])([H])[H])c([H])c4[H])c([H])c3[H])c([H])c([H])nc2c1[H])C([H])([H])N1C([H])([H])C([H])([H])OC([H])([H])C1([H])[H]


 43 47  0  0  0  0  0  0  0  0999 V2000
   -3.8855   21.9762  -24.5754 C   0  0  0  0  0  0  0  0  0  0  0  0
   -2.5200   21.9113  -24.8274 C   0  0  0  0  0  0  0  0  0  0  0  0
   -2.0862   22.3398  -26.0825 C   0  0  0  0  0  0  0  0  0  0  0  0
   -0.6642   22.3349  -26.3304 C   0  0  0  0  0  0  0  0  0  0  0  0
   -0.1975   22.7296  -27.5344 C   0  0  0  0  0  0  0  0  0  0  0  0
   -1.0967   23.1783  -28.5332 C   0  0  0  0  0  0  0  0  0  0  0  0
   -2.4335   23.1822  -28.2332 N   0  0  0  0  0  0  0  0  0  0  0  0
   -2.8894   22.7756  -27.0288 C   0  0  0  0  0  0  0  0  0  0  0  0
   -4.2736   22.8497  -26.7840 C   0  0  0  0  0  0  0  0  0  0  0  0
   -4.7652   22.4617  -25.5592 C   0  0  0  0  0  0  0  0  0  0  0  0
   -3.7533   21.7084  -22.1599 C   0  0  0  0  0  0  0  0  0  0  0  0
   -4.4176   21.5479  -23.3839 O   0  0  0  0  0  0  0  0  0  0  0  0
    0.0625   21.9957  -25.3308 O   0  0  0  0  0  0  0  0  0  0  0  0
    0.7811   21.6605  -24.3261 C   0  0  0  0  0  0  0  0  0  0  0  0
   -0.0218   21.6704  -23.1014 C   0  0  0  0  0  0  0  0  0  0  0  0
    0.4922   21.3243  -21.9258 C   0  0  0  0  0  0  0  0  0  0  0  0
    1.8170   20.9267  -21.7689 C   0  0  0  0  0  0  0  0  0  0  0  0
    2.5957   20.9208  -22.8923 C   0  0  0  0  0  0  0  0  0  0  0  0
    2.0731   21.2873  -24.1460 C   0  0  0  0  0  0  0  0  0  0  0  0
    2.1584   20.4465  -20.5423 N   0  0  0  0  0  0  0  0  0  0  0  0
    1.9079   19.3180  -20.3995 H   0  0  0  0  0  0  0  0  0  0  0  0
    2.7442   20.8693  -19.3492 C   0  0  0  0  0  0  0  0  0  0  0  0
    2.3872   20.2579  -18.1591 C   0  0  0  0  0  0  0  0  0  0  0  0
    2.7035   20.7734  -16.9249 C   0  0  0  0  0  0  0  0  0  0  0  0
    3.4053   21.9411  -16.8268 C   0  0  0  0  0  0  0  0  0  0  0  0
    3.7961   22.5833  -18.0182 C   0  0  0  0  0  0  0  0  0  0  0  0
    3.4668   22.0494  -19.2474 C   0  0  0  0  0  0  0  0  0  0  0  0
    3.6307   22.6582  -15.5653 C   0  0  0  0  0  0  0  0  0  0  0  0
    4.2967   24.0013  -15.7966 C   0  0  0  0  0  0  0  0  0  0  0  0
    2.2713   22.8896  -14.8529 C   0  0  0  0  0  0  0  0  0  0  0  0
    4.4251   21.8753  -14.5853 C   0  0  0  0  0  0  0  0  0  0  0  0
   -6.1139   22.5644  -25.1630 O   0  0  0  0  0  0  0  0  0  0  0  0
   -6.6549   23.5033  -24.4028 C   0  0  0  0  0  0  0  0  0  0  0  0
   -6.9315   23.8758  -23.0497 C   0  0  0  0  0  0  0  0  0  0  0  0
   -7.0564   22.4478  -22.4513 O   0  0  0  0  0  0  0  0  0  0  0  0
   -7.8045   22.1868  -23.0804 H   0  0  0  0  0  0  0  0  0  0  0  0
   -8.2554   24.3791  -22.5782 C   0  0  0  0  0  0  0  0  0  0  0  0
   -8.5967   25.7549  -22.7322 N   0  0  0  0  0  0  0  0  0  0  0  0
  -10.0712   25.8103  -22.7046 C   0  0  0  0  0  0  0  0  0  0  0  0
  -10.6185   25.0881  -21.5063 C   0  0  0  0  0  0  0  0  0  0  0  0
  -10.2087   25.7260  -20.3655 O   0  0  0  0  0  0  0  0  0  0  0  0
   -8.8636   25.9564  -20.2970 C   0  0  0  0  0  0  0  0  0  0  0  0
   -8.1694   26.4643  -21.4908 C   0  0  0  0  0  0  0  0  0  0  0  0
 11 12  1  0  0  0
 12  1  1  0  0  0
  1  2  2  0  0  0
  2  3  1  0  0  0
  3  4  2  0  0  0
  4 13  1  0  0  0
 13 14  1  0  0  0
 14 15  2  0  0  0
 15 16  1  0  0  0
 16 17  2  0  0  0
 17 20  1  0  0  0
 20 22  1  0  0  0
 22 23  2  0  0  0
 23 24  1  0  0  0
 24 25  2  0  0  0
 25 26  1  0  0  0
 26 27  2  0  0  0
 25 28  1  0  0  0
 28 29  1  0  0  0
 28 30  1  0  0  0
 28 31  1  0  0  0
 17 18  1  0  0  0
 18 19  2  0  0  0
  4  5  1  0  0  0
  5  6  2  0  0  0
  6  7  1  0  0  0
  7  8  2  0  0  0
  8  9  1  0  0  0
  9 10  2  0  0  0
 10 32  1  0  0  0
 32 33  1  0  0  0
 33 34  1  0  0  0
 34 35  1  0  0  0
 34 37  1  0  0  0
 37 38  1  0  0  0
 38 39  1  0  0  0
 39 40  1  0  0  0
 40 41  1  0  0  0
 41 42  1  0  0  0
 42 43  1  0  0  0
 10  1  1  0  0  0
 43 38  1  0  0  0
  8  3  1  0  0  0
 19 14  1  0  0  0
 27 22  1  0  0  0
 20 21  1  0  0  0
 35 36  1  0  0  0
M  END
> <minimizedAffinity>
-7.82832

> <CNNscore>
0.3237303793

> <CNNaffinity>
6.6367402077

> <CNN_VS>
2.1485145092

> <CNNaffinity_variance>
0.1102255732

$$$$
[H]OC([H])(C([H])([H])Oc1c(OC([H])([H])[H])c([H])c2c(Oc3c([H])c([H])c(N([H])c4c([H])c([H])c(C(C([H])([H])[H])(C([H])([H])[H])C([H])([H])[H])c([H])c4[H])c([H])c3[H])c([H])c([H])nc2c1[H])C([H])([H])N1C([H])([H])C([H])([H])OC([H])([H])C1([H])[H]


 43 47  0  0  0  0  0  0  0  0999 V2000
   -5.2465   24.6452  -24.4982 C   0  0  0  0  0  0  0  0  0  0  0  0
   -4.3711   23.9931  -25.3590 C   0  0  0  0  0  0  0  0  0  0  0  0
   -4.7939   23.8140  -26.6766 C   0  0  0  0  0  0  0  0  0  0  0  0
   -3.8665   23.1941  -27.5926 C   0  0  0  0  0  0  0  0  0  0  0  0
   -4.2351   22.9888  -28.8752 C   0  0  0  0  0  0  0  0  0  0  0  0
   -5.5105   23.4118  -29.3248 C   0  0  0  0  0  0  0  0  0  0  0  0
   -6.3398   24.0147  -28.4160 N   0  0  0  0  0  0  0  0  0  0  0  0
   -5.9639   24.2056  -27.1331 C   0  0  0  0  0  0  0  0  0  0  0  0
   -6.8572   24.8704  -26.2721 C   0  0  0  0  0  0  0  0  0  0  0  0
   -6.4935   25.0975  -24.9649 C   0  0  0  0  0  0  0  0  0  0  0  0
   -3.7095   24.4598  -22.6202 C   0  0  0  0  0  0  0  0  0  0  0  0
   -4.9392   24.8420  -23.1741 O   0  0  0  0  0  0  0  0  0  0  0  0
   -2.7107   22.9322  -27.1047 O   0  0  0  0  0  0  0  0  0  0  0  0
   -1.5530   22.6687  -26.6269 C   0  0  0  0  0  0  0  0  0  0  0  0
   -1.6734   22.1344  -25.2687 C   0  0  0  0  0  0  0  0  0  0  0  0
   -0.6089   21.7525  -24.5709 C   0  0  0  0  0  0  0  0  0  0  0  0
    0.6879   21.8262  -25.0714 C   0  0  0  0  0  0  0  0  0  0  0  0
    0.8339   22.3342  -26.3319 C   0  0  0  0  0  0  0  0  0  0  0  0
   -0.2789   22.7482  -27.0867 C   0  0  0  0  0  0  0  0  0  0  0  0
    1.6584   21.2502  -24.3112 N   0  0  0  0  0  0  0  0  0  0  0  0
    2.5380   20.8112  -24.9359 H   0  0  0  0  0  0  0  0  0  0  0  0
    1.9721   21.0083  -22.9739 C   0  0  0  0  0  0  0  0  0  0  0  0
    0.9702   21.0515  -22.0189 C   0  0  0  0  0  0  0  0  0  0  0  0
    1.2206   21.0902  -20.6681 C   0  0  0  0  0  0  0  0  0  0  0  0
    2.5062   21.0842  -20.2066 C   0  0  0  0  0  0  0  0  0  0  0  0
    3.5504   21.0276  -21.1505 C   0  0  0  0  0  0  0  0  0  0  0  0
    3.2771   20.9909  -22.5027 C   0  0  0  0  0  0  0  0  0  0  0  0
    2.8737   21.3048  -18.8022 C   0  0  0  0  0  0  0  0  0  0  0  0
    3.4652   20.0561  -18.1759 C   0  0  0  0  0  0  0  0  0  0  0  0
    3.9170   22.4507  -18.7152 C   0  0  0  0  0  0  0  0  0  0  0  0
    1.7393   21.7834  -17.9724 C   0  0  0  0  0  0  0  0  0  0  0  0
   -7.2602   25.8208  -24.0292 O   0  0  0  0  0  0  0  0  0  0  0  0
   -8.3348   25.4008  -23.3804 C   0  0  0  0  0  0  0  0  0  0  0  0
   -9.3077   25.7687  -22.3985 C   0  0  0  0  0  0  0  0  0  0  0  0
   -9.1318   24.5513  -21.4500 O   0  0  0  0  0  0  0  0  0  0  0  0
   -9.3543   23.8811  -22.1745 H   0  0  0  0  0  0  0  0  0  0  0  0
  -10.7812   25.6278  -22.5921 C   0  0  0  0  0  0  0  0  0  0  0  0
  -11.6670   26.6420  -22.1233 N   0  0  0  0  0  0  0  0  0  0  0  0
  -12.3356   27.1801  -23.3238 C   0  0  0  0  0  0  0  0  0  0  0  0
  -12.9213   26.0769  -24.1585 C   0  0  0  0  0  0  0  0  0  0  0  0
  -13.9053   25.4427  -23.4472 O   0  0  0  0  0  0  0  0  0  0  0  0
  -13.5308   25.0410  -22.1960 C   0  0  0  0  0  0  0  0  0  0  0  0
  -12.7549   25.9673  -21.3564 C   0  0  0  0  0  0  0  0  0  0  0  0
 11 12  1  0  0  0
 12  1  1  0  0  0
  1  2  2  0  0  0
  2  3  1  0  0  0
  3  4  2  0  0  0
  4 13  1  0  0  0
 13 14  1  0  0  0
 14 15  2  0  0  0
 15 16  1  0  0  0
 16 17  2  0  0  0
 17 20  1  0  0  0
 20 22  1  0  0  0
 22 23  2  0  0  0
 23 24  1  0  0  0
 24 25  2  0  0  0
 25 26  1  0  0  0
 26 27  2  0  0  0
 25 28  1  0  0  0
 28 29  1  0  0  0
 28 30  1  0  0  0
 28 31  1  0  0  0
 17 18  1  0  0  0
 18 19  2  0  0  0
  4  5  1  0  0  0
  5  6  2  0  0  0
  6  7  1  0  0  0
  7  8  2  0  0  0
  8  9  1  0  0  0
  9 10  2  0  0  0
 10 32  1  0  0  0
 32 33  1  0  0  0
 33 34  1  0  0  0
 34 35  1  0  0  0
 34 37  1  0  0  0
 37 38  1  0  0  0
 38 39  1  0  0  0
 39 40  1  0  0  0
 40 41  1  0  0  0
 41 42  1  0  0  0
 42 43  1  0  0  0
 10  1  1  0  0  0
 43 38  1  0  0  0
  8  3  1  0  0  0
 19 14  1  0  0  0
 27 22  1  0  0  0
 20 21  1  0  0  0
 35 36  1  0  0  0
M  END
> <minimizedAffinity>
-8.93612

> <CNNscore>
0.3156961501

> <CNNaffinity>
6.8450407982

> <CNN_VS>
2.1609530449

> <CNNaffinity_variance>
0.1111627445

$$$$
[H]OC([H])(C([H])([H])Oc1c(OC([H])([H])[H])c([H])c2c(Oc3c([H])c([H])c(N([H])c4c([H])c([H])c(C(C([H])([H])[H])(C([H])([H])[H])C([H])([H])[H])c([H])c4[H])c([H])c3[H])c([H])c([H])nc2c1[H])C([H])([H])N1C([H])([H])C([H])([H])OC([H])([H])C1([H])[H]


 43 47  0  0  0  0  0  0  0  0999 V2000
   -4.3323   22.7172  -24.6058 C   0  0  0  0  0  0  0  0  0  0  0  0
   -2.9894   22.3882  -24.7507 C   0  0  0  0  0  0  0  0  0  0  0  0
   -2.4048   22.6434  -25.9916 C   0  0  0  0  0  0  0  0  0  0  0  0
   -0.9957   22.3632  -26.1315 C   0  0  0  0  0  0  0  0  0  0  0  0
   -0.3883   22.5828  -27.3172 C   0  0  0  0  0  0  0  0  0  0  0  0
   -1.1231   23.1176  -28.4043 C   0  0  0  0  0  0  0  0  0  0  0  0
   -2.4521   23.3848  -28.2061 N   0  0  0  0  0  0  0  0  0  0  0  0
   -3.0512   23.1516  -27.0185 C   0  0  0  0  0  0  0  0  0  0  0  0
   -4.4101   23.4925  -26.8828 C   0  0  0  0  0  0  0  0  0  0  0  0
   -5.0421   23.2855  -25.6785 C   0  0  0  0  0  0  0  0  0  0  0  0
   -4.4630   21.7172  -22.3908 C   0  0  0  0  0  0  0  0  0  0  0  0
   -5.0093   22.4756  -23.4355 O   0  0  0  0  0  0  0  0  0  0  0  0
   -0.4096   21.9673  -25.0628 O   0  0  0  0  0  0  0  0  0  0  0  0
    0.1742   21.5812  -23.9912 C   0  0  0  0  0  0  0  0  0  0  0  0
    1.6024   21.3712  -24.2382 C   0  0  0  0  0  0  0  0  0  0  0  0
    2.4322   20.9998  -23.2689 C   0  0  0  0  0  0  0  0  0  0  0  0
    2.0146   20.7872  -21.9581 C   0  0  0  0  0  0  0  0  0  0  0  0
    0.6839   20.9618  -21.6994 C   0  0  0  0  0  0  0  0  0  0  0  0
   -0.2128   21.3508  -22.7113 C   0  0  0  0  0  0  0  0  0  0  0  0
    2.9977   20.5707  -21.0426 N   0  0  0  0  0  0  0  0  0  0  0  0
    3.4627   19.5046  -21.1042 H   0  0  0  0  0  0  0  0  0  0  0  0
    3.6731   21.2312  -20.0165 C   0  0  0  0  0  0  0  0  0  0  0  0
    2.9836   22.1152  -19.2035 C   0  0  0  0  0  0  0  0  0  0  0  0
    3.6070   22.9973  -18.3537 C   0  0  0  0  0  0  0  0  0  0  0  0
    4.9703   23.0313  -18.2771 C   0  0  0  0  0  0  0  0  0  0  0  0
    5.7033   22.1364  -19.0810 C   0  0  0  0  0  0  0  0  0  0  0  0
    5.0576   21.2596  -19.9288 C   0  0  0  0  0  0  0  0  0  0  0  0
    5.7244   24.0538  -17.5408 C   0  0  0  0  0  0  0  0  0  0  0  0
    4.8057   25.0954  -16.9305 C   0  0  0  0  0  0  0  0  0  0  0  0
    6.5385   23.3776  -16.4055 C   0  0  0  0  0  0  0  0  0  0  0  0
    6.7529   24.7290  -18.3720 C   0  0  0  0  0  0  0  0  0  0  0  0
   -6.3705   23.6585  -25.3910 O   0  0  0  0  0  0  0  0  0  0  0  0
   -6.8322   24.8829  -25.1918 C   0  0  0  0  0  0  0  0  0  0  0  0
   -6.8170   25.9890  -24.2850 C   0  0  0  0  0  0  0  0  0  0  0  0
   -5.2786   26.1913  -24.2131 O   0  0  0  0  0  0  0  0  0  0  0  0
   -5.1118   25.2491  -23.8844 H   0  0  0  0  0  0  0  0  0  0  0  0
   -7.0456   25.8645  -22.8151 C   0  0  0  0  0  0  0  0  0  0  0  0
   -7.6767   24.7020  -22.2828 N   0  0  0  0  0  0  0  0  0  0  0  0
   -6.8660   24.3010  -21.1166 C   0  0  0  0  0  0  0  0  0  0  0  0
   -6.6443   25.4597  -20.1863 C   0  0  0  0  0  0  0  0  0  0  0  0
   -7.8472   25.8650  -19.6714 O   0  0  0  0  0  0  0  0  0  0  0  0
   -8.8161   26.0937  -20.6073 C   0  0  0  0  0  0  0  0  0  0  0  0
   -8.9848   25.1275  -21.7041 C   0  0  0  0  0  0  0  0  0  0  0  0
 11 12  1  0  0  0
 12  1  1  0  0  0
  1  2  2  0  0  0
  2  3  1  0  0  0
  3  4  2  0  0  0
  4 13  1  0  0  0
 13 14  1  0  0  0
 14 15  2  0  0  0
 15 16  1  0  0  0
 16 17  2  0  0  0
 17 20  1  0  0  0
 20 22  1  0  0  0
 22 23  2  0  0  0
 23 24  1  0  0  0
 24 25  2  0  0  0
 25 26  1  0  0  0
 26 27  2  0  0  0
 25 28  1  0  0  0
 28 29  1  0  0  0
 28 30  1  0  0  0
 28 31  1  0  0  0
 17 18  1  0  0  0
 18 19  2  0  0  0
  4  5  1  0  0  0
  5  6  2  0  0  0
  6  7  1  0  0  0
  7  8  2  0  0  0
  8  9  1  0  0  0
  9 10  2  0  0  0
 10 32  1  0  0  0
 32 33  1  0  0  0
 33 34  1  0  0  0
 34 35  1  0  0  0
 34 37  1  0  0  0
 37 38  1  0  0  0
 38 39  1  0  0  0
 39 40  1  0  0  0
 40 41  1  0  0  0
 41 42  1  0  0  0
 42 43  1  0  0  0
 10  1  1  0  0  0
 43 38  1  0  0  0
  8  3  1  0  0  0
 19 14  1  0  0  0
 27 22  1  0  0  0
 20 21  1  0  0  0
 35 36  1  0  0  0
M  END
> <minimizedAffinity>
-8.81896

> <CNNscore>
0.2639131844

> <CNNaffinity>
6.6175322533

> <CNN_VS>
1.7464540005

> <CNNaffinity_variance>
0.1758370697

$$$$
[H]OC([H])(C([H])([H])Oc1c(OC([H])([H])[H])c([H])c2c(Oc3c([H])c([H])c(N([H])c4c([H])c([H])c(C(C([H])([H])[H])(C([H])([H])[H])C([H])([H])[H])c([H])c4[H])c([H])c3[H])c([H])c([H])nc2c1[H])C([H])([H])N1C([H])([H])C([H])([H])OC([H])([H])C1([H])[H]


 43 47  0  0  0  0  0  0  0  0999 V2000
   -3.9063   22.2473  -25.5900 C   0  0  0  0  0  0  0  0  0  0  0  0
   -2.5301   22.1032  -25.4571 C   0  0  0  0  0  0  0  0  0  0  0  0
   -1.7460   22.4692  -26.5517 C   0  0  0  0  0  0  0  0  0  0  0  0
   -0.3131   22.3820  -26.4002 C   0  0  0  0  0  0  0  0  0  0  0  0
    0.4867   22.7141  -27.4361 C   0  0  0  0  0  0  0  0  0  0  0  0
   -0.0778   23.1780  -28.6501 C   0  0  0  0  0  0  0  0  0  0  0  0
   -1.4431   23.2612  -28.7280 N   0  0  0  0  0  0  0  0  0  0  0  0
   -2.2334   22.9167  -27.6886 C   0  0  0  0  0  0  0  0  0  0  0  0
   -3.6250   23.0707  -27.8338 C   0  0  0  0  0  0  0  0  0  0  0  0
   -4.4541   22.7474  -26.7847 C   0  0  0  0  0  0  0  0  0  0  0  0
   -4.3608   21.7723  -23.2466 C   0  0  0  0  0  0  0  0  0  0  0  0
   -4.7675   21.8847  -24.5835 O   0  0  0  0  0  0  0  0  0  0  0  0
    0.0921   22.0366  -25.2345 O   0  0  0  0  0  0  0  0  0  0  0  0
    0.4924   21.6999  -24.0664 C   0  0  0  0  0  0  0  0  0  0  0  0
   -0.5931   21.8493  -23.0947 C   0  0  0  0  0  0  0  0  0  0  0  0
   -0.4344   21.5293  -21.8147 C   0  0  0  0  0  0  0  0  0  0  0  0
    0.7604   21.0298  -21.3041 C   0  0  0  0  0  0  0  0  0  0  0  0
    1.7969   20.8924  -22.1844 C   0  0  0  0  0  0  0  0  0  0  0  0
    1.6521   21.2288  -23.5427 C   0  0  0  0  0  0  0  0  0  0  0  0
    0.7268   20.5941  -20.0154 N   0  0  0  0  0  0  0  0  0  0  0  0
    0.2449   19.5407  -19.8940 H   0  0  0  0  0  0  0  0  0  0  0  0
    1.1032   20.9999  -18.7352 C   0  0  0  0  0  0  0  0  0  0  0  0
    2.2719   20.5076  -18.1788 C   0  0  0  0  0  0  0  0  0  0  0  0
    2.5830   20.6378  -16.8464 C   0  0  0  0  0  0  0  0  0  0  0  0
    1.7250   21.2798  -15.9996 C   0  0  0  0  0  0  0  0  0  0  0  0
    0.5322   21.8047  -16.5346 C   0  0  0  0  0  0  0  0  0  0  0  0
    0.2383   21.6616  -17.8754 C   0  0  0  0  0  0  0  0  0  0  0  0
    1.8833   21.3094  -14.5400 C   0  0  0  0  0  0  0  0  0  0  0  0
    1.1908   22.5115  -13.9263 C   0  0  0  0  0  0  0  0  0  0  0  0
    1.2785   20.0173  -13.9286 C   0  0  0  0  0  0  0  0  0  0  0  0
    3.3038   21.2843  -14.1085 C   0  0  0  0  0  0  0  0  0  0  0  0
   -5.8512   22.9328  -26.7750 O   0  0  0  0  0  0  0  0  0  0  0  0
   -6.5126   24.0436  -27.0594 C   0  0  0  0  0  0  0  0  0  0  0  0
   -6.4768   25.4691  -26.9474 C   0  0  0  0  0  0  0  0  0  0  0  0
   -6.3367   25.8034  -28.4578 O   0  0  0  0  0  0  0  0  0  0  0  0
   -5.4830   25.2695  -28.5561 H   0  0  0  0  0  0  0  0  0  0  0  0
   -5.2836   26.2389  -26.4869 C   0  0  0  0  0  0  0  0  0  0  0  0
   -5.4167   27.2284  -25.4689 N   0  0  0  0  0  0  0  0  0  0  0  0
   -6.2955   26.6354  -24.4423 C   0  0  0  0  0  0  0  0  0  0  0  0
   -5.8073   25.2755  -24.0306 C   0  0  0  0  0  0  0  0  0  0  0  0
   -4.5800   25.3951  -23.4343 O   0  0  0  0  0  0  0  0  0  0  0  0
   -3.6656   26.1079  -24.1573 C   0  0  0  0  0  0  0  0  0  0  0  0
   -4.0905   27.3624  -24.7980 C   0  0  0  0  0  0  0  0  0  0  0  0
 11 12  1  0  0  0
 12  1  1  0  0  0
  1  2  2  0  0  0
  2  3  1  0  0  0
  3  4  2  0  0  0
  4 13  1  0  0  0
 13 14  1  0  0  0
 14 15  2  0  0  0
 15 16  1  0  0  0
 16 17  2  0  0  0
 17 20  1  0  0  0
 20 22  1  0  0  0
 22 23  2  0  0  0
 23 24  1  0  0  0
 24 25  2  0  0  0
 25 26  1  0  0  0
 26 27  2  0  0  0
 25 28  1  0  0  0
 28 29  1  0  0  0
 28 30  1  0  0  0
 28 31  1  0  0  0
 17 18  1  0  0  0
 18 19  2  0  0  0
  4  5  1  0  0  0
  5  6  2  0  0  0
  6  7  1  0  0  0
  7  8  2  0  0  0
  8  9  1  0  0  0
  9 10  2  0  0  0
 10 32  1  0  0  0
 32 33  1  0  0  0
 33 34  1  0  0  0
 34 35  1  0  0  0
 34 37  1  0  0  0
 37 38  1  0  0  0
 38 39  1  0  0  0
 39 40  1  0  0  0
 40 41  1  0  0  0
 41 42  1  0  0  0
 42 43  1  0  0  0
 10  1  1  0  0  0
 43 38  1  0  0  0
  8  3  1  0  0  0
 19 14  1  0  0  0
 27 22  1  0  0  0
 20 21  1  0  0  0
 35 36  1  0  0  0
M  END
> <minimizedAffinity>
-7.90604

> <CNNscore>
0.2451684028

> <CNNaffinity>
6.8422269821

> <CNN_VS>
1.6774978638

> <CNNaffinity_variance>
0.1361334175

$$$$
[H]OC([H])(C([H])([H])Oc1c(OC([H])([H])[H])c([H])c2c(Oc3c([H])c([H])c(N([H])c4c([H])c([H])c(C(C([H])([H])[H])(C([H])([H])[H])C([H])([H])[H])c([H])c4[H])c([H])c3[H])c([H])c([H])nc2c1[H])C([H])([H])N1C([H])([H])C([H])([H])OC([H])([H])C1([H])[H]


 43 47  0  0  0  0  0  0  0  0999 V2000
   -3.4058   22.3876  -24.2733 C   0  0  0  0  0  0  0  0  0  0  0  0
   -2.0552   22.1159  -24.4591 C   0  0  0  0  0  0  0  0  0  0  0  0
   -1.5218   22.3873  -25.7195 C   0  0  0  0  0  0  0  0  0  0  0  0
   -0.1070   22.1673  -25.9028 C   0  0  0  0  0  0  0  0  0  0  0  0
    0.4524   22.4045  -27.1085 C   0  0  0  0  0  0  0  0  0  0  0  0
   -0.3390   22.8992  -28.1746 C   0  0  0  0  0  0  0  0  0  0  0  0
   -1.6714   23.1102  -27.9356 N   0  0  0  0  0  0  0  0  0  0  0  0
   -2.2219   22.8598  -26.7281 C   0  0  0  0  0  0  0  0  0  0  0  0
   -3.5894   23.1425  -26.5510 C   0  0  0  0  0  0  0  0  0  0  0  0
   -4.1732   22.9171  -25.3260 C   0  0  0  0  0  0  0  0  0  0  0  0
   -3.3973   22.2828  -21.8417 C   0  0  0  0  0  0  0  0  0  0  0  0
   -4.0343   22.1254  -23.0806 O   0  0  0  0  0  0  0  0  0  0  0  0
    0.5293   21.8048  -24.8510 O   0  0  0  0  0  0  0  0  0  0  0  0
    1.1582   21.4482  -23.7949 C   0  0  0  0  0  0  0  0  0  0  0  0
    0.2387   21.3706  -22.6577 C   0  0  0  0  0  0  0  0  0  0  0  0
    0.6479   20.9877  -21.4528 C   0  0  0  0  0  0  0  0  0  0  0  0
    1.9659   20.6313  -21.1813 C   0  0  0  0  0  0  0  0  0  0  0  0
    2.8512   20.7072  -22.2199 C   0  0  0  0  0  0  0  0  0  0  0  0
    2.4403   21.1139  -23.5025 C   0  0  0  0  0  0  0  0  0  0  0  0
    2.2038   20.1058  -19.9488 N   0  0  0  0  0  0  0  0  0  0  0  0
    2.0569   20.8700  -19.0821 H   0  0  0  0  0  0  0  0  0  0  0  0
    2.5704   18.9016  -19.3480 C   0  0  0  0  0  0  0  0  0  0  0  0
    1.6753   18.2552  -18.5123 C   0  0  0  0  0  0  0  0  0  0  0  0
    2.0354   17.2223  -17.6802 C   0  0  0  0  0  0  0  0  0  0  0  0
    3.3280   16.7822  -17.6503 C   0  0  0  0  0  0  0  0  0  0  0  0
    4.2629   17.4089  -18.4976 C   0  0  0  0  0  0  0  0  0  0  0  0
    3.8806   18.4455  -19.3245 C   0  0  0  0  0  0  0  0  0  0  0  0
    3.8422   15.8158  -16.6715 C   0  0  0  0  0  0  0  0  0  0  0  0
    3.8621   14.4069  -17.2336 C   0  0  0  0  0  0  0  0  0  0  0  0
    5.2862   16.2124  -16.2636 C   0  0  0  0  0  0  0  0  0  0  0  0
    3.0882   15.8264  -15.3925 C   0  0  0  0  0  0  0  0  0  0  0  0
   -5.5069   23.2342  -24.9983 O   0  0  0  0  0  0  0  0  0  0  0  0
   -6.0302   24.4418  -24.8573 C   0  0  0  0  0  0  0  0  0  0  0  0
   -6.4784   25.4005  -23.8950 C   0  0  0  0  0  0  0  0  0  0  0  0
   -5.1698   25.5047  -23.0647 O   0  0  0  0  0  0  0  0  0  0  0  0
   -5.1609   24.5167  -22.8469 H   0  0  0  0  0  0  0  0  0  0  0  0
   -7.3838   25.0747  -22.7538 C   0  0  0  0  0  0  0  0  0  0  0  0
   -8.3432   26.0286  -22.3036 N   0  0  0  0  0  0  0  0  0  0  0  0
   -9.5872   25.2700  -22.0693 C   0  0  0  0  0  0  0  0  0  0  0  0
   -9.3358   24.0723  -21.1979 C   0  0  0  0  0  0  0  0  0  0  0  0
   -8.9253   24.4899  -19.9596 O   0  0  0  0  0  0  0  0  0  0  0  0
   -7.8889   25.3802  -19.9765 C   0  0  0  0  0  0  0  0  0  0  0  0
   -7.9190   26.4852  -20.9476 C   0  0  0  0  0  0  0  0  0  0  0  0
 11 12  1  0  0  0
 12  1  1  0  0  0
  1  2  2  0  0  0
  2  3  1  0  0  0
  3  4  2  0  0  0
  4 13  1  0  0  0
 13 14  1  0  0  0
 14 15  2  0  0  0
 15 16  1  0  0  0
 16 17  2  0  0  0
 17 20  1  0  0  0
 20 22  1  0  0  0
 22 23  2  0  0  0
 23 24  1  0  0  0
 24 25  2  0  0  0
 25 26  1  0  0  0
 26 27  2  0  0  0
 25 28  1  0  0  0
 28 29  1  0  0  0
 28 30  1  0  0  0
 28 31  1  0  0  0
 17 18  1  0  0  0
 18 19  2  0  0  0
  4  5  1  0  0  0
  5  6  2  0  0  0
  6  7  1  0  0  0
  7  8  2  0  0  0
  8  9  1  0  0  0
  9 10  2  0  0  0
 10 32  1  0  0  0
 32 33  1  0  0  0
 33 34  1  0  0  0
 34 35  1  0  0  0
 34 37  1  0  0  0
 37 38  1  0  0  0
 38 39  1  0  0  0
 39 40  1  0  0  0
 40 41  1  0  0  0
 41 42  1  0  0  0
 42 43  1  0  0  0
 10  1  1  0  0  0
 43 38  1  0  0  0
  8  3  1  0  0  0
 19 14  1  0  0  0
 27 22  1  0  0  0
 20 21  1  0  0  0
 35 36  1  0  0  0
M  END
> <minimizedAffinity>
-7.09982

> <CNNscore>
0.2407958657

> <CNNaffinity>
6.4224319458

> <CNN_VS>
1.5464950800

> <CNNaffinity_variance>
0.0275510959

$$$$
[H]OC([H])(C([H])([H])Oc1c(OC([H])([H])[H])c([H])c2c(Oc3c([H])c([H])c(N([H])c4c([H])c([H])c(C(C([H])([H])[H])(C([H])([H])[H])C([H])([H])[H])c([H])c4[H])c([H])c3[H])c([H])c([H])nc2c1[H])C([H])([H])N1C([H])([H])C([H])([H])OC([H])([H])C1([H])[H]


 43 47  0  0  0  0  0  0  0  0999 V2000
    0.0009   21.6737  -22.0828 C   0  0  0  0  0  0  0  0  0  0  0  0
   -1.0204   22.2077  -22.8601 C   0  0  0  0  0  0  0  0  0  0  0  0
   -0.8110   22.2508  -24.2389 C   0  0  0  0  0  0  0  0  0  0  0  0
   -1.8909   22.7457  -25.0590 C   0  0  0  0  0  0  0  0  0  0  0  0
   -1.7306   22.8174  -26.3977 C   0  0  0  0  0  0  0  0  0  0  0  0
   -0.5231   22.3766  -26.9939 C   0  0  0  0  0  0  0  0  0  0  0  0
    0.4581   21.8958  -26.1674 N   0  0  0  0  0  0  0  0  0  0  0  0
    0.2901   21.8381  -24.8287 C   0  0  0  0  0  0  0  0  0  0  0  0
    1.3297   21.2919  -24.0526 C   0  0  0  0  0  0  0  0  0  0  0  0
    1.1789   21.2013  -22.6882 C   0  0  0  0  0  0  0  0  0  0  0  0
   -1.2450   22.0105  -20.0193 C   0  0  0  0  0  0  0  0  0  0  0  0
   -0.0928   21.6163  -20.7138 O   0  0  0  0  0  0  0  0  0  0  0  0
   -2.9681   23.0332  -24.4270 O   0  0  0  0  0  0  0  0  0  0  0  0
   -4.0468   23.3106  -23.7965 C   0  0  0  0  0  0  0  0  0  0  0  0
   -5.0981   22.3514  -24.1419 C   0  0  0  0  0  0  0  0  0  0  0  0
   -6.3054   22.4084  -23.5893 C   0  0  0  0  0  0  0  0  0  0  0  0
   -6.6597   23.3704  -22.6476 C   0  0  0  0  0  0  0  0  0  0  0  0
   -5.7035   24.2887  -22.3151 C   0  0  0  0  0  0  0  0  0  0  0  0
   -4.4204   24.2493  -22.8908 C   0  0  0  0  0  0  0  0  0  0  0  0
   -7.8712   23.2075  -22.0498 N   0  0  0  0  0  0  0  0  0  0  0  0
   -8.7106   23.8678  -22.5145 H   0  0  0  0  0  0  0  0  0  0  0  0
   -8.4739   22.4735  -21.0283 C   0  0  0  0  0  0  0  0  0  0  0  0
   -9.6100   22.9686  -20.4104 C   0  0  0  0  0  0  0  0  0  0  0  0
  -10.1109   22.4571  -19.2373 C   0  0  0  0  0  0  0  0  0  0  0  0
   -9.4879   21.4082  -18.6230 C   0  0  0  0  0  0  0  0  0  0  0  0
   -8.3363   20.8711  -19.2312 C   0  0  0  0  0  0  0  0  0  0  0  0
   -7.8490   21.4007  -20.4087 C   0  0  0  0  0  0  0  0  0  0  0  0
   -9.8398   20.9156  -17.2852 C   0  0  0  0  0  0  0  0  0  0  0  0
  -11.3427   20.8609  -17.0865 C   0  0  0  0  0  0  0  0  0  0  0  0
   -9.2569   19.4904  -17.0898 C   0  0  0  0  0  0  0  0  0  0  0  0
   -9.2259   21.7114  -16.1923 C   0  0  0  0  0  0  0  0  0  0  0  0
    2.1071   20.6023  -21.8129 O   0  0  0  0  0  0  0  0  0  0  0  0
    3.0543   21.2086  -21.1148 C   0  0  0  0  0  0  0  0  0  0  0  0
    3.8984   21.0877  -19.9664 C   0  0  0  0  0  0  0  0  0  0  0  0
    3.4090   19.6955  -19.4813 O   0  0  0  0  0  0  0  0  0  0  0  0
    2.4489   20.0007  -19.3892 H   0  0  0  0  0  0  0  0  0  0  0  0
    3.6661   21.8117  -18.6818 C   0  0  0  0  0  0  0  0  0  0  0  0
    2.3645   22.2927  -18.3541 N   0  0  0  0  0  0  0  0  0  0  0  0
    2.1487   21.9398  -16.9375 C   0  0  0  0  0  0  0  0  0  0  0  0
    3.2956   22.4003  -16.0833 C   0  0  0  0  0  0  0  0  0  0  0  0
    3.3622   23.7681  -16.1117 O   0  0  0  0  0  0  0  0  0  0  0  0
    3.3637   24.3096  -17.3662 C   0  0  0  0  0  0  0  0  0  0  0  0
    2.4215   23.7839  -18.3666 C   0  0  0  0  0  0  0  0  0  0  0  0
 11 12  1  0  0  0
 12  1  1  0  0  0
  1  2  2  0  0  0
  2  3  1  0  0  0
  3  4  2  0  0  0
  4 13  1  0  0  0
 13 14  1  0  0  0
 14 15  2  0  0  0
 15 16  1  0  0  0
 16 17  2  0  0  0
 17 20  1  0  0  0
 20 22  1  0  0  0
 22 23  2  0  0  0
 23 24  1  0  0  0
 24 25  2  0  0  0
 25 26  1  0  0  0
 26 27  2  0  0  0
 25 28  1  0  0  0
 28 29  1  0  0  0
 28 30  1  0  0  0
 28 31  1  0  0  0
 17 18  1  0  0  0
 18 19  2  0  0  0
  4  5  1  0  0  0
  5  6  2  0  0  0
  6  7  1  0  0  0
  7  8  2  0  0  0
  8  9  1  0  0  0
  9 10  2  0  0  0
 10 32  1  0  0  0
 32 33  1  0  0  0
 33 34  1  0  0  0
 34 35  1  0  0  0
 34 37  1  0  0  0
 37 38  1  0  0  0
 38 39  1  0  0  0
 39 40  1  0  0  0
 40 41  1  0  0  0
 41 42  1  0  0  0
 42 43  1  0  0  0
 10  1  1  0  0  0
 43 38  1  0  0  0
  8  3  1  0  0  0
 19 14  1  0  0  0
 27 22  1  0  0  0
 20 21  1  0  0  0
 35 36  1  0  0  0
M  END
> <minimizedAffinity>
-7.24208

> <CNNscore>
0.2212873995

> <CNNaffinity>
6.3714590073

> <CNN_VS>
1.4099235535

> <CNNaffinity_variance>
0.0586651973

$$$$
[H]OC([H])(C([H])([H])Oc1c(OC([H])([H])[H])c([H])c2c(Oc3c([H])c([H])c(N([H])c4c([H])c([H])c(C(C([H])([H])[H])(C([H])([H])[H])C([H])([H])[H])c([H])c4[H])c([H])c3[H])c([H])c([H])nc2c1[H])C([H])([H])N1C([H])([H])C([H])([H])OC([H])([H])C1([H])[H]


 43 47  0  0  0  0  0  0  0  0999 V2000
   -0.2077   21.8641  -22.1117 C   0  0  0  0  0  0  0  0  0  0  0  0
   -1.2265   22.4428  -22.8598 C   0  0  0  0  0  0  0  0  0  0  0  0
   -1.0675   22.4528  -24.2460 C   0  0  0  0  0  0  0  0  0  0  0  0
   -2.1485   22.9950  -25.0340 C   0  0  0  0  0  0  0  0  0  0  0  0
   -2.0354   23.0371  -26.3788 C   0  0  0  0  0  0  0  0  0  0  0  0
   -0.8779   22.5198  -27.0115 C   0  0  0  0  0  0  0  0  0  0  0  0
    0.1057   21.9972  -26.2137 N   0  0  0  0  0  0  0  0  0  0  0  0
   -0.0143   21.9697  -24.8689 C   0  0  0  0  0  0  0  0  0  0  0  0
    1.0219   21.3778  -24.1224 C   0  0  0  0  0  0  0  0  0  0  0  0
    0.9183   21.3168  -22.7520 C   0  0  0  0  0  0  0  0  0  0  0  0
   -0.7860   22.8822  -19.9780 C   0  0  0  0  0  0  0  0  0  0  0  0
   -0.2524   21.8330  -20.7393 O   0  0  0  0  0  0  0  0  0  0  0  0
   -3.1832   23.3525  -24.3676 O   0  0  0  0  0  0  0  0  0  0  0  0
   -4.2114   23.7177  -23.6986 C   0  0  0  0  0  0  0  0  0  0  0  0
   -5.3248   22.7961  -23.9348 C   0  0  0  0  0  0  0  0  0  0  0  0
   -6.4960   22.9439  -23.3245 C   0  0  0  0  0  0  0  0  0  0  0  0
   -6.7520   23.9717  -22.4212 C   0  0  0  0  0  0  0  0  0  0  0  0
   -5.7361   24.8565  -22.1906 C   0  0  0  0  0  0  0  0  0  0  0  0
   -4.4897   24.7212  -22.8289 C   0  0  0  0  0  0  0  0  0  0  0  0
   -7.9355   23.9028  -21.7532 N   0  0  0  0  0  0  0  0  0  0  0  0
   -7.9541   23.0840  -20.9250 H   0  0  0  0  0  0  0  0  0  0  0  0
   -9.1861   24.5194  -21.7191 C   0  0  0  0  0  0  0  0  0  0  0  0
  -10.1588   24.0434  -20.8560 C   0  0  0  0  0  0  0  0  0  0  0  0
  -11.4814   24.4075  -20.9400 C   0  0  0  0  0  0  0  0  0  0  0  0
  -11.8942   25.2808  -21.9057 C   0  0  0  0  0  0  0  0  0  0  0  0
  -10.9284   25.7950  -22.7930 C   0  0  0  0  0  0  0  0  0  0  0  0
   -9.6056   25.4151  -22.6922 C   0  0  0  0  0  0  0  0  0  0  0  0
  -13.3029   25.5859  -22.1866 C   0  0  0  0  0  0  0  0  0  0  0  0
  -13.7964   26.7595  -21.3618 C   0  0  0  0  0  0  0  0  0  0  0  0
  -13.4670   25.9277  -23.6917 C   0  0  0  0  0  0  0  0  0  0  0  0
  -14.2024   24.4232  -21.9785 C   0  0  0  0  0  0  0  0  0  0  0  0
    1.8443   20.6800  -21.9014 O   0  0  0  0  0  0  0  0  0  0  0  0
    2.9796   20.0955  -22.2498 C   0  0  0  0  0  0  0  0  0  0  0  0
    4.2623   19.6854  -21.7675 C   0  0  0  0  0  0  0  0  0  0  0  0
    4.4408   18.4289  -22.6633 O   0  0  0  0  0  0  0  0  0  0  0  0
    3.5945   17.9931  -22.3207 H   0  0  0  0  0  0  0  0  0  0  0  0
    4.4803   18.9997  -20.4596 C   0  0  0  0  0  0  0  0  0  0  0  0
    5.2517   19.6291  -19.4389 N   0  0  0  0  0  0  0  0  0  0  0  0
    5.4327   18.6121  -18.3850 C   0  0  0  0  0  0  0  0  0  0  0  0
    5.9552   17.3251  -18.9575 C   0  0  0  0  0  0  0  0  0  0  0  0
    7.2041   17.5345  -19.4798 O   0  0  0  0  0  0  0  0  0  0  0  0
    7.2875   18.5901  -20.3433 C   0  0  0  0  0  0  0  0  0  0  0  0
    6.6218   19.8528  -19.9863 C   0  0  0  0  0  0  0  0  0  0  0  0
 11 12  1  0  0  0
 12  1  1  0  0  0
  1  2  2  0  0  0
  2  3  1  0  0  0
  3  4  2  0  0  0
  4 13  1  0  0  0
 13 14  1  0  0  0
 14 15  2  0  0  0
 15 16  1  0  0  0
 16 17  2  0  0  0
 17 20  1  0  0  0
 20 22  1  0  0  0
 22 23  2  0  0  0
 23 24  1  0  0  0
 24 25  2  0  0  0
 25 26  1  0  0  0
 26 27  2  0  0  0
 25 28  1  0  0  0
 28 29  1  0  0  0
 28 30  1  0  0  0
 28 31  1  0  0  0
 17 18  1  0  0  0
 18 19  2  0  0  0
  4  5  1  0  0  0
  5  6  2  0  0  0
  6  7  1  0  0  0
  7  8  2  0  0  0
  8  9  1  0  0  0
  9 10  2  0  0  0
 10 32  1  0  0  0
 32 33  1  0  0  0
 33 34  1  0  0  0
 34 35  1  0  0  0
 34 37  1  0  0  0
 37 38  1  0  0  0
 38 39  1  0  0  0
 39 40  1  0  0  0
 40 41  1  0  0  0
 41 42  1  0  0  0
 42 43  1  0  0  0
 10  1  1  0  0  0
 43 38  1  0  0  0
  8  3  1  0  0  0
 19 14  1  0  0  0
 27 22  1  0  0  0
 20 21  1  0  0  0
 35 36  1  0  0  0
M  END
> <minimizedAffinity>
-7.48351

> <CNNscore>
0.2002670765

> <CNNaffinity>
6.2531309128

> <CNN_VS>
1.2522962093

> <CNNaffinity_variance>
0.0873845816

$$$$
[H]c1nc(-c2c([H])c([H])c([H])c([H])c2[H])c([H])c2c1C([H])([H])N(c1c(F)c(OC([H])([H])[H])c([H])c(OC([H])([H])[H])c1F)C(=O)N2C([H])([H])C([H])([H])[H]


 31 34  0  0  0  0  0  0  0  0999 V2000
   -0.4981   21.1940  -20.8444 N   0  0  0  0  0  0  0  0  0  0  0  0
    0.1776   20.7663  -19.6784 C   0  0  0  0  0  0  0  0  0  0  0  0
   -0.5195   20.6890  -18.6046 O   0  0  0  0  0  0  0  0  0  0  0  0
    1.5613   20.4311  -19.6664 N   0  0  0  0  0  0  0  0  0  0  0  0
    2.3421   20.5717  -20.8654 C   0  0  0  0  0  0  0  0  0  0  0  0
    1.5693   20.9806  -22.0565 C   0  0  0  0  0  0  0  0  0  0  0  0
    2.2430   21.0723  -23.2809 C   0  0  0  0  0  0  0  0  0  0  0  0
    1.6430   21.4469  -24.4156 N   0  0  0  0  0  0  0  0  0  0  0  0
    0.3231   21.7622  -24.4326 C   0  0  0  0  0  0  0  0  0  0  0  0
   -0.3617   21.6804  -23.2441 C   0  0  0  0  0  0  0  0  0  0  0  0
    0.2331   21.2939  -22.0475 C   0  0  0  0  0  0  0  0  0  0  0  0
    2.1356   19.9486  -18.4471 C   0  0  0  0  0  0  0  0  0  0  0  0
    2.1820   18.6180  -18.1201 C   0  0  0  0  0  0  0  0  0  0  0  0
    1.6759   17.6966  -18.9725 F   0  0  0  0  0  0  0  0  0  0  0  0
    2.7368   18.1361  -16.9256 C   0  0  0  0  0  0  0  0  0  0  0  0
    3.2599   19.0523  -16.0404 C   0  0  0  0  0  0  0  0  0  0  0  0
    3.2264   20.3944  -16.3447 C   0  0  0  0  0  0  0  0  0  0  0  0
    2.6672   20.8372  -17.5421 C   0  0  0  0  0  0  0  0  0  0  0  0
    2.6668   22.1644  -17.7884 F   0  0  0  0  0  0  0  0  0  0  0  0
    2.7458   16.7798  -16.6698 O   0  0  0  0  0  0  0  0  0  0  0  0
    1.7139   16.1577  -15.9582 C   0  0  0  0  0  0  0  0  0  0  0  0
    3.7469   21.3198  -15.4667 O   0  0  0  0  0  0  0  0  0  0  0  0
    4.4099   20.8770  -14.3050 C   0  0  0  0  0  0  0  0  0  0  0  0
   -0.2934   22.1570  -25.6800 C   0  0  0  0  0  0  0  0  0  0  0  0
   -1.6907   22.1872  -25.7707 C   0  0  0  0  0  0  0  0  0  0  0  0
   -2.3737   22.5465  -26.8930 C   0  0  0  0  0  0  0  0  0  0  0  0
   -1.6487   22.9025  -28.0090 C   0  0  0  0  0  0  0  0  0  0  0  0
   -0.2768   22.8892  -27.9715 C   0  0  0  0  0  0  0  0  0  0  0  0
    0.3775   22.5171  -26.8085 C   0  0  0  0  0  0  0  0  0  0  0  0
   -2.0331   23.0098  -20.4751 C   0  0  0  0  0  0  0  0  0  0  0  0
   -1.8953   21.5232  -20.8169 C   0  0  0  0  0  0  0  0  0  0  0  0
 30 31  1  0  0  0
 31  1  1  0  0  0
  1  2  1  0  0  0
  2  3  2  0  0  0
  2  4  1  0  0  0
  4  5  1  0  0  0
  5  6  1  0  0  0
  6  7  2  0  0  0
  7  8  1  0  0  0
  8  9  2  0  0  0
  9 10  1  0  0  0
 10 11  2  0  0  0
  9 24  1  0  0  0
 24 25  2  0  0  0
 25 26  1  0  0  0
 26 27  2  0  0  0
 27 28  1  0  0  0
 28 29  2  0  0  0
  4 12  1  0  0  0
 12 13  2  0  0  0
 13 14  1  0  0  0
 13 15  1  0  0  0
 15 20  1  0  0  0
 20 21  1  0  0  0
 15 16  2  0  0  0
 16 17  1  0  0  0
 17 22  1  0  0  0
 22 23  1  0  0  0
 17 18  2  0  0  0
 18 19  1  0  0  0
 11  1  1  0  0  0
 29 24  1  0  0  0
 18 12  1  0  0  0
 11  6  1  0  0  0
M  END
> <minimizedAffinity>
-6.34101

> <CNNscore>
0.3133744895

> <CNNaffinity>
6.0214581490

> <CNN_VS>
1.8869713545

> <CNNaffinity_variance>
0.0386564247

$$$$
[H]c1nc(-c2c([H])c([H])c([H])c([H])c2[H])c([H])c2c1C([H])([H])N(c1c(F)c(OC([H])([H])[H])c([H])c(OC([H])([H])[H])c1F)C(=O)N2C([H])([H])C([H])([H])[H]


 31 34  0  0  0  0  0  0  0  0999 V2000
   -1.0702   22.8587  -25.4899 N   0  0  0  0  0  0  0  0  0  0  0  0
   -0.7308   22.4503  -24.1794 C   0  0  0  0  0  0  0  0  0  0  0  0
    0.5195   22.3946  -23.8993 O   0  0  0  0  0  0  0  0  0  0  0  0
   -1.7061   22.1124  -23.1987 N   0  0  0  0  0  0  0  0  0  0  0  0
   -3.1021   22.1297  -23.5420 C   0  0  0  0  0  0  0  0  0  0  0  0
   -3.3916   22.6056  -24.9105 C   0  0  0  0  0  0  0  0  0  0  0  0
   -4.7320   22.7192  -25.3001 C   0  0  0  0  0  0  0  0  0  0  0  0
   -5.1041   23.1252  -26.5186 N   0  0  0  0  0  0  0  0  0  0  0  0
   -4.1779   23.4534  -27.4547 C   0  0  0  0  0  0  0  0  0  0  0  0
   -2.8548   23.3506  -27.0982 C   0  0  0  0  0  0  0  0  0  0  0  0
   -2.4356   22.9323  -25.8395 C   0  0  0  0  0  0  0  0  0  0  0  0
   -1.2596   21.7716  -21.8820 C   0  0  0  0  0  0  0  0  0  0  0  0
   -0.5302   20.6427  -21.6109 C   0  0  0  0  0  0  0  0  0  0  0  0
   -0.1972   19.7985  -22.6149 F   0  0  0  0  0  0  0  0  0  0  0  0
   -0.0935   20.2972  -20.3238 C   0  0  0  0  0  0  0  0  0  0  0  0
   -0.4179   21.1395  -19.2836 C   0  0  0  0  0  0  0  0  0  0  0  0
   -1.1490   22.2797  -19.5286 C   0  0  0  0  0  0  0  0  0  0  0  0
   -1.5658   22.5917  -20.8214 C   0  0  0  0  0  0  0  0  0  0  0  0
   -2.2759   23.7255  -21.0018 F   0  0  0  0  0  0  0  0  0  0  0  0
    0.6379   19.1422  -20.1330 O   0  0  0  0  0  0  0  0  0  0  0  0
    0.0223   17.9215  -19.8348 C   0  0  0  0  0  0  0  0  0  0  0  0
   -1.4790   23.1297  -18.4957 O   0  0  0  0  0  0  0  0  0  0  0  0
   -2.5907   22.8335  -17.6823 C   0  0  0  0  0  0  0  0  0  0  0  0
   -4.6177   23.8946  -28.7600 C   0  0  0  0  0  0  0  0  0  0  0  0
   -4.2208   25.1553  -29.2233 C   0  0  0  0  0  0  0  0  0  0  0  0
   -4.5733   25.6672  -30.4353 C   0  0  0  0  0  0  0  0  0  0  0  0
   -5.3689   24.9006  -31.2582 C   0  0  0  0  0  0  0  0  0  0  0  0
   -5.7847   23.6579  -30.8503 C   0  0  0  0  0  0  0  0  0  0  0  0
   -5.4025   23.1759  -29.6091 C   0  0  0  0  0  0  0  0  0  0  0  0
    0.2762   21.9318  -27.2557 C   0  0  0  0  0  0  0  0  0  0  0  0
   -0.0575   23.1919  -26.4516 C   0  0  0  0  0  0  0  0  0  0  0  0
 30 31  1  0  0  0
 31  1  1  0  0  0
  1  2  1  0  0  0
  2  3  2  0  0  0
  2  4  1  0  0  0
  4  5  1  0  0  0
  5  6  1  0  0  0
  6  7  2  0  0  0
  7  8  1  0  0  0
  8  9  2  0  0  0
  9 10  1  0  0  0
 10 11  2  0  0  0
  9 24  1  0  0  0
 24 25  2  0  0  0
 25 26  1  0  0  0
 26 27  2  0  0  0
 27 28  1  0  0  0
 28 29  2  0  0  0
  4 12  1  0  0  0
 12 13  2  0  0  0
 13 14  1  0  0  0
 13 15  1  0  0  0
 15 20  1  0  0  0
 20 21  1  0  0  0
 15 16  2  0  0  0
 16 17  1  0  0  0
 17 22  1  0  0  0
 22 23  1  0  0  0
 17 18  2  0  0  0
 18 19  1  0  0  0
 11  1  1  0  0  0
 29 24  1  0  0  0
 18 12  1  0  0  0
 11  6  1  0  0  0
M  END
> <minimizedAffinity>
-8.09869

> <CNNscore>
0.2727350593

> <CNNaffinity>
6.7619004250

> <CNN_VS>
1.8442072868

> <CNNaffinity_variance>
0.1234814525

$$$$
[H]c1nc(-c2c([H])c([H])c([H])c([H])c2[H])c([H])c2c1C([H])([H])N(c1c(F)c(OC([H])([H])[H])c([H])c(OC([H])([H])[H])c1F)C(=O)N2C([H])([H])C([H])([H])[H]


 31 34  0  0  0  0  0  0  0  0999 V2000
    1.7320   20.8866  -21.5053 N   0  0  0  0  0  0  0  0  0  0  0  0
    1.7054   20.5667  -20.1283 C   0  0  0  0  0  0  0  0  0  0  0  0
    2.8343   20.3171  -19.5733 O   0  0  0  0  0  0  0  0  0  0  0  0
    0.5015   20.5171  -19.3699 N   0  0  0  0  0  0  0  0  0  0  0  0
   -0.7616   20.7487  -20.0162 C   0  0  0  0  0  0  0  0  0  0  0  0
   -0.6619   21.1194  -21.4430 C   0  0  0  0  0  0  0  0  0  0  0  0
   -1.8431   21.4301  -22.1284 C   0  0  0  0  0  0  0  0  0  0  0  0
   -1.8673   21.7635  -23.4231 N   0  0  0  0  0  0  0  0  0  0  0  0
   -0.7216   21.8171  -24.1485 C   0  0  0  0  0  0  0  0  0  0  0  0
    0.4519   21.5166  -23.4999 C   0  0  0  0  0  0  0  0  0  0  0  0
    0.5107   21.1670  -22.1547 C   0  0  0  0  0  0  0  0  0  0  0  0
    0.5898   20.2447  -17.9672 C   0  0  0  0  0  0  0  0  0  0  0  0
    0.5209   18.9776  -17.4480 C   0  0  0  0  0  0  0  0  0  0  0  0
    0.3697   17.9176  -18.2758 F   0  0  0  0  0  0  0  0  0  0  0  0
    0.6002   18.7011  -16.0755 C   0  0  0  0  0  0  0  0  0  0  0  0
    0.7551   19.7617  -15.2106 C   0  0  0  0  0  0  0  0  0  0  0  0
    0.8276   21.0439  -15.7059 C   0  0  0  0  0  0  0  0  0  0  0  0
    0.7455   21.2811  -17.0769 C   0  0  0  0  0  0  0  0  0  0  0  0
    0.8275   22.5588  -17.5047 F   0  0  0  0  0  0  0  0  0  0  0  0
    0.5229   17.3965  -15.6314 O   0  0  0  0  0  0  0  0  0  0  0  0
   -0.7061   16.7721  -15.3908 C   0  0  0  0  0  0  0  0  0  0  0  0
    0.9827   22.1124  -14.8501 O   0  0  0  0  0  0  0  0  0  0  0  0
    0.3585   22.0856  -13.5872 C   0  0  0  0  0  0  0  0  0  0  0  0
   -0.7859   22.1878  -25.5451 C   0  0  0  0  0  0  0  0  0  0  0  0
   -2.0344   22.4438  -26.1260 C   0  0  0  0  0  0  0  0  0  0  0  0
   -2.2095   22.8030  -27.4281 C   0  0  0  0  0  0  0  0  0  0  0  0
   -1.0923   22.9226  -28.2252 C   0  0  0  0  0  0  0  0  0  0  0  0
    0.1542   22.6824  -27.7035 C   0  0  0  0  0  0  0  0  0  0  0  0
    0.2865   22.3194  -26.3732 C   0  0  0  0  0  0  0  0  0  0  0  0
    3.3714   19.4897  -22.5781 C   0  0  0  0  0  0  0  0  0  0  0  0
    2.9668   20.9269  -22.2367 C   0  0  0  0  0  0  0  0  0  0  0  0
 30 31  1  0  0  0
 31  1  1  0  0  0
  1  2  1  0  0  0
  2  3  2  0  0  0
  2  4  1  0  0  0
  4  5  1  0  0  0
  5  6  1  0  0  0
  6  7  2  0  0  0
  7  8  1  0  0  0
  8  9  2  0  0  0
  9 10  1  0  0  0
 10 11  2  0  0  0
  9 24  1  0  0  0
 24 25  2  0  0  0
 25 26  1  0  0  0
 26 27  2  0  0  0
 27 28  1  0  0  0
 28 29  2  0  0  0
  4 12  1  0  0  0
 12 13  2  0  0  0
 13 14  1  0  0  0
 13 15  1  0  0  0
 15 20  1  0  0  0
 20 21  1  0  0  0
 15 16  2  0  0  0
 16 17  1  0  0  0
 17 22  1  0  0  0
 22 23  1  0  0  0
 17 18  2  0  0  0
 18 19  1  0  0  0
 11  1  1  0  0  0
 29 24  1  0  0  0
 18 12  1  0  0  0
 11  6  1  0  0  0
M  END
> <minimizedAffinity>
-6.72912

> <CNNscore>
0.2639311850

> <CNNaffinity>
6.0348358154

> <CNN_VS>
1.5927814245

> <CNNaffinity_variance>
0.1148432270

$$$$
[H]c1nc(-c2c([H])c([H])c([H])c([H])c2[H])c([H])c2c1C([H])([H])N(c1c(F)c(OC([H])([H])[H])c([H])c(OC([H])([H])[H])c1F)C(=O)N2C([H])([H])C([H])([H])[H]


 31 34  0  0  0  0  0  0  0  0999 V2000
   -0.9330   22.7798  -25.3949 N   0  0  0  0  0  0  0  0  0  0  0  0
   -0.5697   22.3594  -24.0947 C   0  0  0  0  0  0  0  0  0  0  0  0
    0.6841   22.3390  -23.8255 O   0  0  0  0  0  0  0  0  0  0  0  0
   -1.5253   21.9730  -23.1125 N   0  0  0  0  0  0  0  0  0  0  0  0
   -2.9240   21.9515  -23.4444 C   0  0  0  0  0  0  0  0  0  0  0  0
   -3.2401   22.4420  -24.8018 C   0  0  0  0  0  0  0  0  0  0  0  0
   -4.5868   22.5194  -25.1787 C   0  0  0  0  0  0  0  0  0  0  0  0
   -4.9820   22.9347  -26.3867 N   0  0  0  0  0  0  0  0  0  0  0  0
   -4.0747   23.3089  -27.3241 C   0  0  0  0  0  0  0  0  0  0  0  0
   -2.7461   23.2425  -26.9799 C   0  0  0  0  0  0  0  0  0  0  0  0
   -2.3030   22.8156  -25.7323 C   0  0  0  0  0  0  0  0  0  0  0  0
   -1.0570   21.6236  -21.8057 C   0  0  0  0  0  0  0  0  0  0  0  0
   -1.3171   22.3813  -20.6930 C   0  0  0  0  0  0  0  0  0  0  0  0
   -2.0531   23.5116  -20.8047 F   0  0  0  0  0  0  0  0  0  0  0  0
   -0.8577   22.0506  -19.4100 C   0  0  0  0  0  0  0  0  0  0  0  0
   -0.1071   20.9048  -19.2679 C   0  0  0  0  0  0  0  0  0  0  0  0
    0.1683   20.1258  -20.3689 C   0  0  0  0  0  0  0  0  0  0  0  0
   -0.3055   20.4854  -21.6293 C   0  0  0  0  0  0  0  0  0  0  0  0
   -0.0079   19.6804  -22.6713 F   0  0  0  0  0  0  0  0  0  0  0  0
   -1.1631   22.8662  -18.3391 O   0  0  0  0  0  0  0  0  0  0  0  0
   -2.3374   22.6982  -17.5968 C   0  0  0  0  0  0  0  0  0  0  0  0
    0.9181   18.9774  -20.2384 O   0  0  0  0  0  0  0  0  0  0  0  0
    0.2696   17.7488  -20.0033 C   0  0  0  0  0  0  0  0  0  0  0  0
   -4.5395   23.7588  -28.6178 C   0  0  0  0  0  0  0  0  0  0  0  0
   -4.2084   25.0490  -29.0505 C   0  0  0  0  0  0  0  0  0  0  0  0
   -4.5894   25.5717  -30.2493 C   0  0  0  0  0  0  0  0  0  0  0  0
   -5.3468   24.7857  -31.0898 C   0  0  0  0  0  0  0  0  0  0  0  0
   -5.6978   23.5138  -30.7119 C   0  0  0  0  0  0  0  0  0  0  0  0
   -5.2885   23.0219  -29.4833 C   0  0  0  0  0  0  0  0  0  0  0  0
    0.3812   21.9437  -27.2289 C   0  0  0  0  0  0  0  0  0  0  0  0
    0.0602   23.1623  -26.3584 C   0  0  0  0  0  0  0  0  0  0  0  0
 30 31  1  0  0  0
 31  1  1  0  0  0
  1  2  1  0  0  0
  2  3  2  0  0  0
  2  4  1  0  0  0
  4  5  1  0  0  0
  5  6  1  0  0  0
  6  7  2  0  0  0
  7  8  1  0  0  0
  8  9  2  0  0  0
  9 10  1  0  0  0
 10 11  2  0  0  0
  9 24  1  0  0  0
 24 25  2  0  0  0
 25 26  1  0  0  0
 26 27  2  0  0  0
 27 28  1  0  0  0
 28 29  2  0  0  0
  4 12  1  0  0  0
 12 13  2  0  0  0
 13 14  1  0  0  0
 13 15  1  0  0  0
 15 20  1  0  0  0
 20 21  1  0  0  0
 15 16  2  0  0  0
 16 17  1  0  0  0
 17 22  1  0  0  0
 22 23  1  0  0  0
 17 18  2  0  0  0
 18 19  1  0  0  0
 11  1  1  0  0  0
 29 24  1  0  0  0
 18 12  1  0  0  0
 11  6  1  0  0  0
M  END
> <minimizedAffinity>
-7.83730

> <CNNscore>
0.2549990714

> <CNNaffinity>
6.7174797058

> <CNN_VS>
1.7129510641

> <CNNaffinity_variance>
0.1417492181

$$$$
[H]c1nc(-c2c([H])c([H])c([H])c([H])c2[H])c([H])c2c1C([H])([H])N(c1c(F)c(OC([H])([H])[H])c([H])c(OC([H])([H])[H])c1F)C(=O)N2C([H])([H])C([H])([H])[H]


 31 34  0  0  0  0  0  0  0  0999 V2000
   -0.3874   21.3051  -22.0668 N   0  0  0  0  0  0  0  0  0  0  0  0
    0.7867   20.9030  -21.3893 C   0  0  0  0  0  0  0  0  0  0  0  0
    0.6656   20.6243  -20.1433 O   0  0  0  0  0  0  0  0  0  0  0  0
    2.0533   20.8029  -22.0317 N   0  0  0  0  0  0  0  0  0  0  0  0
    2.1846   21.1679  -23.4160 C   0  0  0  0  0  0  0  0  0  0  0  0
    0.9154   21.5373  -24.0761 C   0  0  0  0  0  0  0  0  0  0  0  0
    0.9460   21.8386  -25.4435 C   0  0  0  0  0  0  0  0  0  0  0  0
   -0.1410   22.1985  -26.1341 N   0  0  0  0  0  0  0  0  0  0  0  0
   -1.3513   22.2902  -25.5270 C   0  0  0  0  0  0  0  0  0  0  0  0
   -1.4090   21.9998  -24.1852 C   0  0  0  0  0  0  0  0  0  0  0  0
   -0.2973   21.6222  -23.4392 C   0  0  0  0  0  0  0  0  0  0  0  0
    3.1681   20.3258  -21.2707 C   0  0  0  0  0  0  0  0  0  0  0  0
    3.7166   19.0822  -21.4512 C   0  0  0  0  0  0  0  0  0  0  0  0
    3.2060   18.2502  -22.3886 F   0  0  0  0  0  0  0  0  0  0  0  0
    4.8044   18.6036  -20.7067 C   0  0  0  0  0  0  0  0  0  0  0  0
    5.3441   19.4304  -19.7466 C   0  0  0  0  0  0  0  0  0  0  0  0
    4.8125   20.6841  -19.5455 C   0  0  0  0  0  0  0  0  0  0  0  0
    3.7309   21.1268  -20.3048 C   0  0  0  0  0  0  0  0  0  0  0  0
    3.2549   22.3673  -20.0663 F   0  0  0  0  0  0  0  0  0  0  0  0
    5.2999   17.3383  -20.9492 O   0  0  0  0  0  0  0  0  0  0  0  0
    4.7998   16.2120  -20.2863 C   0  0  0  0  0  0  0  0  0  0  0  0
    5.3445   21.5197  -18.5879 O   0  0  0  0  0  0  0  0  0  0  0  0
    4.8879   21.4297  -17.2580 C   0  0  0  0  0  0  0  0  0  0  0  0
   -2.5062   22.6763  -26.3074 C   0  0  0  0  0  0  0  0  0  0  0  0
   -2.4026   22.7190  -27.7035 C   0  0  0  0  0  0  0  0  0  0  0  0
   -3.4261   23.0646  -28.5332 C   0  0  0  0  0  0  0  0  0  0  0  0
   -4.6387   23.3926  -27.9677 C   0  0  0  0  0  0  0  0  0  0  0  0
   -4.7917   23.3661  -26.6040 C   0  0  0  0  0  0  0  0  0  0  0  0
   -3.7238   23.0086  -25.7973 C   0  0  0  0  0  0  0  0  0  0  0  0
   -1.7799   22.8030  -20.7990 C   0  0  0  0  0  0  0  0  0  0  0  0
   -1.6474   21.3939  -21.3844 C   0  0  0  0  0  0  0  0  0  0  0  0
 30 31  1  0  0  0
 31  1  1  0  0  0
  1  2  1  0  0  0
  2  3  2  0  0  0
  2  4  1  0  0  0
  4  5  1  0  0  0
  5  6  1  0  0  0
  6  7  2  0  0  0
  7  8  1  0  0  0
  8  9  2  0  0  0
  9 10  1  0  0  0
 10 11  2  0  0  0
  9 24  1  0  0  0
 24 25  2  0  0  0
 25 26  1  0  0  0
 26 27  2  0  0  0
 27 28  1  0  0  0
 28 29  2  0  0  0
  4 12  1  0  0  0
 12 13  2  0  0  0
 13 14  1  0  0  0
 13 15  1  0  0  0
 15 20  1  0  0  0
 20 21  1  0  0  0
 15 16  2  0  0  0
 16 17  1  0  0  0
 17 22  1  0  0  0
 22 23  1  0  0  0
 17 18  2  0  0  0
 18 19  1  0  0  0
 11  1  1  0  0  0
 29 24  1  0  0  0
 18 12  1  0  0  0
 11  6  1  0  0  0
M  END
> <minimizedAffinity>
-7.43546

> <CNNscore>
0.2481021285

> <CNNaffinity>
6.2604713440

> <CNN_VS>
1.5532362461

> <CNNaffinity_variance>
0.1512365937

$$$$
[H]c1nc(-c2c([H])c([H])c([H])c([H])c2[H])c([H])c2c1C([H])([H])N(c1c(F)c(OC([H])([H])[H])c([H])c(OC([H])([H])[H])c1F)C(=O)N2C([H])([H])C([H])([H])[H]


 31 34  0  0  0  0  0  0  0  0999 V2000
   -0.3351   21.3534  -22.0798 N   0  0  0  0  0  0  0  0  0  0  0  0
    0.8545   20.9661  -21.4209 C   0  0  0  0  0  0  0  0  0  0  0  0
    0.7604   20.7060  -20.1686 O   0  0  0  0  0  0  0  0  0  0  0  0
    2.1079   20.8607  -22.0880 N   0  0  0  0  0  0  0  0  0  0  0  0
    2.2088   21.2050  -23.4802 C   0  0  0  0  0  0  0  0  0  0  0  0
    0.9246   21.5596  -24.1192 C   0  0  0  0  0  0  0  0  0  0  0  0
    0.9255   21.8400  -25.4914 C   0  0  0  0  0  0  0  0  0  0  0  0
   -0.1771   22.1853  -26.1645 N   0  0  0  0  0  0  0  0  0  0  0  0
   -1.3748   22.2818  -25.5337 C   0  0  0  0  0  0  0  0  0  0  0  0
   -1.4034   22.0118  -24.1867 C   0  0  0  0  0  0  0  0  0  0  0  0
   -0.2749   21.6497  -23.4584 C   0  0  0  0  0  0  0  0  0  0  0  0
    3.2401   20.3995  -21.3433 C   0  0  0  0  0  0  0  0  0  0  0  0
    3.8615   21.1579  -20.3850 C   0  0  0  0  0  0  0  0  0  0  0  0
    3.4008   22.3993  -20.1049 F   0  0  0  0  0  0  0  0  0  0  0  0
    4.9747   20.7174  -19.6546 C   0  0  0  0  0  0  0  0  0  0  0  0
    5.4635   19.4573  -19.9191 C   0  0  0  0  0  0  0  0  0  0  0  0
    4.8578   18.6751  -20.8762 C   0  0  0  0  0  0  0  0  0  0  0  0
    3.7524   19.1458  -21.5824 C   0  0  0  0  0  0  0  0  0  0  0  0
    3.1972   18.3324  -22.5056 F   0  0  0  0  0  0  0  0  0  0  0  0
    5.5439   21.5417  -18.7051 O   0  0  0  0  0  0  0  0  0  0  0  0
    5.1508   21.5001  -17.3627 C   0  0  0  0  0  0  0  0  0  0  0  0
    5.3382   17.4129  -21.1489 O   0  0  0  0  0  0  0  0  0  0  0  0
    4.8558   16.3132  -20.4120 C   0  0  0  0  0  0  0  0  0  0  0  0
   -2.5473   22.6516  -26.2956 C   0  0  0  0  0  0  0  0  0  0  0  0
   -2.4327   22.8299  -27.6801 C   0  0  0  0  0  0  0  0  0  0  0  0
   -3.4706   23.1736  -28.4924 C   0  0  0  0  0  0  0  0  0  0  0  0
   -4.7102   23.3580  -27.9204 C   0  0  0  0  0  0  0  0  0  0  0  0
   -4.8749   23.1953  -26.5676 C   0  0  0  0  0  0  0  0  0  0  0  0
   -3.7916   22.8450  -25.7784 C   0  0  0  0  0  0  0  0  0  0  0  0
   -1.7035   22.8633  -20.8001 C   0  0  0  0  0  0  0  0  0  0  0  0
   -1.5810   21.4480  -21.3726 C   0  0  0  0  0  0  0  0  0  0  0  0
 30 31  1  0  0  0
 31  1  1  0  0  0
  1  2  1  0  0  0
  2  3  2  0  0  0
  2  4  1  0  0  0
  4  5  1  0  0  0
  5  6  1  0  0  0
  6  7  2  0  0  0
  7  8  1  0  0  0
  8  9  2  0  0  0
  9 10  1  0  0  0
 10 11  2  0  0  0
  9 24  1  0  0  0
 24 25  2  0  0  0
 25 26  1  0  0  0
 26 27  2  0  0  0
 27 28  1  0  0  0
 28 29  2  0  0  0
  4 12  1  0  0  0
 12 13  2  0  0  0
 13 14  1  0  0  0
 13 15  1  0  0  0
 15 20  1  0  0  0
 20 21  1  0  0  0
 15 16  2  0  0  0
 16 17  1  0  0  0
 17 22  1  0  0  0
 22 23  1  0  0  0
 17 18  2  0  0  0
 18 19  1  0  0  0
 11  1  1  0  0  0
 29 24  1  0  0  0
 18 12  1  0  0  0
 11  6  1  0  0  0
M  END
> <minimizedAffinity>
-7.49662

> <CNNscore>
0.2432021201

> <CNNaffinity>
6.2777791023

> <CNN_VS>
1.5267691612

> <CNNaffinity_variance>
0.1534989774

$$$$
[H]c1nc(-c2c([H])c([H])c([H])c([H])c2[H])c([H])c2c1C([H])([H])N(c1c(F)c(OC([H])([H])[H])c([H])c(OC([H])([H])[H])c1F)C(=O)N2C([H])([H])C([H])([H])[H]


 31 34  0  0  0  0  0  0  0  0999 V2000
   -3.6965   22.6678  -23.3851 N   0  0  0  0  0  0  0  0  0  0  0  0
   -2.9125   22.2399  -22.2889 C   0  0  0  0  0  0  0  0  0  0  0  0
   -3.5199   22.0940  -21.1688 O   0  0  0  0  0  0  0  0  0  0  0  0
   -1.5174   21.9760  -22.3933 N   0  0  0  0  0  0  0  0  0  0  0  0
   -0.8394   22.1932  -23.6424 C   0  0  0  0  0  0  0  0  0  0  0  0
   -1.7211   22.5981  -24.7568 C   0  0  0  0  0  0  0  0  0  0  0  0
   -1.1494   22.7618  -26.0247 C   0  0  0  0  0  0  0  0  0  0  0  0
   -1.8529   23.1396  -27.0973 N   0  0  0  0  0  0  0  0  0  0  0  0
   -3.1840   23.3871  -27.0034 C   0  0  0  0  0  0  0  0  0  0  0  0
   -3.7700   23.2338  -25.7700 C   0  0  0  0  0  0  0  0  0  0  0  0
   -3.0663   22.8419  -24.6359 C   0  0  0  0  0  0  0  0  0  0  0  0
   -0.8276   21.4866  -21.2383 C   0  0  0  0  0  0  0  0  0  0  0  0
   -0.3096   20.2196  -21.1605 C   0  0  0  0  0  0  0  0  0  0  0  0
   -0.4352   19.3746  -22.2102 F   0  0  0  0  0  0  0  0  0  0  0  0
    0.3622   19.7290  -20.0314 C   0  0  0  0  0  0  0  0  0  0  0  0
    0.5050   20.5685  -18.9491 C   0  0  0  0  0  0  0  0  0  0  0  0
   -0.0054   21.8458  -19.0014 C   0  0  0  0  0  0  0  0  0  0  0  0
   -0.6671   22.2997  -20.1409 C   0  0  0  0  0  0  0  0  0  0  0  0
   -1.1424   23.5632  -20.1364 F   0  0  0  0  0  0  0  0  0  0  0  0
    0.8558   18.4400  -20.0313 O   0  0  0  0  0  0  0  0  0  0  0  0
    0.7405   17.6073  -18.9126 C   0  0  0  0  0  0  0  0  0  0  0  0
    0.1318   22.6943  -17.9246 O   0  0  0  0  0  0  0  0  0  0  0  0
    1.3704   22.7738  -17.2578 C   0  0  0  0  0  0  0  0  0  0  0  0
   -3.9137   23.7876  -28.1862 C   0  0  0  0  0  0  0  0  0  0  0  0
   -4.7017   22.8419  -28.8543 C   0  0  0  0  0  0  0  0  0  0  0  0
   -5.4313   23.1115  -29.9725 C   0  0  0  0  0  0  0  0  0  0  0  0
   -5.3940   24.3917  -30.4798 C   0  0  0  0  0  0  0  0  0  0  0  0
   -4.6367   25.3551  -29.8617 C   0  0  0  0  0  0  0  0  0  0  0  0
   -3.9099   25.0373  -28.7261 C   0  0  0  0  0  0  0  0  0  0  0  0
   -5.8601   21.6247  -23.5288 C   0  0  0  0  0  0  0  0  0  0  0  0
   -5.1018   22.9238  -23.2405 C   0  0  0  0  0  0  0  0  0  0  0  0
 30 31  1  0  0  0
 31  1  1  0  0  0
  1  2  1  0  0  0
  2  3  2  0  0  0
  2  4  1  0  0  0
  4  5  1  0  0  0
  5  6  1  0  0  0
  6  7  2  0  0  0
  7  8  1  0  0  0
  8  9  2  0  0  0
  9 10  1  0  0  0
 10 11  2  0  0  0
  9 24  1  0  0  0
 24 25  2  0  0  0
 25 26  1  0  0  0
 26 27  2  0  0  0
 27 28  1  0  0  0
 28 29  2  0  0  0
  4 12  1  0  0  0
 12 13  2  0  0  0
 13 14  1  0  0  0
 13 15  1  0  0  0
 15 20  1  0  0  0
 20 21  1  0  0  0
 15 16  2  0  0  0
 16 17  1  0  0  0
 17 22  1  0  0  0
 22 23  1  0  0  0
 17 18  2  0  0  0
 18 19  1  0  0  0
 11  1  1  0  0  0
 29 24  1  0  0  0
 18 12  1  0  0  0
 11  6  1  0  0  0
M  END
> <minimizedAffinity>
-7.47058

> <CNNscore>
0.2130125910

> <CNNaffinity>
6.7450704575

> <CNN_VS>
1.4367849827

> <CNNaffinity_variance>
0.3725560308

$$$$
[H]c1nc(-c2c([H])c([H])c([H])c([H])c2[H])c([H])c2c1C([H])([H])N(c1c(F)c(OC([H])([H])[H])c([H])c(OC([H])([H])[H])c1F)C(=O)N2C([H])([H])C([H])([H])[H]


 31 34  0  0  0  0  0  0  0  0999 V2000
   -0.6238   22.4710  -24.8806 N   0  0  0  0  0  0  0  0  0  0  0  0
   -0.1399   21.9946  -23.6404 C   0  0  0  0  0  0  0  0  0  0  0  0
    1.1340   21.9458  -23.4998 O   0  0  0  0  0  0  0  0  0  0  0  0
   -0.9993   21.5833  -22.5824 N   0  0  0  0  0  0  0  0  0  0  0  0
   -2.4243   21.5947  -22.7724 C   0  0  0  0  0  0  0  0  0  0  0  0
   -2.8657   22.1427  -24.0716 C   0  0  0  0  0  0  0  0  0  0  0  0
   -4.2417   22.2539  -24.3078 C   0  0  0  0  0  0  0  0  0  0  0  0
   -4.7482   22.7220  -25.4534 N   0  0  0  0  0  0  0  0  0  0  0  0
   -3.9326   23.1201  -26.4625 C   0  0  0  0  0  0  0  0  0  0  0  0
   -2.5776   23.0214  -26.2565 C   0  0  0  0  0  0  0  0  0  0  0  0
   -2.0197   22.5395  -25.0769 C   0  0  0  0  0  0  0  0  0  0  0  0
   -0.4089   21.1760  -21.3435 C   0  0  0  0  0  0  0  0  0  0  0  0
    0.0014   19.8906  -21.1000 C   0  0  0  0  0  0  0  0  0  0  0  0
   -0.1395   18.9455  -22.0585 F   0  0  0  0  0  0  0  0  0  0  0  0
    0.5750   19.4806  -19.8878 C   0  0  0  0  0  0  0  0  0  0  0  0
    0.7309   20.4227  -18.8954 C   0  0  0  0  0  0  0  0  0  0  0  0
    0.3277   21.7205  -19.1142 C   0  0  0  0  0  0  0  0  0  0  0  0
   -0.2383   22.0923  -20.3323 C   0  0  0  0  0  0  0  0  0  0  0  0
   -0.6104   23.3802  -20.4911 F   0  0  0  0  0  0  0  0  0  0  0  0
    0.9630   18.1665  -19.7207 O   0  0  0  0  0  0  0  0  0  0  0  0
    2.2129   17.8296  -19.1893 C   0  0  0  0  0  0  0  0  0  0  0  0
    0.4790   22.6713  -18.1287 O   0  0  0  0  0  0  0  0  0  0  0  0
    1.7713   22.9956  -17.6705 C   0  0  0  0  0  0  0  0  0  0  0  0
   -4.5163   23.6272  -27.6848 C   0  0  0  0  0  0  0  0  0  0  0  0
   -4.8554   24.9836  -27.7672 C   0  0  0  0  0  0  0  0  0  0  0  0
   -5.4056   25.5657  -28.8689 C   0  0  0  0  0  0  0  0  0  0  0  0
   -5.6445   24.7747  -29.9712 C   0  0  0  0  0  0  0  0  0  0  0  0
   -5.3299   23.4391  -29.9409 C   0  0  0  0  0  0  0  0  0  0  0  0
   -4.7714   22.8881  -28.7992 C   0  0  0  0  0  0  0  0  0  0  0  0
    0.3500   21.7516  -26.9601 C   0  0  0  0  0  0  0  0  0  0  0  0
    0.2749   22.8772  -25.9241 C   0  0  0  0  0  0  0  0  0  0  0  0
 30 31  1  0  0  0
 31  1  1  0  0  0
  1  2  1  0  0  0
  2  3  2  0  0  0
  2  4  1  0  0  0
  4  5  1  0  0  0
  5  6  1  0  0  0
  6  7  2  0  0  0
  7  8  1  0  0  0
  8  9  2  0  0  0
  9 10  1  0  0  0
 10 11  2  0  0  0
  9 24  1  0  0  0
 24 25  2  0  0  0
 25 26  1  0  0  0
 26 27  2  0  0  0
 27 28  1  0  0  0
 28 29  2  0  0  0
  4 12  1  0  0  0
 12 13  2  0  0  0
 13 14  1  0  0  0
 13 15  1  0  0  0
 15 20  1  0  0  0
 20 21  1  0  0  0
 15 16  2  0  0  0
 16 17  1  0  0  0
 17 22  1  0  0  0
 22 23  1  0  0  0
 17 18  2  0  0  0
 18 19  1  0  0  0
 11  1  1  0  0  0
 29 24  1  0  0  0
 18 12  1  0  0  0
 11  6  1  0  0  0
M  END
> <minimizedAffinity>
-7.44862

> <CNNscore>
0.2065910846

> <CNNaffinity>
6.4518442154

> <CNN_VS>
1.3328934908

> <CNNaffinity_variance>
0.0546955578

$$$$
[H]c1nc(-c2c([H])c([H])c([H])c([H])c2[H])c([H])c2c1C([H])([H])N(c1c(F)c(OC([H])([H])[H])c([H])c(OC([H])([H])[H])c1F)C(=O)N2C([H])([H])C([H])([H])[H]


 31 34  0  0  0  0  0  0  0  0999 V2000
    0.0308   20.1904  -20.2164 N   0  0  0  0  0  0  0  0  0  0  0  0
    0.0455   20.3080  -18.8075 C   0  0  0  0  0  0  0  0  0  0  0  0
    0.5316   19.3185  -18.1522 O   0  0  0  0  0  0  0  0  0  0  0  0
   -0.4469   21.4552  -18.1229 N   0  0  0  0  0  0  0  0  0  0  0  0
   -1.0360   22.5348  -18.8674 C   0  0  0  0  0  0  0  0  0  0  0  0
   -0.9818   22.3697  -20.3347 C   0  0  0  0  0  0  0  0  0  0  0  0
   -1.4715   23.4098  -21.1345 C   0  0  0  0  0  0  0  0  0  0  0  0
   -1.4833   23.3571  -22.4706 N   0  0  0  0  0  0  0  0  0  0  0  0
   -1.0100   22.2678  -23.1273 C   0  0  0  0  0  0  0  0  0  0  0  0
   -0.5236   21.2325  -22.3659 C   0  0  0  0  0  0  0  0  0  0  0  0
   -0.4970   21.2569  -20.9753 C   0  0  0  0  0  0  0  0  0  0  0  0
   -0.3286   21.5015  -16.6970 C   0  0  0  0  0  0  0  0  0  0  0  0
   -1.3362   21.1130  -15.8522 C   0  0  0  0  0  0  0  0  0  0  0  0
   -2.5033   20.6545  -16.3616 F   0  0  0  0  0  0  0  0  0  0  0  0
   -1.2322   21.1604  -14.4545 C   0  0  0  0  0  0  0  0  0  0  0  0
   -0.0547   21.6222  -13.9095 C   0  0  0  0  0  0  0  0  0  0  0  0
    0.9729   22.0181  -14.7354 C   0  0  0  0  0  0  0  0  0  0  0  0
    0.8342   21.9567  -16.1208 C   0  0  0  0  0  0  0  0  0  0  0  0
    1.8772   22.3538  -16.8801 F   0  0  0  0  0  0  0  0  0  0  0  0
   -2.2928   20.7505  -13.6720 O   0  0  0  0  0  0  0  0  0  0  0  0
   -2.1163   19.8832  -12.5881 C   0  0  0  0  0  0  0  0  0  0  0  0
    2.1553   22.4815  -14.2012 O   0  0  0  0  0  0  0  0  0  0  0  0
    2.9944   21.5934  -13.4996 C   0  0  0  0  0  0  0  0  0  0  0  0
   -1.0329   22.2490  -24.5734 C   0  0  0  0  0  0  0  0  0  0  0  0
    0.1783   22.2934  -25.2753 C   0  0  0  0  0  0  0  0  0  0  0  0
    0.2724   22.2770  -26.6340 C   0  0  0  0  0  0  0  0  0  0  0  0
   -0.8932   22.2128  -27.3655 C   0  0  0  0  0  0  0  0  0  0  0  0
   -2.1061   22.1674  -26.7249 C   0  0  0  0  0  0  0  0  0  0  0  0
   -2.1557   22.1861  -25.3406 C   0  0  0  0  0  0  0  0  0  0  0  0
    2.0398   19.2039  -21.1000 C   0  0  0  0  0  0  0  0  0  0  0  0
    0.5370   19.0171  -20.8709 C   0  0  0  0  0  0  0  0  0  0  0  0
 30 31  1  0  0  0
 31  1  1  0  0  0
  1  2  1  0  0  0
  2  3  2  0  0  0
  2  4  1  0  0  0
  4  5  1  0  0  0
  5  6  1  0  0  0
  6  7  2  0  0  0
  7  8  1  0  0  0
  8  9  2  0  0  0
  9 10  1  0  0  0
 10 11  2  0  0  0
  9 24  1  0  0  0
 24 25  2  0  0  0
 25 26  1  0  0  0
 26 27  2  0  0  0
 27 28  1  0  0  0
 28 29  2  0  0  0
  4 12  1  0  0  0
 12 13  2  0  0  0
 13 14  1  0  0  0
 13 15  1  0  0  0
 15 20  1  0  0  0
 20 21  1  0  0  0
 15 16  2  0  0  0
 16 17  1  0  0  0
 17 22  1  0  0  0
 22 23  1  0  0  0
 17 18  2  0  0  0
 18 19  1  0  0  0
 11  1  1  0  0  0
 29 24  1  0  0  0
 18 12  1  0  0  0
 11  6  1  0  0  0
M  END
> <minimizedAffinity>
-6.54516

> <CNNscore>
0.1721229255

> <CNNaffinity>
5.6252799034

> <CNN_VS>
0.9682396054

> <CNNaffinity_variance>
0.0471043140

$$$$
[H]C([H])=C([H])C(=O)N1C([H])([H])C([H])([H])N(C([H])([H])C([H])([H])C([H])([H])n2c(=O)c(-c3c([H])c(OC([H])([H])[H])c([H])c(OC([H])([H])[H])c3Cl)c([H])c3c([H])nc(N([H])C([H])([H])[H])nc32)C([H])([H])C1([H])[H]


 38 41  0  0  0  0  0  0  0  0999 V2000
   -1.5080   22.7275  -27.0020 C   0  0  0  0  0  0  0  0  0  0  0  0
   -0.2112   22.4658  -26.8696 N   0  0  0  0  0  0  0  0  0  0  0  0
    0.3375   22.0400  -25.7275 C   0  0  0  0  0  0  0  0  0  0  0  0
   -0.4769   21.8645  -24.6376 C   0  0  0  0  0  0  0  0  0  0  0  0
    0.0296   21.4245  -23.4159 C   0  0  0  0  0  0  0  0  0  0  0  0
   -0.8218   21.2638  -22.3503 C   0  0  0  0  0  0  0  0  0  0  0  0
   -2.1556   21.5466  -22.5331 C   0  0  0  0  0  0  0  0  0  0  0  0
   -2.9317   21.4006  -21.5609 O   0  0  0  0  0  0  0  0  0  0  0  0
   -2.6369   21.9705  -23.7152 N   0  0  0  0  0  0  0  0  0  0  0  0
   -1.8229   22.1281  -24.7486 C   0  0  0  0  0  0  0  0  0  0  0  0
   -2.3074   22.5544  -25.9308 N   0  0  0  0  0  0  0  0  0  0  0  0
   -0.3676   20.7892  -21.0477 C   0  0  0  0  0  0  0  0  0  0  0  0
    0.0090   19.4617  -20.9010 C   0  0  0  0  0  0  0  0  0  0  0  0
    0.4639   18.9784  -19.6705 C   0  0  0  0  0  0  0  0  0  0  0  0
    0.5112   19.8843  -18.6457 C   0  0  0  0  0  0  0  0  0  0  0  0
    0.1494   21.2101  -18.7382 C   0  0  0  0  0  0  0  0  0  0  0  0
   -0.3014   21.6568  -19.9863 C   0  0  0  0  0  0  0  0  0  0  0  0
   -0.7827   23.3545  -20.1257 Cl  0  0  0  0  0  0  0  0  0  0  0  0
    0.8154   17.6585  -19.6058 O   0  0  0  0  0  0  0  0  0  0  0  0
    0.5738   16.7508  -20.6382 C   0  0  0  0  0  0  0  0  0  0  0  0
    0.2063   22.1034  -17.6850 O   0  0  0  0  0  0  0  0  0  0  0  0
    0.1406   21.6723  -16.3532 C   0  0  0  0  0  0  0  0  0  0  0  0
   -1.2360   23.7397  -29.2884 C   0  0  0  0  0  0  0  0  0  0  0  0
   -2.0723   23.1885  -28.2454 N   0  0  0  0  0  0  0  0  0  0  0  0
   -3.0958   23.1332  -28.4191 H   0  0  0  0  0  0  0  0  0  0  0  0
   -4.0432   22.2669  -23.8658 C   0  0  0  0  0  0  0  0  0  0  0  0
   -4.2633   23.7287  -23.5294 C   0  0  0  0  0  0  0  0  0  0  0  0
   -5.6810   24.0599  -23.2356 C   0  0  0  0  0  0  0  0  0  0  0  0
   -6.1189   25.1691  -24.0593 N   0  0  0  0  0  0  0  0  0  0  0  0
   -7.2811   24.8228  -24.8477 C   0  0  0  0  0  0  0  0  0  0  0  0
   -6.8971   24.0437  -26.1063 C   0  0  0  0  0  0  0  0  0  0  0  0
   -5.9459   24.7486  -26.8878 N   0  0  0  0  0  0  0  0  0  0  0  0
   -5.4988   26.0280  -26.2647 C   0  0  0  0  0  0  0  0  0  0  0  0
   -5.0222   25.6369  -24.8814 C   0  0  0  0  0  0  0  0  0  0  0  0
   -5.4207   24.3861  -28.1129 C   0  0  0  0  0  0  0  0  0  0  0  0
   -4.5287   25.2319  -28.6301 O   0  0  0  0  0  0  0  0  0  0  0  0
   -5.6527   23.2641  -28.9425 C   0  0  0  0  0  0  0  0  0  0  0  0
   -5.2790   23.0670  -30.1657 C   0  0  0  0  0  0  0  0  0  0  0  0
 23 24  1  0  0  0
 24  1  1  0  0  0
  1  2  2  0  0  0
  2  3  1  0  0  0
  3  4  2  0  0  0
  4  5  1  0  0  0
  5  6  2  0  0  0
  6 12  1  0  0  0
 12 13  2  0  0  0
 13 14  1  0  0  0
 14 19  1  0  0  0
 19 20  1  0  0  0
 14 15  2  0  0  0
 15 16  1  0  0  0
 16 21  1  0  0  0
 21 22  1  0  0  0
 16 17  2  0  0  0
 17 18  1  0  0  0
  6  7  1  0  0  0
  7  8  2  0  0  0
  7  9  1  0  0  0
  9 26  1  0  0  0
 26 27  1  0  0  0
 27 28  1  0  0  0
 28 29  1  0  0  0
 29 30  1  0  0  0
 30 31  1  0  0  0
 31 32  1  0  0  0
 32 33  1  0  0  0
 33 34  1  0  0  0
 32 35  1  0  0  0
 35 36  2  0  0  0
 35 37  1  0  0  0
 37 38  2  0  0  0
  9 10  1  0  0  0
 10 11  2  0  0  0
 11  1  1  0  0  0
 10  4  1  0  0  0
 17 12  1  0  0  0
 34 29  1  0  0  0
 24 25  1  0  0  0
M  END
> <minimizedAffinity>
-7.55758

> <CNNscore>
0.4934078455

> <CNNaffinity>
7.7211747169

> <CNN_VS>
3.8096880913

> <CNNaffinity_variance>
0.1874584258

$$$$
[H]C([H])=C([H])C(=O)N1C([H])([H])C([H])([H])N(C([H])([H])C([H])([H])C([H])([H])n2c(=O)c(-c3c([H])c(OC([H])([H])[H])c([H])c(OC([H])([H])[H])c3Cl)c([H])c3c([H])nc(N([H])C([H])([H])[H])nc32)C([H])([H])C1([H])[H]


 38 41  0  0  0  0  0  0  0  0999 V2000
   -1.1270   23.0179  -27.7593 C   0  0  0  0  0  0  0  0  0  0  0  0
    0.1639   22.9934  -27.4419 N   0  0  0  0  0  0  0  0  0  0  0  0
    0.6167   22.6100  -26.2441 C   0  0  0  0  0  0  0  0  0  0  0  0
   -0.2948   22.2230  -25.2949 C   0  0  0  0  0  0  0  0  0  0  0  0
    0.1085   21.8132  -24.0251 C   0  0  0  0  0  0  0  0  0  0  0  0
   -0.8385   21.4352  -23.1049 C   0  0  0  0  0  0  0  0  0  0  0  0
   -2.1622   21.4765  -23.4771 C   0  0  0  0  0  0  0  0  0  0  0  0
   -3.0255   21.1324  -22.6375 O   0  0  0  0  0  0  0  0  0  0  0  0
   -2.5435   21.8728  -24.7044 N   0  0  0  0  0  0  0  0  0  0  0  0
   -1.6369   22.2390  -25.5984 C   0  0  0  0  0  0  0  0  0  0  0  0
   -2.0218   22.6370  -26.8262 N   0  0  0  0  0  0  0  0  0  0  0  0
   -0.4907   20.9770  -21.7643 C   0  0  0  0  0  0  0  0  0  0  0  0
    0.0034   19.6918  -21.5916 C   0  0  0  0  0  0  0  0  0  0  0  0
    0.3611   19.2269  -20.3224 C   0  0  0  0  0  0  0  0  0  0  0  0
    0.1944   20.1068  -19.2875 C   0  0  0  0  0  0  0  0  0  0  0  0
   -0.2913   21.3904  -19.4047 C   0  0  0  0  0  0  0  0  0  0  0  0
   -0.6390   21.8198  -20.6912 C   0  0  0  0  0  0  0  0  0  0  0  0
   -1.2762   23.4622  -20.8642 Cl  0  0  0  0  0  0  0  0  0  0  0  0
    0.8391   17.9488  -20.2340 O   0  0  0  0  0  0  0  0  0  0  0  0
    0.0449   16.8191  -20.4366 C   0  0  0  0  0  0  0  0  0  0  0  0
   -0.4505   22.2580  -18.3405 O   0  0  0  0  0  0  0  0  0  0  0  0
    0.2965   22.1194  -17.1630 C   0  0  0  0  0  0  0  0  0  0  0  0
   -2.9125   23.9882  -29.2415 C   0  0  0  0  0  0  0  0  0  0  0  0
   -1.5874   23.4388  -29.0585 N   0  0  0  0  0  0  0  0  0  0  0  0
   -0.9739   23.3566  -29.8937 H   0  0  0  0  0  0  0  0  0  0  0  0
   -3.9448   21.9121  -25.0551 C   0  0  0  0  0  0  0  0  0  0  0  0
   -4.4869   23.2849  -24.7088 C   0  0  0  0  0  0  0  0  0  0  0  0
   -5.9686   23.3282  -24.6152 C   0  0  0  0  0  0  0  0  0  0  0  0
   -6.4031   24.6181  -24.1175 N   0  0  0  0  0  0  0  0  0  0  0  0
   -5.9422   24.8524  -22.7665 C   0  0  0  0  0  0  0  0  0  0  0  0
   -6.8352   24.1579  -21.7376 C   0  0  0  0  0  0  0  0  0  0  0  0
   -8.1941   24.5385  -21.8829 N   0  0  0  0  0  0  0  0  0  0  0  0
   -8.4326   25.4536  -23.0363 C   0  0  0  0  0  0  0  0  0  0  0  0
   -7.8425   24.7314  -24.2296 C   0  0  0  0  0  0  0  0  0  0  0  0
   -9.2666   24.1659  -21.0963 C   0  0  0  0  0  0  0  0  0  0  0  0
  -10.4489   24.6633  -21.4615 O   0  0  0  0  0  0  0  0  0  0  0  0
   -9.3533   23.3389  -19.9519 C   0  0  0  0  0  0  0  0  0  0  0  0
   -9.3341   22.0469  -19.8797 C   0  0  0  0  0  0  0  0  0  0  0  0
 23 24  1  0  0  0
 24  1  1  0  0  0
  1  2  2  0  0  0
  2  3  1  0  0  0
  3  4  2  0  0  0
  4  5  1  0  0  0
  5  6  2  0  0  0
  6 12  1  0  0  0
 12 13  2  0  0  0
 13 14  1  0  0  0
 14 19  1  0  0  0
 19 20  1  0  0  0
 14 15  2  0  0  0
 15 16  1  0  0  0
 16 21  1  0  0  0
 21 22  1  0  0  0
 16 17  2  0  0  0
 17 18  1  0  0  0
  6  7  1  0  0  0
  7  8  2  0  0  0
  7  9  1  0  0  0
  9 26  1  0  0  0
 26 27  1  0  0  0
 27 28  1  0  0  0
 28 29  1  0  0  0
 29 30  1  0  0  0
 30 31  1  0  0  0
 31 32  1  0  0  0
 32 33  1  0  0  0
 33 34  1  0  0  0
 32 35  1  0  0  0
 35 36  2  0  0  0
 35 37  1  0  0  0
 37 38  2  0  0  0
  9 10  1  0  0  0
 10 11  2  0  0  0
 11  1  1  0  0  0
 10  4  1  0  0  0
 17 12  1  0  0  0
 34 29  1  0  0  0
 24 25  1  0  0  0
M  END
> <minimizedAffinity>
-7.11979

> <CNNscore>
0.4336448014

> <CNNaffinity>
7.2492094040

> <CNN_VS>
3.1435818672

> <CNNaffinity_variance>
0.0562383160

$$$$
[H]C([H])=C([H])C(=O)N1C([H])([H])C([H])([H])N(C([H])([H])C([H])([H])C([H])([H])n2c(=O)c(-c3c([H])c(OC([H])([H])[H])c([H])c(OC([H])([H])[H])c3Cl)c([H])c3c([H])nc(N([H])C([H])([H])[H])nc32)C([H])([H])C1([H])[H]


 38 41  0  0  0  0  0  0  0  0999 V2000
   -5.3426   24.2949  -29.5555 C   0  0  0  0  0  0  0  0  0  0  0  0
   -4.6395   23.2036  -29.8424 N   0  0  0  0  0  0  0  0  0  0  0  0
   -3.8364   22.5971  -28.9626 C   0  0  0  0  0  0  0  0  0  0  0  0
   -3.7317   23.1263  -27.7014 C   0  0  0  0  0  0  0  0  0  0  0  0
   -2.9116   22.5453  -26.7357 C   0  0  0  0  0  0  0  0  0  0  0  0
   -2.8358   23.1095  -25.4858 C   0  0  0  0  0  0  0  0  0  0  0  0
   -3.5807   24.2382  -25.2338 C   0  0  0  0  0  0  0  0  0  0  0  0
   -3.5108   24.7528  -24.0940 O   0  0  0  0  0  0  0  0  0  0  0  0
   -4.3701   24.7929  -26.1707 N   0  0  0  0  0  0  0  0  0  0  0  0
   -4.4494   24.2553  -27.3790 C   0  0  0  0  0  0  0  0  0  0  0  0
   -5.2395   24.8140  -28.3159 N   0  0  0  0  0  0  0  0  0  0  0  0
   -2.0145   22.5466  -24.4195 C   0  0  0  0  0  0  0  0  0  0  0  0
   -2.6073   22.2071  -23.2116 C   0  0  0  0  0  0  0  0  0  0  0  0
   -1.8519   21.6510  -22.1748 C   0  0  0  0  0  0  0  0  0  0  0  0
   -0.5193   21.4690  -22.4286 C   0  0  0  0  0  0  0  0  0  0  0  0
    0.1172   21.7886  -23.6074 C   0  0  0  0  0  0  0  0  0  0  0  0
   -0.6723   22.3436  -24.6219 C   0  0  0  0  0  0  0  0  0  0  0  0
    0.1268   22.7729  -26.1419 Cl  0  0  0  0  0  0  0  0  0  0  0  0
   -2.5081   21.3441  -21.0150 O   0  0  0  0  0  0  0  0  0  0  0  0
   -3.1823   22.2920  -20.2436 C   0  0  0  0  0  0  0  0  0  0  0  0
    1.4665   21.5947  -23.8359 O   0  0  0  0  0  0  0  0  0  0  0  0
    2.2747   20.9093  -22.9189 C   0  0  0  0  0  0  0  0  0  0  0  0
   -5.6835   25.9196  -31.4451 C   0  0  0  0  0  0  0  0  0  0  0  0
   -6.1989   24.9301  -30.5252 N   0  0  0  0  0  0  0  0  0  0  0  0
   -7.2084   24.6884  -30.5840 H   0  0  0  0  0  0  0  0  0  0  0  0
   -5.1302   25.9847  -25.8711 C   0  0  0  0  0  0  0  0  0  0  0  0
   -6.5323   25.5703  -25.4698 C   0  0  0  0  0  0  0  0  0  0  0  0
   -6.8925   25.9695  -24.0853 C   0  0  0  0  0  0  0  0  0  0  0  0
   -7.8789   25.0583  -23.5403 N   0  0  0  0  0  0  0  0  0  0  0  0
   -8.6232   25.6623  -22.4569 C   0  0  0  0  0  0  0  0  0  0  0  0
   -7.8479   25.6059  -21.1399 C   0  0  0  0  0  0  0  0  0  0  0  0
   -7.4655   24.2792  -20.8146 N   0  0  0  0  0  0  0  0  0  0  0  0
   -7.8408   23.2819  -21.8583 C   0  0  0  0  0  0  0  0  0  0  0  0
   -7.2408   23.8213  -23.1401 C   0  0  0  0  0  0  0  0  0  0  0  0
   -6.8143   23.8400  -19.6784 C   0  0  0  0  0  0  0  0  0  0  0  0
   -6.5640   22.5311  -19.6275 O   0  0  0  0  0  0  0  0  0  0  0  0
   -6.3511   24.5283  -18.5325 C   0  0  0  0  0  0  0  0  0  0  0  0
   -5.9797   24.0466  -17.3903 C   0  0  0  0  0  0  0  0  0  0  0  0
 23 24  1  0  0  0
 24  1  1  0  0  0
  1  2  2  0  0  0
  2  3  1  0  0  0
  3  4  2  0  0  0
  4  5  1  0  0  0
  5  6  2  0  0  0
  6 12  1  0  0  0
 12 13  2  0  0  0
 13 14  1  0  0  0
 14 19  1  0  0  0
 19 20  1  0  0  0
 14 15  2  0  0  0
 15 16  1  0  0  0
 16 21  1  0  0  0
 21 22  1  0  0  0
 16 17  2  0  0  0
 17 18  1  0  0  0
  6  7  1  0  0  0
  7  8  2  0  0  0
  7  9  1  0  0  0
  9 26  1  0  0  0
 26 27  1  0  0  0
 27 28  1  0  0  0
 28 29  1  0  0  0
 29 30  1  0  0  0
 30 31  1  0  0  0
 31 32  1  0  0  0
 32 33  1  0  0  0
 33 34  1  0  0  0
 32 35  1  0  0  0
 35 36  2  0  0  0
 35 37  1  0  0  0
 37 38  2  0  0  0
  9 10  1  0  0  0
 10 11  2  0  0  0
 11  1  1  0  0  0
 10  4  1  0  0  0
 17 12  1  0  0  0
 34 29  1  0  0  0
 24 25  1  0  0  0
M  END
> <minimizedAffinity>
-8.26632

> <CNNscore>
0.1625580639

> <CNNaffinity>
7.0202102661

> <CNN_VS>
1.1411918402

> <CNNaffinity_variance>
0.2206376046

$$$$
[H]C([H])=C([H])C(=O)N1C([H])([H])C([H])([H])N(C([H])([H])C([H])([H])C([H])([H])n2c(=O)c(-c3c([H])c(OC([H])([H])[H])c([H])c(OC([H])([H])[H])c3Cl)c([H])c3c([H])nc(N([H])C([H])([H])[H])nc32)C([H])([H])C1([H])[H]


 38 41  0  0  0  0  0  0  0  0999 V2000
   -1.1216   22.4350  -26.3406 C   0  0  0  0  0  0  0  0  0  0  0  0
    0.1596   22.0819  -26.2992 N   0  0  0  0  0  0  0  0  0  0  0  0
    0.7897   21.7417  -25.1705 C   0  0  0  0  0  0  0  0  0  0  0  0
    0.0804   21.7578  -23.9965 C   0  0  0  0  0  0  0  0  0  0  0  0
    0.6758   21.4160  -22.7834 C   0  0  0  0  0  0  0  0  0  0  0  0
   -0.0717   21.4471  -21.6317 C   0  0  0  0  0  0  0  0  0  0  0  0
   -1.3932   21.8185  -21.7220 C   0  0  0  0  0  0  0  0  0  0  0  0
   -2.0744   21.8474  -20.6714 O   0  0  0  0  0  0  0  0  0  0  0  0
   -1.9608   22.1466  -22.8963 N   0  0  0  0  0  0  0  0  0  0  0  0
   -1.2472   22.1192  -24.0123 C   0  0  0  0  0  0  0  0  0  0  0  0
   -1.8178   22.4500  -25.1866 N   0  0  0  0  0  0  0  0  0  0  0  0
    0.4776   21.0843  -20.3298 C   0  0  0  0  0  0  0  0  0  0  0  0
    0.8539   22.0866  -19.4470 C   0  0  0  0  0  0  0  0  0  0  0  0
    1.3691   21.7733  -18.1856 C   0  0  0  0  0  0  0  0  0  0  0  0
    1.4732   20.4412  -17.8893 C   0  0  0  0  0  0  0  0  0  0  0  0
    1.1150   19.4091  -18.7280 C   0  0  0  0  0  0  0  0  0  0  0  0
    0.6036   19.7624  -19.9827 C   0  0  0  0  0  0  0  0  0  0  0  0
    0.1472   18.4520  -21.0817 Cl  0  0  0  0  0  0  0  0  0  0  0  0
    1.7178   22.8167  -17.3734 O   0  0  0  0  0  0  0  0  0  0  0  0
    2.9326   23.4959  -17.4793 C   0  0  0  0  0  0  0  0  0  0  0  0
    1.2325   18.0709  -18.4026 O   0  0  0  0  0  0  0  0  0  0  0  0
    2.4604   17.4008  -18.4855 C   0  0  0  0  0  0  0  0  0  0  0  0
   -3.1814   23.1352  -27.6028 C   0  0  0  0  0  0  0  0  0  0  0  0
   -1.7750   22.8000  -27.5721 N   0  0  0  0  0  0  0  0  0  0  0  0
   -1.2467   22.8308  -28.4669 H   0  0  0  0  0  0  0  0  0  0  0  0
   -3.3498   22.5412  -22.9496 C   0  0  0  0  0  0  0  0  0  0  0  0
   -3.4453   24.0089  -22.5819 C   0  0  0  0  0  0  0  0  0  0  0  0
   -4.8362   24.4654  -22.3312 C   0  0  0  0  0  0  0  0  0  0  0  0
   -5.7186   23.3263  -22.1758 N   0  0  0  0  0  0  0  0  0  0  0  0
   -6.9074   23.4564  -22.9896 C   0  0  0  0  0  0  0  0  0  0  0  0
   -7.9519   24.3526  -22.3229 C   0  0  0  0  0  0  0  0  0  0  0  0
   -8.2770   23.8964  -21.0196 N   0  0  0  0  0  0  0  0  0  0  0  0
   -7.4778   22.7126  -20.5900 C   0  0  0  0  0  0  0  0  0  0  0  0
   -6.0349   23.1339  -20.7757 C   0  0  0  0  0  0  0  0  0  0  0  0
   -9.2191   24.4135  -20.1518 C   0  0  0  0  0  0  0  0  0  0  0  0
   -9.3177   23.7958  -18.9740 O   0  0  0  0  0  0  0  0  0  0  0  0
  -10.1196   25.4974  -20.2757 C   0  0  0  0  0  0  0  0  0  0  0  0
   -9.8845   26.7084  -20.6668 C   0  0  0  0  0  0  0  0  0  0  0  0
 23 24  1  0  0  0
 24  1  1  0  0  0
  1  2  2  0  0  0
  2  3  1  0  0  0
  3  4  2  0  0  0
  4  5  1  0  0  0
  5  6  2  0  0  0
  6 12  1  0  0  0
 12 13  2  0  0  0
 13 14  1  0  0  0
 14 19  1  0  0  0
 19 20  1  0  0  0
 14 15  2  0  0  0
 15 16  1  0  0  0
 16 21  1  0  0  0
 21 22  1  0  0  0
 16 17  2  0  0  0
 17 18  1  0  0  0
  6  7  1  0  0  0
  7  8  2  0  0  0
  7  9  1  0  0  0
  9 26  1  0  0  0
 26 27  1  0  0  0
 27 28  1  0  0  0
 28 29  1  0  0  0
 29 30  1  0  0  0
 30 31  1  0  0  0
 31 32  1  0  0  0
 32 33  1  0  0  0
 33 34  1  0  0  0
 32 35  1  0  0  0
 35 36  2  0  0  0
 35 37  1  0  0  0
 37 38  2  0  0  0
  9 10  1  0  0  0
 10 11  2  0  0  0
 11  1  1  0  0  0
 10  4  1  0  0  0
 17 12  1  0  0  0
 34 29  1  0  0  0
 24 25  1  0  0  0
M  END
> <minimizedAffinity>
-6.68616

> <CNNscore>
0.1621581018

> <CNNaffinity>
6.7020597458

> <CNN_VS>
1.0867933035

> <CNNaffinity_variance>
0.1117504984

$$$$
[H]C([H])=C([H])C(=O)N1C([H])([H])C([H])([H])N(C([H])([H])C([H])([H])C([H])([H])n2c(=O)c(-c3c([H])c(OC([H])([H])[H])c([H])c(OC([H])([H])[H])c3Cl)c([H])c3c([H])nc(N([H])C([H])([H])[H])nc32)C([H])([H])C1([H])[H]


 38 41  0  0  0  0  0  0  0  0999 V2000
   -1.5649   22.4531  -25.2092 C   0  0  0  0  0  0  0  0  0  0  0  0
   -0.4167   21.7841  -25.1672 N   0  0  0  0  0  0  0  0  0  0  0  0
    0.2378   21.5226  -24.0314 C   0  0  0  0  0  0  0  0  0  0  0  0
   -0.3011   21.9662  -22.8505 C   0  0  0  0  0  0  0  0  0  0  0  0
    0.3296   21.7295  -21.6302 C   0  0  0  0  0  0  0  0  0  0  0  0
   -0.2449   22.1931  -20.4720 C   0  0  0  0  0  0  0  0  0  0  0  0
   -1.4332   22.8802  -20.5633 C   0  0  0  0  0  0  0  0  0  0  0  0
   -1.9564   23.3033  -19.5069 O   0  0  0  0  0  0  0  0  0  0  0  0
   -2.0358   23.1044  -21.7445 N   0  0  0  0  0  0  0  0  0  0  0  0
   -1.4889   22.6607  -22.8667 C   0  0  0  0  0  0  0  0  0  0  0  0
   -2.0938   22.8882  -24.0484 N   0  0  0  0  0  0  0  0  0  0  0  0
    0.3467   21.9670  -19.1578 C   0  0  0  0  0  0  0  0  0  0  0  0
    1.2920   22.8606  -18.6745 C   0  0  0  0  0  0  0  0  0  0  0  0
    1.8667   22.6818  -17.4126 C   0  0  0  0  0  0  0  0  0  0  0  0
    1.4418   21.5906  -16.7042 C   0  0  0  0  0  0  0  0  0  0  0  0
    0.5086   20.6748  -17.1373 C   0  0  0  0  0  0  0  0  0  0  0  0
   -0.0442   20.8872  -18.4061 C   0  0  0  0  0  0  0  0  0  0  0  0
   -1.2374   19.7164  -18.9881 Cl  0  0  0  0  0  0  0  0  0  0  0  0
    2.7912   23.6045  -17.0077 O   0  0  0  0  0  0  0  0  0  0  0  0
    3.3684   23.6026  -15.7368 C   0  0  0  0  0  0  0  0  0  0  0  0
    0.0986   19.5798  -16.4002 O   0  0  0  0  0  0  0  0  0  0  0  0
    0.9894   18.5564  -16.0495 C   0  0  0  0  0  0  0  0  0  0  0  0
   -1.5255   22.8052  -27.6994 C   0  0  0  0  0  0  0  0  0  0  0  0
   -2.2477   22.7235  -26.4493 N   0  0  0  0  0  0  0  0  0  0  0  0
   -3.2774   22.8650  -26.4708 H   0  0  0  0  0  0  0  0  0  0  0  0
   -3.2788   23.8390  -21.8009 C   0  0  0  0  0  0  0  0  0  0  0  0
   -4.3786   22.9638  -21.2326 C   0  0  0  0  0  0  0  0  0  0  0  0
   -4.7626   21.8424  -22.1277 C   0  0  0  0  0  0  0  0  0  0  0  0
   -6.0838   22.0689  -22.6784 N   0  0  0  0  0  0  0  0  0  0  0  0
   -6.0636   22.0893  -24.1247 C   0  0  0  0  0  0  0  0  0  0  0  0
   -5.6097   23.4467  -24.6632 C   0  0  0  0  0  0  0  0  0  0  0  0
   -6.4050   24.5044  -24.1524 N   0  0  0  0  0  0  0  0  0  0  0  0
   -7.4302   24.0523  -23.1678 C   0  0  0  0  0  0  0  0  0  0  0  0
   -6.6487   23.2818  -22.1241 C   0  0  0  0  0  0  0  0  0  0  0  0
   -6.3297   25.8478  -24.4650 C   0  0  0  0  0  0  0  0  0  0  0  0
   -7.1965   26.6367  -23.8287 O   0  0  0  0  0  0  0  0  0  0  0  0
   -5.4901   26.5633  -25.3506 C   0  0  0  0  0  0  0  0  0  0  0  0
   -4.2965   27.0203  -25.1477 C   0  0  0  0  0  0  0  0  0  0  0  0
 23 24  1  0  0  0
 24  1  1  0  0  0
  1  2  2  0  0  0
  2  3  1  0  0  0
  3  4  2  0  0  0
  4  5  1  0  0  0
  5  6  2  0  0  0
  6 12  1  0  0  0
 12 13  2  0  0  0
 13 14  1  0  0  0
 14 19  1  0  0  0
 19 20  1  0  0  0
 14 15  2  0  0  0
 15 16  1  0  0  0
 16 21  1  0  0  0
 21 22  1  0  0  0
 16 17  2  0  0  0
 17 18  1  0  0  0
  6  7  1  0  0  0
  7  8  2  0  0  0
  7  9  1  0  0  0
  9 26  1  0  0  0
 26 27  1  0  0  0
 27 28  1  0  0  0
 28 29  1  0  0  0
 29 30  1  0  0  0
 30 31  1  0  0  0
 31 32  1  0  0  0
 32 33  1  0  0  0
 33 34  1  0  0  0
 32 35  1  0  0  0
 35 36  2  0  0  0
 35 37  1  0  0  0
 37 38  2  0  0  0
  9 10  1  0  0  0
 10 11  2  0  0  0
 11  1  1  0  0  0
 10  4  1  0  0  0
 17 12  1  0  0  0
 34 29  1  0  0  0
 24 25  1  0  0  0
M  END
> <minimizedAffinity>
-7.08825

> <CNNscore>
0.1156406477

> <CNNaffinity>
6.7642836571

> <CNN_VS>
0.7822261453

> <CNNaffinity_variance>
0.0846178681

$$$$
[H]C([H])=C([H])C(=O)N1C([H])([H])C([H])([H])N(C([H])([H])C([H])([H])C([H])([H])n2c(=O)c(-c3c([H])c(OC([H])([H])[H])c([H])c(OC([H])([H])[H])c3Cl)c([H])c3c([H])nc(N([H])C([H])([H])[H])nc32)C([H])([H])C1([H])[H]


 38 41  0  0  0  0  0  0  0  0999 V2000
    0.4216   20.9913  -22.4389 C   0  0  0  0  0  0  0  0  0  0  0  0
    1.0885   21.4729  -23.4835 N   0  0  0  0  0  0  0  0  0  0  0  0
    0.5068   22.1637  -24.4690 C   0  0  0  0  0  0  0  0  0  0  0  0
   -0.8449   22.3868  -24.4002 C   0  0  0  0  0  0  0  0  0  0  0  0
   -1.5152   23.0980  -25.3941 C   0  0  0  0  0  0  0  0  0  0  0  0
   -2.8698   23.2969  -25.2854 C   0  0  0  0  0  0  0  0  0  0  0  0
   -3.5185   22.7806  -24.1877 C   0  0  0  0  0  0  0  0  0  0  0  0
   -4.7540   22.9616  -24.0893 O   0  0  0  0  0  0  0  0  0  0  0  0
   -2.8648   22.0957  -23.2326 N   0  0  0  0  0  0  0  0  0  0  0  0
   -1.5581   21.8992  -23.3291 C   0  0  0  0  0  0  0  0  0  0  0  0
   -0.9063   21.2115  -22.3719 N   0  0  0  0  0  0  0  0  0  0  0  0
   -3.6345   24.0469  -26.2758 C   0  0  0  0  0  0  0  0  0  0  0  0
   -4.2182   25.2527  -25.9138 C   0  0  0  0  0  0  0  0  0  0  0  0
   -4.9443   26.0040  -26.8429 C   0  0  0  0  0  0  0  0  0  0  0  0
   -5.0364   25.4800  -28.1039 C   0  0  0  0  0  0  0  0  0  0  0  0
   -4.4773   24.2899  -28.5139 C   0  0  0  0  0  0  0  0  0  0  0  0
   -3.7581   23.5658  -27.5553 C   0  0  0  0  0  0  0  0  0  0  0  0
   -3.0403   22.0275  -28.0568 Cl  0  0  0  0  0  0  0  0  0  0  0  0
   -5.4898   27.1806  -26.4094 O   0  0  0  0  0  0  0  0  0  0  0  0
   -5.9035   27.3933  -25.0935 C   0  0  0  0  0  0  0  0  0  0  0  0
   -4.5876   23.7837  -29.7953 O   0  0  0  0  0  0  0  0  0  0  0  0
   -5.6236   24.1773  -30.6529 C   0  0  0  0  0  0  0  0  0  0  0  0
    0.4340   19.1089  -20.7708 C   0  0  0  0  0  0  0  0  0  0  0  0
    1.0745   20.2471  -21.3916 N   0  0  0  0  0  0  0  0  0  0  0  0
    2.0232   20.5135  -21.0603 H   0  0  0  0  0  0  0  0  0  0  0  0
   -3.5828   21.5601  -22.0987 C   0  0  0  0  0  0  0  0  0  0  0  0
   -3.7157   22.6528  -21.0563 C   0  0  0  0  0  0  0  0  0  0  0  0
   -5.0589   22.7060  -20.4246 C   0  0  0  0  0  0  0  0  0  0  0  0
   -5.3712   24.0627  -20.0215 N   0  0  0  0  0  0  0  0  0  0  0  0
   -6.2420   24.0899  -18.8668 C   0  0  0  0  0  0  0  0  0  0  0  0
   -7.7043   23.8728  -19.2579 C   0  0  0  0  0  0  0  0  0  0  0  0
   -8.1288   24.8093  -20.2353 N   0  0  0  0  0  0  0  0  0  0  0  0
   -7.0405   25.7197  -20.6951 C   0  0  0  0  0  0  0  0  0  0  0  0
   -5.9269   24.7949  -21.1406 C   0  0  0  0  0  0  0  0  0  0  0  0
   -9.3918   24.9567  -20.7746 C   0  0  0  0  0  0  0  0  0  0  0  0
   -9.5183   25.9175  -21.6908 O   0  0  0  0  0  0  0  0  0  0  0  0
  -10.6043   24.2681  -20.5362 C   0  0  0  0  0  0  0  0  0  0  0  0
  -11.4086   24.3647  -19.5269 C   0  0  0  0  0  0  0  0  0  0  0  0
 23 24  1  0  0  0
 24  1  1  0  0  0
  1  2  2  0  0  0
  2  3  1  0  0  0
  3  4  2  0  0  0
  4  5  1  0  0  0
  5  6  2  0  0  0
  6 12  1  0  0  0
 12 13  2  0  0  0
 13 14  1  0  0  0
 14 19  1  0  0  0
 19 20  1  0  0  0
 14 15  2  0  0  0
 15 16  1  0  0  0
 16 21  1  0  0  0
 21 22  1  0  0  0
 16 17  2  0  0  0
 17 18  1  0  0  0
  6  7  1  0  0  0
  7  8  2  0  0  0
  7  9  1  0  0  0
  9 26  1  0  0  0
 26 27  1  0  0  0
 27 28  1  0  0  0
 28 29  1  0  0  0
 29 30  1  0  0  0
 30 31  1  0  0  0
 31 32  1  0  0  0
 32 33  1  0  0  0
 33 34  1  0  0  0
 32 35  1  0  0  0
 35 36  2  0  0  0
 35 37  1  0  0  0
 37 38  2  0  0  0
  9 10  1  0  0  0
 10 11  2  0  0  0
 11  1  1  0  0  0
 10  4  1  0  0  0
 17 12  1  0  0  0
 34 29  1  0  0  0
 24 25  1  0  0  0
M  END
> <minimizedAffinity>
-7.40279

> <CNNscore>
0.1082415581

> <CNNaffinity>
6.7459182739

> <CNN_VS>
0.7301887274

> <CNNaffinity_variance>
0.1397066414

$$$$
[H]C([H])=C([H])C(=O)N1C([H])([H])C([H])([H])N(C([H])([H])C([H])([H])C([H])([H])n2c(=O)c(-c3c([H])c(OC([H])([H])[H])c([H])c(OC([H])([H])[H])c3Cl)c([H])c3c([H])nc(N([H])C([H])([H])[H])nc32)C([H])([H])C1([H])[H]


 38 41  0  0  0  0  0  0  0  0999 V2000
   -1.5217   22.5816  -25.9146 C   0  0  0  0  0  0  0  0  0  0  0  0
   -0.2551   22.1891  -25.8172 N   0  0  0  0  0  0  0  0  0  0  0  0
    0.2909   21.7517  -24.6782 C   0  0  0  0  0  0  0  0  0  0  0  0
   -0.4935   21.7057  -23.5537 C   0  0  0  0  0  0  0  0  0  0  0  0
    0.0123   21.2618  -22.3331 C   0  0  0  0  0  0  0  0  0  0  0  0
   -0.8083   21.2335  -21.2321 C   0  0  0  0  0  0  0  0  0  0  0  0
   -2.1114   21.6489  -21.3795 C   0  0  0  0  0  0  0  0  0  0  0  0
   -2.8593   21.6236  -20.3751 O   0  0  0  0  0  0  0  0  0  0  0  0
   -2.5923   22.0757  -22.5607 N   0  0  0  0  0  0  0  0  0  0  0  0
   -1.8078   22.1062  -23.6280 C   0  0  0  0  0  0  0  0  0  0  0  0
   -2.2917   22.5356  -24.8094 N   0  0  0  0  0  0  0  0  0  0  0  0
   -0.3549   20.7638  -19.9275 C   0  0  0  0  0  0  0  0  0  0  0  0
   -0.2846   19.3998  -19.6824 C   0  0  0  0  0  0  0  0  0  0  0  0
    0.1607   18.9161  -18.4485 C   0  0  0  0  0  0  0  0  0  0  0  0
    0.5143   19.8592  -17.5219 C   0  0  0  0  0  0  0  0  0  0  0  0
    0.4630   21.2221  -17.7141 C   0  0  0  0  0  0  0  0  0  0  0  0
    0.0116   21.6681  -18.9622 C   0  0  0  0  0  0  0  0  0  0  0  0
   -0.0735   23.4161  -19.2278 Cl  0  0  0  0  0  0  0  0  0  0  0  0
    0.2007   17.5592  -18.2837 O   0  0  0  0  0  0  0  0  0  0  0  0
    1.3632   16.8630  -17.9491 C   0  0  0  0  0  0  0  0  0  0  0  0
    0.8256   22.1528  -16.7586 O   0  0  0  0  0  0  0  0  0  0  0  0
    0.8982   21.8189  -15.3997 C   0  0  0  0  0  0  0  0  0  0  0  0
   -3.4636   23.4753  -27.2399 C   0  0  0  0  0  0  0  0  0  0  0  0
   -2.0836   23.0516  -27.1557 N   0  0  0  0  0  0  0  0  0  0  0  0
   -1.5060   23.0968  -28.0189 H   0  0  0  0  0  0  0  0  0  0  0  0
   -3.9647   22.5135  -22.6739 C   0  0  0  0  0  0  0  0  0  0  0  0
   -3.9965   24.0247  -22.5566 C   0  0  0  0  0  0  0  0  0  0  0  0
   -5.1700   24.5337  -21.8017 C   0  0  0  0  0  0  0  0  0  0  0  0
   -6.3294   23.7017  -22.0545 N   0  0  0  0  0  0  0  0  0  0  0  0
   -7.1139   24.2007  -23.1626 C   0  0  0  0  0  0  0  0  0  0  0  0
   -8.0327   25.3452  -22.7329 C   0  0  0  0  0  0  0  0  0  0  0  0
   -8.8676   24.9670  -21.6502 N   0  0  0  0  0  0  0  0  0  0  0  0
   -8.5995   23.5880  -21.1491 C   0  0  0  0  0  0  0  0  0  0  0  0
   -7.1159   23.5700  -20.8455 C   0  0  0  0  0  0  0  0  0  0  0  0
   -9.8603   25.7133  -21.0454 C   0  0  0  0  0  0  0  0  0  0  0  0
  -10.4932   25.1178  -20.0338 O   0  0  0  0  0  0  0  0  0  0  0  0
  -10.3450   27.0179  -21.2991 C   0  0  0  0  0  0  0  0  0  0  0  0
  -10.3350   28.0535  -20.5231 C   0  0  0  0  0  0  0  0  0  0  0  0
 23 24  1  0  0  0
 24  1  1  0  0  0
  1  2  2  0  0  0
  2  3  1  0  0  0
  3  4  2  0  0  0
  4  5  1  0  0  0
  5  6  2  0  0  0
  6 12  1  0  0  0
 12 13  2  0  0  0
 13 14  1  0  0  0
 14 19  1  0  0  0
 19 20  1  0  0  0
 14 15  2  0  0  0
 15 16  1  0  0  0
 16 21  1  0  0  0
 21 22  1  0  0  0
 16 17  2  0  0  0
 17 18  1  0  0  0
  6  7  1  0  0  0
  7  8  2  0  0  0
  7  9  1  0  0  0
  9 26  1  0  0  0
 26 27  1  0  0  0
 27 28  1  0  0  0
 28 29  1  0  0  0
 29 30  1  0  0  0
 30 31  1  0  0  0
 31 32  1  0  0  0
 32 33  1  0  0  0
 33 34  1  0  0  0
 32 35  1  0  0  0
 35 36  2  0  0  0
 35 37  1  0  0  0
 37 38  2  0  0  0
  9 10  1  0  0  0
 10 11  2  0  0  0
 11  1  1  0  0  0
 10  4  1  0  0  0
 17 12  1  0  0  0
 34 29  1  0  0  0
 24 25  1  0  0  0
M  END
> <minimizedAffinity>
-6.40464

> <CNNscore>
0.0761430711

> <CNNaffinity>
6.4828310013

> <CNN_VS>
0.4936226606

> <CNNaffinity_variance>
0.2133974284

$$$$
[H]C([H])=C([H])C(=O)N1C([H])([H])C([H])([H])N(C([H])([H])C([H])([H])C([H])([H])n2c(=O)c(-c3c([H])c(OC([H])([H])[H])c([H])c(OC([H])([H])[H])c3Cl)c([H])c3c([H])nc(N([H])C([H])([H])[H])nc32)C([H])([H])C1([H])[H]


 38 41  0  0  0  0  0  0  0  0999 V2000
   -7.0985   21.7535  -20.5716 C   0  0  0  0  0  0  0  0  0  0  0  0
   -7.7926   21.2820  -21.6029 N   0  0  0  0  0  0  0  0  0  0  0  0
   -7.3805   21.3817  -22.8706 C   0  0  0  0  0  0  0  0  0  0  0  0
   -6.1825   22.0014  -23.1207 C   0  0  0  0  0  0  0  0  0  0  0  0
   -5.6940   22.1409  -24.4186 C   0  0  0  0  0  0  0  0  0  0  0  0
   -4.4902   22.7695  -24.6233 C   0  0  0  0  0  0  0  0  0  0  0  0
   -3.8066   23.2417  -23.5268 C   0  0  0  0  0  0  0  0  0  0  0  0
   -2.7091   23.8155  -23.7139 O   0  0  0  0  0  0  0  0  0  0  0  0
   -4.2842   23.1030  -22.2774 N   0  0  0  0  0  0  0  0  0  0  0  0
   -5.4446   22.4978  -22.0706 C   0  0  0  0  0  0  0  0  0  0  0  0
   -5.9213   22.3618  -20.8183 N   0  0  0  0  0  0  0  0  0  0  0  0
   -3.9072   22.9352  -25.9503 C   0  0  0  0  0  0  0  0  0  0  0  0
   -2.6253   22.4630  -26.1939 C   0  0  0  0  0  0  0  0  0  0  0  0
   -2.0433   22.5916  -27.4586 C   0  0  0  0  0  0  0  0  0  0  0  0
   -2.8080   23.2005  -28.4165 C   0  0  0  0  0  0  0  0  0  0  0  0
   -4.0829   23.6862  -28.2270 C   0  0  0  0  0  0  0  0  0  0  0  0
   -4.6317   23.5394  -26.9473 C   0  0  0  0  0  0  0  0  0  0  0  0
   -6.2648   24.1665  -26.6776 Cl  0  0  0  0  0  0  0  0  0  0  0  0
   -0.7766   22.1022  -27.6191 O   0  0  0  0  0  0  0  0  0  0  0  0
    0.2529   22.3288  -26.7043 C   0  0  0  0  0  0  0  0  0  0  0  0
   -4.8326   24.2986  -29.2137 O   0  0  0  0  0  0  0  0  0  0  0  0
   -5.5045   23.5545  -30.1927 C   0  0  0  0  0  0  0  0  0  0  0  0
   -8.9819   21.5697  -18.9147 C   0  0  0  0  0  0  0  0  0  0  0  0
   -7.5687   21.6345  -19.2145 N   0  0  0  0  0  0  0  0  0  0  0  0
   -6.8992   21.5918  -18.4203 H   0  0  0  0  0  0  0  0  0  0  0  0
   -3.5416   23.6210  -21.1512 C   0  0  0  0  0  0  0  0  0  0  0  0
   -2.7057   22.4972  -20.5709 C   0  0  0  0  0  0  0  0  0  0  0  0
   -1.2540   22.6348  -20.8531 C   0  0  0  0  0  0  0  0  0  0  0  0
   -0.5973   21.3472  -20.7468 N   0  0  0  0  0  0  0  0  0  0  0  0
   -0.2584   21.0317  -19.3765 C   0  0  0  0  0  0  0  0  0  0  0  0
    1.0343   21.7234  -18.9417 C   0  0  0  0  0  0  0  0  0  0  0  0
    2.1104   21.4167  -19.8136 N   0  0  0  0  0  0  0  0  0  0  0  0
    1.7103   20.5657  -20.9714 C   0  0  0  0  0  0  0  0  0  0  0  0
    0.5598   21.3096  -21.6170 C   0  0  0  0  0  0  0  0  0  0  0  0
    3.4305   21.8066  -19.6993 C   0  0  0  0  0  0  0  0  0  0  0  0
    4.2419   21.3843  -20.6699 O   0  0  0  0  0  0  0  0  0  0  0  0
    4.1020   22.5860  -18.7283 C   0  0  0  0  0  0  0  0  0  0  0  0
    4.4007   22.2812  -17.5066 C   0  0  0  0  0  0  0  0  0  0  0  0
 23 24  1  0  0  0
 24  1  1  0  0  0
  1  2  2  0  0  0
  2  3  1  0  0  0
  3  4  2  0  0  0
  4  5  1  0  0  0
  5  6  2  0  0  0
  6 12  1  0  0  0
 12 13  2  0  0  0
 13 14  1  0  0  0
 14 19  1  0  0  0
 19 20  1  0  0  0
 14 15  2  0  0  0
 15 16  1  0  0  0
 16 21  1  0  0  0
 21 22  1  0  0  0
 16 17  2  0  0  0
 17 18  1  0  0  0
  6  7  1  0  0  0
  7  8  2  0  0  0
  7  9  1  0  0  0
  9 26  1  0  0  0
 26 27  1  0  0  0
 27 28  1  0  0  0
 28 29  1  0  0  0
 29 30  1  0  0  0
 30 31  1  0  0  0
 31 32  1  0  0  0
 32 33  1  0  0  0
 33 34  1  0  0  0
 32 35  1  0  0  0
 35 36  2  0  0  0
 35 37  1  0  0  0
 37 38  2  0  0  0
  9 10  1  0  0  0
 10 11  2  0  0  0
 11  1  1  0  0  0
 10  4  1  0  0  0
 17 12  1  0  0  0
 34 29  1  0  0  0
 24 25  1  0  0  0
M  END
> <minimizedAffinity>
-7.30141

> <CNNscore>
0.0535941310

> <CNNaffinity>
6.4632935524

> <CNN_VS>
0.3463945985

> <CNNaffinity_variance>
0.0785424337

$$$$
[H]C([H])=C([H])C(=O)N1C([H])([H])C([H])([H])N(C([H])([H])C([H])([H])C([H])([H])n2c(=O)c(-c3c([H])c(OC([H])([H])[H])c([H])c(OC([H])([H])[H])c3Cl)c([H])c3c([H])nc(N([H])C([H])([H])[H])nc32)C([H])([H])C1([H])[H]


 38 41  0  0  0  0  0  0  0  0999 V2000
   -2.0066   22.8950  -27.0722 C   0  0  0  0  0  0  0  0  0  0  0  0
   -3.1831   22.9086  -27.6916 N   0  0  0  0  0  0  0  0  0  0  0  0
   -4.3511   22.9711  -27.0445 C   0  0  0  0  0  0  0  0  0  0  0  0
   -4.3360   23.0235  -25.6738 C   0  0  0  0  0  0  0  0  0  0  0  0
   -5.5171   23.0883  -24.9365 C   0  0  0  0  0  0  0  0  0  0  0  0
   -5.4555   23.1379  -23.5653 C   0  0  0  0  0  0  0  0  0  0  0  0
   -4.2166   23.1215  -22.9675 C   0  0  0  0  0  0  0  0  0  0  0  0
   -4.1609   23.1661  -21.7170 O   0  0  0  0  0  0  0  0  0  0  0  0
   -3.0814   23.0591  -23.6857 N   0  0  0  0  0  0  0  0  0  0  0  0
   -3.1314   23.0111  -25.0089 C   0  0  0  0  0  0  0  0  0  0  0  0
   -1.9928   22.9469  -25.7255 N   0  0  0  0  0  0  0  0  0  0  0  0
   -6.6476   23.2263  -22.7291 C   0  0  0  0  0  0  0  0  0  0  0  0
   -7.0815   22.1013  -22.0422 C   0  0  0  0  0  0  0  0  0  0  0  0
   -8.2110   22.1560  -21.2200 C   0  0  0  0  0  0  0  0  0  0  0  0
   -8.8431   23.3673  -21.1415 C   0  0  0  0  0  0  0  0  0  0  0  0
   -8.4545   24.5120  -21.8016 C   0  0  0  0  0  0  0  0  0  0  0  0
   -7.3192   24.4178  -22.6157 C   0  0  0  0  0  0  0  0  0  0  0  0
   -6.8079   25.8738  -23.4829 Cl  0  0  0  0  0  0  0  0  0  0  0  0
   -8.5756   21.0053  -20.5774 O   0  0  0  0  0  0  0  0  0  0  0  0
   -8.2039   20.7113  -19.2646 C   0  0  0  0  0  0  0  0  0  0  0  0
   -9.1135   25.7231  -21.7046 O   0  0  0  0  0  0  0  0  0  0  0  0
  -10.4559   25.8601  -22.0825 C   0  0  0  0  0  0  0  0  0  0  0  0
    0.4273   22.2711  -27.1869 C   0  0  0  0  0  0  0  0  0  0  0  0
   -0.7622   22.8241  -27.7956 N   0  0  0  0  0  0  0  0  0  0  0  0
   -0.6939   23.1695  -28.7738 H   0  0  0  0  0  0  0  0  0  0  0  0
   -1.7986   23.0339  -23.0210 C   0  0  0  0  0  0  0  0  0  0  0  0
   -1.4430   21.5910  -22.7208 C   0  0  0  0  0  0  0  0  0  0  0  0
    0.0192   21.3300  -22.7259 C   0  0  0  0  0  0  0  0  0  0  0  0
    0.4722   20.9831  -21.3937 N   0  0  0  0  0  0  0  0  0  0  0  0
    1.9137   21.0408  -21.2875 C   0  0  0  0  0  0  0  0  0  0  0  0
    2.5708   19.7742  -21.8375 C   0  0  0  0  0  0  0  0  0  0  0  0
    2.0626   18.6073  -21.2112 N   0  0  0  0  0  0  0  0  0  0  0  0
    0.9709   18.8872  -20.2342 C   0  0  0  0  0  0  0  0  0  0  0  0
   -0.0506   19.6863  -21.0163 C   0  0  0  0  0  0  0  0  0  0  0  0
    2.4630   17.2995  -21.4049 C   0  0  0  0  0  0  0  0  0  0  0  0
    1.8076   16.3846  -20.6894 O   0  0  0  0  0  0  0  0  0  0  0  0
    3.4573   16.7319  -22.2356 C   0  0  0  0  0  0  0  0  0  0  0  0
    4.2175   15.7090  -22.0104 C   0  0  0  0  0  0  0  0  0  0  0  0
 23 24  1  0  0  0
 24  1  1  0  0  0
  1  2  2  0  0  0
  2  3  1  0  0  0
  3  4  2  0  0  0
  4  5  1  0  0  0
  5  6  2  0  0  0
  6 12  1  0  0  0
 12 13  2  0  0  0
 13 14  1  0  0  0
 14 19  1  0  0  0
 19 20  1  0  0  0
 14 15  2  0  0  0
 15 16  1  0  0  0
 16 21  1  0  0  0
 21 22  1  0  0  0
 16 17  2  0  0  0
 17 18  1  0  0  0
  6  7  1  0  0  0
  7  8  2  0  0  0
  7  9  1  0  0  0
  9 26  1  0  0  0
 26 27  1  0  0  0
 27 28  1  0  0  0
 28 29  1  0  0  0
 29 30  1  0  0  0
 30 31  1  0  0  0
 31 32  1  0  0  0
 32 33  1  0  0  0
 33 34  1  0  0  0
 32 35  1  0  0  0
 35 36  2  0  0  0
 35 37  1  0  0  0
 37 38  2  0  0  0
  9 10  1  0  0  0
 10 11  2  0  0  0
 11  1  1  0  0  0
 10  4  1  0  0  0
 17 12  1  0  0  0
 34 29  1  0  0  0
 24 25  1  0  0  0
M  END
> <minimizedAffinity>
-7.58362

> <CNNscore>
0.0467365533

> <CNNaffinity>
6.0510487556

> <CNN_VS>
0.2828051746

> <CNNaffinity_variance>
0.6166592836

$$$$
[H]C([H])=C([H])C(=O)N1C([H])([H])C([H])([H])N(C([H])([H])C([H])([H])C([H])([H])n2c(=O)c(-c3c(Cl)c(OC([H])([H])[H])c([H])c(OC([H])([H])[H])c3Cl)c([H])c3c([H])nc(N([H])C([H])([H])C([H])(F)F)nc32)C([H])([H])C1([H])[H]


 42 45  0  0  0  0  0  0  0  0999 V2000
   -2.5891   22.8613  -25.3228 C   0  0  0  0  0  0  0  0  0  0  0  0
   -2.7333   22.2803  -26.5436 C   0  0  0  0  0  0  0  0  0  0  0  0
   -3.5990   22.8491  -27.4567 C   0  0  0  0  0  0  0  0  0  0  0  0
   -3.7567   22.2733  -28.6984 C   0  0  0  0  0  0  0  0  0  0  0  0
   -4.5934   22.8336  -29.5650 N   0  0  0  0  0  0  0  0  0  0  0  0
   -5.2824   23.9397  -29.2581 C   0  0  0  0  0  0  0  0  0  0  0  0
   -5.1392   24.5249  -28.0316 N   0  0  0  0  0  0  0  0  0  0  0  0
   -4.3037   23.9802  -27.1428 C   0  0  0  0  0  0  0  0  0  0  0  0
   -4.1582   24.5557  -25.9281 N   0  0  0  0  0  0  0  0  0  0  0  0
   -3.3184   23.9923  -25.0610 C   0  0  0  0  0  0  0  0  0  0  0  0
   -3.1583   24.5079  -23.9097 O   0  0  0  0  0  0  0  0  0  0  0  0
    0.5504   21.8219  -23.6521 C   0  0  0  0  0  0  0  0  0  0  0  0
    0.0764   21.2779  -22.4776 C   0  0  0  0  0  0  0  0  0  0  0  0
   -1.2742   21.2377  -22.2046 C   0  0  0  0  0  0  0  0  0  0  0  0
   -2.1419   21.7584  -23.1415 C   0  0  0  0  0  0  0  0  0  0  0  0
   -3.8754   21.7247  -22.8279 Cl  0  0  0  0  0  0  0  0  0  0  0  0
   -1.6867   22.3036  -24.3155 C   0  0  0  0  0  0  0  0  0  0  0  0
   -0.3191   22.3351  -24.5732 C   0  0  0  0  0  0  0  0  0  0  0  0
    0.3210   23.0136  -26.0439 Cl  0  0  0  0  0  0  0  0  0  0  0  0
    2.7825   20.9190  -23.1904 C   0  0  0  0  0  0  0  0  0  0  0  0
    1.9395   21.8375  -23.8802 O   0  0  0  0  0  0  0  0  0  0  0  0
   -1.7210   20.6836  -21.0138 O   0  0  0  0  0  0  0  0  0  0  0  0
   -0.8168   20.5635  -19.9416 C   0  0  0  0  0  0  0  0  0  0  0  0
   -6.1719   24.5263  -30.1948 N   0  0  0  0  0  0  0  0  0  0  0  0
   -7.2076   24.5716  -29.9675 H   0  0  0  0  0  0  0  0  0  0  0  0
   -5.7517   25.0712  -31.4497 C   0  0  0  0  0  0  0  0  0  0  0  0
   -5.2931   26.5057  -31.3812 C   0  0  0  0  0  0  0  0  0  0  0  0
   -4.7385   26.7743  -30.1319 F   0  0  0  0  0  0  0  0  0  0  0  0
   -6.3523   27.3871  -31.5144 F   0  0  0  0  0  0  0  0  0  0  0  0
   -4.8895   25.7612  -25.5526 C   0  0  0  0  0  0  0  0  0  0  0  0
   -6.2794   25.3522  -25.1238 C   0  0  0  0  0  0  0  0  0  0  0  0
   -6.6975   25.9977  -23.8396 C   0  0  0  0  0  0  0  0  0  0  0  0
   -6.5814   25.1657  -22.6841 N   0  0  0  0  0  0  0  0  0  0  0  0
   -7.0759   25.7260  -21.4826 C   0  0  0  0  0  0  0  0  0  0  0  0
   -8.2103   25.0024  -20.8276 C   0  0  0  0  0  0  0  0  0  0  0  0
   -8.1991   23.5946  -20.9929 N   0  0  0  0  0  0  0  0  0  0  0  0
   -7.1855   22.9511  -21.7888 C   0  0  0  0  0  0  0  0  0  0  0  0
   -6.9546   23.8297  -22.9935 C   0  0  0  0  0  0  0  0  0  0  0  0
   -9.1931   22.8053  -20.3721 C   0  0  0  0  0  0  0  0  0  0  0  0
   -9.1914   21.5345  -20.5148 O   0  0  0  0  0  0  0  0  0  0  0  0
  -10.2542   23.3483  -19.5556 C   0  0  0  0  0  0  0  0  0  0  0  0
  -11.4493   23.6585  -20.0197 C   0  0  0  0  0  0  0  0  0  0  0  0
 20 21  1  0  0  0
 21 12  1  0  0  0
 12 13  2  0  0  0
 13 14  1  0  0  0
 14 22  1  0  0  0
 22 23  1  0  0  0
 14 15  2  0  0  0
 15 16  1  0  0  0
 15 17  1  0  0  0
 17 18  2  0  0  0
 18 19  1  0  0  0
 17  1  1  0  0  0
  1  2  2  0  0  0
  2  3  1  0  0  0
  3  4  2  0  0  0
  4  5  1  0  0  0
  5  6  2  0  0  0
  6 24  1  0  0  0
 24 26  1  0  0  0
 26 27  1  0  0  0
 27 28  1  0  0  0
 27 29  1  0  0  0
  6  7  1  0  0  0
  7  8  2  0  0  0
  8  9  1  0  0  0
  9 30  1  0  0  0
 30 31  1  0  0  0
 31 32  1  0  0  0
 32 33  1  0  0  0
 33 34  1  0  0  0
 34 35  1  0  0  0
 35 36  1  0  0  0
 36 37  1  0  0  0
 37 38  1  0  0  0
 36 39  1  0  0  0
 39 40  2  0  0  0
 39 41  1  0  0  0
 41 42  2  0  0  0
  9 10  1  0  0  0
 10 11  2  0  0  0
 18 12  1  0  0  0
 10  1  1  0  0  0
  8  3  1  0  0  0
 38 33  1  0  0  0
 24 25  1  0  0  0
M  END
> <minimizedAffinity>
-8.21812

> <CNNscore>
0.4598430097

> <CNNaffinity>
7.8508043289

> <CNN_VS>
3.6101374626

> <CNNaffinity_variance>
0.2001421005

$$$$
[H]C([H])=C([H])C(=O)N1C([H])([H])C([H])([H])N(C([H])([H])C([H])([H])C([H])([H])n2c(=O)c(-c3c(Cl)c(OC([H])([H])[H])c([H])c(OC([H])([H])[H])c3Cl)c([H])c3c([H])nc(N([H])C([H])([H])C([H])(F)F)nc32)C([H])([H])C1([H])[H]


 42 45  0  0  0  0  0  0  0  0999 V2000
   -0.0328   21.0142  -20.7138 C   0  0  0  0  0  0  0  0  0  0  0  0
    0.8437   21.0977  -21.7499 C   0  0  0  0  0  0  0  0  0  0  0  0
    0.3673   21.4256  -23.0038 C   0  0  0  0  0  0  0  0  0  0  0  0
    1.2419   21.5149  -24.0647 C   0  0  0  0  0  0  0  0  0  0  0  0
    0.7669   21.8317  -25.2642 N   0  0  0  0  0  0  0  0  0  0  0  0
   -0.5365   22.0648  -25.4621 C   0  0  0  0  0  0  0  0  0  0  0  0
   -1.4190   21.9810  -24.4222 N   0  0  0  0  0  0  0  0  0  0  0  0
   -0.9657   21.6639  -23.2062 C   0  0  0  0  0  0  0  0  0  0  0  0
   -1.8348   21.5801  -22.1740 N   0  0  0  0  0  0  0  0  0  0  0  0
   -1.3562   21.2626  -20.9720 C   0  0  0  0  0  0  0  0  0  0  0  0
   -2.1464   21.1752  -19.9797 O   0  0  0  0  0  0  0  0  0  0  0  0
    0.9243   18.9690  -17.7763 C   0  0  0  0  0  0  0  0  0  0  0  0
    1.2443   19.9394  -16.8510 C   0  0  0  0  0  0  0  0  0  0  0  0
    1.1554   21.2791  -17.1633 C   0  0  0  0  0  0  0  0  0  0  0  0
    0.7362   21.6241  -18.4310 C   0  0  0  0  0  0  0  0  0  0  0  0
    0.6100   23.3265  -18.8669 Cl  0  0  0  0  0  0  0  0  0  0  0  0
    0.4139   20.6708  -19.3638 C   0  0  0  0  0  0  0  0  0  0  0  0
    0.5101   19.3229  -19.0297 C   0  0  0  0  0  0  0  0  0  0  0  0
    0.1158   18.0659  -20.1688 Cl  0  0  0  0  0  0  0  0  0  0  0  0
    0.3382   17.1366  -16.2565 C   0  0  0  0  0  0  0  0  0  0  0  0
    1.0329   17.6156  -17.4046 O   0  0  0  0  0  0  0  0  0  0  0  0
    1.4842   22.2326  -16.2108 O   0  0  0  0  0  0  0  0  0  0  0  0
    1.1831   21.9727  -14.8604 C   0  0  0  0  0  0  0  0  0  0  0  0
   -1.0282   22.4025  -26.7493 N   0  0  0  0  0  0  0  0  0  0  0  0
   -0.4082   22.2503  -27.5971 H   0  0  0  0  0  0  0  0  0  0  0  0
   -2.3322   22.9453  -26.9798 C   0  0  0  0  0  0  0  0  0  0  0  0
   -2.8124   22.8237  -28.4037 C   0  0  0  0  0  0  0  0  0  0  0  0
   -2.5688   24.0075  -29.0963 F   0  0  0  0  0  0  0  0  0  0  0  0
   -4.1821   22.6325  -28.4659 F   0  0  0  0  0  0  0  0  0  0  0  0
   -3.2628   21.8262  -22.3454 C   0  0  0  0  0  0  0  0  0  0  0  0
   -3.5301   23.2786  -22.0262 C   0  0  0  0  0  0  0  0  0  0  0  0
   -4.9783   23.5517  -21.7635 C   0  0  0  0  0  0  0  0  0  0  0  0
   -5.5325   24.6297  -22.5195 N   0  0  0  0  0  0  0  0  0  0  0  0
   -4.5894   25.4652  -23.1635 C   0  0  0  0  0  0  0  0  0  0  0  0
   -4.6588   25.5201  -24.6574 C   0  0  0  0  0  0  0  0  0  0  0  0
   -5.9596   25.3794  -25.2030 N   0  0  0  0  0  0  0  0  0  0  0  0
   -7.0975   25.1440  -24.3517 C   0  0  0  0  0  0  0  0  0  0  0  0
   -6.6477   24.1831  -23.2790 C   0  0  0  0  0  0  0  0  0  0  0  0
   -6.1500   25.4691  -26.6002 C   0  0  0  0  0  0  0  0  0  0  0  0
   -7.3196   25.3439  -27.1021 O   0  0  0  0  0  0  0  0  0  0  0  0
   -5.0793   25.7008  -27.5422 C   0  0  0  0  0  0  0  0  0  0  0  0
   -5.2534   25.7582  -28.8485 C   0  0  0  0  0  0  0  0  0  0  0  0
 20 21  1  0  0  0
 21 12  1  0  0  0
 12 13  2  0  0  0
 13 14  1  0  0  0
 14 22  1  0  0  0
 22 23  1  0  0  0
 14 15  2  0  0  0
 15 16  1  0  0  0
 15 17  1  0  0  0
 17 18  2  0  0  0
 18 19  1  0  0  0
 17  1  1  0  0  0
  1  2  2  0  0  0
  2  3  1  0  0  0
  3  4  2  0  0  0
  4  5  1  0  0  0
  5  6  2  0  0  0
  6 24  1  0  0  0
 24 26  1  0  0  0
 26 27  1  0  0  0
 27 28  1  0  0  0
 27 29  1  0  0  0
  6  7  1  0  0  0
  7  8  2  0  0  0
  8  9  1  0  0  0
  9 30  1  0  0  0
 30 31  1  0  0  0
 31 32  1  0  0  0
 32 33  1  0  0  0
 33 34  1  0  0  0
 34 35  1  0  0  0
 35 36  1  0  0  0
 36 37  1  0  0  0
 37 38  1  0  0  0
 36 39  1  0  0  0
 39 40  2  0  0  0
 39 41  1  0  0  0
 41 42  2  0  0  0
  9 10  1  0  0  0
 10 11  2  0  0  0
 18 12  1  0  0  0
 10  1  1  0  0  0
  8  3  1  0  0  0
 38 33  1  0  0  0
 24 25  1  0  0  0
M  END
> <minimizedAffinity>
-7.27171

> <CNNscore>
0.2312679142

> <CNNaffinity>
7.4662718773

> <CNN_VS>
1.7267091274

> <CNNaffinity_variance>
0.1379165053

$$$$
[H]C([H])=C([H])C(=O)N1C([H])([H])C([H])([H])N(C([H])([H])C([H])([H])C([H])([H])n2c(=O)c(-c3c(Cl)c(OC([H])([H])[H])c([H])c(OC([H])([H])[H])c3Cl)c([H])c3c([H])nc(N([H])C([H])([H])C([H])(F)F)nc32)C([H])([H])C1([H])[H]


 42 45  0  0  0  0  0  0  0  0999 V2000
   -0.1610   20.9897  -20.7197 C   0  0  0  0  0  0  0  0  0  0  0  0
    0.7259   21.1019  -21.7442 C   0  0  0  0  0  0  0  0  0  0  0  0
    0.2633   21.4727  -22.9913 C   0  0  0  0  0  0  0  0  0  0  0  0
    1.1485   21.5914  -24.0404 C   0  0  0  0  0  0  0  0  0  0  0  0
    0.6867   21.9493  -25.2335 N   0  0  0  0  0  0  0  0  0  0  0  0
   -0.6135   22.1956  -25.4361 C   0  0  0  0  0  0  0  0  0  0  0  0
   -1.5064   22.0830  -24.4079 N   0  0  0  0  0  0  0  0  0  0  0  0
   -1.0665   21.7245  -23.1985 C   0  0  0  0  0  0  0  0  0  0  0  0
   -1.9459   21.6121  -22.1778 N   0  0  0  0  0  0  0  0  0  0  0  0
   -1.4806   21.2534  -20.9823 C   0  0  0  0  0  0  0  0  0  0  0  0
   -2.2807   21.1383  -20.0008 O   0  0  0  0  0  0  0  0  0  0  0  0
    0.9820   21.2807  -17.2073 C   0  0  0  0  0  0  0  0  0  0  0  0
    1.0895   19.9573  -16.8367 C   0  0  0  0  0  0  0  0  0  0  0  0
    0.7925   18.9428  -17.7215 C   0  0  0  0  0  0  0  0  0  0  0  0
    0.3833   19.2885  -18.9923 C   0  0  0  0  0  0  0  0  0  0  0  0
   -0.0049   18.0193  -20.1511 Cl  0  0  0  0  0  0  0  0  0  0  0  0
    0.2710   20.6006  -19.3773 C   0  0  0  0  0  0  0  0  0  0  0  0
    0.5753   21.6111  -18.4695 C   0  0  0  0  0  0  0  0  0  0  0  0
    0.4524   23.2949  -18.8971 Cl  0  0  0  0  0  0  0  0  0  0  0  0
    2.6270   22.3839  -15.7625 C   0  0  0  0  0  0  0  0  0  0  0  0
    1.2977   22.2768  -16.2640 O   0  0  0  0  0  0  0  0  0  0  0  0
    0.9104   17.6203  -17.3193 O   0  0  0  0  0  0  0  0  0  0  0  0
    2.1782   17.0100  -17.3622 C   0  0  0  0  0  0  0  0  0  0  0  0
   -1.0911   22.5773  -26.7163 N   0  0  0  0  0  0  0  0  0  0  0  0
   -0.3972   22.8895  -27.4562 H   0  0  0  0  0  0  0  0  0  0  0  0
   -2.4756   22.5671  -27.0788 C   0  0  0  0  0  0  0  0  0  0  0  0
   -2.7290   22.6309  -28.5635 C   0  0  0  0  0  0  0  0  0  0  0  0
   -2.2252   23.8196  -29.0868 F   0  0  0  0  0  0  0  0  0  0  0  0
   -4.0833   22.6438  -28.8501 F   0  0  0  0  0  0  0  0  0  0  0  0
   -3.3710   21.8712  -22.3548 C   0  0  0  0  0  0  0  0  0  0  0  0
   -3.6156   23.3405  -22.1011 C   0  0  0  0  0  0  0  0  0  0  0  0
   -5.0726   23.6771  -22.0358 C   0  0  0  0  0  0  0  0  0  0  0  0
   -5.4688   24.7877  -22.8424 N   0  0  0  0  0  0  0  0  0  0  0  0
   -4.4125   25.4789  -23.4816 C   0  0  0  0  0  0  0  0  0  0  0  0
   -4.4329   25.4899  -24.9779 C   0  0  0  0  0  0  0  0  0  0  0  0
   -5.7253   25.4899  -25.5602 N   0  0  0  0  0  0  0  0  0  0  0  0
   -6.9069   25.4249  -24.7389 C   0  0  0  0  0  0  0  0  0  0  0  0
   -6.6087   24.4542  -23.6229 C   0  0  0  0  0  0  0  0  0  0  0  0
   -5.8641   25.5534  -26.9649 C   0  0  0  0  0  0  0  0  0  0  0  0
   -7.0257   25.5544  -27.4998 O   0  0  0  0  0  0  0  0  0  0  0  0
   -4.7472   25.6199  -27.8789 C   0  0  0  0  0  0  0  0  0  0  0  0
   -4.8750   25.8055  -29.1786 C   0  0  0  0  0  0  0  0  0  0  0  0
 20 21  1  0  0  0
 21 12  1  0  0  0
 12 13  2  0  0  0
 13 14  1  0  0  0
 14 22  1  0  0  0
 22 23  1  0  0  0
 14 15  2  0  0  0
 15 16  1  0  0  0
 15 17  1  0  0  0
 17 18  2  0  0  0
 18 19  1  0  0  0
 17  1  1  0  0  0
  1  2  2  0  0  0
  2  3  1  0  0  0
  3  4  2  0  0  0
  4  5  1  0  0  0
  5  6  2  0  0  0
  6 24  1  0  0  0
 24 26  1  0  0  0
 26 27  1  0  0  0
 27 28  1  0  0  0
 27 29  1  0  0  0
  6  7  1  0  0  0
  7  8  2  0  0  0
  8  9  1  0  0  0
  9 30  1  0  0  0
 30 31  1  0  0  0
 31 32  1  0  0  0
 32 33  1  0  0  0
 33 34  1  0  0  0
 34 35  1  0  0  0
 35 36  1  0  0  0
 36 37  1  0  0  0
 37 38  1  0  0  0
 36 39  1  0  0  0
 39 40  2  0  0  0
 39 41  1  0  0  0
 41 42  2  0  0  0
  9 10  1  0  0  0
 10 11  2  0  0  0
 18 12  1  0  0  0
 10  1  1  0  0  0
  8  3  1  0  0  0
 38 33  1  0  0  0
 24 25  1  0  0  0
M  END
> <minimizedAffinity>
-7.35702

> <CNNscore>
0.2305797189

> <CNNaffinity>
7.4492826462

> <CNN_VS>
1.7176535130

> <CNNaffinity_variance>
0.1488152742

$$$$
[H]C([H])=C([H])C(=O)N1C([H])([H])C([H])([H])N(C([H])([H])C([H])([H])C([H])([H])n2c(=O)c(-c3c(Cl)c(OC([H])([H])[H])c([H])c(OC([H])([H])[H])c3Cl)c([H])c3c([H])nc(N([H])C([H])([H])C([H])(F)F)nc32)C([H])([H])C1([H])[H]


 42 45  0  0  0  0  0  0  0  0999 V2000
   -2.1591   22.6982  -24.8141 C   0  0  0  0  0  0  0  0  0  0  0  0
   -2.2611   22.2320  -26.0872 C   0  0  0  0  0  0  0  0  0  0  0  0
   -3.1731   22.8178  -26.9427 C   0  0  0  0  0  0  0  0  0  0  0  0
   -3.2890   22.3578  -28.2362 C   0  0  0  0  0  0  0  0  0  0  0  0
   -4.1712   22.9329  -29.0461 N   0  0  0  0  0  0  0  0  0  0  0  0
   -4.9452   23.9443  -28.6335 C   0  0  0  0  0  0  0  0  0  0  0  0
   -4.8445   24.4141  -27.3543 N   0  0  0  0  0  0  0  0  0  0  0  0
   -3.9647   23.8521  -26.5206 C   0  0  0  0  0  0  0  0  0  0  0  0
   -3.8610   24.3136  -25.2541 N   0  0  0  0  0  0  0  0  0  0  0  0
   -2.9755   23.7356  -24.4439 C   0  0  0  0  0  0  0  0  0  0  0  0
   -2.8526   24.1452  -23.2464 O   0  0  0  0  0  0  0  0  0  0  0  0
   -0.8624   20.9489  -21.8163 C   0  0  0  0  0  0  0  0  0  0  0  0
    0.4987   21.0005  -22.0281 C   0  0  0  0  0  0  0  0  0  0  0  0
    1.0231   21.6054  -23.1504 C   0  0  0  0  0  0  0  0  0  0  0  0
    0.1462   22.1597  -24.0591 C   0  0  0  0  0  0  0  0  0  0  0  0
    0.7792   22.9416  -25.5056 Cl  0  0  0  0  0  0  0  0  0  0  0  0
   -1.2111   22.1169  -23.8635 C   0  0  0  0  0  0  0  0  0  0  0  0
   -1.7217   21.5016  -22.7240 C   0  0  0  0  0  0  0  0  0  0  0  0
   -3.4341   21.4143  -22.4187 Cl  0  0  0  0  0  0  0  0  0  0  0  0
   -0.4266   19.7850  -19.7029 C   0  0  0  0  0  0  0  0  0  0  0  0
   -1.3442   20.3189  -20.6533 O   0  0  0  0  0  0  0  0  0  0  0  0
    2.3974   21.6417  -23.3359 O   0  0  0  0  0  0  0  0  0  0  0  0
    3.1484   20.4827  -23.0628 C   0  0  0  0  0  0  0  0  0  0  0  0
   -5.8824   24.5483  -29.5108 N   0  0  0  0  0  0  0  0  0  0  0  0
   -6.7779   24.9550  -29.1119 H   0  0  0  0  0  0  0  0  0  0  0  0
   -5.6916   24.6453  -30.9258 C   0  0  0  0  0  0  0  0  0  0  0  0
   -4.9130   25.8592  -31.3654 C   0  0  0  0  0  0  0  0  0  0  0  0
   -3.6318   25.8326  -30.8192 F   0  0  0  0  0  0  0  0  0  0  0  0
   -5.4892   27.0301  -30.9035 F   0  0  0  0  0  0  0  0  0  0  0  0
   -4.6848   25.4134  -24.7634 C   0  0  0  0  0  0  0  0  0  0  0  0
   -6.0090   24.8425  -24.3122 C   0  0  0  0  0  0  0  0  0  0  0  0
   -6.6562   25.6678  -23.2443 C   0  0  0  0  0  0  0  0  0  0  0  0
   -7.1911   24.9211  -22.1502 N   0  0  0  0  0  0  0  0  0  0  0  0
   -6.6063   23.6496  -21.9415 C   0  0  0  0  0  0  0  0  0  0  0  0
   -5.9204   23.4393  -20.6282 C   0  0  0  0  0  0  0  0  0  0  0  0
   -6.4921   24.1367  -19.5344 N   0  0  0  0  0  0  0  0  0  0  0  0
   -7.6147   25.0190  -19.7249 C   0  0  0  0  0  0  0  0  0  0  0  0
   -7.3726   25.7595  -21.0169 C   0  0  0  0  0  0  0  0  0  0  0  0
   -5.9581   23.9699  -18.2370 C   0  0  0  0  0  0  0  0  0  0  0  0
   -6.4670   24.5943  -17.2437 O   0  0  0  0  0  0  0  0  0  0  0  0
   -4.8349   23.1122  -17.9363 C   0  0  0  0  0  0  0  0  0  0  0  0
   -4.0637   23.2608  -16.8765 C   0  0  0  0  0  0  0  0  0  0  0  0
 20 21  1  0  0  0
 21 12  1  0  0  0
 12 13  2  0  0  0
 13 14  1  0  0  0
 14 22  1  0  0  0
 22 23  1  0  0  0
 14 15  2  0  0  0
 15 16  1  0  0  0
 15 17  1  0  0  0
 17 18  2  0  0  0
 18 19  1  0  0  0
 17  1  1  0  0  0
  1  2  2  0  0  0
  2  3  1  0  0  0
  3  4  2  0  0  0
  4  5  1  0  0  0
  5  6  2  0  0  0
  6 24  1  0  0  0
 24 26  1  0  0  0
 26 27  1  0  0  0
 27 28  1  0  0  0
 27 29  1  0  0  0
  6  7  1  0  0  0
  7  8  2  0  0  0
  8  9  1  0  0  0
  9 30  1  0  0  0
 30 31  1  0  0  0
 31 32  1  0  0  0
 32 33  1  0  0  0
 33 34  1  0  0  0
 34 35  1  0  0  0
 35 36  1  0  0  0
 36 37  1  0  0  0
 37 38  1  0  0  0
 36 39  1  0  0  0
 39 40  2  0  0  0
 39 41  1  0  0  0
 41 42  2  0  0  0
  9 10  1  0  0  0
 10 11  2  0  0  0
 18 12  1  0  0  0
 10  1  1  0  0  0
  8  3  1  0  0  0
 38 33  1  0  0  0
 24 25  1  0  0  0
M  END
> <minimizedAffinity>
-8.46772

> <CNNscore>
0.1980181187

> <CNNaffinity>
7.4520311356

> <CNN_VS>
1.4756371975

> <CNNaffinity_variance>
0.3364878297

$$$$
[H]C([H])=C([H])C(=O)N1C([H])([H])C([H])([H])N(C([H])([H])C([H])([H])C([H])([H])n2c(=O)c(-c3c(Cl)c(OC([H])([H])[H])c([H])c(OC([H])([H])[H])c3Cl)c([H])c3c([H])nc(N([H])C([H])([H])C([H])(F)F)nc32)C([H])([H])C1([H])[H]


 42 45  0  0  0  0  0  0  0  0999 V2000
   -0.2378   21.1784  -21.1790 C   0  0  0  0  0  0  0  0  0  0  0  0
    0.5174   21.3369  -22.2984 C   0  0  0  0  0  0  0  0  0  0  0  0
   -0.1044   21.6890  -23.4800 C   0  0  0  0  0  0  0  0  0  0  0  0
    0.6460   21.8541  -24.6237 C   0  0  0  0  0  0  0  0  0  0  0  0
    0.0319   22.1931  -25.7519 N   0  0  0  0  0  0  0  0  0  0  0  0
   -1.2934   22.3766  -25.7999 C   0  0  0  0  0  0  0  0  0  0  0  0
   -2.0542   22.2174  -24.6761 N   0  0  0  0  0  0  0  0  0  0  0  0
   -1.4598   21.8766  -23.5292 C   0  0  0  0  0  0  0  0  0  0  0  0
   -2.2081   21.7182  -22.4144 N   0  0  0  0  0  0  0  0  0  0  0  0
   -1.5901   21.3785  -21.2842 C   0  0  0  0  0  0  0  0  0  0  0  0
   -2.2641   21.2214  -20.2175 O   0  0  0  0  0  0  0  0  0  0  0  0
    1.2633   19.0896  -18.5122 C   0  0  0  0  0  0  0  0  0  0  0  0
    1.5020   20.0225  -17.5259 C   0  0  0  0  0  0  0  0  0  0  0  0
    1.1796   21.3505  -17.7077 C   0  0  0  0  0  0  0  0  0  0  0  0
    0.6098   21.7221  -18.9073 C   0  0  0  0  0  0  0  0  0  0  0  0
    0.1840   23.4105  -19.1762 Cl  0  0  0  0  0  0  0  0  0  0  0  0
    0.3656   20.8062  -19.8993 C   0  0  0  0  0  0  0  0  0  0  0  0
    0.6982   19.4697  -19.6971 C   0  0  0  0  0  0  0  0  0  0  0  0
    0.4138   18.2597  -20.9170 Cl  0  0  0  0  0  0  0  0  0  0  0  0
    2.0068   17.3366  -16.9678 C   0  0  0  0  0  0  0  0  0  0  0  0
    1.6121   17.7467  -18.2740 O   0  0  0  0  0  0  0  0  0  0  0  0
    1.4318   22.2661  -16.6965 O   0  0  0  0  0  0  0  0  0  0  0  0
    2.7379   22.7707  -16.5501 C   0  0  0  0  0  0  0  0  0  0  0  0
   -1.9344   22.7390  -27.0126 N   0  0  0  0  0  0  0  0  0  0  0  0
   -1.5740   22.3411  -27.9281 H   0  0  0  0  0  0  0  0  0  0  0  0
   -3.0576   23.6235  -27.0791 C   0  0  0  0  0  0  0  0  0  0  0  0
   -4.3749   22.9360  -27.3336 C   0  0  0  0  0  0  0  0  0  0  0  0
   -5.1115   23.6432  -28.2812 F   0  0  0  0  0  0  0  0  0  0  0  0
   -5.1638   22.9072  -26.1963 F   0  0  0  0  0  0  0  0  0  0  0  0
   -3.6548   21.9084  -22.4223 C   0  0  0  0  0  0  0  0  0  0  0  0
   -3.9426   23.3347  -22.0153 C   0  0  0  0  0  0  0  0  0  0  0  0
   -4.5714   24.1303  -23.1164 C   0  0  0  0  0  0  0  0  0  0  0  0
   -5.9879   24.2839  -23.0123 N   0  0  0  0  0  0  0  0  0  0  0  0
   -6.7406   23.1006  -23.2006 C   0  0  0  0  0  0  0  0  0  0  0  0
   -7.5708   22.6477  -22.0408 C   0  0  0  0  0  0  0  0  0  0  0  0
   -8.0915   23.6895  -21.2327 N   0  0  0  0  0  0  0  0  0  0  0  0
   -7.7740   25.0675  -21.5067 C   0  0  0  0  0  0  0  0  0  0  0  0
   -6.3188   25.1087  -21.9031 C   0  0  0  0  0  0  0  0  0  0  0  0
   -8.9334   23.3793  -20.1412 C   0  0  0  0  0  0  0  0  0  0  0  0
   -9.4085   24.3120  -19.4064 O   0  0  0  0  0  0  0  0  0  0  0  0
   -9.3130   22.0333  -19.7782 C   0  0  0  0  0  0  0  0  0  0  0  0
  -10.0468   21.7393  -18.7222 C   0  0  0  0  0  0  0  0  0  0  0  0
 20 21  1  0  0  0
 21 12  1  0  0  0
 12 13  2  0  0  0
 13 14  1  0  0  0
 14 22  1  0  0  0
 22 23  1  0  0  0
 14 15  2  0  0  0
 15 16  1  0  0  0
 15 17  1  0  0  0
 17 18  2  0  0  0
 18 19  1  0  0  0
 17  1  1  0  0  0
  1  2  2  0  0  0
  2  3  1  0  0  0
  3  4  2  0  0  0
  4  5  1  0  0  0
  5  6  2  0  0  0
  6 24  1  0  0  0
 24 26  1  0  0  0
 26 27  1  0  0  0
 27 28  1  0  0  0
 27 29  1  0  0  0
  6  7  1  0  0  0
  7  8  2  0  0  0
  8  9  1  0  0  0
  9 30  1  0  0  0
 30 31  1  0  0  0
 31 32  1  0  0  0
 32 33  1  0  0  0
 33 34  1  0  0  0
 34 35  1  0  0  0
 35 36  1  0  0  0
 36 37  1  0  0  0
 37 38  1  0  0  0
 36 39  1  0  0  0
 39 40  2  0  0  0
 39 41  1  0  0  0
 41 42  2  0  0  0
  9 10  1  0  0  0
 10 11  2  0  0  0
 18 12  1  0  0  0
 10  1  1  0  0  0
  8  3  1  0  0  0
 38 33  1  0  0  0
 24 25  1  0  0  0
M  END
> <minimizedAffinity>
-6.88526

> <CNNscore>
0.1700237244

> <CNNaffinity>
7.2342820168

> <CNN_VS>
1.2299995422

> <CNNaffinity_variance>
0.3716473579

$$$$
[H]C([H])=C([H])C(=O)N1C([H])([H])C([H])([H])N(C([H])([H])C([H])([H])C([H])([H])n2c(=O)c(-c3c(Cl)c(OC([H])([H])[H])c([H])c(OC([H])([H])[H])c3Cl)c([H])c3c([H])nc(N([H])C([H])([H])C([H])(F)F)nc32)C([H])([H])C1([H])[H]


 42 45  0  0  0  0  0  0  0  0999 V2000
   -2.1157   22.6694  -24.2717 C   0  0  0  0  0  0  0  0  0  0  0  0
   -0.7957   22.6187  -24.5939 C   0  0  0  0  0  0  0  0  0  0  0  0
    0.0779   21.9807  -23.7357 C   0  0  0  0  0  0  0  0  0  0  0  0
    1.4186   21.9198  -24.0472 C   0  0  0  0  0  0  0  0  0  0  0  0
    2.2454   21.3020  -23.2106 N   0  0  0  0  0  0  0  0  0  0  0  0
    1.8048   20.7407  -22.0778 C   0  0  0  0  0  0  0  0  0  0  0  0
    0.4788   20.7909  -21.7520 N   0  0  0  0  0  0  0  0  0  0  0  0
   -0.3726   21.4067  -22.5772 C   0  0  0  0  0  0  0  0  0  0  0  0
   -1.6856   21.4588  -22.2595 N   0  0  0  0  0  0  0  0  0  0  0  0
   -2.5127   22.0785  -23.1000 C   0  0  0  0  0  0  0  0  0  0  0  0
   -3.7538   22.1457  -22.8313 O   0  0  0  0  0  0  0  0  0  0  0  0
   -4.1835   23.4078  -27.2561 C   0  0  0  0  0  0  0  0  0  0  0  0
   -4.8928   24.5139  -26.8394 C   0  0  0  0  0  0  0  0  0  0  0  0
   -4.7131   25.0427  -25.5790 C   0  0  0  0  0  0  0  0  0  0  0  0
   -3.8014   24.4331  -24.7429 C   0  0  0  0  0  0  0  0  0  0  0  0
   -3.5446   25.0805  -23.1245 Cl  0  0  0  0  0  0  0  0  0  0  0  0
   -3.0874   23.3315  -25.1420 C   0  0  0  0  0  0  0  0  0  0  0  0
   -3.2827   22.8121  -26.4186 C   0  0  0  0  0  0  0  0  0  0  0  0
   -2.4077   21.4164  -26.9840 Cl  0  0  0  0  0  0  0  0  0  0  0  0
   -5.6040   23.2450  -29.2477 C   0  0  0  0  0  0  0  0  0  0  0  0
   -4.4060   22.9090  -28.5536 O   0  0  0  0  0  0  0  0  0  0  0  0
   -5.4415   26.1568  -25.1882 O   0  0  0  0  0  0  0  0  0  0  0  0
   -4.9712   27.4338  -25.5486 C   0  0  0  0  0  0  0  0  0  0  0  0
    2.7004   20.0841  -21.1949 N   0  0  0  0  0  0  0  0  0  0  0  0
    3.2546   20.6598  -20.4965 H   0  0  0  0  0  0  0  0  0  0  0  0
    2.9062   18.6678  -21.1870 C   0  0  0  0  0  0  0  0  0  0  0  0
    3.9663   18.1893  -22.1463 C   0  0  0  0  0  0  0  0  0  0  0  0
    3.4348   17.2398  -23.0161 F   0  0  0  0  0  0  0  0  0  0  0  0
    5.0011   17.5495  -21.4859 F   0  0  0  0  0  0  0  0  0  0  0  0
   -2.2080   20.8604  -21.0354 C   0  0  0  0  0  0  0  0  0  0  0  0
   -2.3126   21.9463  -19.9901 C   0  0  0  0  0  0  0  0  0  0  0  0
   -2.9130   21.4551  -18.7099 C   0  0  0  0  0  0  0  0  0  0  0  0
   -4.3221   21.6583  -18.5911 N   0  0  0  0  0  0  0  0  0  0  0  0
   -4.7650   22.9812  -18.8275 C   0  0  0  0  0  0  0  0  0  0  0  0
   -5.7050   23.1736  -19.9760 C   0  0  0  0  0  0  0  0  0  0  0  0
   -6.5795   22.0859  -20.2243 N   0  0  0  0  0  0  0  0  0  0  0  0
   -6.4985   20.8783  -19.4432 C   0  0  0  0  0  0  0  0  0  0  0  0
   -5.0322   20.6006  -19.2213 C   0  0  0  0  0  0  0  0  0  0  0  0
   -7.5456   22.1800  -21.2509 C   0  0  0  0  0  0  0  0  0  0  0  0
   -8.3393   21.2044  -21.4825 O   0  0  0  0  0  0  0  0  0  0  0  0
   -7.7105   23.3426  -22.0928 C   0  0  0  0  0  0  0  0  0  0  0  0
   -7.1007   23.4994  -23.2519 C   0  0  0  0  0  0  0  0  0  0  0  0
 20 21  1  0  0  0
 21 12  1  0  0  0
 12 13  2  0  0  0
 13 14  1  0  0  0
 14 22  1  0  0  0
 22 23  1  0  0  0
 14 15  2  0  0  0
 15 16  1  0  0  0
 15 17  1  0  0  0
 17 18  2  0  0  0
 18 19  1  0  0  0
 17  1  1  0  0  0
  1  2  2  0  0  0
  2  3  1  0  0  0
  3  4  2  0  0  0
  4  5  1  0  0  0
  5  6  2  0  0  0
  6 24  1  0  0  0
 24 26  1  0  0  0
 26 27  1  0  0  0
 27 28  1  0  0  0
 27 29  1  0  0  0
  6  7  1  0  0  0
  7  8  2  0  0  0
  8  9  1  0  0  0
  9 30  1  0  0  0
 30 31  1  0  0  0
 31 32  1  0  0  0
 32 33  1  0  0  0
 33 34  1  0  0  0
 34 35  1  0  0  0
 35 36  1  0  0  0
 36 37  1  0  0  0
 37 38  1  0  0  0
 36 39  1  0  0  0
 39 40  2  0  0  0
 39 41  1  0  0  0
 41 42  2  0  0  0
  9 10  1  0  0  0
 10 11  2  0  0  0
 18 12  1  0  0  0
 10  1  1  0  0  0
  8  3  1  0  0  0
 38 33  1  0  0  0
 24 25  1  0  0  0
M  END
> <minimizedAffinity>
-7.10042

> <CNNscore>
0.1435802579

> <CNNaffinity>
7.1387696266

> <CNN_VS>
1.0249863863

> <CNNaffinity_variance>
0.2250887603

$$$$
[H]C([H])=C([H])C(=O)N1C([H])([H])C([H])([H])N(C([H])([H])C([H])([H])C([H])([H])n2c(=O)c(-c3c(Cl)c(OC([H])([H])[H])c([H])c(OC([H])([H])[H])c3Cl)c([H])c3c([H])nc(N([H])C([H])([H])C([H])(F)F)nc32)C([H])([H])C1([H])[H]


 42 45  0  0  0  0  0  0  0  0999 V2000
   -2.2368   22.6777  -24.7671 C   0  0  0  0  0  0  0  0  0  0  0  0
   -2.3356   22.1930  -26.0335 C   0  0  0  0  0  0  0  0  0  0  0  0
   -3.2268   22.7831  -26.9077 C   0  0  0  0  0  0  0  0  0  0  0  0
   -3.3392   22.3046  -28.1948 C   0  0  0  0  0  0  0  0  0  0  0  0
   -4.2014   22.8841  -29.0229 N   0  0  0  0  0  0  0  0  0  0  0  0
   -4.9586   23.9176  -28.6346 C   0  0  0  0  0  0  0  0  0  0  0  0
   -4.8611   24.4060  -27.3622 N   0  0  0  0  0  0  0  0  0  0  0  0
   -4.0013   23.8401  -26.5106 C   0  0  0  0  0  0  0  0  0  0  0  0
   -3.9009   24.3199  -25.2506 N   0  0  0  0  0  0  0  0  0  0  0  0
   -3.0355   23.7374  -24.4221 C   0  0  0  0  0  0  0  0  0  0  0  0
   -2.9162   24.1639  -23.2302 O   0  0  0  0  0  0  0  0  0  0  0  0
    0.9428   21.6050  -23.1963 C   0  0  0  0  0  0  0  0  0  0  0  0
    0.4964   21.0186  -22.0314 C   0  0  0  0  0  0  0  0  0  0  0  0
   -0.8481   20.9599  -21.7325 C   0  0  0  0  0  0  0  0  0  0  0  0
   -1.7381   21.5056  -22.6336 C   0  0  0  0  0  0  0  0  0  0  0  0
   -3.4644   21.4493  -22.2861 Cl  0  0  0  0  0  0  0  0  0  0  0  0
   -1.3105   22.0929  -23.7975 C   0  0  0  0  0  0  0  0  0  0  0  0
    0.0513   22.1426  -24.0818 C   0  0  0  0  0  0  0  0  0  0  0  0
    0.6569   22.8744  -25.5415 Cl  0  0  0  0  0  0  0  0  0  0  0  0
    3.1650   20.5975  -22.9568 C   0  0  0  0  0  0  0  0  0  0  0  0
    2.3267   21.6378  -23.4519 O   0  0  0  0  0  0  0  0  0  0  0  0
   -1.2668   20.3632  -20.5522 O   0  0  0  0  0  0  0  0  0  0  0  0
   -0.8031   20.8831  -19.3290 C   0  0  0  0  0  0  0  0  0  0  0  0
   -5.8745   24.5261  -29.5311 N   0  0  0  0  0  0  0  0  0  0  0  0
   -6.6320   23.9332  -29.9795 H   0  0  0  0  0  0  0  0  0  0  0  0
   -5.8399   25.9151  -29.8743 C   0  0  0  0  0  0  0  0  0  0  0  0
   -5.2507   26.2047  -31.2315 C   0  0  0  0  0  0  0  0  0  0  0  0
   -5.9169   25.4723  -32.2114 F   0  0  0  0  0  0  0  0  0  0  0  0
   -3.9265   25.8084  -31.3081 F   0  0  0  0  0  0  0  0  0  0  0  0
   -4.7069   25.4441  -24.7863 C   0  0  0  0  0  0  0  0  0  0  0  0
   -6.0607   24.9129  -24.3763 C   0  0  0  0  0  0  0  0  0  0  0  0
   -6.7447   25.7934  -23.3776 C   0  0  0  0  0  0  0  0  0  0  0  0
   -7.3728   25.1008  -22.2976 N   0  0  0  0  0  0  0  0  0  0  0  0
   -7.0094   23.7404  -22.1578 C   0  0  0  0  0  0  0  0  0  0  0  0
   -6.3380   23.3587  -20.8760 C   0  0  0  0  0  0  0  0  0  0  0  0
   -6.7552   24.0940  -19.7381 N   0  0  0  0  0  0  0  0  0  0  0  0
   -7.7145   25.1618  -19.8582 C   0  0  0  0  0  0  0  0  0  0  0  0
   -7.3805   25.9068  -21.1270 C   0  0  0  0  0  0  0  0  0  0  0  0
   -6.2264   23.7815  -18.4657 C   0  0  0  0  0  0  0  0  0  0  0  0
   -6.5966   24.4387  -17.4331 O   0  0  0  0  0  0  0  0  0  0  0  0
   -5.2596   22.7329  -18.2346 C   0  0  0  0  0  0  0  0  0  0  0  0
   -4.1036   22.9238  -17.6284 C   0  0  0  0  0  0  0  0  0  0  0  0
 20 21  1  0  0  0
 21 12  1  0  0  0
 12 13  2  0  0  0
 13 14  1  0  0  0
 14 22  1  0  0  0
 22 23  1  0  0  0
 14 15  2  0  0  0
 15 16  1  0  0  0
 15 17  1  0  0  0
 17 18  2  0  0  0
 18 19  1  0  0  0
 17  1  1  0  0  0
  1  2  2  0  0  0
  2  3  1  0  0  0
  3  4  2  0  0  0
  4  5  1  0  0  0
  5  6  2  0  0  0
  6 24  1  0  0  0
 24 26  1  0  0  0
 26 27  1  0  0  0
 27 28  1  0  0  0
 27 29  1  0  0  0
  6  7  1  0  0  0
  7  8  2  0  0  0
  8  9  1  0  0  0
  9 30  1  0  0  0
 30 31  1  0  0  0
 31 32  1  0  0  0
 32 33  1  0  0  0
 33 34  1  0  0  0
 34 35  1  0  0  0
 35 36  1  0  0  0
 36 37  1  0  0  0
 37 38  1  0  0  0
 36 39  1  0  0  0
 39 40  2  0  0  0
 39 41  1  0  0  0
 41 42  2  0  0  0
  9 10  1  0  0  0
 10 11  2  0  0  0
 18 12  1  0  0  0
 10  1  1  0  0  0
  8  3  1  0  0  0
 38 33  1  0  0  0
 24 25  1  0  0  0
M  END
> <minimizedAffinity>
-8.45506

> <CNNscore>
0.1184883416

> <CNNaffinity>
7.2299079895

> <CNN_VS>
0.8566598296

> <CNNaffinity_variance>
0.5091127157

$$$$
[H]C([H])=C([H])C(=O)N1C([H])([H])C([H])([H])N(C([H])([H])C([H])([H])C([H])([H])n2c(=O)c(-c3c(Cl)c(OC([H])([H])[H])c([H])c(OC([H])([H])[H])c3Cl)c([H])c3c([H])nc(N([H])C([H])([H])C([H])(F)F)nc32)C([H])([H])C1([H])[H]


 42 45  0  0  0  0  0  0  0  0999 V2000
   -0.7493   21.2594  -22.1180 C   0  0  0  0  0  0  0  0  0  0  0  0
   -0.3083   20.0063  -21.8282 C   0  0  0  0  0  0  0  0  0  0  0  0
    0.0772   19.7158  -20.5345 C   0  0  0  0  0  0  0  0  0  0  0  0
    0.5262   18.4509  -20.2236 C   0  0  0  0  0  0  0  0  0  0  0  0
    0.8929   18.1882  -18.9740 N   0  0  0  0  0  0  0  0  0  0  0  0
    0.8354   19.1220  -18.0163 C   0  0  0  0  0  0  0  0  0  0  0  0
    0.3929   20.3820  -18.3056 N   0  0  0  0  0  0  0  0  0  0  0  0
    0.0184   20.6708  -19.5551 C   0  0  0  0  0  0  0  0  0  0  0  0
   -0.4205   21.9159  -19.8463 N   0  0  0  0  0  0  0  0  0  0  0  0
   -0.7880   22.1769  -21.0999 C   0  0  0  0  0  0  0  0  0  0  0  0
   -1.2055   23.3378  -21.4077 O   0  0  0  0  0  0  0  0  0  0  0  0
   -0.5433   22.2309  -25.6875 C   0  0  0  0  0  0  0  0  0  0  0  0
   -1.8752   22.3181  -26.0319 C   0  0  0  0  0  0  0  0  0  0  0  0
   -2.8680   22.0628  -25.1102 C   0  0  0  0  0  0  0  0  0  0  0  0
   -2.4918   21.7164  -23.8295 C   0  0  0  0  0  0  0  0  0  0  0  0
   -3.7326   21.3829  -22.6239 Cl  0  0  0  0  0  0  0  0  0  0  0  0
   -1.1707   21.6250  -23.4703 C   0  0  0  0  0  0  0  0  0  0  0  0
   -0.1824   21.8866  -24.4151 C   0  0  0  0  0  0  0  0  0  0  0  0
    1.5112   21.7873  -24.0215 Cl  0  0  0  0  0  0  0  0  0  0  0  0
    0.0278   22.8686  -27.9849 C   0  0  0  0  0  0  0  0  0  0  0  0
    0.4297   22.5020  -26.6680 O   0  0  0  0  0  0  0  0  0  0  0  0
   -4.1998   22.1588  -25.4867 O   0  0  0  0  0  0  0  0  0  0  0  0
   -4.7275   23.4278  -25.7916 C   0  0  0  0  0  0  0  0  0  0  0  0
    1.2303   18.8256  -16.6863 N   0  0  0  0  0  0  0  0  0  0  0  0
    1.1559   19.5800  -15.9435 H   0  0  0  0  0  0  0  0  0  0  0  0
    1.7313   17.5492  -16.2765 C   0  0  0  0  0  0  0  0  0  0  0  0
    0.7236   16.6884  -15.5579 C   0  0  0  0  0  0  0  0  0  0  0  0
   -0.4608   16.6228  -16.2881 F   0  0  0  0  0  0  0  0  0  0  0  0
    0.3742   17.2272  -14.3315 F   0  0  0  0  0  0  0  0  0  0  0  0
   -0.4992   22.9632  -18.8333 C   0  0  0  0  0  0  0  0  0  0  0  0
   -1.9443   23.1039  -18.4154 C   0  0  0  0  0  0  0  0  0  0  0  0
   -2.3736   22.0320  -17.4627 C   0  0  0  0  0  0  0  0  0  0  0  0
   -3.7843   21.9421  -17.2566 N   0  0  0  0  0  0  0  0  0  0  0  0
   -4.5388   23.0334  -17.7485 C   0  0  0  0  0  0  0  0  0  0  0  0
   -5.5443   22.7223  -18.8123 C   0  0  0  0  0  0  0  0  0  0  0  0
   -6.1442   21.4416  -18.7147 N   0  0  0  0  0  0  0  0  0  0  0  0
   -5.7459   20.5144  -17.6869 C   0  0  0  0  0  0  0  0  0  0  0  0
   -4.2477   20.6313  -17.5516 C   0  0  0  0  0  0  0  0  0  0  0  0
   -7.1466   21.0622  -19.6353 C   0  0  0  0  0  0  0  0  0  0  0  0
   -7.6942   19.9093  -19.5554 O   0  0  0  0  0  0  0  0  0  0  0  0
   -7.6183   21.9134  -20.7034 C   0  0  0  0  0  0  0  0  0  0  0  0
   -7.2998   21.7408  -21.9717 C   0  0  0  0  0  0  0  0  0  0  0  0
 20 21  1  0  0  0
 21 12  1  0  0  0
 12 13  2  0  0  0
 13 14  1  0  0  0
 14 22  1  0  0  0
 22 23  1  0  0  0
 14 15  2  0  0  0
 15 16  1  0  0  0
 15 17  1  0  0  0
 17 18  2  0  0  0
 18 19  1  0  0  0
 17  1  1  0  0  0
  1  2  2  0  0  0
  2  3  1  0  0  0
  3  4  2  0  0  0
  4  5  1  0  0  0
  5  6  2  0  0  0
  6 24  1  0  0  0
 24 26  1  0  0  0
 26 27  1  0  0  0
 27 28  1  0  0  0
 27 29  1  0  0  0
  6  7  1  0  0  0
  7  8  2  0  0  0
  8  9  1  0  0  0
  9 30  1  0  0  0
 30 31  1  0  0  0
 31 32  1  0  0  0
 32 33  1  0  0  0
 33 34  1  0  0  0
 34 35  1  0  0  0
 35 36  1  0  0  0
 36 37  1  0  0  0
 37 38  1  0  0  0
 36 39  1  0  0  0
 39 40  2  0  0  0
 39 41  1  0  0  0
 41 42  2  0  0  0
  9 10  1  0  0  0
 10 11  2  0  0  0
 18 12  1  0  0  0
 10  1  1  0  0  0
  8  3  1  0  0  0
 38 33  1  0  0  0
 24 25  1  0  0  0
M  END
> <minimizedAffinity>
-6.29779

> <CNNscore>
0.1022022665

> <CNNaffinity>
6.4240965843

> <CNN_VS>
0.6565572023

> <CNNaffinity_variance>
0.3232440054

$$$$
[H]C([H])=C([H])C(=O)N1C([H])([H])C([H])([H])N(C([H])([H])C([H])([H])C([H])([H])n2c(=O)c(-c3c(Cl)c(OC([H])([H])[H])c([H])c(OC([H])([H])[H])c3Cl)c([H])c3c([H])nc(N([H])C([H])([H])C([H])(F)F)nc32)C([H])([H])C1([H])[H]


 42 45  0  0  0  0  0  0  0  0999 V2000
   -2.1223   22.7118  -24.3507 C   0  0  0  0  0  0  0  0  0  0  0  0
   -0.7931   22.6100  -24.6180 C   0  0  0  0  0  0  0  0  0  0  0  0
    0.0248   21.9702  -23.7077 C   0  0  0  0  0  0  0  0  0  0  0  0
    1.3740   21.8579  -23.9632 C   0  0  0  0  0  0  0  0  0  0  0  0
    2.1465   21.2391  -23.0770 N   0  0  0  0  0  0  0  0  0  0  0  0
    1.6436   20.7254  -21.9475 C   0  0  0  0  0  0  0  0  0  0  0  0
    0.3081   20.8271  -21.6769 N   0  0  0  0  0  0  0  0  0  0  0  0
   -0.4895   21.4449  -22.5526 C   0  0  0  0  0  0  0  0  0  0  0  0
   -1.8116   21.5477  -22.2896 N   0  0  0  0  0  0  0  0  0  0  0  0
   -2.5843   22.1684  -23.1798 C   0  0  0  0  0  0  0  0  0  0  0  0
   -3.8321   22.2826  -22.9633 O   0  0  0  0  0  0  0  0  0  0  0  0
   -4.4966   25.2119  -25.7073 C   0  0  0  0  0  0  0  0  0  0  0  0
   -4.7666   24.6939  -26.9559 C   0  0  0  0  0  0  0  0  0  0  0  0
   -4.1820   23.5206  -27.3825 C   0  0  0  0  0  0  0  0  0  0  0  0
   -3.3165   22.8764  -26.5236 C   0  0  0  0  0  0  0  0  0  0  0  0
   -2.5502   21.3742  -27.0337 Cl  0  0  0  0  0  0  0  0  0  0  0  0
   -3.0369   23.3785  -25.2776 C   0  0  0  0  0  0  0  0  0  0  0  0
   -3.6370   24.5647  -24.8647 C   0  0  0  0  0  0  0  0  0  0  0  0
   -3.3229   25.2531  -23.2961 Cl  0  0  0  0  0  0  0  0  0  0  0  0
   -6.4491   26.3899  -24.8067 C   0  0  0  0  0  0  0  0  0  0  0  0
   -5.1210   26.4134  -25.3221 O   0  0  0  0  0  0  0  0  0  0  0  0
   -4.4734   23.0240  -28.6447 O   0  0  0  0  0  0  0  0  0  0  0  0
   -5.6108   23.5095  -29.3173 C   0  0  0  0  0  0  0  0  0  0  0  0
    2.4818   20.0671  -21.0112 N   0  0  0  0  0  0  0  0  0  0  0  0
    3.0671   20.6471  -20.3424 H   0  0  0  0  0  0  0  0  0  0  0  0
    2.5887   18.6434  -20.9104 C   0  0  0  0  0  0  0  0  0  0  0  0
    3.4013   18.0028  -22.0068 C   0  0  0  0  0  0  0  0  0  0  0  0
    3.0617   16.6578  -22.1341 F   0  0  0  0  0  0  0  0  0  0  0  0
    4.7544   18.0178  -21.7146 F   0  0  0  0  0  0  0  0  0  0  0  0
   -2.4010   21.0023  -21.0713 C   0  0  0  0  0  0  0  0  0  0  0  0
   -2.5783   22.1356  -20.0880 C   0  0  0  0  0  0  0  0  0  0  0  0
   -2.9860   21.6583  -18.7291 C   0  0  0  0  0  0  0  0  0  0  0  0
   -4.3931   21.6773  -18.4834 N   0  0  0  0  0  0  0  0  0  0  0  0
   -4.9862   22.9618  -18.4595 C   0  0  0  0  0  0  0  0  0  0  0  0
   -6.0350   23.2305  -19.4926 C   0  0  0  0  0  0  0  0  0  0  0  0
   -6.8128   22.1053  -19.8647 N   0  0  0  0  0  0  0  0  0  0  0  0
   -6.5439   20.8037  -19.3093 C   0  0  0  0  0  0  0  0  0  0  0  0
   -5.0435   20.6626  -19.2367 C   0  0  0  0  0  0  0  0  0  0  0  0
   -7.8672   22.2548  -20.7932 C   0  0  0  0  0  0  0  0  0  0  0  0
   -8.5749   21.2460  -21.1350 O   0  0  0  0  0  0  0  0  0  0  0  0
   -8.2199   23.5127  -21.4104 C   0  0  0  0  0  0  0  0  0  0  0  0
   -7.7571   23.9092  -22.5803 C   0  0  0  0  0  0  0  0  0  0  0  0
 20 21  1  0  0  0
 21 12  1  0  0  0
 12 13  2  0  0  0
 13 14  1  0  0  0
 14 22  1  0  0  0
 22 23  1  0  0  0
 14 15  2  0  0  0
 15 16  1  0  0  0
 15 17  1  0  0  0
 17 18  2  0  0  0
 18 19  1  0  0  0
 17  1  1  0  0  0
  1  2  2  0  0  0
  2  3  1  0  0  0
  3  4  2  0  0  0
  4  5  1  0  0  0
  5  6  2  0  0  0
  6 24  1  0  0  0
 24 26  1  0  0  0
 26 27  1  0  0  0
 27 28  1  0  0  0
 27 29  1  0  0  0
  6  7  1  0  0  0
  7  8  2  0  0  0
  8  9  1  0  0  0
  9 30  1  0  0  0
 30 31  1  0  0  0
 31 32  1  0  0  0
 32 33  1  0  0  0
 33 34  1  0  0  0
 34 35  1  0  0  0
 35 36  1  0  0  0
 36 37  1  0  0  0
 37 38  1  0  0  0
 36 39  1  0  0  0
 39 40  2  0  0  0
 39 41  1  0  0  0
 41 42  2  0  0  0
  9 10  1  0  0  0
 10 11  2  0  0  0
 18 12  1  0  0  0
 10  1  1  0  0  0
  8  3  1  0  0  0
 38 33  1  0  0  0
 24 25  1  0  0  0
M  END
> <minimizedAffinity>
-6.84315

> <CNNscore>
0.0987509489

> <CNNaffinity>
6.9189109802

> <CNN_VS>
0.6832489967

> <CNNaffinity_variance>
0.2773077190

$$$$
[H]/C(C(=O)N1C([H])([H])C([H])([H])[C@]([H])(n2c([H])c(C#Cc3c([H])c(OC([H])([H])[H])c([H])c(OC([H])([H])[H])c3[H])c3c(N([H])[H])nc([H])nc32)C1([H])[H])=C(/[H])C([H])([H])N1C([H])([H])C([H])([H])C([H])([H])C1([H])[H]


 39 43  0  0  0  0  0  0  0  0999 V2000
   -1.2451   21.9755  -23.7928 C   0  0  0  0  0  0  0  0  0  0  0  0
   -2.4760   22.1455  -23.2165 C   0  0  0  0  0  0  0  0  0  0  0  0
   -3.3235   22.5370  -24.2011 N   0  0  0  0  0  0  0  0  0  0  0  0
   -2.6443   22.6111  -25.3649 C   0  0  0  0  0  0  0  0  0  0  0  0
   -3.0001   22.9449  -26.6311 N   0  0  0  0  0  0  0  0  0  0  0  0
   -2.1287   22.9466  -27.6537 C   0  0  0  0  0  0  0  0  0  0  0  0
   -0.8618   22.6028  -27.3974 N   0  0  0  0  0  0  0  0  0  0  0  0
   -0.4340   22.2605  -26.1722 C   0  0  0  0  0  0  0  0  0  0  0  0
    0.9056   21.8963  -25.9002 N   0  0  0  0  0  0  0  0  0  0  0  0
   -1.3444   22.2645  -25.1332 C   0  0  0  0  0  0  0  0  0  0  0  0
    1.1790   20.8894  -25.7755 H   0  0  0  0  0  0  0  0  0  0  0  0
    1.6217   22.6468  -25.8253 H   0  0  0  0  0  0  0  0  0  0  0  0
   -4.7156   22.8363  -24.0855 C   0  0  0  0  0  0  0  0  0  0  0  0
   -5.4148   22.0193  -23.0138 C   0  0  0  0  0  0  0  0  0  0  0  0
   -6.7368   22.8062  -22.9059 C   0  0  0  0  0  0  0  0  0  0  0  0
   -6.4551   24.1423  -23.3419 N   0  0  0  0  0  0  0  0  0  0  0  0
   -4.9858   24.2407  -23.5572 C   0  0  0  0  0  0  0  0  0  0  0  0
   -7.3100   25.2327  -23.5592 C   0  0  0  0  0  0  0  0  0  0  0  0
   -6.7572   26.3445  -23.9722 O   0  0  0  0  0  0  0  0  0  0  0  0
   -8.7339   25.3349  -23.3996 C   0  0  0  0  0  0  0  0  0  0  0  0
   -9.4180   25.7180  -22.3417 C   0  0  0  0  0  0  0  0  0  0  0  0
  -10.9005   25.7382  -22.4248 C   0  0  0  0  0  0  0  0  0  0  0  0
  -11.5365   26.8704  -21.8769 N   0  0  0  0  0  0  0  0  0  0  0  0
  -11.1186   27.2432  -20.5708 C   0  0  0  0  0  0  0  0  0  0  0  0
  -10.7675   28.7084  -20.6507 C   0  0  0  0  0  0  0  0  0  0  0  0
  -11.7251   29.2144  -21.7066 C   0  0  0  0  0  0  0  0  0  0  0  0
  -11.6767   28.0262  -22.6841 C   0  0  0  0  0  0  0  0  0  0  0  0
    0.9827   21.2169  -22.6111 C   0  0  0  0  0  0  0  0  0  0  0  0
   -0.0319   21.5695  -23.1608 C   0  0  0  0  0  0  0  0  0  0  0  0
    4.1795   19.5384  -21.9234 C   0  0  0  0  0  0  0  0  0  0  0  0
    4.4094   20.0140  -20.6399 C   0  0  0  0  0  0  0  0  0  0  0  0
    3.5432   20.8715  -19.9937 C   0  0  0  0  0  0  0  0  0  0  0  0
    2.4193   21.2538  -20.6667 C   0  0  0  0  0  0  0  0  0  0  0  0
    2.1645   20.7949  -21.9481 C   0  0  0  0  0  0  0  0  0  0  0  0
    3.0318   19.9445  -22.5780 C   0  0  0  0  0  0  0  0  0  0  0  0
    6.4086   18.6273  -22.0803 C   0  0  0  0  0  0  0  0  0  0  0  0
    5.0699   18.6855  -22.5280 O   0  0  0  0  0  0  0  0  0  0  0  0
    3.8127   21.3191  -18.7169 O   0  0  0  0  0  0  0  0  0  0  0  0
    3.6953   22.6880  -18.4048 C   0  0  0  0  0  0  0  0  0  0  0  0
 36 37  1  0  0  0
 37 30  1  0  0  0
 30 31  2  0  0  0
 31 32  1  0  0  0
 32 38  1  0  0  0
 38 39  1  0  0  0
 32 33  2  0  0  0
 33 34  1  0  0  0
 34 35  2  0  0  0
 34 28  1  0  0  0
 28 29  3  0  0  0
 29  1  1  0  0  0
  1  2  2  0  0  0
  2  3  1  0  0  0
  3 13  1  0  0  0
 13 14  1  0  0  0
 14 15  1  0  0  0
 15 16  1  0  0  0
 16 17  1  0  0  0
 16 18  1  0  0  0
 18 19  2  0  0  0
 18 20  1  0  0  0
 20 21  2  0  0  0
 21 22  1  0  0  0
 22 23  1  0  0  0
 23 24  1  0  0  0
 24 25  1  0  0  0
 25 26  1  0  0  0
 26 27  1  0  0  0
  3  4  1  0  0  0
  4  5  2  0  0  0
  5  6  1  0  0  0
  6  7  2  0  0  0
  7  8  1  0  0  0
  8  9  1  0  0  0
  8 10  2  0  0  0
 35 30  1  0  0  0
 10  1  1  0  0  0
 17 13  1  0  0  0
 27 23  1  0  0  0
 10  4  1  0  0  0
  9 11  1  0  0  0
  9 12  1  0  0  0
M  END
> <minimizedAffinity>
-8.59948

> <CNNscore>
0.4465769827

> <CNNaffinity>
7.0340738297

> <CNN_VS>
3.1412553787

> <CNNaffinity_variance>
0.1998619139

$$$$
[H]/C(C(=O)N1C([H])([H])C([H])([H])[C@]([H])(n2c([H])c(C#Cc3c([H])c(OC([H])([H])[H])c([H])c(OC([H])([H])[H])c3[H])c3c(N([H])[H])nc([H])nc32)C1([H])[H])=C(/[H])C([H])([H])N1C([H])([H])C([H])([H])C([H])([H])C1([H])[H]


 39 43  0  0  0  0  0  0  0  0999 V2000
   -1.2769   21.9363  -23.7460 C   0  0  0  0  0  0  0  0  0  0  0  0
   -2.5097   22.1085  -23.1742 C   0  0  0  0  0  0  0  0  0  0  0  0
   -3.3518   22.5061  -24.1610 N   0  0  0  0  0  0  0  0  0  0  0  0
   -2.6674   22.5817  -25.3218 C   0  0  0  0  0  0  0  0  0  0  0  0
   -3.0168   22.9208  -26.5883 N   0  0  0  0  0  0  0  0  0  0  0  0
   -2.1412   22.9230  -27.6073 C   0  0  0  0  0  0  0  0  0  0  0  0
   -0.8766   22.5742  -27.3469 N   0  0  0  0  0  0  0  0  0  0  0  0
   -0.4549   22.2264  -26.1211 C   0  0  0  0  0  0  0  0  0  0  0  0
    0.8823   21.8569  -25.8447 N   0  0  0  0  0  0  0  0  0  0  0  0
   -1.3697   22.2300  -25.0858 C   0  0  0  0  0  0  0  0  0  0  0  0
    1.1518   20.8487  -25.7222 H   0  0  0  0  0  0  0  0  0  0  0  0
    1.6005   22.6048  -25.7643 H   0  0  0  0  0  0  0  0  0  0  0  0
   -4.7433   22.8096  -24.0502 C   0  0  0  0  0  0  0  0  0  0  0  0
   -5.4472   21.9998  -22.9761 C   0  0  0  0  0  0  0  0  0  0  0  0
   -6.7673   22.7906  -22.8753 C   0  0  0  0  0  0  0  0  0  0  0  0
   -6.4811   24.1238  -23.3172 N   0  0  0  0  0  0  0  0  0  0  0  0
   -5.0110   24.2173  -23.5295 C   0  0  0  0  0  0  0  0  0  0  0  0
   -7.3326   25.2154  -23.5420 C   0  0  0  0  0  0  0  0  0  0  0  0
   -6.7759   26.3236  -23.9591 O   0  0  0  0  0  0  0  0  0  0  0  0
   -8.7566   25.3221  -23.3863 C   0  0  0  0  0  0  0  0  0  0  0  0
   -9.4421   25.7149  -22.3328 C   0  0  0  0  0  0  0  0  0  0  0  0
  -10.9243   25.7380  -22.4192 C   0  0  0  0  0  0  0  0  0  0  0  0
  -11.5589   26.8761  -21.8821 N   0  0  0  0  0  0  0  0  0  0  0  0
  -11.1387   27.2622  -20.5806 C   0  0  0  0  0  0  0  0  0  0  0  0
  -10.7868   28.7263  -20.6763 C   0  0  0  0  0  0  0  0  0  0  0  0
  -11.7458   29.2219  -21.7359 C   0  0  0  0  0  0  0  0  0  0  0  0
  -11.6996   28.0236  -22.7011 C   0  0  0  0  0  0  0  0  0  0  0  0
    0.9472   21.1827  -22.5542 C   0  0  0  0  0  0  0  0  0  0  0  0
   -0.0677   21.5242  -23.1103 C   0  0  0  0  0  0  0  0  0  0  0  0
    3.5180   20.8193  -19.9525 C   0  0  0  0  0  0  0  0  0  0  0  0
    4.4182   20.0165  -20.6393 C   0  0  0  0  0  0  0  0  0  0  0  0
    4.2040   19.5906  -21.9339 C   0  0  0  0  0  0  0  0  0  0  0  0
    3.0500   19.9893  -22.5433 C   0  0  0  0  0  0  0  0  0  0  0  0
    2.1341   20.7902  -21.8822 C   0  0  0  0  0  0  0  0  0  0  0  0
    2.3585   21.2059  -20.5980 C   0  0  0  0  0  0  0  0  0  0  0  0
    3.7367   22.5918  -18.3296 C   0  0  0  0  0  0  0  0  0  0  0  0
    3.7729   21.2196  -18.6639 O   0  0  0  0  0  0  0  0  0  0  0  0
    5.1272   18.7929  -22.5777 O   0  0  0  0  0  0  0  0  0  0  0  0
    5.9366   17.9064  -21.8399 C   0  0  0  0  0  0  0  0  0  0  0  0
 36 37  1  0  0  0
 37 30  1  0  0  0
 30 31  2  0  0  0
 31 32  1  0  0  0
 32 38  1  0  0  0
 38 39  1  0  0  0
 32 33  2  0  0  0
 33 34  1  0  0  0
 34 35  2  0  0  0
 34 28  1  0  0  0
 28 29  3  0  0  0
 29  1  1  0  0  0
  1  2  2  0  0  0
  2  3  1  0  0  0
  3 13  1  0  0  0
 13 14  1  0  0  0
 14 15  1  0  0  0
 15 16  1  0  0  0
 16 17  1  0  0  0
 16 18  1  0  0  0
 18 19  2  0  0  0
 18 20  1  0  0  0
 20 21  2  0  0  0
 21 22  1  0  0  0
 22 23  1  0  0  0
 23 24  1  0  0  0
 24 25  1  0  0  0
 25 26  1  0  0  0
 26 27  1  0  0  0
  3  4  1  0  0  0
  4  5  2  0  0  0
  5  6  1  0  0  0
  6  7  2  0  0  0
  7  8  1  0  0  0
  8  9  1  0  0  0
  8 10  2  0  0  0
 35 30  1  0  0  0
 10  1  1  0  0  0
 17 13  1  0  0  0
 27 23  1  0  0  0
 10  4  1  0  0  0
  9 11  1  0  0  0
  9 12  1  0  0  0
M  END
> <minimizedAffinity>
-8.55358

> <CNNscore>
0.4240040481

> <CNNaffinity>
7.0095925331

> <CNN_VS>
2.9720957279

> <CNNaffinity_variance>
0.2155770510

$$$$
[H]/C(C(=O)N1C([H])([H])C([H])([H])[C@]([H])(n2c([H])c(C#Cc3c([H])c(OC([H])([H])[H])c([H])c(OC([H])([H])[H])c3[H])c3c(N([H])[H])nc([H])nc32)C1([H])[H])=C(/[H])C([H])([H])N1C([H])([H])C([H])([H])C([H])([H])C1([H])[H]


 39 43  0  0  0  0  0  0  0  0999 V2000
   -1.3924   22.1192  -22.9436 C   0  0  0  0  0  0  0  0  0  0  0  0
   -1.7268   22.0296  -21.6184 C   0  0  0  0  0  0  0  0  0  0  0  0
   -0.6269   21.5820  -20.9619 N   0  0  0  0  0  0  0  0  0  0  0  0
    0.3720   21.3953  -21.8500 C   0  0  0  0  0  0  0  0  0  0  0  0
    1.6549   20.9692  -21.7325 N   0  0  0  0  0  0  0  0  0  0  0  0
    2.4834   20.8609  -22.7847 C   0  0  0  0  0  0  0  0  0  0  0  0
    2.0096   21.1903  -23.9912 N   0  0  0  0  0  0  0  0  0  0  0  0
    0.7532   21.6198  -24.1876 C   0  0  0  0  0  0  0  0  0  0  0  0
    0.2513   21.9689  -25.4633 N   0  0  0  0  0  0  0  0  0  0  0  0
   -0.0841   21.7247  -23.0938 C   0  0  0  0  0  0  0  0  0  0  0  0
    0.1508   22.9750  -25.7495 H   0  0  0  0  0  0  0  0  0  0  0  0
   -0.0186   21.2081  -26.1190 H   0  0  0  0  0  0  0  0  0  0  0  0
   -0.4888   21.3305  -19.5625 C   0  0  0  0  0  0  0  0  0  0  0  0
    0.3553   22.3716  -18.8494 C   0  0  0  0  0  0  0  0  0  0  0  0
    0.0140   22.0270  -17.3854 C   0  0  0  0  0  0  0  0  0  0  0  0
   -1.2726   21.3953  -17.4024 N   0  0  0  0  0  0  0  0  0  0  0  0
   -1.7956   21.4861  -18.7927 C   0  0  0  0  0  0  0  0  0  0  0  0
   -2.0020   20.7782  -16.3756 C   0  0  0  0  0  0  0  0  0  0  0  0
   -3.1653   20.2733  -16.6978 O   0  0  0  0  0  0  0  0  0  0  0  0
   -1.6744   20.6026  -14.9882 C   0  0  0  0  0  0  0  0  0  0  0  0
   -1.5955   21.5126  -14.0396 C   0  0  0  0  0  0  0  0  0  0  0  0
   -1.2332   21.0769  -12.6670 C   0  0  0  0  0  0  0  0  0  0  0  0
   -2.2274   21.2420  -11.6817 N   0  0  0  0  0  0  0  0  0  0  0  0
   -2.7554   22.5548  -11.5495 C   0  0  0  0  0  0  0  0  0  0  0  0
   -4.2551   22.4078  -11.6256 C   0  0  0  0  0  0  0  0  0  0  0  0
   -4.4790   21.0441  -11.0107 C   0  0  0  0  0  0  0  0  0  0  0  0
   -3.2774   20.2934  -11.6125 C   0  0  0  0  0  0  0  0  0  0  0  0
   -2.9339   22.8982  -24.9317 C   0  0  0  0  0  0  0  0  0  0  0  0
   -2.2184   22.5427  -24.0274 C   0  0  0  0  0  0  0  0  0  0  0  0
   -5.9720   23.7704  -26.8076 C   0  0  0  0  0  0  0  0  0  0  0  0
   -5.3942   24.1046  -28.0245 C   0  0  0  0  0  0  0  0  0  0  0  0
   -4.0336   24.0516  -28.2462 C   0  0  0  0  0  0  0  0  0  0  0  0
   -3.2434   23.6505  -27.2085 C   0  0  0  0  0  0  0  0  0  0  0  0
   -3.7926   23.3113  -25.9835 C   0  0  0  0  0  0  0  0  0  0  0  0
   -5.1440   23.3680  -25.7765 C   0  0  0  0  0  0  0  0  0  0  0  0
   -7.8756   24.6762  -25.6332 C   0  0  0  0  0  0  0  0  0  0  0  0
   -7.3323   23.8378  -26.6321 O   0  0  0  0  0  0  0  0  0  0  0  0
   -3.5032   24.3933  -29.4731 O   0  0  0  0  0  0  0  0  0  0  0  0
   -3.7404   25.6707  -30.0182 C   0  0  0  0  0  0  0  0  0  0  0  0
 36 37  1  0  0  0
 37 30  1  0  0  0
 30 31  2  0  0  0
 31 32  1  0  0  0
 32 38  1  0  0  0
 38 39  1  0  0  0
 32 33  2  0  0  0
 33 34  1  0  0  0
 34 35  2  0  0  0
 34 28  1  0  0  0
 28 29  3  0  0  0
 29  1  1  0  0  0
  1  2  2  0  0  0
  2  3  1  0  0  0
  3 13  1  0  0  0
 13 14  1  0  0  0
 14 15  1  0  0  0
 15 16  1  0  0  0
 16 17  1  0  0  0
 16 18  1  0  0  0
 18 19  2  0  0  0
 18 20  1  0  0  0
 20 21  2  0  0  0
 21 22  1  0  0  0
 22 23  1  0  0  0
 23 24  1  0  0  0
 24 25  1  0  0  0
 25 26  1  0  0  0
 26 27  1  0  0  0
  3  4  1  0  0  0
  4  5  2  0  0  0
  5  6  1  0  0  0
  6  7  2  0  0  0
  7  8  1  0  0  0
  8  9  1  0  0  0
  8 10  2  0  0  0
 35 30  1  0  0  0
 10  1  1  0  0  0
 17 13  1  0  0  0
 27 23  1  0  0  0
 10  4  1  0  0  0
  9 11  1  0  0  0
  9 12  1  0  0  0
M  END
> <minimizedAffinity>
-6.79712

> <CNNscore>
0.2623104453

> <CNNaffinity>
6.6108598709

> <CNN_VS>
1.7340976000

> <CNNaffinity_variance>
0.3922770023

$$$$
[H]/C(C(=O)N1C([H])([H])C([H])([H])[C@]([H])(n2c([H])c(C#Cc3c([H])c(OC([H])([H])[H])c([H])c(OC([H])([H])[H])c3[H])c3c(N([H])[H])nc([H])nc32)C1([H])[H])=C(/[H])C([H])([H])N1C([H])([H])C([H])([H])C([H])([H])C1([H])[H]


 39 43  0  0  0  0  0  0  0  0999 V2000
   -0.7689   21.7778  -22.4980 C   0  0  0  0  0  0  0  0  0  0  0  0
   -1.0426   21.5659  -21.1727 C   0  0  0  0  0  0  0  0  0  0  0  0
    0.0983   21.1045  -20.6015 N   0  0  0  0  0  0  0  0  0  0  0  0
    1.0634   21.0283  -21.5418 C   0  0  0  0  0  0  0  0  0  0  0  0
    2.3632   20.6397  -21.5128 N   0  0  0  0  0  0  0  0  0  0  0  0
    3.1485   20.6493  -22.6029 C   0  0  0  0  0  0  0  0  0  0  0  0
    2.6128   21.0614  -23.7569 N   0  0  0  0  0  0  0  0  0  0  0  0
    1.3360   21.4607  -23.8654 C   0  0  0  0  0  0  0  0  0  0  0  0
    0.7686   21.8972  -25.0855 N   0  0  0  0  0  0  0  0  0  0  0  0
    0.5438   21.4441  -22.7337 C   0  0  0  0  0  0  0  0  0  0  0  0
    0.6236   22.9195  -25.2809 H   0  0  0  0  0  0  0  0  0  0  0  0
    0.4951   21.1848  -25.7921 H   0  0  0  0  0  0  0  0  0  0  0  0
    0.3047   20.7419  -19.2353 C   0  0  0  0  0  0  0  0  0  0  0  0
    0.7788   21.9000  -18.3755 C   0  0  0  0  0  0  0  0  0  0  0  0
    0.5588   21.2930  -16.9749 C   0  0  0  0  0  0  0  0  0  0  0  0
   -0.4654   20.3000  -17.1149 N   0  0  0  0  0  0  0  0  0  0  0  0
   -0.9871   20.3904  -18.5057 C   0  0  0  0  0  0  0  0  0  0  0  0
   -0.9676   19.3682  -16.1947 C   0  0  0  0  0  0  0  0  0  0  0  0
   -1.9136   18.5697  -16.6183 O   0  0  0  0  0  0  0  0  0  0  0  0
   -0.6050   19.1375  -14.8241 C   0  0  0  0  0  0  0  0  0  0  0  0
    0.5300   18.6785  -14.3392 C   0  0  0  0  0  0  0  0  0  0  0  0
    0.6627   18.5257  -12.8681 C   0  0  0  0  0  0  0  0  0  0  0  0
    0.6016   17.2072  -12.3740 N   0  0  0  0  0  0  0  0  0  0  0  0
   -0.6644   16.7891  -11.8819 C   0  0  0  0  0  0  0  0  0  0  0  0
   -0.9701   15.4864  -12.5792 C   0  0  0  0  0  0  0  0  0  0  0  0
    0.4069   14.8918  -12.7743 C   0  0  0  0  0  0  0  0  0  0  0  0
    1.1856   16.1683  -13.1401 C   0  0  0  0  0  0  0  0  0  0  0  0
   -2.4189   22.6646  -24.3490 C   0  0  0  0  0  0  0  0  0  0  0  0
   -1.6540   22.2607  -23.5077 C   0  0  0  0  0  0  0  0  0  0  0  0
   -5.2522   24.4040  -25.9163 C   0  0  0  0  0  0  0  0  0  0  0  0
   -5.0622   24.0001  -27.2305 C   0  0  0  0  0  0  0  0  0  0  0  0
   -4.0285   23.1720  -27.6166 C   0  0  0  0  0  0  0  0  0  0  0  0
   -3.1696   22.7455  -26.6459 C   0  0  0  0  0  0  0  0  0  0  0  0
   -3.3350   23.1326  -25.3267 C   0  0  0  0  0  0  0  0  0  0  0  0
   -4.3646   23.9544  -24.9568 C   0  0  0  0  0  0  0  0  0  0  0  0
   -7.6228   24.7467  -25.6225 C   0  0  0  0  0  0  0  0  0  0  0  0
   -6.2959   25.2296  -25.5775 O   0  0  0  0  0  0  0  0  0  0  0  0
   -3.8785   22.7962  -28.9355 O   0  0  0  0  0  0  0  0  0  0  0  0
   -4.9970   22.7450  -29.7908 C   0  0  0  0  0  0  0  0  0  0  0  0
 36 37  1  0  0  0
 37 30  1  0  0  0
 30 31  2  0  0  0
 31 32  1  0  0  0
 32 38  1  0  0  0
 38 39  1  0  0  0
 32 33  2  0  0  0
 33 34  1  0  0  0
 34 35  2  0  0  0
 34 28  1  0  0  0
 28 29  3  0  0  0
 29  1  1  0  0  0
  1  2  2  0  0  0
  2  3  1  0  0  0
  3 13  1  0  0  0
 13 14  1  0  0  0
 14 15  1  0  0  0
 15 16  1  0  0  0
 16 17  1  0  0  0
 16 18  1  0  0  0
 18 19  2  0  0  0
 18 20  1  0  0  0
 20 21  2  0  0  0
 21 22  1  0  0  0
 22 23  1  0  0  0
 23 24  1  0  0  0
 24 25  1  0  0  0
 25 26  1  0  0  0
 26 27  1  0  0  0
  3  4  1  0  0  0
  4  5  2  0  0  0
  5  6  1  0  0  0
  6  7  2  0  0  0
  7  8  1  0  0  0
  8  9  1  0  0  0
  8 10  2  0  0  0
 35 30  1  0  0  0
 10  1  1  0  0  0
 17 13  1  0  0  0
 27 23  1  0  0  0
 10  4  1  0  0  0
  9 11  1  0  0  0
  9 12  1  0  0  0
M  END
> <minimizedAffinity>
-6.21076

> <CNNscore>
0.2444910407

> <CNNaffinity>
6.3331823349

> <CNN_VS>
1.5484063625

> <CNNaffinity_variance>
0.3271849751

$$$$
[H]/C(C(=O)N1C([H])([H])C([H])([H])[C@]([H])(n2c([H])c(C#Cc3c([H])c(OC([H])([H])[H])c([H])c(OC([H])([H])[H])c3[H])c3c(N([H])[H])nc([H])nc32)C1([H])[H])=C(/[H])C([H])([H])N1C([H])([H])C([H])([H])C([H])([H])C1([H])[H]


 39 43  0  0  0  0  0  0  0  0999 V2000
   -0.4100   21.8784  -22.4554 C   0  0  0  0  0  0  0  0  0  0  0  0
   -0.6222   21.9208  -21.1028 C   0  0  0  0  0  0  0  0  0  0  0  0
    0.5268   21.5113  -20.5087 N   0  0  0  0  0  0  0  0  0  0  0  0
    1.4369   21.2194  -21.4615 C   0  0  0  0  0  0  0  0  0  0  0  0
    2.7189   20.7767  -21.4203 N   0  0  0  0  0  0  0  0  0  0  0  0
    3.4454   20.5515  -22.5278 C   0  0  0  0  0  0  0  0  0  0  0  0
    2.8674   20.7775  -23.7125 N   0  0  0  0  0  0  0  0  0  0  0  0
    1.6046   21.2156  -23.8347 C   0  0  0  0  0  0  0  0  0  0  0  0
    0.9925   21.4554  -25.0873 N   0  0  0  0  0  0  0  0  0  0  0  0
    0.8731   21.4416  -22.6848 C   0  0  0  0  0  0  0  0  0  0  0  0
    0.8806   22.4324  -25.4578 H   0  0  0  0  0  0  0  0  0  0  0  0
    0.6525   20.6431  -25.6406 H   0  0  0  0  0  0  0  0  0  0  0  0
    0.7895   21.3885  -19.1099 C   0  0  0  0  0  0  0  0  0  0  0  0
    1.7025   22.4778  -18.5762 C   0  0  0  0  0  0  0  0  0  0  0  0
    1.4929   22.2759  -17.0617 C   0  0  0  0  0  0  0  0  0  0  0  0
    0.2054   21.6659  -16.9039 N   0  0  0  0  0  0  0  0  0  0  0  0
   -0.4409   21.6356  -18.2441 C   0  0  0  0  0  0  0  0  0  0  0  0
   -0.4323   21.1583  -15.7625 C   0  0  0  0  0  0  0  0  0  0  0  0
   -1.6238   20.6443  -15.9303 O   0  0  0  0  0  0  0  0  0  0  0  0
    0.0185   21.1070  -14.3997 C   0  0  0  0  0  0  0  0  0  0  0  0
    0.1384   22.0928  -13.5349 C   0  0  0  0  0  0  0  0  0  0  0  0
    0.6336   21.7826  -12.1697 C   0  0  0  0  0  0  0  0  0  0  0  0
    1.6497   22.6235  -11.6730 N   0  0  0  0  0  0  0  0  0  0  0  0
    2.1581   23.5858  -12.5869 C   0  0  0  0  0  0  0  0  0  0  0  0
    2.0806   24.9141  -11.8756 C   0  0  0  0  0  0  0  0  0  0  0  0
    2.2932   24.5212  -10.4305 C   0  0  0  0  0  0  0  0  0  0  0  0
    1.4755   23.2174  -10.3986 C   0  0  0  0  0  0  0  0  0  0  0  0
   -2.1125   22.5149  -24.3611 C   0  0  0  0  0  0  0  0  0  0  0  0
   -1.3261   22.2176  -23.4956 C   0  0  0  0  0  0  0  0  0  0  0  0
   -3.5359   23.5380  -27.5917 C   0  0  0  0  0  0  0  0  0  0  0  0
   -4.8806   23.5527  -27.2481 C   0  0  0  0  0  0  0  0  0  0  0  0
   -5.3331   23.2355  -25.9840 C   0  0  0  0  0  0  0  0  0  0  0  0
   -4.3988   22.8959  -25.0493 C   0  0  0  0  0  0  0  0  0  0  0  0
   -3.0505   22.8727  -25.3642 C   0  0  0  0  0  0  0  0  0  0  0  0
   -2.6146   23.1896  -26.6220 C   0  0  0  0  0  0  0  0  0  0  0  0
   -3.7440   24.9332  -29.5496 C   0  0  0  0  0  0  0  0  0  0  0  0
   -3.1308   23.8614  -28.8633 O   0  0  0  0  0  0  0  0  0  0  0  0
   -6.6802   23.2637  -25.6875 O   0  0  0  0  0  0  0  0  0  0  0  0
   -7.4049   24.4676  -25.7909 C   0  0  0  0  0  0  0  0  0  0  0  0
 36 37  1  0  0  0
 37 30  1  0  0  0
 30 31  2  0  0  0
 31 32  1  0  0  0
 32 38  1  0  0  0
 38 39  1  0  0  0
 32 33  2  0  0  0
 33 34  1  0  0  0
 34 35  2  0  0  0
 34 28  1  0  0  0
 28 29  3  0  0  0
 29  1  1  0  0  0
  1  2  2  0  0  0
  2  3  1  0  0  0
  3 13  1  0  0  0
 13 14  1  0  0  0
 14 15  1  0  0  0
 15 16  1  0  0  0
 16 17  1  0  0  0
 16 18  1  0  0  0
 18 19  2  0  0  0
 18 20  1  0  0  0
 20 21  2  0  0  0
 21 22  1  0  0  0
 22 23  1  0  0  0
 23 24  1  0  0  0
 24 25  1  0  0  0
 25 26  1  0  0  0
 26 27  1  0  0  0
  3  4  1  0  0  0
  4  5  2  0  0  0
  5  6  1  0  0  0
  6  7  2  0  0  0
  7  8  1  0  0  0
  8  9  1  0  0  0
  8 10  2  0  0  0
 35 30  1  0  0  0
 10  1  1  0  0  0
 17 13  1  0  0  0
 27 23  1  0  0  0
 10  4  1  0  0  0
  9 11  1  0  0  0
  9 12  1  0  0  0
M  END
> <minimizedAffinity>
-7.36848

> <CNNscore>
0.2339561731

> <CNNaffinity>
6.2510499954

> <CNN_VS>
1.4624717236

> <CNNaffinity_variance>
0.1097844988

$$$$
[H]/C(C(=O)N1C([H])([H])C([H])([H])[C@]([H])(n2c([H])c(C#Cc3c([H])c(OC([H])([H])[H])c([H])c(OC([H])([H])[H])c3[H])c3c(N([H])[H])nc([H])nc32)C1([H])[H])=C(/[H])C([H])([H])N1C([H])([H])C([H])([H])C([H])([H])C1([H])[H]


 39 43  0  0  0  0  0  0  0  0999 V2000
   -1.0795   21.9430  -22.8514 C   0  0  0  0  0  0  0  0  0  0  0  0
   -1.5165   21.7063  -21.5750 C   0  0  0  0  0  0  0  0  0  0  0  0
   -0.4713   21.1776  -20.8903 N   0  0  0  0  0  0  0  0  0  0  0  0
    0.5941   21.0844  -21.7134 C   0  0  0  0  0  0  0  0  0  0  0  0
    1.8641   20.6367  -21.5458 N   0  0  0  0  0  0  0  0  0  0  0  0
    2.7724   20.6416  -22.5358 C   0  0  0  0  0  0  0  0  0  0  0  0
    2.3944   21.1101  -23.7301 N   0  0  0  0  0  0  0  0  0  0  0  0
    1.1571   21.5698  -23.9735 C   0  0  0  0  0  0  0  0  0  0  0  0
    0.7565   22.0659  -25.2362 N   0  0  0  0  0  0  0  0  0  0  0  0
    0.2367   21.5570  -22.9433 C   0  0  0  0  0  0  0  0  0  0  0  0
    0.6783   23.0988  -25.4129 H   0  0  0  0  0  0  0  0  0  0  0  0
    0.5390   21.3869  -25.9933 H   0  0  0  0  0  0  0  0  0  0  0  0
   -0.4430   20.7675  -19.5222 C   0  0  0  0  0  0  0  0  0  0  0  0
    0.0518   21.8535  -18.5836 C   0  0  0  0  0  0  0  0  0  0  0  0
   -0.3695   21.2427  -17.2317 C   0  0  0  0  0  0  0  0  0  0  0  0
   -1.4667   20.3614  -17.5043 N   0  0  0  0  0  0  0  0  0  0  0  0
   -1.8312   20.5332  -18.9369 C   0  0  0  0  0  0  0  0  0  0  0  0
   -2.1499   19.4660  -16.6685 C   0  0  0  0  0  0  0  0  0  0  0  0
   -3.1214   18.7763  -17.2093 O   0  0  0  0  0  0  0  0  0  0  0  0
   -1.9545   19.1712  -15.2763 C   0  0  0  0  0  0  0  0  0  0  0  0
   -2.6517   18.3685  -14.4994 C   0  0  0  0  0  0  0  0  0  0  0  0
   -2.2478   18.2306  -13.0771 C   0  0  0  0  0  0  0  0  0  0  0  0
   -1.4632   17.1030  -12.7621 N   0  0  0  0  0  0  0  0  0  0  0  0
   -1.7693   15.9160  -13.4811 C   0  0  0  0  0  0  0  0  0  0  0  0
   -0.4614   15.4311  -14.0564 C   0  0  0  0  0  0  0  0  0  0  0  0
    0.5383   15.8826  -13.0148 C   0  0  0  0  0  0  0  0  0  0  0  0
   -0.0581   17.2591  -12.6698 C   0  0  0  0  0  0  0  0  0  0  0  0
   -2.4595   22.9627  -24.8492 C   0  0  0  0  0  0  0  0  0  0  0  0
   -1.8183   22.4940  -23.9409 C   0  0  0  0  0  0  0  0  0  0  0  0
   -4.1166   23.3748  -28.1040 C   0  0  0  0  0  0  0  0  0  0  0  0
   -4.7134   24.6104  -27.8954 C   0  0  0  0  0  0  0  0  0  0  0  0
   -4.5867   25.3124  -26.7145 C   0  0  0  0  0  0  0  0  0  0  0  0
   -3.8376   24.7460  -25.7245 C   0  0  0  0  0  0  0  0  0  0  0  0
   -3.2309   23.5145  -25.9050 C   0  0  0  0  0  0  0  0  0  0  0  0
   -3.3642   22.8283  -27.0813 C   0  0  0  0  0  0  0  0  0  0  0  0
   -5.3816   22.9896  -30.1227 C   0  0  0  0  0  0  0  0  0  0  0  0
   -4.2697   22.7115  -29.2967 O   0  0  0  0  0  0  0  0  0  0  0  0
   -5.1982   26.5383  -26.5517 O   0  0  0  0  0  0  0  0  0  0  0  0
   -5.2712   27.1314  -25.2757 C   0  0  0  0  0  0  0  0  0  0  0  0
 36 37  1  0  0  0
 37 30  1  0  0  0
 30 31  2  0  0  0
 31 32  1  0  0  0
 32 38  1  0  0  0
 38 39  1  0  0  0
 32 33  2  0  0  0
 33 34  1  0  0  0
 34 35  2  0  0  0
 34 28  1  0  0  0
 28 29  3  0  0  0
 29  1  1  0  0  0
  1  2  2  0  0  0
  2  3  1  0  0  0
  3 13  1  0  0  0
 13 14  1  0  0  0
 14 15  1  0  0  0
 15 16  1  0  0  0
 16 17  1  0  0  0
 16 18  1  0  0  0
 18 19  2  0  0  0
 18 20  1  0  0  0
 20 21  2  0  0  0
 21 22  1  0  0  0
 22 23  1  0  0  0
 23 24  1  0  0  0
 24 25  1  0  0  0
 25 26  1  0  0  0
 26 27  1  0  0  0
  3  4  1  0  0  0
  4  5  2  0  0  0
  5  6  1  0  0  0
  6  7  2  0  0  0
  7  8  1  0  0  0
  8  9  1  0  0  0
  8 10  2  0  0  0
 35 30  1  0  0  0
 10  1  1  0  0  0
 17 13  1  0  0  0
 27 23  1  0  0  0
 10  4  1  0  0  0
  9 11  1  0  0  0
  9 12  1  0  0  0
M  END
> <minimizedAffinity>
-6.53544

> <CNNscore>
0.2315157801

> <CNNaffinity>
6.4698538780

> <CNN_VS>
1.4978733063

> <CNNaffinity_variance>
0.3500232697

$$$$
[H]/C(C(=O)N1C([H])([H])C([H])([H])[C@]([H])(n2c([H])c(C#Cc3c([H])c(OC([H])([H])[H])c([H])c(OC([H])([H])[H])c3[H])c3c(N([H])[H])nc([H])nc32)C1([H])[H])=C(/[H])C([H])([H])N1C([H])([H])C([H])([H])C([H])([H])C1([H])[H]


 39 43  0  0  0  0  0  0  0  0999 V2000
    0.1358   21.6655  -21.9578 C   0  0  0  0  0  0  0  0  0  0  0  0
   -0.1307   21.7598  -20.6176 C   0  0  0  0  0  0  0  0  0  0  0  0
    0.9844   21.3497  -19.9623 N   0  0  0  0  0  0  0  0  0  0  0  0
    1.9265   21.0069  -20.8658 C   0  0  0  0  0  0  0  0  0  0  0  0
    3.1964   20.5414  -20.7559 N   0  0  0  0  0  0  0  0  0  0  0  0
    3.9628   20.2632  -21.8237 C   0  0  0  0  0  0  0  0  0  0  0  0
    3.4386   20.4583  -23.0386 N   0  0  0  0  0  0  0  0  0  0  0  0
    2.1911   20.9158  -23.2284 C   0  0  0  0  0  0  0  0  0  0  0  0
    1.6359   21.1229  -24.5129 N   0  0  0  0  0  0  0  0  0  0  0  0
    1.4180   21.1964  -22.1184 C   0  0  0  0  0  0  0  0  0  0  0  0
    1.5594   22.0881  -24.9212 H   0  0  0  0  0  0  0  0  0  0  0  0
    1.3021   20.2982  -25.0514 H   0  0  0  0  0  0  0  0  0  0  0  0
    1.1870   21.2715  -18.5504 C   0  0  0  0  0  0  0  0  0  0  0  0
    2.0114   22.4219  -18.0011 C   0  0  0  0  0  0  0  0  0  0  0  0
    1.7419   22.2403  -16.4935 C   0  0  0  0  0  0  0  0  0  0  0  0
    0.4845   21.5614  -16.3808 N   0  0  0  0  0  0  0  0  0  0  0  0
   -0.0949   21.4662  -17.7483 C   0  0  0  0  0  0  0  0  0  0  0  0
   -0.1772   21.0424  -15.2584 C   0  0  0  0  0  0  0  0  0  0  0  0
   -1.3288   20.4579  -15.4686 O   0  0  0  0  0  0  0  0  0  0  0  0
    0.2108   21.0455  -13.8753 C   0  0  0  0  0  0  0  0  0  0  0  0
    0.2567   22.0590  -13.0358 C   0  0  0  0  0  0  0  0  0  0  0  0
    0.6976   21.8050  -11.6407 C   0  0  0  0  0  0  0  0  0  0  0  0
    1.6342   22.7154  -11.1113 N   0  0  0  0  0  0  0  0  0  0  0  0
    2.2955   23.5434  -12.0582 C   0  0  0  0  0  0  0  0  0  0  0  0
    2.1256   24.9580  -11.5615 C   0  0  0  0  0  0  0  0  0  0  0  0
    2.1003   24.7739  -10.0603 C   0  0  0  0  0  0  0  0  0  0  0  0
    1.2687   23.4812   -9.9767 C   0  0  0  0  0  0  0  0  0  0  0  0
   -1.4591   22.2360  -23.9743 C   0  0  0  0  0  0  0  0  0  0  0  0
   -0.7297   21.9853  -23.0464 C   0  0  0  0  0  0  0  0  0  0  0  0
   -4.4853   22.8873  -25.9561 C   0  0  0  0  0  0  0  0  0  0  0  0
   -3.9041   23.0379  -27.2074 C   0  0  0  0  0  0  0  0  0  0  0  0
   -2.5449   22.9317  -27.4185 C   0  0  0  0  0  0  0  0  0  0  0  0
   -1.7598   22.6668  -26.3343 C   0  0  0  0  0  0  0  0  0  0  0  0
   -2.3125   22.5119  -25.0742 C   0  0  0  0  0  0  0  0  0  0  0  0
   -3.6625   22.6196  -24.8782 C   0  0  0  0  0  0  0  0  0  0  0  0
   -6.5955   23.8163  -26.6685 C   0  0  0  0  0  0  0  0  0  0  0  0
   -5.8441   23.0014  -25.7927 O   0  0  0  0  0  0  0  0  0  0  0  0
   -2.0110   23.0890  -28.6808 O   0  0  0  0  0  0  0  0  0  0  0  0
   -0.6233   23.2674  -28.8476 C   0  0  0  0  0  0  0  0  0  0  0  0
 36 37  1  0  0  0
 37 30  1  0  0  0
 30 31  2  0  0  0
 31 32  1  0  0  0
 32 38  1  0  0  0
 38 39  1  0  0  0
 32 33  2  0  0  0
 33 34  1  0  0  0
 34 35  2  0  0  0
 34 28  1  0  0  0
 28 29  3  0  0  0
 29  1  1  0  0  0
  1  2  2  0  0  0
  2  3  1  0  0  0
  3 13  1  0  0  0
 13 14  1  0  0  0
 14 15  1  0  0  0
 15 16  1  0  0  0
 16 17  1  0  0  0
 16 18  1  0  0  0
 18 19  2  0  0  0
 18 20  1  0  0  0
 20 21  2  0  0  0
 21 22  1  0  0  0
 22 23  1  0  0  0
 23 24  1  0  0  0
 24 25  1  0  0  0
 25 26  1  0  0  0
 26 27  1  0  0  0
  3  4  1  0  0  0
  4  5  2  0  0  0
  5  6  1  0  0  0
  6  7  2  0  0  0
  7  8  1  0  0  0
  8  9  1  0  0  0
  8 10  2  0  0  0
 35 30  1  0  0  0
 10  1  1  0  0  0
 17 13  1  0  0  0
 27 23  1  0  0  0
 10  4  1  0  0  0
  9 11  1  0  0  0
  9 12  1  0  0  0
M  END
> <minimizedAffinity>
-7.01764

> <CNNscore>
0.1888429224

> <CNNaffinity>
5.9895944595

> <CNN_VS>
1.1310925484

> <CNNaffinity_variance>
0.0729086623

$$$$
[H]/C(C(=O)N1C([H])([H])C([H])([H])[C@]([H])(n2c([H])c(C#Cc3c([H])c(OC([H])([H])[H])c([H])c(OC([H])([H])[H])c3[H])c3c(N([H])[H])nc([H])nc32)C1([H])[H])=C(/[H])C([H])([H])N1C([H])([H])C([H])([H])C([H])([H])C1([H])[H]


 39 43  0  0  0  0  0  0  0  0999 V2000
   -0.7141   22.2622  -22.5518 C   0  0  0  0  0  0  0  0  0  0  0  0
   -0.9329   22.3340  -21.2015 C   0  0  0  0  0  0  0  0  0  0  0  0
    0.1669   21.8214  -20.5944 N   0  0  0  0  0  0  0  0  0  0  0  0
    1.0534   21.4378  -21.5370 C   0  0  0  0  0  0  0  0  0  0  0  0
    2.2871   20.8757  -21.4812 N   0  0  0  0  0  0  0  0  0  0  0  0
    2.9984   20.5748  -22.5806 C   0  0  0  0  0  0  0  0  0  0  0  0
    2.4546   20.8465  -23.7719 N   0  0  0  0  0  0  0  0  0  0  0  0
    1.2403   21.4015  -23.9085 C   0  0  0  0  0  0  0  0  0  0  0  0
    0.6645   21.6897  -25.1681 N   0  0  0  0  0  0  0  0  0  0  0  0
    0.5237   21.7040  -22.7667 C   0  0  0  0  0  0  0  0  0  0  0  0
    0.6491   22.6702  -25.5455 H   0  0  0  0  0  0  0  0  0  0  0  0
    0.2536   20.9095  -25.7194 H   0  0  0  0  0  0  0  0  0  0  0  0
    0.4048   21.6841  -19.1925 C   0  0  0  0  0  0  0  0  0  0  0  0
    0.6359   20.2459  -18.7644 C   0  0  0  0  0  0  0  0  0  0  0  0
    1.1950   20.4817  -17.3466 C   0  0  0  0  0  0  0  0  0  0  0  0
    1.7691   21.7951  -17.3457 N   0  0  0  0  0  0  0  0  0  0  0  0
    1.7243   22.3023  -18.7441 C   0  0  0  0  0  0  0  0  0  0  0  0
    2.3037   22.5587  -16.2977 C   0  0  0  0  0  0  0  0  0  0  0  0
    2.7548   23.7483  -16.6033 O   0  0  0  0  0  0  0  0  0  0  0  0
    2.4421   22.2429  -14.9033 C   0  0  0  0  0  0  0  0  0  0  0  0
    3.1362   22.8764  -13.9810 C   0  0  0  0  0  0  0  0  0  0  0  0
    3.1216   22.3471  -12.5936 C   0  0  0  0  0  0  0  0  0  0  0  0
    3.1005   23.3088  -11.5635 N   0  0  0  0  0  0  0  0  0  0  0  0
    2.4261   24.5230  -11.8645 C   0  0  0  0  0  0  0  0  0  0  0  0
    1.4460   24.7426  -10.7386 C   0  0  0  0  0  0  0  0  0  0  0  0
    2.1623   24.1226   -9.5594 C   0  0  0  0  0  0  0  0  0  0  0  0
    2.7706   22.8893  -10.2511 C   0  0  0  0  0  0  0  0  0  0  0  0
   -2.3291   23.0474  -24.4781 C   0  0  0  0  0  0  0  0  0  0  0  0
   -1.5848   22.6796  -23.6024 C   0  0  0  0  0  0  0  0  0  0  0  0
   -4.9354   24.9508  -26.2369 C   0  0  0  0  0  0  0  0  0  0  0  0
   -4.8885   24.3090  -27.4667 C   0  0  0  0  0  0  0  0  0  0  0  0
   -4.0238   23.2679  -27.7346 C   0  0  0  0  0  0  0  0  0  0  0  0
   -3.1889   22.8709  -26.7309 C   0  0  0  0  0  0  0  0  0  0  0  0
   -3.2140   23.4931  -25.4941 C   0  0  0  0  0  0  0  0  0  0  0  0
   -4.0767   24.5248  -25.2411 C   0  0  0  0  0  0  0  0  0  0  0  0
   -6.5703   26.0236  -24.8228 C   0  0  0  0  0  0  0  0  0  0  0  0
   -5.8132   25.9833  -26.0148 O   0  0  0  0  0  0  0  0  0  0  0  0
   -4.0121   22.6593  -28.9726 O   0  0  0  0  0  0  0  0  0  0  0  0
   -5.1544   22.7033  -29.7962 C   0  0  0  0  0  0  0  0  0  0  0  0
 36 37  1  0  0  0
 37 30  1  0  0  0
 30 31  2  0  0  0
 31 32  1  0  0  0
 32 38  1  0  0  0
 38 39  1  0  0  0
 32 33  2  0  0  0
 33 34  1  0  0  0
 34 35  2  0  0  0
 34 28  1  0  0  0
 28 29  3  0  0  0
 29  1  1  0  0  0
  1  2  2  0  0  0
  2  3  1  0  0  0
  3 13  1  0  0  0
 13 14  1  0  0  0
 14 15  1  0  0  0
 15 16  1  0  0  0
 16 17  1  0  0  0
 16 18  1  0  0  0
 18 19  2  0  0  0
 18 20  1  0  0  0
 20 21  2  0  0  0
 21 22  1  0  0  0
 22 23  1  0  0  0
 23 24  1  0  0  0
 24 25  1  0  0  0
 25 26  1  0  0  0
 26 27  1  0  0  0
  3  4  1  0  0  0
  4  5  2  0  0  0
  5  6  1  0  0  0
  6  7  2  0  0  0
  7  8  1  0  0  0
  8  9  1  0  0  0
  8 10  2  0  0  0
 35 30  1  0  0  0
 10  1  1  0  0  0
 17 13  1  0  0  0
 27 23  1  0  0  0
 10  4  1  0  0  0
  9 11  1  0  0  0
  9 12  1  0  0  0
M  END
> <minimizedAffinity>
-7.20817

> <CNNscore>
0.1643674374

> <CNNaffinity>
6.1695089340

> <CNN_VS>
1.0140663385

> <CNNaffinity_variance>
0.2387741506

$$$$
[H]/C(C(=O)N1C([H])([H])C([H])([H])[C@]([H])(n2c([H])c(C#Cc3c([H])c(OC([H])([H])[H])c([H])c(OC([H])([H])[H])c3[H])c3c(N([H])[H])nc([H])nc32)C1([H])[H])=C(/[H])C([H])([H])N1C([H])([H])C([H])([H])C([H])([H])C1([H])[H]


 39 43  0  0  0  0  0  0  0  0999 V2000
   -5.9222   22.3583  -17.6466 C   0  0  0  0  0  0  0  0  0  0  0  0
   -5.2856   22.4335  -18.8571 C   0  0  0  0  0  0  0  0  0  0  0  0
   -6.2205   22.1963  -19.8114 N   0  0  0  0  0  0  0  0  0  0  0  0
   -7.4125   21.9781  -19.2174 C   0  0  0  0  0  0  0  0  0  0  0  0
   -8.6527   21.7001  -19.6927 N   0  0  0  0  0  0  0  0  0  0  0  0
   -9.7143   21.5184  -18.8895 C   0  0  0  0  0  0  0  0  0  0  0  0
   -9.5250   21.6186  -17.5694 N   0  0  0  0  0  0  0  0  0  0  0  0
   -8.3293   21.8907  -17.0238 C   0  0  0  0  0  0  0  0  0  0  0  0
   -8.1283   21.9974  -15.6277 N   0  0  0  0  0  0  0  0  0  0  0  0
   -7.2494   22.0745  -17.8655 C   0  0  0  0  0  0  0  0  0  0  0  0
   -8.0399   22.9357  -15.1628 H   0  0  0  0  0  0  0  0  0  0  0  0
   -8.0691   21.1256  -15.0637 H   0  0  0  0  0  0  0  0  0  0  0  0
   -6.0335   22.1688  -21.2274 C   0  0  0  0  0  0  0  0  0  0  0  0
   -6.7153   23.3218  -21.9420 C   0  0  0  0  0  0  0  0  0  0  0  0
   -6.0450   23.2048  -23.3260 C   0  0  0  0  0  0  0  0  0  0  0  0
   -4.7831   22.5577  -23.1168 N   0  0  0  0  0  0  0  0  0  0  0  0
   -4.5899   22.4218  -21.6474 C   0  0  0  0  0  0  0  0  0  0  0  0
   -3.8283   22.0970  -24.0350 C   0  0  0  0  0  0  0  0  0  0  0  0
   -2.7580   21.5295  -23.5405 O   0  0  0  0  0  0  0  0  0  0  0  0
   -3.8301   22.1456  -25.4706 C   0  0  0  0  0  0  0  0  0  0  0  0
   -3.8395   23.2008  -26.2583 C   0  0  0  0  0  0  0  0  0  0  0  0
   -3.8405   22.9889  -27.7280 C   0  0  0  0  0  0  0  0  0  0  0  0
   -4.7567   23.7655  -28.4656 N   0  0  0  0  0  0  0  0  0  0  0  0
   -4.3779   25.1155  -28.6967 C   0  0  0  0  0  0  0  0  0  0  0  0
   -4.5139   25.3352  -30.1833 C   0  0  0  0  0  0  0  0  0  0  0  0
   -5.6609   24.4172  -30.5433 C   0  0  0  0  0  0  0  0  0  0  0  0
   -5.3162   23.2154  -29.6452 C   0  0  0  0  0  0  0  0  0  0  0  0
   -4.8979   22.6872  -15.2428 C   0  0  0  0  0  0  0  0  0  0  0  0
   -5.3567   22.5352  -16.3485 C   0  0  0  0  0  0  0  0  0  0  0  0
   -4.4378   23.9588  -11.8251 C   0  0  0  0  0  0  0  0  0  0  0  0
   -3.3476   23.1882  -11.4455 C   0  0  0  0  0  0  0  0  0  0  0  0
   -2.7591   22.2618  -12.2814 C   0  0  0  0  0  0  0  0  0  0  0  0
   -3.2904   22.1154  -13.5297 C   0  0  0  0  0  0  0  0  0  0  0  0
   -4.3779   22.8707  -13.9351 C   0  0  0  0  0  0  0  0  0  0  0  0
   -4.9524   23.7865  -13.0963 C   0  0  0  0  0  0  0  0  0  0  0  0
   -6.1910   24.5606  -10.2799 C   0  0  0  0  0  0  0  0  0  0  0  0
   -4.9916   24.8696  -10.9593 O   0  0  0  0  0  0  0  0  0  0  0  0
   -1.6762   21.5176  -11.8611 O   0  0  0  0  0  0  0  0  0  0  0  0
   -1.7065   20.1113  -11.9425 C   0  0  0  0  0  0  0  0  0  0  0  0
 36 37  1  0  0  0
 37 30  1  0  0  0
 30 31  2  0  0  0
 31 32  1  0  0  0
 32 38  1  0  0  0
 38 39  1  0  0  0
 32 33  2  0  0  0
 33 34  1  0  0  0
 34 35  2  0  0  0
 34 28  1  0  0  0
 28 29  3  0  0  0
 29  1  1  0  0  0
  1  2  2  0  0  0
  2  3  1  0  0  0
  3 13  1  0  0  0
 13 14  1  0  0  0
 14 15  1  0  0  0
 15 16  1  0  0  0
 16 17  1  0  0  0
 16 18  1  0  0  0
 18 19  2  0  0  0
 18 20  1  0  0  0
 20 21  2  0  0  0
 21 22  1  0  0  0
 22 23  1  0  0  0
 23 24  1  0  0  0
 24 25  1  0  0  0
 25 26  1  0  0  0
 26 27  1  0  0  0
  3  4  1  0  0  0
  4  5  2  0  0  0
  5  6  1  0  0  0
  6  7  2  0  0  0
  7  8  1  0  0  0
  8  9  1  0  0  0
  8 10  2  0  0  0
 35 30  1  0  0  0
 10  1  1  0  0  0
 17 13  1  0  0  0
 27 23  1  0  0  0
 10  4  1  0  0  0
  9 11  1  0  0  0
  9 12  1  0  0  0
M  END
> <minimizedAffinity>
-6.64368

> <CNNscore>
0.1413775086

> <CNNaffinity>
6.0147657394

> <CNN_VS>
0.8503525853

> <CNNaffinity_variance>
0.5898400545

$$$$
[H]C([H])=C([H])C(=O)N([H])c1c([H])c([H])c([H])c(C([H])([H])N2C(=O)N(c3c(Cl)c(OC([H])([H])[H])c([H])c(OC([H])([H])[H])c3Cl)C([H])([H])c3c([H])nc(N([H])C([H])([H])C([H])([H])C([H])([H])C([H])([H])N([H])C([H])([H])C([H])([H])[H])nc32)c1[H]


 46 49  0  0  0  0  0  0  0  0999 V2000
   -4.3577   21.0040  -17.6452 C   0  0  0  0  0  0  0  0  0  0  0  0
   -5.3217   20.5578  -18.4455 N   0  0  0  0  0  0  0  0  0  0  0  0
   -5.3340   20.8333  -19.7374 C   0  0  0  0  0  0  0  0  0  0  0  0
   -4.3130   21.6162  -20.3050 C   0  0  0  0  0  0  0  0  0  0  0  0
   -4.3949   21.8343  -21.7547 C   0  0  0  0  0  0  0  0  0  0  0  0
   -3.4161   22.7751  -22.2190 N   0  0  0  0  0  0  0  0  0  0  0  0
   -2.3838   23.2457  -21.3761 C   0  0  0  0  0  0  0  0  0  0  0  0
   -1.5215   23.9878  -21.9104 O   0  0  0  0  0  0  0  0  0  0  0  0
   -2.2752   22.9370  -20.0013 N   0  0  0  0  0  0  0  0  0  0  0  0
   -3.3049   22.0902  -19.4934 C   0  0  0  0  0  0  0  0  0  0  0  0
   -3.3672   21.7657  -18.2020 N   0  0  0  0  0  0  0  0  0  0  0  0
   -3.5076   23.2475  -23.5717 C   0  0  0  0  0  0  0  0  0  0  0  0
   -4.3212   24.3054  -23.8507 C   0  0  0  0  0  0  0  0  0  0  0  0
   -5.2388   25.0429  -22.5622 Cl  0  0  0  0  0  0  0  0  0  0  0  0
   -4.4234   24.7984  -25.1629 C   0  0  0  0  0  0  0  0  0  0  0  0
   -3.6955   24.2069  -26.1723 C   0  0  0  0  0  0  0  0  0  0  0  0
   -2.8756   23.1401  -25.8890 C   0  0  0  0  0  0  0  0  0  0  0  0
   -2.7930   22.6683  -24.5680 C   0  0  0  0  0  0  0  0  0  0  0  0
   -1.7530   21.3121  -24.2130 Cl  0  0  0  0  0  0  0  0  0  0  0  0
   -5.2612   25.8711  -25.3906 O   0  0  0  0  0  0  0  0  0  0  0  0
   -4.8309   27.2108  -25.4565 C   0  0  0  0  0  0  0  0  0  0  0  0
   -2.1263   22.5153  -26.8731 O   0  0  0  0  0  0  0  0  0  0  0  0
   -2.1987   23.0153  -28.1953 C   0  0  0  0  0  0  0  0  0  0  0  0
   -4.3017   20.7504  -16.2562 N   0  0  0  0  0  0  0  0  0  0  0  0
   -5.1226   20.9071  -15.6523 H   0  0  0  0  0  0  0  0  0  0  0  0
   -3.0867   20.2604  -15.6462 C   0  0  0  0  0  0  0  0  0  0  0  0
   -2.2304   21.4250  -15.2507 C   0  0  0  0  0  0  0  0  0  0  0  0
   -0.8099   21.1772  -15.6648 C   0  0  0  0  0  0  0  0  0  0  0  0
   -0.1136   20.2535  -14.7225 C   0  0  0  0  0  0  0  0  0  0  0  0
   -0.2906   20.6286  -13.3429 N   0  0  0  0  0  0  0  0  0  0  0  0
   -1.0013   21.3732  -13.2848 H   0  0  0  0  0  0  0  0  0  0  0  0
   -1.9804   19.7368  -11.7981 C   0  0  0  0  0  0  0  0  0  0  0  0
   -0.6580   19.5302  -12.5116 C   0  0  0  0  0  0  0  0  0  0  0  0
   -1.2472   23.3780  -19.1071 C   0  0  0  0  0  0  0  0  0  0  0  0
    0.0139   22.6562  -19.1159 C   0  0  0  0  0  0  0  0  0  0  0  0
    0.0835   21.3393  -19.4649 C   0  0  0  0  0  0  0  0  0  0  0  0
    1.3106   20.7305  -19.4795 C   0  0  0  0  0  0  0  0  0  0  0  0
    2.4853   21.3671  -19.1623 C   0  0  0  0  0  0  0  0  0  0  0  0
    2.4493   22.6959  -18.8067 C   0  0  0  0  0  0  0  0  0  0  0  0
    1.1751   23.3080  -18.7956 C   0  0  0  0  0  0  0  0  0  0  0  0
    3.5944   23.4450  -18.4966 N   0  0  0  0  0  0  0  0  0  0  0  0
    3.9207   24.0114  -17.2559 C   0  0  0  0  0  0  0  0  0  0  0  0
    3.1807   23.8905  -16.2292 O   0  0  0  0  0  0  0  0  0  0  0  0
    4.3114   23.6121  -19.2721 H   0  0  0  0  0  0  0  0  0  0  0  0
    5.1481   24.7842  -17.0729 C   0  0  0  0  0  0  0  0  0  0  0  0
    6.0449   24.9059  -18.0115 C   0  0  0  0  0  0  0  0  0  0  0  0
 32 33  1  0  0  0
 33 30  1  0  0  0
 30 29  1  0  0  0
 29 28  1  0  0  0
 28 27  1  0  0  0
 27 26  1  0  0  0
 26 24  1  0  0  0
 24  1  1  0  0  0
  1  2  2  0  0  0
  2  3  1  0  0  0
  3  4  2  0  0  0
  4  5  1  0  0  0
  5  6  1  0  0  0
  6  7  1  0  0  0
  7  8  2  0  0  0
  7  9  1  0  0  0
  9 34  1  0  0  0
 34 35  1  0  0  0
 35 36  2  0  0  0
 36 37  1  0  0  0
 37 38  2  0  0  0
 38 39  1  0  0  0
 39 41  1  0  0  0
 41 42  1  0  0  0
 42 43  2  0  0  0
 42 45  1  0  0  0
 45 46  2  0  0  0
 39 40  2  0  0  0
  9 10  1  0  0  0
 10 11  2  0  0  0
  6 12  1  0  0  0
 12 13  2  0  0  0
 13 14  1  0  0  0
 13 15  1  0  0  0
 15 20  1  0  0  0
 20 21  1  0  0  0
 15 16  2  0  0  0
 16 17  1  0  0  0
 17 22  1  0  0  0
 22 23  1  0  0  0
 17 18  2  0  0  0
 18 19  1  0  0  0
 11  1  1  0  0  0
 18 12  1  0  0  0
 10  4  1  0  0  0
 40 35  1  0  0  0
 30 31  1  0  0  0
 24 25  1  0  0  0
 41 44  1  0  0  0
M  END
> <minimizedAffinity>
-6.22141

> <CNNscore>
0.0790266767

> <CNNaffinity>
6.6599273682

> <CNN_VS>
0.5263119340

> <CNNaffinity_variance>
0.2544830739

$$$$
[H]C([H])=C([H])C(=O)N([H])c1c([H])c([H])c([H])c(C([H])([H])N2C(=O)N(c3c(Cl)c(OC([H])([H])[H])c([H])c(OC([H])([H])[H])c3Cl)C([H])([H])c3c([H])nc(N([H])C([H])([H])C([H])([H])C([H])([H])C([H])([H])N([H])C([H])([H])C([H])([H])[H])nc32)c1[H]


 46 49  0  0  0  0  0  0  0  0999 V2000
   -4.9781   21.4145  -17.8555 C   0  0  0  0  0  0  0  0  0  0  0  0
   -5.9006   21.0060  -18.7220 N   0  0  0  0  0  0  0  0  0  0  0  0
   -5.7656   21.1996  -20.0218 C   0  0  0  0  0  0  0  0  0  0  0  0
   -4.6266   21.8516  -20.5269 C   0  0  0  0  0  0  0  0  0  0  0  0
   -4.5511   21.9843  -21.9872 C   0  0  0  0  0  0  0  0  0  0  0  0
   -3.4488   22.8034  -22.4024 N   0  0  0  0  0  0  0  0  0  0  0  0
   -2.4602   23.2329  -21.4880 C   0  0  0  0  0  0  0  0  0  0  0  0
   -1.4855   23.8604  -21.9734 O   0  0  0  0  0  0  0  0  0  0  0  0
   -2.5108   23.0030  -20.0944 N   0  0  0  0  0  0  0  0  0  0  0  0
   -3.6588   22.2844  -19.6461 C   0  0  0  0  0  0  0  0  0  0  0  0
   -3.8723   22.0487  -18.3517 N   0  0  0  0  0  0  0  0  0  0  0  0
   -3.3679   23.1960  -23.7810 C   0  0  0  0  0  0  0  0  0  0  0  0
   -2.5586   22.4934  -24.6239 C   0  0  0  0  0  0  0  0  0  0  0  0
   -1.6336   21.1507  -24.0014 Cl  0  0  0  0  0  0  0  0  0  0  0  0
   -2.4669   22.8458  -25.9814 C   0  0  0  0  0  0  0  0  0  0  0  0
   -3.2005   23.9089  -26.4610 C   0  0  0  0  0  0  0  0  0  0  0  0
   -4.0161   24.6163  -25.6095 C   0  0  0  0  0  0  0  0  0  0  0  0
   -4.0882   24.2415  -24.2573 C   0  0  0  0  0  0  0  0  0  0  0  0
   -5.1228   25.1437  -23.1789 Cl  0  0  0  0  0  0  0  0  0  0  0  0
   -1.6330   22.1016  -26.7910 O   0  0  0  0  0  0  0  0  0  0  0  0
   -0.4960   22.6179  -27.4428 C   0  0  0  0  0  0  0  0  0  0  0  0
   -4.7710   25.6919  -26.0493 O   0  0  0  0  0  0  0  0  0  0  0  0
   -5.0631   25.7910  -27.4307 C   0  0  0  0  0  0  0  0  0  0  0  0
   -5.0768   21.2450  -16.4561 N   0  0  0  0  0  0  0  0  0  0  0  0
   -4.2386   21.2680  -15.8560 H   0  0  0  0  0  0  0  0  0  0  0  0
   -6.3620   21.0367  -15.8290 C   0  0  0  0  0  0  0  0  0  0  0  0
   -6.9909   22.3665  -15.5424 C   0  0  0  0  0  0  0  0  0  0  0  0
   -6.8916   22.6722  -14.0770 C   0  0  0  0  0  0  0  0  0  0  0  0
   -8.2080   23.0853  -13.5091 C   0  0  0  0  0  0  0  0  0  0  0  0
   -8.5526   24.4454  -13.8355 N   0  0  0  0  0  0  0  0  0  0  0  0
   -9.4781   24.6633  -13.4368 H   0  0  0  0  0  0  0  0  0  0  0  0
   -7.9079   25.9636  -12.0143 C   0  0  0  0  0  0  0  0  0  0  0  0
   -7.5850   25.3881  -13.3799 C   0  0  0  0  0  0  0  0  0  0  0  0
   -1.5341   23.4065  -19.1279 C   0  0  0  0  0  0  0  0  0  0  0  0
   -0.2653   22.6986  -19.1106 C   0  0  0  0  0  0  0  0  0  0  0  0
   -0.1791   21.3743  -19.4266 C   0  0  0  0  0  0  0  0  0  0  0  0
    1.0547   20.7789  -19.4180 C   0  0  0  0  0  0  0  0  0  0  0  0
    2.2202   21.4359  -19.1089 C   0  0  0  0  0  0  0  0  0  0  0  0
    2.1674   22.7726  -18.7865 C   0  0  0  0  0  0  0  0  0  0  0  0
    0.8866   23.3708  -18.7988 C   0  0  0  0  0  0  0  0  0  0  0  0
    3.3022   23.5416  -18.4874 N   0  0  0  0  0  0  0  0  0  0  0  0
    3.7055   23.9924  -17.2221 C   0  0  0  0  0  0  0  0  0  0  0  0
    3.0578   23.7294  -16.1602 O   0  0  0  0  0  0  0  0  0  0  0  0
    3.9456   23.8233  -19.2936 H   0  0  0  0  0  0  0  0  0  0  0  0
    4.9108   24.8021  -17.0529 C   0  0  0  0  0  0  0  0  0  0  0  0
    5.9981   24.3330  -16.5071 C   0  0  0  0  0  0  0  0  0  0  0  0
 32 33  1  0  0  0
 33 30  1  0  0  0
 30 29  1  0  0  0
 29 28  1  0  0  0
 28 27  1  0  0  0
 27 26  1  0  0  0
 26 24  1  0  0  0
 24  1  1  0  0  0
  1  2  2  0  0  0
  2  3  1  0  0  0
  3  4  2  0  0  0
  4  5  1  0  0  0
  5  6  1  0  0  0
  6  7  1  0  0  0
  7  8  2  0  0  0
  7  9  1  0  0  0
  9 34  1  0  0  0
 34 35  1  0  0  0
 35 36  2  0  0  0
 36 37  1  0  0  0
 37 38  2  0  0  0
 38 39  1  0  0  0
 39 41  1  0  0  0
 41 42  1  0  0  0
 42 43  2  0  0  0
 42 45  1  0  0  0
 45 46  2  0  0  0
 39 40  2  0  0  0
  9 10  1  0  0  0
 10 11  2  0  0  0
  6 12  1  0  0  0
 12 13  2  0  0  0
 13 14  1  0  0  0
 13 15  1  0  0  0
 15 20  1  0  0  0
 20 21  1  0  0  0
 15 16  2  0  0  0
 16 17  1  0  0  0
 17 22  1  0  0  0
 22 23  1  0  0  0
 17 18  2  0  0  0
 18 19  1  0  0  0
 11  1  1  0  0  0
 18 12  1  0  0  0
 10  4  1  0  0  0
 40 35  1  0  0  0
 30 31  1  0  0  0
 24 25  1  0  0  0
 41 44  1  0  0  0
M  END
> <minimizedAffinity>
-6.43270

> <CNNscore>
0.0697130263

> <CNNaffinity>
6.3833451271

> <CNN_VS>
0.4450023174

> <CNNaffinity_variance>
0.1364290714

$$$$
[H]C([H])=C([H])C(=O)N([H])c1c([H])c([H])c([H])c(C([H])([H])N2C(=O)N(c3c(Cl)c(OC([H])([H])[H])c([H])c(OC([H])([H])[H])c3Cl)C([H])([H])c3c([H])nc(N([H])C([H])([H])C([H])([H])C([H])([H])C([H])([H])N([H])C([H])([H])C([H])([H])[H])nc32)c1[H]


 46 49  0  0  0  0  0  0  0  0999 V2000
    0.0603   22.3173  -24.8775 C   0  0  0  0  0  0  0  0  0  0  0  0
    1.0772   21.5412  -24.5138 N   0  0  0  0  0  0  0  0  0  0  0  0
    1.2666   21.1906  -23.2542 C   0  0  0  0  0  0  0  0  0  0  0  0
    0.3843   21.6364  -22.2540 C   0  0  0  0  0  0  0  0  0  0  0  0
    0.6572   21.1613  -20.8917 C   0  0  0  0  0  0  0  0  0  0  0  0
   -0.1838   21.7942  -19.9167 N   0  0  0  0  0  0  0  0  0  0  0  0
   -1.2717   22.6124  -20.2971 C   0  0  0  0  0  0  0  0  0  0  0  0
   -2.0041   23.0354  -19.3673 O   0  0  0  0  0  0  0  0  0  0  0  0
   -1.5689   22.9729  -21.6309 N   0  0  0  0  0  0  0  0  0  0  0  0
   -0.6756   22.4428  -22.6089 C   0  0  0  0  0  0  0  0  0  0  0  0
   -0.7948   22.7487  -23.9008 N   0  0  0  0  0  0  0  0  0  0  0  0
    0.1062   21.5895  -18.5256 C   0  0  0  0  0  0  0  0  0  0  0  0
   -0.5128   20.5718  -17.8621 C   0  0  0  0  0  0  0  0  0  0  0  0
   -1.6498   19.5598  -18.7161 Cl  0  0  0  0  0  0  0  0  0  0  0  0
   -0.2413   20.3386  -16.5030 C   0  0  0  0  0  0  0  0  0  0  0  0
    0.6568   21.1453  -15.8389 C   0  0  0  0  0  0  0  0  0  0  0  0
    1.2801   22.1712  -16.5095 C   0  0  0  0  0  0  0  0  0  0  0  0
    0.9894   22.3810  -17.8681 C   0  0  0  0  0  0  0  0  0  0  0  0
    1.7808   23.6860  -18.7153 Cl  0  0  0  0  0  0  0  0  0  0  0  0
   -0.8950   19.2955  -15.8794 O   0  0  0  0  0  0  0  0  0  0  0  0
   -0.3162   18.0359  -15.6291 C   0  0  0  0  0  0  0  0  0  0  0  0
    2.1896   23.0065  -15.8808 O   0  0  0  0  0  0  0  0  0  0  0  0
    3.5092   22.5363  -15.6785 C   0  0  0  0  0  0  0  0  0  0  0  0
   -0.1824   22.7325  -26.2062 N   0  0  0  0  0  0  0  0  0  0  0  0
    0.4223   23.4301  -26.6654 H   0  0  0  0  0  0  0  0  0  0  0  0
   -1.2884   22.1846  -26.9578 C   0  0  0  0  0  0  0  0  0  0  0  0
   -2.3092   23.2582  -27.1844 C   0  0  0  0  0  0  0  0  0  0  0  0
   -3.5097   23.0110  -26.3194 C   0  0  0  0  0  0  0  0  0  0  0  0
   -4.1370   24.2874  -25.8683 C   0  0  0  0  0  0  0  0  0  0  0  0
   -5.4247   24.5180  -26.4714 N   0  0  0  0  0  0  0  0  0  0  0  0
   -6.1520   24.4679  -25.7423 H   0  0  0  0  0  0  0  0  0  0  0  0
   -5.0847   25.6711  -28.6144 C   0  0  0  0  0  0  0  0  0  0  0  0
   -5.5007   25.7647  -27.1588 C   0  0  0  0  0  0  0  0  0  0  0  0
   -2.6609   23.7884  -22.0705 C   0  0  0  0  0  0  0  0  0  0  0  0
   -3.8942   23.1211  -22.4516 C   0  0  0  0  0  0  0  0  0  0  0  0
   -3.8980   21.8497  -22.9460 C   0  0  0  0  0  0  0  0  0  0  0  0
   -5.1008   21.2724  -23.2568 C   0  0  0  0  0  0  0  0  0  0  0  0
   -6.3136   21.8975  -23.1009 C   0  0  0  0  0  0  0  0  0  0  0  0
   -6.3440   23.1802  -22.6038 C   0  0  0  0  0  0  0  0  0  0  0  0
   -5.0942   23.7612  -22.2897 C   0  0  0  0  0  0  0  0  0  0  0  0
   -7.5306   23.8937  -22.3766 N   0  0  0  0  0  0  0  0  0  0  0  0
   -8.1556   24.7914  -23.2544 C   0  0  0  0  0  0  0  0  0  0  0  0
   -7.6943   25.0575  -24.4088 O   0  0  0  0  0  0  0  0  0  0  0  0
   -8.0321   23.7517  -21.4430 H   0  0  0  0  0  0  0  0  0  0  0  0
   -9.3902   25.4809  -22.8837 C   0  0  0  0  0  0  0  0  0  0  0  0
  -10.0235   25.2327  -21.7713 C   0  0  0  0  0  0  0  0  0  0  0  0
 32 33  1  0  0  0
 33 30  1  0  0  0
 30 29  1  0  0  0
 29 28  1  0  0  0
 28 27  1  0  0  0
 27 26  1  0  0  0
 26 24  1  0  0  0
 24  1  1  0  0  0
  1  2  2  0  0  0
  2  3  1  0  0  0
  3  4  2  0  0  0
  4  5  1  0  0  0
  5  6  1  0  0  0
  6  7  1  0  0  0
  7  8  2  0  0  0
  7  9  1  0  0  0
  9 34  1  0  0  0
 34 35  1  0  0  0
 35 36  2  0  0  0
 36 37  1  0  0  0
 37 38  2  0  0  0
 38 39  1  0  0  0
 39 41  1  0  0  0
 41 42  1  0  0  0
 42 43  2  0  0  0
 42 45  1  0  0  0
 45 46  2  0  0  0
 39 40  2  0  0  0
  9 10  1  0  0  0
 10 11  2  0  0  0
  6 12  1  0  0  0
 12 13  2  0  0  0
 13 14  1  0  0  0
 13 15  1  0  0  0
 15 20  1  0  0  0
 20 21  1  0  0  0
 15 16  2  0  0  0
 16 17  1  0  0  0
 17 22  1  0  0  0
 22 23  1  0  0  0
 17 18  2  0  0  0
 18 19  1  0  0  0
 11  1  1  0  0  0
 18 12  1  0  0  0
 10  4  1  0  0  0
 40 35  1  0  0  0
 30 31  1  0  0  0
 24 25  1  0  0  0
 41 44  1  0  0  0
M  END
> <minimizedAffinity>
-6.75798

> <CNNscore>
0.0679152980

> <CNNaffinity>
7.1198348999

> <CNN_VS>
0.4835457206

> <CNNaffinity_variance>
0.1821099371

$$$$
[H]C([H])=C([H])C(=O)N([H])c1c([H])c([H])c([H])c(C([H])([H])N2C(=O)N(c3c(Cl)c(OC([H])([H])[H])c([H])c(OC([H])([H])[H])c3Cl)C([H])([H])c3c([H])nc(N([H])C([H])([H])C([H])([H])C([H])([H])C([H])([H])N([H])C([H])([H])C([H])([H])[H])nc32)c1[H]


 46 49  0  0  0  0  0  0  0  0999 V2000
   -4.0245   20.8550  -17.5152 C   0  0  0  0  0  0  0  0  0  0  0  0
   -4.9974   20.4079  -18.3040 N   0  0  0  0  0  0  0  0  0  0  0  0
   -5.0434   20.7112  -19.5890 C   0  0  0  0  0  0  0  0  0  0  0  0
   -4.0499   21.5257  -20.1610 C   0  0  0  0  0  0  0  0  0  0  0  0
   -4.1678   21.7737  -21.6035 C   0  0  0  0  0  0  0  0  0  0  0  0
   -3.2173   22.7429  -22.0679 N   0  0  0  0  0  0  0  0  0  0  0  0
   -2.1755   23.2147  -21.2373 C   0  0  0  0  0  0  0  0  0  0  0  0
   -1.3392   23.9846  -21.7735 O   0  0  0  0  0  0  0  0  0  0  0  0
   -2.0309   22.8783  -19.8723 N   0  0  0  0  0  0  0  0  0  0  0  0
   -3.0332   22.0010  -19.3611 C   0  0  0  0  0  0  0  0  0  0  0  0
   -3.0608   21.6474  -18.0763 N   0  0  0  0  0  0  0  0  0  0  0  0
   -3.3474   23.2428  -23.4074 C   0  0  0  0  0  0  0  0  0  0  0  0
   -4.1779   24.2981  -23.6433 C   0  0  0  0  0  0  0  0  0  0  0  0
   -5.0696   24.9990  -22.3168 Cl  0  0  0  0  0  0  0  0  0  0  0  0
   -4.3178   24.8177  -24.9417 C   0  0  0  0  0  0  0  0  0  0  0  0
   -3.6101   24.2549  -25.9814 C   0  0  0  0  0  0  0  0  0  0  0  0
   -2.7731   23.1907  -25.7416 C   0  0  0  0  0  0  0  0  0  0  0  0
   -2.6527   22.6920  -24.4335 C   0  0  0  0  0  0  0  0  0  0  0  0
   -1.5911   21.3392  -24.1336 Cl  0  0  0  0  0  0  0  0  0  0  0  0
   -5.1714   25.8864  -25.1254 O   0  0  0  0  0  0  0  0  0  0  0  0
   -4.7490   27.2253  -25.2400 C   0  0  0  0  0  0  0  0  0  0  0  0
   -2.0430   22.5944  -26.7573 O   0  0  0  0  0  0  0  0  0  0  0  0
   -2.5063   22.7267  -28.0881 C   0  0  0  0  0  0  0  0  0  0  0  0
   -3.9331   20.5723  -16.1337 N   0  0  0  0  0  0  0  0  0  0  0  0
   -3.1228   20.0661  -15.7457 H   0  0  0  0  0  0  0  0  0  0  0  0
   -4.9774   20.9905  -15.2265 C   0  0  0  0  0  0  0  0  0  0  0  0
   -4.4633   22.1030  -14.3638 C   0  0  0  0  0  0  0  0  0  0  0  0
   -4.7716   23.4259  -15.0004 C   0  0  0  0  0  0  0  0  0  0  0  0
   -6.2373   23.7048  -15.0115 C   0  0  0  0  0  0  0  0  0  0  0  0
   -6.7076   24.1591  -16.2950 N   0  0  0  0  0  0  0  0  0  0  0  0
   -7.0616   25.1230  -16.2022 H   0  0  0  0  0  0  0  0  0  0  0  0
   -6.2597   24.2726  -18.7083 C   0  0  0  0  0  0  0  0  0  0  0  0
   -5.7057   24.0969  -17.3074 C   0  0  0  0  0  0  0  0  0  0  0  0
   -0.9918   23.3193  -18.9910 C   0  0  0  0  0  0  0  0  0  0  0  0
    0.3364   22.7598  -19.1762 C   0  0  0  0  0  0  0  0  0  0  0  0
    1.4499   23.3813  -18.6916 C   0  0  0  0  0  0  0  0  0  0  0  0
    2.6671   22.7809  -18.8776 C   0  0  0  0  0  0  0  0  0  0  0  0
    2.8393   21.5829  -19.5264 C   0  0  0  0  0  0  0  0  0  0  0  0
    1.7359   20.9303  -20.0262 C   0  0  0  0  0  0  0  0  0  0  0  0
    0.4882   21.5642  -19.8269 C   0  0  0  0  0  0  0  0  0  0  0  0
    1.8002   19.6881  -20.6755 N   0  0  0  0  0  0  0  0  0  0  0  0
    1.9515   18.4298  -20.0749 C   0  0  0  0  0  0  0  0  0  0  0  0
    2.0403   18.2754  -18.8161 O   0  0  0  0  0  0  0  0  0  0  0  0
    1.7245   19.6735  -21.7419 H   0  0  0  0  0  0  0  0  0  0  0  0
    2.0168   17.2087  -20.8759 C   0  0  0  0  0  0  0  0  0  0  0  0
    0.9845   16.4322  -21.0535 C   0  0  0  0  0  0  0  0  0  0  0  0
 32 33  1  0  0  0
 33 30  1  0  0  0
 30 29  1  0  0  0
 29 28  1  0  0  0
 28 27  1  0  0  0
 27 26  1  0  0  0
 26 24  1  0  0  0
 24  1  1  0  0  0
  1  2  2  0  0  0
  2  3  1  0  0  0
  3  4  2  0  0  0
  4  5  1  0  0  0
  5  6  1  0  0  0
  6  7  1  0  0  0
  7  8  2  0  0  0
  7  9  1  0  0  0
  9 34  1  0  0  0
 34 35  1  0  0  0
 35 36  2  0  0  0
 36 37  1  0  0  0
 37 38  2  0  0  0
 38 39  1  0  0  0
 39 41  1  0  0  0
 41 42  1  0  0  0
 42 43  2  0  0  0
 42 45  1  0  0  0
 45 46  2  0  0  0
 39 40  2  0  0  0
  9 10  1  0  0  0
 10 11  2  0  0  0
  6 12  1  0  0  0
 12 13  2  0  0  0
 13 14  1  0  0  0
 13 15  1  0  0  0
 15 20  1  0  0  0
 20 21  1  0  0  0
 15 16  2  0  0  0
 16 17  1  0  0  0
 17 22  1  0  0  0
 22 23  1  0  0  0
 17 18  2  0  0  0
 18 19  1  0  0  0
 11  1  1  0  0  0
 18 12  1  0  0  0
 10  4  1  0  0  0
 40 35  1  0  0  0
 30 31  1  0  0  0
 24 25  1  0  0  0
 41 44  1  0  0  0
M  END
> <minimizedAffinity>
-6.27161

> <CNNscore>
0.0673852414

> <CNNaffinity>
6.6764879227

> <CNN_VS>
0.4498967528

> <CNNaffinity_variance>
0.3722961545

$$$$
[H]C([H])=C([H])C(=O)N([H])c1c([H])c([H])c([H])c(C([H])([H])N2C(=O)N(c3c(Cl)c(OC([H])([H])[H])c([H])c(OC([H])([H])[H])c3Cl)C([H])([H])c3c([H])nc(N([H])C([H])([H])C([H])([H])C([H])([H])C([H])([H])N([H])C([H])([H])C([H])([H])[H])nc32)c1[H]


 46 49  0  0  0  0  0  0  0  0999 V2000
   -4.3749   20.7684  -17.5205 C   0  0  0  0  0  0  0  0  0  0  0  0
   -5.3519   20.3607  -18.3254 N   0  0  0  0  0  0  0  0  0  0  0  0
   -5.3717   20.6769  -19.6079 C   0  0  0  0  0  0  0  0  0  0  0  0
   -4.3450   21.4634  -20.1600 C   0  0  0  0  0  0  0  0  0  0  0  0
   -4.4365   21.7281  -21.6014 C   0  0  0  0  0  0  0  0  0  0  0  0
   -3.4489   22.6696  -22.0449 N   0  0  0  0  0  0  0  0  0  0  0  0
   -2.4028   23.0995  -21.1971 C   0  0  0  0  0  0  0  0  0  0  0  0
   -1.5350   23.8462  -21.7157 O   0  0  0  0  0  0  0  0  0  0  0  0
   -2.2865   22.7462  -19.8337 N   0  0  0  0  0  0  0  0  0  0  0  0
   -3.3234   21.8978  -19.3432 C   0  0  0  0  0  0  0  0  0  0  0  0
   -3.3788   21.5337  -18.0621 N   0  0  0  0  0  0  0  0  0  0  0  0
   -3.5456   23.1856  -23.3812 C   0  0  0  0  0  0  0  0  0  0  0  0
   -4.3239   24.2806  -23.6142 C   0  0  0  0  0  0  0  0  0  0  0  0
   -5.1915   25.0121  -22.2882 Cl  0  0  0  0  0  0  0  0  0  0  0  0
   -4.4299   24.8163  -24.9092 C   0  0  0  0  0  0  0  0  0  0  0  0
   -3.7418   24.2291  -25.9485 C   0  0  0  0  0  0  0  0  0  0  0  0
   -2.9573   23.1249  -25.7116 C   0  0  0  0  0  0  0  0  0  0  0  0
   -2.8701   22.6109  -24.4069 C   0  0  0  0  0  0  0  0  0  0  0  0
   -1.8753   21.2074  -24.1107 Cl  0  0  0  0  0  0  0  0  0  0  0  0
   -5.2309   25.9254  -25.0901 O   0  0  0  0  0  0  0  0  0  0  0  0
   -4.7410   27.2306  -25.2914 C   0  0  0  0  0  0  0  0  0  0  0  0
   -2.2486   22.5030  -26.7271 O   0  0  0  0  0  0  0  0  0  0  0  0
   -2.2886   23.0707  -28.0230 C   0  0  0  0  0  0  0  0  0  0  0  0
   -4.3103   20.4705  -16.1407 N   0  0  0  0  0  0  0  0  0  0  0  0
   -4.1319   19.5100  -15.8106 H   0  0  0  0  0  0  0  0  0  0  0  0
   -4.4912   21.5108  -15.1541 C   0  0  0  0  0  0  0  0  0  0  0  0
   -5.7025   22.3192  -15.5080 C   0  0  0  0  0  0  0  0  0  0  0  0
   -5.3326   23.7686  -15.6221 C   0  0  0  0  0  0  0  0  0  0  0  0
   -5.8733   24.5674  -14.4838 C   0  0  0  0  0  0  0  0  0  0  0  0
   -7.2999   24.7518  -14.5615 N   0  0  0  0  0  0  0  0  0  0  0  0
   -7.6845   24.1091  -15.2700 H   0  0  0  0  0  0  0  0  0  0  0  0
   -8.9753   23.4340  -13.3393 C   0  0  0  0  0  0  0  0  0  0  0  0
   -7.9542   24.5551  -13.3101 C   0  0  0  0  0  0  0  0  0  0  0  0
   -1.2447   23.1448  -18.9356 C   0  0  0  0  0  0  0  0  0  0  0  0
    0.0585   22.5211  -19.0902 C   0  0  0  0  0  0  0  0  0  0  0  0
    0.1968   21.2717  -19.6203 C   0  0  0  0  0  0  0  0  0  0  0  0
    1.4587   20.7581  -19.7637 C   0  0  0  0  0  0  0  0  0  0  0  0
    2.6032   21.4267  -19.4047 C   0  0  0  0  0  0  0  0  0  0  0  0
    2.4979   22.6892  -18.8678 C   0  0  0  0  0  0  0  0  0  0  0  0
    1.1888   23.2033  -18.7256 C   0  0  0  0  0  0  0  0  0  0  0  0
    3.6054   23.4678  -18.4992 N   0  0  0  0  0  0  0  0  0  0  0  0
    3.8599   24.0283  -17.2391 C   0  0  0  0  0  0  0  0  0  0  0  0
    3.0795   23.8730  -16.2475 O   0  0  0  0  0  0  0  0  0  0  0  0
    4.3504   23.6654  -19.2404 H   0  0  0  0  0  0  0  0  0  0  0  0
    5.0544   24.8346  -16.9936 C   0  0  0  0  0  0  0  0  0  0  0  0
    6.0461   24.8914  -17.8382 C   0  0  0  0  0  0  0  0  0  0  0  0
 32 33  1  0  0  0
 33 30  1  0  0  0
 30 29  1  0  0  0
 29 28  1  0  0  0
 28 27  1  0  0  0
 27 26  1  0  0  0
 26 24  1  0  0  0
 24  1  1  0  0  0
  1  2  2  0  0  0
  2  3  1  0  0  0
  3  4  2  0  0  0
  4  5  1  0  0  0
  5  6  1  0  0  0
  6  7  1  0  0  0
  7  8  2  0  0  0
  7  9  1  0  0  0
  9 34  1  0  0  0
 34 35  1  0  0  0
 35 36  2  0  0  0
 36 37  1  0  0  0
 37 38  2  0  0  0
 38 39  1  0  0  0
 39 41  1  0  0  0
 41 42  1  0  0  0
 42 43  2  0  0  0
 42 45  1  0  0  0
 45 46  2  0  0  0
 39 40  2  0  0  0
  9 10  1  0  0  0
 10 11  2  0  0  0
  6 12  1  0  0  0
 12 13  2  0  0  0
 13 14  1  0  0  0
 13 15  1  0  0  0
 15 20  1  0  0  0
 20 21  1  0  0  0
 15 16  2  0  0  0
 16 17  1  0  0  0
 17 22  1  0  0  0
 22 23  1  0  0  0
 17 18  2  0  0  0
 18 19  1  0  0  0
 11  1  1  0  0  0
 18 12  1  0  0  0
 10  4  1  0  0  0
 40 35  1  0  0  0
 30 31  1  0  0  0
 24 25  1  0  0  0
 41 44  1  0  0  0
M  END
> <minimizedAffinity>
-6.71801

> <CNNscore>
0.0657381862

> <CNNaffinity>
6.4498977661

> <CNN_VS>
0.4240045846

> <CNNaffinity_variance>
0.2582094967

$$$$
[H]C([H])=C([H])C(=O)N([H])c1c([H])c([H])c([H])c(C([H])([H])N2C(=O)N(c3c(Cl)c(OC([H])([H])[H])c([H])c(OC([H])([H])[H])c3Cl)C([H])([H])c3c([H])nc(N([H])C([H])([H])C([H])([H])C([H])([H])C([H])([H])N([H])C([H])([H])C([H])([H])[H])nc32)c1[H]


 46 49  0  0  0  0  0  0  0  0999 V2000
   -4.9152   21.2807  -17.8009 C   0  0  0  0  0  0  0  0  0  0  0  0
   -5.8304   20.8649  -18.6717 N   0  0  0  0  0  0  0  0  0  0  0  0
   -5.6978   21.0721  -19.9696 C   0  0  0  0  0  0  0  0  0  0  0  0
   -4.5692   21.7469  -20.4681 C   0  0  0  0  0  0  0  0  0  0  0  0
   -4.4951   21.8936  -21.9272 C   0  0  0  0  0  0  0  0  0  0  0  0
   -3.4058   22.7341  -22.3343 N   0  0  0  0  0  0  0  0  0  0  0  0
   -2.4249   23.1714  -21.4154 C   0  0  0  0  0  0  0  0  0  0  0  0
   -1.4602   23.8189  -21.8946 O   0  0  0  0  0  0  0  0  0  0  0  0
   -2.4726   22.9284  -20.0240 N   0  0  0  0  0  0  0  0  0  0  0  0
   -3.6091   22.1875  -19.5828 C   0  0  0  0  0  0  0  0  0  0  0  0
   -3.8195   21.9370  -18.2906 N   0  0  0  0  0  0  0  0  0  0  0  0
   -3.3306   23.1400  -23.7094 C   0  0  0  0  0  0  0  0  0  0  0  0
   -2.5002   22.4659  -24.5550 C   0  0  0  0  0  0  0  0  0  0  0  0
   -1.5425   21.1427  -23.9401 Cl  0  0  0  0  0  0  0  0  0  0  0  0
   -2.4130   22.8318  -25.9092 C   0  0  0  0  0  0  0  0  0  0  0  0
   -3.1726   23.8792  -26.3828 C   0  0  0  0  0  0  0  0  0  0  0  0
   -4.0094   24.5580  -25.5285 C   0  0  0  0  0  0  0  0  0  0  0  0
   -4.0764   24.1702  -24.1796 C   0  0  0  0  0  0  0  0  0  0  0  0
   -5.1379   25.0361  -23.0978 Cl  0  0  0  0  0  0  0  0  0  0  0  0
   -1.5572   22.1164  -26.7218 O   0  0  0  0  0  0  0  0  0  0  0  0
   -0.3786   22.6420  -27.2864 C   0  0  0  0  0  0  0  0  0  0  0  0
   -4.7907   25.6171  -25.9622 O   0  0  0  0  0  0  0  0  0  0  0  0
   -5.1191   25.6944  -27.3368 C   0  0  0  0  0  0  0  0  0  0  0  0
   -5.0120   21.0972  -16.4031 N   0  0  0  0  0  0  0  0  0  0  0  0
   -5.0328   20.1528  -15.9897 H   0  0  0  0  0  0  0  0  0  0  0  0
   -5.0819   22.2349  -15.5148 C   0  0  0  0  0  0  0  0  0  0  0  0
   -3.8033   22.3329  -14.7392 C   0  0  0  0  0  0  0  0  0  0  0  0
   -3.9884   21.7392  -13.3739 C   0  0  0  0  0  0  0  0  0  0  0  0
   -3.4887   22.6506  -12.3035 C   0  0  0  0  0  0  0  0  0  0  0  0
   -2.0602   22.5780  -12.1329 N   0  0  0  0  0  0  0  0  0  0  0  0
   -1.7775   23.2240  -11.3807 H   0  0  0  0  0  0  0  0  0  0  0  0
   -1.5063   20.9661  -10.3631 C   0  0  0  0  0  0  0  0  0  0  0  0
   -1.6013   21.2585  -11.8483 C   0  0  0  0  0  0  0  0  0  0  0  0
   -1.5032   23.3392  -19.0532 C   0  0  0  0  0  0  0  0  0  0  0  0
   -0.2272   22.6442  -19.0338 C   0  0  0  0  0  0  0  0  0  0  0  0
   -0.1303   21.3154  -19.3270 C   0  0  0  0  0  0  0  0  0  0  0  0
    1.1093   20.7324  -19.3180 C   0  0  0  0  0  0  0  0  0  0  0  0
    2.2707   21.4063  -19.0303 C   0  0  0  0  0  0  0  0  0  0  0  0
    2.2071   22.7479  -18.7312 C   0  0  0  0  0  0  0  0  0  0  0  0
    0.9204   23.3331  -18.7435 C   0  0  0  0  0  0  0  0  0  0  0  0
    3.3366   23.5332  -18.4551 N   0  0  0  0  0  0  0  0  0  0  0  0
    3.7408   24.0177  -17.2026 C   0  0  0  0  0  0  0  0  0  0  0  0
    3.0994   23.7750  -16.1322 O   0  0  0  0  0  0  0  0  0  0  0  0
    3.9746   23.8007  -19.2704 H   0  0  0  0  0  0  0  0  0  0  0  0
    4.9400   24.8412  -17.0577 C   0  0  0  0  0  0  0  0  0  0  0  0
    6.0454   24.3826  -16.5402 C   0  0  0  0  0  0  0  0  0  0  0  0
 32 33  1  0  0  0
 33 30  1  0  0  0
 30 29  1  0  0  0
 29 28  1  0  0  0
 28 27  1  0  0  0
 27 26  1  0  0  0
 26 24  1  0  0  0
 24  1  1  0  0  0
  1  2  2  0  0  0
  2  3  1  0  0  0
  3  4  2  0  0  0
  4  5  1  0  0  0
  5  6  1  0  0  0
  6  7  1  0  0  0
  7  8  2  0  0  0
  7  9  1  0  0  0
  9 34  1  0  0  0
 34 35  1  0  0  0
 35 36  2  0  0  0
 36 37  1  0  0  0
 37 38  2  0  0  0
 38 39  1  0  0  0
 39 41  1  0  0  0
 41 42  1  0  0  0
 42 43  2  0  0  0
 42 45  1  0  0  0
 45 46  2  0  0  0
 39 40  2  0  0  0
  9 10  1  0  0  0
 10 11  2  0  0  0
  6 12  1  0  0  0
 12 13  2  0  0  0
 13 14  1  0  0  0
 13 15  1  0  0  0
 15 20  1  0  0  0
 20 21  1  0  0  0
 15 16  2  0  0  0
 16 17  1  0  0  0
 17 22  1  0  0  0
 22 23  1  0  0  0
 17 18  2  0  0  0
 18 19  1  0  0  0
 11  1  1  0  0  0
 18 12  1  0  0  0
 10  4  1  0  0  0
 40 35  1  0  0  0
 30 31  1  0  0  0
 24 25  1  0  0  0
 41 44  1  0  0  0
M  END
> <minimizedAffinity>
-6.30475

> <CNNscore>
0.0632307306

> <CNNaffinity>
6.4969291687

> <CNN_VS>
0.4108055830

> <CNNaffinity_variance>
0.1637189686

$$$$
[H]C([H])=C([H])C(=O)N([H])c1c([H])c([H])c([H])c(C([H])([H])N2C(=O)N(c3c(Cl)c(OC([H])([H])[H])c([H])c(OC([H])([H])[H])c3Cl)C([H])([H])c3c([H])nc(N([H])C([H])([H])C([H])([H])C([H])([H])C([H])([H])N([H])C([H])([H])C([H])([H])[H])nc32)c1[H]


 46 49  0  0  0  0  0  0  0  0999 V2000
    0.4556   22.3326  -24.8304 C   0  0  0  0  0  0  0  0  0  0  0  0
    1.3269   21.4371  -24.3747 N   0  0  0  0  0  0  0  0  0  0  0  0
    1.3191   21.0403  -23.1146 C   0  0  0  0  0  0  0  0  0  0  0  0
    0.3755   21.5633  -22.2126 C   0  0  0  0  0  0  0  0  0  0  0  0
    0.4236   21.0312  -20.8449 C   0  0  0  0  0  0  0  0  0  0  0  0
   -0.4553   21.7357  -19.9563 N   0  0  0  0  0  0  0  0  0  0  0  0
   -1.3897   22.6817  -20.4356 C   0  0  0  0  0  0  0  0  0  0  0  0
   -2.1794   23.1662  -19.5863 O   0  0  0  0  0  0  0  0  0  0  0  0
   -1.4780   23.1022  -21.7820 N   0  0  0  0  0  0  0  0  0  0  0  0
   -0.5358   22.4937  -22.6636 C   0  0  0  0  0  0  0  0  0  0  0  0
   -0.4599   22.8388  -23.9489 N   0  0  0  0  0  0  0  0  0  0  0  0
   -0.3637   21.4695  -18.5485 C   0  0  0  0  0  0  0  0  0  0  0  0
    0.5739   22.1276  -17.8090 C   0  0  0  0  0  0  0  0  0  0  0  0
    1.6444   23.2597  -18.5955 Cl  0  0  0  0  0  0  0  0  0  0  0  0
    0.6808   21.8973  -16.4267 C   0  0  0  0  0  0  0  0  0  0  0  0
   -0.1686   20.9999  -15.8172 C   0  0  0  0  0  0  0  0  0  0  0  0
   -1.1135   20.3371  -16.5645 C   0  0  0  0  0  0  0  0  0  0  0  0
   -1.1977   20.5872  -17.9446 C   0  0  0  0  0  0  0  0  0  0  0  0
   -2.3969   19.7418  -18.8903 Cl  0  0  0  0  0  0  0  0  0  0  0  0
    1.6469   22.5898  -15.7254 O   0  0  0  0  0  0  0  0  0  0  0  0
    2.2669   22.1141  -14.5534 C   0  0  0  0  0  0  0  0  0  0  0  0
   -1.9876   19.4264  -15.9926 O   0  0  0  0  0  0  0  0  0  0  0  0
   -3.0270   19.9167  -15.1664 C   0  0  0  0  0  0  0  0  0  0  0  0
    0.4265   22.8012  -26.1632 N   0  0  0  0  0  0  0  0  0  0  0  0
    1.0495   23.5616  -26.4745 H   0  0  0  0  0  0  0  0  0  0  0  0
   -0.4801   22.2209  -27.1274 C   0  0  0  0  0  0  0  0  0  0  0  0
   -1.8892   22.5523  -26.7393 C   0  0  0  0  0  0  0  0  0  0  0  0
   -2.6648   22.9787  -27.9506 C   0  0  0  0  0  0  0  0  0  0  0  0
   -3.8567   23.7972  -27.5826 C   0  0  0  0  0  0  0  0  0  0  0  0
   -3.7232   24.4265  -26.2937 N   0  0  0  0  0  0  0  0  0  0  0  0
   -2.8393   24.9566  -26.2676 H   0  0  0  0  0  0  0  0  0  0  0  0
   -4.4261   26.4631  -25.1124 C   0  0  0  0  0  0  0  0  0  0  0  0
   -4.8199   25.2803  -25.9763 C   0  0  0  0  0  0  0  0  0  0  0  0
   -2.4096   24.0471  -22.3206 C   0  0  0  0  0  0  0  0  0  0  0  0
   -3.7336   23.5657  -22.6766 C   0  0  0  0  0  0  0  0  0  0  0  0
   -3.9083   22.4769  -23.4798 C   0  0  0  0  0  0  0  0  0  0  0  0
   -5.1856   22.0616  -23.7497 C   0  0  0  0  0  0  0  0  0  0  0  0
   -6.3110   22.6767  -23.2589 C   0  0  0  0  0  0  0  0  0  0  0  0
   -6.1688   23.7770  -22.4451 C   0  0  0  0  0  0  0  0  0  0  0  0
   -4.8444   24.1929  -22.1780 C   0  0  0  0  0  0  0  0  0  0  0  0
   -7.2517   24.4567  -21.8670 N   0  0  0  0  0  0  0  0  0  0  0  0
   -7.8712   25.6191  -22.3484 C   0  0  0  0  0  0  0  0  0  0  0  0
   -7.5043   26.2012  -23.4174 O   0  0  0  0  0  0  0  0  0  0  0  0
   -7.6685   24.0633  -20.9644 H   0  0  0  0  0  0  0  0  0  0  0  0
   -8.9896   26.2345  -21.6359 C   0  0  0  0  0  0  0  0  0  0  0  0
   -8.8745   26.7040  -20.4250 C   0  0  0  0  0  0  0  0  0  0  0  0
 32 33  1  0  0  0
 33 30  1  0  0  0
 30 29  1  0  0  0
 29 28  1  0  0  0
 28 27  1  0  0  0
 27 26  1  0  0  0
 26 24  1  0  0  0
 24  1  1  0  0  0
  1  2  2  0  0  0
  2  3  1  0  0  0
  3  4  2  0  0  0
  4  5  1  0  0  0
  5  6  1  0  0  0
  6  7  1  0  0  0
  7  8  2  0  0  0
  7  9  1  0  0  0
  9 34  1  0  0  0
 34 35  1  0  0  0
 35 36  2  0  0  0
 36 37  1  0  0  0
 37 38  2  0  0  0
 38 39  1  0  0  0
 39 41  1  0  0  0
 41 42  1  0  0  0
 42 43  2  0  0  0
 42 45  1  0  0  0
 45 46  2  0  0  0
 39 40  2  0  0  0
  9 10  1  0  0  0
 10 11  2  0  0  0
  6 12  1  0  0  0
 12 13  2  0  0  0
 13 14  1  0  0  0
 13 15  1  0  0  0
 15 20  1  0  0  0
 20 21  1  0  0  0
 15 16  2  0  0  0
 16 17  1  0  0  0
 17 22  1  0  0  0
 22 23  1  0  0  0
 17 18  2  0  0  0
 18 19  1  0  0  0
 11  1  1  0  0  0
 18 12  1  0  0  0
 10  4  1  0  0  0
 40 35  1  0  0  0
 30 31  1  0  0  0
 24 25  1  0  0  0
 41 44  1  0  0  0
M  END
> <minimizedAffinity>
-6.88122

> <CNNscore>
0.0610837303

> <CNNaffinity>
6.9036607742

> <CNN_VS>
0.4217013419

> <CNNaffinity_variance>
0.4587709904

$$$$
[H]C([H])=C([H])C(=O)N([H])c1c([H])c([H])c([H])c(C([H])([H])N2C(=O)N(c3c(Cl)c(OC([H])([H])[H])c([H])c(OC([H])([H])[H])c3Cl)C([H])([H])c3c([H])nc(N([H])C([H])([H])C([H])([H])C([H])([H])C([H])([H])N([H])C([H])([H])C([H])([H])[H])nc32)c1[H]


 46 49  0  0  0  0  0  0  0  0999 V2000
   -3.6186   20.8444  -17.4616 C   0  0  0  0  0  0  0  0  0  0  0  0
   -4.6683   20.4197  -18.1590 N   0  0  0  0  0  0  0  0  0  0  0  0
   -4.8346   20.7436  -19.4289 C   0  0  0  0  0  0  0  0  0  0  0  0
   -3.8918   21.5569  -20.0824 C   0  0  0  0  0  0  0  0  0  0  0  0
   -4.1456   21.8287  -21.5029 C   0  0  0  0  0  0  0  0  0  0  0  0
   -3.2332   22.7954  -22.0428 N   0  0  0  0  0  0  0  0  0  0  0  0
   -2.1107   23.2436  -21.3101 C   0  0  0  0  0  0  0  0  0  0  0  0
   -1.3212   24.0134  -21.9133 O   0  0  0  0  0  0  0  0  0  0  0  0
   -1.8388   22.8843  -19.9706 N   0  0  0  0  0  0  0  0  0  0  0  0
   -2.7971   22.0093  -19.3777 C   0  0  0  0  0  0  0  0  0  0  0  0
   -2.7046   21.6358  -18.1016 N   0  0  0  0  0  0  0  0  0  0  0  0
   -3.4863   23.3176  -23.3560 C   0  0  0  0  0  0  0  0  0  0  0  0
   -2.8441   22.7649  -24.4242 C   0  0  0  0  0  0  0  0  0  0  0  0
   -1.7231   21.4527  -24.1641 Cl  0  0  0  0  0  0  0  0  0  0  0  0
   -3.0794   23.2463  -25.7236 C   0  0  0  0  0  0  0  0  0  0  0  0
   -3.9652   24.2839  -25.9164 C   0  0  0  0  0  0  0  0  0  0  0  0
   -4.6118   24.8401  -24.8379 C   0  0  0  0  0  0  0  0  0  0  0  0
   -4.3572   24.3386  -23.5502 C   0  0  0  0  0  0  0  0  0  0  0  0
   -5.1781   25.0492  -22.1834 Cl  0  0  0  0  0  0  0  0  0  0  0  0
   -2.4034   22.6513  -26.7693 O   0  0  0  0  0  0  0  0  0  0  0  0
   -2.5403   23.0324  -28.1184 C   0  0  0  0  0  0  0  0  0  0  0  0
   -5.5101   25.8849  -24.9860 O   0  0  0  0  0  0  0  0  0  0  0  0
   -5.0400   27.1076  -25.5221 C   0  0  0  0  0  0  0  0  0  0  0  0
   -3.3975   20.5392  -16.0997 N   0  0  0  0  0  0  0  0  0  0  0  0
   -4.0904   20.7891  -15.3781 H   0  0  0  0  0  0  0  0  0  0  0  0
   -2.1896   19.8635  -15.6839 C   0  0  0  0  0  0  0  0  0  0  0  0
   -1.3695   20.7946  -14.8432 C   0  0  0  0  0  0  0  0  0  0  0  0
   -0.2869   21.4141  -15.6766 C   0  0  0  0  0  0  0  0  0  0  0  0
    0.9918   20.6520  -15.5754 C   0  0  0  0  0  0  0  0  0  0  0  0
    1.9001   21.2149  -14.6093 N   0  0  0  0  0  0  0  0  0  0  0  0
    2.8621   20.9284  -14.8446 H   0  0  0  0  0  0  0  0  0  0  0  0
    2.9537   23.3445  -15.2358 C   0  0  0  0  0  0  0  0  0  0  0  0
    1.8144   22.6357  -14.5286 C   0  0  0  0  0  0  0  0  0  0  0  0
   -0.7144   23.3009  -19.1876 C   0  0  0  0  0  0  0  0  0  0  0  0
    0.4452   22.4261  -19.1483 C   0  0  0  0  0  0  0  0  0  0  0  0
    1.6707   22.8778  -18.7544 C   0  0  0  0  0  0  0  0  0  0  0  0
    2.7129   21.9897  -18.7134 C   0  0  0  0  0  0  0  0  0  0  0  0
    2.6016   20.6621  -19.0465 C   0  0  0  0  0  0  0  0  0  0  0  0
    1.3787   20.1750  -19.4471 C   0  0  0  0  0  0  0  0  0  0  0  0
    0.3147   21.1050  -19.4851 C   0  0  0  0  0  0  0  0  0  0  0  0
    1.1521   18.8302  -19.7771 N   0  0  0  0  0  0  0  0  0  0  0  0
    1.7773   18.0950  -20.7947 C   0  0  0  0  0  0  0  0  0  0  0  0
    2.6661   18.5927  -21.5554 O   0  0  0  0  0  0  0  0  0  0  0  0
    0.4329   18.2857  -19.2030 H   0  0  0  0  0  0  0  0  0  0  0  0
    1.4355   16.6950  -21.0401 C   0  0  0  0  0  0  0  0  0  0  0  0
    2.0617   15.9659  -21.9212 C   0  0  0  0  0  0  0  0  0  0  0  0
 32 33  1  0  0  0
 33 30  1  0  0  0
 30 29  1  0  0  0
 29 28  1  0  0  0
 28 27  1  0  0  0
 27 26  1  0  0  0
 26 24  1  0  0  0
 24  1  1  0  0  0
  1  2  2  0  0  0
  2  3  1  0  0  0
  3  4  2  0  0  0
  4  5  1  0  0  0
  5  6  1  0  0  0
  6  7  1  0  0  0
  7  8  2  0  0  0
  7  9  1  0  0  0
  9 34  1  0  0  0
 34 35  1  0  0  0
 35 36  2  0  0  0
 36 37  1  0  0  0
 37 38  2  0  0  0
 38 39  1  0  0  0
 39 41  1  0  0  0
 41 42  1  0  0  0
 42 43  2  0  0  0
 42 45  1  0  0  0
 45 46  2  0  0  0
 39 40  2  0  0  0
  9 10  1  0  0  0
 10 11  2  0  0  0
  6 12  1  0  0  0
 12 13  2  0  0  0
 13 14  1  0  0  0
 13 15  1  0  0  0
 15 20  1  0  0  0
 20 21  1  0  0  0
 15 16  2  0  0  0
 16 17  1  0  0  0
 17 22  1  0  0  0
 22 23  1  0  0  0
 17 18  2  0  0  0
 18 19  1  0  0  0
 11  1  1  0  0  0
 18 12  1  0  0  0
 10  4  1  0  0  0
 40 35  1  0  0  0
 30 31  1  0  0  0
 24 25  1  0  0  0
 41 44  1  0  0  0
M  END
> <minimizedAffinity>
-6.06274

> <CNNscore>
0.0499974564

> <CNNaffinity>
6.4496817589

> <CNN_VS>
0.3224676847

> <CNNaffinity_variance>
0.3586070538

$$$$
[H]C([H])=C([H])C(=O)N([H])c1c([H])c([H])c([H])c(C([H])([H])N2C(=O)N(c3c(Cl)c(OC([H])([H])[H])c([H])c(OC([H])([H])[H])c3Cl)C([H])([H])c3c([H])nc(N([H])C([H])([H])C([H])([H])C([H])([H])C([H])([H])N([H])C([H])([H])C([H])([H])[H])nc32)c1[H]


 46 49  0  0  0  0  0  0  0  0999 V2000
   -3.9906   21.1224  -17.4576 C   0  0  0  0  0  0  0  0  0  0  0  0
   -5.0146   20.7081  -18.1982 N   0  0  0  0  0  0  0  0  0  0  0  0
   -5.0805   20.9591  -19.4935 C   0  0  0  0  0  0  0  0  0  0  0  0
   -4.0541   21.6807  -20.1288 C   0  0  0  0  0  0  0  0  0  0  0  0
   -4.2002   21.8747  -21.5769 C   0  0  0  0  0  0  0  0  0  0  0  0
   -3.2032   22.7578  -22.1103 N   0  0  0  0  0  0  0  0  0  0  0  0
   -2.1076   23.1940  -21.3311 C   0  0  0  0  0  0  0  0  0  0  0  0
   -1.2398   23.8830  -21.9242 O   0  0  0  0  0  0  0  0  0  0  0  0
   -1.9431   22.9067  -19.9571 N   0  0  0  0  0  0  0  0  0  0  0  0
   -2.9842   22.1206  -19.3796 C   0  0  0  0  0  0  0  0  0  0  0  0
   -2.9951   21.8243  -18.0801 N   0  0  0  0  0  0  0  0  0  0  0  0
   -3.3418   23.2082  -23.4665 C   0  0  0  0  0  0  0  0  0  0  0  0
   -2.6476   22.5698  -24.4511 C   0  0  0  0  0  0  0  0  0  0  0  0
   -1.6001   21.2374  -24.0342 Cl  0  0  0  0  0  0  0  0  0  0  0  0
   -2.7710   22.9796  -25.7899 C   0  0  0  0  0  0  0  0  0  0  0  0
   -3.5995   24.0339  -26.1067 C   0  0  0  0  0  0  0  0  0  0  0  0
   -4.2988   24.6766  -25.1123 C   0  0  0  0  0  0  0  0  0  0  0  0
   -4.1561   24.2453  -23.7827 C   0  0  0  0  0  0  0  0  0  0  0  0
   -5.0435   25.0654  -22.5230 Cl  0  0  0  0  0  0  0  0  0  0  0  0
   -2.0463   22.2992  -26.7471 O   0  0  0  0  0  0  0  0  0  0  0  0
   -0.8240   22.7502  -27.2826 C   0  0  0  0  0  0  0  0  0  0  0  0
   -5.1427   25.7411  -25.3860 O   0  0  0  0  0  0  0  0  0  0  0  0
   -4.5863   27.0402  -25.4633 C   0  0  0  0  0  0  0  0  0  0  0  0
   -3.8751   20.8930  -16.0680 N   0  0  0  0  0  0  0  0  0  0  0  0
   -3.1118   20.3153  -15.6849 H   0  0  0  0  0  0  0  0  0  0  0  0
   -4.8278   21.4677  -15.1458 C   0  0  0  0  0  0  0  0  0  0  0  0
   -4.4202   22.8751  -14.8308 C   0  0  0  0  0  0  0  0  0  0  0  0
   -5.3108   23.8387  -15.5581 C   0  0  0  0  0  0  0  0  0  0  0  0
   -6.6451   23.2406  -15.8549 C   0  0  0  0  0  0  0  0  0  0  0  0
   -7.0226   23.3810  -17.2379 N   0  0  0  0  0  0  0  0  0  0  0  0
   -7.9908   23.7317  -17.2889 H   0  0  0  0  0  0  0  0  0  0  0  0
   -6.5637   24.4242  -19.4148 C   0  0  0  0  0  0  0  0  0  0  0  0
   -6.1484   24.2387  -17.9679 C   0  0  0  0  0  0  0  0  0  0  0  0
   -0.8506   23.3145  -19.1258 C   0  0  0  0  0  0  0  0  0  0  0  0
    0.3334   22.4724  -19.1017 C   0  0  0  0  0  0  0  0  0  0  0  0
    1.5520   22.9597  -18.7296 C   0  0  0  0  0  0  0  0  0  0  0  0
    2.6190   22.1009  -18.7018 C   0  0  0  0  0  0  0  0  0  0  0  0
    2.5393   20.7693  -19.0276 C   0  0  0  0  0  0  0  0  0  0  0  0
    1.3241   20.2466  -19.4064 C   0  0  0  0  0  0  0  0  0  0  0  0
    0.2343   21.1466  -19.4309 C   0  0  0  0  0  0  0  0  0  0  0  0
    1.1298   18.8946  -19.7271 N   0  0  0  0  0  0  0  0  0  0  0  0
    1.7456   18.1770  -20.7628 C   0  0  0  0  0  0  0  0  0  0  0  0
    2.5940   18.7005  -21.5518 O   0  0  0  0  0  0  0  0  0  0  0  0
    0.4464   18.3292  -19.1299 H   0  0  0  0  0  0  0  0  0  0  0  0
    1.4405   16.7663  -20.9954 C   0  0  0  0  0  0  0  0  0  0  0  0
    2.1290   16.0283  -21.8209 C   0  0  0  0  0  0  0  0  0  0  0  0
 32 33  1  0  0  0
 33 30  1  0  0  0
 30 29  1  0  0  0
 29 28  1  0  0  0
 28 27  1  0  0  0
 27 26  1  0  0  0
 26 24  1  0  0  0
 24  1  1  0  0  0
  1  2  2  0  0  0
  2  3  1  0  0  0
  3  4  2  0  0  0
  4  5  1  0  0  0
  5  6  1  0  0  0
  6  7  1  0  0  0
  7  8  2  0  0  0
  7  9  1  0  0  0
  9 34  1  0  0  0
 34 35  1  0  0  0
 35 36  2  0  0  0
 36 37  1  0  0  0
 37 38  2  0  0  0
 38 39  1  0  0  0
 39 41  1  0  0  0
 41 42  1  0  0  0
 42 43  2  0  0  0
 42 45  1  0  0  0
 45 46  2  0  0  0
 39 40  2  0  0  0
  9 10  1  0  0  0
 10 11  2  0  0  0
  6 12  1  0  0  0
 12 13  2  0  0  0
 13 14  1  0  0  0
 13 15  1  0  0  0
 15 20  1  0  0  0
 20 21  1  0  0  0
 15 16  2  0  0  0
 16 17  1  0  0  0
 17 22  1  0  0  0
 22 23  1  0  0  0
 17 18  2  0  0  0
 18 19  1  0  0  0
 11  1  1  0  0  0
 18 12  1  0  0  0
 10  4  1  0  0  0
 40 35  1  0  0  0
 30 31  1  0  0  0
 24 25  1  0  0  0
 41 44  1  0  0  0
M  END
> <minimizedAffinity>
-6.38315

> <CNNscore>
0.0459432825

> <CNNaffinity>
6.3946590424

> <CNN_VS>
0.2937916219

> <CNNaffinity_variance>
0.4363408089

$$$$
[H]c1nc2c([H])c([H])c(N(c3c(Cl)c(OC([H])([H])[H])c([H])c(OC([H])([H])[H])c3Cl)C([H])([H])c3nc([H])c([H])n3[H])nc2c([H])c1-c1c([H])nn(C([H])([H])[H])c1[H]


 36 40  0  0  0  0  0  0  0  0999 V2000
   -5.7604   23.2561  -25.8630 N   0  0  0  0  0  0  0  0  0  0  0  0
   -4.3382   23.0274  -25.9959 C   0  0  0  0  0  0  0  0  0  0  0  0
   -3.7069   23.1951  -27.2074 C   0  0  0  0  0  0  0  0  0  0  0  0
   -2.3549   22.9892  -27.3811 C   0  0  0  0  0  0  0  0  0  0  0  0
   -1.6457   22.5970  -26.2544 C   0  0  0  0  0  0  0  0  0  0  0  0
   -0.3186   22.3826  -26.3719 N   0  0  0  0  0  0  0  0  0  0  0  0
    0.3688   22.0050  -25.2904 C   0  0  0  0  0  0  0  0  0  0  0  0
   -0.2101   21.8186  -24.0397 C   0  0  0  0  0  0  0  0  0  0  0  0
   -1.5481   22.0324  -23.9109 C   0  0  0  0  0  0  0  0  0  0  0  0
   -2.2662   22.4254  -25.0343 C   0  0  0  0  0  0  0  0  0  0  0  0
   -3.6033   22.6467  -24.9384 N   0  0  0  0  0  0  0  0  0  0  0  0
    0.6300   21.4042  -22.9197 C   0  0  0  0  0  0  0  0  0  0  0  0
    0.2059   21.2581  -21.6175 C   0  0  0  0  0  0  0  0  0  0  0  0
    1.2931   20.8627  -20.9079 N   0  0  0  0  0  0  0  0  0  0  0  0
    2.3533   20.7515  -21.6588 N   0  0  0  0  0  0  0  0  0  0  0  0
    3.6806   20.3532  -21.2363 C   0  0  0  0  0  0  0  0  0  0  0  0
    1.9691   21.0828  -22.9162 C   0  0  0  0  0  0  0  0  0  0  0  0
   -6.9303   24.9491  -22.7969 C   0  0  0  0  0  0  0  0  0  0  0  0
   -7.1712   23.8455  -21.9825 C   0  0  0  0  0  0  0  0  0  0  0  0
   -6.9680   22.5630  -22.4326 C   0  0  0  0  0  0  0  0  0  0  0  0
   -6.5084   22.3386  -23.7367 C   0  0  0  0  0  0  0  0  0  0  0  0
   -6.2935   20.7168  -24.3381 Cl  0  0  0  0  0  0  0  0  0  0  0  0
   -6.2641   23.4049  -24.5525 C   0  0  0  0  0  0  0  0  0  0  0  0
   -6.4796   24.7047  -24.0709 C   0  0  0  0  0  0  0  0  0  0  0  0
   -6.1697   26.0688  -25.1124 Cl  0  0  0  0  0  0  0  0  0  0  0  0
   -7.9402   26.4320  -21.1932 C   0  0  0  0  0  0  0  0  0  0  0  0
   -7.1353   26.2530  -22.3460 O   0  0  0  0  0  0  0  0  0  0  0  0
   -7.2040   21.4604  -21.6318 O   0  0  0  0  0  0  0  0  0  0  0  0
   -8.0250   21.4627  -20.5053 C   0  0  0  0  0  0  0  0  0  0  0  0
   -6.5607   23.3174  -27.0365 C   0  0  0  0  0  0  0  0  0  0  0  0
   -6.0661   24.1734  -28.1349 C   0  0  0  0  0  0  0  0  0  0  0  0
   -5.8262   23.8131  -29.4144 N   0  0  0  0  0  0  0  0  0  0  0  0
   -5.4060   24.8795  -30.0868 C   0  0  0  0  0  0  0  0  0  0  0  0
   -5.3730   25.9459  -29.2313 C   0  0  0  0  0  0  0  0  0  0  0  0
   -5.7817   25.4837  -28.0460 N   0  0  0  0  0  0  0  0  0  0  0  0
   -5.8660   26.0761  -27.1650 H   0  0  0  0  0  0  0  0  0  0  0  0
 26 27  1  0  0  0
 27 18  1  0  0  0
 18 19  2  0  0  0
 19 20  1  0  0  0
 20 28  1  0  0  0
 28 29  1  0  0  0
 20 21  2  0  0  0
 21 22  1  0  0  0
 21 23  1  0  0  0
 23  1  1  0  0  0
  1 30  1  0  0  0
 30 31  1  0  0  0
 31 32  2  0  0  0
 32 33  1  0  0  0
 33 34  2  0  0  0
 34 35  1  0  0  0
  1  2  1  0  0  0
  2  3  2  0  0  0
  3  4  1  0  0  0
  4  5  2  0  0  0
  5  6  1  0  0  0
  6  7  2  0  0  0
  7  8  1  0  0  0
  8  9  2  0  0  0
  9 10  1  0  0  0
 10 11  2  0  0  0
  8 12  1  0  0  0
 12 13  1  0  0  0
 13 14  2  0  0  0
 14 15  1  0  0  0
 15 16  1  0  0  0
 15 17  1  0  0  0
 23 24  2  0  0  0
 24 25  1  0  0  0
 24 18  1  0  0  0
 35 31  1  0  0  0
 11  2  1  0  0  0
 17 12  2  0  0  0
 10  5  1  0  0  0
 35 36  1  0  0  0
M  END
> <minimizedAffinity>
-8.58488

> <CNNscore>
0.3989498913

> <CNNaffinity>
7.8035402298

> <CNN_VS>
3.1132216454

> <CNNaffinity_variance>
0.2146373242

$$$$
[H]c1nc2c([H])c([H])c(N(c3c(Cl)c(OC([H])([H])[H])c([H])c(OC([H])([H])[H])c3Cl)C([H])([H])c3nc([H])c([H])n3[H])nc2c([H])c1-c1c([H])nn(C([H])([H])[H])c1[H]


 36 40  0  0  0  0  0  0  0  0999 V2000
   -5.7127   23.2870  -25.7745 N   0  0  0  0  0  0  0  0  0  0  0  0
   -4.2938   23.0283  -25.8852 C   0  0  0  0  0  0  0  0  0  0  0  0
   -3.6448   23.1597  -27.0919 C   0  0  0  0  0  0  0  0  0  0  0  0
   -2.2950   22.9242  -27.2447 C   0  0  0  0  0  0  0  0  0  0  0  0
   -1.6073   22.5409  -26.1018 C   0  0  0  0  0  0  0  0  0  0  0  0
   -0.2833   22.2987  -26.1985 N   0  0  0  0  0  0  0  0  0  0  0  0
    0.3836   21.9294  -25.1013 C   0  0  0  0  0  0  0  0  0  0  0  0
   -0.2139   21.7792  -23.8546 C   0  0  0  0  0  0  0  0  0  0  0  0
   -1.5489   22.0214  -23.7466 C   0  0  0  0  0  0  0  0  0  0  0  0
   -2.2456   22.4057  -24.8863 C   0  0  0  0  0  0  0  0  0  0  0  0
   -3.5791   22.6546  -24.8114 N   0  0  0  0  0  0  0  0  0  0  0  0
    0.6044   21.3711  -22.7162 C   0  0  0  0  0  0  0  0  0  0  0  0
    0.1499   21.2086  -21.4263 C   0  0  0  0  0  0  0  0  0  0  0  0
    1.2253   20.8264  -20.6918 N   0  0  0  0  0  0  0  0  0  0  0  0
    2.3060   20.7385  -21.4162 N   0  0  0  0  0  0  0  0  0  0  0  0
    3.6287   20.3596  -20.9626 C   0  0  0  0  0  0  0  0  0  0  0  0
    1.9483   21.0723  -22.6807 C   0  0  0  0  0  0  0  0  0  0  0  0
   -7.0796   22.5280  -22.4292 C   0  0  0  0  0  0  0  0  0  0  0  0
   -7.2971   23.8184  -21.9531 C   0  0  0  0  0  0  0  0  0  0  0  0
   -6.9884   24.9241  -22.7088 C   0  0  0  0  0  0  0  0  0  0  0  0
   -6.4418   24.7718  -23.9895 C   0  0  0  0  0  0  0  0  0  0  0  0
   -5.9991   26.1642  -24.9397 Cl  0  0  0  0  0  0  0  0  0  0  0  0
   -6.2212   23.5166  -24.4776 C   0  0  0  0  0  0  0  0  0  0  0  0
   -6.5437   22.4033  -23.6874 C   0  0  0  0  0  0  0  0  0  0  0  0
   -6.2609   20.7984  -24.3086 Cl  0  0  0  0  0  0  0  0  0  0  0  0
   -8.3122   21.5617  -20.6021 C   0  0  0  0  0  0  0  0  0  0  0  0
   -7.3902   21.4020  -21.6667 O   0  0  0  0  0  0  0  0  0  0  0  0
   -7.2007   26.2097  -22.2453 O   0  0  0  0  0  0  0  0  0  0  0  0
   -8.0325   26.5372  -21.1759 C   0  0  0  0  0  0  0  0  0  0  0  0
   -6.5052   23.2960  -26.9548 C   0  0  0  0  0  0  0  0  0  0  0  0
   -6.0537   24.1764  -28.0525 C   0  0  0  0  0  0  0  0  0  0  0  0
   -5.8477   23.8407  -29.3444 N   0  0  0  0  0  0  0  0  0  0  0  0
   -5.4603   24.9234  -30.0106 C   0  0  0  0  0  0  0  0  0  0  0  0
   -5.4147   25.9756  -29.1382 C   0  0  0  0  0  0  0  0  0  0  0  0
   -5.7825   25.4885  -27.9495 N   0  0  0  0  0  0  0  0  0  0  0  0
   -5.8477   26.0650  -27.0563 H   0  0  0  0  0  0  0  0  0  0  0  0
 26 27  1  0  0  0
 27 18  1  0  0  0
 18 19  2  0  0  0
 19 20  1  0  0  0
 20 28  1  0  0  0
 28 29  1  0  0  0
 20 21  2  0  0  0
 21 22  1  0  0  0
 21 23  1  0  0  0
 23  1  1  0  0  0
  1 30  1  0  0  0
 30 31  1  0  0  0
 31 32  2  0  0  0
 32 33  1  0  0  0
 33 34  2  0  0  0
 34 35  1  0  0  0
  1  2  1  0  0  0
  2  3  2  0  0  0
  3  4  1  0  0  0
  4  5  2  0  0  0
  5  6  1  0  0  0
  6  7  2  0  0  0
  7  8  1  0  0  0
  8  9  2  0  0  0
  9 10  1  0  0  0
 10 11  2  0  0  0
  8 12  1  0  0  0
 12 13  1  0  0  0
 13 14  2  0  0  0
 14 15  1  0  0  0
 15 16  1  0  0  0
 15 17  1  0  0  0
 23 24  2  0  0  0
 24 25  1  0  0  0
 24 18  1  0  0  0
 35 31  1  0  0  0
 11  2  1  0  0  0
 17 12  2  0  0  0
 10  5  1  0  0  0
 35 36  1  0  0  0
M  END
> <minimizedAffinity>
-8.66890

> <CNNscore>
0.3701845407

> <CNNaffinity>
7.7537064552

> <CNN_VS>
2.8703022003

> <CNNaffinity_variance>
0.1690278947

$$$$
[H]c1nc2c([H])c([H])c(N(c3c(Cl)c(OC([H])([H])[H])c([H])c(OC([H])([H])[H])c3Cl)C([H])([H])c3nc([H])c([H])n3[H])nc2c([H])c1-c1c([H])nn(C([H])([H])[H])c1[H]


 36 40  0  0  0  0  0  0  0  0999 V2000
   -1.2104   21.2292  -20.9894 N   0  0  0  0  0  0  0  0  0  0  0  0
   -1.0315   21.5345  -22.3921 C   0  0  0  0  0  0  0  0  0  0  0  0
    0.2172   21.4933  -22.9694 C   0  0  0  0  0  0  0  0  0  0  0  0
    0.4353   21.7759  -24.3010 C   0  0  0  0  0  0  0  0  0  0  0  0
   -0.6859   22.1106  -25.0474 C   0  0  0  0  0  0  0  0  0  0  0  0
   -0.5257   22.3960  -26.3565 N   0  0  0  0  0  0  0  0  0  0  0  0
   -1.6017   22.7188  -27.0795 C   0  0  0  0  0  0  0  0  0  0  0  0
   -2.8885   22.7780  -26.5556 C   0  0  0  0  0  0  0  0  0  0  0  0
   -3.0606   22.4918  -25.2361 C   0  0  0  0  0  0  0  0  0  0  0  0
   -1.9431   22.1556  -24.4811 C   0  0  0  0  0  0  0  0  0  0  0  0
   -2.0817   21.8645  -23.1612 N   0  0  0  0  0  0  0  0  0  0  0  0
   -3.9990   23.1415  -27.4313 C   0  0  0  0  0  0  0  0  0  0  0  0
   -5.3004   23.3397  -27.0265 C   0  0  0  0  0  0  0  0  0  0  0  0
   -5.9998   23.6589  -28.1449 N   0  0  0  0  0  0  0  0  0  0  0  0
   -5.2432   23.6753  -29.2068 N   0  0  0  0  0  0  0  0  0  0  0  0
   -5.6545   23.9743  -30.5634 C   0  0  0  0  0  0  0  0  0  0  0  0
   -3.9924   23.3567  -28.7915 C   0  0  0  0  0  0  0  0  0  0  0  0
    1.5412   22.2248  -18.7372 C   0  0  0  0  0  0  0  0  0  0  0  0
    2.2710   21.0394  -18.7006 C   0  0  0  0  0  0  0  0  0  0  0  0
    1.8631   19.9234  -19.3912 C   0  0  0  0  0  0  0  0  0  0  0  0
    0.6896   19.9578  -20.1554 C   0  0  0  0  0  0  0  0  0  0  0  0
    0.1331   18.5363  -20.9964 Cl  0  0  0  0  0  0  0  0  0  0  0  0
   -0.0412   21.1091  -20.2073 C   0  0  0  0  0  0  0  0  0  0  0  0
    0.3949   22.2351  -19.4933 C   0  0  0  0  0  0  0  0  0  0  0  0
   -0.5385   23.7069  -19.5569 Cl  0  0  0  0  0  0  0  0  0  0  0  0
    3.0204   23.2185  -17.1199 C   0  0  0  0  0  0  0  0  0  0  0  0
    1.9498   23.3604  -18.0377 O   0  0  0  0  0  0  0  0  0  0  0  0
    2.5808   18.7415  -19.3616 O   0  0  0  0  0  0  0  0  0  0  0  0
    3.7083   18.4817  -20.1387 C   0  0  0  0  0  0  0  0  0  0  0  0
   -2.5289   21.0691  -20.4823 C   0  0  0  0  0  0  0  0  0  0  0  0
   -3.5479   22.0245  -20.9649 C   0  0  0  0  0  0  0  0  0  0  0  0
   -3.6027   23.3544  -20.7354 N   0  0  0  0  0  0  0  0  0  0  0  0
   -4.6661   23.8519  -21.3581 C   0  0  0  0  0  0  0  0  0  0  0  0
   -5.3094   22.8301  -22.0002 C   0  0  0  0  0  0  0  0  0  0  0  0
   -4.6029   21.7258  -21.7417 N   0  0  0  0  0  0  0  0  0  0  0  0
   -4.8489   20.7548  -22.1035 H   0  0  0  0  0  0  0  0  0  0  0  0
 26 27  1  0  0  0
 27 18  1  0  0  0
 18 19  2  0  0  0
 19 20  1  0  0  0
 20 28  1  0  0  0
 28 29  1  0  0  0
 20 21  2  0  0  0
 21 22  1  0  0  0
 21 23  1  0  0  0
 23  1  1  0  0  0
  1 30  1  0  0  0
 30 31  1  0  0  0
 31 32  2  0  0  0
 32 33  1  0  0  0
 33 34  2  0  0  0
 34 35  1  0  0  0
  1  2  1  0  0  0
  2  3  2  0  0  0
  3  4  1  0  0  0
  4  5  2  0  0  0
  5  6  1  0  0  0
  6  7  2  0  0  0
  7  8  1  0  0  0
  8  9  2  0  0  0
  9 10  1  0  0  0
 10 11  2  0  0  0
  8 12  1  0  0  0
 12 13  1  0  0  0
 13 14  2  0  0  0
 14 15  1  0  0  0
 15 16  1  0  0  0
 15 17  1  0  0  0
 23 24  2  0  0  0
 24 25  1  0  0  0
 24 18  1  0  0  0
 35 31  1  0  0  0
 11  2  1  0  0  0
 17 12  2  0  0  0
 10  5  1  0  0  0
 35 36  1  0  0  0
M  END
> <minimizedAffinity>
-7.72022

> <CNNscore>
0.3378262222

> <CNNaffinity>
7.4879884720

> <CNN_VS>
2.5296387672

> <CNNaffinity_variance>
0.1784363240

$$$$
[H]c1nc2c([H])c([H])c(N(c3c(Cl)c(OC([H])([H])[H])c([H])c(OC([H])([H])[H])c3Cl)C([H])([H])c3nc([H])c([H])n3[H])nc2c([H])c1-c1c([H])nn(C([H])([H])[H])c1[H]


 36 40  0  0  0  0  0  0  0  0999 V2000
    0.3228   20.5645  -20.6921 N   0  0  0  0  0  0  0  0  0  0  0  0
    0.3496   21.0080  -22.0688 C   0  0  0  0  0  0  0  0  0  0  0  0
    1.5392   21.1129  -22.7532 C   0  0  0  0  0  0  0  0  0  0  0  0
    1.6130   21.5304  -24.0650 C   0  0  0  0  0  0  0  0  0  0  0  0
    0.4074   21.8462  -24.6757 C   0  0  0  0  0  0  0  0  0  0  0  0
    0.4258   22.2600  -25.9599 N   0  0  0  0  0  0  0  0  0  0  0  0
   -0.7320   22.5653  -26.5526 C   0  0  0  0  0  0  0  0  0  0  0  0
   -1.9655   22.4801  -25.9162 C   0  0  0  0  0  0  0  0  0  0  0  0
   -1.9946   22.0636  -24.6208 C   0  0  0  0  0  0  0  0  0  0  0  0
   -0.7917   21.7453  -24.0012 C   0  0  0  0  0  0  0  0  0  0  0  0
   -0.7873   21.3265  -22.7088 N   0  0  0  0  0  0  0  0  0  0  0  0
   -3.1744   22.8370  -26.6534 C   0  0  0  0  0  0  0  0  0  0  0  0
   -4.4038   23.0960  -26.0891 C   0  0  0  0  0  0  0  0  0  0  0  0
   -5.2394   23.3839  -27.1191 N   0  0  0  0  0  0  0  0  0  0  0  0
   -4.6329   23.3252  -28.2720 N   0  0  0  0  0  0  0  0  0  0  0  0
   -5.2158   23.5722  -29.5751 C   0  0  0  0  0  0  0  0  0  0  0  0
   -3.3460   22.9867  -28.0116 C   0  0  0  0  0  0  0  0  0  0  0  0
    2.6374   17.8264  -19.8088 C   0  0  0  0  0  0  0  0  0  0  0  0
    3.6645   18.5542  -19.2134 C   0  0  0  0  0  0  0  0  0  0  0  0
    3.6096   19.9238  -19.1135 C   0  0  0  0  0  0  0  0  0  0  0  0
    2.5045   20.6230  -19.6156 C   0  0  0  0  0  0  0  0  0  0  0  0
    2.4434   22.3632  -19.5411 Cl  0  0  0  0  0  0  0  0  0  0  0  0
    1.4852   19.9306  -20.2021 C   0  0  0  0  0  0  0  0  0  0  0  0
    1.5641   18.5330  -20.2931 C   0  0  0  0  0  0  0  0  0  0  0  0
    0.2633   17.6465  -21.0438 Cl  0  0  0  0  0  0  0  0  0  0  0  0
    3.8638   15.8592  -20.4545 C   0  0  0  0  0  0  0  0  0  0  0  0
    2.6878   16.4364  -19.9137 O   0  0  0  0  0  0  0  0  0  0  0  0
    4.6242   20.6558  -18.5239 O   0  0  0  0  0  0  0  0  0  0  0  0
    5.8234   20.9915  -19.1500 C   0  0  0  0  0  0  0  0  0  0  0  0
   -0.8503   20.7861  -19.9201 C   0  0  0  0  0  0  0  0  0  0  0  0
   -0.6900   20.7844  -18.4510 C   0  0  0  0  0  0  0  0  0  0  0  0
   -0.7960   19.7304  -17.6131 N   0  0  0  0  0  0  0  0  0  0  0  0
   -0.5661   20.1463  -16.3721 C   0  0  0  0  0  0  0  0  0  0  0  0
   -0.3074   21.4887  -16.4061 C   0  0  0  0  0  0  0  0  0  0  0  0
   -0.3902   21.8504  -17.6898 N   0  0  0  0  0  0  0  0  0  0  0  0
   -0.2389   22.8423  -18.0471 H   0  0  0  0  0  0  0  0  0  0  0  0
 26 27  1  0  0  0
 27 18  1  0  0  0
 18 19  2  0  0  0
 19 20  1  0  0  0
 20 28  1  0  0  0
 28 29  1  0  0  0
 20 21  2  0  0  0
 21 22  1  0  0  0
 21 23  1  0  0  0
 23  1  1  0  0  0
  1 30  1  0  0  0
 30 31  1  0  0  0
 31 32  2  0  0  0
 32 33  1  0  0  0
 33 34  2  0  0  0
 34 35  1  0  0  0
  1  2  1  0  0  0
  2  3  2  0  0  0
  3  4  1  0  0  0
  4  5  2  0  0  0
  5  6  1  0  0  0
  6  7  2  0  0  0
  7  8  1  0  0  0
  8  9  2  0  0  0
  9 10  1  0  0  0
 10 11  2  0  0  0
  8 12  1  0  0  0
 12 13  1  0  0  0
 13 14  2  0  0  0
 14 15  1  0  0  0
 15 16  1  0  0  0
 15 17  1  0  0  0
 23 24  2  0  0  0
 24 25  1  0  0  0
 24 18  1  0  0  0
 35 31  1  0  0  0
 11  2  1  0  0  0
 17 12  2  0  0  0
 10  5  1  0  0  0
 35 36  1  0  0  0
M  END
> <minimizedAffinity>
-6.72952

> <CNNscore>
0.3056292832

> <CNNaffinity>
7.1121077538

> <CNN_VS>
2.1736683846

> <CNNaffinity_variance>
0.0577249415

$$$$
[H]c1nc2c([H])c([H])c(N(c3c(Cl)c(OC([H])([H])[H])c([H])c(OC([H])([H])[H])c3Cl)C([H])([H])c3nc([H])c([H])n3[H])nc2c([H])c1-c1c([H])nn(C([H])([H])[H])c1[H]


 36 40  0  0  0  0  0  0  0  0999 V2000
    0.9829   20.5503  -20.0577 N   0  0  0  0  0  0  0  0  0  0  0  0
    0.9586   20.8992  -21.4614 C   0  0  0  0  0  0  0  0  0  0  0  0
    2.1193   20.9321  -22.2004 C   0  0  0  0  0  0  0  0  0  0  0  0
    2.1443   21.2584  -23.5396 C   0  0  0  0  0  0  0  0  0  0  0  0
    0.9196   21.5582  -24.1196 C   0  0  0  0  0  0  0  0  0  0  0  0
    0.8902   21.8840  -25.4287 N   0  0  0  0  0  0  0  0  0  0  0  0
   -0.2861   22.1734  -25.9920 C   0  0  0  0  0  0  0  0  0  0  0  0
   -1.4924   22.1580  -25.3003 C   0  0  0  0  0  0  0  0  0  0  0  0
   -1.4734   21.8305  -23.9794 C   0  0  0  0  0  0  0  0  0  0  0  0
   -0.2511   21.5289  -23.3903 C   0  0  0  0  0  0  0  0  0  0  0  0
   -0.1987   21.1982  -22.0736 N   0  0  0  0  0  0  0  0  0  0  0  0
   -2.7251   22.4903  -26.0090 C   0  0  0  0  0  0  0  0  0  0  0  0
   -3.9714   22.5957  -25.4324 C   0  0  0  0  0  0  0  0  0  0  0  0
   -4.8263   22.9175  -26.4361 N   0  0  0  0  0  0  0  0  0  0  0  0
   -4.2163   23.0203  -27.5840 N   0  0  0  0  0  0  0  0  0  0  0  0
   -4.8160   23.3482  -28.8614 C   0  0  0  0  0  0  0  0  0  0  0  0
   -2.9070   22.7593  -27.3473 C   0  0  0  0  0  0  0  0  0  0  0  0
    3.0884   22.7734  -17.9937 C   0  0  0  0  0  0  0  0  0  0  0  0
    4.2376   21.9943  -17.8857 C   0  0  0  0  0  0  0  0  0  0  0  0
    4.3201   20.7519  -18.4675 C   0  0  0  0  0  0  0  0  0  0  0  0
    3.2351   20.2389  -19.1899 C   0  0  0  0  0  0  0  0  0  0  0  0
    3.3064   18.6448  -19.8910 Cl  0  0  0  0  0  0  0  0  0  0  0  0
    2.0989   20.9852  -19.3103 C   0  0  0  0  0  0  0  0  0  0  0  0
    2.0381   22.2502  -18.7071 C   0  0  0  0  0  0  0  0  0  0  0  0
    0.5864   23.2048  -18.8583 Cl  0  0  0  0  0  0  0  0  0  0  0  0
    4.2063   24.7358  -17.1627 C   0  0  0  0  0  0  0  0  0  0  0  0
    2.9985   24.0347  -17.4049 O   0  0  0  0  0  0  0  0  0  0  0  0
    5.4567   19.9705  -18.3663 O   0  0  0  0  0  0  0  0  0  0  0  0
    5.6776   19.0220  -17.3692 C   0  0  0  0  0  0  0  0  0  0  0  0
   -0.0974   19.8020  -19.5154 C   0  0  0  0  0  0  0  0  0  0  0  0
    0.0533   18.3320  -19.4995 C   0  0  0  0  0  0  0  0  0  0  0  0
   -0.0239   17.4858  -20.5494 N   0  0  0  0  0  0  0  0  0  0  0  0
    0.1843   16.2470  -20.1158 C   0  0  0  0  0  0  0  0  0  0  0  0
    0.3994   16.2909  -18.7659 C   0  0  0  0  0  0  0  0  0  0  0  0
    0.3132   17.5781  -18.4179 N   0  0  0  0  0  0  0  0  0  0  0  0
    0.4344   17.9430  -17.4247 H   0  0  0  0  0  0  0  0  0  0  0  0
 26 27  1  0  0  0
 27 18  1  0  0  0
 18 19  2  0  0  0
 19 20  1  0  0  0
 20 28  1  0  0  0
 28 29  1  0  0  0
 20 21  2  0  0  0
 21 22  1  0  0  0
 21 23  1  0  0  0
 23  1  1  0  0  0
  1 30  1  0  0  0
 30 31  1  0  0  0
 31 32  2  0  0  0
 32 33  1  0  0  0
 33 34  2  0  0  0
 34 35  1  0  0  0
  1  2  1  0  0  0
  2  3  2  0  0  0
  3  4  1  0  0  0
  4  5  2  0  0  0
  5  6  1  0  0  0
  6  7  2  0  0  0
  7  8  1  0  0  0
  8  9  2  0  0  0
  9 10  1  0  0  0
 10 11  2  0  0  0
  8 12  1  0  0  0
 12 13  1  0  0  0
 13 14  2  0  0  0
 14 15  1  0  0  0
 15 16  1  0  0  0
 15 17  1  0  0  0
 23 24  2  0  0  0
 24 25  1  0  0  0
 24 18  1  0  0  0
 35 31  1  0  0  0
 11  2  1  0  0  0
 17 12  2  0  0  0
 10  5  1  0  0  0
 35 36  1  0  0  0
M  END
> <minimizedAffinity>
-6.91540

> <CNNscore>
0.2758886218

> <CNNaffinity>
6.9625039101

> <CNN_VS>
1.9208755493

> <CNNaffinity_variance>
0.0106230434

$$$$
[H]c1nc2c([H])c([H])c(N(c3c(Cl)c(OC([H])([H])[H])c([H])c(OC([H])([H])[H])c3Cl)C([H])([H])c3nc([H])c([H])n3[H])nc2c([H])c1-c1c([H])nn(C([H])([H])[H])c1[H]


 36 40  0  0  0  0  0  0  0  0999 V2000
    0.6823   20.6103  -20.1930 N   0  0  0  0  0  0  0  0  0  0  0  0
    0.6926   20.9681  -21.5946 C   0  0  0  0  0  0  0  0  0  0  0  0
    1.8710   21.0043  -22.3049 C   0  0  0  0  0  0  0  0  0  0  0  0
    1.9289   21.3391  -23.6410 C   0  0  0  0  0  0  0  0  0  0  0  0
    0.7190   21.6441  -24.2487 C   0  0  0  0  0  0  0  0  0  0  0  0
    0.7220   21.9781  -25.5560 N   0  0  0  0  0  0  0  0  0  0  0  0
   -0.4400   22.2726  -26.1460 C   0  0  0  0  0  0  0  0  0  0  0  0
   -1.6628   22.2543  -25.4840 C   0  0  0  0  0  0  0  0  0  0  0  0
   -1.6763   21.9184  -24.1650 C   0  0  0  0  0  0  0  0  0  0  0  0
   -0.4690   21.6116  -23.5483 C   0  0  0  0  0  0  0  0  0  0  0  0
   -0.4491   21.2725  -22.2328 N   0  0  0  0  0  0  0  0  0  0  0  0
   -2.8775   22.5926  -26.2203 C   0  0  0  0  0  0  0  0  0  0  0  0
   -4.0860   22.9286  -25.6515 C   0  0  0  0  0  0  0  0  0  0  0  0
   -4.9362   23.1657  -26.6824 N   0  0  0  0  0  0  0  0  0  0  0  0
   -4.3579   23.0053  -27.8401 N   0  0  0  0  0  0  0  0  0  0  0  0
   -4.9630   23.1742  -29.1455 C   0  0  0  0  0  0  0  0  0  0  0  0
   -3.0755   22.6483  -27.5820 C   0  0  0  0  0  0  0  0  0  0  0  0
    4.0127   20.4284  -18.6084 C   0  0  0  0  0  0  0  0  0  0  0  0
    4.0117   21.6239  -17.8945 C   0  0  0  0  0  0  0  0  0  0  0  0
    2.9429   22.4867  -17.9402 C   0  0  0  0  0  0  0  0  0  0  0  0
    1.8191   22.1755  -18.7164 C   0  0  0  0  0  0  0  0  0  0  0  0
    0.4772   23.2825  -18.8238 Cl  0  0  0  0  0  0  0  0  0  0  0  0
    1.7970   21.0085  -19.4235 C   0  0  0  0  0  0  0  0  0  0  0  0
    2.9001   20.1442  -19.3617 C   0  0  0  0  0  0  0  0  0  0  0  0
    2.8747   18.6532  -20.2660 Cl  0  0  0  0  0  0  0  0  0  0  0  0
    6.0459   19.7246  -17.5305 C   0  0  0  0  0  0  0  0  0  0  0  0
    5.0947   19.5491  -18.5665 O   0  0  0  0  0  0  0  0  0  0  0  0
    2.9320   23.6762  -17.2348 O   0  0  0  0  0  0  0  0  0  0  0  0
    3.9847   24.5894  -17.2086 C   0  0  0  0  0  0  0  0  0  0  0  0
   -0.4284   19.8902  -19.6742 C   0  0  0  0  0  0  0  0  0  0  0  0
   -0.1944   18.4767  -19.3123 C   0  0  0  0  0  0  0  0  0  0  0  0
   -0.2458   17.3999  -20.1260 N   0  0  0  0  0  0  0  0  0  0  0  0
    0.0413   16.3138  -19.4160 C   0  0  0  0  0  0  0  0  0  0  0  0
    0.2822   16.6920  -18.1241 C   0  0  0  0  0  0  0  0  0  0  0  0
    0.1307   18.0192  -18.0913 N   0  0  0  0  0  0  0  0  0  0  0  0
    0.2522   18.6181  -17.2190 H   0  0  0  0  0  0  0  0  0  0  0  0
 26 27  1  0  0  0
 27 18  1  0  0  0
 18 19  2  0  0  0
 19 20  1  0  0  0
 20 28  1  0  0  0
 28 29  1  0  0  0
 20 21  2  0  0  0
 21 22  1  0  0  0
 21 23  1  0  0  0
 23  1  1  0  0  0
  1 30  1  0  0  0
 30 31  1  0  0  0
 31 32  2  0  0  0
 32 33  1  0  0  0
 33 34  2  0  0  0
 34 35  1  0  0  0
  1  2  1  0  0  0
  2  3  2  0  0  0
  3  4  1  0  0  0
  4  5  2  0  0  0
  5  6  1  0  0  0
  6  7  2  0  0  0
  7  8  1  0  0  0
  8  9  2  0  0  0
  9 10  1  0  0  0
 10 11  2  0  0  0
  8 12  1  0  0  0
 12 13  1  0  0  0
 13 14  2  0  0  0
 14 15  1  0  0  0
 15 16  1  0  0  0
 15 17  1  0  0  0
 23 24  2  0  0  0
 24 25  1  0  0  0
 24 18  1  0  0  0
 35 31  1  0  0  0
 11  2  1  0  0  0
 17 12  2  0  0  0
 10  5  1  0  0  0
 35 36  1  0  0  0
M  END
> <minimizedAffinity>
-6.83782

> <CNNscore>
0.2436431348

> <CNNaffinity>
6.9724464417

> <CNN_VS>
1.6987887621

> <CNNaffinity_variance>
0.0113492468

$$$$
[H]c1nc2c([H])c([H])c(N(c3c(Cl)c(OC([H])([H])[H])c([H])c(OC([H])([H])[H])c3Cl)C([H])([H])c3nc([H])c([H])n3[H])nc2c([H])c1-c1c([H])nn(C([H])([H])[H])c1[H]


 36 40  0  0  0  0  0  0  0  0999 V2000
   -1.1916   21.2762  -20.7450 N   0  0  0  0  0  0  0  0  0  0  0  0
   -1.0080   21.5652  -22.1505 C   0  0  0  0  0  0  0  0  0  0  0  0
    0.2437   21.5239  -22.7216 C   0  0  0  0  0  0  0  0  0  0  0  0
    0.4663   21.7914  -24.0555 C   0  0  0  0  0  0  0  0  0  0  0  0
   -0.6533   22.1107  -24.8110 C   0  0  0  0  0  0  0  0  0  0  0  0
   -0.4886   22.3808  -26.1228 N   0  0  0  0  0  0  0  0  0  0  0  0
   -1.5630   22.6887  -26.8546 C   0  0  0  0  0  0  0  0  0  0  0  0
   -2.8526   22.7471  -26.3374 C   0  0  0  0  0  0  0  0  0  0  0  0
   -3.0292   22.4762  -25.0153 C   0  0  0  0  0  0  0  0  0  0  0  0
   -1.9133   22.1555  -24.2511 C   0  0  0  0  0  0  0  0  0  0  0  0
   -2.0564   21.8799  -22.9284 N   0  0  0  0  0  0  0  0  0  0  0  0
   -3.9609   23.0937  -27.2225 C   0  0  0  0  0  0  0  0  0  0  0  0
   -5.2364   23.4140  -26.8135 C   0  0  0  0  0  0  0  0  0  0  0  0
   -5.9438   23.6663  -27.9440 N   0  0  0  0  0  0  0  0  0  0  0  0
   -5.2159   23.5296  -29.0172 N   0  0  0  0  0  0  0  0  0  0  0  0
   -5.6434   23.7198  -30.3882 C   0  0  0  0  0  0  0  0  0  0  0  0
   -3.9768   23.1734  -28.5973 C   0  0  0  0  0  0  0  0  0  0  0  0
    1.7465   19.7014  -19.1568 C   0  0  0  0  0  0  0  0  0  0  0  0
    2.2213   20.7707  -18.4017 C   0  0  0  0  0  0  0  0  0  0  0  0
    1.5988   21.9958  -18.4208 C   0  0  0  0  0  0  0  0  0  0  0  0
    0.4594   22.1946  -19.2111 C   0  0  0  0  0  0  0  0  0  0  0  0
   -0.3117   23.7560  -19.2843 Cl  0  0  0  0  0  0  0  0  0  0  0  0
   -0.0249   21.1606  -19.9585 C   0  0  0  0  0  0  0  0  0  0  0  0
    0.6280   19.9196  -19.9231 C   0  0  0  0  0  0  0  0  0  0  0  0
    0.0118   18.5974  -20.8789 Cl  0  0  0  0  0  0  0  0  0  0  0  0
    2.4190   17.7557  -17.9105 C   0  0  0  0  0  0  0  0  0  0  0  0
    2.3745   18.4559  -19.1420 O   0  0  0  0  0  0  0  0  0  0  0  0
    2.0622   23.0639  -17.6745 O   0  0  0  0  0  0  0  0  0  0  0  0
    3.3177   23.6496  -17.8275 C   0  0  0  0  0  0  0  0  0  0  0  0
   -2.5120   21.1265  -20.2396 C   0  0  0  0  0  0  0  0  0  0  0  0
   -2.6420   20.6137  -18.8598 C   0  0  0  0  0  0  0  0  0  0  0  0
   -2.7551   21.3329  -17.7221 N   0  0  0  0  0  0  0  0  0  0  0  0
   -2.8653   20.4953  -16.6963 C   0  0  0  0  0  0  0  0  0  0  0  0
   -2.8231   19.2153  -17.1758 C   0  0  0  0  0  0  0  0  0  0  0  0
   -2.6862   19.3195  -18.5009 N   0  0  0  0  0  0  0  0  0  0  0  0
   -2.6222   18.4908  -19.1669 H   0  0  0  0  0  0  0  0  0  0  0  0
 26 27  1  0  0  0
 27 18  1  0  0  0
 18 19  2  0  0  0
 19 20  1  0  0  0
 20 28  1  0  0  0
 28 29  1  0  0  0
 20 21  2  0  0  0
 21 22  1  0  0  0
 21 23  1  0  0  0
 23  1  1  0  0  0
  1 30  1  0  0  0
 30 31  1  0  0  0
 31 32  2  0  0  0
 32 33  1  0  0  0
 33 34  2  0  0  0
 34 35  1  0  0  0
  1  2  1  0  0  0
  2  3  2  0  0  0
  3  4  1  0  0  0
  4  5  2  0  0  0
  5  6  1  0  0  0
  6  7  2  0  0  0
  7  8  1  0  0  0
  8  9  2  0  0  0
  9 10  1  0  0  0
 10 11  2  0  0  0
  8 12  1  0  0  0
 12 13  1  0  0  0
 13 14  2  0  0  0
 14 15  1  0  0  0
 15 16  1  0  0  0
 15 17  1  0  0  0
 23 24  2  0  0  0
 24 25  1  0  0  0
 24 18  1  0  0  0
 35 31  1  0  0  0
 11  2  1  0  0  0
 17 12  2  0  0  0
 10  5  1  0  0  0
 35 36  1  0  0  0
M  END
> <minimizedAffinity>
-7.06723

> <CNNscore>
0.2061101496

> <CNNaffinity>
7.2009038925

> <CNN_VS>
1.4841793776

> <CNNaffinity_variance>
0.1585638821

$$$$
[H]c1nc2c([H])c([H])c(N(c3c(Cl)c(OC([H])([H])[H])c([H])c(OC([H])([H])[H])c3Cl)C([H])([H])c3nc([H])c([H])n3[H])nc2c([H])c1-c1c([H])nn(C([H])([H])[H])c1[H]


 36 40  0  0  0  0  0  0  0  0999 V2000
    0.9251   20.9994  -19.8501 N   0  0  0  0  0  0  0  0  0  0  0  0
    0.9002   21.1786  -21.2853 C   0  0  0  0  0  0  0  0  0  0  0  0
    2.0439   21.0245  -22.0354 C   0  0  0  0  0  0  0  0  0  0  0  0
    2.0677   21.1849  -23.4045 C   0  0  0  0  0  0  0  0  0  0  0  0
    0.8601   21.5157  -24.0031 C   0  0  0  0  0  0  0  0  0  0  0  0
    0.8303   21.6837  -25.3417 N   0  0  0  0  0  0  0  0  0  0  0  0
   -0.3296   22.0020  -25.9231 C   0  0  0  0  0  0  0  0  0  0  0  0
   -1.5183   22.1716  -25.2215 C   0  0  0  0  0  0  0  0  0  0  0  0
   -1.4987   22.0042  -23.8709 C   0  0  0  0  0  0  0  0  0  0  0  0
   -0.2934   21.6729  -23.2630 C   0  0  0  0  0  0  0  0  0  0  0  0
   -0.2409   21.4990  -21.9166 N   0  0  0  0  0  0  0  0  0  0  0  0
   -2.7339   22.5198  -25.9518 C   0  0  0  0  0  0  0  0  0  0  0  0
   -3.9863   22.6546  -25.3949 C   0  0  0  0  0  0  0  0  0  0  0  0
   -4.8201   22.9821  -26.4145 N   0  0  0  0  0  0  0  0  0  0  0  0
   -4.1915   23.0615  -27.5541 N   0  0  0  0  0  0  0  0  0  0  0  0
   -4.7659   23.3875  -28.8435 C   0  0  0  0  0  0  0  0  0  0  0  0
   -2.8910   22.7784  -27.2953 C   0  0  0  0  0  0  0  0  0  0  0  0
   -2.1178   19.5533  -18.3385 C   0  0  0  0  0  0  0  0  0  0  0  0
   -2.7915   20.7176  -17.9783 C   0  0  0  0  0  0  0  0  0  0  0  0
   -2.2533   21.9603  -18.2129 C   0  0  0  0  0  0  0  0  0  0  0  0
   -1.0001   22.0808  -18.8270 C   0  0  0  0  0  0  0  0  0  0  0  0
   -0.2826   23.6479  -19.0858 Cl  0  0  0  0  0  0  0  0  0  0  0  0
   -0.3221   20.9534  -19.1900 C   0  0  0  0  0  0  0  0  0  0  0  0
   -0.8914   19.6961  -18.9397 C   0  0  0  0  0  0  0  0  0  0  0  0
   -0.0258   18.2541  -19.4012 Cl  0  0  0  0  0  0  0  0  0  0  0  0
   -2.9883   17.9537  -16.7654 C   0  0  0  0  0  0  0  0  0  0  0  0
   -2.6585   18.2893  -18.1024 O   0  0  0  0  0  0  0  0  0  0  0  0
   -2.9142   23.1226  -17.8592 O   0  0  0  0  0  0  0  0  0  0  0  0
   -4.0863   23.1676  -17.1062 C   0  0  0  0  0  0  0  0  0  0  0  0
    2.1800   20.8816  -19.1925 C   0  0  0  0  0  0  0  0  0  0  0  0
    2.5836   22.0063  -18.3230 C   0  0  0  0  0  0  0  0  0  0  0  0
    2.4605   22.0937  -16.9808 N   0  0  0  0  0  0  0  0  0  0  0  0
    2.9573   23.2597  -16.5812 C   0  0  0  0  0  0  0  0  0  0  0  0
    3.4088   23.9375  -17.6798 C   0  0  0  0  0  0  0  0  0  0  0  0
    3.1670   23.1466  -18.7293 N   0  0  0  0  0  0  0  0  0  0  0  0
    3.4057   23.3937  -19.7374 H   0  0  0  0  0  0  0  0  0  0  0  0
 26 27  1  0  0  0
 27 18  1  0  0  0
 18 19  2  0  0  0
 19 20  1  0  0  0
 20 28  1  0  0  0
 28 29  1  0  0  0
 20 21  2  0  0  0
 21 22  1  0  0  0
 21 23  1  0  0  0
 23  1  1  0  0  0
  1 30  1  0  0  0
 30 31  1  0  0  0
 31 32  2  0  0  0
 32 33  1  0  0  0
 33 34  2  0  0  0
 34 35  1  0  0  0
  1  2  1  0  0  0
  2  3  2  0  0  0
  3  4  1  0  0  0
  4  5  2  0  0  0
  5  6  1  0  0  0
  6  7  2  0  0  0
  7  8  1  0  0  0
  8  9  2  0  0  0
  9 10  1  0  0  0
 10 11  2  0  0  0
  8 12  1  0  0  0
 12 13  1  0  0  0
 13 14  2  0  0  0
 14 15  1  0  0  0
 15 16  1  0  0  0
 15 17  1  0  0  0
 23 24  2  0  0  0
 24 25  1  0  0  0
 24 18  1  0  0  0
 35 31  1  0  0  0
 11  2  1  0  0  0
 17 12  2  0  0  0
 10  5  1  0  0  0
 35 36  1  0  0  0
M  END
> <minimizedAffinity>
-7.18720

> <CNNscore>
0.2056244314

> <CNNaffinity>
6.8150696754

> <CNN_VS>
1.4013447762

> <CNNaffinity_variance>
0.0881382823

$$$$
[H]c1nc2c([H])c([H])c(N(c3c(Cl)c(OC([H])([H])[H])c([H])c(OC([H])([H])[H])c3Cl)C([H])([H])c3nc([H])c([H])n3[H])nc2c([H])c1-c1c([H])nn(C([H])([H])[H])c1[H]


 36 40  0  0  0  0  0  0  0  0999 V2000
    0.9492   20.9083  -19.8866 N   0  0  0  0  0  0  0  0  0  0  0  0
    0.9357   21.1110  -21.3188 C   0  0  0  0  0  0  0  0  0  0  0  0
    2.0770   20.9331  -22.0674 C   0  0  0  0  0  0  0  0  0  0  0  0
    2.1112   21.1145  -23.4336 C   0  0  0  0  0  0  0  0  0  0  0  0
    0.9169   21.4926  -24.0310 C   0  0  0  0  0  0  0  0  0  0  0  0
    0.8978   21.6828  -25.3668 N   0  0  0  0  0  0  0  0  0  0  0  0
   -0.2493   22.0468  -25.9470 C   0  0  0  0  0  0  0  0  0  0  0  0
   -1.4349   22.2423  -25.2469 C   0  0  0  0  0  0  0  0  0  0  0  0
   -1.4259   22.0528  -23.8991 C   0  0  0  0  0  0  0  0  0  0  0  0
   -0.2340   21.6742  -23.2924 C   0  0  0  0  0  0  0  0  0  0  0  0
   -0.1923   21.4772  -21.9488 N   0  0  0  0  0  0  0  0  0  0  0  0
   -2.6360   22.6402  -25.9757 C   0  0  0  0  0  0  0  0  0  0  0  0
   -3.8079   23.0788  -25.4002 C   0  0  0  0  0  0  0  0  0  0  0  0
   -4.6578   23.3403  -26.4255 N   0  0  0  0  0  0  0  0  0  0  0  0
   -4.1127   23.1012  -27.5857 N   0  0  0  0  0  0  0  0  0  0  0  0
   -4.7277   23.2685  -28.8867 C   0  0  0  0  0  0  0  0  0  0  0  0
   -2.8539   22.6641  -27.3353 C   0  0  0  0  0  0  0  0  0  0  0  0
   -2.2311   21.7793  -18.2246 C   0  0  0  0  0  0  0  0  0  0  0  0
   -2.7195   20.5058  -17.9440 C   0  0  0  0  0  0  0  0  0  0  0  0
   -2.0265   19.3753  -18.3051 C   0  0  0  0  0  0  0  0  0  0  0  0
   -0.7990   19.4842  -18.9713 C   0  0  0  0  0  0  0  0  0  0  0  0
    0.0672   18.0598  -19.4798 Cl  0  0  0  0  0  0  0  0  0  0  0  0
   -0.2999   20.7221  -19.2556 C   0  0  0  0  0  0  0  0  0  0  0  0
   -1.0258   21.8613  -18.8777 C   0  0  0  0  0  0  0  0  0  0  0  0
   -0.3906   23.4442  -19.2416 Cl  0  0  0  0  0  0  0  0  0  0  0  0
   -4.3242   22.9618  -18.1160 C   0  0  0  0  0  0  0  0  0  0  0  0
   -2.9303   22.9303  -17.8613 O   0  0  0  0  0  0  0  0  0  0  0  0
   -2.5027   18.1061  -18.0309 O   0  0  0  0  0  0  0  0  0  0  0  0
   -3.3718   17.7965  -16.9861 C   0  0  0  0  0  0  0  0  0  0  0  0
    2.1958   20.9074  -19.2030 C   0  0  0  0  0  0  0  0  0  0  0  0
    2.4769   22.0666  -18.3306 C   0  0  0  0  0  0  0  0  0  0  0  0
    2.2750   22.1618  -16.9985 N   0  0  0  0  0  0  0  0  0  0  0  0
    2.6720   23.3627  -16.5910 C   0  0  0  0  0  0  0  0  0  0  0  0
    3.1379   24.0556  -17.6741 C   0  0  0  0  0  0  0  0  0  0  0  0
    3.0060   23.2380  -18.7227 N   0  0  0  0  0  0  0  0  0  0  0  0
    3.2830   23.4881  -19.7202 H   0  0  0  0  0  0  0  0  0  0  0  0
 26 27  1  0  0  0
 27 18  1  0  0  0
 18 19  2  0  0  0
 19 20  1  0  0  0
 20 28  1  0  0  0
 28 29  1  0  0  0
 20 21  2  0  0  0
 21 22  1  0  0  0
 21 23  1  0  0  0
 23  1  1  0  0  0
  1 30  1  0  0  0
 30 31  1  0  0  0
 31 32  2  0  0  0
 32 33  1  0  0  0
 33 34  2  0  0  0
 34 35  1  0  0  0
  1  2  1  0  0  0
  2  3  2  0  0  0
  3  4  1  0  0  0
  4  5  2  0  0  0
  5  6  1  0  0  0
  6  7  2  0  0  0
  7  8  1  0  0  0
  8  9  2  0  0  0
  9 10  1  0  0  0
 10 11  2  0  0  0
  8 12  1  0  0  0
 12 13  1  0  0  0
 13 14  2  0  0  0
 14 15  1  0  0  0
 15 16  1  0  0  0
 15 17  1  0  0  0
 23 24  2  0  0  0
 24 25  1  0  0  0
 24 18  1  0  0  0
 35 31  1  0  0  0
 11  2  1  0  0  0
 17 12  2  0  0  0
 10  5  1  0  0  0
 35 36  1  0  0  0
M  END
> <minimizedAffinity>
-7.08520

> <CNNscore>
0.1895358562

> <CNNaffinity>
6.8033590317

> <CNN_VS>
1.2894804478

> <CNNaffinity_variance>
0.0724845007

$$$$
[H]c1nc(N([H])[H])c(-c2nn(-c3c([H])c([H])c([H])c(C(=O)N([H])C([H])([H])[H])c3[H])c(=O)c([H])c2[H])c([H])c1-c1c([H])nn(C2([H])C([H])([H])C([H])([H])N(C([H])([H])C([H])([H])OC([H])([H])[H])C([H])([H])C2([H])[H])c1[H]


 42 46  0  0  0  0  0  0  0  0999 V2000
   -2.2149   22.7590  -26.4059 C   0  0  0  0  0  0  0  0  0  0  0  0
   -1.6146   22.3963  -25.2257 C   0  0  0  0  0  0  0  0  0  0  0  0
   -0.2483   22.0959  -25.1552 C   0  0  0  0  0  0  0  0  0  0  0  0
    0.4493   22.1881  -26.3398 C   0  0  0  0  0  0  0  0  0  0  0  0
   -0.1407   22.5429  -27.4904 N   0  0  0  0  0  0  0  0  0  0  0  0
   -1.4368   22.8288  -27.5634 C   0  0  0  0  0  0  0  0  0  0  0  0
   -2.0766   23.2084  -28.7895 N   0  0  0  0  0  0  0  0  0  0  0  0
   -2.1481   24.1884  -29.1091 H   0  0  0  0  0  0  0  0  0  0  0  0
   -2.4916   22.4485  -29.3889 H   0  0  0  0  0  0  0  0  0  0  0  0
   -5.6774   23.5982  -25.4803 N   0  0  0  0  0  0  0  0  0  0  0  0
   -4.3915   23.3072  -25.4192 N   0  0  0  0  0  0  0  0  0  0  0  0
   -3.6253   23.0747  -26.5139 C   0  0  0  0  0  0  0  0  0  0  0  0
   -4.2730   23.1595  -27.7248 C   0  0  0  0  0  0  0  0  0  0  0  0
   -5.6248   23.4631  -27.8300 C   0  0  0  0  0  0  0  0  0  0  0  0
   -6.3253   23.6844  -26.6644 C   0  0  0  0  0  0  0  0  0  0  0  0
   -7.5645   23.9668  -26.6813 O   0  0  0  0  0  0  0  0  0  0  0  0
   -7.4084   23.0640  -22.1897 C   0  0  0  0  0  0  0  0  0  0  0  0
   -7.9813   24.2819  -21.9781 C   0  0  0  0  0  0  0  0  0  0  0  0
   -7.7898   25.2757  -22.9295 C   0  0  0  0  0  0  0  0  0  0  0  0
   -7.0436   25.0644  -24.0695 C   0  0  0  0  0  0  0  0  0  0  0  0
   -6.4553   23.8388  -24.3024 C   0  0  0  0  0  0  0  0  0  0  0  0
   -6.6512   22.8684  -23.3581 C   0  0  0  0  0  0  0  0  0  0  0  0
   -6.7337   20.6346  -19.2885 C   0  0  0  0  0  0  0  0  0  0  0  0
   -6.6138   21.7437  -20.2377 N   0  0  0  0  0  0  0  0  0  0  0  0
   -7.5492   21.9603  -21.2626 C   0  0  0  0  0  0  0  0  0  0  0  0
   -8.5246   21.1855  -21.3783 O   0  0  0  0  0  0  0  0  0  0  0  0
   -5.8053   22.3851  -20.1369 H   0  0  0  0  0  0  0  0  0  0  0  0
    0.3712   21.7108  -23.8955 C   0  0  0  0  0  0  0  0  0  0  0  0
    1.6652   21.2580  -23.7710 C   0  0  0  0  0  0  0  0  0  0  0  0
    1.8720   21.0053  -22.4600 N   0  0  0  0  0  0  0  0  0  0  0  0
    0.7862   21.2708  -21.7462 N   0  0  0  0  0  0  0  0  0  0  0  0
   -0.1414   21.7045  -22.6163 C   0  0  0  0  0  0  0  0  0  0  0  0
    0.6084   21.1301  -20.3145 C   0  0  0  0  0  0  0  0  0  0  0  0
   -0.1176   22.3016  -19.7349 C   0  0  0  0  0  0  0  0  0  0  0  0
    0.5743   22.7751  -18.4611 C   0  0  0  0  0  0  0  0  0  0  0  0
    0.8660   21.6125  -17.6414 N   0  0  0  0  0  0  0  0  0  0  0  0
    2.0015   20.9319  -18.2246 C   0  0  0  0  0  0  0  0  0  0  0  0
    2.0047   21.1092  -19.7131 C   0  0  0  0  0  0  0  0  0  0  0  0
    1.2719   22.0442  -16.2979 C   0  0  0  0  0  0  0  0  0  0  0  0
    2.7283   22.3759  -16.3514 C   0  0  0  0  0  0  0  0  0  0  0  0
    3.0669   23.6324  -15.9174 O   0  0  0  0  0  0  0  0  0  0  0  0
    3.8948   24.3157  -16.7813 C   0  0  0  0  0  0  0  0  0  0  0  0
 23 24  1  0  0  0
 24 25  1  0  0  0
 25 26  2  0  0  0
 25 17  1  0  0  0
 17 18  2  0  0  0
 18 19  1  0  0  0
 19 20  2  0  0  0
 20 21  1  0  0  0
 21 22  2  0  0  0
 21 10  1  0  0  0
 10 11  1  0  0  0
 11 12  2  0  0  0
 12 13  1  0  0  0
 13 14  2  0  0  0
 14 15  1  0  0  0
 15 16  2  0  0  0
 12  1  1  0  0  0
  1  2  2  0  0  0
  2  3  1  0  0  0
  3  4  2  0  0  0
  4  5  1  0  0  0
  5  6  2  0  0  0
  6  7  1  0  0  0
  3 28  1  0  0  0
 28 29  1  0  0  0
 29 30  2  0  0  0
 30 31  1  0  0  0
 31 32  1  0  0  0
 31 33  1  0  0  0
 33 34  1  0  0  0
 34 35  1  0  0  0
 35 36  1  0  0  0
 36 39  1  0  0  0
 39 40  1  0  0  0
 40 41  1  0  0  0
 41 42  1  0  0  0
 36 37  1  0  0  0
 37 38  1  0  0  0
 22 17  1  0  0  0
 15 10  1  0  0  0
  6  1  1  0  0  0
 32 28  2  0  0  0
 38 33  1  0  0  0
 24 27  1  0  0  0
  7  8  1  0  0  0
  7  9  1  0  0  0
M  END
> <minimizedAffinity>
-9.66473

> <CNNscore>
0.4413903356

> <CNNaffinity>
7.3124189377

> <CNN_VS>
3.2276310921

> <CNNaffinity_variance>
0.0303650256

$$$$
[H]c1nc(N([H])[H])c(-c2nn(-c3c([H])c([H])c([H])c(C(=O)N([H])C([H])([H])[H])c3[H])c(=O)c([H])c2[H])c([H])c1-c1c([H])nn(C2([H])C([H])([H])C([H])([H])N(C([H])([H])C([H])([H])OC([H])([H])[H])C([H])([H])C2([H])[H])c1[H]


 42 46  0  0  0  0  0  0  0  0999 V2000
   -0.7952   21.6612  -23.6470 C   0  0  0  0  0  0  0  0  0  0  0  0
   -0.3381   21.2972  -22.4047 C   0  0  0  0  0  0  0  0  0  0  0  0
    1.0212   21.0666  -22.1576 C   0  0  0  0  0  0  0  0  0  0  0  0
    1.8640   21.2282  -23.2355 C   0  0  0  0  0  0  0  0  0  0  0  0
    1.4135   21.5839  -24.4473 N   0  0  0  0  0  0  0  0  0  0  0  0
    0.1248   21.8038  -24.6878 C   0  0  0  0  0  0  0  0  0  0  0  0
   -0.3662   22.1838  -25.9805 N   0  0  0  0  0  0  0  0  0  0  0  0
   -0.4487   23.1673  -26.2864 H   0  0  0  0  0  0  0  0  0  0  0  0
   -0.6551   21.4204  -26.6460 H   0  0  0  0  0  0  0  0  0  0  0  0
   -3.8824   23.3310  -24.7567 N   0  0  0  0  0  0  0  0  0  0  0  0
   -2.6179   23.0747  -24.4789 N   0  0  0  0  0  0  0  0  0  0  0  0
   -2.1940   21.9058  -23.9369 C   0  0  0  0  0  0  0  0  0  0  0  0
   -3.1749   20.9747  -23.6842 C   0  0  0  0  0  0  0  0  0  0  0  0
   -4.5163   21.2073  -23.9626 C   0  0  0  0  0  0  0  0  0  0  0  0
   -4.8556   22.4240  -24.5130 C   0  0  0  0  0  0  0  0  0  0  0  0
   -6.0621   22.7087  -24.7946 O   0  0  0  0  0  0  0  0  0  0  0  0
   -5.0555   25.8855  -27.2483 C   0  0  0  0  0  0  0  0  0  0  0  0
   -5.1031   27.0135  -26.4857 C   0  0  0  0  0  0  0  0  0  0  0  0
   -4.7455   26.9206  -25.1466 C   0  0  0  0  0  0  0  0  0  0  0  0
   -4.3481   25.7304  -24.5755 C   0  0  0  0  0  0  0  0  0  0  0  0
   -4.2933   24.5771  -25.3301 C   0  0  0  0  0  0  0  0  0  0  0  0
   -4.6479   24.6815  -26.6474 C   0  0  0  0  0  0  0  0  0  0  0  0
   -4.7432   25.8279  -31.0789 C   0  0  0  0  0  0  0  0  0  0  0  0
   -4.4162   25.8385  -29.6511 N   0  0  0  0  0  0  0  0  0  0  0  0
   -5.4043   25.8748  -28.6539 C   0  0  0  0  0  0  0  0  0  0  0  0
   -6.6106   25.8981  -28.9845 O   0  0  0  0  0  0  0  0  0  0  0  0
   -3.4152   25.8167  -29.3812 H   0  0  0  0  0  0  0  0  0  0  0  0
    1.4880   20.6791  -20.8343 C   0  0  0  0  0  0  0  0  0  0  0  0
    1.7254   19.3812  -20.4421 C   0  0  0  0  0  0  0  0  0  0  0  0
    2.1438   19.4257  -19.1582 N   0  0  0  0  0  0  0  0  0  0  0  0
    2.1857   20.6744  -18.7133 N   0  0  0  0  0  0  0  0  0  0  0  0
    1.7854   21.4524  -19.7332 C   0  0  0  0  0  0  0  0  0  0  0  0
    2.5796   21.1353  -17.3967 C   0  0  0  0  0  0  0  0  0  0  0  0
    1.5398   20.8167  -16.3708 C   0  0  0  0  0  0  0  0  0  0  0  0
    1.2887   22.0276  -15.4785 C   0  0  0  0  0  0  0  0  0  0  0  0
    2.5734   22.5731  -15.0778 N   0  0  0  0  0  0  0  0  0  0  0  0
    3.1236   23.2891  -16.2080 C   0  0  0  0  0  0  0  0  0  0  0  0
    2.6860   22.6492  -17.4910 C   0  0  0  0  0  0  0  0  0  0  0  0
    2.3800   23.5557  -14.0040 C   0  0  0  0  0  0  0  0  0  0  0  0
    3.0671   23.0322  -12.7842 C   0  0  0  0  0  0  0  0  0  0  0  0
    3.9389   21.9940  -12.9938 O   0  0  0  0  0  0  0  0  0  0  0  0
    5.2602   22.3260  -12.7877 C   0  0  0  0  0  0  0  0  0  0  0  0
 23 24  1  0  0  0
 24 25  1  0  0  0
 25 26  2  0  0  0
 25 17  1  0  0  0
 17 18  2  0  0  0
 18 19  1  0  0  0
 19 20  2  0  0  0
 20 21  1  0  0  0
 21 22  2  0  0  0
 21 10  1  0  0  0
 10 11  1  0  0  0
 11 12  2  0  0  0
 12 13  1  0  0  0
 13 14  2  0  0  0
 14 15  1  0  0  0
 15 16  2  0  0  0
 12  1  1  0  0  0
  1  2  2  0  0  0
  2  3  1  0  0  0
  3  4  2  0  0  0
  4  5  1  0  0  0
  5  6  2  0  0  0
  6  7  1  0  0  0
  3 28  1  0  0  0
 28 29  1  0  0  0
 29 30  2  0  0  0
 30 31  1  0  0  0
 31 32  1  0  0  0
 31 33  1  0  0  0
 33 34  1  0  0  0
 34 35  1  0  0  0
 35 36  1  0  0  0
 36 39  1  0  0  0
 39 40  1  0  0  0
 40 41  1  0  0  0
 41 42  1  0  0  0
 36 37  1  0  0  0
 37 38  1  0  0  0
 22 17  1  0  0  0
 15 10  1  0  0  0
  6  1  1  0  0  0
 32 28  2  0  0  0
 38 33  1  0  0  0
 24 27  1  0  0  0
  7  8  1  0  0  0
  7  9  1  0  0  0
M  END
> <minimizedAffinity>
-8.45106

> <CNNscore>
0.3094903529

> <CNNaffinity>
6.9949541092

> <CNN_VS>
2.1648707390

> <CNNaffinity_variance>
0.2894408703

$$$$
[H]c1nc(N([H])[H])c(-c2nn(-c3c([H])c([H])c([H])c(C(=O)N([H])C([H])([H])[H])c3[H])c(=O)c([H])c2[H])c([H])c1-c1c([H])nn(C2([H])C([H])([H])C([H])([H])N(C([H])([H])C([H])([H])OC([H])([H])[H])C([H])([H])C2([H])[H])c1[H]


 42 46  0  0  0  0  0  0  0  0999 V2000
    1.0055   21.3303  -22.0130 C   0  0  0  0  0  0  0  0  0  0  0  0
    1.0585   21.3661  -20.6416 C   0  0  0  0  0  0  0  0  0  0  0  0
    2.2669   21.2294  -19.9466 C   0  0  0  0  0  0  0  0  0  0  0  0
    3.3914   21.0581  -20.7241 C   0  0  0  0  0  0  0  0  0  0  0  0
    3.3354   21.0239  -22.0634 N   0  0  0  0  0  0  0  0  0  0  0  0
    2.1916   21.1528  -22.7283 C   0  0  0  0  0  0  0  0  0  0  0  0
    2.1218   21.1166  -24.1602 N   0  0  0  0  0  0  0  0  0  0  0  0
    2.2140   21.9591  -24.7514 H   0  0  0  0  0  0  0  0  0  0  0  0
    1.9692   20.1848  -24.6265 H   0  0  0  0  0  0  0  0  0  0  0  0
   -1.3384   22.0093  -24.7690 N   0  0  0  0  0  0  0  0  0  0  0  0
   -0.2358   21.8748  -24.0563 N   0  0  0  0  0  0  0  0  0  0  0  0
   -0.2274   21.4671  -22.7627 C   0  0  0  0  0  0  0  0  0  0  0  0
   -1.4595   21.1930  -22.2151 C   0  0  0  0  0  0  0  0  0  0  0  0
   -2.6422   21.3225  -22.9329 C   0  0  0  0  0  0  0  0  0  0  0  0
   -2.5553   21.7429  -24.2421 C   0  0  0  0  0  0  0  0  0  0  0  0
   -3.5939   21.8848  -24.9612 O   0  0  0  0  0  0  0  0  0  0  0  0
   -2.4580   23.2595  -28.1295 C   0  0  0  0  0  0  0  0  0  0  0  0
   -1.2822   23.2938  -28.8171 C   0  0  0  0  0  0  0  0  0  0  0  0
   -0.1222   22.9017  -28.1612 C   0  0  0  0  0  0  0  0  0  0  0  0
   -0.1293   22.4834  -26.8474 C   0  0  0  0  0  0  0  0  0  0  0  0
   -1.3089   22.4415  -26.1338 C   0  0  0  0  0  0  0  0  0  0  0  0
   -2.4444   22.8301  -26.7908 C   0  0  0  0  0  0  0  0  0  0  0  0
   -5.4269   25.3948  -29.3126 C   0  0  0  0  0  0  0  0  0  0  0  0
   -4.1520   24.9811  -28.7218 N   0  0  0  0  0  0  0  0  0  0  0  0
   -3.7228   23.6439  -28.7209 C   0  0  0  0  0  0  0  0  0  0  0  0
   -4.4462   22.7658  -29.2413 O   0  0  0  0  0  0  0  0  0  0  0  0
   -3.5542   25.7122  -28.2936 H   0  0  0  0  0  0  0  0  0  0  0  0
    2.3043   21.2676  -18.4920 C   0  0  0  0  0  0  0  0  0  0  0  0
    2.5543   20.1764  -17.6910 C   0  0  0  0  0  0  0  0  0  0  0  0
    2.5063   20.6054  -16.4108 N   0  0  0  0  0  0  0  0  0  0  0  0
    2.2406   21.9035  -16.3525 N   0  0  0  0  0  0  0  0  0  0  0  0
    2.1146   22.3207  -17.6236 C   0  0  0  0  0  0  0  0  0  0  0  0
    2.1072   22.7304  -15.1696 C   0  0  0  0  0  0  0  0  0  0  0  0
    3.4244   22.9352  -14.4928 C   0  0  0  0  0  0  0  0  0  0  0  0
    3.2825   22.7352  -12.9876 C   0  0  0  0  0  0  0  0  0  0  0  0
    2.1060   23.4594  -12.5403 N   0  0  0  0  0  0  0  0  0  0  0  0
    0.9401   22.7004  -12.9369 C   0  0  0  0  0  0  0  0  0  0  0  0
    1.2113   21.9605  -14.2121 C   0  0  0  0  0  0  0  0  0  0  0  0
    2.0935   23.5242  -11.0734 C   0  0  0  0  0  0  0  0  0  0  0  0
    2.4245   24.9279  -10.6809 C   0  0  0  0  0  0  0  0  0  0  0  0
    3.2718   25.0605   -9.6102 O   0  0  0  0  0  0  0  0  0  0  0  0
    4.4127   24.2936   -9.7046 C   0  0  0  0  0  0  0  0  0  0  0  0
 23 24  1  0  0  0
 24 25  1  0  0  0
 25 26  2  0  0  0
 25 17  1  0  0  0
 17 18  2  0  0  0
 18 19  1  0  0  0
 19 20  2  0  0  0
 20 21  1  0  0  0
 21 22  2  0  0  0
 21 10  1  0  0  0
 10 11  1  0  0  0
 11 12  2  0  0  0
 12 13  1  0  0  0
 13 14  2  0  0  0
 14 15  1  0  0  0
 15 16  2  0  0  0
 12  1  1  0  0  0
  1  2  2  0  0  0
  2  3  1  0  0  0
  3  4  2  0  0  0
  4  5  1  0  0  0
  5  6  2  0  0  0
  6  7  1  0  0  0
  3 28  1  0  0  0
 28 29  1  0  0  0
 29 30  2  0  0  0
 30 31  1  0  0  0
 31 32  1  0  0  0
 31 33  1  0  0  0
 33 34  1  0  0  0
 34 35  1  0  0  0
 35 36  1  0  0  0
 36 39  1  0  0  0
 39 40  1  0  0  0
 40 41  1  0  0  0
 41 42  1  0  0  0
 36 37  1  0  0  0
 37 38  1  0  0  0
 22 17  1  0  0  0
 15 10  1  0  0  0
  6  1  1  0  0  0
 32 28  2  0  0  0
 38 33  1  0  0  0
 24 27  1  0  0  0
  7  8  1  0  0  0
  7  9  1  0  0  0
M  END
> <minimizedAffinity>
-8.35636

> <CNNscore>
0.3028312325

> <CNNaffinity>
6.2180104256

> <CNN_VS>
1.8830077648

> <CNNaffinity_variance>
0.0840799659

$$$$
[H]c1nc(N([H])[H])c(-c2nn(-c3c([H])c([H])c([H])c(C(=O)N([H])C([H])([H])[H])c3[H])c(=O)c([H])c2[H])c([H])c1-c1c([H])nn(C2([H])C([H])([H])C([H])([H])N(C([H])([H])C([H])([H])OC([H])([H])[H])C([H])([H])C2([H])[H])c1[H]


 42 46  0  0  0  0  0  0  0  0999 V2000
   -1.1062   22.5263  -22.0503 C   0  0  0  0  0  0  0  0  0  0  0  0
   -0.2964   21.9631  -21.0953 C   0  0  0  0  0  0  0  0  0  0  0  0
   -0.5774   22.0799  -19.7281 C   0  0  0  0  0  0  0  0  0  0  0  0
   -1.7123   22.7919  -19.4064 C   0  0  0  0  0  0  0  0  0  0  0  0
   -2.5007   23.3403  -20.3421 N   0  0  0  0  0  0  0  0  0  0  0  0
   -2.2389   23.2330  -21.6409 C   0  0  0  0  0  0  0  0  0  0  0  0
   -3.0757   23.8167  -22.6487 N   0  0  0  0  0  0  0  0  0  0  0  0
   -3.8764   23.3212  -23.0742 H   0  0  0  0  0  0  0  0  0  0  0  0
   -2.8597   24.7971  -22.9668 H   0  0  0  0  0  0  0  0  0  0  0  0
   -1.6002   22.5985  -25.6973 N   0  0  0  0  0  0  0  0  0  0  0  0
   -1.8040   22.6791  -24.3958 N   0  0  0  0  0  0  0  0  0  0  0  0
   -0.8438   22.4257  -23.4721 C   0  0  0  0  0  0  0  0  0  0  0  0
    0.3875   22.0705  -23.9730 C   0  0  0  0  0  0  0  0  0  0  0  0
    0.6409   21.9747  -25.3358 C   0  0  0  0  0  0  0  0  0  0  0  0
   -0.3946   22.2504  -26.2019 C   0  0  0  0  0  0  0  0  0  0  0  0
   -0.2384   22.1837  -27.4617 O   0  0  0  0  0  0  0  0  0  0  0  0
   -4.8469   23.7771  -27.1737 C   0  0  0  0  0  0  0  0  0  0  0  0
   -4.6980   23.4280  -28.4823 C   0  0  0  0  0  0  0  0  0  0  0  0
   -3.5194   22.8027  -28.8687 C   0  0  0  0  0  0  0  0  0  0  0  0
   -2.5076   22.5292  -27.9730 C   0  0  0  0  0  0  0  0  0  0  0  0
   -2.6384   22.8745  -26.6440 C   0  0  0  0  0  0  0  0  0  0  0  0
   -3.8037   23.4897  -26.2759 C   0  0  0  0  0  0  0  0  0  0  0  0
   -7.8314   24.6754  -24.9243 C   0  0  0  0  0  0  0  0  0  0  0  0
   -6.6279   24.0324  -25.4569 N   0  0  0  0  0  0  0  0  0  0  0  0
   -6.0367   24.4293  -26.6674 C   0  0  0  0  0  0  0  0  0  0  0  0
   -6.5464   25.3652  -27.3225 O   0  0  0  0  0  0  0  0  0  0  0  0
   -6.2070   23.2586  -24.9097 H   0  0  0  0  0  0  0  0  0  0  0  0
    0.2936   21.4781  -18.7290 C   0  0  0  0  0  0  0  0  0  0  0  0
   -0.0155   20.3478  -18.0066 C   0  0  0  0  0  0  0  0  0  0  0  0
    1.0316   20.1017  -17.1891 N   0  0  0  0  0  0  0  0  0  0  0  0
    1.9859   21.0086  -17.3501 N   0  0  0  0  0  0  0  0  0  0  0  0
    1.5442   21.8584  -18.2927 C   0  0  0  0  0  0  0  0  0  0  0  0
    3.2585   21.0905  -16.6612 C   0  0  0  0  0  0  0  0  0  0  0  0
    3.2289   22.1186  -15.5761 C   0  0  0  0  0  0  0  0  0  0  0  0
    4.4862   22.9800  -15.6293 C   0  0  0  0  0  0  0  0  0  0  0  0
    5.6339   22.1031  -15.7796 N   0  0  0  0  0  0  0  0  0  0  0  0
    5.6665   21.6461  -17.1519 C   0  0  0  0  0  0  0  0  0  0  0  0
    4.2743   21.5433  -17.6981 C   0  0  0  0  0  0  0  0  0  0  0  0
    6.8697   22.8632  -15.5542 C   0  0  0  0  0  0  0  0  0  0  0  0
    7.3558   23.3393  -16.8850 C   0  0  0  0  0  0  0  0  0  0  0  0
    7.1795   24.6762  -17.1374 O   0  0  0  0  0  0  0  0  0  0  0  0
    6.7348   24.9482  -18.4129 C   0  0  0  0  0  0  0  0  0  0  0  0
 23 24  1  0  0  0
 24 25  1  0  0  0
 25 26  2  0  0  0
 25 17  1  0  0  0
 17 18  2  0  0  0
 18 19  1  0  0  0
 19 20  2  0  0  0
 20 21  1  0  0  0
 21 22  2  0  0  0
 21 10  1  0  0  0
 10 11  1  0  0  0
 11 12  2  0  0  0
 12 13  1  0  0  0
 13 14  2  0  0  0
 14 15  1  0  0  0
 15 16  2  0  0  0
 12  1  1  0  0  0
  1  2  2  0  0  0
  2  3  1  0  0  0
  3  4  2  0  0  0
  4  5  1  0  0  0
  5  6  2  0  0  0
  6  7  1  0  0  0
  3 28  1  0  0  0
 28 29  1  0  0  0
 29 30  2  0  0  0
 30 31  1  0  0  0
 31 32  1  0  0  0
 31 33  1  0  0  0
 33 34  1  0  0  0
 34 35  1  0  0  0
 35 36  1  0  0  0
 36 39  1  0  0  0
 39 40  1  0  0  0
 40 41  1  0  0  0
 41 42  1  0  0  0
 36 37  1  0  0  0
 37 38  1  0  0  0
 22 17  1  0  0  0
 15 10  1  0  0  0
  6  1  1  0  0  0
 32 28  2  0  0  0
 38 33  1  0  0  0
 24 27  1  0  0  0
  7  8  1  0  0  0
  7  9  1  0  0  0
M  END
> <minimizedAffinity>
-8.62169

> <CNNscore>
0.1957148910

> <CNNaffinity>
6.8604764938

> <CNN_VS>
1.3426973820

> <CNNaffinity_variance>
0.1311163008

$$$$
[H]c1nc(N([H])[H])c(-c2nn(-c3c([H])c([H])c([H])c(C(=O)N([H])C([H])([H])[H])c3[H])c(=O)c([H])c2[H])c([H])c1-c1c([H])nn(C2([H])C([H])([H])C([H])([H])N(C([H])([H])C([H])([H])OC([H])([H])[H])C([H])([H])C2([H])[H])c1[H]


 42 46  0  0  0  0  0  0  0  0999 V2000
   -0.9300   21.6700  -23.6130 C   0  0  0  0  0  0  0  0  0  0  0  0
   -0.4877   21.3605  -22.3507 C   0  0  0  0  0  0  0  0  0  0  0  0
    0.8656   21.1194  -22.0821 C   0  0  0  0  0  0  0  0  0  0  0  0
    1.7184   21.2128  -23.1602 C   0  0  0  0  0  0  0  0  0  0  0  0
    1.2825   21.5156  -24.3916 N   0  0  0  0  0  0  0  0  0  0  0  0
   -0.0005   21.7451  -24.6525 C   0  0  0  0  0  0  0  0  0  0  0  0
   -0.4761   22.0687  -25.9662 N   0  0  0  0  0  0  0  0  0  0  0  0
   -0.5394   23.0372  -26.3210 H   0  0  0  0  0  0  0  0  0  0  0  0
   -0.7737   21.2783  -26.5952 H   0  0  0  0  0  0  0  0  0  0  0  0
   -3.9874   23.3583  -24.7758 N   0  0  0  0  0  0  0  0  0  0  0  0
   -2.7293   23.0939  -24.4775 N   0  0  0  0  0  0  0  0  0  0  0  0
   -2.3223   21.9237  -23.9254 C   0  0  0  0  0  0  0  0  0  0  0  0
   -3.3137   21.0005  -23.6851 C   0  0  0  0  0  0  0  0  0  0  0  0
   -4.6488   21.2418  -23.9850 C   0  0  0  0  0  0  0  0  0  0  0  0
   -4.9708   22.4591  -24.5444 C   0  0  0  0  0  0  0  0  0  0  0  0
   -6.1707   22.7515  -24.8456 O   0  0  0  0  0  0  0  0  0  0  0  0
   -5.1066   25.9124  -27.2924 C   0  0  0  0  0  0  0  0  0  0  0  0
   -5.1547   27.0439  -26.5349 C   0  0  0  0  0  0  0  0  0  0  0  0
   -4.8154   26.9534  -25.1910 C   0  0  0  0  0  0  0  0  0  0  0  0
   -4.4355   25.7622  -24.6100 C   0  0  0  0  0  0  0  0  0  0  0  0
   -4.3804   24.6054  -25.3593 C   0  0  0  0  0  0  0  0  0  0  0  0
   -4.7169   24.7076  -26.6815 C   0  0  0  0  0  0  0  0  0  0  0  0
   -4.7454   25.8201  -31.1180 C   0  0  0  0  0  0  0  0  0  0  0  0
   -4.4370   25.8341  -29.6862 N   0  0  0  0  0  0  0  0  0  0  0  0
   -5.4371   25.8990  -28.7024 C   0  0  0  0  0  0  0  0  0  0  0  0
   -6.6382   25.9459  -29.0492 O   0  0  0  0  0  0  0  0  0  0  0  0
   -3.4403   25.7927  -29.4028 H   0  0  0  0  0  0  0  0  0  0  0  0
    1.3166   20.7902  -20.7377 C   0  0  0  0  0  0  0  0  0  0  0  0
    0.5677   20.0977  -19.8134 C   0  0  0  0  0  0  0  0  0  0  0  0
    1.3193   19.9892  -18.6959 N   0  0  0  0  0  0  0  0  0  0  0  0
    2.4998   20.5718  -18.8568 N   0  0  0  0  0  0  0  0  0  0  0  0
    2.5097   21.0669  -20.1060 C   0  0  0  0  0  0  0  0  0  0  0  0
    3.5801   20.6697  -17.8954 C   0  0  0  0  0  0  0  0  0  0  0  0
    3.3127   21.7311  -16.8770 C   0  0  0  0  0  0  0  0  0  0  0  0
    4.5580   22.5851  -16.6636 C   0  0  0  0  0  0  0  0  0  0  0  0
    5.6994   21.6991  -16.5192 N   0  0  0  0  0  0  0  0  0  0  0  0
    6.0424   21.1996  -17.8329 C   0  0  0  0  0  0  0  0  0  0  0  0
    4.8127   21.0857  -18.6825 C   0  0  0  0  0  0  0  0  0  0  0  0
    6.8585   22.4606  -16.0369 C   0  0  0  0  0  0  0  0  0  0  0  0
    6.5684   23.9105  -16.2553 C   0  0  0  0  0  0  0  0  0  0  0  0
    7.4414   24.5724  -17.0810 O   0  0  0  0  0  0  0  0  0  0  0  0
    7.0577   24.5819  -18.4043 C   0  0  0  0  0  0  0  0  0  0  0  0
 23 24  1  0  0  0
 24 25  1  0  0  0
 25 26  2  0  0  0
 25 17  1  0  0  0
 17 18  2  0  0  0
 18 19  1  0  0  0
 19 20  2  0  0  0
 20 21  1  0  0  0
 21 22  2  0  0  0
 21 10  1  0  0  0
 10 11  1  0  0  0
 11 12  2  0  0  0
 12 13  1  0  0  0
 13 14  2  0  0  0
 14 15  1  0  0  0
 15 16  2  0  0  0
 12  1  1  0  0  0
  1  2  2  0  0  0
  2  3  1  0  0  0
  3  4  2  0  0  0
  4  5  1  0  0  0
  5  6  2  0  0  0
  6  7  1  0  0  0
  3 28  1  0  0  0
 28 29  1  0  0  0
 29 30  2  0  0  0
 30 31  1  0  0  0
 31 32  1  0  0  0
 31 33  1  0  0  0
 33 34  1  0  0  0
 34 35  1  0  0  0
 35 36  1  0  0  0
 36 39  1  0  0  0
 39 40  1  0  0  0
 40 41  1  0  0  0
 41 42  1  0  0  0
 36 37  1  0  0  0
 37 38  1  0  0  0
 22 17  1  0  0  0
 15 10  1  0  0  0
  6  1  1  0  0  0
 32 28  2  0  0  0
 38 33  1  0  0  0
 24 27  1  0  0  0
  7  8  1  0  0  0
  7  9  1  0  0  0
M  END
> <minimizedAffinity>
-8.71892

> <CNNscore>
0.1889411807

> <CNNaffinity>
6.9883360863

> <CNN_VS>
1.3203845024

> <CNNaffinity_variance>
0.4211994708

$$$$
[H]c1nc(N([H])[H])c(-c2nn(-c3c([H])c([H])c([H])c(C(=O)N([H])C([H])([H])[H])c3[H])c(=O)c([H])c2[H])c([H])c1-c1c([H])nn(C2([H])C([H])([H])C([H])([H])N(C([H])([H])C([H])([H])OC([H])([H])[H])C([H])([H])C2([H])[H])c1[H]


 42 46  0  0  0  0  0  0  0  0999 V2000
    0.1431   21.3037  -23.0985 C   0  0  0  0  0  0  0  0  0  0  0  0
   -1.1970   21.5839  -23.1997 C   0  0  0  0  0  0  0  0  0  0  0  0
   -1.7423   22.1747  -24.3467 C   0  0  0  0  0  0  0  0  0  0  0  0
   -0.8517   22.4540  -25.3602 C   0  0  0  0  0  0  0  0  0  0  0  0
    0.4565   22.1785  -25.2575 N   0  0  0  0  0  0  0  0  0  0  0  0
    0.9796   21.6183  -24.1716 C   0  0  0  0  0  0  0  0  0  0  0  0
    2.3775   21.3208  -24.0525 N   0  0  0  0  0  0  0  0  0  0  0  0
    2.7907   20.4218  -24.3505 H   0  0  0  0  0  0  0  0  0  0  0  0
    3.0084   22.0567  -23.6411 H   0  0  0  0  0  0  0  0  0  0  0  0
    2.6177   20.3533  -20.5444 N   0  0  0  0  0  0  0  0  0  0  0  0
    2.0423   20.8907  -21.6037 N   0  0  0  0  0  0  0  0  0  0  0  0
    0.7396   20.6946  -21.9265 C   0  0  0  0  0  0  0  0  0  0  0  0
    0.0280   19.8853  -21.0711 C   0  0  0  0  0  0  0  0  0  0  0  0
    0.5981   19.3016  -19.9464 C   0  0  0  0  0  0  0  0  0  0  0  0
    1.9289   19.5561  -19.6963 C   0  0  0  0  0  0  0  0  0  0  0  0
    2.5191   19.0573  -18.6870 O   0  0  0  0  0  0  0  0  0  0  0  0
    5.7544   21.9861  -19.2778 C   0  0  0  0  0  0  0  0  0  0  0  0
    6.7003   21.0647  -19.6133 C   0  0  0  0  0  0  0  0  0  0  0  0
    6.2919   19.9044  -20.2587 C   0  0  0  0  0  0  0  0  0  0  0  0
    4.9694   19.6635  -20.5653 C   0  0  0  0  0  0  0  0  0  0  0  0
    3.9965   20.5835  -20.2342 C   0  0  0  0  0  0  0  0  0  0  0  0
    4.4113   21.7220  -19.5989 C   0  0  0  0  0  0  0  0  0  0  0  0
    5.3743   25.2740  -17.3235 C   0  0  0  0  0  0  0  0  0  0  0  0
    5.0760   24.0134  -18.0072 N   0  0  0  0  0  0  0  0  0  0  0  0
    6.0747   23.2288  -18.6066 C   0  0  0  0  0  0  0  0  0  0  0  0
    7.2656   23.6094  -18.5606 O   0  0  0  0  0  0  0  0  0  0  0  0
    4.0880   23.7003  -18.0410 H   0  0  0  0  0  0  0  0  0  0  0  0
   -3.1655   22.4669  -24.4358 C   0  0  0  0  0  0  0  0  0  0  0  0
   -3.9992   21.9832  -25.4186 C   0  0  0  0  0  0  0  0  0  0  0  0
   -5.2342   22.4689  -25.1648 N   0  0  0  0  0  0  0  0  0  0  0  0
   -5.2329   23.2317  -24.0799 N   0  0  0  0  0  0  0  0  0  0  0  0
   -3.9689   23.2379  -23.6239 C   0  0  0  0  0  0  0  0  0  0  0  0
   -6.3545   23.9303  -23.4842 C   0  0  0  0  0  0  0  0  0  0  0  0
   -5.9162   25.1812  -22.7925 C   0  0  0  0  0  0  0  0  0  0  0  0
   -6.5790   25.2884  -21.4232 C   0  0  0  0  0  0  0  0  0  0  0  0
   -7.9918   24.9897  -21.5758 N   0  0  0  0  0  0  0  0  0  0  0  0
   -8.1281   23.5581  -21.7338 C   0  0  0  0  0  0  0  0  0  0  0  0
   -6.9252   22.9956  -22.4293 C   0  0  0  0  0  0  0  0  0  0  0  0
   -8.7093   25.3529  -20.3473 C   0  0  0  0  0  0  0  0  0  0  0  0
   -9.2072   26.7525  -20.5126 C   0  0  0  0  0  0  0  0  0  0  0  0
   -9.6386   27.0838  -21.7720 O   0  0  0  0  0  0  0  0  0  0  0  0
  -11.0001   26.9613  -21.9446 C   0  0  0  0  0  0  0  0  0  0  0  0
 23 24  1  0  0  0
 24 25  1  0  0  0
 25 26  2  0  0  0
 25 17  1  0  0  0
 17 18  2  0  0  0
 18 19  1  0  0  0
 19 20  2  0  0  0
 20 21  1  0  0  0
 21 22  2  0  0  0
 21 10  1  0  0  0
 10 11  1  0  0  0
 11 12  2  0  0  0
 12 13  1  0  0  0
 13 14  2  0  0  0
 14 15  1  0  0  0
 15 16  2  0  0  0
 12  1  1  0  0  0
  1  2  2  0  0  0
  2  3  1  0  0  0
  3  4  2  0  0  0
  4  5  1  0  0  0
  5  6  2  0  0  0
  6  7  1  0  0  0
  3 28  1  0  0  0
 28 29  1  0  0  0
 29 30  2  0  0  0
 30 31  1  0  0  0
 31 32  1  0  0  0
 31 33  1  0  0  0
 33 34  1  0  0  0
 34 35  1  0  0  0
 35 36  1  0  0  0
 36 39  1  0  0  0
 39 40  1  0  0  0
 40 41  1  0  0  0
 41 42  1  0  0  0
 36 37  1  0  0  0
 37 38  1  0  0  0
 22 17  1  0  0  0
 15 10  1  0  0  0
  6  1  1  0  0  0
 32 28  2  0  0  0
 38 33  1  0  0  0
 24 27  1  0  0  0
  7  8  1  0  0  0
  7  9  1  0  0  0
M  END
> <minimizedAffinity>
-7.93408

> <CNNscore>
0.1744376123

> <CNNaffinity>
6.4689874649

> <CNN_VS>
1.1284347773

> <CNNaffinity_variance>
0.0380989499

$$$$
[H]c1nc(N([H])[H])c(-c2nn(-c3c([H])c([H])c([H])c(C(=O)N([H])C([H])([H])[H])c3[H])c(=O)c([H])c2[H])c([H])c1-c1c([H])nn(C2([H])C([H])([H])C([H])([H])N(C([H])([H])C([H])([H])OC([H])([H])[H])C([H])([H])C2([H])[H])c1[H]


 42 46  0  0  0  0  0  0  0  0999 V2000
    0.8984   21.2578  -22.6352 C   0  0  0  0  0  0  0  0  0  0  0  0
   -0.4340   21.5702  -22.7441 C   0  0  0  0  0  0  0  0  0  0  0  0
   -1.0139   21.9085  -23.9734 C   0  0  0  0  0  0  0  0  0  0  0  0
   -0.1654   21.9070  -25.0590 C   0  0  0  0  0  0  0  0  0  0  0  0
    1.1354   21.6012  -24.9483 N   0  0  0  0  0  0  0  0  0  0  0  0
    1.6913   21.2796  -23.7845 C   0  0  0  0  0  0  0  0  0  0  0  0
    3.0815   20.9519  -23.6564 N   0  0  0  0  0  0  0  0  0  0  0  0
    3.4463   19.9903  -23.7559 H   0  0  0  0  0  0  0  0  0  0  0  0
    3.7586   21.7319  -23.4511 H   0  0  0  0  0  0  0  0  0  0  0  0
    2.7770   21.5360  -19.4818 N   0  0  0  0  0  0  0  0  0  0  0  0
    2.1917   21.8215  -20.6297 N   0  0  0  0  0  0  0  0  0  0  0  0
    1.5300   20.9050  -21.3793 C   0  0  0  0  0  0  0  0  0  0  0  0
    1.4983   19.6275  -20.8694 C   0  0  0  0  0  0  0  0  0  0  0  0
    2.1023   19.2879  -19.6650 C   0  0  0  0  0  0  0  0  0  0  0  0
    2.7528   20.2842  -18.9702 C   0  0  0  0  0  0  0  0  0  0  0  0
    3.3286   20.0493  -17.8615 O   0  0  0  0  0  0  0  0  0  0  0  0
    5.5253   23.7041  -18.1196 C   0  0  0  0  0  0  0  0  0  0  0  0
    4.8493   24.4766  -17.2237 C   0  0  0  0  0  0  0  0  0  0  0  0
    3.4830   24.2741  -17.0762 C   0  0  0  0  0  0  0  0  0  0  0  0
    2.8007   23.3227  -17.8043 C   0  0  0  0  0  0  0  0  0  0  0  0
    3.4664   22.5305  -18.7163 C   0  0  0  0  0  0  0  0  0  0  0  0
    4.8117   22.7396  -18.8525 C   0  0  0  0  0  0  0  0  0  0  0  0
    9.0455   23.1740  -19.5693 C   0  0  0  0  0  0  0  0  0  0  0  0
    7.6061   23.0631  -19.3212 N   0  0  0  0  0  0  0  0  0  0  0  0
    6.9498   23.8325  -18.3467 C   0  0  0  0  0  0  0  0  0  0  0  0
    7.6074   24.6458  -17.6603 O   0  0  0  0  0  0  0  0  0  0  0  0
    7.0642   22.3896  -19.8939 H   0  0  0  0  0  0  0  0  0  0  0  0
   -2.4282   22.2391  -24.0702 C   0  0  0  0  0  0  0  0  0  0  0  0
   -3.3160   21.6190  -24.9199 C   0  0  0  0  0  0  0  0  0  0  0  0
   -4.5221   22.1946  -24.7215 N   0  0  0  0  0  0  0  0  0  0  0  0
   -4.4517   23.1427  -23.7967 N   0  0  0  0  0  0  0  0  0  0  0  0
   -3.1716   23.1791  -23.3897 C   0  0  0  0  0  0  0  0  0  0  0  0
   -5.5239   23.9852  -23.3053 C   0  0  0  0  0  0  0  0  0  0  0  0
   -5.0604   24.8675  -22.1908 C   0  0  0  0  0  0  0  0  0  0  0  0
   -6.0721   24.8540  -21.0498 C   0  0  0  0  0  0  0  0  0  0  0  0
   -7.3993   25.0200  -21.6151 N   0  0  0  0  0  0  0  0  0  0  0  0
   -7.7856   23.7628  -22.2176 C   0  0  0  0  0  0  0  0  0  0  0  0
   -6.5782   23.0455  -22.7417 C   0  0  0  0  0  0  0  0  0  0  0  0
   -8.3634   25.2920  -20.5415 C   0  0  0  0  0  0  0  0  0  0  0  0
   -9.1728   26.4795  -20.9520 C   0  0  0  0  0  0  0  0  0  0  0  0
   -9.3732   27.4259  -19.9794 O   0  0  0  0  0  0  0  0  0  0  0  0
  -10.1551   28.4852  -20.3857 C   0  0  0  0  0  0  0  0  0  0  0  0
 23 24  1  0  0  0
 24 25  1  0  0  0
 25 26  2  0  0  0
 25 17  1  0  0  0
 17 18  2  0  0  0
 18 19  1  0  0  0
 19 20  2  0  0  0
 20 21  1  0  0  0
 21 22  2  0  0  0
 21 10  1  0  0  0
 10 11  1  0  0  0
 11 12  2  0  0  0
 12 13  1  0  0  0
 13 14  2  0  0  0
 14 15  1  0  0  0
 15 16  2  0  0  0
 12  1  1  0  0  0
  1  2  2  0  0  0
  2  3  1  0  0  0
  3  4  2  0  0  0
  4  5  1  0  0  0
  5  6  2  0  0  0
  6  7  1  0  0  0
  3 28  1  0  0  0
 28 29  1  0  0  0
 29 30  2  0  0  0
 30 31  1  0  0  0
 31 32  1  0  0  0
 31 33  1  0  0  0
 33 34  1  0  0  0
 34 35  1  0  0  0
 35 36  1  0  0  0
 36 39  1  0  0  0
 39 40  1  0  0  0
 40 41  1  0  0  0
 41 42  1  0  0  0
 36 37  1  0  0  0
 37 38  1  0  0  0
 22 17  1  0  0  0
 15 10  1  0  0  0
  6  1  1  0  0  0
 32 28  2  0  0  0
 38 33  1  0  0  0
 24 27  1  0  0  0
  7  8  1  0  0  0
  7  9  1  0  0  0
M  END
> <minimizedAffinity>
-8.70797

> <CNNscore>
0.1743359715

> <CNNaffinity>
6.3914284706

> <CNN_VS>
1.1142559052

> <CNNaffinity_variance>
0.0366658159

$$$$
[H]c1nc(N([H])[H])c(-c2nn(-c3c([H])c([H])c([H])c(C(=O)N([H])C([H])([H])[H])c3[H])c(=O)c([H])c2[H])c([H])c1-c1c([H])nn(C2([H])C([H])([H])C([H])([H])N(C([H])([H])C([H])([H])OC([H])([H])[H])C([H])([H])C2([H])[H])c1[H]


 42 46  0  0  0  0  0  0  0  0999 V2000
   -0.3262   21.7086  -24.0316 C   0  0  0  0  0  0  0  0  0  0  0  0
    0.9176   21.3966  -23.5413 C   0  0  0  0  0  0  0  0  0  0  0  0
    1.1023   20.9582  -22.2239 C   0  0  0  0  0  0  0  0  0  0  0  0
   -0.0384   20.8608  -21.4573 C   0  0  0  0  0  0  0  0  0  0  0  0
   -1.2515   21.1664  -21.9400 N   0  0  0  0  0  0  0  0  0  0  0  0
   -1.4328   21.5832  -23.1891 C   0  0  0  0  0  0  0  0  0  0  0  0
   -2.7261   21.9130  -23.7137 N   0  0  0  0  0  0  0  0  0  0  0  0
   -3.3425   21.2218  -24.1720 H   0  0  0  0  0  0  0  0  0  0  0  0
   -3.0588   22.9082  -23.6252 H   0  0  0  0  0  0  0  0  0  0  0  0
   -2.0412   22.8335  -27.0883 N   0  0  0  0  0  0  0  0  0  0  0  0
   -1.7989   22.4152  -25.8602 N   0  0  0  0  0  0  0  0  0  0  0  0
   -0.5520   22.1661  -25.3881 C   0  0  0  0  0  0  0  0  0  0  0  0
    0.4762   22.3769  -26.2777 C   0  0  0  0  0  0  0  0  0  0  0  0
    0.2615   22.8166  -27.5782 C   0  0  0  0  0  0  0  0  0  0  0  0
   -1.0391   23.0443  -27.9719 C   0  0  0  0  0  0  0  0  0  0  0  0
   -1.3135   23.4473  -29.1459 O   0  0  0  0  0  0  0  0  0  0  0  0
   -5.6298   23.9402  -27.1689 C   0  0  0  0  0  0  0  0  0  0  0  0
   -5.9962   23.5972  -28.4355 C   0  0  0  0  0  0  0  0  0  0  0  0
   -5.0493   22.9998  -29.2577 C   0  0  0  0  0  0  0  0  0  0  0  0
   -3.7629   22.7478  -28.8305 C   0  0  0  0  0  0  0  0  0  0  0  0
   -3.3719   23.0875  -27.5521 C   0  0  0  0  0  0  0  0  0  0  0  0
   -4.3135   23.6751  -26.7521 C   0  0  0  0  0  0  0  0  0  0  0  0
   -6.9699   25.8736  -24.1291 C   0  0  0  0  0  0  0  0  0  0  0  0
   -6.0692   25.2356  -25.0920 N   0  0  0  0  0  0  0  0  0  0  0  0
   -6.5408   24.5640  -26.2316 C   0  0  0  0  0  0  0  0  0  0  0  0
   -7.7723   24.5027  -26.4433 O   0  0  0  0  0  0  0  0  0  0  0  0
   -5.0490   25.2907  -24.9142 H   0  0  0  0  0  0  0  0  0  0  0  0
    2.4289   20.6337  -21.7202 C   0  0  0  0  0  0  0  0  0  0  0  0
    3.3201   19.7992  -22.3559 C   0  0  0  0  0  0  0  0  0  0  0  0
    4.4308   19.7472  -21.5884 N   0  0  0  0  0  0  0  0  0  0  0  0
    4.2967   20.4989  -20.5040 N   0  0  0  0  0  0  0  0  0  0  0  0
    3.0722   21.0479  -20.5740 C   0  0  0  0  0  0  0  0  0  0  0  0
    5.2606   20.7046  -19.4412 C   0  0  0  0  0  0  0  0  0  0  0  0
    4.7168   20.2725  -18.1172 C   0  0  0  0  0  0  0  0  0  0  0  0
    5.0155   21.3243  -17.0541 C   0  0  0  0  0  0  0  0  0  0  0  0
    6.4064   21.7211  -17.1832 N   0  0  0  0  0  0  0  0  0  0  0  0
    6.5152   22.5890  -18.3355 C   0  0  0  0  0  0  0  0  0  0  0  0
    5.5040   22.2040  -19.3729 C   0  0  0  0  0  0  0  0  0  0  0  0
    6.8048   22.5140  -16.0134 C   0  0  0  0  0  0  0  0  0  0  0  0
    6.7941   23.9527  -16.4185 C   0  0  0  0  0  0  0  0  0  0  0  0
    7.7785   24.7320  -15.8658 O   0  0  0  0  0  0  0  0  0  0  0  0
    8.8820   24.0212  -15.4468 C   0  0  0  0  0  0  0  0  0  0  0  0
 23 24  1  0  0  0
 24 25  1  0  0  0
 25 26  2  0  0  0
 25 17  1  0  0  0
 17 18  2  0  0  0
 18 19  1  0  0  0
 19 20  2  0  0  0
 20 21  1  0  0  0
 21 22  2  0  0  0
 21 10  1  0  0  0
 10 11  1  0  0  0
 11 12  2  0  0  0
 12 13  1  0  0  0
 13 14  2  0  0  0
 14 15  1  0  0  0
 15 16  2  0  0  0
 12  1  1  0  0  0
  1  2  2  0  0  0
  2  3  1  0  0  0
  3  4  2  0  0  0
  4  5  1  0  0  0
  5  6  2  0  0  0
  6  7  1  0  0  0
  3 28  1  0  0  0
 28 29  1  0  0  0
 29 30  2  0  0  0
 30 31  1  0  0  0
 31 32  1  0  0  0
 31 33  1  0  0  0
 33 34  1  0  0  0
 34 35  1  0  0  0
 35 36  1  0  0  0
 36 39  1  0  0  0
 39 40  1  0  0  0
 40 41  1  0  0  0
 41 42  1  0  0  0
 36 37  1  0  0  0
 37 38  1  0  0  0
 22 17  1  0  0  0
 15 10  1  0  0  0
  6  1  1  0  0  0
 32 28  2  0  0  0
 38 33  1  0  0  0
 24 27  1  0  0  0
  7  8  1  0  0  0
  7  9  1  0  0  0
M  END
> <minimizedAffinity>
-9.66995

> <CNNscore>
0.1505459249

> <CNNaffinity>
6.5090546608

> <CNN_VS>
0.9799116254

> <CNNaffinity_variance>
0.1708118021

$$$$
[H]c1nc(N([H])[H])c(-c2nn(-c3c([H])c([H])c([H])c(C(=O)N([H])C([H])([H])[H])c3[H])c(=O)c([H])c2[H])c([H])c1-c1c([H])nn(C2([H])C([H])([H])C([H])([H])N(C([H])([H])C([H])([H])OC([H])([H])[H])C([H])([H])C2([H])[H])c1[H]


 42 46  0  0  0  0  0  0  0  0999 V2000
    1.0392   20.8363  -21.2360 C   0  0  0  0  0  0  0  0  0  0  0  0
    0.3555   21.2855  -22.3385 C   0  0  0  0  0  0  0  0  0  0  0  0
    0.9909   21.4805  -23.5714 C   0  0  0  0  0  0  0  0  0  0  0  0
    2.3381   21.1934  -23.6053 C   0  0  0  0  0  0  0  0  0  0  0  0
    3.0022   20.7546  -22.5263 N   0  0  0  0  0  0  0  0  0  0  0  0
    2.4046   20.5680  -21.3537 C   0  0  0  0  0  0  0  0  0  0  0  0
    3.1068   20.0999  -20.1942 N   0  0  0  0  0  0  0  0  0  0  0  0
    3.2102   19.0981  -19.9631 H   0  0  0  0  0  0  0  0  0  0  0  0
    3.5355   20.8151  -19.5511 H   0  0  0  0  0  0  0  0  0  0  0  0
   -0.4943   19.1574  -18.3412 N   0  0  0  0  0  0  0  0  0  0  0  0
    0.0757   19.3863  -19.5093 N   0  0  0  0  0  0  0  0  0  0  0  0
    0.4129   20.6253  -19.9461 C   0  0  0  0  0  0  0  0  0  0  0  0
    0.1233   21.6604  -19.0872 C   0  0  0  0  0  0  0  0  0  0  0  0
   -0.4761   21.4597  -17.8497 C   0  0  0  0  0  0  0  0  0  0  0  0
   -0.7839   20.1663  -17.4883 C   0  0  0  0  0  0  0  0  0  0  0  0
   -1.3333   19.9048  -16.3721 O   0  0  0  0  0  0  0  0  0  0  0  0
   -2.3661   15.9292  -17.9111 C   0  0  0  0  0  0  0  0  0  0  0  0
   -1.5344   15.2359  -17.0841 C   0  0  0  0  0  0  0  0  0  0  0  0
   -0.3550   15.8437  -16.6731 C   0  0  0  0  0  0  0  0  0  0  0  0
   -0.0077   17.1159  -17.0754 C   0  0  0  0  0  0  0  0  0  0  0  0
   -0.8356   17.8345  -17.9124 C   0  0  0  0  0  0  0  0  0  0  0  0
   -1.9941   17.2250  -18.3102 C   0  0  0  0  0  0  0  0  0  0  0  0
   -4.9750   13.4904  -19.3322 C   0  0  0  0  0  0  0  0  0  0  0  0
   -3.7191   14.0601  -18.8385 N   0  0  0  0  0  0  0  0  0  0  0  0
   -3.6198   15.3886  -18.3942 C   0  0  0  0  0  0  0  0  0  0  0  0
   -4.6337   16.1212  -18.4152 O   0  0  0  0  0  0  0  0  0  0  0  0
   -2.8816   13.4489  -18.8205 H   0  0  0  0  0  0  0  0  0  0  0  0
    0.2507   21.9596  -24.7296 C   0  0  0  0  0  0  0  0  0  0  0  0
    0.8039   22.6822  -25.7624 C   0  0  0  0  0  0  0  0  0  0  0  0
   -0.1889   22.9403  -26.6416 N   0  0  0  0  0  0  0  0  0  0  0  0
   -1.3385   22.4245  -26.2276 N   0  0  0  0  0  0  0  0  0  0  0  0
   -1.0811   21.8202  -25.0553 C   0  0  0  0  0  0  0  0  0  0  0  0
   -2.6279   22.4856  -26.8869 C   0  0  0  0  0  0  0  0  0  0  0  0
   -2.4800   22.6542  -28.3651 C   0  0  0  0  0  0  0  0  0  0  0  0
   -3.4365   23.7277  -28.8734 C   0  0  0  0  0  0  0  0  0  0  0  0
   -4.7437   23.4878  -28.2883 N   0  0  0  0  0  0  0  0  0  0  0  0
   -4.6986   23.9207  -26.9086 C   0  0  0  0  0  0  0  0  0  0  0  0
   -3.3219   23.7267  -26.3483 C   0  0  0  0  0  0  0  0  0  0  0  0
   -5.7476   24.3199  -28.9634 C   0  0  0  0  0  0  0  0  0  0  0  0
   -5.3205   25.7454  -28.8230 C   0  0  0  0  0  0  0  0  0  0  0  0
   -5.3525   26.4904  -29.9744 O   0  0  0  0  0  0  0  0  0  0  0  0
   -5.3525   25.7350  -31.1267 C   0  0  0  0  0  0  0  0  0  0  0  0
 23 24  1  0  0  0
 24 25  1  0  0  0
 25 26  2  0  0  0
 25 17  1  0  0  0
 17 18  2  0  0  0
 18 19  1  0  0  0
 19 20  2  0  0  0
 20 21  1  0  0  0
 21 22  2  0  0  0
 21 10  1  0  0  0
 10 11  1  0  0  0
 11 12  2  0  0  0
 12 13  1  0  0  0
 13 14  2  0  0  0
 14 15  1  0  0  0
 15 16  2  0  0  0
 12  1  1  0  0  0
  1  2  2  0  0  0
  2  3  1  0  0  0
  3  4  2  0  0  0
  4  5  1  0  0  0
  5  6  2  0  0  0
  6  7  1  0  0  0
  3 28  1  0  0  0
 28 29  1  0  0  0
 29 30  2  0  0  0
 30 31  1  0  0  0
 31 32  1  0  0  0
 31 33  1  0  0  0
 33 34  1  0  0  0
 34 35  1  0  0  0
 35 36  1  0  0  0
 36 39  1  0  0  0
 39 40  1  0  0  0
 40 41  1  0  0  0
 41 42  1  0  0  0
 36 37  1  0  0  0
 37 38  1  0  0  0
 22 17  1  0  0  0
 15 10  1  0  0  0
  6  1  1  0  0  0
 32 28  2  0  0  0
 38 33  1  0  0  0
 24 27  1  0  0  0
  7  8  1  0  0  0
  7  9  1  0  0  0
M  END
> <minimizedAffinity>
-7.22878

> <CNNscore>
0.1441201866

> <CNNaffinity>
6.6549272537

> <CNN_VS>
0.9591093659

> <CNNaffinity_variance>
0.1554375887

$$$$
[H]C([H])=C([H])C(=O)N1C([H])([H])C([H])(C([H])([H])n2nc(C#Cc3c([H])c(OC([H])([H])[H])c([H])c(OC([H])([H])[H])c3[H])c3c(N([H])[H])nc([H])nc32)C1([H])[H]


 33 36  0  0  0  0  0  0  0  0999 V2000
   -1.3334   21.6041  -23.7198 C   0  0  0  0  0  0  0  0  0  0  0  0
   -2.6455   21.6996  -23.8888 N   0  0  0  0  0  0  0  0  0  0  0  0
   -2.9316   22.0485  -25.1350 N   0  0  0  0  0  0  0  0  0  0  0  0
   -1.7744   22.1926  -25.8283 C   0  0  0  0  0  0  0  0  0  0  0  0
   -1.5161   22.5333  -27.1206 N   0  0  0  0  0  0  0  0  0  0  0  0
   -0.2364   22.5990  -27.5414 C   0  0  0  0  0  0  0  0  0  0  0  0
    0.7583   22.3267  -26.6760 N   0  0  0  0  0  0  0  0  0  0  0  0
    0.5485   21.9916  -25.4113 C   0  0  0  0  0  0  0  0  0  0  0  0
    1.5698   21.6967  -24.4666 N   0  0  0  0  0  0  0  0  0  0  0  0
   -0.7619   21.9119  -24.9345 C   0  0  0  0  0  0  0  0  0  0  0  0
    1.7470   20.6925  -24.2460 H   0  0  0  0  0  0  0  0  0  0  0  0
    2.0846   22.4935  -24.0466 H   0  0  0  0  0  0  0  0  0  0  0  0
    0.0842   20.9722  -21.5717 C   0  0  0  0  0  0  0  0  0  0  0  0
   -0.5702   21.2562  -22.5439 C   0  0  0  0  0  0  0  0  0  0  0  0
    1.7274   19.0206  -18.8307 C   0  0  0  0  0  0  0  0  0  0  0  0
    2.4426   20.0171  -18.1871 C   0  0  0  0  0  0  0  0  0  0  0  0
    2.3952   21.3171  -18.6364 C   0  0  0  0  0  0  0  0  0  0  0  0
    1.6189   21.6005  -19.7413 C   0  0  0  0  0  0  0  0  0  0  0  0
    0.8936   20.6413  -20.4092 C   0  0  0  0  0  0  0  0  0  0  0  0
    0.9647   19.3460  -19.9302 C   0  0  0  0  0  0  0  0  0  0  0  0
    2.2962   17.4542  -17.0600 C   0  0  0  0  0  0  0  0  0  0  0  0
    1.7934   17.7195  -18.3566 O   0  0  0  0  0  0  0  0  0  0  0  0
    3.1208   22.2980  -17.9743 O   0  0  0  0  0  0  0  0  0  0  0  0
    2.7201   23.6550  -18.0284 C   0  0  0  0  0  0  0  0  0  0  0  0
   -4.2385   22.2630  -25.7440 C   0  0  0  0  0  0  0  0  0  0  0  0
   -4.2394   23.4030  -26.7169 C   0  0  0  0  0  0  0  0  0  0  0  0
   -4.5437   23.0657  -28.1437 C   0  0  0  0  0  0  0  0  0  0  0  0
   -5.3794   24.2536  -28.2175 N   0  0  0  0  0  0  0  0  0  0  0  0
   -5.5796   24.1203  -26.7980 C   0  0  0  0  0  0  0  0  0  0  0  0
   -5.8062   25.1411  -29.2211 C   0  0  0  0  0  0  0  0  0  0  0  0
   -6.5580   26.0982  -28.9045 O   0  0  0  0  0  0  0  0  0  0  0  0
   -5.3726   24.9353  -30.5945 C   0  0  0  0  0  0  0  0  0  0  0  0
   -4.9996   25.9513  -31.3589 C   0  0  0  0  0  0  0  0  0  0  0  0
 21 22  1  0  0  0
 22 15  1  0  0  0
 15 16  2  0  0  0
 16 17  1  0  0  0
 17 23  1  0  0  0
 23 24  1  0  0  0
 17 18  2  0  0  0
 18 19  1  0  0  0
 19 20  2  0  0  0
 19 13  1  0  0  0
 13 14  3  0  0  0
 14  1  1  0  0  0
  1  2  2  0  0  0
  2  3  1  0  0  0
  3 25  1  0  0  0
 25 26  1  0  0  0
 26 27  1  0  0  0
 27 28  1  0  0  0
 28 29  1  0  0  0
 28 30  1  0  0  0
 30 31  2  0  0  0
 30 32  1  0  0  0
 32 33  2  0  0  0
  3  4  1  0  0  0
  4  5  2  0  0  0
  5  6  1  0  0  0
  6  7  2  0  0  0
  7  8  1  0  0  0
  8  9  1  0  0  0
  8 10  2  0  0  0
 20 15  1  0  0  0
 10  1  1  0  0  0
 29 26  1  0  0  0
 10  4  1  0  0  0
  9 11  1  0  0  0
  9 12  1  0  0  0
M  END
> <minimizedAffinity>
-7.76227

> <CNNscore>
0.8178976178

> <CNNaffinity>
7.1764321327

> <CNN_VS>
5.8695869446

> <CNNaffinity_variance>
0.3233006597

$$$$
[H]C([H])=C([H])C(=O)N1C([H])([H])C([H])(C([H])([H])n2nc(C#Cc3c([H])c(OC([H])([H])[H])c([H])c(OC([H])([H])[H])c3[H])c3c(N([H])[H])nc([H])nc32)C1([H])[H]


 33 36  0  0  0  0  0  0  0  0999 V2000
   -1.3150   21.7260  -23.7158 C   0  0  0  0  0  0  0  0  0  0  0  0
   -2.6259   21.8015  -23.9028 N   0  0  0  0  0  0  0  0  0  0  0  0
   -2.9017   22.0809  -25.1688 N   0  0  0  0  0  0  0  0  0  0  0  0
   -1.7384   22.1973  -25.8571 C   0  0  0  0  0  0  0  0  0  0  0  0
   -1.4692   22.4707  -27.1631 N   0  0  0  0  0  0  0  0  0  0  0  0
   -0.1858   22.5243  -27.5740 C   0  0  0  0  0  0  0  0  0  0  0  0
    0.8019   22.3068  -26.6853 N   0  0  0  0  0  0  0  0  0  0  0  0
    0.5814   22.0381  -25.4066 C   0  0  0  0  0  0  0  0  0  0  0  0
    1.5951   21.8026  -24.4373 N   0  0  0  0  0  0  0  0  0  0  0  0
   -0.7332   21.9732  -24.9394 C   0  0  0  0  0  0  0  0  0  0  0  0
    1.7777   20.8131  -24.1615 H   0  0  0  0  0  0  0  0  0  0  0  0
    2.0993   22.6249  -24.0555 H   0  0  0  0  0  0  0  0  0  0  0  0
    0.0831   21.2272  -21.5205 C   0  0  0  0  0  0  0  0  0  0  0  0
   -0.5615   21.4478  -22.5154 C   0  0  0  0  0  0  0  0  0  0  0  0
    1.8570   21.7522  -18.2648 C   0  0  0  0  0  0  0  0  0  0  0  0
    2.3969   20.4947  -18.0507 C   0  0  0  0  0  0  0  0  0  0  0  0
    2.1892   19.4783  -18.9550 C   0  0  0  0  0  0  0  0  0  0  0  0
    1.4315   19.7443  -20.0770 C   0  0  0  0  0  0  0  0  0  0  0  0
    0.8776   20.9783  -20.3276 C   0  0  0  0  0  0  0  0  0  0  0  0
    1.1066   21.9758  -19.3977 C   0  0  0  0  0  0  0  0  0  0  0  0
    3.0278   23.7775  -17.6015 C   0  0  0  0  0  0  0  0  0  0  0  0
    2.0821   22.7577  -17.3372 O   0  0  0  0  0  0  0  0  0  0  0  0
    2.7409   18.2267  -18.7181 O   0  0  0  0  0  0  0  0  0  0  0  0
    3.5727   17.6081  -19.6826 C   0  0  0  0  0  0  0  0  0  0  0  0
   -4.2038   22.2519  -25.8014 C   0  0  0  0  0  0  0  0  0  0  0  0
   -4.2306   23.4037  -26.7598 C   0  0  0  0  0  0  0  0  0  0  0  0
   -4.5118   23.0758  -28.1935 C   0  0  0  0  0  0  0  0  0  0  0  0
   -5.3826   24.2387  -28.2601 N   0  0  0  0  0  0  0  0  0  0  0  0
   -5.5913   24.0810  -26.8444 C   0  0  0  0  0  0  0  0  0  0  0  0
   -5.8271   25.1258  -29.2563 C   0  0  0  0  0  0  0  0  0  0  0  0
   -6.6105   26.0554  -28.9347 O   0  0  0  0  0  0  0  0  0  0  0  0
   -5.3752   24.9509  -30.6281 C   0  0  0  0  0  0  0  0  0  0  0  0
   -5.0992   25.9915  -31.4006 C   0  0  0  0  0  0  0  0  0  0  0  0
 21 22  1  0  0  0
 22 15  1  0  0  0
 15 16  2  0  0  0
 16 17  1  0  0  0
 17 23  1  0  0  0
 23 24  1  0  0  0
 17 18  2  0  0  0
 18 19  1  0  0  0
 19 20  2  0  0  0
 19 13  1  0  0  0
 13 14  3  0  0  0
 14  1  1  0  0  0
  1  2  2  0  0  0
  2  3  1  0  0  0
  3 25  1  0  0  0
 25 26  1  0  0  0
 26 27  1  0  0  0
 27 28  1  0  0  0
 28 29  1  0  0  0
 28 30  1  0  0  0
 30 31  2  0  0  0
 30 32  1  0  0  0
 32 33  2  0  0  0
  3  4  1  0  0  0
  4  5  2  0  0  0
  5  6  1  0  0  0
  6  7  2  0  0  0
  7  8  1  0  0  0
  8  9  1  0  0  0
  8 10  2  0  0  0
 20 15  1  0  0  0
 10  1  1  0  0  0
 29 26  1  0  0  0
 10  4  1  0  0  0
  9 11  1  0  0  0
  9 12  1  0  0  0
M  END
> <minimizedAffinity>
-7.80871

> <CNNscore>
0.8178250790

> <CNNaffinity>
7.1993598938

> <CNN_VS>
5.8878169060

> <CNNaffinity_variance>
0.2975750864

$$$$
[H]C([H])=C([H])C(=O)N1C([H])([H])C([H])(C([H])([H])n2nc(C#Cc3c([H])c(OC([H])([H])[H])c([H])c(OC([H])([H])[H])c3[H])c3c(N([H])[H])nc([H])nc32)C1([H])[H]


 33 36  0  0  0  0  0  0  0  0999 V2000
   -2.2179   22.2557  -25.4763 C   0  0  0  0  0  0  0  0  0  0  0  0
   -3.4579   22.3826  -25.9294 N   0  0  0  0  0  0  0  0  0  0  0  0
   -3.4549   22.7885  -27.1911 N   0  0  0  0  0  0  0  0  0  0  0  0
   -2.1707   22.9398  -27.6015 C   0  0  0  0  0  0  0  0  0  0  0  0
   -1.6267   23.3293  -28.7869 N   0  0  0  0  0  0  0  0  0  0  0  0
   -0.2848   23.3886  -28.9082 C   0  0  0  0  0  0  0  0  0  0  0  0
    0.4886   23.0618  -27.8557 N   0  0  0  0  0  0  0  0  0  0  0  0
   -0.0019   22.6783  -26.6860 C   0  0  0  0  0  0  0  0  0  0  0  0
    0.7796   22.3252  -25.5515 N   0  0  0  0  0  0  0  0  0  0  0  0
   -1.3864   22.6032  -26.5178 C   0  0  0  0  0  0  0  0  0  0  0  0
    0.8940   21.3096  -25.3421 H   0  0  0  0  0  0  0  0  0  0  0  0
    1.1944   23.0940  -24.9919 H   0  0  0  0  0  0  0  0  0  0  0  0
   -1.3523   21.5172  -23.0828 C   0  0  0  0  0  0  0  0  0  0  0  0
   -1.7402   21.8449  -24.1766 C   0  0  0  0  0  0  0  0  0  0  0  0
   -1.2513   21.0468  -19.3693 C   0  0  0  0  0  0  0  0  0  0  0  0
   -0.0306   20.4106  -19.2153 C   0  0  0  0  0  0  0  0  0  0  0  0
    0.7593   20.1334  -20.3076 C   0  0  0  0  0  0  0  0  0  0  0  0
    0.3045   20.5049  -21.5562 C   0  0  0  0  0  0  0  0  0  0  0  0
   -0.9007   21.1382  -21.7530 C   0  0  0  0  0  0  0  0  0  0  0  0
   -1.6682   21.4009  -20.6332 C   0  0  0  0  0  0  0  0  0  0  0  0
   -2.6900   22.5576  -18.1202 C   0  0  0  0  0  0  0  0  0  0  0  0
   -2.0267   21.3138  -18.2514 O   0  0  0  0  0  0  0  0  0  0  0  0
    1.9787   19.4949  -20.1274 O   0  0  0  0  0  0  0  0  0  0  0  0
    2.3262   18.3652  -20.9070 C   0  0  0  0  0  0  0  0  0  0  0  0
   -4.5904   23.0526  -28.0661 C   0  0  0  0  0  0  0  0  0  0  0  0
   -5.5863   23.9875  -27.4493 C   0  0  0  0  0  0  0  0  0  0  0  0
   -6.2278   23.5366  -26.1737 C   0  0  0  0  0  0  0  0  0  0  0  0
   -6.0711   24.8845  -25.6506 N   0  0  0  0  0  0  0  0  0  0  0  0
   -4.9479   25.0278  -26.5398 C   0  0  0  0  0  0  0  0  0  0  0  0
   -6.7208   25.6935  -24.7017 C   0  0  0  0  0  0  0  0  0  0  0  0
   -6.2905   26.8580  -24.5015 O   0  0  0  0  0  0  0  0  0  0  0  0
   -7.8685   25.1705  -23.9766 C   0  0  0  0  0  0  0  0  0  0  0  0
   -7.7193   24.4838  -22.8533 C   0  0  0  0  0  0  0  0  0  0  0  0
 21 22  1  0  0  0
 22 15  1  0  0  0
 15 16  2  0  0  0
 16 17  1  0  0  0
 17 23  1  0  0  0
 23 24  1  0  0  0
 17 18  2  0  0  0
 18 19  1  0  0  0
 19 20  2  0  0  0
 19 13  1  0  0  0
 13 14  3  0  0  0
 14  1  1  0  0  0
  1  2  2  0  0  0
  2  3  1  0  0  0
  3 25  1  0  0  0
 25 26  1  0  0  0
 26 27  1  0  0  0
 27 28  1  0  0  0
 28 29  1  0  0  0
 28 30  1  0  0  0
 30 31  2  0  0  0
 30 32  1  0  0  0
 32 33  2  0  0  0
  3  4  1  0  0  0
  4  5  2  0  0  0
  5  6  1  0  0  0
  6  7  2  0  0  0
  7  8  1  0  0  0
  8  9  1  0  0  0
  8 10  2  0  0  0
 20 15  1  0  0  0
 10  1  1  0  0  0
 29 26  1  0  0  0
 10  4  1  0  0  0
  9 11  1  0  0  0
  9 12  1  0  0  0
M  END
> <minimizedAffinity>
-7.95503

> <CNNscore>
0.6578046083

> <CNNaffinity>
7.1009140015

> <CNN_VS>
4.6710138321

> <CNNaffinity_variance>
0.1351102591

$$$$
[H]C([H])=C([H])C(=O)N1C([H])([H])C([H])(C([H])([H])n2nc(C#Cc3c([H])c(OC([H])([H])[H])c([H])c(OC([H])([H])[H])c3[H])c3c(N([H])[H])nc([H])nc32)C1([H])[H]


 33 36  0  0  0  0  0  0  0  0999 V2000
   -2.2283   22.2511  -25.4420 C   0  0  0  0  0  0  0  0  0  0  0  0
   -3.4654   22.3827  -25.9018 N   0  0  0  0  0  0  0  0  0  0  0  0
   -3.4539   22.7846  -27.1648 N   0  0  0  0  0  0  0  0  0  0  0  0
   -2.1668   22.9283  -27.5690 C   0  0  0  0  0  0  0  0  0  0  0  0
   -1.6149   23.3114  -28.7528 N   0  0  0  0  0  0  0  0  0  0  0  0
   -0.2721   23.3637  -28.8675 C   0  0  0  0  0  0  0  0  0  0  0  0
    0.4943   23.0364  -27.8100 N   0  0  0  0  0  0  0  0  0  0  0  0
   -0.0041   22.6589  -26.6417 C   0  0  0  0  0  0  0  0  0  0  0  0
    0.7698   22.3056  -25.5020 N   0  0  0  0  0  0  0  0  0  0  0  0
   -1.3898   22.5912  -26.4803 C   0  0  0  0  0  0  0  0  0  0  0  0
    0.8781   21.2900  -25.2889 H   0  0  0  0  0  0  0  0  0  0  0  0
    1.1855   23.0740  -24.9427 H   0  0  0  0  0  0  0  0  0  0  0  0
   -1.3874   21.5002  -23.0436 C   0  0  0  0  0  0  0  0  0  0  0  0
   -1.7594   21.8420  -24.1386 C   0  0  0  0  0  0  0  0  0  0  0  0
    0.6175   19.9683  -20.2768 C   0  0  0  0  0  0  0  0  0  0  0  0
   -0.1582   20.2922  -19.1759 C   0  0  0  0  0  0  0  0  0  0  0  0
   -1.3267   21.0038  -19.3253 C   0  0  0  0  0  0  0  0  0  0  0  0
   -1.7036   21.3849  -20.5968 C   0  0  0  0  0  0  0  0  0  0  0  0
   -0.9627   21.0839  -21.7161 C   0  0  0  0  0  0  0  0  0  0  0  0
    0.2053   20.3679  -21.5285 C   0  0  0  0  0  0  0  0  0  0  0  0
    2.7196   19.1201  -21.1569 C   0  0  0  0  0  0  0  0  0  0  0  0
    1.7900   19.2506  -20.0971 O   0  0  0  0  0  0  0  0  0  0  0  0
   -2.0869   21.3162  -18.2066 O   0  0  0  0  0  0  0  0  0  0  0  0
   -2.6197   22.6166  -18.0338 C   0  0  0  0  0  0  0  0  0  0  0  0
   -4.5836   23.0516  -28.0463 C   0  0  0  0  0  0  0  0  0  0  0  0
   -5.5852   23.9818  -27.4318 C   0  0  0  0  0  0  0  0  0  0  0  0
   -6.2107   23.5381  -26.1458 C   0  0  0  0  0  0  0  0  0  0  0  0
   -6.0655   24.8936  -25.6393 N   0  0  0  0  0  0  0  0  0  0  0  0
   -4.9515   25.0399  -26.5396 C   0  0  0  0  0  0  0  0  0  0  0  0
   -6.7167   25.7058  -24.6942 C   0  0  0  0  0  0  0  0  0  0  0  0
   -6.2984   26.8775  -24.5108 O   0  0  0  0  0  0  0  0  0  0  0  0
   -7.8521   25.1778  -23.9536 C   0  0  0  0  0  0  0  0  0  0  0  0
   -7.6828   24.4509  -22.8587 C   0  0  0  0  0  0  0  0  0  0  0  0
 21 22  1  0  0  0
 22 15  1  0  0  0
 15 16  2  0  0  0
 16 17  1  0  0  0
 17 23  1  0  0  0
 23 24  1  0  0  0
 17 18  2  0  0  0
 18 19  1  0  0  0
 19 20  2  0  0  0
 19 13  1  0  0  0
 13 14  3  0  0  0
 14  1  1  0  0  0
  1  2  2  0  0  0
  2  3  1  0  0  0
  3 25  1  0  0  0
 25 26  1  0  0  0
 26 27  1  0  0  0
 27 28  1  0  0  0
 28 29  1  0  0  0
 28 30  1  0  0  0
 30 31  2  0  0  0
 30 32  1  0  0  0
 32 33  2  0  0  0
  3  4  1  0  0  0
  4  5  2  0  0  0
  5  6  1  0  0  0
  6  7  2  0  0  0
  7  8  1  0  0  0
  8  9  1  0  0  0
  8 10  2  0  0  0
 20 15  1  0  0  0
 10  1  1  0  0  0
 29 26  1  0  0  0
 10  4  1  0  0  0
  9 11  1  0  0  0
  9 12  1  0  0  0
M  END
> <minimizedAffinity>
-7.96300

> <CNNscore>
0.6462761760

> <CNNaffinity>
7.0886640549

> <CNN_VS>
4.5812349319

> <CNNaffinity_variance>
0.1361944973

$$$$
[H]C([H])=C([H])C(=O)N1C([H])([H])C([H])(C([H])([H])n2nc(C#Cc3c([H])c(OC([H])([H])[H])c([H])c(OC([H])([H])[H])c3[H])c3c(N([H])[H])nc([H])nc32)C1([H])[H]


 33 36  0  0  0  0  0  0  0  0999 V2000
   -1.5070   21.6561  -23.7514 C   0  0  0  0  0  0  0  0  0  0  0  0
   -2.8223   21.8020  -23.6629 N   0  0  0  0  0  0  0  0  0  0  0  0
   -3.3240   22.2233  -24.8151 N   0  0  0  0  0  0  0  0  0  0  0  0
   -2.3135   22.3656  -25.7092 C   0  0  0  0  0  0  0  0  0  0  0  0
   -2.2900   22.7637  -27.0106 N   0  0  0  0  0  0  0  0  0  0  0  0
   -1.1112   22.8099  -27.6643 C   0  0  0  0  0  0  0  0  0  0  0  0
    0.0169   22.4619  -27.0171 N   0  0  0  0  0  0  0  0  0  0  0  0
    0.0360   22.0694  -25.7517 C   0  0  0  0  0  0  0  0  0  0  0  0
    1.2044   21.6939  -25.0329 N   0  0  0  0  0  0  0  0  0  0  0  0
   -1.1629   22.0073  -25.0379 C   0  0  0  0  0  0  0  0  0  0  0  0
    1.3786   20.6746  -24.8947 H   0  0  0  0  0  0  0  0  0  0  0  0
    1.8215   22.4512  -24.6839 H   0  0  0  0  0  0  0  0  0  0  0  0
    0.2586   20.8536  -21.9454 C   0  0  0  0  0  0  0  0  0  0  0  0
   -0.5505   21.2241  -22.7591 C   0  0  0  0  0  0  0  0  0  0  0  0
    2.6319   18.6460  -20.0703 C   0  0  0  0  0  0  0  0  0  0  0  0
    3.1427   19.5354  -19.1393 C   0  0  0  0  0  0  0  0  0  0  0  0
    2.7226   20.8458  -19.1161 C   0  0  0  0  0  0  0  0  0  0  0  0
    1.7819   21.2486  -20.0417 C   0  0  0  0  0  0  0  0  0  0  0  0
    1.2493   20.3980  -20.9826 C   0  0  0  0  0  0  0  0  0  0  0  0
    1.6945   19.0889  -20.9767 C   0  0  0  0  0  0  0  0  0  0  0  0
    2.5732   16.4079  -19.1217 C   0  0  0  0  0  0  0  0  0  0  0  0
    3.0731   17.3317  -20.0709 O   0  0  0  0  0  0  0  0  0  0  0  0
    3.2494   21.7180  -18.1734 O   0  0  0  0  0  0  0  0  0  0  0  0
    3.1447   23.1194  -18.3459 C   0  0  0  0  0  0  0  0  0  0  0  0
   -4.7124   22.5105  -25.1538 C   0  0  0  0  0  0  0  0  0  0  0  0
   -5.3807   23.3913  -24.1420 C   0  0  0  0  0  0  0  0  0  0  0  0
   -6.6588   24.0469  -24.5647 C   0  0  0  0  0  0  0  0  0  0  0  0
   -7.2161   23.7412  -23.2566 N   0  0  0  0  0  0  0  0  0  0  0  0
   -6.3031   22.6294  -23.2008 C   0  0  0  0  0  0  0  0  0  0  0  0
   -8.2039   24.2832  -22.4155 C   0  0  0  0  0  0  0  0  0  0  0  0
   -8.4263   23.7314  -21.3076 O   0  0  0  0  0  0  0  0  0  0  0  0
   -8.9426   25.4620  -22.8412 C   0  0  0  0  0  0  0  0  0  0  0  0
  -10.2657   25.5041  -22.7834 C   0  0  0  0  0  0  0  0  0  0  0  0
 21 22  1  0  0  0
 22 15  1  0  0  0
 15 16  2  0  0  0
 16 17  1  0  0  0
 17 23  1  0  0  0
 23 24  1  0  0  0
 17 18  2  0  0  0
 18 19  1  0  0  0
 19 20  2  0  0  0
 19 13  1  0  0  0
 13 14  3  0  0  0
 14  1  1  0  0  0
  1  2  2  0  0  0
  2  3  1  0  0  0
  3 25  1  0  0  0
 25 26  1  0  0  0
 26 27  1  0  0  0
 27 28  1  0  0  0
 28 29  1  0  0  0
 28 30  1  0  0  0
 30 31  2  0  0  0
 30 32  1  0  0  0
 32 33  2  0  0  0
  3  4  1  0  0  0
  4  5  2  0  0  0
  5  6  1  0  0  0
  6  7  2  0  0  0
  7  8  1  0  0  0
  8  9  1  0  0  0
  8 10  2  0  0  0
 20 15  1  0  0  0
 10  1  1  0  0  0
 29 26  1  0  0  0
 10  4  1  0  0  0
  9 11  1  0  0  0
  9 12  1  0  0  0
M  END
> <minimizedAffinity>
-6.98047

> <CNNscore>
0.5612174273

> <CNNaffinity>
6.7598619461

> <CNN_VS>
3.7937524319

> <CNNaffinity_variance>
0.3606547117

$$$$
[H]C([H])=C([H])C(=O)N1C([H])([H])C([H])(C([H])([H])n2nc(C#Cc3c([H])c(OC([H])([H])[H])c([H])c(OC([H])([H])[H])c3[H])c3c(N([H])[H])nc([H])nc32)C1([H])[H]


 33 36  0  0  0  0  0  0  0  0999 V2000
   -1.4149   21.9618  -24.0664 C   0  0  0  0  0  0  0  0  0  0  0  0
   -2.6626   22.1167  -23.6439 N   0  0  0  0  0  0  0  0  0  0  0  0
   -3.4455   22.5156  -24.6362 N   0  0  0  0  0  0  0  0  0  0  0  0
   -2.7009   22.6330  -25.7642 C   0  0  0  0  0  0  0  0  0  0  0  0
   -3.0152   23.0026  -27.0359 N   0  0  0  0  0  0  0  0  0  0  0  0
   -2.0458   23.0283  -27.9732 C   0  0  0  0  0  0  0  0  0  0  0  0
   -0.7884   22.6883  -27.6324 N   0  0  0  0  0  0  0  0  0  0  0  0
   -0.4423   22.3232  -26.4066 C   0  0  0  0  0  0  0  0  0  0  0  0
    0.8724   21.9572  -26.0064 N   0  0  0  0  0  0  0  0  0  0  0  0
   -1.4157   22.2831  -25.4057 C   0  0  0  0  0  0  0  0  0  0  0  0
    1.0768   20.9402  -25.8952 H   0  0  0  0  0  0  0  0  0  0  0  0
    1.5585   22.7186  -25.8460 H   0  0  0  0  0  0  0  0  0  0  0  0
    0.7460   21.2112  -22.7285 C   0  0  0  0  0  0  0  0  0  0  0  0
   -0.2340   21.5464  -23.3460 C   0  0  0  0  0  0  0  0  0  0  0  0
    4.0655   19.7281  -21.8321 C   0  0  0  0  0  0  0  0  0  0  0  0
    4.1563   20.0702  -20.4930 C   0  0  0  0  0  0  0  0  0  0  0  0
    3.1484   20.7785  -19.8794 C   0  0  0  0  0  0  0  0  0  0  0  0
    2.0485   21.1375  -20.6312 C   0  0  0  0  0  0  0  0  0  0  0  0
    1.9187   20.8179  -21.9629 C   0  0  0  0  0  0  0  0  0  0  0  0
    2.9504   20.1059  -22.5466 C   0  0  0  0  0  0  0  0  0  0  0  0
    5.2724   17.6393  -22.1371 C   0  0  0  0  0  0  0  0  0  0  0  0
    5.0957   19.0143  -22.4247 O   0  0  0  0  0  0  0  0  0  0  0  0
    3.2627   21.1095  -18.5361 O   0  0  0  0  0  0  0  0  0  0  0  0
    2.3239   21.9727  -17.9211 C   0  0  0  0  0  0  0  0  0  0  0  0
   -4.8744   22.8029  -24.6104 C   0  0  0  0  0  0  0  0  0  0  0  0
   -5.4656   22.6568  -23.2410 C   0  0  0  0  0  0  0  0  0  0  0  0
   -6.5643   23.6082  -22.8807 C   0  0  0  0  0  0  0  0  0  0  0  0
   -7.2830   22.5028  -22.2671 N   0  0  0  0  0  0  0  0  0  0  0  0
   -6.5895   21.6319  -23.1800 C   0  0  0  0  0  0  0  0  0  0  0  0
   -8.2318   22.3455  -21.2414 C   0  0  0  0  0  0  0  0  0  0  0  0
   -8.6476   21.1898  -20.9720 O   0  0  0  0  0  0  0  0  0  0  0  0
   -8.7091   23.5144  -20.5186 C   0  0  0  0  0  0  0  0  0  0  0  0
   -9.7398   24.2224  -20.9572 C   0  0  0  0  0  0  0  0  0  0  0  0
 21 22  1  0  0  0
 22 15  1  0  0  0
 15 16  2  0  0  0
 16 17  1  0  0  0
 17 23  1  0  0  0
 23 24  1  0  0  0
 17 18  2  0  0  0
 18 19  1  0  0  0
 19 20  2  0  0  0
 19 13  1  0  0  0
 13 14  3  0  0  0
 14  1  1  0  0  0
  1  2  2  0  0  0
  2  3  1  0  0  0
  3 25  1  0  0  0
 25 26  1  0  0  0
 26 27  1  0  0  0
 27 28  1  0  0  0
 28 29  1  0  0  0
 28 30  1  0  0  0
 30 31  2  0  0  0
 30 32  1  0  0  0
 32 33  2  0  0  0
  3  4  1  0  0  0
  4  5  2  0  0  0
  5  6  1  0  0  0
  6  7  2  0  0  0
  7  8  1  0  0  0
  8  9  1  0  0  0
  8 10  2  0  0  0
 20 15  1  0  0  0
 10  1  1  0  0  0
 29 26  1  0  0  0
 10  4  1  0  0  0
  9 11  1  0  0  0
  9 12  1  0  0  0
M  END
> <minimizedAffinity>
-7.29086

> <CNNscore>
0.5493306518

> <CNNaffinity>
6.7897157669

> <CNN_VS>
3.7297990322

> <CNNaffinity_variance>
0.2495953292

$$$$
[H]C([H])=C([H])C(=O)N1C([H])([H])C([H])(C([H])([H])n2nc(C#Cc3c([H])c(OC([H])([H])[H])c([H])c(OC([H])([H])[H])c3[H])c3c(N([H])[H])nc([H])nc32)C1([H])[H]


 33 36  0  0  0  0  0  0  0  0999 V2000
   -1.6263   21.8607  -24.1389 C   0  0  0  0  0  0  0  0  0  0  0  0
   -2.9175   21.9180  -23.8413 N   0  0  0  0  0  0  0  0  0  0  0  0
   -3.6250   22.2848  -24.9004 N   0  0  0  0  0  0  0  0  0  0  0  0
   -2.7828   22.4810  -25.9457 C   0  0  0  0  0  0  0  0  0  0  0  0
   -2.9953   22.8581  -27.2362 N   0  0  0  0  0  0  0  0  0  0  0  0
   -1.9422   22.9738  -28.0708 C   0  0  0  0  0  0  0  0  0  0  0  0
   -0.7036   22.7144  -27.6111 N   0  0  0  0  0  0  0  0  0  0  0  0
   -0.4552   22.3452  -26.3630 C   0  0  0  0  0  0  0  0  0  0  0  0
    0.8363   22.0624  -25.8390 N   0  0  0  0  0  0  0  0  0  0  0  0
   -1.5175   22.2132  -25.4659 C   0  0  0  0  0  0  0  0  0  0  0  0
    1.1013   21.0597  -25.7250 H   0  0  0  0  0  0  0  0  0  0  0  0
    1.4467   22.8657  -25.5977 H   0  0  0  0  0  0  0  0  0  0  0  0
    0.4357   21.2196  -22.6026 C   0  0  0  0  0  0  0  0  0  0  0  0
   -0.4957   21.5116  -23.3106 C   0  0  0  0  0  0  0  0  0  0  0  0
    2.6995   21.0673  -19.6236 C   0  0  0  0  0  0  0  0  0  0  0  0
    3.6625   20.1759  -20.0672 C   0  0  0  0  0  0  0  0  0  0  0  0
    3.5822   19.6243  -21.3255 C   0  0  0  0  0  0  0  0  0  0  0  0
    2.5203   19.9817  -22.1309 C   0  0  0  0  0  0  0  0  0  0  0  0
    1.5432   20.8628  -21.7294 C   0  0  0  0  0  0  0  0  0  0  0  0
    1.6557   21.3975  -20.4592 C   0  0  0  0  0  0  0  0  0  0  0  0
    3.1690   22.9649  -18.1775 C   0  0  0  0  0  0  0  0  0  0  0  0
    2.8053   21.6078  -18.3513 O   0  0  0  0  0  0  0  0  0  0  0  0
    4.5597   18.7334  -21.7471 O   0  0  0  0  0  0  0  0  0  0  0  0
    4.2051   17.4934  -22.3313 C   0  0  0  0  0  0  0  0  0  0  0  0
   -5.0663   22.4709  -25.0134 C   0  0  0  0  0  0  0  0  0  0  0  0
   -5.6238   23.3246  -23.9151 C   0  0  0  0  0  0  0  0  0  0  0  0
   -6.8695   24.0932  -24.2306 C   0  0  0  0  0  0  0  0  0  0  0  0
   -7.3878   23.7383  -22.9190 N   0  0  0  0  0  0  0  0  0  0  0  0
   -6.5550   22.5655  -22.9803 C   0  0  0  0  0  0  0  0  0  0  0  0
   -8.2955   24.2882  -21.9967 C   0  0  0  0  0  0  0  0  0  0  0  0
   -8.5068   23.6791  -20.9170 O   0  0  0  0  0  0  0  0  0  0  0  0
   -8.9666   25.5409  -22.3084 C   0  0  0  0  0  0  0  0  0  0  0  0
  -10.2084   25.5610  -22.7702 C   0  0  0  0  0  0  0  0  0  0  0  0
 21 22  1  0  0  0
 22 15  1  0  0  0
 15 16  2  0  0  0
 16 17  1  0  0  0
 17 23  1  0  0  0
 23 24  1  0  0  0
 17 18  2  0  0  0
 18 19  1  0  0  0
 19 20  2  0  0  0
 19 13  1  0  0  0
 13 14  3  0  0  0
 14  1  1  0  0  0
  1  2  2  0  0  0
  2  3  1  0  0  0
  3 25  1  0  0  0
 25 26  1  0  0  0
 26 27  1  0  0  0
 27 28  1  0  0  0
 28 29  1  0  0  0
 28 30  1  0  0  0
 30 31  2  0  0  0
 30 32  1  0  0  0
 32 33  2  0  0  0
  3  4  1  0  0  0
  4  5  2  0  0  0
  5  6  1  0  0  0
  6  7  2  0  0  0
  7  8  1  0  0  0
  8  9  1  0  0  0
  8 10  2  0  0  0
 20 15  1  0  0  0
 10  1  1  0  0  0
 29 26  1  0  0  0
 10  4  1  0  0  0
  9 11  1  0  0  0
  9 12  1  0  0  0
M  END
> <minimizedAffinity>
-7.14519

> <CNNscore>
0.5471018553

> <CNNaffinity>
6.8359708786

> <CNN_VS>
3.7399723530

> <CNNaffinity_variance>
0.2520780563

$$$$
[H]C([H])=C([H])C(=O)N1C([H])([H])C([H])(C([H])([H])n2nc(C#Cc3c([H])c(OC([H])([H])[H])c([H])c(OC([H])([H])[H])c3[H])c3c(N([H])[H])nc([H])nc32)C1([H])[H]


 33 36  0  0  0  0  0  0  0  0999 V2000
   -1.2782   21.5184  -23.3012 C   0  0  0  0  0  0  0  0  0  0  0  0
   -2.6003   21.4229  -23.3486 N   0  0  0  0  0  0  0  0  0  0  0  0
   -3.0362   21.5881  -24.5893 N   0  0  0  0  0  0  0  0  0  0  0  0
   -1.9730   21.8017  -25.4044 C   0  0  0  0  0  0  0  0  0  0  0  0
   -1.8745   22.0244  -26.7437 N   0  0  0  0  0  0  0  0  0  0  0  0
   -0.6565   22.2075  -27.2933 C   0  0  0  0  0  0  0  0  0  0  0  0
    0.4358   22.1665  -26.5072 N   0  0  0  0  0  0  0  0  0  0  0  0
    0.3820   21.9526  -25.2006 C   0  0  0  0  0  0  0  0  0  0  0  0
    1.5104   21.9019  -24.3365 N   0  0  0  0  0  0  0  0  0  0  0  0
   -0.8596   21.7580  -24.5912 C   0  0  0  0  0  0  0  0  0  0  0  0
    1.8441   20.9607  -24.0342 H   0  0  0  0  0  0  0  0  0  0  0  0
    1.9423   22.8011  -24.0520 H   0  0  0  0  0  0  0  0  0  0  0  0
    0.3892   21.3246  -21.2505 C   0  0  0  0  0  0  0  0  0  0  0  0
   -0.3777   21.4081  -22.1773 C   0  0  0  0  0  0  0  0  0  0  0  0
    2.0400   21.9091  -17.9406 C   0  0  0  0  0  0  0  0  0  0  0  0
    3.1352   21.0665  -18.0376 C   0  0  0  0  0  0  0  0  0  0  0  0
    3.3413   20.3105  -19.1690 C   0  0  0  0  0  0  0  0  0  0  0  0
    2.4310   20.4139  -20.2008 C   0  0  0  0  0  0  0  0  0  0  0  0
    1.3309   21.2379  -20.1452 C   0  0  0  0  0  0  0  0  0  0  0  0
    1.1553   21.9827  -18.9934 C   0  0  0  0  0  0  0  0  0  0  0  0
    1.4678   22.0328  -15.5806 C   0  0  0  0  0  0  0  0  0  0  0  0
    1.8569   22.6592  -16.7891 O   0  0  0  0  0  0  0  0  0  0  0  0
    4.4464   19.4736  -19.2423 O   0  0  0  0  0  0  0  0  0  0  0  0
    5.4561   19.6914  -20.2107 C   0  0  0  0  0  0  0  0  0  0  0  0
   -4.4068   21.5608  -25.0847 C   0  0  0  0  0  0  0  0  0  0  0  0
   -5.0012   22.9311  -25.2079 C   0  0  0  0  0  0  0  0  0  0  0  0
   -4.0403   24.0793  -25.2226 C   0  0  0  0  0  0  0  0  0  0  0  0
   -4.8232   24.6851  -26.2880 N   0  0  0  0  0  0  0  0  0  0  0  0
   -5.2363   23.3546  -26.6510 C   0  0  0  0  0  0  0  0  0  0  0  0
   -5.0714   25.9862  -26.7596 C   0  0  0  0  0  0  0  0  0  0  0  0
   -5.8356   26.1379  -27.7466 O   0  0  0  0  0  0  0  0  0  0  0  0
   -4.4436   27.1214  -26.1009 C   0  0  0  0  0  0  0  0  0  0  0  0
   -4.7164   27.4237  -24.8400 C   0  0  0  0  0  0  0  0  0  0  0  0
 21 22  1  0  0  0
 22 15  1  0  0  0
 15 16  2  0  0  0
 16 17  1  0  0  0
 17 23  1  0  0  0
 23 24  1  0  0  0
 17 18  2  0  0  0
 18 19  1  0  0  0
 19 20  2  0  0  0
 19 13  1  0  0  0
 13 14  3  0  0  0
 14  1  1  0  0  0
  1  2  2  0  0  0
  2  3  1  0  0  0
  3 25  1  0  0  0
 25 26  1  0  0  0
 26 27  1  0  0  0
 27 28  1  0  0  0
 28 29  1  0  0  0
 28 30  1  0  0  0
 30 31  2  0  0  0
 30 32  1  0  0  0
 32 33  2  0  0  0
  3  4  1  0  0  0
  4  5  2  0  0  0
  5  6  1  0  0  0
  6  7  2  0  0  0
  7  8  1  0  0  0
  8  9  1  0  0  0
  8 10  2  0  0  0
 20 15  1  0  0  0
 10  1  1  0  0  0
 29 26  1  0  0  0
 10  4  1  0  0  0
  9 11  1  0  0  0
  9 12  1  0  0  0
M  END
> <minimizedAffinity>
-6.90112

> <CNNscore>
0.5418847203

> <CNNaffinity>
6.9990758896

> <CNN_VS>
3.7926921844

> <CNNaffinity_variance>
0.5291337371

$$$$
[H]C([H])=C([H])C(=O)N1C([H])([H])C([H])(C([H])([H])n2nc(C#Cc3c([H])c(OC([H])([H])[H])c([H])c(OC([H])([H])[H])c3[H])c3c(N([H])[H])nc([H])nc32)C1([H])[H]


 33 36  0  0  0  0  0  0  0  0999 V2000
   -1.2159   21.6272  -22.9648 C   0  0  0  0  0  0  0  0  0  0  0  0
   -1.5014   21.2570  -21.7235 N   0  0  0  0  0  0  0  0  0  0  0  0
   -0.4065   20.8592  -21.0913 N   0  0  0  0  0  0  0  0  0  0  0  0
    0.6513   20.9651  -21.9342 C   0  0  0  0  0  0  0  0  0  0  0  0
    1.9758   20.6905  -21.7823 N   0  0  0  0  0  0  0  0  0  0  0  0
    2.8147   20.8981  -22.8178 C   0  0  0  0  0  0  0  0  0  0  0  0
    2.3256   21.3720  -23.9792 N   0  0  0  0  0  0  0  0  0  0  0  0
    1.0440   21.6513  -24.1669 C   0  0  0  0  0  0  0  0  0  0  0  0
    0.4883   22.1526  -25.3762 N   0  0  0  0  0  0  0  0  0  0  0  0
    0.1412   21.4508  -23.1202 C   0  0  0  0  0  0  0  0  0  0  0  0
    0.2651   23.1709  -25.4184 H   0  0  0  0  0  0  0  0  0  0  0  0
    0.3337   21.4814  -26.1520 H   0  0  0  0  0  0  0  0  0  0  0  0
   -2.7879   22.5535  -24.8866 C   0  0  0  0  0  0  0  0  0  0  0  0
   -2.0808   22.1250  -24.0089 C   0  0  0  0  0  0  0  0  0  0  0  0
   -3.8499   24.0029  -28.1719 C   0  0  0  0  0  0  0  0  0  0  0  0
   -5.2203   24.0936  -27.9917 C   0  0  0  0  0  0  0  0  0  0  0  0
   -5.8016   23.6877  -26.8121 C   0  0  0  0  0  0  0  0  0  0  0  0
   -4.9857   23.1898  -25.8170 C   0  0  0  0  0  0  0  0  0  0  0  0
   -3.6212   23.0830  -25.9550 C   0  0  0  0  0  0  0  0  0  0  0  0
   -3.0714   23.5000  -27.1533 C   0  0  0  0  0  0  0  0  0  0  0  0
   -3.7899   25.5663  -30.0334 C   0  0  0  0  0  0  0  0  0  0  0  0
   -3.2910   24.4191  -29.3705 O   0  0  0  0  0  0  0  0  0  0  0  0
   -7.1772   23.7885  -26.6555 O   0  0  0  0  0  0  0  0  0  0  0  0
   -7.7326   24.6300  -25.6614 C   0  0  0  0  0  0  0  0  0  0  0  0
   -0.2693   20.3750  -19.7232 C   0  0  0  0  0  0  0  0  0  0  0  0
   -0.8841   21.3036  -18.7203 C   0  0  0  0  0  0  0  0  0  0  0  0
   -2.3611   21.1784  -18.5086 C   0  0  0  0  0  0  0  0  0  0  0  0
   -2.1399   21.3157  -17.0778 N   0  0  0  0  0  0  0  0  0  0  0  0
   -0.8254   20.7705  -17.2957 C   0  0  0  0  0  0  0  0  0  0  0  0
   -2.8748   21.7745  -15.9704 C   0  0  0  0  0  0  0  0  0  0  0  0
   -2.3398   21.7440  -14.8328 O   0  0  0  0  0  0  0  0  0  0  0  0
   -4.2288   22.2712  -16.1622 C   0  0  0  0  0  0  0  0  0  0  0  0
   -4.7398   23.2023  -15.3699 C   0  0  0  0  0  0  0  0  0  0  0  0
 21 22  1  0  0  0
 22 15  1  0  0  0
 15 16  2  0  0  0
 16 17  1  0  0  0
 17 23  1  0  0  0
 23 24  1  0  0  0
 17 18  2  0  0  0
 18 19  1  0  0  0
 19 20  2  0  0  0
 19 13  1  0  0  0
 13 14  3  0  0  0
 14  1  1  0  0  0
  1  2  2  0  0  0
  2  3  1  0  0  0
  3 25  1  0  0  0
 25 26  1  0  0  0
 26 27  1  0  0  0
 27 28  1  0  0  0
 28 29  1  0  0  0
 28 30  1  0  0  0
 30 31  2  0  0  0
 30 32  1  0  0  0
 32 33  2  0  0  0
  3  4  1  0  0  0
  4  5  2  0  0  0
  5  6  1  0  0  0
  6  7  2  0  0  0
  7  8  1  0  0  0
  8  9  1  0  0  0
  8 10  2  0  0  0
 20 15  1  0  0  0
 10  1  1  0  0  0
 29 26  1  0  0  0
 10  4  1  0  0  0
  9 11  1  0  0  0
  9 12  1  0  0  0
M  END
> <minimizedAffinity>
-6.99463

> <CNNscore>
0.2791816592

> <CNNaffinity>
6.4937200546

> <CNN_VS>
1.8129274845

> <CNNaffinity_variance>
0.4494162500

$$$$
[H]c1nc2c([H])c([H])c(N(c3c([H])c(OC([H])([H])[H])c([H])c(OC([H])([H])[H])c3[H])C([H])([H])C3([H])OC([H])([H])C([H])([H])C3([H])[H])nc2c([H])c1-c1c([H])nn(C([H])([H])[H])c1[H]


 33 37  0  0  0  0  0  0  0  0999 V2000
   -0.4510   21.2670  -22.0119 N   0  0  0  0  0  0  0  0  0  0  0  0
   -0.3970   21.6046  -23.3813 C   0  0  0  0  0  0  0  0  0  0  0  0
    0.7679   21.6491  -24.1049 C   0  0  0  0  0  0  0  0  0  0  0  0
    0.8169   21.9948  -25.4406 C   0  0  0  0  0  0  0  0  0  0  0  0
   -0.3600   22.3128  -26.0837 C   0  0  0  0  0  0  0  0  0  0  0  0
   -0.3804   22.6637  -27.3792 N   0  0  0  0  0  0  0  0  0  0  0  0
   -1.5075   22.9801  -28.0178 C   0  0  0  0  0  0  0  0  0  0  0  0
   -2.7184   22.9628  -27.3724 C   0  0  0  0  0  0  0  0  0  0  0  0
   -2.7103   22.6016  -26.0325 C   0  0  0  0  0  0  0  0  0  0  0  0
   -1.5385   22.2715  -25.3644 C   0  0  0  0  0  0  0  0  0  0  0  0
   -1.5340   21.9289  -24.0683 N   0  0  0  0  0  0  0  0  0  0  0  0
   -3.9290   23.3127  -28.0768 C   0  0  0  0  0  0  0  0  0  0  0  0
   -5.1869   23.3163  -27.5132 C   0  0  0  0  0  0  0  0  0  0  0  0
   -6.0514   23.6980  -28.4998 N   0  0  0  0  0  0  0  0  0  0  0  0
   -5.3940   23.9255  -29.6268 N   0  0  0  0  0  0  0  0  0  0  0  0
   -5.9221   24.3430  -30.9049 C   0  0  0  0  0  0  0  0  0  0  0  0
   -4.0907   23.6951  -29.3913 C   0  0  0  0  0  0  0  0  0  0  0  0
   -3.5184   23.1269  -20.9036 C   0  0  0  0  0  0  0  0  0  0  0  0
   -3.8352   22.4555  -19.7294 C   0  0  0  0  0  0  0  0  0  0  0  0
   -3.0468   21.4025  -19.3186 C   0  0  0  0  0  0  0  0  0  0  0  0
   -1.9410   21.0221  -20.0829 C   0  0  0  0  0  0  0  0  0  0  0  0
   -1.6186   21.6830  -21.2509 C   0  0  0  0  0  0  0  0  0  0  0  0
   -2.4143   22.7356  -21.6547 C   0  0  0  0  0  0  0  0  0  0  0  0
   -4.1457   24.8554  -22.5139 C   0  0  0  0  0  0  0  0  0  0  0  0
   -4.3194   24.1861  -21.3059 O   0  0  0  0  0  0  0  0  0  0  0  0
   -3.3013   20.6976  -18.1727 O   0  0  0  0  0  0  0  0  0  0  0  0
   -2.7323   19.4772  -17.8183 C   0  0  0  0  0  0  0  0  0  0  0  0
    0.5305   20.4870  -21.3226 C   0  0  0  0  0  0  0  0  0  0  0  0
    1.6104   21.2340  -20.6144 C   0  0  0  0  0  0  0  0  0  0  0  0
    1.8935   20.6636  -19.2318 C   0  0  0  0  0  0  0  0  0  0  0  0
    3.3726   20.3072  -19.2923 C   0  0  0  0  0  0  0  0  0  0  0  0
    3.8134   21.3351  -20.3548 C   0  0  0  0  0  0  0  0  0  0  0  0
    2.8372   21.1155  -21.3116 O   0  0  0  0  0  0  0  0  0  0  0  0
 24 25  1  0  0  0
 25 18  1  0  0  0
 18 19  2  0  0  0
 19 20  1  0  0  0
 20 26  1  0  0  0
 26 27  1  0  0  0
 20 21  2  0  0  0
 21 22  1  0  0  0
 22 23  2  0  0  0
 22  1  1  0  0  0
  1 28  1  0  0  0
 28 29  1  0  0  0
 29 30  1  0  0  0
 30 31  1  0  0  0
 31 32  1  0  0  0
 32 33  1  0  0  0
  1  2  1  0  0  0
  2  3  2  0  0  0
  3  4  1  0  0  0
  4  5  2  0  0  0
  5  6  1  0  0  0
  6  7  2  0  0  0
  7  8  1  0  0  0
  8  9  2  0  0  0
  9 10  1  0  0  0
 10 11  2  0  0  0
  8 12  1  0  0  0
 12 13  1  0  0  0
 13 14  2  0  0  0
 14 15  1  0  0  0
 15 16  1  0  0  0
 15 17  1  0  0  0
 23 18  1  0  0  0
 33 29  1  0  0  0
 11  2  1  0  0  0
 17 12  2  0  0  0
 10  5  1  0  0  0
M  END
> <minimizedAffinity>
-7.75118

> <CNNscore>
0.6205517650

> <CNNaffinity>
7.1608252525

> <CNN_VS>
4.4436626434

> <CNNaffinity_variance>
0.1216806918

$$$$
[H]c1nc2c([H])c([H])c(N(c3c([H])c(OC([H])([H])[H])c([H])c(OC([H])([H])[H])c3[H])C([H])([H])C3([H])OC([H])([H])C([H])([H])C3([H])[H])nc2c([H])c1-c1c([H])nn(C([H])([H])[H])c1[H]


 33 37  0  0  0  0  0  0  0  0999 V2000
   -3.6528   23.4373  -25.2521 N   0  0  0  0  0  0  0  0  0  0  0  0
   -4.5952   22.8888  -24.3559 C   0  0  0  0  0  0  0  0  0  0  0  0
   -5.5296   21.9521  -24.7191 C   0  0  0  0  0  0  0  0  0  0  0  0
   -6.4592   21.4300  -23.8420 C   0  0  0  0  0  0  0  0  0  0  0  0
   -6.4530   21.8688  -22.5354 C   0  0  0  0  0  0  0  0  0  0  0  0
   -7.3340   21.4062  -21.6344 N   0  0  0  0  0  0  0  0  0  0  0  0
   -7.3479   21.8221  -20.3675 C   0  0  0  0  0  0  0  0  0  0  0  0
   -6.4500   22.7568  -19.9168 C   0  0  0  0  0  0  0  0  0  0  0  0
   -5.5339   23.2428  -20.8391 C   0  0  0  0  0  0  0  0  0  0  0  0
   -5.5166   22.8120  -22.1591 C   0  0  0  0  0  0  0  0  0  0  0  0
   -4.6339   23.2883  -23.0486 N   0  0  0  0  0  0  0  0  0  0  0  0
   -6.4813   23.2002  -18.5432 C   0  0  0  0  0  0  0  0  0  0  0  0
   -6.2144   24.4886  -18.1325 C   0  0  0  0  0  0  0  0  0  0  0  0
   -6.3461   24.4958  -16.7726 N   0  0  0  0  0  0  0  0  0  0  0  0
   -6.6761   23.2903  -16.3347 N   0  0  0  0  0  0  0  0  0  0  0  0
   -6.9095   22.8627  -14.9747 C   0  0  0  0  0  0  0  0  0  0  0  0
   -6.7643   22.4792  -17.4030 C   0  0  0  0  0  0  0  0  0  0  0  0
   -0.4797   21.7488  -24.1672 C   0  0  0  0  0  0  0  0  0  0  0  0
    0.2919   21.8529  -25.3177 C   0  0  0  0  0  0  0  0  0  0  0  0
   -0.2356   22.4678  -26.4325 C   0  0  0  0  0  0  0  0  0  0  0  0
   -1.5352   22.9790  -26.3952 C   0  0  0  0  0  0  0  0  0  0  0  0
   -2.3093   22.8800  -25.2569 C   0  0  0  0  0  0  0  0  0  0  0  0
   -1.7730   22.2619  -24.1459 C   0  0  0  0  0  0  0  0  0  0  0  0
   -0.6227   20.9911  -21.8478 C   0  0  0  0  0  0  0  0  0  0  0  0
    0.0632   21.1284  -23.0511 O   0  0  0  0  0  0  0  0  0  0  0  0
    0.4689   22.6046  -27.5985 O   0  0  0  0  0  0  0  0  0  0  0  0
   -0.0099   23.1534  -28.7852 C   0  0  0  0  0  0  0  0  0  0  0  0
   -3.9345   24.4639  -26.2079 C   0  0  0  0  0  0  0  0  0  0  0  0
   -5.0086   24.1822  -27.2041 C   0  0  0  0  0  0  0  0  0  0  0  0
   -5.1758   25.3154  -28.2065 C   0  0  0  0  0  0  0  0  0  0  0  0
   -4.9506   24.6354  -29.5500 C   0  0  0  0  0  0  0  0  0  0  0  0
   -5.3932   23.2093  -29.1628 C   0  0  0  0  0  0  0  0  0  0  0  0
   -4.6751   23.0522  -27.9896 O   0  0  0  0  0  0  0  0  0  0  0  0
 24 25  1  0  0  0
 25 18  1  0  0  0
 18 19  2  0  0  0
 19 20  1  0  0  0
 20 26  1  0  0  0
 26 27  1  0  0  0
 20 21  2  0  0  0
 21 22  1  0  0  0
 22 23  2  0  0  0
 22  1  1  0  0  0
  1 28  1  0  0  0
 28 29  1  0  0  0
 29 30  1  0  0  0
 30 31  1  0  0  0
 31 32  1  0  0  0
 32 33  1  0  0  0
  1  2  1  0  0  0
  2  3  2  0  0  0
  3  4  1  0  0  0
  4  5  2  0  0  0
  5  6  1  0  0  0
  6  7  2  0  0  0
  7  8  1  0  0  0
  8  9  2  0  0  0
  9 10  1  0  0  0
 10 11  2  0  0  0
  8 12  1  0  0  0
 12 13  1  0  0  0
 13 14  2  0  0  0
 14 15  1  0  0  0
 15 16  1  0  0  0
 15 17  1  0  0  0
 23 18  1  0  0  0
 33 29  1  0  0  0
 11  2  1  0  0  0
 17 12  2  0  0  0
 10  5  1  0  0  0
M  END
> <minimizedAffinity>
-8.31835

> <CNNscore>
0.4211061597

> <CNNaffinity>
6.8628044128

> <CNN_VS>
2.8899691105

> <CNNaffinity_variance>
0.0640617236

$$$$
[H]c1nc2c([H])c([H])c(N(c3c([H])c(OC([H])([H])[H])c([H])c(OC([H])([H])[H])c3[H])C([H])([H])C3([H])OC([H])([H])C([H])([H])C3([H])[H])nc2c([H])c1-c1c([H])nn(C([H])([H])[H])c1[H]


 33 37  0  0  0  0  0  0  0  0999 V2000
   -3.8364   23.4970  -25.5655 N   0  0  0  0  0  0  0  0  0  0  0  0
   -4.7666   22.9718  -24.6430 C   0  0  0  0  0  0  0  0  0  0  0  0
   -4.8518   21.6388  -24.3292 C   0  0  0  0  0  0  0  0  0  0  0  0
   -5.7737   21.1282  -23.4375 C   0  0  0  0  0  0  0  0  0  0  0  0
   -6.6554   21.9963  -22.8301 C   0  0  0  0  0  0  0  0  0  0  0  0
   -7.5803   21.5632  -21.9589 N   0  0  0  0  0  0  0  0  0  0  0  0
   -8.4456   22.3860  -21.3651 C   0  0  0  0  0  0  0  0  0  0  0  0
   -8.4329   23.7344  -21.6199 C   0  0  0  0  0  0  0  0  0  0  0  0
   -7.4812   24.1943  -22.5191 C   0  0  0  0  0  0  0  0  0  0  0  0
   -6.5786   23.3403  -23.1392 C   0  0  0  0  0  0  0  0  0  0  0  0
   -5.6645   23.7876  -24.0119 N   0  0  0  0  0  0  0  0  0  0  0  0
   -9.3797   24.6112  -20.9725 C   0  0  0  0  0  0  0  0  0  0  0  0
  -10.1346   24.2684  -19.8713 C   0  0  0  0  0  0  0  0  0  0  0  0
  -10.8976   25.3611  -19.5704 N   0  0  0  0  0  0  0  0  0  0  0  0
  -10.6511   26.3446  -20.4223 N   0  0  0  0  0  0  0  0  0  0  0  0
  -11.2383   27.6638  -20.4639 C   0  0  0  0  0  0  0  0  0  0  0  0
   -9.7236   25.9073  -21.2916 C   0  0  0  0  0  0  0  0  0  0  0  0
   -0.3355   22.5427  -26.5298 C   0  0  0  0  0  0  0  0  0  0  0  0
    0.1543   22.0504  -25.3267 C   0  0  0  0  0  0  0  0  0  0  0  0
   -0.6625   22.0415  -24.2168 C   0  0  0  0  0  0  0  0  0  0  0  0
   -1.9699   22.5248  -24.3117 C   0  0  0  0  0  0  0  0  0  0  0  0
   -2.4652   23.0159  -25.5025 C   0  0  0  0  0  0  0  0  0  0  0  0
   -1.6397   23.0217  -26.6083 C   0  0  0  0  0  0  0  0  0  0  0  0
    0.1368   23.1131  -28.8591 C   0  0  0  0  0  0  0  0  0  0  0  0
    0.4964   22.5453  -27.6403 O   0  0  0  0  0  0  0  0  0  0  0  0
   -0.2446   21.5710  -23.0008 O   0  0  0  0  0  0  0  0  0  0  0  0
   -0.7312   21.9673  -21.7579 C   0  0  0  0  0  0  0  0  0  0  0  0
   -4.1525   24.4259  -26.6067 C   0  0  0  0  0  0  0  0  0  0  0  0
   -5.1857   24.0041  -27.5966 C   0  0  0  0  0  0  0  0  0  0  0  0
   -5.5407   25.1201  -28.5691 C   0  0  0  0  0  0  0  0  0  0  0  0
   -5.2344   24.5129  -29.9313 C   0  0  0  0  0  0  0  0  0  0  0  0
   -5.4462   23.0273  -29.5737 C   0  0  0  0  0  0  0  0  0  0  0  0
   -4.6944   22.9568  -28.4133 O   0  0  0  0  0  0  0  0  0  0  0  0
 24 25  1  0  0  0
 25 18  1  0  0  0
 18 19  2  0  0  0
 19 20  1  0  0  0
 20 26  1  0  0  0
 26 27  1  0  0  0
 20 21  2  0  0  0
 21 22  1  0  0  0
 22 23  2  0  0  0
 22  1  1  0  0  0
  1 28  1  0  0  0
 28 29  1  0  0  0
 29 30  1  0  0  0
 30 31  1  0  0  0
 31 32  1  0  0  0
 32 33  1  0  0  0
  1  2  1  0  0  0
  2  3  2  0  0  0
  3  4  1  0  0  0
  4  5  2  0  0  0
  5  6  1  0  0  0
  6  7  2  0  0  0
  7  8  1  0  0  0
  8  9  2  0  0  0
  9 10  1  0  0  0
 10 11  2  0  0  0
  8 12  1  0  0  0
 12 13  1  0  0  0
 13 14  2  0  0  0
 14 15  1  0  0  0
 15 16  1  0  0  0
 15 17  1  0  0  0
 23 18  1  0  0  0
 33 29  1  0  0  0
 11  2  1  0  0  0
 17 12  2  0  0  0
 10  5  1  0  0  0
M  END
> <minimizedAffinity>
-8.56710

> <CNNscore>
0.4107927084

> <CNNaffinity>
6.9006128311

> <CNN_VS>
2.8347213268

> <CNNaffinity_variance>
0.0750860497

$$$$
[H]c1nc2c([H])c([H])c(N(c3c([H])c(OC([H])([H])[H])c([H])c(OC([H])([H])[H])c3[H])C([H])([H])C3([H])OC([H])([H])C([H])([H])C3([H])[H])nc2c([H])c1-c1c([H])nn(C([H])([H])[H])c1[H]


 33 37  0  0  0  0  0  0  0  0999 V2000
   -3.9641   22.5008  -25.3693 N   0  0  0  0  0  0  0  0  0  0  0  0
   -2.5820   22.2985  -25.1671 C   0  0  0  0  0  0  0  0  0  0  0  0
   -1.6393   22.4750  -26.1483 C   0  0  0  0  0  0  0  0  0  0  0  0
   -0.2900   22.2611  -25.9494 C   0  0  0  0  0  0  0  0  0  0  0  0
    0.1365   21.8487  -24.7053 C   0  0  0  0  0  0  0  0  0  0  0  0
    1.4334   21.6167  -24.4482 N   0  0  0  0  0  0  0  0  0  0  0  0
    1.8654   21.2121  -23.2532 C   0  0  0  0  0  0  0  0  0  0  0  0
    0.9927   21.0097  -22.2136 C   0  0  0  0  0  0  0  0  0  0  0  0
   -0.3511   21.2462  -22.4672 C   0  0  0  0  0  0  0  0  0  0  0  0
   -0.8043   21.6675  -23.7103 C   0  0  0  0  0  0  0  0  0  0  0  0
   -2.1040   21.8891  -23.9531 N   0  0  0  0  0  0  0  0  0  0  0  0
    1.4758   20.5669  -20.9272 C   0  0  0  0  0  0  0  0  0  0  0  0
    2.0199   19.3242  -20.6832 C   0  0  0  0  0  0  0  0  0  0  0  0
    2.3468   19.2991  -19.3569 N   0  0  0  0  0  0  0  0  0  0  0  0
    2.0336   20.4506  -18.7826 N   0  0  0  0  0  0  0  0  0  0  0  0
    2.2084   20.8420  -17.4031 C   0  0  0  0  0  0  0  0  0  0  0  0
    1.4976   21.2436  -19.7265 C   0  0  0  0  0  0  0  0  0  0  0  0
   -4.9917   25.7020  -27.0404 C   0  0  0  0  0  0  0  0  0  0  0  0
   -5.1881   25.2764  -28.3481 C   0  0  0  0  0  0  0  0  0  0  0  0
   -4.9776   23.9524  -28.6673 C   0  0  0  0  0  0  0  0  0  0  0  0
   -4.5712   23.0545  -27.6771 C   0  0  0  0  0  0  0  0  0  0  0  0
   -4.3734   23.4682  -26.3754 C   0  0  0  0  0  0  0  0  0  0  0  0
   -4.5857   24.7960  -26.0654 C   0  0  0  0  0  0  0  0  0  0  0  0
   -4.9253   27.5852  -25.4837 C   0  0  0  0  0  0  0  0  0  0  0  0
   -5.2080   27.0374  -26.7316 O   0  0  0  0  0  0  0  0  0  0  0  0
   -5.1523   23.4655  -29.9350 O   0  0  0  0  0  0  0  0  0  0  0  0
   -5.7980   24.1186  -30.9815 C   0  0  0  0  0  0  0  0  0  0  0  0
   -5.0027   21.7778  -24.7019 C   0  0  0  0  0  0  0  0  0  0  0  0
   -5.8857   22.5566  -23.7857 C   0  0  0  0  0  0  0  0  0  0  0  0
   -6.7519   21.6554  -22.9170 C   0  0  0  0  0  0  0  0  0  0  0  0
   -6.3780   22.0652  -21.4991 C   0  0  0  0  0  0  0  0  0  0  0  0
   -5.9494   23.5192  -21.7856 C   0  0  0  0  0  0  0  0  0  0  0  0
   -5.1118   23.3071  -22.8674 O   0  0  0  0  0  0  0  0  0  0  0  0
 24 25  1  0  0  0
 25 18  1  0  0  0
 18 19  2  0  0  0
 19 20  1  0  0  0
 20 26  1  0  0  0
 26 27  1  0  0  0
 20 21  2  0  0  0
 21 22  1  0  0  0
 22 23  2  0  0  0
 22  1  1  0  0  0
  1 28  1  0  0  0
 28 29  1  0  0  0
 29 30  1  0  0  0
 30 31  1  0  0  0
 31 32  1  0  0  0
 32 33  1  0  0  0
  1  2  1  0  0  0
  2  3  2  0  0  0
  3  4  1  0  0  0
  4  5  2  0  0  0
  5  6  1  0  0  0
  6  7  2  0  0  0
  7  8  1  0  0  0
  8  9  2  0  0  0
  9 10  1  0  0  0
 10 11  2  0  0  0
  8 12  1  0  0  0
 12 13  1  0  0  0
 13 14  2  0  0  0
 14 15  1  0  0  0
 15 16  1  0  0  0
 15 17  1  0  0  0
 23 18  1  0  0  0
 33 29  1  0  0  0
 11  2  1  0  0  0
 17 12  2  0  0  0
 10  5  1  0  0  0
M  END
> <minimizedAffinity>
-8.00058

> <CNNscore>
0.3978992403

> <CNNaffinity>
7.1149988174

> <CNN_VS>
2.8310525417

> <CNNaffinity_variance>
0.1001434922

$$$$
[H]c1nc2c([H])c([H])c(N(c3c([H])c(OC([H])([H])[H])c([H])c(OC([H])([H])[H])c3[H])C([H])([H])C3([H])OC([H])([H])C([H])([H])C3([H])[H])nc2c([H])c1-c1c([H])nn(C([H])([H])[H])c1[H]


 33 37  0  0  0  0  0  0  0  0999 V2000
   -3.7351   23.5122  -25.2310 N   0  0  0  0  0  0  0  0  0  0  0  0
   -4.6453   22.9406  -24.3163 C   0  0  0  0  0  0  0  0  0  0  0  0
   -5.5525   21.9694  -24.6574 C   0  0  0  0  0  0  0  0  0  0  0  0
   -6.4511   21.4244  -23.7622 C   0  0  0  0  0  0  0  0  0  0  0  0
   -6.4411   21.8755  -22.4598 C   0  0  0  0  0  0  0  0  0  0  0  0
   -7.2928   21.3918  -21.5419 N   0  0  0  0  0  0  0  0  0  0  0  0
   -7.3027   21.8188  -20.2787 C   0  0  0  0  0  0  0  0  0  0  0  0
   -6.4307   22.7876  -19.8495 C   0  0  0  0  0  0  0  0  0  0  0  0
   -5.5450   23.2957  -20.7894 C   0  0  0  0  0  0  0  0  0  0  0  0
   -5.5320   22.8533  -22.1057 C   0  0  0  0  0  0  0  0  0  0  0  0
   -4.6789   23.3508  -23.0122 N   0  0  0  0  0  0  0  0  0  0  0  0
   -6.4573   23.2425  -18.4796 C   0  0  0  0  0  0  0  0  0  0  0  0
   -6.1319   24.5192  -18.0745 C   0  0  0  0  0  0  0  0  0  0  0  0
   -6.2804   24.5435  -16.7166 N   0  0  0  0  0  0  0  0  0  0  0  0
   -6.6754   23.3592  -16.2745 N   0  0  0  0  0  0  0  0  0  0  0  0
   -6.9471   22.9542  -14.9147 C   0  0  0  0  0  0  0  0  0  0  0  0
   -6.7903   22.5452  -17.3381 C   0  0  0  0  0  0  0  0  0  0  0  0
   -0.3468   22.4594  -26.4588 C   0  0  0  0  0  0  0  0  0  0  0  0
    0.1991   21.9026  -25.3092 C   0  0  0  0  0  0  0  0  0  0  0  0
   -0.5437   21.8830  -24.1487 C   0  0  0  0  0  0  0  0  0  0  0  0
   -1.8333   22.4203  -24.1393 C   0  0  0  0  0  0  0  0  0  0  0  0
   -2.3839   22.9758  -25.2764 C   0  0  0  0  0  0  0  0  0  0  0  0
   -1.6322   22.9917  -26.4335 C   0  0  0  0  0  0  0  0  0  0  0  0
    0.0281   23.1559  -28.7716 C   0  0  0  0  0  0  0  0  0  0  0  0
    0.4109   22.4722  -27.6212 O   0  0  0  0  0  0  0  0  0  0  0  0
   -0.0678   21.3502  -22.9807 O   0  0  0  0  0  0  0  0  0  0  0  0
   -0.8383   20.8983  -21.9126 C   0  0  0  0  0  0  0  0  0  0  0  0
   -4.0571   24.5436  -26.1688 C   0  0  0  0  0  0  0  0  0  0  0  0
   -5.1366   24.2463  -27.1547 C   0  0  0  0  0  0  0  0  0  0  0  0
   -5.3032   25.3598  -28.1791 C   0  0  0  0  0  0  0  0  0  0  0  0
   -5.0865   24.6517  -29.5095 C   0  0  0  0  0  0  0  0  0  0  0  0
   -5.5335   23.2356  -29.0916 C   0  0  0  0  0  0  0  0  0  0  0  0
   -4.8111   23.0992  -27.9185 O   0  0  0  0  0  0  0  0  0  0  0  0
 24 25  1  0  0  0
 25 18  1  0  0  0
 18 19  2  0  0  0
 19 20  1  0  0  0
 20 26  1  0  0  0
 26 27  1  0  0  0
 20 21  2  0  0  0
 21 22  1  0  0  0
 22 23  2  0  0  0
 22  1  1  0  0  0
  1 28  1  0  0  0
 28 29  1  0  0  0
 29 30  1  0  0  0
 30 31  1  0  0  0
 31 32  1  0  0  0
 32 33  1  0  0  0
  1  2  1  0  0  0
  2  3  2  0  0  0
  3  4  1  0  0  0
  4  5  2  0  0  0
  5  6  1  0  0  0
  6  7  2  0  0  0
  7  8  1  0  0  0
  8  9  2  0  0  0
  9 10  1  0  0  0
 10 11  2  0  0  0
  8 12  1  0  0  0
 12 13  1  0  0  0
 13 14  2  0  0  0
 14 15  1  0  0  0
 15 16  1  0  0  0
 15 17  1  0  0  0
 23 18  1  0  0  0
 33 29  1  0  0  0
 11  2  1  0  0  0
 17 12  2  0  0  0
 10  5  1  0  0  0
M  END
> <minimizedAffinity>
-8.26541

> <CNNscore>
0.3655135930

> <CNNaffinity>
6.7830634117

> <CNN_VS>
2.4793019295

> <CNNaffinity_variance>
0.0768537074

$$$$
[H]c1nc2c([H])c([H])c(N(c3c([H])c(OC([H])([H])[H])c([H])c(OC([H])([H])[H])c3[H])C([H])([H])C3([H])OC([H])([H])C([H])([H])C3([H])[H])nc2c([H])c1-c1c([H])nn(C([H])([H])[H])c1[H]


 33 37  0  0  0  0  0  0  0  0999 V2000
   -3.5732   22.3656  -25.0552 N   0  0  0  0  0  0  0  0  0  0  0  0
   -2.1926   22.1586  -24.8472 C   0  0  0  0  0  0  0  0  0  0  0  0
   -1.2438   22.3452  -25.8206 C   0  0  0  0  0  0  0  0  0  0  0  0
    0.1039   22.1266  -25.6162 C   0  0  0  0  0  0  0  0  0  0  0  0
    0.5223   21.6986  -24.3746 C   0  0  0  0  0  0  0  0  0  0  0  0
    1.8173   21.4614  -24.1126 N   0  0  0  0  0  0  0  0  0  0  0  0
    2.2415   21.0418  -22.9200 C   0  0  0  0  0  0  0  0  0  0  0  0
    1.3623   20.8284  -21.8882 C   0  0  0  0  0  0  0  0  0  0  0  0
    0.0204   21.0701  -22.1469 C   0  0  0  0  0  0  0  0  0  0  0  0
   -0.4247   21.5072  -23.3875 C   0  0  0  0  0  0  0  0  0  0  0  0
   -1.7226   21.7338  -23.6353 N   0  0  0  0  0  0  0  0  0  0  0  0
    1.8369   20.3693  -20.6043 C   0  0  0  0  0  0  0  0  0  0  0  0
    2.9058   19.5175  -20.4262 C   0  0  0  0  0  0  0  0  0  0  0  0
    3.0285   19.3277  -19.0788 N   0  0  0  0  0  0  0  0  0  0  0  0
    2.0989   20.0123  -18.4300 N   0  0  0  0  0  0  0  0  0  0  0  0
    1.8718   20.0893  -17.0054 C   0  0  0  0  0  0  0  0  0  0  0  0
    1.3561   20.6586  -19.3452 C   0  0  0  0  0  0  0  0  0  0  0  0
   -4.5794   23.8543  -28.3519 C   0  0  0  0  0  0  0  0  0  0  0  0
   -4.7175   25.1949  -28.0151 C   0  0  0  0  0  0  0  0  0  0  0  0
   -4.4856   25.5934  -26.7164 C   0  0  0  0  0  0  0  0  0  0  0  0
   -4.1146   24.6499  -25.7552 C   0  0  0  0  0  0  0  0  0  0  0  0
   -3.9751   23.3159  -26.0804 C   0  0  0  0  0  0  0  0  0  0  0  0
   -4.2103   22.9261  -27.3830 C   0  0  0  0  0  0  0  0  0  0  0  0
   -5.6724   24.1525  -30.5177 C   0  0  0  0  0  0  0  0  0  0  0  0
   -4.8147   23.4659  -29.6630 O   0  0  0  0  0  0  0  0  0  0  0  0
   -4.6033   26.8974  -26.3159 O   0  0  0  0  0  0  0  0  0  0  0  0
   -4.1552   27.4272  -25.1088 C   0  0  0  0  0  0  0  0  0  0  0  0
   -4.6172   21.6623  -24.3753 C   0  0  0  0  0  0  0  0  0  0  0  0
   -5.1915   22.3143  -23.1626 C   0  0  0  0  0  0  0  0  0  0  0  0
   -6.6987   22.4994  -23.2676 C   0  0  0  0  0  0  0  0  0  0  0  0
   -7.2326   21.7493  -22.0549 C   0  0  0  0  0  0  0  0  0  0  0  0
   -5.9989   21.8857  -21.1389 C   0  0  0  0  0  0  0  0  0  0  0  0
   -5.0073   21.4948  -22.0225 O   0  0  0  0  0  0  0  0  0  0  0  0
 24 25  1  0  0  0
 25 18  1  0  0  0
 18 19  2  0  0  0
 19 20  1  0  0  0
 20 26  1  0  0  0
 26 27  1  0  0  0
 20 21  2  0  0  0
 21 22  1  0  0  0
 22 23  2  0  0  0
 22  1  1  0  0  0
  1 28  1  0  0  0
 28 29  1  0  0  0
 29 30  1  0  0  0
 30 31  1  0  0  0
 31 32  1  0  0  0
 32 33  1  0  0  0
  1  2  1  0  0  0
  2  3  2  0  0  0
  3  4  1  0  0  0
  4  5  2  0  0  0
  5  6  1  0  0  0
  6  7  2  0  0  0
  7  8  1  0  0  0
  8  9  2  0  0  0
  9 10  1  0  0  0
 10 11  2  0  0  0
  8 12  1  0  0  0
 12 13  1  0  0  0
 13 14  2  0  0  0
 14 15  1  0  0  0
 15 16  1  0  0  0
 15 17  1  0  0  0
 23 18  1  0  0  0
 33 29  1  0  0  0
 11  2  1  0  0  0
 17 12  2  0  0  0
 10  5  1  0  0  0
M  END
> <minimizedAffinity>
-7.93838

> <CNNscore>
0.3523654938

> <CNNaffinity>
7.0125379562

> <CNN_VS>
2.4709763527

> <CNNaffinity_variance>
0.0651669353

$$$$
[H]c1nc2c([H])c([H])c(N(c3c([H])c(OC([H])([H])[H])c([H])c(OC([H])([H])[H])c3[H])C([H])([H])C3([H])OC([H])([H])C([H])([H])C3([H])[H])nc2c([H])c1-c1c([H])nn(C([H])([H])[H])c1[H]


 33 37  0  0  0  0  0  0  0  0999 V2000
   -2.0176   22.0472  -21.9854 N   0  0  0  0  0  0  0  0  0  0  0  0
   -1.7024   22.1664  -23.3560 C   0  0  0  0  0  0  0  0  0  0  0  0
   -0.4712   21.8620  -23.8792 C   0  0  0  0  0  0  0  0  0  0  0  0
   -0.1635   21.9949  -25.2184 C   0  0  0  0  0  0  0  0  0  0  0  0
   -1.1379   22.4570  -26.0767 C   0  0  0  0  0  0  0  0  0  0  0  0
   -0.9014   22.6153  -27.3886 N   0  0  0  0  0  0  0  0  0  0  0  0
   -1.8288   23.0661  -28.2342 C   0  0  0  0  0  0  0  0  0  0  0  0
   -3.0877   23.3953  -27.7982 C   0  0  0  0  0  0  0  0  0  0  0  0
   -3.3444   23.2360  -26.4437 C   0  0  0  0  0  0  0  0  0  0  0  0
   -2.3810   22.7669  -25.5604 C   0  0  0  0  0  0  0  0  0  0  0  0
   -2.6310   22.6200  -24.2515 N   0  0  0  0  0  0  0  0  0  0  0  0
   -4.0790   23.8865  -28.7257 C   0  0  0  0  0  0  0  0  0  0  0  0
   -5.3191   23.3162  -28.9175 C   0  0  0  0  0  0  0  0  0  0  0  0
   -5.9475   24.0685  -29.8692 N   0  0  0  0  0  0  0  0  0  0  0  0
   -5.1635   25.0594  -30.2659 N   0  0  0  0  0  0  0  0  0  0  0  0
   -5.4364   26.0799  -31.2512 C   0  0  0  0  0  0  0  0  0  0  0  0
   -4.0120   24.9676  -29.5784 C   0  0  0  0  0  0  0  0  0  0  0  0
   -5.1735   24.0578  -21.6785 C   0  0  0  0  0  0  0  0  0  0  0  0
   -5.8006   23.4206  -20.6153 C   0  0  0  0  0  0  0  0  0  0  0  0
   -5.1877   22.3411  -20.0169 C   0  0  0  0  0  0  0  0  0  0  0  0
   -3.9466   21.9000  -20.4826 C   0  0  0  0  0  0  0  0  0  0  0  0
   -3.3160   22.5265  -21.5383 C   0  0  0  0  0  0  0  0  0  0  0  0
   -3.9378   23.6061  -22.1317 C   0  0  0  0  0  0  0  0  0  0  0  0
   -5.7352   25.4083  -23.6368 C   0  0  0  0  0  0  0  0  0  0  0  0
   -5.8005   25.1442  -22.2717 O   0  0  0  0  0  0  0  0  0  0  0  0
   -5.7491   21.6673  -18.9656 O   0  0  0  0  0  0  0  0  0  0  0  0
   -7.0988   21.6606  -18.6237 C   0  0  0  0  0  0  0  0  0  0  0  0
   -1.1793   21.4295  -21.0042 C   0  0  0  0  0  0  0  0  0  0  0  0
   -0.1511   22.2935  -20.3547 C   0  0  0  0  0  0  0  0  0  0  0  0
   -0.6511   22.9042  -19.0531 C   0  0  0  0  0  0  0  0  0  0  0  0
    0.3595   22.4182  -18.0232 C   0  0  0  0  0  0  0  0  0  0  0  0
    1.5743   22.2438  -18.9579 C   0  0  0  0  0  0  0  0  0  0  0  0
    0.9799   21.5271  -19.9825 O   0  0  0  0  0  0  0  0  0  0  0  0
 24 25  1  0  0  0
 25 18  1  0  0  0
 18 19  2  0  0  0
 19 20  1  0  0  0
 20 26  1  0  0  0
 26 27  1  0  0  0
 20 21  2  0  0  0
 21 22  1  0  0  0
 22 23  2  0  0  0
 22  1  1  0  0  0
  1 28  1  0  0  0
 28 29  1  0  0  0
 29 30  1  0  0  0
 30 31  1  0  0  0
 31 32  1  0  0  0
 32 33  1  0  0  0
  1  2  1  0  0  0
  2  3  2  0  0  0
  3  4  1  0  0  0
  4  5  2  0  0  0
  5  6  1  0  0  0
  6  7  2  0  0  0
  7  8  1  0  0  0
  8  9  2  0  0  0
  9 10  1  0  0  0
 10 11  2  0  0  0
  8 12  1  0  0  0
 12 13  1  0  0  0
 13 14  2  0  0  0
 14 15  1  0  0  0
 15 16  1  0  0  0
 15 17  1  0  0  0
 23 18  1  0  0  0
 33 29  1  0  0  0
 11  2  1  0  0  0
 17 12  2  0  0  0
 10  5  1  0  0  0
M  END
> <minimizedAffinity>
-8.21619

> <CNNscore>
0.3250577748

> <CNNaffinity>
7.0145902634

> <CNN_VS>
2.2801470757

> <CNNaffinity_variance>
0.2485651076

$$$$
[H]c1nc2c([H])c([H])c(N(c3c([H])c(OC([H])([H])[H])c([H])c(OC([H])([H])[H])c3[H])C([H])([H])C3([H])OC([H])([H])C([H])([H])C3([H])[H])nc2c([H])c1-c1c([H])nn(C([H])([H])[H])c1[H]


 33 37  0  0  0  0  0  0  0  0999 V2000
   -3.7730   22.9646  -25.3443 N   0  0  0  0  0  0  0  0  0  0  0  0
   -4.2879   23.4623  -24.1281 C   0  0  0  0  0  0  0  0  0  0  0  0
   -3.9570   24.6895  -23.6114 C   0  0  0  0  0  0  0  0  0  0  0  0
   -4.4518   25.1653  -22.4136 C   0  0  0  0  0  0  0  0  0  0  0  0
   -5.3212   24.3715  -21.6967 C   0  0  0  0  0  0  0  0  0  0  0  0
   -5.8328   24.7722  -20.5221 N   0  0  0  0  0  0  0  0  0  0  0  0
   -6.6708   24.0170  -19.8110 C   0  0  0  0  0  0  0  0  0  0  0  0
   -7.0560   22.7757  -20.2514 C   0  0  0  0  0  0  0  0  0  0  0  0
   -6.5337   22.3501  -21.4646 C   0  0  0  0  0  0  0  0  0  0  0  0
   -5.6608   23.1340  -22.2076 C   0  0  0  0  0  0  0  0  0  0  0  0
   -5.1536   22.7169  -23.3764 N   0  0  0  0  0  0  0  0  0  0  0  0
   -7.9603   21.9683  -19.4673 C   0  0  0  0  0  0  0  0  0  0  0  0
   -9.3139   22.2012  -19.3512 C   0  0  0  0  0  0  0  0  0  0  0  0
   -9.8046   21.2266  -18.5291 N   0  0  0  0  0  0  0  0  0  0  0  0
   -8.8308   20.4178  -18.1398 N   0  0  0  0  0  0  0  0  0  0  0  0
   -8.9141   19.2663  -17.2716 C   0  0  0  0  0  0  0  0  0  0  0  0
   -7.6904   20.8536  -18.7026 C   0  0  0  0  0  0  0  0  0  0  0  0
   -0.2682   22.4720  -26.5974 C   0  0  0  0  0  0  0  0  0  0  0  0
    0.3569   21.9624  -25.4663 C   0  0  0  0  0  0  0  0  0  0  0  0
   -0.3724   21.7916  -24.3095 C   0  0  0  0  0  0  0  0  0  0  0  0
   -1.7276   22.1302  -24.2855 C   0  0  0  0  0  0  0  0  0  0  0  0
   -2.3571   22.6373  -25.4041 C   0  0  0  0  0  0  0  0  0  0  0  0
   -1.6185   22.8057  -26.5575 C   0  0  0  0  0  0  0  0  0  0  0  0
   -0.0050   23.2998  -28.8820 C   0  0  0  0  0  0  0  0  0  0  0  0
    0.4768   22.6383  -27.7561 O   0  0  0  0  0  0  0  0  0  0  0  0
    0.1799   21.2948  -23.1594 O   0  0  0  0  0  0  0  0  0  0  0  0
   -0.5101   20.9604  -21.9973 C   0  0  0  0  0  0  0  0  0  0  0  0
   -4.5527   22.6950  -26.5132 C   0  0  0  0  0  0  0  0  0  0  0  0
   -5.2610   23.8521  -27.1336 C   0  0  0  0  0  0  0  0  0  0  0  0
   -4.3666   25.0780  -27.2527 C   0  0  0  0  0  0  0  0  0  0  0  0
   -4.3808   25.3827  -28.7444 C   0  0  0  0  0  0  0  0  0  0  0  0
   -5.7582   24.7794  -29.0891 C   0  0  0  0  0  0  0  0  0  0  0  0
   -5.6375   23.5496  -28.4648 O   0  0  0  0  0  0  0  0  0  0  0  0
 24 25  1  0  0  0
 25 18  1  0  0  0
 18 19  2  0  0  0
 19 20  1  0  0  0
 20 26  1  0  0  0
 26 27  1  0  0  0
 20 21  2  0  0  0
 21 22  1  0  0  0
 22 23  2  0  0  0
 22  1  1  0  0  0
  1 28  1  0  0  0
 28 29  1  0  0  0
 29 30  1  0  0  0
 30 31  1  0  0  0
 31 32  1  0  0  0
 32 33  1  0  0  0
  1  2  1  0  0  0
  2  3  2  0  0  0
  3  4  1  0  0  0
  4  5  2  0  0  0
  5  6  1  0  0  0
  6  7  2  0  0  0
  7  8  1  0  0  0
  8  9  2  0  0  0
  9 10  1  0  0  0
 10 11  2  0  0  0
  8 12  1  0  0  0
 12 13  1  0  0  0
 13 14  2  0  0  0
 14 15  1  0  0  0
 15 16  1  0  0  0
 15 17  1  0  0  0
 23 18  1  0  0  0
 33 29  1  0  0  0
 11  2  1  0  0  0
 17 12  2  0  0  0
 10  5  1  0  0  0
M  END
> <minimizedAffinity>
-7.84725

> <CNNscore>
0.3086538911

> <CNNaffinity>
6.8448419571

> <CNN_VS>
2.1126871109

> <CNNaffinity_variance>
0.0895928815

$$$$
[H]c1nc2c([H])c([H])c(N(c3c([H])c(OC([H])([H])[H])c([H])c(OC([H])([H])[H])c3[H])C([H])([H])C3([H])OC([H])([H])C([H])([H])C3([H])[H])nc2c([H])c1-c1c([H])nn(C([H])([H])[H])c1[H]


 33 37  0  0  0  0  0  0  0  0999 V2000
   -2.9986   23.0420  -26.8323 N   0  0  0  0  0  0  0  0  0  0  0  0
   -1.7882   22.6460  -26.2240 C   0  0  0  0  0  0  0  0  0  0  0  0
   -0.5989   22.5433  -26.9003 C   0  0  0  0  0  0  0  0  0  0  0  0
    0.5793   22.1407  -26.3038 C   0  0  0  0  0  0  0  0  0  0  0  0
    0.5653   21.8241  -24.9624 C   0  0  0  0  0  0  0  0  0  0  0  0
    1.6748   21.4197  -24.3241 N   0  0  0  0  0  0  0  0  0  0  0  0
    1.6808   21.1036  -23.0286 C   0  0  0  0  0  0  0  0  0  0  0  0
    0.5367   21.1770  -22.2743 C   0  0  0  0  0  0  0  0  0  0  0  0
   -0.6171   21.5938  -22.9231 C   0  0  0  0  0  0  0  0  0  0  0  0
   -0.6269   21.9236  -24.2720 C   0  0  0  0  0  0  0  0  0  0  0  0
   -1.7449   22.3202  -24.8966 N   0  0  0  0  0  0  0  0  0  0  0  0
    0.5588   20.8267  -20.8739 C   0  0  0  0  0  0  0  0  0  0  0  0
    0.5227   19.5360  -20.3914 C   0  0  0  0  0  0  0  0  0  0  0  0
    0.5581   19.6317  -19.0289 N   0  0  0  0  0  0  0  0  0  0  0  0
    0.6131   20.9015  -18.6569 N   0  0  0  0  0  0  0  0  0  0  0  0
    0.6624   21.4429  -17.3185 C   0  0  0  0  0  0  0  0  0  0  0  0
    0.6142   21.6527  -19.7717 C   0  0  0  0  0  0  0  0  0  0  0  0
   -5.9441   22.7467  -24.5228 C   0  0  0  0  0  0  0  0  0  0  0  0
   -6.2844   24.0814  -24.3425 C   0  0  0  0  0  0  0  0  0  0  0  0
   -5.5452   25.0590  -24.9727 C   0  0  0  0  0  0  0  0  0  0  0  0
   -4.4658   24.7001  -25.7838 C   0  0  0  0  0  0  0  0  0  0  0  0
   -4.1201   23.3769  -25.9687 C   0  0  0  0  0  0  0  0  0  0  0  0
   -4.8655   22.4051  -25.3329 C   0  0  0  0  0  0  0  0  0  0  0  0
   -6.9283   21.7674  -22.5111 C   0  0  0  0  0  0  0  0  0  0  0  0
   -6.6969   21.7719  -23.8836 O   0  0  0  0  0  0  0  0  0  0  0  0
   -5.8251   26.3925  -24.8390 O   0  0  0  0  0  0  0  0  0  0  0  0
   -5.1641   27.4366  -25.4806 C   0  0  0  0  0  0  0  0  0  0  0  0
   -3.1921   23.2022  -28.2407 C   0  0  0  0  0  0  0  0  0  0  0  0
   -4.3893   23.9798  -28.6734 C   0  0  0  0  0  0  0  0  0  0  0  0
   -4.0166   25.3422  -29.2410 C   0  0  0  0  0  0  0  0  0  0  0  0
   -4.6039   25.3130  -30.6454 C   0  0  0  0  0  0  0  0  0  0  0  0
   -5.7534   24.3156  -30.3932 C   0  0  0  0  0  0  0  0  0  0  0  0
   -5.0566   23.3181  -29.7327 O   0  0  0  0  0  0  0  0  0  0  0  0
 24 25  1  0  0  0
 25 18  1  0  0  0
 18 19  2  0  0  0
 19 20  1  0  0  0
 20 26  1  0  0  0
 26 27  1  0  0  0
 20 21  2  0  0  0
 21 22  1  0  0  0
 22 23  2  0  0  0
 22  1  1  0  0  0
  1 28  1  0  0  0
 28 29  1  0  0  0
 29 30  1  0  0  0
 30 31  1  0  0  0
 31 32  1  0  0  0
 32 33  1  0  0  0
  1  2  1  0  0  0
  2  3  2  0  0  0
  3  4  1  0  0  0
  4  5  2  0  0  0
  5  6  1  0  0  0
  6  7  2  0  0  0
  7  8  1  0  0  0
  8  9  2  0  0  0
  9 10  1  0  0  0
 10 11  2  0  0  0
  8 12  1  0  0  0
 12 13  1  0  0  0
 13 14  2  0  0  0
 14 15  1  0  0  0
 15 16  1  0  0  0
 15 17  1  0  0  0
 23 18  1  0  0  0
 33 29  1  0  0  0
 11  2  1  0  0  0
 17 12  2  0  0  0
 10  5  1  0  0  0
M  END
> <minimizedAffinity>
-8.68507

> <CNNscore>
0.3064002097

> <CNNaffinity>
6.8860840797

> <CNN_VS>
2.1098976135

> <CNNaffinity_variance>
0.1385890245

$$$$
[H]C([H])=C([H])C(=O)N1C([H])([H])C([H])([H])N(C([H])([H])C([H])([H])C([H])([H])n2c(=O)c(-c3c([H])c(OC([H])([H])[H])c([H])c(OC([H])([H])[H])c3Cl)c([H])c3c([H])nc(N([H])[C@]4([H])C([H])([H])OC([H])([H])C4([H])[H])nc32)C([H])([H])C1([H])[H]


 42 46  0  0  0  0  0  0  0  0999 V2000
   -1.3170   21.4856  -23.0919 C   0  0  0  0  0  0  0  0  0  0  0  0
   -0.6336   21.8733  -24.2137 C   0  0  0  0  0  0  0  0  0  0  0  0
   -1.2590   22.2087  -25.3986 C   0  0  0  0  0  0  0  0  0  0  0  0
   -0.5768   22.5830  -26.5346 C   0  0  0  0  0  0  0  0  0  0  0  0
   -1.2891   22.8699  -27.6323 N   0  0  0  0  0  0  0  0  0  0  0  0
   -2.6259   22.8103  -27.6733 C   0  0  0  0  0  0  0  0  0  0  0  0
   -3.2851   22.4394  -26.5347 N   0  0  0  0  0  0  0  0  0  0  0  0
   -2.6457   22.1412  -25.4123 C   0  0  0  0  0  0  0  0  0  0  0  0
   -3.3579   21.7599  -24.3029 N   0  0  0  0  0  0  0  0  0  0  0  0
   -2.7194   21.4396  -23.1809 C   0  0  0  0  0  0  0  0  0  0  0  0
   -3.2865   21.0689  -22.1264 O   0  0  0  0  0  0  0  0  0  0  0  0
    0.5769   19.3813  -20.5836 C   0  0  0  0  0  0  0  0  0  0  0  0
    0.6676   20.2584  -19.5266 C   0  0  0  0  0  0  0  0  0  0  0  0
    0.1206   21.5468  -19.5784 C   0  0  0  0  0  0  0  0  0  0  0  0
   -0.5251   21.9122  -20.7521 C   0  0  0  0  0  0  0  0  0  0  0  0
   -1.2226   23.5288  -20.8502 Cl  0  0  0  0  0  0  0  0  0  0  0  0
   -0.6519   21.0870  -21.8408 C   0  0  0  0  0  0  0  0  0  0  0  0
   -0.0866   19.8303  -21.7143 C   0  0  0  0  0  0  0  0  0  0  0  0
    0.7312   17.2543  -19.4657 C   0  0  0  0  0  0  0  0  0  0  0  0
    1.1282   18.1170  -20.5051 O   0  0  0  0  0  0  0  0  0  0  0  0
    0.2051   22.4291  -18.5245 O   0  0  0  0  0  0  0  0  0  0  0  0
    1.3872   23.1624  -18.3257 C   0  0  0  0  0  0  0  0  0  0  0  0
   -3.3488   23.0841  -28.8396 N   0  0  0  0  0  0  0  0  0  0  0  0
   -2.9589   22.7937  -29.7675 H   0  0  0  0  0  0  0  0  0  0  0  0
   -4.6186   23.7530  -28.8099 C   0  0  0  0  0  0  0  0  0  0  0  0
   -4.4279   25.2443  -29.0188 C   0  0  0  0  0  0  0  0  0  0  0  0
   -4.6630   25.3826  -30.5212 C   0  0  0  0  0  0  0  0  0  0  0  0
   -5.7565   24.5274  -30.7061 O   0  0  0  0  0  0  0  0  0  0  0  0
   -5.4624   23.3632  -30.0187 C   0  0  0  0  0  0  0  0  0  0  0  0
   -4.8101   21.7286  -24.4166 C   0  0  0  0  0  0  0  0  0  0  0  0
   -5.4562   22.8073  -23.6205 C   0  0  0  0  0  0  0  0  0  0  0  0
   -5.6444   24.1399  -24.2386 C   0  0  0  0  0  0  0  0  0  0  0  0
   -5.9733   25.1495  -23.2965 N   0  0  0  0  0  0  0  0  0  0  0  0
   -6.0097   24.7334  -21.9438 C   0  0  0  0  0  0  0  0  0  0  0  0
   -7.3146   24.6989  -21.2389 C   0  0  0  0  0  0  0  0  0  0  0  0
   -8.5069   24.9406  -21.9529 N   0  0  0  0  0  0  0  0  0  0  0  0
   -8.3975   25.2905  -23.3893 C   0  0  0  0  0  0  0  0  0  0  0  0
   -7.1063   25.9605  -23.6791 C   0  0  0  0  0  0  0  0  0  0  0  0
   -9.7887   24.8764  -21.3919 C   0  0  0  0  0  0  0  0  0  0  0  0
  -10.7372   25.1415  -22.2597 O   0  0  0  0  0  0  0  0  0  0  0  0
  -10.2172   24.5817  -20.0787 C   0  0  0  0  0  0  0  0  0  0  0  0
  -10.5857   23.4709  -19.5120 C   0  0  0  0  0  0  0  0  0  0  0  0
 19 20  1  0  0  0
 20 12  1  0  0  0
 12 13  2  0  0  0
 13 14  1  0  0  0
 14 21  1  0  0  0
 21 22  1  0  0  0
 14 15  2  0  0  0
 15 16  1  0  0  0
 15 17  1  0  0  0
 17 18  2  0  0  0
 17  1  1  0  0  0
  1  2  2  0  0  0
  2  3  1  0  0  0
  3  4  2  0  0  0
  4  5  1  0  0  0
  5  6  2  0  0  0
  6 23  1  0  0  0
 23 25  1  0  0  0
 25 26  1  0  0  0
 26 27  1  0  0  0
 27 28  1  0  0  0
 28 29  1  0  0  0
  6  7  1  0  0  0
  7  8  2  0  0  0
  8  9  1  0  0  0
  9 30  1  0  0  0
 30 31  1  0  0  0
 31 32  1  0  0  0
 32 33  1  0  0  0
 33 34  1  0  0  0
 34 35  1  0  0  0
 35 36  1  0  0  0
 36 37  1  0  0  0
 37 38  1  0  0  0
 36 39  1  0  0  0
 39 40  2  0  0  0
 39 41  1  0  0  0
 41 42  2  0  0  0
  9 10  1  0  0  0
 10 11  2  0  0  0
 18 12  1  0  0  0
 10  1  1  0  0  0
  8  3  1  0  0  0
 38 33  1  0  0  0
 29 25  1  0  0  0
 23 24  1  0  0  0
M  END
> <minimizedAffinity>
-8.16732

> <CNNscore>
0.1801133305

> <CNNaffinity>
7.4660301208

> <CNN_VS>
1.3447315693

> <CNNaffinity_variance>
0.2107206285

$$$$
[H]C([H])=C([H])C(=O)N1C([H])([H])C([H])([H])N(C([H])([H])C([H])([H])C([H])([H])n2c(=O)c(-c3c([H])c(OC([H])([H])[H])c([H])c(OC([H])([H])[H])c3Cl)c([H])c3c([H])nc(N([H])[C@]4([H])C([H])([H])OC([H])([H])C4([H])[H])nc32)C([H])([H])C1([H])[H]


 42 46  0  0  0  0  0  0  0  0999 V2000
   -2.5672   22.3576  -24.1198 C   0  0  0  0  0  0  0  0  0  0  0  0
   -1.3550   22.2449  -24.7472 C   0  0  0  0  0  0  0  0  0  0  0  0
   -0.2082   21.8265  -24.1011 C   0  0  0  0  0  0  0  0  0  0  0  0
    1.0167   21.7273  -24.7222 C   0  0  0  0  0  0  0  0  0  0  0  0
    2.0643   21.3258  -23.9901 N   0  0  0  0  0  0  0  0  0  0  0  0
    1.9736   21.0179  -22.6903 C   0  0  0  0  0  0  0  0  0  0  0  0
    0.7487   21.1202  -22.0925 N   0  0  0  0  0  0  0  0  0  0  0  0
   -0.3314   21.5107  -22.7547 C   0  0  0  0  0  0  0  0  0  0  0  0
   -1.5334   21.6101  -22.0999 N   0  0  0  0  0  0  0  0  0  0  0  0
   -2.6152   22.0217  -22.7553 C   0  0  0  0  0  0  0  0  0  0  0  0
   -3.7481   22.1544  -22.2360 O   0  0  0  0  0  0  0  0  0  0  0  0
   -6.0024   23.8610  -24.6150 C   0  0  0  0  0  0  0  0  0  0  0  0
   -6.1034   23.8286  -25.9874 C   0  0  0  0  0  0  0  0  0  0  0  0
   -5.0810   23.3188  -26.7978 C   0  0  0  0  0  0  0  0  0  0  0  0
   -3.9456   22.8414  -26.1569 C   0  0  0  0  0  0  0  0  0  0  0  0
   -2.6389   22.1953  -27.1492 Cl  0  0  0  0  0  0  0  0  0  0  0  0
   -3.7817   22.8434  -24.7947 C   0  0  0  0  0  0  0  0  0  0  0  0
   -4.8343   23.3620  -24.0612 C   0  0  0  0  0  0  0  0  0  0  0  0
   -7.2943   23.7963  -22.5841 C   0  0  0  0  0  0  0  0  0  0  0  0
   -7.0262   24.3719  -23.8406 O   0  0  0  0  0  0  0  0  0  0  0  0
   -5.1754   23.2807  -28.1711 O   0  0  0  0  0  0  0  0  0  0  0  0
   -4.9978   24.4612  -28.9126 C   0  0  0  0  0  0  0  0  0  0  0  0
    3.0871   20.6306  -21.9367 N   0  0  0  0  0  0  0  0  0  0  0  0
    3.9596   21.2093  -21.9718 H   0  0  0  0  0  0  0  0  0  0  0  0
    3.0760   19.4588  -21.1075 C   0  0  0  0  0  0  0  0  0  0  0  0
    3.4246   18.2329  -21.9318 C   0  0  0  0  0  0  0  0  0  0  0  0
    4.9248   18.1019  -21.6790 C   0  0  0  0  0  0  0  0  0  0  0  0
    4.9958   18.3792  -20.3081 O   0  0  0  0  0  0  0  0  0  0  0  0
    4.2162   19.5025  -20.0960 C   0  0  0  0  0  0  0  0  0  0  0  0
   -1.5603   21.2480  -20.6890 C   0  0  0  0  0  0  0  0  0  0  0  0
   -1.6271   22.4442  -19.8063 C   0  0  0  0  0  0  0  0  0  0  0  0
   -0.3655   23.0402  -19.3097 C   0  0  0  0  0  0  0  0  0  0  0  0
    0.5116   22.0858  -18.7311 N   0  0  0  0  0  0  0  0  0  0  0  0
    0.2165   21.7158  -17.3968 C   0  0  0  0  0  0  0  0  0  0  0  0
    1.1507   22.1195  -16.3173 C   0  0  0  0  0  0  0  0  0  0  0  0
    2.2329   22.9766  -16.6071 N   0  0  0  0  0  0  0  0  0  0  0  0
    2.4324   23.3913  -18.0163 C   0  0  0  0  0  0  0  0  0  0  0  0
    1.9114   22.3666  -18.9537 C   0  0  0  0  0  0  0  0  0  0  0  0
    3.1354   23.4582  -15.6503 C   0  0  0  0  0  0  0  0  0  0  0  0
    4.0550   24.2395  -16.1669 O   0  0  0  0  0  0  0  0  0  0  0  0
    3.2167   23.2457  -14.2563 C   0  0  0  0  0  0  0  0  0  0  0  0
    2.5347   23.7300  -13.2607 C   0  0  0  0  0  0  0  0  0  0  0  0
 19 20  1  0  0  0
 20 12  1  0  0  0
 12 13  2  0  0  0
 13 14  1  0  0  0
 14 21  1  0  0  0
 21 22  1  0  0  0
 14 15  2  0  0  0
 15 16  1  0  0  0
 15 17  1  0  0  0
 17 18  2  0  0  0
 17  1  1  0  0  0
  1  2  2  0  0  0
  2  3  1  0  0  0
  3  4  2  0  0  0
  4  5  1  0  0  0
  5  6  2  0  0  0
  6 23  1  0  0  0
 23 25  1  0  0  0
 25 26  1  0  0  0
 26 27  1  0  0  0
 27 28  1  0  0  0
 28 29  1  0  0  0
  6  7  1  0  0  0
  7  8  2  0  0  0
  8  9  1  0  0  0
  9 30  1  0  0  0
 30 31  1  0  0  0
 31 32  1  0  0  0
 32 33  1  0  0  0
 33 34  1  0  0  0
 34 35  1  0  0  0
 35 36  1  0  0  0
 36 37  1  0  0  0
 37 38  1  0  0  0
 36 39  1  0  0  0
 39 40  2  0  0  0
 39 41  1  0  0  0
 41 42  2  0  0  0
  9 10  1  0  0  0
 10 11  2  0  0  0
 18 12  1  0  0  0
 10  1  1  0  0  0
  8  3  1  0  0  0
 38 33  1  0  0  0
 29 25  1  0  0  0
 23 24  1  0  0  0
M  END
> <minimizedAffinity>
-7.66525

> <CNNscore>
0.1644445956

> <CNNaffinity>
6.7570190430

> <CNN_VS>
1.1111552715

> <CNNaffinity_variance>
0.1571301222

$$$$
[H]C([H])=C([H])C(=O)N1C([H])([H])C([H])([H])N(C([H])([H])C([H])([H])C([H])([H])n2c(=O)c(-c3c([H])c(OC([H])([H])[H])c([H])c(OC([H])([H])[H])c3Cl)c([H])c3c([H])nc(N([H])[C@]4([H])C([H])([H])OC([H])([H])C4([H])[H])nc32)C([H])([H])C1([H])[H]


 42 46  0  0  0  0  0  0  0  0999 V2000
   -1.3874   21.5595  -23.1331 C   0  0  0  0  0  0  0  0  0  0  0  0
   -0.6731   21.8728  -24.2589 C   0  0  0  0  0  0  0  0  0  0  0  0
   -1.2672   22.2493  -25.4475 C   0  0  0  0  0  0  0  0  0  0  0  0
   -0.5553   22.5492  -26.5874 C   0  0  0  0  0  0  0  0  0  0  0  0
   -1.2401   22.8860  -27.6884 N   0  0  0  0  0  0  0  0  0  0  0  0
   -2.5770   22.9446  -27.7290 C   0  0  0  0  0  0  0  0  0  0  0  0
   -3.2657   22.6460  -26.5867 N   0  0  0  0  0  0  0  0  0  0  0  0
   -2.6544   22.3047  -25.4609 C   0  0  0  0  0  0  0  0  0  0  0  0
   -3.3968   22.0001  -24.3476 N   0  0  0  0  0  0  0  0  0  0  0  0
   -2.7884   21.6368  -23.2220 C   0  0  0  0  0  0  0  0  0  0  0  0
   -3.3853   21.3294  -22.1636 O   0  0  0  0  0  0  0  0  0  0  0  0
    0.4358   19.3696  -20.6456 C   0  0  0  0  0  0  0  0  0  0  0  0
    0.4920   20.2082  -19.5555 C   0  0  0  0  0  0  0  0  0  0  0  0
   -0.0570   21.4967  -19.5776 C   0  0  0  0  0  0  0  0  0  0  0  0
   -0.6679   21.9029  -20.7564 C   0  0  0  0  0  0  0  0  0  0  0  0
   -1.3667   23.5208  -20.8176 Cl  0  0  0  0  0  0  0  0  0  0  0  0
   -0.7592   21.1172  -21.8775 C   0  0  0  0  0  0  0  0  0  0  0  0
   -0.1944   19.8578  -21.7791 C   0  0  0  0  0  0  0  0  0  0  0  0
    0.1392   16.9816  -20.5609 C   0  0  0  0  0  0  0  0  0  0  0  0
    0.9881   18.1043  -20.5959 O   0  0  0  0  0  0  0  0  0  0  0  0
   -0.0069   22.3406  -18.4906 O   0  0  0  0  0  0  0  0  0  0  0  0
   -0.1164   21.8103  -17.1939 C   0  0  0  0  0  0  0  0  0  0  0  0
   -3.2736   23.2685  -28.8985 N   0  0  0  0  0  0  0  0  0  0  0  0
   -2.8543   23.0347  -29.8296 H   0  0  0  0  0  0  0  0  0  0  0  0
   -4.5555   23.9139  -28.8681 C   0  0  0  0  0  0  0  0  0  0  0  0
   -4.4040   25.3907  -29.1845 C   0  0  0  0  0  0  0  0  0  0  0  0
   -4.6945   25.4211  -30.6833 C   0  0  0  0  0  0  0  0  0  0  0  0
   -5.7755   24.5348  -30.7698 O   0  0  0  0  0  0  0  0  0  0  0  0
   -5.4328   23.4263  -30.0160 C   0  0  0  0  0  0  0  0  0  0  0  0
   -4.8461   22.0963  -24.4613 C   0  0  0  0  0  0  0  0  0  0  0  0
   -5.3432   23.4596  -24.1312 C   0  0  0  0  0  0  0  0  0  0  0  0
   -6.7746   23.6393  -23.7961 C   0  0  0  0  0  0  0  0  0  0  0  0
   -6.9881   24.0021  -22.4405 N   0  0  0  0  0  0  0  0  0  0  0  0
   -5.8175   24.2436  -21.6818 C   0  0  0  0  0  0  0  0  0  0  0  0
   -5.4616   23.3013  -20.5926 C   0  0  0  0  0  0  0  0  0  0  0  0
   -6.2034   22.1143  -20.4186 N   0  0  0  0  0  0  0  0  0  0  0  0
   -7.3693   21.8875  -21.3057 C   0  0  0  0  0  0  0  0  0  0  0  0
   -7.9548   23.1731  -21.7578 C   0  0  0  0  0  0  0  0  0  0  0  0
   -5.9134   21.1368  -19.4582 C   0  0  0  0  0  0  0  0  0  0  0  0
   -6.7487   20.1250  -19.4944 O   0  0  0  0  0  0  0  0  0  0  0  0
   -4.8959   21.0637  -18.4812 C   0  0  0  0  0  0  0  0  0  0  0  0
   -3.6272   20.7911  -18.5645 C   0  0  0  0  0  0  0  0  0  0  0  0
 19 20  1  0  0  0
 20 12  1  0  0  0
 12 13  2  0  0  0
 13 14  1  0  0  0
 14 21  1  0  0  0
 21 22  1  0  0  0
 14 15  2  0  0  0
 15 16  1  0  0  0
 15 17  1  0  0  0
 17 18  2  0  0  0
 17  1  1  0  0  0
  1  2  2  0  0  0
  2  3  1  0  0  0
  3  4  2  0  0  0
  4  5  1  0  0  0
  5  6  2  0  0  0
  6 23  1  0  0  0
 23 25  1  0  0  0
 25 26  1  0  0  0
 26 27  1  0  0  0
 27 28  1  0  0  0
 28 29  1  0  0  0
  6  7  1  0  0  0
  7  8  2  0  0  0
  8  9  1  0  0  0
  9 30  1  0  0  0
 30 31  1  0  0  0
 31 32  1  0  0  0
 32 33  1  0  0  0
 33 34  1  0  0  0
 34 35  1  0  0  0
 35 36  1  0  0  0
 36 37  1  0  0  0
 37 38  1  0  0  0
 36 39  1  0  0  0
 39 40  2  0  0  0
 39 41  1  0  0  0
 41 42  2  0  0  0
  9 10  1  0  0  0
 10 11  2  0  0  0
 18 12  1  0  0  0
 10  1  1  0  0  0
  8  3  1  0  0  0
 38 33  1  0  0  0
 29 25  1  0  0  0
 23 24  1  0  0  0
M  END
> <minimizedAffinity>
-8.11081

> <CNNscore>
0.1548142135

> <CNNaffinity>
7.4813079834

> <CNN_VS>
1.1582127810

> <CNNaffinity_variance>
0.0901470929

$$$$
[H]C([H])=C([H])C(=O)N1C([H])([H])C([H])([H])N(C([H])([H])C([H])([H])C([H])([H])n2c(=O)c(-c3c([H])c(OC([H])([H])[H])c([H])c(OC([H])([H])[H])c3Cl)c([H])c3c([H])nc(N([H])[C@]4([H])C([H])([H])OC([H])([H])C4([H])[H])nc32)C([H])([H])C1([H])[H]


 42 46  0  0  0  0  0  0  0  0999 V2000
    0.0594   21.3891  -21.6916 C   0  0  0  0  0  0  0  0  0  0  0  0
    0.4793   21.4704  -22.9927 C   0  0  0  0  0  0  0  0  0  0  0  0
   -0.3600   21.8114  -24.0353 C   0  0  0  0  0  0  0  0  0  0  0  0
    0.0522   21.8784  -25.3474 C   0  0  0  0  0  0  0  0  0  0  0  0
   -0.8553   22.2036  -26.2777 N   0  0  0  0  0  0  0  0  0  0  0  0
   -2.1363   22.4656  -25.9901 C   0  0  0  0  0  0  0  0  0  0  0  0
   -2.5254   22.3964  -24.6816 N   0  0  0  0  0  0  0  0  0  0  0  0
   -1.6822   22.0809  -23.7084 C   0  0  0  0  0  0  0  0  0  0  0  0
   -2.1312   22.0113  -22.4135 N   0  0  0  0  0  0  0  0  0  0  0  0
   -1.2935   21.6746  -21.4368 C   0  0  0  0  0  0  0  0  0  0  0  0
   -1.6185   21.5739  -20.2305 O   0  0  0  0  0  0  0  0  0  0  0  0
    2.5018   21.6421  -18.8145 C   0  0  0  0  0  0  0  0  0  0  0  0
    2.6022   20.3202  -18.4438 C   0  0  0  0  0  0  0  0  0  0  0  0
    1.8992   19.3054  -19.1053 C   0  0  0  0  0  0  0  0  0  0  0  0
    1.0850   19.6872  -20.1633 C   0  0  0  0  0  0  0  0  0  0  0  0
    0.1843   18.4334  -21.0155 Cl  0  0  0  0  0  0  0  0  0  0  0  0
    0.9410   20.9851  -20.5843 C   0  0  0  0  0  0  0  0  0  0  0  0
    1.6673   21.9310  -19.8824 C   0  0  0  0  0  0  0  0  0  0  0  0
    2.8087   22.9878  -16.8416 C   0  0  0  0  0  0  0  0  0  0  0  0
    3.2055   22.6225  -18.1421 O   0  0  0  0  0  0  0  0  0  0  0  0
    1.9961   17.9806  -18.7420 O   0  0  0  0  0  0  0  0  0  0  0  0
    3.1266   17.2372  -19.1217 C   0  0  0  0  0  0  0  0  0  0  0  0
   -3.0749   22.7729  -26.9812 N   0  0  0  0  0  0  0  0  0  0  0  0
   -3.1444   22.1648  -27.8314 H   0  0  0  0  0  0  0  0  0  0  0  0
   -3.9560   23.9010  -26.8730 C   0  0  0  0  0  0  0  0  0  0  0  0
   -4.1650   24.5328  -28.2372 C   0  0  0  0  0  0  0  0  0  0  0  0
   -5.4628   23.8701  -28.6936 C   0  0  0  0  0  0  0  0  0  0  0  0
   -6.2109   23.8911  -27.5099 O   0  0  0  0  0  0  0  0  0  0  0  0
   -5.3661   23.4514  -26.5062 C   0  0  0  0  0  0  0  0  0  0  0  0
   -3.5345   22.3203  -22.1729 C   0  0  0  0  0  0  0  0  0  0  0  0
   -3.7373   23.7482  -21.8061 C   0  0  0  0  0  0  0  0  0  0  0  0
   -4.4904   24.6262  -22.7311 C   0  0  0  0  0  0  0  0  0  0  0  0
   -5.7782   24.9731  -22.2452 N   0  0  0  0  0  0  0  0  0  0  0  0
   -5.9397   24.9035  -20.8404 C   0  0  0  0  0  0  0  0  0  0  0  0
   -6.8280   23.8604  -20.2714 C   0  0  0  0  0  0  0  0  0  0  0  0
   -7.3829   22.8732  -21.1124 N   0  0  0  0  0  0  0  0  0  0  0  0
   -7.1029   22.9613  -22.5655 C   0  0  0  0  0  0  0  0  0  0  0  0
   -6.8642   24.3655  -22.9795 C   0  0  0  0  0  0  0  0  0  0  0  0
   -8.1861   21.8167  -20.6647 C   0  0  0  0  0  0  0  0  0  0  0  0
   -8.5808   21.0301  -21.6386 O   0  0  0  0  0  0  0  0  0  0  0  0
   -8.6307   21.4682  -19.3701 C   0  0  0  0  0  0  0  0  0  0  0  0
   -9.6800   21.8182  -18.6865 C   0  0  0  0  0  0  0  0  0  0  0  0
 19 20  1  0  0  0
 20 12  1  0  0  0
 12 13  2  0  0  0
 13 14  1  0  0  0
 14 21  1  0  0  0
 21 22  1  0  0  0
 14 15  2  0  0  0
 15 16  1  0  0  0
 15 17  1  0  0  0
 17 18  2  0  0  0
 17  1  1  0  0  0
  1  2  2  0  0  0
  2  3  1  0  0  0
  3  4  2  0  0  0
  4  5  1  0  0  0
  5  6  2  0  0  0
  6 23  1  0  0  0
 23 25  1  0  0  0
 25 26  1  0  0  0
 26 27  1  0  0  0
 27 28  1  0  0  0
 28 29  1  0  0  0
  6  7  1  0  0  0
  7  8  2  0  0  0
  8  9  1  0  0  0
  9 30  1  0  0  0
 30 31  1  0  0  0
 31 32  1  0  0  0
 32 33  1  0  0  0
 33 34  1  0  0  0
 34 35  1  0  0  0
 35 36  1  0  0  0
 36 37  1  0  0  0
 37 38  1  0  0  0
 36 39  1  0  0  0
 39 40  2  0  0  0
 39 41  1  0  0  0
 41 42  2  0  0  0
  9 10  1  0  0  0
 10 11  2  0  0  0
 18 12  1  0  0  0
 10  1  1  0  0  0
  8  3  1  0  0  0
 38 33  1  0  0  0
 29 25  1  0  0  0
 23 24  1  0  0  0
M  END
> <minimizedAffinity>
-7.38274

> <CNNscore>
0.1481811106

> <CNNaffinity>
7.1516060829

> <CNN_VS>
1.0597329140

> <CNNaffinity_variance>
0.1811083257

$$$$
[H]C([H])=C([H])C(=O)N1C([H])([H])C([H])([H])N(C([H])([H])C([H])([H])C([H])([H])n2c(=O)c(-c3c([H])c(OC([H])([H])[H])c([H])c(OC([H])([H])[H])c3Cl)c([H])c3c([H])nc(N([H])[C@]4([H])C([H])([H])OC([H])([H])C4([H])[H])nc32)C([H])([H])C1([H])[H]


 42 46  0  0  0  0  0  0  0  0999 V2000
   -2.7938   23.2101  -25.3881 C   0  0  0  0  0  0  0  0  0  0  0  0
   -1.4476   22.9933  -25.5169 C   0  0  0  0  0  0  0  0  0  0  0  0
   -0.6958   22.3357  -24.5631 C   0  0  0  0  0  0  0  0  0  0  0  0
    0.6607   22.1295  -24.6790 C   0  0  0  0  0  0  0  0  0  0  0  0
    1.2895   21.4931  -23.6818 N   0  0  0  0  0  0  0  0  0  0  0  0
    0.6614   21.0508  -22.5853 C   0  0  0  0  0  0  0  0  0  0  0  0
   -0.6856   21.2627  -22.4900 N   0  0  0  0  0  0  0  0  0  0  0  0
   -1.3727   21.8849  -23.4377 C   0  0  0  0  0  0  0  0  0  0  0  0
   -2.7216   22.0840  -23.2824 N   0  0  0  0  0  0  0  0  0  0  0  0
   -3.4111   22.7263  -24.2211 C   0  0  0  0  0  0  0  0  0  0  0  0
   -4.6401   22.9637  -24.1572 O   0  0  0  0  0  0  0  0  0  0  0  0
   -4.9593   25.9054  -26.9219 C   0  0  0  0  0  0  0  0  0  0  0  0
   -5.0813   25.4368  -28.2104 C   0  0  0  0  0  0  0  0  0  0  0  0
   -4.4823   24.2417  -28.6285 C   0  0  0  0  0  0  0  0  0  0  0  0
   -3.7498   23.5374  -27.6822 C   0  0  0  0  0  0  0  0  0  0  0  0
   -2.9808   22.0299  -28.1775 Cl  0  0  0  0  0  0  0  0  0  0  0  0
   -3.5899   23.9474  -26.3826 C   0  0  0  0  0  0  0  0  0  0  0  0
   -4.2113   25.1367  -26.0444 C   0  0  0  0  0  0  0  0  0  0  0  0
   -5.5598   27.4535  -25.1782 C   0  0  0  0  0  0  0  0  0  0  0  0
   -5.5594   27.0891  -26.5381 O   0  0  0  0  0  0  0  0  0  0  0  0
   -4.6016   23.7651  -29.9149 O   0  0  0  0  0  0  0  0  0  0  0  0
   -5.6338   24.2433  -30.7399 C   0  0  0  0  0  0  0  0  0  0  0  0
    1.3429   20.4160  -21.5411 N   0  0  0  0  0  0  0  0  0  0  0  0
    2.1038   19.7312  -21.7636 H   0  0  0  0  0  0  0  0  0  0  0  0
    1.0355   20.6734  -20.1627 C   0  0  0  0  0  0  0  0  0  0  0  0
    1.2478   19.4174  -19.3373 C   0  0  0  0  0  0  0  0  0  0  0  0
    2.6652   19.6259  -18.8088 C   0  0  0  0  0  0  0  0  0  0  0  0
    2.6366   20.9872  -18.4809 O   0  0  0  0  0  0  0  0  0  0  0  0
    2.0502   21.6350  -19.5538 C   0  0  0  0  0  0  0  0  0  0  0  0
   -3.3405   21.5658  -22.0695 C   0  0  0  0  0  0  0  0  0  0  0  0
   -3.6323   22.6442  -21.0865 C   0  0  0  0  0  0  0  0  0  0  0  0
   -4.9981   22.7513  -20.5239 C   0  0  0  0  0  0  0  0  0  0  0  0
   -5.4052   24.0928  -20.3011 N   0  0  0  0  0  0  0  0  0  0  0  0
   -6.4319   24.2679  -19.3422 C   0  0  0  0  0  0  0  0  0  0  0  0
   -7.7673   24.7272  -19.7970 C   0  0  0  0  0  0  0  0  0  0  0  0
   -8.0384   24.8467  -21.1761 N   0  0  0  0  0  0  0  0  0  0  0  0
   -6.9365   24.5668  -22.1274 C   0  0  0  0  0  0  0  0  0  0  0  0
   -5.6161   24.8496  -21.5138 C   0  0  0  0  0  0  0  0  0  0  0  0
   -9.2807   25.2178  -21.7061 C   0  0  0  0  0  0  0  0  0  0  0  0
   -9.2821   25.2578  -23.0181 O   0  0  0  0  0  0  0  0  0  0  0  0
  -10.5010   25.5485  -21.0763 C   0  0  0  0  0  0  0  0  0  0  0  0
  -10.9233   26.6440  -20.5177 C   0  0  0  0  0  0  0  0  0  0  0  0
 19 20  1  0  0  0
 20 12  1  0  0  0
 12 13  2  0  0  0
 13 14  1  0  0  0
 14 21  1  0  0  0
 21 22  1  0  0  0
 14 15  2  0  0  0
 15 16  1  0  0  0
 15 17  1  0  0  0
 17 18  2  0  0  0
 17  1  1  0  0  0
  1  2  2  0  0  0
  2  3  1  0  0  0
  3  4  2  0  0  0
  4  5  1  0  0  0
  5  6  2  0  0  0
  6 23  1  0  0  0
 23 25  1  0  0  0
 25 26  1  0  0  0
 26 27  1  0  0  0
 27 28  1  0  0  0
 28 29  1  0  0  0
  6  7  1  0  0  0
  7  8  2  0  0  0
  8  9  1  0  0  0
  9 30  1  0  0  0
 30 31  1  0  0  0
 31 32  1  0  0  0
 32 33  1  0  0  0
 33 34  1  0  0  0
 34 35  1  0  0  0
 35 36  1  0  0  0
 36 37  1  0  0  0
 37 38  1  0  0  0
 36 39  1  0  0  0
 39 40  2  0  0  0
 39 41  1  0  0  0
 41 42  2  0  0  0
  9 10  1  0  0  0
 10 11  2  0  0  0
 18 12  1  0  0  0
 10  1  1  0  0  0
  8  3  1  0  0  0
 38 33  1  0  0  0
 29 25  1  0  0  0
 23 24  1  0  0  0
M  END
> <minimizedAffinity>
-7.68973

> <CNNscore>
0.1296084523

> <CNNaffinity>
6.9777045250

> <CNN_VS>
0.9043694735

> <CNNaffinity_variance>
0.1973323524

$$$$
[H]C([H])=C([H])C(=O)N1C([H])([H])C([H])([H])N(C([H])([H])C([H])([H])C([H])([H])n2c(=O)c(-c3c([H])c(OC([H])([H])[H])c([H])c(OC([H])([H])[H])c3Cl)c([H])c3c([H])nc(N([H])[C@]4([H])C([H])([H])OC([H])([H])C4([H])[H])nc32)C([H])([H])C1([H])[H]


 42 46  0  0  0  0  0  0  0  0999 V2000
   -1.4901   21.5862  -23.1149 C   0  0  0  0  0  0  0  0  0  0  0  0
   -0.7723   21.9191  -24.2329 C   0  0  0  0  0  0  0  0  0  0  0  0
   -1.3634   22.2706  -25.4306 C   0  0  0  0  0  0  0  0  0  0  0  0
   -0.6475   22.5900  -26.5626 C   0  0  0  0  0  0  0  0  0  0  0  0
   -1.3290   22.8992  -27.6737 N   0  0  0  0  0  0  0  0  0  0  0  0
   -2.6665   22.9124  -27.7316 C   0  0  0  0  0  0  0  0  0  0  0  0
   -3.3593   22.5951  -26.5968 N   0  0  0  0  0  0  0  0  0  0  0  0
   -2.7515   22.2791  -25.4619 C   0  0  0  0  0  0  0  0  0  0  0  0
   -3.4975   21.9539  -24.3568 N   0  0  0  0  0  0  0  0  0  0  0  0
   -2.8917   21.6158  -23.2220 C   0  0  0  0  0  0  0  0  0  0  0  0
   -3.4914   21.2925  -22.1700 O   0  0  0  0  0  0  0  0  0  0  0  0
    0.3308   19.4493  -20.5802 C   0  0  0  0  0  0  0  0  0  0  0  0
    0.3846   20.3102  -19.5074 C   0  0  0  0  0  0  0  0  0  0  0  0
   -0.1653   21.5975  -19.5568 C   0  0  0  0  0  0  0  0  0  0  0  0
   -0.7746   21.9789  -20.7447 C   0  0  0  0  0  0  0  0  0  0  0  0
   -1.4746   23.5946  -20.8401 Cl  0  0  0  0  0  0  0  0  0  0  0  0
   -0.8636   21.1703  -21.8496 C   0  0  0  0  0  0  0  0  0  0  0  0
   -0.2980   19.9136  -21.7245 C   0  0  0  0  0  0  0  0  0  0  0  0
    0.0475   17.0797  -20.2606 C   0  0  0  0  0  0  0  0  0  0  0  0
    0.8840   18.1857  -20.5037 O   0  0  0  0  0  0  0  0  0  0  0  0
   -0.1176   22.4636  -18.4873 O   0  0  0  0  0  0  0  0  0  0  0  0
    0.3893   22.0180  -17.2548 C   0  0  0  0  0  0  0  0  0  0  0  0
   -3.3585   23.2080  -28.9113 N   0  0  0  0  0  0  0  0  0  0  0  0
   -2.9439   22.9357  -29.8339 H   0  0  0  0  0  0  0  0  0  0  0  0
   -4.6294   23.8756  -28.9025 C   0  0  0  0  0  0  0  0  0  0  0  0
   -4.4361   25.3685  -29.0961 C   0  0  0  0  0  0  0  0  0  0  0  0
   -4.6406   25.5180  -30.6020 C   0  0  0  0  0  0  0  0  0  0  0  0
   -5.7293   24.6632  -30.8156 O   0  0  0  0  0  0  0  0  0  0  0  0
   -5.4480   23.4941  -30.1311 C   0  0  0  0  0  0  0  0  0  0  0  0
   -4.9476   22.0007  -24.4894 C   0  0  0  0  0  0  0  0  0  0  0  0
   -5.5074   23.3064  -24.0462 C   0  0  0  0  0  0  0  0  0  0  0  0
   -6.8190   23.3280  -23.3587 C   0  0  0  0  0  0  0  0  0  0  0  0
   -6.7348   22.9727  -21.9870 N   0  0  0  0  0  0  0  0  0  0  0  0
   -7.4707   21.8242  -21.6078 C   0  0  0  0  0  0  0  0  0  0  0  0
   -8.6490   21.9877  -20.7214 C   0  0  0  0  0  0  0  0  0  0  0  0
   -9.1029   23.2803  -20.3853 N   0  0  0  0  0  0  0  0  0  0  0  0
   -8.3290   24.4406  -20.8875 C   0  0  0  0  0  0  0  0  0  0  0  0
   -6.9017   24.0869  -21.0823 C   0  0  0  0  0  0  0  0  0  0  0  0
  -10.2355   23.5396  -19.6032 C   0  0  0  0  0  0  0  0  0  0  0  0
  -10.4514   24.8228  -19.4310 O   0  0  0  0  0  0  0  0  0  0  0  0
  -11.1596   22.6688  -18.9842 C   0  0  0  0  0  0  0  0  0  0  0  0
  -11.1154   22.0036  -17.8679 C   0  0  0  0  0  0  0  0  0  0  0  0
 19 20  1  0  0  0
 20 12  1  0  0  0
 12 13  2  0  0  0
 13 14  1  0  0  0
 14 21  1  0  0  0
 21 22  1  0  0  0
 14 15  2  0  0  0
 15 16  1  0  0  0
 15 17  1  0  0  0
 17 18  2  0  0  0
 17  1  1  0  0  0
  1  2  2  0  0  0
  2  3  1  0  0  0
  3  4  2  0  0  0
  4  5  1  0  0  0
  5  6  2  0  0  0
  6 23  1  0  0  0
 23 25  1  0  0  0
 25 26  1  0  0  0
 26 27  1  0  0  0
 27 28  1  0  0  0
 28 29  1  0  0  0
  6  7  1  0  0  0
  7  8  2  0  0  0
  8  9  1  0  0  0
  9 30  1  0  0  0
 30 31  1  0  0  0
 31 32  1  0  0  0
 32 33  1  0  0  0
 33 34  1  0  0  0
 34 35  1  0  0  0
 35 36  1  0  0  0
 36 37  1  0  0  0
 37 38  1  0  0  0
 36 39  1  0  0  0
 39 40  2  0  0  0
 39 41  1  0  0  0
 41 42  2  0  0  0
  9 10  1  0  0  0
 10 11  2  0  0  0
 18 12  1  0  0  0
 10  1  1  0  0  0
  8  3  1  0  0  0
 38 33  1  0  0  0
 29 25  1  0  0  0
 23 24  1  0  0  0
M  END
> <minimizedAffinity>
-8.33846

> <CNNscore>
0.1110564694

> <CNNaffinity>
7.1608543396

> <CNN_VS>
0.7952591777

> <CNNaffinity_variance>
0.0958895534

$$$$
[H]C([H])=C([H])C(=O)N1C([H])([H])C([H])([H])N(C([H])([H])C([H])([H])C([H])([H])n2c(=O)c(-c3c([H])c(OC([H])([H])[H])c([H])c(OC([H])([H])[H])c3Cl)c([H])c3c([H])nc(N([H])[C@]4([H])C([H])([H])OC([H])([H])C4([H])[H])nc32)C([H])([H])C1([H])[H]


 42 46  0  0  0  0  0  0  0  0999 V2000
   -3.0603   22.9943  -25.1572 C   0  0  0  0  0  0  0  0  0  0  0  0
   -1.7131   22.7965  -25.3042 C   0  0  0  0  0  0  0  0  0  0  0  0
   -0.9339   22.1757  -24.3476 C   0  0  0  0  0  0  0  0  0  0  0  0
    0.4236   21.9890  -24.4821 C   0  0  0  0  0  0  0  0  0  0  0  0
    1.0800   21.3885  -23.4805 N   0  0  0  0  0  0  0  0  0  0  0  0
    0.4785   20.9639  -22.3623 C   0  0  0  0  0  0  0  0  0  0  0  0
   -0.8701   21.1560  -22.2487 N   0  0  0  0  0  0  0  0  0  0  0  0
   -1.5838   21.7426  -23.1995 C   0  0  0  0  0  0  0  0  0  0  0  0
   -2.9330   21.9233  -23.0255 N   0  0  0  0  0  0  0  0  0  0  0  0
   -3.6492   22.5302  -23.9678 C   0  0  0  0  0  0  0  0  0  0  0  0
   -4.8808   22.7488  -23.8882 O   0  0  0  0  0  0  0  0  0  0  0  0
   -5.1315   23.6038  -28.2629 C   0  0  0  0  0  0  0  0  0  0  0  0
   -5.4906   24.9200  -28.0799 C   0  0  0  0  0  0  0  0  0  0  0  0
   -5.0767   25.6568  -26.9629 C   0  0  0  0  0  0  0  0  0  0  0  0
   -4.2802   25.0013  -26.0334 C   0  0  0  0  0  0  0  0  0  0  0  0
   -3.7444   25.9005  -24.6144 Cl  0  0  0  0  0  0  0  0  0  0  0  0
   -3.8857   23.6929  -26.1558 C   0  0  0  0  0  0  0  0  0  0  0  0
   -4.3335   23.0310  -27.2855 C   0  0  0  0  0  0  0  0  0  0  0  0
   -5.6479   23.5600  -30.6143 C   0  0  0  0  0  0  0  0  0  0  0  0
   -5.5566   22.9008  -29.3736 O   0  0  0  0  0  0  0  0  0  0  0  0
   -5.4296   26.9744  -26.7738 O   0  0  0  0  0  0  0  0  0  0  0  0
   -5.9624   27.3803  -25.5384 C   0  0  0  0  0  0  0  0  0  0  0  0
    1.1884   20.3670  -21.3147 N   0  0  0  0  0  0  0  0  0  0  0  0
    2.2317   20.2945  -21.3748 H   0  0  0  0  0  0  0  0  0  0  0  0
    0.5325   19.8475  -20.1482 C   0  0  0  0  0  0  0  0  0  0  0  0
    0.9608   18.4119  -19.9045 C   0  0  0  0  0  0  0  0  0  0  0  0
    2.0907   18.5898  -18.8928 C   0  0  0  0  0  0  0  0  0  0  0  0
    1.5560   19.5788  -18.0577 O   0  0  0  0  0  0  0  0  0  0  0  0
    1.0307   20.5509  -18.8904 C   0  0  0  0  0  0  0  0  0  0  0  0
   -3.5221   21.4259  -21.7894 C   0  0  0  0  0  0  0  0  0  0  0  0
   -3.5720   22.4731  -20.7333 C   0  0  0  0  0  0  0  0  0  0  0  0
   -4.8393   23.2063  -20.5098 C   0  0  0  0  0  0  0  0  0  0  0  0
   -5.0909   23.4789  -19.1396 N   0  0  0  0  0  0  0  0  0  0  0  0
   -5.0163   22.3629  -18.2716 C   0  0  0  0  0  0  0  0  0  0  0  0
   -6.2593   21.8696  -17.6292 C   0  0  0  0  0  0  0  0  0  0  0  0
   -7.5060   22.4193  -17.9941 N   0  0  0  0  0  0  0  0  0  0  0  0
   -7.5146   23.5323  -18.9732 C   0  0  0  0  0  0  0  0  0  0  0  0
   -6.2519   24.3081  -18.9113 C   0  0  0  0  0  0  0  0  0  0  0  0
   -8.7377   21.9851  -17.4877 C   0  0  0  0  0  0  0  0  0  0  0  0
   -9.7541   22.6533  -17.9809 O   0  0  0  0  0  0  0  0  0  0  0  0
   -9.0572   20.9725  -16.5562 C   0  0  0  0  0  0  0  0  0  0  0  0
   -9.1308   19.6791  -16.6677 C   0  0  0  0  0  0  0  0  0  0  0  0
 19 20  1  0  0  0
 20 12  1  0  0  0
 12 13  2  0  0  0
 13 14  1  0  0  0
 14 21  1  0  0  0
 21 22  1  0  0  0
 14 15  2  0  0  0
 15 16  1  0  0  0
 15 17  1  0  0  0
 17 18  2  0  0  0
 17  1  1  0  0  0
  1  2  2  0  0  0
  2  3  1  0  0  0
  3  4  2  0  0  0
  4  5  1  0  0  0
  5  6  2  0  0  0
  6 23  1  0  0  0
 23 25  1  0  0  0
 25 26  1  0  0  0
 26 27  1  0  0  0
 27 28  1  0  0  0
 28 29  1  0  0  0
  6  7  1  0  0  0
  7  8  2  0  0  0
  8  9  1  0  0  0
  9 30  1  0  0  0
 30 31  1  0  0  0
 31 32  1  0  0  0
 32 33  1  0  0  0
 33 34  1  0  0  0
 34 35  1  0  0  0
 35 36  1  0  0  0
 36 37  1  0  0  0
 37 38  1  0  0  0
 36 39  1  0  0  0
 39 40  2  0  0  0
 39 41  1  0  0  0
 41 42  2  0  0  0
  9 10  1  0  0  0
 10 11  2  0  0  0
 18 12  1  0  0  0
 10  1  1  0  0  0
  8  3  1  0  0  0
 38 33  1  0  0  0
 29 25  1  0  0  0
 23 24  1  0  0  0
M  END
> <minimizedAffinity>
-7.21566

> <CNNscore>
0.1068318039

> <CNNaffinity>
6.8977522850

> <CNN_VS>
0.7368993163

> <CNNaffinity_variance>
0.1845274866

$$$$
[H]C([H])=C([H])C(=O)N1C([H])([H])C([H])([H])N(C([H])([H])C([H])([H])C([H])([H])n2c(=O)c(-c3c([H])c(OC([H])([H])[H])c([H])c(OC([H])([H])[H])c3Cl)c([H])c3c([H])nc(N([H])[C@]4([H])C([H])([H])OC([H])([H])C4([H])[H])nc32)C([H])([H])C1([H])[H]


 42 46  0  0  0  0  0  0  0  0999 V2000
   -2.1571   22.6609  -24.1896 C   0  0  0  0  0  0  0  0  0  0  0  0
   -0.8849   22.5195  -24.6767 C   0  0  0  0  0  0  0  0  0  0  0  0
    0.1324   21.9167  -23.9630 C   0  0  0  0  0  0  0  0  0  0  0  0
    1.4174   21.7867  -24.4404 C   0  0  0  0  0  0  0  0  0  0  0  0
    2.3268   21.1986  -23.6518 N   0  0  0  0  0  0  0  0  0  0  0  0
    2.0433   20.7340  -22.4286 C   0  0  0  0  0  0  0  0  0  0  0  0
    0.7615   20.8701  -21.9736 N   0  0  0  0  0  0  0  0  0  0  0  0
   -0.1899   21.4413  -22.6990 C   0  0  0  0  0  0  0  0  0  0  0  0
   -1.4566   21.5651  -22.1857 N   0  0  0  0  0  0  0  0  0  0  0  0
   -2.4090   22.1563  -22.9017 C   0  0  0  0  0  0  0  0  0  0  0  0
   -3.5872   22.3241  -22.5085 O   0  0  0  0  0  0  0  0  0  0  0  0
   -4.7274   23.3779  -26.8703 C   0  0  0  0  0  0  0  0  0  0  0  0
   -5.2964   24.5317  -26.3808 C   0  0  0  0  0  0  0  0  0  0  0  0
   -4.8726   25.1215  -25.1831 C   0  0  0  0  0  0  0  0  0  0  0  0
   -3.8432   24.4901  -24.4977 C   0  0  0  0  0  0  0  0  0  0  0  0
   -3.2881   25.2061  -22.9848 Cl  0  0  0  0  0  0  0  0  0  0  0  0
   -3.2325   23.3402  -24.9303 C   0  0  0  0  0  0  0  0  0  0  0  0
   -3.7051   22.8174  -26.1212 C   0  0  0  0  0  0  0  0  0  0  0  0
   -4.3518   22.8929  -29.1987 C   0  0  0  0  0  0  0  0  0  0  0  0
   -5.1675   22.8171  -28.0537 O   0  0  0  0  0  0  0  0  0  0  0  0
   -5.4351   26.2768  -24.6879 O   0  0  0  0  0  0  0  0  0  0  0  0
   -6.6812   26.2205  -24.0408 C   0  0  0  0  0  0  0  0  0  0  0  0
    3.0159   20.1511  -21.6089 N   0  0  0  0  0  0  0  0  0  0  0  0
    3.9580   20.6016  -21.5267 H   0  0  0  0  0  0  0  0  0  0  0  0
    2.7661   18.9474  -20.8675 C   0  0  0  0  0  0  0  0  0  0  0  0
    3.2711   17.7434  -21.6415 C   0  0  0  0  0  0  0  0  0  0  0  0
    4.6580   17.5409  -21.0355 C   0  0  0  0  0  0  0  0  0  0  0  0
    4.3965   17.7582  -19.6769 O   0  0  0  0  0  0  0  0  0  0  0  0
    3.6221   18.9026  -19.6064 C   0  0  0  0  0  0  0  0  0  0  0  0
   -1.6957   21.0265  -20.8532 C   0  0  0  0  0  0  0  0  0  0  0  0
   -1.8468   22.1013  -19.8351 C   0  0  0  0  0  0  0  0  0  0  0  0
   -0.6317   22.7544  -19.2961 C   0  0  0  0  0  0  0  0  0  0  0  0
    0.2708   21.8401  -18.6923 N   0  0  0  0  0  0  0  0  0  0  0  0
   -0.0056   21.5104  -17.3435 C   0  0  0  0  0  0  0  0  0  0  0  0
    0.9277   21.9718  -16.2867 C   0  0  0  0  0  0  0  0  0  0  0  0
    1.9884   22.8418  -16.6152 N   0  0  0  0  0  0  0  0  0  0  0  0
    2.1677   23.2115  -18.0395 C   0  0  0  0  0  0  0  0  0  0  0  0
    1.6623   22.1436  -18.9364 C   0  0  0  0  0  0  0  0  0  0  0  0
    2.8873   23.3761  -15.6834 C   0  0  0  0  0  0  0  0  0  0  0  0
    3.7853   24.1589  -16.2345 O   0  0  0  0  0  0  0  0  0  0  0  0
    2.9841   23.2141  -14.2835 C   0  0  0  0  0  0  0  0  0  0  0  0
    2.3332   23.7568  -13.2974 C   0  0  0  0  0  0  0  0  0  0  0  0
 19 20  1  0  0  0
 20 12  1  0  0  0
 12 13  2  0  0  0
 13 14  1  0  0  0
 14 21  1  0  0  0
 21 22  1  0  0  0
 14 15  2  0  0  0
 15 16  1  0  0  0
 15 17  1  0  0  0
 17 18  2  0  0  0
 17  1  1  0  0  0
  1  2  2  0  0  0
  2  3  1  0  0  0
  3  4  2  0  0  0
  4  5  1  0  0  0
  5  6  2  0  0  0
  6 23  1  0  0  0
 23 25  1  0  0  0
 25 26  1  0  0  0
 26 27  1  0  0  0
 27 28  1  0  0  0
 28 29  1  0  0  0
  6  7  1  0  0  0
  7  8  2  0  0  0
  8  9  1  0  0  0
  9 30  1  0  0  0
 30 31  1  0  0  0
 31 32  1  0  0  0
 32 33  1  0  0  0
 33 34  1  0  0  0
 34 35  1  0  0  0
 35 36  1  0  0  0
 36 37  1  0  0  0
 37 38  1  0  0  0
 36 39  1  0  0  0
 39 40  2  0  0  0
 39 41  1  0  0  0
 41 42  2  0  0  0
  9 10  1  0  0  0
 10 11  2  0  0  0
 18 12  1  0  0  0
 10  1  1  0  0  0
  8  3  1  0  0  0
 38 33  1  0  0  0
 29 25  1  0  0  0
 23 24  1  0  0  0
M  END
> <minimizedAffinity>
-7.12045

> <CNNscore>
0.1017275229

> <CNNaffinity>
6.5978331566

> <CNN_VS>
0.6711812019

> <CNNaffinity_variance>
0.2931218743

$$$$
[H]C([H])=C([H])C(=O)N1C([H])([H])C([H])([H])N(C([H])([H])C([H])([H])C([H])([H])n2c(=O)c(-c3c([H])c(OC([H])([H])[H])c([H])c(OC([H])([H])[H])c3Cl)c([H])c3c([H])nc(N([H])[C@]4([H])C([H])([H])OC([H])([H])C4([H])[H])nc32)C([H])([H])C1([H])[H]


 42 46  0  0  0  0  0  0  0  0999 V2000
   -4.2067   22.7184  -24.6441 C   0  0  0  0  0  0  0  0  0  0  0  0
   -5.4718   22.2442  -24.4191 C   0  0  0  0  0  0  0  0  0  0  0  0
   -5.9794   22.0228  -23.1539 C   0  0  0  0  0  0  0  0  0  0  0  0
   -7.2441   21.5304  -22.9216 C   0  0  0  0  0  0  0  0  0  0  0  0
   -7.6232   21.3397  -21.6510 N   0  0  0  0  0  0  0  0  0  0  0  0
   -6.8325   21.6056  -20.6038 C   0  0  0  0  0  0  0  0  0  0  0  0
   -5.5816   22.0962  -20.8549 N   0  0  0  0  0  0  0  0  0  0  0  0
   -5.1394   22.3098  -22.0862 C   0  0  0  0  0  0  0  0  0  0  0  0
   -3.8683   22.7895  -22.2803 N   0  0  0  0  0  0  0  0  0  0  0  0
   -3.4131   22.9854  -23.5146 C   0  0  0  0  0  0  0  0  0  0  0  0
   -2.2643   23.4072  -23.7854 O   0  0  0  0  0  0  0  0  0  0  0  0
   -1.7569   22.6474  -27.5251 C   0  0  0  0  0  0  0  0  0  0  0  0
   -2.5185   23.2072  -28.5258 C   0  0  0  0  0  0  0  0  0  0  0  0
   -3.8358   23.6319  -28.3106 C   0  0  0  0  0  0  0  0  0  0  0  0
   -4.3527   23.4644  -27.0329 C   0  0  0  0  0  0  0  0  0  0  0  0
   -6.0095   23.9867  -26.7298 Cl  0  0  0  0  0  0  0  0  0  0  0  0
   -3.6480   22.9155  -25.9915 C   0  0  0  0  0  0  0  0  0  0  0  0
   -2.3537   22.5204  -26.2809 C   0  0  0  0  0  0  0  0  0  0  0  0
    0.4495   22.1561  -26.6957 C   0  0  0  0  0  0  0  0  0  0  0  0
   -0.4607   22.2352  -27.7669 O   0  0  0  0  0  0  0  0  0  0  0  0
   -4.6033   24.1949  -29.3057 O   0  0  0  0  0  0  0  0  0  0  0  0
   -4.2319   25.4355  -29.8514 C   0  0  0  0  0  0  0  0  0  0  0  0
   -7.2372   21.3695  -19.2854 N   0  0  0  0  0  0  0  0  0  0  0  0
   -7.1163   20.4144  -18.8725 H   0  0  0  0  0  0  0  0  0  0  0  0
   -7.8156   22.3994  -18.4696 C   0  0  0  0  0  0  0  0  0  0  0  0
   -6.9546   22.6386  -17.2427 C   0  0  0  0  0  0  0  0  0  0  0  0
   -6.0907   23.8152  -17.6909 C   0  0  0  0  0  0  0  0  0  0  0  0
   -7.0326   24.6052  -18.3619 O   0  0  0  0  0  0  0  0  0  0  0  0
   -7.7510   23.7486  -19.1772 C   0  0  0  0  0  0  0  0  0  0  0  0
   -3.0684   23.0674  -21.0948 C   0  0  0  0  0  0  0  0  0  0  0  0
   -2.2589   21.8902  -20.6783 C   0  0  0  0  0  0  0  0  0  0  0  0
   -1.2410   22.0594  -19.6159 C   0  0  0  0  0  0  0  0  0  0  0  0
    0.0895   22.0310  -20.1097 N   0  0  0  0  0  0  0  0  0  0  0  0
    0.2625   21.3920  -21.3612 C   0  0  0  0  0  0  0  0  0  0  0  0
    1.0105   20.1120  -21.4156 C   0  0  0  0  0  0  0  0  0  0  0  0
    1.4133   19.4808  -20.2202 N   0  0  0  0  0  0  0  0  0  0  0  0
    1.1246   20.1696  -18.9396 C   0  0  0  0  0  0  0  0  0  0  0  0
    1.0715   21.6404  -19.1242 C   0  0  0  0  0  0  0  0  0  0  0  0
    2.0732   18.2466  -20.1638 C   0  0  0  0  0  0  0  0  0  0  0  0
    2.3421   17.8696  -18.9356 O   0  0  0  0  0  0  0  0  0  0  0  0
    2.4872   17.3640  -21.1859 C   0  0  0  0  0  0  0  0  0  0  0  0
    3.6444   17.1576  -21.7419 C   0  0  0  0  0  0  0  0  0  0  0  0
 19 20  1  0  0  0
 20 12  1  0  0  0
 12 13  2  0  0  0
 13 14  1  0  0  0
 14 21  1  0  0  0
 21 22  1  0  0  0
 14 15  2  0  0  0
 15 16  1  0  0  0
 15 17  1  0  0  0
 17 18  2  0  0  0
 17  1  1  0  0  0
  1  2  2  0  0  0
  2  3  1  0  0  0
  3  4  2  0  0  0
  4  5  1  0  0  0
  5  6  2  0  0  0
  6 23  1  0  0  0
 23 25  1  0  0  0
 25 26  1  0  0  0
 26 27  1  0  0  0
 27 28  1  0  0  0
 28 29  1  0  0  0
  6  7  1  0  0  0
  7  8  2  0  0  0
  8  9  1  0  0  0
  9 30  1  0  0  0
 30 31  1  0  0  0
 31 32  1  0  0  0
 32 33  1  0  0  0
 33 34  1  0  0  0
 34 35  1  0  0  0
 35 36  1  0  0  0
 36 37  1  0  0  0
 37 38  1  0  0  0
 36 39  1  0  0  0
 39 40  2  0  0  0
 39 41  1  0  0  0
 41 42  2  0  0  0
  9 10  1  0  0  0
 10 11  2  0  0  0
 18 12  1  0  0  0
 10  1  1  0  0  0
  8  3  1  0  0  0
 38 33  1  0  0  0
 29 25  1  0  0  0
 23 24  1  0  0  0
M  END
> <minimizedAffinity>
-7.67588

> <CNNscore>
0.0753360465

> <CNNaffinity>
6.6558890343

> <CNN_VS>
0.5014283657

> <CNNaffinity_variance>
0.2420575172

$$$$
[H]c1nc2c([H])c([H])/c(=N\c3c([H])c(OC([H])([H])[H])c([H])c(OC([H])([H])[H])c3[H])n(C([H])([H])C([H])([H])N([H])C([H])(C([H])([H])[H])C([H])([H])[H])c2c([H])c1-c1c([H])nn(C([H])([H])[H])c1[H]


 34 37  0  0  0  0  0  0  0  0999 V2000
   -1.2426   21.1072  -21.8253 N   0  0  0  0  0  0  0  0  0  0  0  0
   -1.0804   21.4745  -23.0657 C   0  0  0  0  0  0  0  0  0  0  0  0
    0.1793   21.4841  -23.6201 C   0  0  0  0  0  0  0  0  0  0  0  0
    0.4147   21.8639  -24.9253 C   0  0  0  0  0  0  0  0  0  0  0  0
   -0.6643   22.2463  -25.6923 C   0  0  0  0  0  0  0  0  0  0  0  0
   -0.4293   22.6138  -26.9526 N   0  0  0  0  0  0  0  0  0  0  0  0
   -1.4516   22.9913  -27.7208 C   0  0  0  0  0  0  0  0  0  0  0  0
   -2.7479   23.0015  -27.2132 C   0  0  0  0  0  0  0  0  0  0  0  0
   -2.9932   22.6219  -25.9101 C   0  0  0  0  0  0  0  0  0  0  0  0
   -1.9310   22.2356  -25.1314 C   0  0  0  0  0  0  0  0  0  0  0  0
   -2.1173   21.8519  -23.8347 N   0  0  0  0  0  0  0  0  0  0  0  0
    1.7873   21.3186  -19.6376 C   0  0  0  0  0  0  0  0  0  0  0  0
    2.1346   19.9862  -19.5678 C   0  0  0  0  0  0  0  0  0  0  0  0
    1.4018   19.0111  -20.2202 C   0  0  0  0  0  0  0  0  0  0  0  0
    0.2803   19.3952  -20.9686 C   0  0  0  0  0  0  0  0  0  0  0  0
   -0.0932   20.7177  -21.0585 C   0  0  0  0  0  0  0  0  0  0  0  0
    0.6773   21.6435  -20.3856 C   0  0  0  0  0  0  0  0  0  0  0  0
    3.9266   22.3595  -19.0192 C   0  0  0  0  0  0  0  0  0  0  0  0
    2.5361   22.3089  -18.9717 O   0  0  0  0  0  0  0  0  0  0  0  0
    1.7780   17.6893  -20.1282 O   0  0  0  0  0  0  0  0  0  0  0  0
    1.1300   16.7333  -20.9307 C   0  0  0  0  0  0  0  0  0  0  0  0
   -3.8848   23.4101  -28.0303 C   0  0  0  0  0  0  0  0  0  0  0  0
   -5.2045   23.2469  -27.6568 C   0  0  0  0  0  0  0  0  0  0  0  0
   -6.0121   23.7292  -28.6350 N   0  0  0  0  0  0  0  0  0  0  0  0
   -5.2162   24.1757  -29.5818 N   0  0  0  0  0  0  0  0  0  0  0  0
   -5.6837   24.7730  -30.8072 C   0  0  0  0  0  0  0  0  0  0  0  0
   -3.9221   24.0044  -29.2610 C   0  0  0  0  0  0  0  0  0  0  0  0
   -3.4537   21.8499  -23.2709 C   0  0  0  0  0  0  0  0  0  0  0  0
   -3.7716   23.1925  -22.6354 C   0  0  0  0  0  0  0  0  0  0  0  0
   -5.1577   23.3814  -22.4427 N   0  0  0  0  0  0  0  0  0  0  0  0
   -5.5681   23.1262  -21.5466 H   0  0  0  0  0  0  0  0  0  0  0  0
   -5.7848   24.3791  -23.2206 C   0  0  0  0  0  0  0  0  0  0  0  0
   -4.6842   25.2338  -23.8623 C   0  0  0  0  0  0  0  0  0  0  0  0
   -6.6562   23.8752  -24.3298 C   0  0  0  0  0  0  0  0  0  0  0  0
 18 19  1  0  0  0
 19 12  1  0  0  0
 12 13  2  0  0  0
 13 14  1  0  0  0
 14 20  1  0  0  0
 20 21  1  0  0  0
 14 15  2  0  0  0
 15 16  1  0  0  0
 16 17  2  0  0  0
 16  1  1  0  0  0
  1  2  2  0  0  0
  2  3  1  0  0  0
  3  4  2  0  0  0
  4  5  1  0  0  0
  5  6  2  0  0  0
  6  7  1  0  0  0
  7  8  2  0  0  0
  8  9  1  0  0  0
  9 10  2  0  0  0
 10 11  1  0  0  0
 11 28  1  0  0  0
 28 29  1  0  0  0
 29 30  1  0  0  0
 30 32  1  0  0  0
 32 33  1  0  0  0
 32 34  1  0  0  0
  8 22  1  0  0  0
 22 23  1  0  0  0
 23 24  2  0  0  0
 24 25  1  0  0  0
 25 26  1  0  0  0
 25 27  1  0  0  0
 17 12  1  0  0  0
 11  2  1  0  0  0
 27 22  2  0  0  0
 10  5  1  0  0  0
 30 31  1  0  0  0
M  END
> <minimizedAffinity>
-7.87455

> <CNNscore>
0.7877418399

> <CNNaffinity>
7.6281609535

> <CNN_VS>
6.0090217590

> <CNNaffinity_variance>
0.2205034792

$$$$
[H]c1nc2c([H])c([H])/c(=N\c3c([H])c(OC([H])([H])[H])c([H])c(OC([H])([H])[H])c3[H])n(C([H])([H])C([H])([H])N([H])C([H])(C([H])([H])[H])C([H])([H])[H])c2c([H])c1-c1c([H])nn(C([H])([H])[H])c1[H]


 34 37  0  0  0  0  0  0  0  0999 V2000
   -1.7052   21.5597  -22.2898 N   0  0  0  0  0  0  0  0  0  0  0  0
   -1.4231   21.8448  -23.5303 C   0  0  0  0  0  0  0  0  0  0  0  0
   -0.1261   21.7464  -23.9801 C   0  0  0  0  0  0  0  0  0  0  0  0
    0.2346   22.0357  -25.2798 C   0  0  0  0  0  0  0  0  0  0  0  0
   -0.7542   22.4382  -26.1510 C   0  0  0  0  0  0  0  0  0  0  0  0
   -0.3982   22.7180  -27.4055 N   0  0  0  0  0  0  0  0  0  0  0  0
   -1.3307   23.1120  -28.2731 C   0  0  0  0  0  0  0  0  0  0  0  0
   -2.6593   23.2298  -27.8741 C   0  0  0  0  0  0  0  0  0  0  0  0
   -3.0297   22.9410  -26.5772 C   0  0  0  0  0  0  0  0  0  0  0  0
   -2.0588   22.5364  -25.6954 C   0  0  0  0  0  0  0  0  0  0  0  0
   -2.3702   22.2396  -24.4000 N   0  0  0  0  0  0  0  0  0  0  0  0
    0.9149   19.4387  -20.6627 C   0  0  0  0  0  0  0  0  0  0  0  0
    1.4024   20.3245  -19.7255 C   0  0  0  0  0  0  0  0  0  0  0  0
    0.8962   21.6064  -19.6077 C   0  0  0  0  0  0  0  0  0  0  0  0
   -0.1376   22.0068  -20.4657 C   0  0  0  0  0  0  0  0  0  0  0  0
   -0.6469   21.1459  -21.4126 C   0  0  0  0  0  0  0  0  0  0  0  0
   -0.1007   19.8808  -21.4814 C   0  0  0  0  0  0  0  0  0  0  0  0
    1.5604   17.2747  -19.6916 C   0  0  0  0  0  0  0  0  0  0  0  0
    1.4331   18.1338  -20.7797 O   0  0  0  0  0  0  0  0  0  0  0  0
    1.4078   22.4649  -18.6599 O   0  0  0  0  0  0  0  0  0  0  0  0
    1.1504   22.2182  -17.2994 C   0  0  0  0  0  0  0  0  0  0  0  0
   -3.7001   23.6589  -28.8013 C   0  0  0  0  0  0  0  0  0  0  0  0
   -4.7441   22.8564  -29.2180 C   0  0  0  0  0  0  0  0  0  0  0  0
   -5.5330   23.5528  -30.0750 N   0  0  0  0  0  0  0  0  0  0  0  0
   -4.9929   24.7470  -30.1836 N   0  0  0  0  0  0  0  0  0  0  0  0
   -5.5315   25.7988  -31.0085 C   0  0  0  0  0  0  0  0  0  0  0  0
   -3.8838   24.8578  -29.4322 C   0  0  0  0  0  0  0  0  0  0  0  0
   -3.7438   22.3509  -23.9476 C   0  0  0  0  0  0  0  0  0  0  0  0
   -4.0251   23.7473  -23.4199 C   0  0  0  0  0  0  0  0  0  0  0  0
   -5.0291   24.4096  -24.1599 N   0  0  0  0  0  0  0  0  0  0  0  0
   -4.7633   25.1860  -24.7624 H   0  0  0  0  0  0  0  0  0  0  0  0
   -6.1905   23.6701  -24.4727 C   0  0  0  0  0  0  0  0  0  0  0  0
   -7.3242   24.1743  -23.5702 C   0  0  0  0  0  0  0  0  0  0  0  0
   -6.6661   23.7898  -25.8880 C   0  0  0  0  0  0  0  0  0  0  0  0
 18 19  1  0  0  0
 19 12  1  0  0  0
 12 13  2  0  0  0
 13 14  1  0  0  0
 14 20  1  0  0  0
 20 21  1  0  0  0
 14 15  2  0  0  0
 15 16  1  0  0  0
 16 17  2  0  0  0
 16  1  1  0  0  0
  1  2  2  0  0  0
  2  3  1  0  0  0
  3  4  2  0  0  0
  4  5  1  0  0  0
  5  6  2  0  0  0
  6  7  1  0  0  0
  7  8  2  0  0  0
  8  9  1  0  0  0
  9 10  2  0  0  0
 10 11  1  0  0  0
 11 28  1  0  0  0
 28 29  1  0  0  0
 29 30  1  0  0  0
 30 32  1  0  0  0
 32 33  1  0  0  0
 32 34  1  0  0  0
  8 22  1  0  0  0
 22 23  1  0  0  0
 23 24  2  0  0  0
 24 25  1  0  0  0
 25 26  1  0  0  0
 25 27  1  0  0  0
 17 12  1  0  0  0
 11  2  1  0  0  0
 27 22  2  0  0  0
 10  5  1  0  0  0
 30 31  1  0  0  0
M  END
> <minimizedAffinity>
-7.97677

> <CNNscore>
0.7785995603

> <CNNaffinity>
7.6469221115

> <CNN_VS>
5.9538903236

> <CNNaffinity_variance>
0.1296596825

$$$$
[H]c1nc2c([H])c([H])/c(=N\c3c([H])c(OC([H])([H])[H])c([H])c(OC([H])([H])[H])c3[H])n(C([H])([H])C([H])([H])N([H])C([H])(C([H])([H])[H])C([H])([H])[H])c2c([H])c1-c1c([H])nn(C([H])([H])[H])c1[H]


 34 37  0  0  0  0  0  0  0  0999 V2000
   -1.1618   21.0867  -21.7763 N   0  0  0  0  0  0  0  0  0  0  0  0
   -1.0144   21.4533  -23.0187 C   0  0  0  0  0  0  0  0  0  0  0  0
    0.2380   21.4591  -23.5893 C   0  0  0  0  0  0  0  0  0  0  0  0
    0.4578   21.8379  -24.8975 C   0  0  0  0  0  0  0  0  0  0  0  0
   -0.6298   22.2234  -25.6506 C   0  0  0  0  0  0  0  0  0  0  0  0
   -0.4100   22.5900  -26.9139 N   0  0  0  0  0  0  0  0  0  0  0  0
   -1.4409   22.9703  -27.6690 C   0  0  0  0  0  0  0  0  0  0  0  0
   -2.7305   22.9845  -27.1448 C   0  0  0  0  0  0  0  0  0  0  0  0
   -2.9603   22.6058  -25.8386 C   0  0  0  0  0  0  0  0  0  0  0  0
   -1.8893   22.2166  -25.0735 C   0  0  0  0  0  0  0  0  0  0  0  0
   -2.0600   21.8337  -23.7745 N   0  0  0  0  0  0  0  0  0  0  0  0
    1.4768   18.9469  -20.2047 C   0  0  0  0  0  0  0  0  0  0  0  0
    2.2339   19.9116  -19.5747 C   0  0  0  0  0  0  0  0  0  0  0  0
    1.9053   21.2532  -19.6484 C   0  0  0  0  0  0  0  0  0  0  0  0
    0.7735   21.6330  -20.3833 C   0  0  0  0  0  0  0  0  0  0  0  0
   -0.0038   20.6939  -21.0242 C   0  0  0  0  0  0  0  0  0  0  0  0
    0.3751   19.3719  -20.9138 C   0  0  0  0  0  0  0  0  0  0  0  0
    1.1692   16.6031  -20.8792 C   0  0  0  0  0  0  0  0  0  0  0  0
    1.8147   17.5813  -20.1275 O   0  0  0  0  0  0  0  0  0  0  0  0
    2.6849   22.1898  -19.0064 O   0  0  0  0  0  0  0  0  0  0  0  0
    3.3624   21.8284  -17.8282 C   0  0  0  0  0  0  0  0  0  0  0  0
   -3.8766   23.3963  -27.9473 C   0  0  0  0  0  0  0  0  0  0  0  0
   -5.1899   23.2899  -27.5328 C   0  0  0  0  0  0  0  0  0  0  0  0
   -6.0092   23.7585  -28.5078 N   0  0  0  0  0  0  0  0  0  0  0  0
   -5.2264   24.1420  -29.4926 N   0  0  0  0  0  0  0  0  0  0  0  0
   -5.7093   24.7049  -30.7283 C   0  0  0  0  0  0  0  0  0  0  0  0
   -3.9298   23.9425  -29.1995 C   0  0  0  0  0  0  0  0  0  0  0  0
   -3.3891   21.8357  -23.1935 C   0  0  0  0  0  0  0  0  0  0  0  0
   -3.7065   23.1892  -22.5811 C   0  0  0  0  0  0  0  0  0  0  0  0
   -5.0895   23.3675  -22.3585 N   0  0  0  0  0  0  0  0  0  0  0  0
   -5.4823   23.0891  -21.4615 H   0  0  0  0  0  0  0  0  0  0  0  0
   -5.7346   24.3810  -23.1004 C   0  0  0  0  0  0  0  0  0  0  0  0
   -4.6493   25.2607  -23.7344 C   0  0  0  0  0  0  0  0  0  0  0  0
   -6.6181   23.9005  -24.2105 C   0  0  0  0  0  0  0  0  0  0  0  0
 18 19  1  0  0  0
 19 12  1  0  0  0
 12 13  2  0  0  0
 13 14  1  0  0  0
 14 20  1  0  0  0
 20 21  1  0  0  0
 14 15  2  0  0  0
 15 16  1  0  0  0
 16 17  2  0  0  0
 16  1  1  0  0  0
  1  2  2  0  0  0
  2  3  1  0  0  0
  3  4  2  0  0  0
  4  5  1  0  0  0
  5  6  2  0  0  0
  6  7  1  0  0  0
  7  8  2  0  0  0
  8  9  1  0  0  0
  9 10  2  0  0  0
 10 11  1  0  0  0
 11 28  1  0  0  0
 28 29  1  0  0  0
 29 30  1  0  0  0
 30 32  1  0  0  0
 32 33  1  0  0  0
 32 34  1  0  0  0
  8 22  1  0  0  0
 22 23  1  0  0  0
 23 24  2  0  0  0
 24 25  1  0  0  0
 25 26  1  0  0  0
 25 27  1  0  0  0
 17 12  1  0  0  0
 11  2  1  0  0  0
 27 22  2  0  0  0
 10  5  1  0  0  0
 30 31  1  0  0  0
M  END
> <minimizedAffinity>
-7.74973

> <CNNscore>
0.7562448382

> <CNNaffinity>
7.6024842262

> <CNN_VS>
5.7493395805

> <CNNaffinity_variance>
0.2587175667

$$$$
[H]c1nc2c([H])c([H])/c(=N\c3c([H])c(OC([H])([H])[H])c([H])c(OC([H])([H])[H])c3[H])n(C([H])([H])C([H])([H])N([H])C([H])(C([H])([H])[H])C([H])([H])[H])c2c([H])c1-c1c([H])nn(C([H])([H])[H])c1[H]


 34 37  0  0  0  0  0  0  0  0999 V2000
   -2.2282   22.5621  -22.1812 N   0  0  0  0  0  0  0  0  0  0  0  0
   -1.9839   22.5810  -23.4617 C   0  0  0  0  0  0  0  0  0  0  0  0
   -0.7922   22.0868  -23.9412 C   0  0  0  0  0  0  0  0  0  0  0  0
   -0.4758   22.0809  -25.2839 C   0  0  0  0  0  0  0  0  0  0  0  0
   -1.3996   22.5936  -26.1684 C   0  0  0  0  0  0  0  0  0  0  0  0
   -1.0865   22.5863  -27.4648 N   0  0  0  0  0  0  0  0  0  0  0  0
   -1.9578   23.0770  -28.3466 C   0  0  0  0  0  0  0  0  0  0  0  0
   -3.1792   23.5905  -27.9189 C   0  0  0  0  0  0  0  0  0  0  0  0
   -3.5051   23.5990  -26.5787 C   0  0  0  0  0  0  0  0  0  0  0  0
   -2.5982   23.0905  -25.6828 C   0  0  0  0  0  0  0  0  0  0  0  0
   -2.8693   23.0760  -24.3451 N   0  0  0  0  0  0  0  0  0  0  0  0
    0.3110   22.3203  -19.4416 C   0  0  0  0  0  0  0  0  0  0  0  0
    0.6754   20.9959  -19.5592 C   0  0  0  0  0  0  0  0  0  0  0  0
    0.1112   20.1712  -20.5157 C   0  0  0  0  0  0  0  0  0  0  0  0
   -0.8536   20.7026  -21.3829 C   0  0  0  0  0  0  0  0  0  0  0  0
   -1.2395   22.0216  -21.2917 C   0  0  0  0  0  0  0  0  0  0  0  0
   -0.6409   22.7936  -20.3174 C   0  0  0  0  0  0  0  0  0  0  0  0
    2.2586   23.3876  -18.3880 C   0  0  0  0  0  0  0  0  0  0  0  0
    0.8878   23.1572  -18.4660 O   0  0  0  0  0  0  0  0  0  0  0  0
    0.4992   18.8526  -20.6042 O   0  0  0  0  0  0  0  0  0  0  0  0
    1.8466   18.5494  -20.8697 C   0  0  0  0  0  0  0  0  0  0  0  0
   -4.1510   24.1339  -28.8608 C   0  0  0  0  0  0  0  0  0  0  0  0
   -5.3712   23.5489  -29.1377 C   0  0  0  0  0  0  0  0  0  0  0  0
   -6.0340   24.3011  -30.0523 N   0  0  0  0  0  0  0  0  0  0  0  0
   -5.2478   25.3179  -30.3310 N   0  0  0  0  0  0  0  0  0  0  0  0
   -5.5857   26.3598  -31.2676 C   0  0  0  0  0  0  0  0  0  0  0  0
   -4.0992   25.2595  -29.6352 C   0  0  0  0  0  0  0  0  0  0  0  0
   -4.1315   23.6026  -23.8620 C   0  0  0  0  0  0  0  0  0  0  0  0
   -4.0454   25.1057  -23.6599 C   0  0  0  0  0  0  0  0  0  0  0  0
   -5.3162   25.7216  -23.6586 N   0  0  0  0  0  0  0  0  0  0  0  0
   -5.7662   25.9167  -22.7664 H   0  0  0  0  0  0  0  0  0  0  0  0
   -5.6460   26.5175  -24.7773 C   0  0  0  0  0  0  0  0  0  0  0  0
   -4.3461   27.1270  -25.3184 C   0  0  0  0  0  0  0  0  0  0  0  0
   -6.2990   25.7904  -25.9124 C   0  0  0  0  0  0  0  0  0  0  0  0
 18 19  1  0  0  0
 19 12  1  0  0  0
 12 13  2  0  0  0
 13 14  1  0  0  0
 14 20  1  0  0  0
 20 21  1  0  0  0
 14 15  2  0  0  0
 15 16  1  0  0  0
 16 17  2  0  0  0
 16  1  1  0  0  0
  1  2  2  0  0  0
  2  3  1  0  0  0
  3  4  2  0  0  0
  4  5  1  0  0  0
  5  6  2  0  0  0
  6  7  1  0  0  0
  7  8  2  0  0  0
  8  9  1  0  0  0
  9 10  2  0  0  0
 10 11  1  0  0  0
 11 28  1  0  0  0
 28 29  1  0  0  0
 29 30  1  0  0  0
 30 32  1  0  0  0
 32 33  1  0  0  0
 32 34  1  0  0  0
  8 22  1  0  0  0
 22 23  1  0  0  0
 23 24  2  0  0  0
 24 25  1  0  0  0
 25 26  1  0  0  0
 25 27  1  0  0  0
 17 12  1  0  0  0
 11  2  1  0  0  0
 27 22  2  0  0  0
 10  5  1  0  0  0
 30 31  1  0  0  0
M  END
> <minimizedAffinity>
-8.52648

> <CNNscore>
0.6670807004

> <CNNaffinity>
7.5942621231

> <CNN_VS>
5.0659856796

> <CNNaffinity_variance>
0.0990590602

$$$$
[H]c1nc2c([H])c([H])/c(=N\c3c([H])c(OC([H])([H])[H])c([H])c(OC([H])([H])[H])c3[H])n(C([H])([H])C([H])([H])N([H])C([H])(C([H])([H])[H])C([H])([H])[H])c2c([H])c1-c1c([H])nn(C([H])([H])[H])c1[H]


 34 37  0  0  0  0  0  0  0  0999 V2000
   -2.2535   22.5848  -22.1704 N   0  0  0  0  0  0  0  0  0  0  0  0
   -2.0075   22.5948  -23.4508 C   0  0  0  0  0  0  0  0  0  0  0  0
   -0.8184   22.0903  -23.9258 C   0  0  0  0  0  0  0  0  0  0  0  0
   -0.5003   22.0747  -25.2681 C   0  0  0  0  0  0  0  0  0  0  0  0
   -1.4197   22.5882  -26.1567 C   0  0  0  0  0  0  0  0  0  0  0  0
   -1.1050   22.5715  -27.4526 N   0  0  0  0  0  0  0  0  0  0  0  0
   -1.9721   23.0626  -28.3383 C   0  0  0  0  0  0  0  0  0  0  0  0
   -3.1907   23.5863  -27.9152 C   0  0  0  0  0  0  0  0  0  0  0  0
   -3.5183   23.6046  -26.5755 C   0  0  0  0  0  0  0  0  0  0  0  0
   -2.6157   23.0954  -25.6755 C   0  0  0  0  0  0  0  0  0  0  0  0
   -2.8886   23.0903  -24.3381 N   0  0  0  0  0  0  0  0  0  0  0  0
    0.0688   20.1597  -20.5160 C   0  0  0  0  0  0  0  0  0  0  0  0
    0.6341   20.9740  -19.5578 C   0  0  0  0  0  0  0  0  0  0  0  0
    0.2762   22.3044  -19.4345 C   0  0  0  0  0  0  0  0  0  0  0  0
   -0.6856   22.8299  -20.3087 C   0  0  0  0  0  0  0  0  0  0  0  0
   -1.2694   22.0430  -21.2766 C   0  0  0  0  0  0  0  0  0  0  0  0
   -0.8709   20.7242  -21.3500 C   0  0  0  0  0  0  0  0  0  0  0  0
    1.7135   18.3417  -20.3356 C   0  0  0  0  0  0  0  0  0  0  0  0
    0.4360   18.8051  -20.6386 O   0  0  0  0  0  0  0  0  0  0  0  0
    0.8619   23.0886  -18.4655 O   0  0  0  0  0  0  0  0  0  0  0  0
    2.2629   23.2078  -18.4325 C   0  0  0  0  0  0  0  0  0  0  0  0
   -4.1579   24.1305  -28.8615 C   0  0  0  0  0  0  0  0  0  0  0  0
   -5.3747   23.5432  -29.1483 C   0  0  0  0  0  0  0  0  0  0  0  0
   -6.0335   24.2969  -30.0645 N   0  0  0  0  0  0  0  0  0  0  0  0
   -5.2483   25.3167  -30.3345 N   0  0  0  0  0  0  0  0  0  0  0  0
   -5.5829   26.3610  -31.2696 C   0  0  0  0  0  0  0  0  0  0  0  0
   -4.1040   25.2589  -29.6315 C   0  0  0  0  0  0  0  0  0  0  0  0
   -4.1480   23.6276  -23.8596 C   0  0  0  0  0  0  0  0  0  0  0  0
   -4.0521   25.1310  -23.6642 C   0  0  0  0  0  0  0  0  0  0  0  0
   -5.3184   25.7560  -23.6711 N   0  0  0  0  0  0  0  0  0  0  0  0
   -5.7646   25.9710  -22.7817 H   0  0  0  0  0  0  0  0  0  0  0  0
   -5.6454   26.5332  -24.8037 C   0  0  0  0  0  0  0  0  0  0  0  0
   -4.3435   27.1288  -25.3552 C   0  0  0  0  0  0  0  0  0  0  0  0
   -6.3008   25.7885  -25.9259 C   0  0  0  0  0  0  0  0  0  0  0  0
 18 19  1  0  0  0
 19 12  1  0  0  0
 12 13  2  0  0  0
 13 14  1  0  0  0
 14 20  1  0  0  0
 20 21  1  0  0  0
 14 15  2  0  0  0
 15 16  1  0  0  0
 16 17  2  0  0  0
 16  1  1  0  0  0
  1  2  2  0  0  0
  2  3  1  0  0  0
  3  4  2  0  0  0
  4  5  1  0  0  0
  5  6  2  0  0  0
  6  7  1  0  0  0
  7  8  2  0  0  0
  8  9  1  0  0  0
  9 10  2  0  0  0
 10 11  1  0  0  0
 11 28  1  0  0  0
 28 29  1  0  0  0
 29 30  1  0  0  0
 30 32  1  0  0  0
 32 33  1  0  0  0
 32 34  1  0  0  0
  8 22  1  0  0  0
 22 23  1  0  0  0
 23 24  2  0  0  0
 24 25  1  0  0  0
 25 26  1  0  0  0
 25 27  1  0  0  0
 17 12  1  0  0  0
 11  2  1  0  0  0
 27 22  2  0  0  0
 10  5  1  0  0  0
 30 31  1  0  0  0
M  END
> <minimizedAffinity>
-8.49079

> <CNNscore>
0.6466255784

> <CNNaffinity>
7.5752229691

> <CNN_VS>
4.8983330727

> <CNNaffinity_variance>
0.1124999523

$$$$
[H]c1nc2c([H])c([H])/c(=N\c3c([H])c(OC([H])([H])[H])c([H])c(OC([H])([H])[H])c3[H])n(C([H])([H])C([H])([H])N([H])C([H])(C([H])([H])[H])C([H])([H])[H])c2c([H])c1-c1c([H])nn(C([H])([H])[H])c1[H]


 34 37  0  0  0  0  0  0  0  0999 V2000
   -4.5646   17.4131  -16.4625 N   0  0  0  0  0  0  0  0  0  0  0  0
   -3.2726   17.3961  -16.2888 C   0  0  0  0  0  0  0  0  0  0  0  0
   -2.6647   16.2786  -15.7635 C   0  0  0  0  0  0  0  0  0  0  0  0
   -1.3032   16.2011  -15.5549 C   0  0  0  0  0  0  0  0  0  0  0  0
   -0.5342   17.2941  -15.8907 C   0  0  0  0  0  0  0  0  0  0  0  0
    0.7810   17.2129  -15.6848 N   0  0  0  0  0  0  0  0  0  0  0  0
    1.5531   18.2539  -15.9973 C   0  0  0  0  0  0  0  0  0  0  0  0
    0.9930   19.4110  -16.5318 C   0  0  0  0  0  0  0  0  0  0  0  0
   -0.3669   19.4972  -16.7455 C   0  0  0  0  0  0  0  0  0  0  0  0
   -1.1489   18.4175  -16.4191 C   0  0  0  0  0  0  0  0  0  0  0  0
   -2.5004   18.4499  -16.6086 N   0  0  0  0  0  0  0  0  0  0  0  0
   -6.4025   14.1626  -16.7222 C   0  0  0  0  0  0  0  0  0  0  0  0
   -6.8135   14.0065  -15.4156 C   0  0  0  0  0  0  0  0  0  0  0  0
   -6.5054   14.9401  -14.4425 C   0  0  0  0  0  0  0  0  0  0  0  0
   -5.7570   16.0697  -14.8018 C   0  0  0  0  0  0  0  0  0  0  0  0
   -5.3313   16.2554  -16.0984 C   0  0  0  0  0  0  0  0  0  0  0  0
   -5.6699   15.2894  -17.0235 C   0  0  0  0  0  0  0  0  0  0  0  0
   -5.7628   12.6707  -18.5682 C   0  0  0  0  0  0  0  0  0  0  0  0
   -6.7181   13.2094  -17.7106 O   0  0  0  0  0  0  0  0  0  0  0  0
   -6.9325   14.7514  -13.1467 O   0  0  0  0  0  0  0  0  0  0  0  0
   -7.9816   15.5437  -12.6470 C   0  0  0  0  0  0  0  0  0  0  0  0
    1.8131   20.5650  -16.8823 C   0  0  0  0  0  0  0  0  0  0  0  0
    3.1444   20.7009  -16.5403 C   0  0  0  0  0  0  0  0  0  0  0  0
    3.6128   21.8828  -17.0149 N   0  0  0  0  0  0  0  0  0  0  0  0
    2.6027   22.4580  -17.6302 N   0  0  0  0  0  0  0  0  0  0  0  0
    2.6848   23.7424  -18.2785 C   0  0  0  0  0  0  0  0  0  0  0  0
    1.4944   21.6991  -17.5762 C   0  0  0  0  0  0  0  0  0  0  0  0
   -3.1199   19.6384  -17.1631 C   0  0  0  0  0  0  0  0  0  0  0  0
   -2.6182   19.8987  -18.5731 C   0  0  0  0  0  0  0  0  0  0  0  0
   -3.5761   20.5624  -19.3707 N   0  0  0  0  0  0  0  0  0  0  0  0
   -4.5578   20.5074  -19.1066 H   0  0  0  0  0  0  0  0  0  0  0  0
   -3.1316   21.6764  -20.1157 C   0  0  0  0  0  0  0  0  0  0  0  0
   -4.3682   22.4762  -20.5457 C   0  0  0  0  0  0  0  0  0  0  0  0
   -2.2281   22.6198  -19.3829 C   0  0  0  0  0  0  0  0  0  0  0  0
 18 19  1  0  0  0
 19 12  1  0  0  0
 12 13  2  0  0  0
 13 14  1  0  0  0
 14 20  1  0  0  0
 20 21  1  0  0  0
 14 15  2  0  0  0
 15 16  1  0  0  0
 16 17  2  0  0  0
 16  1  1  0  0  0
  1  2  2  0  0  0
  2  3  1  0  0  0
  3  4  2  0  0  0
  4  5  1  0  0  0
  5  6  2  0  0  0
  6  7  1  0  0  0
  7  8  2  0  0  0
  8  9  1  0  0  0
  9 10  2  0  0  0
 10 11  1  0  0  0
 11 28  1  0  0  0
 28 29  1  0  0  0
 29 30  1  0  0  0
 30 32  1  0  0  0
 32 33  1  0  0  0
 32 34  1  0  0  0
  8 22  1  0  0  0
 22 23  1  0  0  0
 23 24  2  0  0  0
 24 25  1  0  0  0
 25 26  1  0  0  0
 25 27  1  0  0  0
 17 12  1  0  0  0
 11  2  1  0  0  0
 27 22  2  0  0  0
 10  5  1  0  0  0
 30 31  1  0  0  0
M  END
> <minimizedAffinity>
-2.18906

> <CNNscore>
0.5610237718

> <CNNaffinity>
5.7335877419

> <CNN_VS>
3.2166790962

> <CNNaffinity_variance>
0.5995199084

$$$$
[H]c1nc2c([H])c([H])/c(=N\c3c([H])c(OC([H])([H])[H])c([H])c(OC([H])([H])[H])c3[H])n(C([H])([H])C([H])([H])N([H])C([H])(C([H])([H])[H])C([H])([H])[H])c2c([H])c1-c1c([H])nn(C([H])([H])[H])c1[H]


 34 37  0  0  0  0  0  0  0  0999 V2000
   -2.3751   22.4602  -21.6922 N   0  0  0  0  0  0  0  0  0  0  0  0
   -2.0644   22.4807  -22.9583 C   0  0  0  0  0  0  0  0  0  0  0  0
   -0.8171   22.0659  -23.3664 C   0  0  0  0  0  0  0  0  0  0  0  0
   -0.4294   22.0660  -24.6903 C   0  0  0  0  0  0  0  0  0  0  0  0
   -1.3379   22.5016  -25.6303 C   0  0  0  0  0  0  0  0  0  0  0  0
   -0.9560   22.5006  -26.9081 N   0  0  0  0  0  0  0  0  0  0  0  0
   -1.8108   22.9179  -27.8422 C   0  0  0  0  0  0  0  0  0  0  0  0
   -3.0862   23.3492  -27.4877 C   0  0  0  0  0  0  0  0  0  0  0  0
   -3.4834   23.3511  -26.1669 C   0  0  0  0  0  0  0  0  0  0  0  0
   -2.5926   22.9186  -25.2164 C   0  0  0  0  0  0  0  0  0  0  0  0
   -2.9334   22.9013  -23.8948 N   0  0  0  0  0  0  0  0  0  0  0  0
    0.4025   22.4825  -19.1832 C   0  0  0  0  0  0  0  0  0  0  0  0
    0.4930   21.1357  -18.9032 C   0  0  0  0  0  0  0  0  0  0  0  0
   -0.3341   20.2111  -19.5153 C   0  0  0  0  0  0  0  0  0  0  0  0
   -1.2845   20.6627  -20.4417 C   0  0  0  0  0  0  0  0  0  0  0  0
   -1.4003   22.0014  -20.7435 C   0  0  0  0  0  0  0  0  0  0  0  0
   -0.5474   22.8746  -20.1003 C   0  0  0  0  0  0  0  0  0  0  0  0
    2.5771   23.1492  -18.2507 C   0  0  0  0  0  0  0  0  0  0  0  0
    1.2466   23.4213  -18.5577 O   0  0  0  0  0  0  0  0  0  0  0  0
   -0.2159   18.8730  -19.2111 O   0  0  0  0  0  0  0  0  0  0  0  0
    0.9444   18.1800  -19.6005 C   0  0  0  0  0  0  0  0  0  0  0  0
   -4.0416   23.8114  -28.4880 C   0  0  0  0  0  0  0  0  0  0  0  0
   -5.2813   23.2392  -28.6967 C   0  0  0  0  0  0  0  0  0  0  0  0
   -5.9207   23.9014  -29.6938 N   0  0  0  0  0  0  0  0  0  0  0  0
   -5.1018   24.8519  -30.0878 N   0  0  0  0  0  0  0  0  0  0  0  0
   -5.4070   25.7883  -31.1400 C   0  0  0  0  0  0  0  0  0  0  0  0
   -3.9540   24.8367  -29.3882 C   0  0  0  0  0  0  0  0  0  0  0  0
   -4.2534   23.3435  -23.4873 C   0  0  0  0  0  0  0  0  0  0  0  0
   -4.1809   24.7020  -22.8114 C   0  0  0  0  0  0  0  0  0  0  0  0
   -5.4491   25.1646  -22.3969 N   0  0  0  0  0  0  0  0  0  0  0  0
   -6.1720   25.3102  -23.0987 H   0  0  0  0  0  0  0  0  0  0  0  0
   -5.8352   24.8786  -21.0692 C   0  0  0  0  0  0  0  0  0  0  0  0
   -6.9871   25.8233  -20.7023 C   0  0  0  0  0  0  0  0  0  0  0  0
   -6.3160   23.4808  -20.8272 C   0  0  0  0  0  0  0  0  0  0  0  0
 18 19  1  0  0  0
 19 12  1  0  0  0
 12 13  2  0  0  0
 13 14  1  0  0  0
 14 20  1  0  0  0
 20 21  1  0  0  0
 14 15  2  0  0  0
 15 16  1  0  0  0
 16 17  2  0  0  0
 16  1  1  0  0  0
  1  2  2  0  0  0
  2  3  1  0  0  0
  3  4  2  0  0  0
  4  5  1  0  0  0
  5  6  2  0  0  0
  6  7  1  0  0  0
  7  8  2  0  0  0
  8  9  1  0  0  0
  9 10  2  0  0  0
 10 11  1  0  0  0
 11 28  1  0  0  0
 28 29  1  0  0  0
 29 30  1  0  0  0
 30 32  1  0  0  0
 32 33  1  0  0  0
 32 34  1  0  0  0
  8 22  1  0  0  0
 22 23  1  0  0  0
 23 24  2  0  0  0
 24 25  1  0  0  0
 25 26  1  0  0  0
 25 27  1  0  0  0
 17 12  1  0  0  0
 11  2  1  0  0  0
 27 22  2  0  0  0
 10  5  1  0  0  0
 30 31  1  0  0  0
M  END
> <minimizedAffinity>
-7.60077

> <CNNscore>
0.3965710998

> <CNNaffinity>
7.2697181702

> <CNN_VS>
2.8829600811

> <CNNaffinity_variance>
0.4155324996

$$$$
[H]c1nc2c([H])c([H])/c(=N\c3c([H])c(OC([H])([H])[H])c([H])c(OC([H])([H])[H])c3[H])n(C([H])([H])C([H])([H])N([H])C([H])(C([H])([H])[H])C([H])([H])[H])c2c([H])c1-c1c([H])nn(C([H])([H])[H])c1[H]


 34 37  0  0  0  0  0  0  0  0999 V2000
   -2.7651   22.9143  -21.5911 N   0  0  0  0  0  0  0  0  0  0  0  0
   -2.4305   22.7822  -22.8443 C   0  0  0  0  0  0  0  0  0  0  0  0
   -1.2367   22.1837  -23.1772 C   0  0  0  0  0  0  0  0  0  0  0  0
   -0.8271   22.0168  -24.4839 C   0  0  0  0  0  0  0  0  0  0  0  0
   -1.6569   22.4727  -25.4850 C   0  0  0  0  0  0  0  0  0  0  0  0
   -1.2540   22.3097  -26.7459 N   0  0  0  0  0  0  0  0  0  0  0  0
   -2.0329   22.7414  -27.7380 C   0  0  0  0  0  0  0  0  0  0  0  0
   -3.2516   23.3548  -27.4608 C   0  0  0  0  0  0  0  0  0  0  0  0
   -3.6703   23.5245  -26.1576 C   0  0  0  0  0  0  0  0  0  0  0  0
   -2.8579   23.0748  -25.1469 C   0  0  0  0  0  0  0  0  0  0  0  0
   -3.2230   23.2187  -23.8395 N   0  0  0  0  0  0  0  0  0  0  0  0
   -1.1779   20.6568  -19.0622 C   0  0  0  0  0  0  0  0  0  0  0  0
   -0.1561   21.4671  -18.6150 C   0  0  0  0  0  0  0  0  0  0  0  0
    0.0320   22.7413  -19.1195 C   0  0  0  0  0  0  0  0  0  0  0  0
   -0.8419   23.2128  -20.1091 C   0  0  0  0  0  0  0  0  0  0  0  0
   -1.8726   22.4283  -20.5773 C   0  0  0  0  0  0  0  0  0  0  0  0
   -2.0086   21.1668  -20.0353 C   0  0  0  0  0  0  0  0  0  0  0  0
   -2.3382   19.0624  -17.5945 C   0  0  0  0  0  0  0  0  0  0  0  0
   -1.3663   19.3594  -18.5461 O   0  0  0  0  0  0  0  0  0  0  0  0
    1.0638   23.5232  -18.6492 O   0  0  0  0  0  0  0  0  0  0  0  0
    2.3324   22.9460  -18.4609 C   0  0  0  0  0  0  0  0  0  0  0  0
   -4.1235   23.8372  -28.5258 C   0  0  0  0  0  0  0  0  0  0  0  0
   -5.3388   23.2661  -28.8492 C   0  0  0  0  0  0  0  0  0  0  0  0
   -5.8972   23.9493  -29.8802 N   0  0  0  0  0  0  0  0  0  0  0  0
   -5.0533   24.9113  -30.1834 N   0  0  0  0  0  0  0  0  0  0  0  0
   -5.2753   25.8710  -31.2354 C   0  0  0  0  0  0  0  0  0  0  0  0
   -3.9671   24.8834  -29.3919 C   0  0  0  0  0  0  0  0  0  0  0  0
   -4.4856   23.8530  -23.5118 C   0  0  0  0  0  0  0  0  0  0  0  0
   -4.3362   25.3644  -23.4802 C   0  0  0  0  0  0  0  0  0  0  0  0
   -5.5667   26.0304  -23.6712 N   0  0  0  0  0  0  0  0  0  0  0  0
   -6.0861   26.3460  -22.8544 H   0  0  0  0  0  0  0  0  0  0  0  0
   -5.7485   26.7057  -24.8978 C   0  0  0  0  0  0  0  0  0  0  0  0
   -4.3726   27.1874  -25.3760 C   0  0  0  0  0  0  0  0  0  0  0  0
   -6.3371   25.8832  -26.0025 C   0  0  0  0  0  0  0  0  0  0  0  0
 18 19  1  0  0  0
 19 12  1  0  0  0
 12 13  2  0  0  0
 13 14  1  0  0  0
 14 20  1  0  0  0
 20 21  1  0  0  0
 14 15  2  0  0  0
 15 16  1  0  0  0
 16 17  2  0  0  0
 16  1  1  0  0  0
  1  2  2  0  0  0
  2  3  1  0  0  0
  3  4  2  0  0  0
  4  5  1  0  0  0
  5  6  2  0  0  0
  6  7  1  0  0  0
  7  8  2  0  0  0
  8  9  1  0  0  0
  9 10  2  0  0  0
 10 11  1  0  0  0
 11 28  1  0  0  0
 28 29  1  0  0  0
 29 30  1  0  0  0
 30 32  1  0  0  0
 32 33  1  0  0  0
 32 34  1  0  0  0
  8 22  1  0  0  0
 22 23  1  0  0  0
 23 24  2  0  0  0
 24 25  1  0  0  0
 25 26  1  0  0  0
 25 27  1  0  0  0
 17 12  1  0  0  0
 11  2  1  0  0  0
 27 22  2  0  0  0
 10  5  1  0  0  0
 30 31  1  0  0  0
M  END
> <minimizedAffinity>
-8.23765

> <CNNscore>
0.3607596159

> <CNNaffinity>
7.2877378464

> <CNN_VS>
2.6291215420

> <CNNaffinity_variance>
0.1539816707

$$$$
[H]c1nc2c([H])c([H])/c(=N\c3c([H])c(OC([H])([H])[H])c([H])c(OC([H])([H])[H])c3[H])n(C([H])([H])C([H])([H])N([H])C([H])(C([H])([H])[H])C([H])([H])[H])c2c([H])c1-c1c([H])nn(C([H])([H])[H])c1[H]


 34 37  0  0  0  0  0  0  0  0999 V2000
   -4.6391   21.5144  -20.9140 N   0  0  0  0  0  0  0  0  0  0  0  0
   -5.0552   22.1865  -19.8772 C   0  0  0  0  0  0  0  0  0  0  0  0
   -5.5327   23.4676  -20.0354 C   0  0  0  0  0  0  0  0  0  0  0  0
   -5.9850   24.2289  -18.9776 C   0  0  0  0  0  0  0  0  0  0  0  0
   -5.9510   23.6709  -17.7181 C   0  0  0  0  0  0  0  0  0  0  0  0
   -6.3882   24.4130  -16.6998 N   0  0  0  0  0  0  0  0  0  0  0  0
   -6.3669   23.9033  -15.4681 C   0  0  0  0  0  0  0  0  0  0  0  0
   -5.8942   22.6124  -15.2480 C   0  0  0  0  0  0  0  0  0  0  0  0
   -5.4416   21.8431  -16.2997 C   0  0  0  0  0  0  0  0  0  0  0  0
   -5.4697   22.3813  -17.5620 C   0  0  0  0  0  0  0  0  0  0  0  0
   -5.0323   21.6642  -18.6380 N   0  0  0  0  0  0  0  0  0  0  0  0
   -5.9656   23.2122  -23.9749 C   0  0  0  0  0  0  0  0  0  0  0  0
   -4.8074   23.3296  -24.7134 C   0  0  0  0  0  0  0  0  0  0  0  0
   -3.5942   22.8664  -24.2372 C   0  0  0  0  0  0  0  0  0  0  0  0
   -3.5496   22.2640  -22.9721 C   0  0  0  0  0  0  0  0  0  0  0  0
   -4.6887   22.1313  -22.2093 C   0  0  0  0  0  0  0  0  0  0  0  0
   -5.8683   22.6129  -22.7385 C   0  0  0  0  0  0  0  0  0  0  0  0
   -7.7638   24.8868  -24.0432 C   0  0  0  0  0  0  0  0  0  0  0  0
   -7.1996   23.6854  -24.4633 O   0  0  0  0  0  0  0  0  0  0  0  0
   -2.4569   23.0007  -25.0024 O   0  0  0  0  0  0  0  0  0  0  0  0
   -1.4195   22.0615  -24.8618 C   0  0  0  0  0  0  0  0  0  0  0  0
   -5.8588   22.0294  -13.9117 C   0  0  0  0  0  0  0  0  0  0  0  0
   -6.8749   22.1565  -12.9848 C   0  0  0  0  0  0  0  0  0  0  0  0
   -6.5316   21.5003  -11.8476 N   0  0  0  0  0  0  0  0  0  0  0  0
   -5.3417   20.9846  -12.0658 N   0  0  0  0  0  0  0  0  0  0  0  0
   -4.6159   20.2037  -11.0962 C   0  0  0  0  0  0  0  0  0  0  0  0
   -4.8948   21.2779  -13.2992 C   0  0  0  0  0  0  0  0  0  0  0  0
   -4.5325   20.3159  -18.4478 C   0  0  0  0  0  0  0  0  0  0  0  0
   -5.6443   19.3903  -17.9844 C   0  0  0  0  0  0  0  0  0  0  0  0
   -6.6970   19.3032  -18.9216 N   0  0  0  0  0  0  0  0  0  0  0  0
   -6.4787   19.0491  -19.8830 H   0  0  0  0  0  0  0  0  0  0  0  0
   -7.9850   19.0201  -18.4172 C   0  0  0  0  0  0  0  0  0  0  0  0
   -8.0457   17.5198  -18.1021 C   0  0  0  0  0  0  0  0  0  0  0  0
   -8.3584   19.7502  -17.1637 C   0  0  0  0  0  0  0  0  0  0  0  0
 18 19  1  0  0  0
 19 12  1  0  0  0
 12 13  2  0  0  0
 13 14  1  0  0  0
 14 20  1  0  0  0
 20 21  1  0  0  0
 14 15  2  0  0  0
 15 16  1  0  0  0
 16 17  2  0  0  0
 16  1  1  0  0  0
  1  2  2  0  0  0
  2  3  1  0  0  0
  3  4  2  0  0  0
  4  5  1  0  0  0
  5  6  2  0  0  0
  6  7  1  0  0  0
  7  8  2  0  0  0
  8  9  1  0  0  0
  9 10  2  0  0  0
 10 11  1  0  0  0
 11 28  1  0  0  0
 28 29  1  0  0  0
 29 30  1  0  0  0
 30 32  1  0  0  0
 32 33  1  0  0  0
 32 34  1  0  0  0
  8 22  1  0  0  0
 22 23  1  0  0  0
 23 24  2  0  0  0
 24 25  1  0  0  0
 25 26  1  0  0  0
 25 27  1  0  0  0
 17 12  1  0  0  0
 11  2  1  0  0  0
 27 22  2  0  0  0
 10  5  1  0  0  0
 30 31  1  0  0  0
M  END
> <minimizedAffinity>
-4.65867

> <CNNscore>
0.3014236093

> <CNNaffinity>
6.1424269676

> <CNN_VS>
1.8514724970

> <CNNaffinity_variance>
0.6973358393

$$$$
[H]c1nc(N([H])[H])c(-c2nn(-c3c(Br)c(OC([H])([H])[H])c([H])c(OC([H])([H])[H])c3Br)c(=O)c([H])c2[H])nc1-c1c([H])nn(C([H])([H])[H])c1[H]


 34 37  0  0  0  0  0  0  0  0999 V2000
   -5.6168   23.6554  -25.3502 N   0  0  0  0  0  0  0  0  0  0  0  0
   -4.3296   23.3559  -25.3554 N   0  0  0  0  0  0  0  0  0  0  0  0
   -3.6093   23.1570  -26.4485 C   0  0  0  0  0  0  0  0  0  0  0  0
   -4.2616   23.2735  -27.6740 C   0  0  0  0  0  0  0  0  0  0  0  0
   -5.6064   23.5848  -27.7221 C   0  0  0  0  0  0  0  0  0  0  0  0
   -6.2496   23.7687  -26.5278 C   0  0  0  0  0  0  0  0  0  0  0  0
   -7.4762   24.0535  -26.5414 O   0  0  0  0  0  0  0  0  0  0  0  0
   -2.1943   22.8288  -26.4287 C   0  0  0  0  0  0  0  0  0  0  0  0
   -1.5584   22.4283  -25.3191 N   0  0  0  0  0  0  0  0  0  0  0  0
   -0.2415   22.1291  -25.3284 C   0  0  0  0  0  0  0  0  0  0  0  0
    0.5006   22.2252  -26.4854 C   0  0  0  0  0  0  0  0  0  0  0  0
   -0.1341   22.6271  -27.6023 N   0  0  0  0  0  0  0  0  0  0  0  0
   -1.4660   22.9295  -27.5918 C   0  0  0  0  0  0  0  0  0  0  0  0
   -2.1291   23.3503  -28.7624 N   0  0  0  0  0  0  0  0  0  0  0  0
   -2.2042   24.3575  -28.9696 H   0  0  0  0  0  0  0  0  0  0  0  0
   -2.5382   22.6613  -29.4107 H   0  0  0  0  0  0  0  0  0  0  0  0
    0.4099   21.6960  -24.0945 C   0  0  0  0  0  0  0  0  0  0  0  0
   -0.1699   21.4645  -22.8591 C   0  0  0  0  0  0  0  0  0  0  0  0
    0.8037   21.0833  -22.0223 N   0  0  0  0  0  0  0  0  0  0  0  0
    1.9724   21.0519  -22.6296 N   0  0  0  0  0  0  0  0  0  0  0  0
    3.2662   20.6855  -22.0484 C   0  0  0  0  0  0  0  0  0  0  0  0
    1.7511   21.4260  -23.9068 C   0  0  0  0  0  0  0  0  0  0  0  0
   -7.4060   25.2684  -22.5059 C   0  0  0  0  0  0  0  0  0  0  0  0
   -7.8128   24.1834  -21.7654 C   0  0  0  0  0  0  0  0  0  0  0  0
   -7.4878   22.9264  -22.2198 C   0  0  0  0  0  0  0  0  0  0  0  0
   -6.7780   22.7835  -23.3805 C   0  0  0  0  0  0  0  0  0  0  0  0
   -6.3283   21.0320  -24.0083 Br  0  0  0  0  0  0  0  0  0  0  0  0
   -6.3531   23.8613  -24.1501 C   0  0  0  0  0  0  0  0  0  0  0  0
   -6.6913   25.1108  -23.6735 C   0  0  0  0  0  0  0  0  0  0  0  0
   -6.1370   26.6278  -24.6846 Br  0  0  0  0  0  0  0  0  0  0  0  0
   -8.4274   26.7420  -20.8550 C   0  0  0  0  0  0  0  0  0  0  0  0
   -7.7239   26.5397  -22.0641 O   0  0  0  0  0  0  0  0  0  0  0  0
   -7.8914   21.8252  -21.4837 O   0  0  0  0  0  0  0  0  0  0  0  0
   -8.8181   21.9676  -20.4008 C   0  0  0  0  0  0  0  0  0  0  0  0
 31 32  1  0  0  0
 32 23  1  0  0  0
 23 24  2  0  0  0
 24 25  1  0  0  0
 25 33  1  0  0  0
 33 34  1  0  0  0
 25 26  2  0  0  0
 26 27  1  0  0  0
 26 28  1  0  0  0
 28 29  2  0  0  0
 29 30  1  0  0  0
 28  1  1  0  0  0
  1  2  1  0  0  0
  2  3  2  0  0  0
  3  4  1  0  0  0
  4  5  2  0  0  0
  5  6  1  0  0  0
  6  7  2  0  0  0
  3  8  1  0  0  0
  8  9  2  0  0  0
  9 10  1  0  0  0
 10 11  2  0  0  0
 11 12  1  0  0  0
 12 13  2  0  0  0
 13 14  1  0  0  0
 10 17  1  0  0  0
 17 18  1  0  0  0
 18 19  2  0  0  0
 19 20  1  0  0  0
 20 21  1  0  0  0
 20 22  1  0  0  0
 29 23  1  0  0  0
  6  1  1  0  0  0
 13  8  1  0  0  0
 22 17  2  0  0  0
 14 15  1  0  0  0
 14 16  1  0  0  0
M  END
> <minimizedAffinity>
-8.99837

> <CNNscore>
0.8484444022

> <CNNaffinity>
7.8505363464

> <CNN_VS>
6.6607437134

> <CNNaffinity_variance>
0.1354784817

$$$$
[H]c1nc(N([H])[H])c(-c2nn(-c3c(Br)c(OC([H])([H])[H])c([H])c(OC([H])([H])[H])c3Br)c(=O)c([H])c2[H])nc1-c1c([H])nn(C([H])([H])[H])c1[H]


 34 37  0  0  0  0  0  0  0  0999 V2000
   -8.0435   22.9168  -19.7409 N   0  0  0  0  0  0  0  0  0  0  0  0
   -7.6020   23.3317  -18.5664 N   0  0  0  0  0  0  0  0  0  0  0  0
   -7.3448   22.5384  -17.5378 C   0  0  0  0  0  0  0  0  0  0  0  0
   -7.5571   21.1730  -17.7148 C   0  0  0  0  0  0  0  0  0  0  0  0
   -8.0179   20.6891  -18.9236 C   0  0  0  0  0  0  0  0  0  0  0  0
   -8.2496   21.6027  -19.9164 C   0  0  0  0  0  0  0  0  0  0  0  0
   -8.6702   21.1898  -21.0293 O   0  0  0  0  0  0  0  0  0  0  0  0
   -6.8595   23.0185  -16.2556 C   0  0  0  0  0  0  0  0  0  0  0  0
   -7.6754   23.2945  -15.2288 N   0  0  0  0  0  0  0  0  0  0  0  0
   -7.1977   23.7398  -14.0467 C   0  0  0  0  0  0  0  0  0  0  0  0
   -5.8466   23.9278  -13.8519 C   0  0  0  0  0  0  0  0  0  0  0  0
   -5.0235   23.6518  -14.8806 N   0  0  0  0  0  0  0  0  0  0  0  0
   -5.5077   23.2015  -16.0757 C   0  0  0  0  0  0  0  0  0  0  0  0
   -4.6442   22.9131  -17.1520 N   0  0  0  0  0  0  0  0  0  0  0  0
   -4.4378   23.6451  -17.8481 H   0  0  0  0  0  0  0  0  0  0  0  0
   -4.2189   21.9792  -17.2483 H   0  0  0  0  0  0  0  0  0  0  0  0
   -8.1248   24.0275  -12.9548 C   0  0  0  0  0  0  0  0  0  0  0  0
   -9.1423   24.9654  -12.9238 C   0  0  0  0  0  0  0  0  0  0  0  0
   -9.7327   24.8797  -11.7249 N   0  0  0  0  0  0  0  0  0  0  0  0
   -9.1687   23.9523  -10.9783 N   0  0  0  0  0  0  0  0  0  0  0  0
   -9.5342   23.5668   -9.6131 C   0  0  0  0  0  0  0  0  0  0  0  0
   -8.1761   23.4157  -11.7178 C   0  0  0  0  0  0  0  0  0  0  0  0
   -7.6399   25.0709  -22.7558 C   0  0  0  0  0  0  0  0  0  0  0  0
   -8.9103   25.5675  -22.9307 C   0  0  0  0  0  0  0  0  0  0  0  0
   -9.8881   25.1806  -22.0440 C   0  0  0  0  0  0  0  0  0  0  0  0
   -9.5819   24.3235  -21.0226 C   0  0  0  0  0  0  0  0  0  0  0  0
  -10.9463   23.7884  -19.7914 Br  0  0  0  0  0  0  0  0  0  0  0  0
   -8.3071   23.8053  -20.8206 C   0  0  0  0  0  0  0  0  0  0  0  0
   -7.3444   24.2081  -21.7227 C   0  0  0  0  0  0  0  0  0  0  0  0
   -5.5772   23.5318  -21.4981 Br  0  0  0  0  0  0  0  0  0  0  0  0
   -6.9138   25.6363  -25.0127 C   0  0  0  0  0  0  0  0  0  0  0  0
   -6.6442   25.4492  -23.6379 O   0  0  0  0  0  0  0  0  0  0  0  0
  -11.1718   25.6732  -22.2087 O   0  0  0  0  0  0  0  0  0  0  0  0
  -11.3931   27.0582  -22.4988 C   0  0  0  0  0  0  0  0  0  0  0  0
 31 32  1  0  0  0
 32 23  1  0  0  0
 23 24  2  0  0  0
 24 25  1  0  0  0
 25 33  1  0  0  0
 33 34  1  0  0  0
 25 26  2  0  0  0
 26 27  1  0  0  0
 26 28  1  0  0  0
 28 29  2  0  0  0
 29 30  1  0  0  0
 28  1  1  0  0  0
  1  2  1  0  0  0
  2  3  2  0  0  0
  3  4  1  0  0  0
  4  5  2  0  0  0
  5  6  1  0  0  0
  6  7  2  0  0  0
  3  8  1  0  0  0
  8  9  2  0  0  0
  9 10  1  0  0  0
 10 11  2  0  0  0
 11 12  1  0  0  0
 12 13  2  0  0  0
 13 14  1  0  0  0
 10 17  1  0  0  0
 17 18  1  0  0  0
 18 19  2  0  0  0
 19 20  1  0  0  0
 20 21  1  0  0  0
 20 22  1  0  0  0
 29 23  1  0  0  0
  6  1  1  0  0  0
 13  8  1  0  0  0
 22 17  2  0  0  0
 14 15  1  0  0  0
 14 16  1  0  0  0
M  END
> <minimizedAffinity>
-5.88891

> <CNNscore>
0.1691608578

> <CNNaffinity>
5.8588342667

> <CNN_VS>
0.9910854101

> <CNNaffinity_variance>
0.0782499537

$$$$
[H]c1nc(N([H])[H])c(-c2nn(-c3c(Br)c(OC([H])([H])[H])c([H])c(OC([H])([H])[H])c3Br)c(=O)c([H])c2[H])nc1-c1c([H])nn(C([H])([H])[H])c1[H]


 34 37  0  0  0  0  0  0  0  0999 V2000
   -6.1069   21.9551  -19.9278 N   0  0  0  0  0  0  0  0  0  0  0  0
   -4.9427   21.9236  -20.5525 N   0  0  0  0  0  0  0  0  0  0  0  0
   -4.7966   21.8035  -21.8630 C   0  0  0  0  0  0  0  0  0  0  0  0
   -5.9560   21.7038  -22.6290 C   0  0  0  0  0  0  0  0  0  0  0  0
   -7.1972   21.7316  -22.0237 C   0  0  0  0  0  0  0  0  0  0  0  0
   -7.2264   21.8594  -20.6611 C   0  0  0  0  0  0  0  0  0  0  0  0
   -8.3445   21.8876  -20.0822 O   0  0  0  0  0  0  0  0  0  0  0  0
   -3.5051   21.7716  -22.5271 C   0  0  0  0  0  0  0  0  0  0  0  0
   -3.3461   22.0899  -23.8192 N   0  0  0  0  0  0  0  0  0  0  0  0
   -2.1334   22.0518  -24.4122 C   0  0  0  0  0  0  0  0  0  0  0  0
   -1.0090   21.6823  -23.7068 C   0  0  0  0  0  0  0  0  0  0  0  0
   -1.1640   21.3618  -22.4086 N   0  0  0  0  0  0  0  0  0  0  0  0
   -2.3910   21.4006  -21.8099 C   0  0  0  0  0  0  0  0  0  0  0  0
   -2.5515   21.0646  -20.4503 N   0  0  0  0  0  0  0  0  0  0  0  0
   -2.7835   20.0941  -20.1908 H   0  0  0  0  0  0  0  0  0  0  0  0
   -2.4393   21.7791  -19.7160 H   0  0  0  0  0  0  0  0  0  0  0  0
   -2.0077   22.4077  -25.8236 C   0  0  0  0  0  0  0  0  0  0  0  0
   -3.0196   22.6118  -26.7458 C   0  0  0  0  0  0  0  0  0  0  0  0
   -2.4432   22.9191  -27.9149 N   0  0  0  0  0  0  0  0  0  0  0  0
   -1.1297   22.9281  -27.8137 N   0  0  0  0  0  0  0  0  0  0  0  0
   -0.1589   23.2180  -28.8718 C   0  0  0  0  0  0  0  0  0  0  0  0
   -0.8414   22.6155  -26.5333 C   0  0  0  0  0  0  0  0  0  0  0  0
   -6.4423   23.3859  -16.5025 C   0  0  0  0  0  0  0  0  0  0  0  0
   -6.4330   22.2591  -15.7144 C   0  0  0  0  0  0  0  0  0  0  0  0
   -6.3154   21.0349  -16.3304 C   0  0  0  0  0  0  0  0  0  0  0  0
   -6.2117   20.9643  -17.6927 C   0  0  0  0  0  0  0  0  0  0  0  0
   -6.0481   19.2582  -18.5450 Br  0  0  0  0  0  0  0  0  0  0  0  0
   -6.2180   22.0859  -18.5153 C   0  0  0  0  0  0  0  0  0  0  0  0
   -6.3370   23.3013  -17.8739 C   0  0  0  0  0  0  0  0  0  0  0  0
   -6.3517   24.8753  -18.9476 Br  0  0  0  0  0  0  0  0  0  0  0  0
   -6.4987   24.7672  -14.4951 C   0  0  0  0  0  0  0  0  0  0  0  0
   -6.5598   24.6253  -15.9001 O   0  0  0  0  0  0  0  0  0  0  0  0
   -6.3048   19.8920  -15.5485 O   0  0  0  0  0  0  0  0  0  0  0  0
   -6.3113   19.9825  -14.1191 C   0  0  0  0  0  0  0  0  0  0  0  0
 31 32  1  0  0  0
 32 23  1  0  0  0
 23 24  2  0  0  0
 24 25  1  0  0  0
 25 33  1  0  0  0
 33 34  1  0  0  0
 25 26  2  0  0  0
 26 27  1  0  0  0
 26 28  1  0  0  0
 28 29  2  0  0  0
 29 30  1  0  0  0
 28  1  1  0  0  0
  1  2  1  0  0  0
  2  3  2  0  0  0
  3  4  1  0  0  0
  4  5  2  0  0  0
  5  6  1  0  0  0
  6  7  2  0  0  0
  3  8  1  0  0  0
  8  9  2  0  0  0
  9 10  1  0  0  0
 10 11  2  0  0  0
 11 12  1  0  0  0
 12 13  2  0  0  0
 13 14  1  0  0  0
 10 17  1  0  0  0
 17 18  1  0  0  0
 18 19  2  0  0  0
 19 20  1  0  0  0
 20 21  1  0  0  0
 20 22  1  0  0  0
 29 23  1  0  0  0
  6  1  1  0  0  0
 13  8  1  0  0  0
 22 17  2  0  0  0
 14 15  1  0  0  0
 14 16  1  0  0  0
M  END
> <minimizedAffinity>
-6.56751

> <CNNscore>
0.1034558862

> <CNNaffinity>
6.0392937660

> <CNN_VS>
0.6248005033

> <CNNaffinity_variance>
0.0259059109

$$$$
[H]c1nc(N([H])[H])c(-c2nn(-c3c(Br)c(OC([H])([H])[H])c([H])c(OC([H])([H])[H])c3Br)c(=O)c([H])c2[H])nc1-c1c([H])nn(C([H])([H])[H])c1[H]


 34 37  0  0  0  0  0  0  0  0999 V2000
   -1.5376   22.0132  -22.3085 N   0  0  0  0  0  0  0  0  0  0  0  0
   -0.9107   20.8839  -22.0289 N   0  0  0  0  0  0  0  0  0  0  0  0
   -0.1775   20.6803  -20.9453 C   0  0  0  0  0  0  0  0  0  0  0  0
   -0.0644   21.7354  -20.0425 C   0  0  0  0  0  0  0  0  0  0  0  0
   -0.7005   22.9363  -20.2890 C   0  0  0  0  0  0  0  0  0  0  0  0
   -1.4318   23.0322  -21.4422 C   0  0  0  0  0  0  0  0  0  0  0  0
   -2.0227   24.1158  -21.6928 O   0  0  0  0  0  0  0  0  0  0  0  0
    0.5025   19.4288  -20.6596 C   0  0  0  0  0  0  0  0  0  0  0  0
    1.6736   19.0958  -21.2196 N   0  0  0  0  0  0  0  0  0  0  0  0
    2.2847   17.9252  -20.9364 C   0  0  0  0  0  0  0  0  0  0  0  0
    1.7234   17.0255  -20.0565 C   0  0  0  0  0  0  0  0  0  0  0  0
    0.5471   17.3560  -19.4917 N   0  0  0  0  0  0  0  0  0  0  0  0
   -0.0701   18.5401  -19.7789 C   0  0  0  0  0  0  0  0  0  0  0  0
   -1.3020   18.8846  -19.1866 N   0  0  0  0  0  0  0  0  0  0  0  0
   -2.1817   18.6487  -19.6698 H   0  0  0  0  0  0  0  0  0  0  0  0
   -1.3302   19.3689  -18.2772 H   0  0  0  0  0  0  0  0  0  0  0  0
    3.5612   17.6044  -21.5705 C   0  0  0  0  0  0  0  0  0  0  0  0
    4.5844   18.4705  -21.9154 C   0  0  0  0  0  0  0  0  0  0  0  0
    5.5602   17.7404  -22.4705 N   0  0  0  0  0  0  0  0  0  0  0  0
    5.2403   16.4630  -22.5087 N   0  0  0  0  0  0  0  0  0  0  0  0
    6.0459   15.3606  -23.0394 C   0  0  0  0  0  0  0  0  0  0  0  0
    4.0126   16.3585  -21.9591 C   0  0  0  0  0  0  0  0  0  0  0  0
   -4.4132   22.3097  -24.6614 C   0  0  0  0  0  0  0  0  0  0  0  0
   -3.7841   22.5467  -25.8610 C   0  0  0  0  0  0  0  0  0  0  0  0
   -2.4099   22.6056  -25.8749 C   0  0  0  0  0  0  0  0  0  0  0  0
   -1.7082   22.4299  -24.7138 C   0  0  0  0  0  0  0  0  0  0  0  0
    0.2040   22.5127  -24.7387 Br  0  0  0  0  0  0  0  0  0  0  0  0
   -2.3164   22.1888  -23.4864 C   0  0  0  0  0  0  0  0  0  0  0  0
   -3.6947   22.1344  -23.4986 C   0  0  0  0  0  0  0  0  0  0  0  0
   -4.5860   21.8068  -21.8467 Br  0  0  0  0  0  0  0  0  0  0  0  0
   -6.5877   23.3721  -24.9497 C   0  0  0  0  0  0  0  0  0  0  0  0
   -5.7943   22.2473  -24.6287 O   0  0  0  0  0  0  0  0  0  0  0  0
   -1.7638   22.8437  -27.0763 O   0  0  0  0  0  0  0  0  0  0  0  0
   -2.5074   22.9860  -28.2923 C   0  0  0  0  0  0  0  0  0  0  0  0
 31 32  1  0  0  0
 32 23  1  0  0  0
 23 24  2  0  0  0
 24 25  1  0  0  0
 25 33  1  0  0  0
 33 34  1  0  0  0
 25 26  2  0  0  0
 26 27  1  0  0  0
 26 28  1  0  0  0
 28 29  2  0  0  0
 29 30  1  0  0  0
 28  1  1  0  0  0
  1  2  1  0  0  0
  2  3  2  0  0  0
  3  4  1  0  0  0
  4  5  2  0  0  0
  5  6  1  0  0  0
  6  7  2  0  0  0
  3  8  1  0  0  0
  8  9  2  0  0  0
  9 10  1  0  0  0
 10 11  2  0  0  0
 11 12  1  0  0  0
 12 13  2  0  0  0
 13 14  1  0  0  0
 10 17  1  0  0  0
 17 18  1  0  0  0
 18 19  2  0  0  0
 19 20  1  0  0  0
 20 21  1  0  0  0
 20 22  1  0  0  0
 29 23  1  0  0  0
  6  1  1  0  0  0
 13  8  1  0  0  0
 22 17  2  0  0  0
 14 15  1  0  0  0
 14 16  1  0  0  0
M  END
> <minimizedAffinity>
-7.12407

> <CNNscore>
0.0800951794

> <CNNaffinity>
6.1637458801

> <CNN_VS>
0.4936863184

> <CNNaffinity_variance>
0.1431778222

$$$$
[H]c1nc(N([H])[H])c(-c2nn(-c3c(Br)c(OC([H])([H])[H])c([H])c(OC([H])([H])[H])c3Br)c(=O)c([H])c2[H])nc1-c1c([H])nn(C([H])([H])[H])c1[H]


 34 37  0  0  0  0  0  0  0  0999 V2000
    1.7834   20.6210  -19.1701 N   0  0  0  0  0  0  0  0  0  0  0  0
    1.1430   21.1281  -20.2090 N   0  0  0  0  0  0  0  0  0  0  0  0
    0.5339   20.4095  -21.1395 C   0  0  0  0  0  0  0  0  0  0  0  0
    0.5761   19.0233  -21.0065 C   0  0  0  0  0  0  0  0  0  0  0  0
    1.2330   18.4443  -19.9383 C   0  0  0  0  0  0  0  0  0  0  0  0
    1.8270   19.2866  -19.0375 C   0  0  0  0  0  0  0  0  0  0  0  0
    2.4330   18.7863  -18.0534 O   0  0  0  0  0  0  0  0  0  0  0  0
   -0.1644   20.9904  -22.2732 C   0  0  0  0  0  0  0  0  0  0  0  0
   -1.5000   21.0838  -22.3317 N   0  0  0  0  0  0  0  0  0  0  0  0
   -2.1242   21.6286  -23.3981 C   0  0  0  0  0  0  0  0  0  0  0  0
   -1.4068   22.1111  -24.4710 C   0  0  0  0  0  0  0  0  0  0  0  0
   -0.0649   22.0193  -24.4165 N   0  0  0  0  0  0  0  0  0  0  0  0
    0.5653   21.4680  -23.3374 C   0  0  0  0  0  0  0  0  0  0  0  0
    1.9706   21.3726  -23.2821 N   0  0  0  0  0  0  0  0  0  0  0  0
    2.4354   20.5160  -23.6183 H   0  0  0  0  0  0  0  0  0  0  0  0
    2.5354   22.1500  -22.9092 H   0  0  0  0  0  0  0  0  0  0  0  0
   -3.5828   21.7099  -23.4181 C   0  0  0  0  0  0  0  0  0  0  0  0
   -4.4659   21.0079  -24.2202 C   0  0  0  0  0  0  0  0  0  0  0  0
   -5.7043   21.4011  -23.8959 N   0  0  0  0  0  0  0  0  0  0  0  0
   -5.6844   22.3078  -22.9404 N   0  0  0  0  0  0  0  0  0  0  0  0
   -6.8340   22.9734  -22.3228 C   0  0  0  0  0  0  0  0  0  0  0  0
   -4.3868   22.5119  -22.6323 C   0  0  0  0  0  0  0  0  0  0  0  0
    4.2958   22.6969  -17.3615 C   0  0  0  0  0  0  0  0  0  0  0  0
    3.6229   23.0299  -16.2094 C   0  0  0  0  0  0  0  0  0  0  0  0
    2.3402   22.5606  -16.0461 C   0  0  0  0  0  0  0  0  0  0  0  0
    1.7694   21.7846  -17.0174 C   0  0  0  0  0  0  0  0  0  0  0  0
   -0.0158   21.1339  -16.7850 Br  0  0  0  0  0  0  0  0  0  0  0  0
    2.4249   21.4315  -18.1922 C   0  0  0  0  0  0  0  0  0  0  0  0
    3.7094   21.9143  -18.3324 C   0  0  0  0  0  0  0  0  0  0  0  0
    4.6597   21.4643  -19.9214 Br  0  0  0  0  0  0  0  0  0  0  0  0
    5.8559   24.5385  -17.7011 C   0  0  0  0  0  0  0  0  0  0  0  0
    5.5863   23.1601  -17.5426 O   0  0  0  0  0  0  0  0  0  0  0  0
    1.6512   22.8886  -14.8906 O   0  0  0  0  0  0  0  0  0  0  0  0
    2.2994   23.5958  -13.8270 C   0  0  0  0  0  0  0  0  0  0  0  0
 31 32  1  0  0  0
 32 23  1  0  0  0
 23 24  2  0  0  0
 24 25  1  0  0  0
 25 33  1  0  0  0
 33 34  1  0  0  0
 25 26  2  0  0  0
 26 27  1  0  0  0
 26 28  1  0  0  0
 28 29  2  0  0  0
 29 30  1  0  0  0
 28  1  1  0  0  0
  1  2  1  0  0  0
  2  3  2  0  0  0
  3  4  1  0  0  0
  4  5  2  0  0  0
  5  6  1  0  0  0
  6  7  2  0  0  0
  3  8  1  0  0  0
  8  9  2  0  0  0
  9 10  1  0  0  0
 10 11  2  0  0  0
 11 12  1  0  0  0
 12 13  2  0  0  0
 13 14  1  0  0  0
 10 17  1  0  0  0
 17 18  1  0  0  0
 18 19  2  0  0  0
 19 20  1  0  0  0
 20 21  1  0  0  0
 20 22  1  0  0  0
 29 23  1  0  0  0
  6  1  1  0  0  0
 13  8  1  0  0  0
 22 17  2  0  0  0
 14 15  1  0  0  0
 14 16  1  0  0  0
M  END
> <minimizedAffinity>
-6.21302

> <CNNscore>
0.0719995648

> <CNNaffinity>
5.9775362015

> <CNN_VS>
0.4303800166

> <CNNaffinity_variance>
0.2314614356

$$$$
[H]c1nc(N([H])[H])c(-c2nn(-c3c(Br)c(OC([H])([H])[H])c([H])c(OC([H])([H])[H])c3Br)c(=O)c([H])c2[H])nc1-c1c([H])nn(C([H])([H])[H])c1[H]


 34 37  0  0  0  0  0  0  0  0999 V2000
    1.1694   19.7196  -20.4902 N   0  0  0  0  0  0  0  0  0  0  0  0
    0.6225   20.0601  -21.6442 N   0  0  0  0  0  0  0  0  0  0  0  0
   -0.0353   21.1890  -21.8594 C   0  0  0  0  0  0  0  0  0  0  0  0
   -0.1544   22.0734  -20.7896 C   0  0  0  0  0  0  0  0  0  0  0  0
    0.3996   21.7638  -19.5629 C   0  0  0  0  0  0  0  0  0  0  0  0
    1.0574   20.5680  -19.4569 C   0  0  0  0  0  0  0  0  0  0  0  0
    1.5726   20.2595  -18.3499 O   0  0  0  0  0  0  0  0  0  0  0  0
   -0.6280   21.5414  -23.1380 C   0  0  0  0  0  0  0  0  0  0  0  0
   -1.9494   21.6837  -23.3099 N   0  0  0  0  0  0  0  0  0  0  0  0
   -2.4745   22.0121  -24.5100 C   0  0  0  0  0  0  0  0  0  0  0  0
   -1.6664   22.2139  -25.6077 C   0  0  0  0  0  0  0  0  0  0  0  0
   -0.3385   22.0719  -25.4395 N   0  0  0  0  0  0  0  0  0  0  0  0
    0.1915   21.7398  -24.2253 C   0  0  0  0  0  0  0  0  0  0  0  0
    1.5824   21.5915  -24.0511 N   0  0  0  0  0  0  0  0  0  0  0  0
    2.0120   20.6608  -24.1618 H   0  0  0  0  0  0  0  0  0  0  0  0
    2.1716   22.4035  -23.8145 H   0  0  0  0  0  0  0  0  0  0  0  0
   -3.9215   22.1569  -24.6505 C   0  0  0  0  0  0  0  0  0  0  0  0
   -4.9171   21.4248  -24.0269 C   0  0  0  0  0  0  0  0  0  0  0  0
   -6.0941   21.9018  -24.4519 N   0  0  0  0  0  0  0  0  0  0  0  0
   -5.9298   22.8911  -25.3063 N   0  0  0  0  0  0  0  0  0  0  0  0
   -6.9745   23.6624  -25.9844 C   0  0  0  0  0  0  0  0  0  0  0  0
   -4.5986   23.0636  -25.4420 C   0  0  0  0  0  0  0  0  0  0  0  0
    3.8139   17.0931  -20.5115 C   0  0  0  0  0  0  0  0  0  0  0  0
    3.1819   16.0390  -19.8947 C   0  0  0  0  0  0  0  0  0  0  0  0
    1.8825   16.2128  -19.4780 C   0  0  0  0  0  0  0  0  0  0  0  0
    1.2556   17.4114  -19.6824 C   0  0  0  0  0  0  0  0  0  0  0  0
   -0.5527   17.6479  -19.1007 Br  0  0  0  0  0  0  0  0  0  0  0  0
    1.8687   18.4947  -20.3029 C   0  0  0  0  0  0  0  0  0  0  0  0
    3.1711   18.2955  -20.7114 C   0  0  0  0  0  0  0  0  0  0  0  0
    4.0652   19.7435  -21.5685 Br  0  0  0  0  0  0  0  0  0  0  0  0
    5.4312   16.1790  -22.0892 C   0  0  0  0  0  0  0  0  0  0  0  0
    5.1204   16.9362  -20.9369 O   0  0  0  0  0  0  0  0  0  0  0  0
    1.2343   15.1593  -18.8554 O   0  0  0  0  0  0  0  0  0  0  0  0
    1.5300   14.8180  -17.4961 C   0  0  0  0  0  0  0  0  0  0  0  0
 31 32  1  0  0  0
 32 23  1  0  0  0
 23 24  2  0  0  0
 24 25  1  0  0  0
 25 33  1  0  0  0
 33 34  1  0  0  0
 25 26  2  0  0  0
 26 27  1  0  0  0
 26 28  1  0  0  0
 28 29  2  0  0  0
 29 30  1  0  0  0
 28  1  1  0  0  0
  1  2  1  0  0  0
  2  3  2  0  0  0
  3  4  1  0  0  0
  4  5  2  0  0  0
  5  6  1  0  0  0
  6  7  2  0  0  0
  3  8  1  0  0  0
  8  9  2  0  0  0
  9 10  1  0  0  0
 10 11  2  0  0  0
 11 12  1  0  0  0
 12 13  2  0  0  0
 13 14  1  0  0  0
 10 17  1  0  0  0
 17 18  1  0  0  0
 18 19  2  0  0  0
 19 20  1  0  0  0
 20 21  1  0  0  0
 20 22  1  0  0  0
 29 23  1  0  0  0
  6  1  1  0  0  0
 13  8  1  0  0  0
 22 17  2  0  0  0
 14 15  1  0  0  0
 14 16  1  0  0  0
M  END
> <minimizedAffinity>
-6.02360

> <CNNscore>
0.0652011558

> <CNNaffinity>
6.2062392235

> <CNN_VS>
0.4046539664

> <CNNaffinity_variance>
0.1426832378

$$$$
[H]c1nc(N([H])[H])c(-c2nn(-c3c(Br)c(OC([H])([H])[H])c([H])c(OC([H])([H])[H])c3Br)c(=O)c([H])c2[H])nc1-c1c([H])nn(C([H])([H])[H])c1[H]


 34 37  0  0  0  0  0  0  0  0999 V2000
    0.7957   20.6973  -20.4005 N   0  0  0  0  0  0  0  0  0  0  0  0
    1.3267   21.5256  -19.5181 N   0  0  0  0  0  0  0  0  0  0  0  0
    1.9746   21.1465  -18.4274 C   0  0  0  0  0  0  0  0  0  0  0  0
    2.1007   19.7775  -18.2020 C   0  0  0  0  0  0  0  0  0  0  0  0
    1.5632   18.8707  -19.0945 C   0  0  0  0  0  0  0  0  0  0  0  0
    0.9144   19.3779  -20.1880 C   0  0  0  0  0  0  0  0  0  0  0  0
    0.4144   18.5742  -21.0187 O   0  0  0  0  0  0  0  0  0  0  0  0
    2.5502   22.0767  -17.4715 C   0  0  0  0  0  0  0  0  0  0  0  0
    2.0844   22.2135  -16.2224 N   0  0  0  0  0  0  0  0  0  0  0  0
    2.6384   23.0864  -15.3534 C   0  0  0  0  0  0  0  0  0  0  0  0
    3.7085   23.8726  -15.7213 C   0  0  0  0  0  0  0  0  0  0  0  0
    4.1795   23.7384  -16.9752 N   0  0  0  0  0  0  0  0  0  0  0  0
    3.6185   22.8554  -17.8532 C   0  0  0  0  0  0  0  0  0  0  0  0
    4.1130   22.7162  -19.1659 N   0  0  0  0  0  0  0  0  0  0  0  0
    3.7014   23.2780  -19.9261 H   0  0  0  0  0  0  0  0  0  0  0  0
    4.8804   22.0594  -19.3711 H   0  0  0  0  0  0  0  0  0  0  0  0
    2.0976   23.2014  -14.0011 C   0  0  0  0  0  0  0  0  0  0  0  0
    1.0960   22.4466  -13.4153 C   0  0  0  0  0  0  0  0  0  0  0  0
    0.9280   22.9000  -12.1665 N   0  0  0  0  0  0  0  0  0  0  0  0
    1.7506   23.8948  -11.9032 N   0  0  0  0  0  0  0  0  0  0  0  0
    1.8648   24.6457  -10.6506 C   0  0  0  0  0  0  0  0  0  0  0  0
    2.4794   24.0958  -13.0206 C   0  0  0  0  0  0  0  0  0  0  0  0
   -1.8642   21.9095  -22.7132 C   0  0  0  0  0  0  0  0  0  0  0  0
   -1.1823   22.0344  -23.9008 C   0  0  0  0  0  0  0  0  0  0  0  0
    0.1554   21.7142  -23.9201 C   0  0  0  0  0  0  0  0  0  0  0  0
    0.7702   21.2849  -22.7759 C   0  0  0  0  0  0  0  0  0  0  0  0
    2.6318   20.8405  -22.8082 Br  0  0  0  0  0  0  0  0  0  0  0  0
    0.1070   21.1487  -21.5610 C   0  0  0  0  0  0  0  0  0  0  0  0
   -1.2331   21.4758  -21.5675 C   0  0  0  0  0  0  0  0  0  0  0  0
   -2.1967   21.3095  -19.9321 Br  0  0  0  0  0  0  0  0  0  0  0  0
   -4.1710   21.4290  -23.3361 C   0  0  0  0  0  0  0  0  0  0  0  0
   -3.2097   22.2270  -22.6753 O   0  0  0  0  0  0  0  0  0  0  0  0
    0.8540   21.8356  -25.1095 O   0  0  0  0  0  0  0  0  0  0  0  0
    0.1911   22.2514  -26.3092 C   0  0  0  0  0  0  0  0  0  0  0  0
 31 32  1  0  0  0
 32 23  1  0  0  0
 23 24  2  0  0  0
 24 25  1  0  0  0
 25 33  1  0  0  0
 33 34  1  0  0  0
 25 26  2  0  0  0
 26 27  1  0  0  0
 26 28  1  0  0  0
 28 29  2  0  0  0
 29 30  1  0  0  0
 28  1  1  0  0  0
  1  2  1  0  0  0
  2  3  2  0  0  0
  3  4  1  0  0  0
  4  5  2  0  0  0
  5  6  1  0  0  0
  6  7  2  0  0  0
  3  8  1  0  0  0
  8  9  2  0  0  0
  9 10  1  0  0  0
 10 11  2  0  0  0
 11 12  1  0  0  0
 12 13  2  0  0  0
 13 14  1  0  0  0
 10 17  1  0  0  0
 17 18  1  0  0  0
 18 19  2  0  0  0
 19 20  1  0  0  0
 20 21  1  0  0  0
 20 22  1  0  0  0
 29 23  1  0  0  0
  6  1  1  0  0  0
 13  8  1  0  0  0
 22 17  2  0  0  0
 14 15  1  0  0  0
 14 16  1  0  0  0
M  END
> <minimizedAffinity>
-6.35360

> <CNNscore>
0.0637332052

> <CNNaffinity>
5.6857142448

> <CNN_VS>
0.3623687923

> <CNNaffinity_variance>
0.0699272007

$$$$
[H]c1nc(N([H])[H])c(-c2nn(-c3c(Br)c(OC([H])([H])[H])c([H])c(OC([H])([H])[H])c3Br)c(=O)c([H])c2[H])nc1-c1c([H])nn(C([H])([H])[H])c1[H]


 34 37  0  0  0  0  0  0  0  0999 V2000
   -4.6322   23.0844  -21.8176 N   0  0  0  0  0  0  0  0  0  0  0  0
   -4.1888   22.7703  -23.0224 N   0  0  0  0  0  0  0  0  0  0  0  0
   -3.9506   23.6458  -23.9868 C   0  0  0  0  0  0  0  0  0  0  0  0
   -4.1867   24.9893  -23.7032 C   0  0  0  0  0  0  0  0  0  0  0  0
   -4.6505   25.3690  -22.4589 C   0  0  0  0  0  0  0  0  0  0  0  0
   -4.8612   24.3768  -21.5397 C   0  0  0  0  0  0  0  0  0  0  0  0
   -5.2839   24.6940  -20.3965 O   0  0  0  0  0  0  0  0  0  0  0  0
   -3.4628   23.2760  -25.3041 C   0  0  0  0  0  0  0  0  0  0  0  0
   -4.1044   23.6054  -26.4337 N   0  0  0  0  0  0  0  0  0  0  0  0
   -3.6286   23.2487  -27.6462 C   0  0  0  0  0  0  0  0  0  0  0  0
   -2.4598   22.5291  -27.7671 C   0  0  0  0  0  0  0  0  0  0  0  0
   -1.8121   22.1961  -26.6350 N   0  0  0  0  0  0  0  0  0  0  0  0
   -2.2942   22.5573  -25.4092 C   0  0  0  0  0  0  0  0  0  0  0  0
   -1.6146   22.2076  -24.2248 N   0  0  0  0  0  0  0  0  0  0  0  0
   -1.8617   21.3340  -23.7362 H   0  0  0  0  0  0  0  0  0  0  0  0
   -0.8751   22.8165  -23.8444 H   0  0  0  0  0  0  0  0  0  0  0  0
   -4.3617   23.6303  -28.8510 C   0  0  0  0  0  0  0  0  0  0  0  0
   -5.1959   22.8446  -29.6273 C   0  0  0  0  0  0  0  0  0  0  0  0
   -5.6500   23.6076  -30.6298 N   0  0  0  0  0  0  0  0  0  0  0  0
   -5.1682   24.8315  -30.5565 N   0  0  0  0  0  0  0  0  0  0  0  0
   -5.4335   25.9470  -31.4682 C   0  0  0  0  0  0  0  0  0  0  0  0
   -4.3724   24.8659  -29.4676 C   0  0  0  0  0  0  0  0  0  0  0  0
   -4.1716   20.6959  -18.9935 C   0  0  0  0  0  0  0  0  0  0  0  0
   -5.4366   20.1790  -18.8404 C   0  0  0  0  0  0  0  0  0  0  0  0
   -6.4299   20.6303  -19.6781 C   0  0  0  0  0  0  0  0  0  0  0  0
   -6.1437   21.5691  -20.6312 C   0  0  0  0  0  0  0  0  0  0  0  0
   -7.5296   22.1937  -21.7945 Br  0  0  0  0  0  0  0  0  0  0  0  0
   -4.8747   22.1098  -20.8096 C   0  0  0  0  0  0  0  0  0  0  0  0
   -3.8963   21.6412  -19.9576 C   0  0  0  0  0  0  0  0  0  0  0  0
   -2.1362   22.3445  -20.1531 Br  0  0  0  0  0  0  0  0  0  0  0  0
   -3.0380   18.8885  -17.8151 C   0  0  0  0  0  0  0  0  0  0  0  0
   -3.1605   20.2537  -18.1599 O   0  0  0  0  0  0  0  0  0  0  0  0
   -7.7084   20.1181  -19.5347 O   0  0  0  0  0  0  0  0  0  0  0  0
   -8.4356   20.2951  -18.3134 C   0  0  0  0  0  0  0  0  0  0  0  0
 31 32  1  0  0  0
 32 23  1  0  0  0
 23 24  2  0  0  0
 24 25  1  0  0  0
 25 33  1  0  0  0
 33 34  1  0  0  0
 25 26  2  0  0  0
 26 27  1  0  0  0
 26 28  1  0  0  0
 28 29  2  0  0  0
 29 30  1  0  0  0
 28  1  1  0  0  0
  1  2  1  0  0  0
  2  3  2  0  0  0
  3  4  1  0  0  0
  4  5  2  0  0  0
  5  6  1  0  0  0
  6  7  2  0  0  0
  3  8  1  0  0  0
  8  9  2  0  0  0
  9 10  1  0  0  0
 10 11  2  0  0  0
 11 12  1  0  0  0
 12 13  2  0  0  0
 13 14  1  0  0  0
 10 17  1  0  0  0
 17 18  1  0  0  0
 18 19  2  0  0  0
 19 20  1  0  0  0
 20 21  1  0  0  0
 20 22  1  0  0  0
 29 23  1  0  0  0
  6  1  1  0  0  0
 13  8  1  0  0  0
 22 17  2  0  0  0
 14 15  1  0  0  0
 14 16  1  0  0  0
M  END
> <minimizedAffinity>
-8.02153

> <CNNscore>
0.0634063184

> <CNNaffinity>
6.8332061768

> <CNN_VS>
0.4332684577

> <CNNaffinity_variance>
0.3846973777

$$$$
[H]c1nc(N([H])[H])c(-c2nn(-c3c(Br)c(OC([H])([H])[H])c([H])c(OC([H])([H])[H])c3Br)c(=O)c([H])c2[H])nc1-c1c([H])nn(C([H])([H])[H])c1[H]


 34 37  0  0  0  0  0  0  0  0999 V2000
   -4.6047   23.1248  -21.8808 N   0  0  0  0  0  0  0  0  0  0  0  0
   -4.1674   22.8120  -23.0881 N   0  0  0  0  0  0  0  0  0  0  0  0
   -3.9246   23.6895  -24.0495 C   0  0  0  0  0  0  0  0  0  0  0  0
   -4.1484   25.0337  -23.7597 C   0  0  0  0  0  0  0  0  0  0  0  0
   -4.6053   25.4122  -22.5124 C   0  0  0  0  0  0  0  0  0  0  0  0
   -4.8217   24.4179  -21.5967 C   0  0  0  0  0  0  0  0  0  0  0  0
   -5.2384   24.7339  -20.4511 O   0  0  0  0  0  0  0  0  0  0  0  0
   -3.4437   23.3211  -25.3699 C   0  0  0  0  0  0  0  0  0  0  0  0
   -4.0915   23.6513  -26.4956 N   0  0  0  0  0  0  0  0  0  0  0  0
   -3.6222   23.2960  -27.7110 C   0  0  0  0  0  0  0  0  0  0  0  0
   -2.4538   22.5769  -27.8389 C   0  0  0  0  0  0  0  0  0  0  0  0
   -1.7998   22.2431  -26.7107 N   0  0  0  0  0  0  0  0  0  0  0  0
   -2.2754   22.6030  -25.4820 C   0  0  0  0  0  0  0  0  0  0  0  0
   -1.5893   22.2525  -24.3015 N   0  0  0  0  0  0  0  0  0  0  0  0
   -1.8334   21.3783  -23.8125 H   0  0  0  0  0  0  0  0  0  0  0  0
   -0.8479   22.8613  -23.9246 H   0  0  0  0  0  0  0  0  0  0  0  0
   -4.3619   23.6785  -28.9115 C   0  0  0  0  0  0  0  0  0  0  0  0
   -5.1968   22.8920  -29.6864 C   0  0  0  0  0  0  0  0  0  0  0  0
   -5.6580   23.6562  -30.6847 N   0  0  0  0  0  0  0  0  0  0  0  0
   -5.1802   24.8817  -30.6100 N   0  0  0  0  0  0  0  0  0  0  0  0
   -5.4535   25.9989  -31.5173 C   0  0  0  0  0  0  0  0  0  0  0  0
   -4.3797   24.9158  -29.5245 C   0  0  0  0  0  0  0  0  0  0  0  0
   -6.2897   20.6338  -19.6788 C   0  0  0  0  0  0  0  0  0  0  0  0
   -5.2602   20.2208  -18.8660 C   0  0  0  0  0  0  0  0  0  0  0  0
   -4.0161   20.7750  -19.0588 C   0  0  0  0  0  0  0  0  0  0  0  0
   -3.8312   21.7108  -20.0394 C   0  0  0  0  0  0  0  0  0  0  0  0
   -2.0980   22.4790  -20.3034 Br  0  0  0  0  0  0  0  0  0  0  0  0
   -4.8525   22.1480  -20.8762 C   0  0  0  0  0  0  0  0  0  0  0  0
   -6.0902   21.5774  -20.6631 C   0  0  0  0  0  0  0  0  0  0  0  0
   -7.5306   22.1361  -21.7785 Br  0  0  0  0  0  0  0  0  0  0  0  0
   -8.3361   20.4152  -18.3732 C   0  0  0  0  0  0  0  0  0  0  0  0
   -7.5473   20.0872  -19.4992 O   0  0  0  0  0  0  0  0  0  0  0  0
   -2.9706   20.3679  -18.2472 O   0  0  0  0  0  0  0  0  0  0  0  0
   -2.8878   20.8041  -16.8854 C   0  0  0  0  0  0  0  0  0  0  0  0
 31 32  1  0  0  0
 32 23  1  0  0  0
 23 24  2  0  0  0
 24 25  1  0  0  0
 25 33  1  0  0  0
 33 34  1  0  0  0
 25 26  2  0  0  0
 26 27  1  0  0  0
 26 28  1  0  0  0
 28 29  2  0  0  0
 29 30  1  0  0  0
 28  1  1  0  0  0
  1  2  1  0  0  0
  2  3  2  0  0  0
  3  4  1  0  0  0
  4  5  2  0  0  0
  5  6  1  0  0  0
  6  7  2  0  0  0
  3  8  1  0  0  0
  8  9  2  0  0  0
  9 10  1  0  0  0
 10 11  2  0  0  0
 11 12  1  0  0  0
 12 13  2  0  0  0
 13 14  1  0  0  0
 10 17  1  0  0  0
 17 18  1  0  0  0
 18 19  2  0  0  0
 19 20  1  0  0  0
 20 21  1  0  0  0
 20 22  1  0  0  0
 29 23  1  0  0  0
  6  1  1  0  0  0
 13  8  1  0  0  0
 22 17  2  0  0  0
 14 15  1  0  0  0
 14 16  1  0  0  0
M  END
> <minimizedAffinity>
-8.02219

> <CNNscore>
0.0599979125

> <CNNaffinity>
6.8267221451

> <CNN_VS>
0.4095890820

> <CNNaffinity_variance>
0.4203514159

$$$$
[H]C([H])=C([H])C(=O)N1C([H])([H])C([H])([H])N(C([H])([H])C([H])([H])n2c(=O)c(-c3c(Cl)c(OC([H])([H])[H])c([H])c(OC([H])([H])[H])c3Cl)c([H])c3c([H])nc(N([H])C([H])([H])[H])nc32)C([H])([H])C1([H])[H]


 38 41  0  0  0  0  0  0  0  0999 V2000
   -0.8930   22.4500  -25.6171 C   0  0  0  0  0  0  0  0  0  0  0  0
    0.4100   22.0878  -25.5436 N   0  0  0  0  0  0  0  0  0  0  0  0
    0.9168   21.6311  -24.3728 C   0  0  0  0  0  0  0  0  0  0  0  0
    0.0594   21.5549  -23.2762 C   0  0  0  0  0  0  0  0  0  0  0  0
    0.5962   21.1074  -22.0874 C   0  0  0  0  0  0  0  0  0  0  0  0
   -0.2395   21.0579  -21.0154 C   0  0  0  0  0  0  0  0  0  0  0  0
   -1.5828   21.4437  -21.1176 C   0  0  0  0  0  0  0  0  0  0  0  0
   -2.3505   21.3924  -20.1106 O   0  0  0  0  0  0  0  0  0  0  0  0
   -2.1028   21.8748  -22.2726 N   0  0  0  0  0  0  0  0  0  0  0  0
   -1.2799   21.9262  -23.3505 C   0  0  0  0  0  0  0  0  0  0  0  0
   -1.6961   22.3642  -24.5464 N   0  0  0  0  0  0  0  0  0  0  0  0
    0.1658   20.6006  -19.7049 C   0  0  0  0  0  0  0  0  0  0  0  0
    0.2244   19.2480  -19.4782 C   0  0  0  0  0  0  0  0  0  0  0  0
   -0.0246   18.0127  -20.6966 Cl  0  0  0  0  0  0  0  0  0  0  0  0
    0.4981   18.7810  -18.1722 C   0  0  0  0  0  0  0  0  0  0  0  0
    0.6977   19.7605  -17.1632 C   0  0  0  0  0  0  0  0  0  0  0  0
    0.6241   21.1137  -17.4695 C   0  0  0  0  0  0  0  0  0  0  0  0
    0.3609   21.5515  -18.7358 C   0  0  0  0  0  0  0  0  0  0  0  0
    0.2876   23.2677  -19.1267 Cl  0  0  0  0  0  0  0  0  0  0  0  0
    0.5742   17.5381  -17.8495 O   0  0  0  0  0  0  0  0  0  0  0  0
    0.4735   16.3317  -17.4102 C   0  0  0  0  0  0  0  0  0  0  0  0
    0.7959   22.1099  -16.5090 O   0  0  0  0  0  0  0  0  0  0  0  0
    2.1083   22.4031  -16.0476 C   0  0  0  0  0  0  0  0  0  0  0  0
   -0.5732   22.9518  -28.0434 C   0  0  0  0  0  0  0  0  0  0  0  0
   -1.3968   22.9405  -26.8532 N   0  0  0  0  0  0  0  0  0  0  0  0
   -2.3731   23.2997  -26.9448 H   0  0  0  0  0  0  0  0  0  0  0  0
   -3.4363   22.4049  -22.3460 C   0  0  0  0  0  0  0  0  0  0  0  0
   -4.1568   22.0042  -23.5821 C   0  0  0  0  0  0  0  0  0  0  0  0
   -5.2894   22.9445  -23.7995 N   0  0  0  0  0  0  0  0  0  0  0  0
   -6.0728   22.4963  -24.9239 C   0  0  0  0  0  0  0  0  0  0  0  0
   -6.5591   23.6971  -25.7399 C   0  0  0  0  0  0  0  0  0  0  0  0
   -5.2404   24.1563  -26.3364 N   0  0  0  0  0  0  0  0  0  0  0  0
   -4.3489   24.6238  -25.3318 C   0  0  0  0  0  0  0  0  0  0  0  0
   -4.7968   24.2745  -23.9451 C   0  0  0  0  0  0  0  0  0  0  0  0
   -5.1373   23.9881  -27.7033 C   0  0  0  0  0  0  0  0  0  0  0  0
   -6.1778   23.3444  -28.2646 O   0  0  0  0  0  0  0  0  0  0  0  0
   -4.1642   24.3490  -28.6716 C   0  0  0  0  0  0  0  0  0  0  0  0
   -3.9276   25.2318  -29.4812 C   0  0  0  0  0  0  0  0  0  0  0  0
 24 25  1  0  0  0
 25  1  1  0  0  0
  1  2  2  0  0  0
  2  3  1  0  0  0
  3  4  2  0  0  0
  4  5  1  0  0  0
  5  6  2  0  0  0
  6 12  1  0  0  0
 12 13  2  0  0  0
 13 14  1  0  0  0
 13 15  1  0  0  0
 15 20  1  0  0  0
 20 21  1  0  0  0
 15 16  2  0  0  0
 16 17  1  0  0  0
 17 22  1  0  0  0
 22 23  1  0  0  0
 17 18  2  0  0  0
 18 19  1  0  0  0
  6  7  1  0  0  0
  7  8  2  0  0  0
  7  9  1  0  0  0
  9 27  1  0  0  0
 27 28  1  0  0  0
 28 29  1  0  0  0
 29 30  1  0  0  0
 30 31  1  0  0  0
 31 32  1  0  0  0
 32 33  1  0  0  0
 33 34  1  0  0  0
 32 35  1  0  0  0
 35 36  2  0  0  0
 35 37  1  0  0  0
 37 38  2  0  0  0
  9 10  1  0  0  0
 10 11  2  0  0  0
 11  1  1  0  0  0
 10  4  1  0  0  0
 18 12  1  0  0  0
 34 29  1  0  0  0
 25 26  1  0  0  0
M  END
> <minimizedAffinity>
-7.25044

> <CNNscore>
0.3132674694

> <CNNaffinity>
7.2236785889

> <CNN_VS>
2.2629435062

> <CNNaffinity_variance>
0.2852167487

$$$$
[H]C([H])=C([H])C(=O)N1C([H])([H])C([H])([H])N(C([H])([H])C([H])([H])n2c(=O)c(-c3c(Cl)c(OC([H])([H])[H])c([H])c(OC([H])([H])[H])c3Cl)c([H])c3c([H])nc(N([H])C([H])([H])[H])nc32)C([H])([H])C1([H])[H]


 38 41  0  0  0  0  0  0  0  0999 V2000
   -4.8916   24.2783  -28.1585 C   0  0  0  0  0  0  0  0  0  0  0  0
   -4.2558   23.1996  -28.6747 N   0  0  0  0  0  0  0  0  0  0  0  0
   -3.3931   22.4938  -27.9041 C   0  0  0  0  0  0  0  0  0  0  0  0
   -3.1937   22.9184  -26.5913 C   0  0  0  0  0  0  0  0  0  0  0  0
   -2.2974   22.2013  -25.8272 C   0  0  0  0  0  0  0  0  0  0  0  0
   -2.0893   22.6347  -24.5548 C   0  0  0  0  0  0  0  0  0  0  0  0
   -2.7566   23.7574  -24.0470 C   0  0  0  0  0  0  0  0  0  0  0  0
   -2.5533   24.1503  -22.8594 O   0  0  0  0  0  0  0  0  0  0  0  0
   -3.6282   24.4503  -24.7888 N   0  0  0  0  0  0  0  0  0  0  0  0
   -3.8468   24.0263  -26.0593 C   0  0  0  0  0  0  0  0  0  0  0  0
   -4.6824   24.6631  -26.8909 N   0  0  0  0  0  0  0  0  0  0  0  0
   -1.1925   21.9856  -23.6246 C   0  0  0  0  0  0  0  0  0  0  0  0
   -1.7139   21.4991  -22.4516 C   0  0  0  0  0  0  0  0  0  0  0  0
   -3.4177   21.4791  -22.0407 Cl  0  0  0  0  0  0  0  0  0  0  0  0
   -0.8371   20.9723  -21.4758 C   0  0  0  0  0  0  0  0  0  0  0  0
    0.5504   20.9819  -21.7796 C   0  0  0  0  0  0  0  0  0  0  0  0
    1.0036   21.4905  -22.9905 C   0  0  0  0  0  0  0  0  0  0  0  0
    0.1456   21.9947  -23.9254 C   0  0  0  0  0  0  0  0  0  0  0  0
    0.7202   22.6210  -25.4686 Cl  0  0  0  0  0  0  0  0  0  0  0  0
   -1.2178   20.4930  -20.3443 O   0  0  0  0  0  0  0  0  0  0  0  0
   -1.4296   20.1182  -19.1306 C   0  0  0  0  0  0  0  0  0  0  0  0
    2.3567   21.5362  -23.3247 O   0  0  0  0  0  0  0  0  0  0  0  0
    3.2030   20.4680  -22.9196 C   0  0  0  0  0  0  0  0  0  0  0  0
   -5.6009   25.0436  -30.4283 C   0  0  0  0  0  0  0  0  0  0  0  0
   -5.7803   25.0111  -28.9924 N   0  0  0  0  0  0  0  0  0  0  0  0
   -6.5905   25.5407  -28.6005 H   0  0  0  0  0  0  0  0  0  0  0  0
   -4.2032   25.6811  -24.3206 C   0  0  0  0  0  0  0  0  0  0  0  0
   -5.6693   25.5924  -24.0958 C   0  0  0  0  0  0  0  0  0  0  0  0
   -5.9389   24.4817  -23.1430 N   0  0  0  0  0  0  0  0  0  0  0  0
   -7.3008   24.0359  -23.3028 C   0  0  0  0  0  0  0  0  0  0  0  0
   -7.9016   23.6780  -21.9407 C   0  0  0  0  0  0  0  0  0  0  0  0
   -8.0100   25.0651  -21.3327 N   0  0  0  0  0  0  0  0  0  0  0  0
   -6.7278   25.6436  -21.1230 C   0  0  0  0  0  0  0  0  0  0  0  0
   -5.6291   24.8945  -21.8140 C   0  0  0  0  0  0  0  0  0  0  0  0
   -9.3031   25.5147  -21.1512 C   0  0  0  0  0  0  0  0  0  0  0  0
  -10.2511   24.6960  -21.6443 O   0  0  0  0  0  0  0  0  0  0  0  0
   -9.8721   26.6670  -20.5486 C   0  0  0  0  0  0  0  0  0  0  0  0
  -10.8895   27.3409  -20.5861 C   0  0  0  0  0  0  0  0  0  0  0  0
 24 25  1  0  0  0
 25  1  1  0  0  0
  1  2  2  0  0  0
  2  3  1  0  0  0
  3  4  2  0  0  0
  4  5  1  0  0  0
  5  6  2  0  0  0
  6 12  1  0  0  0
 12 13  2  0  0  0
 13 14  1  0  0  0
 13 15  1  0  0  0
 15 20  1  0  0  0
 20 21  1  0  0  0
 15 16  2  0  0  0
 16 17  1  0  0  0
 17 22  1  0  0  0
 22 23  1  0  0  0
 17 18  2  0  0  0
 18 19  1  0  0  0
  6  7  1  0  0  0
  7  8  2  0  0  0
  7  9  1  0  0  0
  9 27  1  0  0  0
 27 28  1  0  0  0
 28 29  1  0  0  0
 29 30  1  0  0  0
 30 31  1  0  0  0
 31 32  1  0  0  0
 32 33  1  0  0  0
 33 34  1  0  0  0
 32 35  1  0  0  0
 35 36  2  0  0  0
 35 37  1  0  0  0
 37 38  2  0  0  0
  9 10  1  0  0  0
 10 11  2  0  0  0
 11  1  1  0  0  0
 10  4  1  0  0  0
 18 12  1  0  0  0
 34 29  1  0  0  0
 25 26  1  0  0  0
M  END
> <minimizedAffinity>
-7.89916

> <CNNscore>
0.2086289972

> <CNNaffinity>
7.0836668015

> <CNN_VS>
1.4778583050

> <CNNaffinity_variance>
0.1190382615

$$$$
[H]C([H])=C([H])C(=O)N1C([H])([H])C([H])([H])N(C([H])([H])C([H])([H])n2c(=O)c(-c3c(Cl)c(OC([H])([H])[H])c([H])c(OC([H])([H])[H])c3Cl)c([H])c3c([H])nc(N([H])C([H])([H])[H])nc32)C([H])([H])C1([H])[H]


 38 41  0  0  0  0  0  0  0  0999 V2000
   -0.1847   22.2524  -25.0077 C   0  0  0  0  0  0  0  0  0  0  0  0
    0.8524   21.4401  -24.6931 N   0  0  0  0  0  0  0  0  0  0  0  0
    1.1113   21.1507  -23.3949 C   0  0  0  0  0  0  0  0  0  0  0  0
    0.2849   21.7137  -22.4236 C   0  0  0  0  0  0  0  0  0  0  0  0
    0.5747   21.4254  -21.1065 C   0  0  0  0  0  0  0  0  0  0  0  0
   -0.2206   21.9968  -20.1626 C   0  0  0  0  0  0  0  0  0  0  0  0
   -1.2844   22.8382  -20.5153 C   0  0  0  0  0  0  0  0  0  0  0  0
   -2.0177   23.3639  -19.6254 O   0  0  0  0  0  0  0  0  0  0  0  0
   -1.5660   23.1145  -21.7937 N   0  0  0  0  0  0  0  0  0  0  0  0
   -0.7815   22.5481  -22.7454 C   0  0  0  0  0  0  0  0  0  0  0  0
   -0.9652   22.7787  -24.0524 N   0  0  0  0  0  0  0  0  0  0  0  0
   -0.0563   21.7842  -18.7418 C   0  0  0  0  0  0  0  0  0  0  0  0
    0.8975   22.5181  -18.0812 C   0  0  0  0  0  0  0  0  0  0  0  0
    1.8527   23.8016  -18.7970 Cl  0  0  0  0  0  0  0  0  0  0  0  0
    1.1590   22.2390  -16.7203 C   0  0  0  0  0  0  0  0  0  0  0  0
    0.4038   21.1989  -16.1161 C   0  0  0  0  0  0  0  0  0  0  0  0
   -0.5470   20.5001  -16.8496 C   0  0  0  0  0  0  0  0  0  0  0  0
   -0.7912   20.7810  -18.1634 C   0  0  0  0  0  0  0  0  0  0  0  0
   -2.0111   19.9075  -19.0868 Cl  0  0  0  0  0  0  0  0  0  0  0  0
    2.0300   22.8630  -16.0083 O   0  0  0  0  0  0  0  0  0  0  0  0
    3.0463   23.3640  -15.3963 C   0  0  0  0  0  0  0  0  0  0  0  0
   -1.2994   19.4606  -16.3038 O   0  0  0  0  0  0  0  0  0  0  0  0
   -0.6244   18.3387  -15.7497 C   0  0  0  0  0  0  0  0  0  0  0  0
   -1.7486   22.4175  -26.9487 C   0  0  0  0  0  0  0  0  0  0  0  0
   -0.4260   22.5529  -26.3765 N   0  0  0  0  0  0  0  0  0  0  0  0
    0.3357   22.8859  -27.0084 H   0  0  0  0  0  0  0  0  0  0  0  0
   -2.5617   24.0866  -22.1518 C   0  0  0  0  0  0  0  0  0  0  0  0
   -3.8037   23.4778  -22.6944 C   0  0  0  0  0  0  0  0  0  0  0  0
   -4.7355   24.5684  -23.0901 N   0  0  0  0  0  0  0  0  0  0  0  0
   -5.9419   23.9928  -23.6307 C   0  0  0  0  0  0  0  0  0  0  0  0
   -6.4494   24.8368  -24.8030 C   0  0  0  0  0  0  0  0  0  0  0  0
   -5.3726   24.5301  -25.8286 N   0  0  0  0  0  0  0  0  0  0  0  0
   -4.1069   25.0357  -25.4223 C   0  0  0  0  0  0  0  0  0  0  0  0
   -4.0830   25.4646  -23.9866 C   0  0  0  0  0  0  0  0  0  0  0  0
   -5.8034   23.7894  -26.9117 C   0  0  0  0  0  0  0  0  0  0  0  0
   -7.0791   23.3682  -26.8256 O   0  0  0  0  0  0  0  0  0  0  0  0
   -5.1949   23.3640  -28.1215 C   0  0  0  0  0  0  0  0  0  0  0  0
   -5.4058   23.3490  -29.3240 C   0  0  0  0  0  0  0  0  0  0  0  0
 24 25  1  0  0  0
 25  1  1  0  0  0
  1  2  2  0  0  0
  2  3  1  0  0  0
  3  4  2  0  0  0
  4  5  1  0  0  0
  5  6  2  0  0  0
  6 12  1  0  0  0
 12 13  2  0  0  0
 13 14  1  0  0  0
 13 15  1  0  0  0
 15 20  1  0  0  0
 20 21  1  0  0  0
 15 16  2  0  0  0
 16 17  1  0  0  0
 17 22  1  0  0  0
 22 23  1  0  0  0
 17 18  2  0  0  0
 18 19  1  0  0  0
  6  7  1  0  0  0
  7  8  2  0  0  0
  7  9  1  0  0  0
  9 27  1  0  0  0
 27 28  1  0  0  0
 28 29  1  0  0  0
 29 30  1  0  0  0
 30 31  1  0  0  0
 31 32  1  0  0  0
 32 33  1  0  0  0
 33 34  1  0  0  0
 32 35  1  0  0  0
 35 36  2  0  0  0
 35 37  1  0  0  0
 37 38  2  0  0  0
  9 10  1  0  0  0
 10 11  2  0  0  0
 11  1  1  0  0  0
 10  4  1  0  0  0
 18 12  1  0  0  0
 34 29  1  0  0  0
 25 26  1  0  0  0
M  END
> <minimizedAffinity>
-7.06422

> <CNNscore>
0.1624912173

> <CNNaffinity>
6.9213790894

> <CNN_VS>
1.1246633530

> <CNNaffinity_variance>
0.2950455844

$$$$
[H]C([H])=C([H])C(=O)N1C([H])([H])C([H])([H])N(C([H])([H])C([H])([H])n2c(=O)c(-c3c(Cl)c(OC([H])([H])[H])c([H])c(OC([H])([H])[H])c3Cl)c([H])c3c([H])nc(N([H])C([H])([H])[H])nc32)C([H])([H])C1([H])[H]


 38 41  0  0  0  0  0  0  0  0999 V2000
   -1.6495   22.2674  -25.4267 C   0  0  0  0  0  0  0  0  0  0  0  0
   -0.3070   22.1308  -25.5418 N   0  0  0  0  0  0  0  0  0  0  0  0
    0.4283   21.7709  -24.4619 C   0  0  0  0  0  0  0  0  0  0  0  0
   -0.2420   21.5553  -23.2587 C   0  0  0  0  0  0  0  0  0  0  0  0
    0.5234   21.2097  -22.1650 C   0  0  0  0  0  0  0  0  0  0  0  0
   -0.1336   21.0240  -20.9886 C   0  0  0  0  0  0  0  0  0  0  0  0
   -1.5235   21.1770  -20.8958 C   0  0  0  0  0  0  0  0  0  0  0  0
   -2.1229   21.0008  -19.7932 O   0  0  0  0  0  0  0  0  0  0  0  0
   -2.2650   21.5095  -21.9587 N   0  0  0  0  0  0  0  0  0  0  0  0
   -1.6216   21.6948  -23.1391 C   0  0  0  0  0  0  0  0  0  0  0  0
   -2.2687   22.0514  -24.2568 N   0  0  0  0  0  0  0  0  0  0  0  0
    0.5222   20.6470  -19.7562 C   0  0  0  0  0  0  0  0  0  0  0  0
    0.8979   21.6429  -18.8893 C   0  0  0  0  0  0  0  0  0  0  0  0
    0.5263   23.3439  -19.0903 Cl  0  0  0  0  0  0  0  0  0  0  0  0
    1.6484   21.3064  -17.7395 C   0  0  0  0  0  0  0  0  0  0  0  0
    1.9696   19.9352  -17.5546 C   0  0  0  0  0  0  0  0  0  0  0  0
    1.5524   18.9827  -18.4760 C   0  0  0  0  0  0  0  0  0  0  0  0
    0.8262   19.3210  -19.5818 C   0  0  0  0  0  0  0  0  0  0  0  0
    0.2809   18.1095  -20.7388 Cl  0  0  0  0  0  0  0  0  0  0  0  0
    2.0525   22.1584  -16.8644 O   0  0  0  0  0  0  0  0  0  0  0  0
    2.6549   22.9519  -16.0485 C   0  0  0  0  0  0  0  0  0  0  0  0
    1.8587   17.6287  -18.3449 O   0  0  0  0  0  0  0  0  0  0  0  0
    1.1507   16.8515  -17.3878 C   0  0  0  0  0  0  0  0  0  0  0  0
   -1.7507   22.8663  -27.8499 C   0  0  0  0  0  0  0  0  0  0  0  0
   -2.3966   22.6609  -26.5709 N   0  0  0  0  0  0  0  0  0  0  0  0
   -3.4297   22.8067  -26.5290 H   0  0  0  0  0  0  0  0  0  0  0  0
   -3.6655   21.8065  -21.8358 C   0  0  0  0  0  0  0  0  0  0  0  0
   -3.9401   23.2522  -21.6306 C   0  0  0  0  0  0  0  0  0  0  0  0
   -5.3698   23.5154  -21.9481 N   0  0  0  0  0  0  0  0  0  0  0  0
   -5.7504   22.7477  -23.1077 C   0  0  0  0  0  0  0  0  0  0  0  0
   -6.7046   23.5598  -23.9877 C   0  0  0  0  0  0  0  0  0  0  0  0
   -5.7429   24.6122  -24.5102 N   0  0  0  0  0  0  0  0  0  0  0  0
   -5.2694   25.4507  -23.4637 C   0  0  0  0  0  0  0  0  0  0  0  0
   -5.5849   24.9167  -22.0995 C   0  0  0  0  0  0  0  0  0  0  0  0
   -5.4742   24.5260  -25.8621 C   0  0  0  0  0  0  0  0  0  0  0  0
   -6.0218   23.4576  -26.4712 O   0  0  0  0  0  0  0  0  0  0  0  0
   -4.7380   25.3255  -26.7751 C   0  0  0  0  0  0  0  0  0  0  0  0
   -4.6293   25.5219  -27.9753 C   0  0  0  0  0  0  0  0  0  0  0  0
 24 25  1  0  0  0
 25  1  1  0  0  0
  1  2  2  0  0  0
  2  3  1  0  0  0
  3  4  2  0  0  0
  4  5  1  0  0  0
  5  6  2  0  0  0
  6 12  1  0  0  0
 12 13  2  0  0  0
 13 14  1  0  0  0
 13 15  1  0  0  0
 15 20  1  0  0  0
 20 21  1  0  0  0
 15 16  2  0  0  0
 16 17  1  0  0  0
 17 22  1  0  0  0
 22 23  1  0  0  0
 17 18  2  0  0  0
 18 19  1  0  0  0
  6  7  1  0  0  0
  7  8  2  0  0  0
  7  9  1  0  0  0
  9 27  1  0  0  0
 27 28  1  0  0  0
 28 29  1  0  0  0
 29 30  1  0  0  0
 30 31  1  0  0  0
 31 32  1  0  0  0
 32 33  1  0  0  0
 33 34  1  0  0  0
 32 35  1  0  0  0
 35 36  2  0  0  0
 35 37  1  0  0  0
 37 38  2  0  0  0
  9 10  1  0  0  0
 10 11  2  0  0  0
 11  1  1  0  0  0
 10  4  1  0  0  0
 18 12  1  0  0  0
 34 29  1  0  0  0
 25 26  1  0  0  0
M  END
> <minimizedAffinity>
-6.84996

> <CNNscore>
0.1445846260

> <CNNaffinity>
7.0428886414

> <CNN_VS>
1.0182933807

> <CNNaffinity_variance>
0.2573729753

$$$$
[H]C([H])=C([H])C(=O)N1C([H])([H])C([H])([H])N(C([H])([H])C([H])([H])n2c(=O)c(-c3c(Cl)c(OC([H])([H])[H])c([H])c(OC([H])([H])[H])c3Cl)c([H])c3c([H])nc(N([H])C([H])([H])[H])nc32)C([H])([H])C1([H])[H]


 38 41  0  0  0  0  0  0  0  0999 V2000
   -0.9344   22.2858  -25.5580 C   0  0  0  0  0  0  0  0  0  0  0  0
    0.4097   22.1254  -25.5134 N   0  0  0  0  0  0  0  0  0  0  0  0
    1.0036   21.7380  -24.3586 C   0  0  0  0  0  0  0  0  0  0  0  0
    0.1900   21.5197  -23.2478 C   0  0  0  0  0  0  0  0  0  0  0  0
    0.8125   21.1458  -22.0755 C   0  0  0  0  0  0  0  0  0  0  0  0
    0.0159   20.9576  -20.9892 C   0  0  0  0  0  0  0  0  0  0  0  0
   -1.3723   21.1355  -21.0615 C   0  0  0  0  0  0  0  0  0  0  0  0
   -2.1028   20.9566  -20.0415 O   0  0  0  0  0  0  0  0  0  0  0  0
   -1.9749   21.4955  -22.2005 N   0  0  0  0  0  0  0  0  0  0  0  0
   -1.1913   21.6836  -23.2924 C   0  0  0  0  0  0  0  0  0  0  0  0
   -1.6933   22.0667  -24.4741 N   0  0  0  0  0  0  0  0  0  0  0  0
    0.5123   20.5526  -19.6929 C   0  0  0  0  0  0  0  0  0  0  0  0
    0.8552   21.5316  -18.7938 C   0  0  0  0  0  0  0  0  0  0  0  0
    0.6138   23.2504  -19.0382 Cl  0  0  0  0  0  0  0  0  0  0  0  0
    1.4569   21.1604  -17.5696 C   0  0  0  0  0  0  0  0  0  0  0  0
    1.6705   19.7739  -17.3475 C   0  0  0  0  0  0  0  0  0  0  0  0
    1.2949   18.8402  -18.3054 C   0  0  0  0  0  0  0  0  0  0  0  0
    0.7127   19.2120  -19.4832 C   0  0  0  0  0  0  0  0  0  0  0  0
    0.2188   18.0256  -20.6882 Cl  0  0  0  0  0  0  0  0  0  0  0  0
    1.8181   21.9941  -16.6589 O   0  0  0  0  0  0  0  0  0  0  0  0
    2.3668   22.8357  -15.8533 C   0  0  0  0  0  0  0  0  0  0  0  0
    1.5005   17.4711  -18.1385 O   0  0  0  0  0  0  0  0  0  0  0  0
    0.7178   16.7684  -17.1820 C   0  0  0  0  0  0  0  0  0  0  0  0
   -2.9628   22.8978  -26.8816 C   0  0  0  0  0  0  0  0  0  0  0  0
   -1.5317   22.7078  -26.7776 N   0  0  0  0  0  0  0  0  0  0  0  0
   -0.9613   22.9004  -27.6309 H   0  0  0  0  0  0  0  0  0  0  0  0
   -3.3747   21.8172  -22.2420 C   0  0  0  0  0  0  0  0  0  0  0  0
   -3.6507   23.2565  -21.9972 C   0  0  0  0  0  0  0  0  0  0  0  0
   -4.2192   23.8504  -23.2374 N   0  0  0  0  0  0  0  0  0  0  0  0
   -4.7367   25.1638  -22.9439 C   0  0  0  0  0  0  0  0  0  0  0  0
   -6.0259   25.4107  -23.7322 C   0  0  0  0  0  0  0  0  0  0  0  0
   -6.9571   24.4506  -23.0136 N   0  0  0  0  0  0  0  0  0  0  0  0
   -6.5614   23.0983  -23.2067 C   0  0  0  0  0  0  0  0  0  0  0  0
   -5.1904   22.9699  -23.7979 C   0  0  0  0  0  0  0  0  0  0  0  0
   -7.9579   25.0588  -22.2816 C   0  0  0  0  0  0  0  0  0  0  0  0
   -7.8764   26.4018  -22.2364 O   0  0  0  0  0  0  0  0  0  0  0  0
   -9.0776   24.5801  -21.5523 C   0  0  0  0  0  0  0  0  0  0  0  0
   -9.8037   24.9053  -20.6261 C   0  0  0  0  0  0  0  0  0  0  0  0
 24 25  1  0  0  0
 25  1  1  0  0  0
  1  2  2  0  0  0
  2  3  1  0  0  0
  3  4  2  0  0  0
  4  5  1  0  0  0
  5  6  2  0  0  0
  6 12  1  0  0  0
 12 13  2  0  0  0
 13 14  1  0  0  0
 13 15  1  0  0  0
 15 20  1  0  0  0
 20 21  1  0  0  0
 15 16  2  0  0  0
 16 17  1  0  0  0
 17 22  1  0  0  0
 22 23  1  0  0  0
 17 18  2  0  0  0
 18 19  1  0  0  0
  6  7  1  0  0  0
  7  8  2  0  0  0
  7  9  1  0  0  0
  9 27  1  0  0  0
 27 28  1  0  0  0
 28 29  1  0  0  0
 29 30  1  0  0  0
 30 31  1  0  0  0
 31 32  1  0  0  0
 32 33  1  0  0  0
 33 34  1  0  0  0
 32 35  1  0  0  0
 35 36  2  0  0  0
 35 37  1  0  0  0
 37 38  2  0  0  0
  9 10  1  0  0  0
 10 11  2  0  0  0
 11  1  1  0  0  0
 10  4  1  0  0  0
 18 12  1  0  0  0
 34 29  1  0  0  0
 25 26  1  0  0  0
M  END
> <minimizedAffinity>
-6.74545

> <CNNscore>
0.1333800256

> <CNNaffinity>
6.7167944908

> <CNN_VS>
0.8958862424

> <CNNaffinity_variance>
0.1870729327

$$$$
[H]C([H])=C([H])C(=O)N1C([H])([H])C([H])([H])N(C([H])([H])C([H])([H])n2c(=O)c(-c3c(Cl)c(OC([H])([H])[H])c([H])c(OC([H])([H])[H])c3Cl)c([H])c3c([H])nc(N([H])C([H])([H])[H])nc32)C([H])([H])C1([H])[H]


 38 41  0  0  0  0  0  0  0  0999 V2000
   -1.1091   22.2668  -25.6053 C   0  0  0  0  0  0  0  0  0  0  0  0
    0.2339   22.0994  -25.5530 N   0  0  0  0  0  0  0  0  0  0  0  0
    0.8206   21.7217  -24.3914 C   0  0  0  0  0  0  0  0  0  0  0  0
    0.0010   21.5204  -23.2818 C   0  0  0  0  0  0  0  0  0  0  0  0
    0.6163   21.1562  -22.1027 C   0  0  0  0  0  0  0  0  0  0  0  0
   -0.1860   20.9845  -21.0179 C   0  0  0  0  0  0  0  0  0  0  0  0
   -1.5728   21.1694  -21.0982 C   0  0  0  0  0  0  0  0  0  0  0  0
   -2.3087   21.0060  -20.0794 O   0  0  0  0  0  0  0  0  0  0  0  0
   -2.1685   21.5200  -22.2438 N   0  0  0  0  0  0  0  0  0  0  0  0
   -1.3792   21.6915  -23.3343 C   0  0  0  0  0  0  0  0  0  0  0  0
   -1.8738   22.0641  -24.5224 N   0  0  0  0  0  0  0  0  0  0  0  0
    0.3025   20.5913  -19.7150 C   0  0  0  0  0  0  0  0  0  0  0  0
    0.4611   19.2522  -19.4576 C   0  0  0  0  0  0  0  0  0  0  0  0
    0.2458   17.9702  -20.6332 Cl  0  0  0  0  0  0  0  0  0  0  0  0
    0.8189   18.8405  -18.1534 C   0  0  0  0  0  0  0  0  0  0  0  0
    0.9936   19.8585  -17.1784 C   0  0  0  0  0  0  0  0  0  0  0  0
    0.8168   21.1949  -17.5147 C   0  0  0  0  0  0  0  0  0  0  0  0
    0.4730   21.5793  -18.7790 C   0  0  0  0  0  0  0  0  0  0  0  0
    0.2686   23.2755  -19.2088 Cl  0  0  0  0  0  0  0  0  0  0  0  0
    0.9915   17.6147  -17.8036 O   0  0  0  0  0  0  0  0  0  0  0  0
    0.9600   16.3601  -17.5148 C   0  0  0  0  0  0  0  0  0  0  0  0
    0.9606   22.2264  -16.5874 O   0  0  0  0  0  0  0  0  0  0  0  0
    2.2622   22.5560  -16.1197 C   0  0  0  0  0  0  0  0  0  0  0  0
   -2.9700   23.3701  -26.8545 C   0  0  0  0  0  0  0  0  0  0  0  0
   -1.6987   22.6785  -26.8321 N   0  0  0  0  0  0  0  0  0  0  0  0
   -1.2343   22.5033  -27.7509 H   0  0  0  0  0  0  0  0  0  0  0  0
   -3.5663   21.8490  -22.2950 C   0  0  0  0  0  0  0  0  0  0  0  0
   -3.8376   23.2869  -22.0367 C   0  0  0  0  0  0  0  0  0  0  0  0
   -4.4035   23.8943  -23.2716 N   0  0  0  0  0  0  0  0  0  0  0  0
   -4.9199   25.2051  -22.9653 C   0  0  0  0  0  0  0  0  0  0  0  0
   -6.2076   25.4618  -23.7530 C   0  0  0  0  0  0  0  0  0  0  0  0
   -7.1411   24.4954  -23.0457 N   0  0  0  0  0  0  0  0  0  0  0  0
   -6.7467   23.1448  -23.2523 C   0  0  0  0  0  0  0  0  0  0  0  0
   -5.3749   23.0208  -23.8427 C   0  0  0  0  0  0  0  0  0  0  0  0
   -8.1422   25.0973  -22.3090 C   0  0  0  0  0  0  0  0  0  0  0  0
   -8.0592   26.4396  -22.2498 O   0  0  0  0  0  0  0  0  0  0  0  0
   -9.2636   24.6123  -21.5865 C   0  0  0  0  0  0  0  0  0  0  0  0
   -9.5363   24.0824  -20.5208 C   0  0  0  0  0  0  0  0  0  0  0  0
 24 25  1  0  0  0
 25  1  1  0  0  0
  1  2  2  0  0  0
  2  3  1  0  0  0
  3  4  2  0  0  0
  4  5  1  0  0  0
  5  6  2  0  0  0
  6 12  1  0  0  0
 12 13  2  0  0  0
 13 14  1  0  0  0
 13 15  1  0  0  0
 15 20  1  0  0  0
 20 21  1  0  0  0
 15 16  2  0  0  0
 16 17  1  0  0  0
 17 22  1  0  0  0
 22 23  1  0  0  0
 17 18  2  0  0  0
 18 19  1  0  0  0
  6  7  1  0  0  0
  7  8  2  0  0  0
  7  9  1  0  0  0
  9 27  1  0  0  0
 27 28  1  0  0  0
 28 29  1  0  0  0
 29 30  1  0  0  0
 30 31  1  0  0  0
 31 32  1  0  0  0
 32 33  1  0  0  0
 33 34  1  0  0  0
 32 35  1  0  0  0
 35 36  2  0  0  0
 35 37  1  0  0  0
 37 38  2  0  0  0
  9 10  1  0  0  0
 10 11  2  0  0  0
 11  1  1  0  0  0
 10  4  1  0  0  0
 18 12  1  0  0  0
 34 29  1  0  0  0
 25 26  1  0  0  0
M  END
> <minimizedAffinity>
-6.73258

> <CNNscore>
0.1181397587

> <CNNaffinity>
6.6687178612

> <CNN_VS>
0.7878407240

> <CNNaffinity_variance>
0.2360268831

$$$$
[H]C([H])=C([H])C(=O)N1C([H])([H])C([H])([H])N(C([H])([H])C([H])([H])n2c(=O)c(-c3c(Cl)c(OC([H])([H])[H])c([H])c(OC([H])([H])[H])c3Cl)c([H])c3c([H])nc(N([H])C([H])([H])[H])nc32)C([H])([H])C1([H])[H]


 38 41  0  0  0  0  0  0  0  0999 V2000
   -4.2147   24.0184  -22.0170 C   0  0  0  0  0  0  0  0  0  0  0  0
   -3.2305   24.2237  -22.9244 N   0  0  0  0  0  0  0  0  0  0  0  0
   -1.9897   23.7294  -22.6955 C   0  0  0  0  0  0  0  0  0  0  0  0
   -1.7776   23.0204  -21.5141 C   0  0  0  0  0  0  0  0  0  0  0  0
   -0.5044   22.5418  -21.2872 C   0  0  0  0  0  0  0  0  0  0  0  0
   -0.2980   21.8715  -20.1218 C   0  0  0  0  0  0  0  0  0  0  0  0
   -1.3331   21.6775  -19.1973 C   0  0  0  0  0  0  0  0  0  0  0  0
   -1.1269   21.0509  -18.1151 O   0  0  0  0  0  0  0  0  0  0  0  0
   -2.5687   22.1400  -19.4203 N   0  0  0  0  0  0  0  0  0  0  0  0
   -2.7883   22.8081  -20.5810 C   0  0  0  0  0  0  0  0  0  0  0  0
   -3.9830   23.3303  -20.8893 N   0  0  0  0  0  0  0  0  0  0  0  0
    0.9740   21.2980  -19.7425 C   0  0  0  0  0  0  0  0  0  0  0  0
    1.2144   19.9840  -20.0591 C   0  0  0  0  0  0  0  0  0  0  0  0
    0.1506   18.9689  -21.0130 Cl  0  0  0  0  0  0  0  0  0  0  0  0
    2.3982   19.3695  -19.5906 C   0  0  0  0  0  0  0  0  0  0  0  0
    3.2760   20.1672  -18.8092 C   0  0  0  0  0  0  0  0  0  0  0  0
    2.9651   21.4925  -18.5310 C   0  0  0  0  0  0  0  0  0  0  0  0
    1.8189   22.0746  -18.9914 C   0  0  0  0  0  0  0  0  0  0  0  0
    1.4358   23.7609  -18.6547 Cl  0  0  0  0  0  0  0  0  0  0  0  0
    2.7208   18.1468  -19.8266 O   0  0  0  0  0  0  0  0  0  0  0  0
    3.0573   16.9849  -20.2685 C   0  0  0  0  0  0  0  0  0  0  0  0
    3.7875   22.3081  -17.7545 O   0  0  0  0  0  0  0  0  0  0  0  0
    5.0209   22.7602  -18.2982 C   0  0  0  0  0  0  0  0  0  0  0  0
   -6.3567   24.0044  -23.3025 C   0  0  0  0  0  0  0  0  0  0  0  0
   -5.5041   24.5605  -22.2735 N   0  0  0  0  0  0  0  0  0  0  0  0
   -5.8793   25.3675  -21.7272 H   0  0  0  0  0  0  0  0  0  0  0  0
   -3.5920   22.0683  -18.4142 C   0  0  0  0  0  0  0  0  0  0  0  0
   -4.3461   20.7882  -18.4384 C   0  0  0  0  0  0  0  0  0  0  0  0
   -5.8024   21.0927  -18.4165 N   0  0  0  0  0  0  0  0  0  0  0  0
   -5.9906   22.5151  -18.2744 C   0  0  0  0  0  0  0  0  0  0  0  0
   -7.1927   22.8001  -17.3699 C   0  0  0  0  0  0  0  0  0  0  0  0
   -6.6284   22.3421  -16.0368 N   0  0  0  0  0  0  0  0  0  0  0  0
   -6.3796   20.9419  -16.0297 C   0  0  0  0  0  0  0  0  0  0  0  0
   -6.4438   20.3306  -17.3964 C   0  0  0  0  0  0  0  0  0  0  0  0
   -6.4182   23.3553  -15.1221 C   0  0  0  0  0  0  0  0  0  0  0  0
   -6.6439   24.5929  -15.6011 O   0  0  0  0  0  0  0  0  0  0  0  0
   -6.0115   23.3890  -13.7626 C   0  0  0  0  0  0  0  0  0  0  0  0
   -5.3986   24.1016  -12.9832 C   0  0  0  0  0  0  0  0  0  0  0  0
 24 25  1  0  0  0
 25  1  1  0  0  0
  1  2  2  0  0  0
  2  3  1  0  0  0
  3  4  2  0  0  0
  4  5  1  0  0  0
  5  6  2  0  0  0
  6 12  1  0  0  0
 12 13  2  0  0  0
 13 14  1  0  0  0
 13 15  1  0  0  0
 15 20  1  0  0  0
 20 21  1  0  0  0
 15 16  2  0  0  0
 16 17  1  0  0  0
 17 22  1  0  0  0
 22 23  1  0  0  0
 17 18  2  0  0  0
 18 19  1  0  0  0
  6  7  1  0  0  0
  7  8  2  0  0  0
  7  9  1  0  0  0
  9 27  1  0  0  0
 27 28  1  0  0  0
 28 29  1  0  0  0
 29 30  1  0  0  0
 30 31  1  0  0  0
 31 32  1  0  0  0
 32 33  1  0  0  0
 33 34  1  0  0  0
 32 35  1  0  0  0
 35 36  2  0  0  0
 35 37  1  0  0  0
 37 38  2  0  0  0
  9 10  1  0  0  0
 10 11  2  0  0  0
 11  1  1  0  0  0
 10  4  1  0  0  0
 18 12  1  0  0  0
 34 29  1  0  0  0
 25 26  1  0  0  0
M  END
> <minimizedAffinity>
-5.42336

> <CNNscore>
0.1110093221

> <CNNaffinity>
6.0057001114

> <CNN_VS>
0.6666886806

> <CNNaffinity_variance>
0.1679648608

$$$$
[H]C([H])=C([H])C(=O)N1C([H])([H])C([H])([H])N(C([H])([H])C([H])([H])n2c(=O)c(-c3c(Cl)c(OC([H])([H])[H])c([H])c(OC([H])([H])[H])c3Cl)c([H])c3c([H])nc(N([H])C([H])([H])[H])nc32)C([H])([H])C1([H])[H]


 38 41  0  0  0  0  0  0  0  0999 V2000
   -2.0207   22.1883  -25.2024 C   0  0  0  0  0  0  0  0  0  0  0  0
   -0.6845   22.2093  -25.4231 N   0  0  0  0  0  0  0  0  0  0  0  0
    0.1701   21.9422  -24.4061 C   0  0  0  0  0  0  0  0  0  0  0  0
   -0.3739   21.6544  -23.1552 C   0  0  0  0  0  0  0  0  0  0  0  0
    0.5102   21.4051  -22.1266 C   0  0  0  0  0  0  0  0  0  0  0  0
   -0.0262   21.1484  -20.9034 C   0  0  0  0  0  0  0  0  0  0  0  0
   -1.4129   21.1381  -20.7011 C   0  0  0  0  0  0  0  0  0  0  0  0
   -1.8993   20.8973  -19.5559 O   0  0  0  0  0  0  0  0  0  0  0  0
   -2.2693   21.3773  -21.7009 N   0  0  0  0  0  0  0  0  0  0  0  0
   -1.7466   21.6319  -22.9272 C   0  0  0  0  0  0  0  0  0  0  0  0
   -2.5167   21.9060  -23.9888 N   0  0  0  0  0  0  0  0  0  0  0  0
    0.7637   20.8556  -19.7282 C   0  0  0  0  0  0  0  0  0  0  0  0
    1.1845   19.5635  -19.5337 C   0  0  0  0  0  0  0  0  0  0  0  0
    0.9554   18.2496  -20.6709 Cl  0  0  0  0  0  0  0  0  0  0  0  0
    1.8513   19.2311  -18.3322 C   0  0  0  0  0  0  0  0  0  0  0  0
    2.0449   20.2755  -17.3892 C   0  0  0  0  0  0  0  0  0  0  0  0
    1.5917   21.5611  -17.6577 C   0  0  0  0  0  0  0  0  0  0  0  0
    0.9506   21.8692  -18.8233 C   0  0  0  0  0  0  0  0  0  0  0  0
    0.3941   23.5042  -19.1708 Cl  0  0  0  0  0  0  0  0  0  0  0  0
    2.2852   18.0541  -18.0475 O   0  0  0  0  0  0  0  0  0  0  0  0
    2.8543   16.9051  -17.9277 C   0  0  0  0  0  0  0  0  0  0  0  0
    1.7440   22.6131  -16.7552 O   0  0  0  0  0  0  0  0  0  0  0  0
    3.0352   23.1774  -16.5663 C   0  0  0  0  0  0  0  0  0  0  0  0
   -2.3822   22.9502  -27.5540 C   0  0  0  0  0  0  0  0  0  0  0  0
   -2.8961   22.4871  -26.2825 N   0  0  0  0  0  0  0  0  0  0  0  0
   -3.9310   22.3763  -26.1977 H   0  0  0  0  0  0  0  0  0  0  0  0
   -3.6809   21.5088  -21.4671 C   0  0  0  0  0  0  0  0  0  0  0  0
   -4.0828   22.8854  -21.0783 C   0  0  0  0  0  0  0  0  0  0  0  0
   -5.5024   23.0963  -21.4712 N   0  0  0  0  0  0  0  0  0  0  0  0
   -5.7372   22.4873  -22.7569 C   0  0  0  0  0  0  0  0  0  0  0  0
   -6.6870   23.3561  -23.5862 C   0  0  0  0  0  0  0  0  0  0  0  0
   -5.7763   24.5374  -23.8702 N   0  0  0  0  0  0  0  0  0  0  0  0
   -5.4465   25.2394  -22.6782 C   0  0  0  0  0  0  0  0  0  0  0  0
   -5.8158   24.4867  -21.4361 C   0  0  0  0  0  0  0  0  0  0  0  0
   -5.4055   24.6732  -25.1936 C   0  0  0  0  0  0  0  0  0  0  0  0
   -5.8222   23.6739  -25.9935 O   0  0  0  0  0  0  0  0  0  0  0  0
   -4.6711   25.6484  -25.9178 C   0  0  0  0  0  0  0  0  0  0  0  0
   -4.4568   26.8505  -25.9222 C   0  0  0  0  0  0  0  0  0  0  0  0
 24 25  1  0  0  0
 25  1  1  0  0  0
  1  2  2  0  0  0
  2  3  1  0  0  0
  3  4  2  0  0  0
  4  5  1  0  0  0
  5  6  2  0  0  0
  6 12  1  0  0  0
 12 13  2  0  0  0
 13 14  1  0  0  0
 13 15  1  0  0  0
 15 20  1  0  0  0
 20 21  1  0  0  0
 15 16  2  0  0  0
 16 17  1  0  0  0
 17 22  1  0  0  0
 22 23  1  0  0  0
 17 18  2  0  0  0
 18 19  1  0  0  0
  6  7  1  0  0  0
  7  8  2  0  0  0
  7  9  1  0  0  0
  9 27  1  0  0  0
 27 28  1  0  0  0
 28 29  1  0  0  0
 29 30  1  0  0  0
 30 31  1  0  0  0
 31 32  1  0  0  0
 32 33  1  0  0  0
 33 34  1  0  0  0
 32 35  1  0  0  0
 35 36  2  0  0  0
 35 37  1  0  0  0
 37 38  2  0  0  0
  9 10  1  0  0  0
 10 11  2  0  0  0
 11  1  1  0  0  0
 10  4  1  0  0  0
 18 12  1  0  0  0
 34 29  1  0  0  0
 25 26  1  0  0  0
M  END
> <minimizedAffinity>
-6.57341

> <CNNscore>
0.1019922346

> <CNNaffinity>
6.8986864090

> <CNN_VS>
0.7036124468

> <CNNaffinity_variance>
0.1767944992

$$$$
[H]C([H])=C([H])C(=O)N1C([H])([H])C([H])([H])N(C([H])([H])C([H])([H])n2c(=O)c(-c3c(Cl)c(OC([H])([H])[H])c([H])c(OC([H])([H])[H])c3Cl)c([H])c3c([H])nc(N([H])C([H])([H])[H])nc32)C([H])([H])C1([H])[H]


 38 41  0  0  0  0  0  0  0  0999 V2000
   -0.9285   22.2994  -25.6686 C   0  0  0  0  0  0  0  0  0  0  0  0
    0.4168   22.1574  -25.6028 N   0  0  0  0  0  0  0  0  0  0  0  0
    0.9966   21.7666  -24.4421 C   0  0  0  0  0  0  0  0  0  0  0  0
    0.1676   21.5255  -23.3475 C   0  0  0  0  0  0  0  0  0  0  0  0
    0.7755   21.1483  -22.1686 C   0  0  0  0  0  0  0  0  0  0  0  0
   -0.0365   20.9377  -21.0979 C   0  0  0  0  0  0  0  0  0  0  0  0
   -1.4256   21.0969  -21.1919 C   0  0  0  0  0  0  0  0  0  0  0  0
   -2.1706   20.8972  -20.1863 O   0  0  0  0  0  0  0  0  0  0  0  0
   -2.0141   21.4600  -22.3374 N   0  0  0  0  0  0  0  0  0  0  0  0
   -1.2150   21.6704  -23.4139 C   0  0  0  0  0  0  0  0  0  0  0  0
   -1.7024   22.0584  -24.6001 N   0  0  0  0  0  0  0  0  0  0  0  0
    0.4437   20.5265  -19.7976 C   0  0  0  0  0  0  0  0  0  0  0  0
    0.7617   21.5010  -18.8845 C   0  0  0  0  0  0  0  0  0  0  0  0
    0.5057   23.2192  -19.1176 Cl  0  0  0  0  0  0  0  0  0  0  0  0
    1.3480   21.1253  -17.6542 C   0  0  0  0  0  0  0  0  0  0  0  0
    1.5732   19.7392  -17.4410 C   0  0  0  0  0  0  0  0  0  0  0  0
    1.2229   18.8102  -18.4129 C   0  0  0  0  0  0  0  0  0  0  0  0
    0.6553   19.1863  -19.5965 C   0  0  0  0  0  0  0  0  0  0  0  0
    0.1935   18.0055  -20.8196 Cl  0  0  0  0  0  0  0  0  0  0  0  0
    1.6857   21.9546  -16.7306 O   0  0  0  0  0  0  0  0  0  0  0  0
    2.0404   22.6107  -15.6807 C   0  0  0  0  0  0  0  0  0  0  0  0
    1.4406   17.4419  -18.2548 O   0  0  0  0  0  0  0  0  0  0  0  0
    0.5223   16.6832  -17.4787 C   0  0  0  0  0  0  0  0  0  0  0  0
   -2.9376   22.9437  -27.0063 C   0  0  0  0  0  0  0  0  0  0  0  0
   -1.5112   22.7255  -26.8939 N   0  0  0  0  0  0  0  0  0  0  0  0
   -0.9329   22.9010  -27.7455 H   0  0  0  0  0  0  0  0  0  0  0  0
   -3.4174   21.7624  -22.3994 C   0  0  0  0  0  0  0  0  0  0  0  0
   -3.7417   23.1309  -21.9200 C   0  0  0  0  0  0  0  0  0  0  0  0
   -5.2025   23.2064  -21.6469 N   0  0  0  0  0  0  0  0  0  0  0  0
   -5.4978   24.4440  -20.9685 C   0  0  0  0  0  0  0  0  0  0  0  0
   -6.5833   24.2201  -19.9121 C   0  0  0  0  0  0  0  0  0  0  0  0
   -5.7996   23.3964  -18.9057 N   0  0  0  0  0  0  0  0  0  0  0  0
   -5.4257   22.1342  -19.4439 C   0  0  0  0  0  0  0  0  0  0  0  0
   -5.6235   22.0501  -20.9270 C   0  0  0  0  0  0  0  0  0  0  0  0
   -5.5573   24.0334  -17.7045 C   0  0  0  0  0  0  0  0  0  0  0  0
   -5.9593   25.3175  -17.6648 O   0  0  0  0  0  0  0  0  0  0  0  0
   -4.9701   23.6331  -16.4758 C   0  0  0  0  0  0  0  0  0  0  0  0
   -4.0266   22.9832  -16.0537 C   0  0  0  0  0  0  0  0  0  0  0  0
 24 25  1  0  0  0
 25  1  1  0  0  0
  1  2  2  0  0  0
  2  3  1  0  0  0
  3  4  2  0  0  0
  4  5  1  0  0  0
  5  6  2  0  0  0
  6 12  1  0  0  0
 12 13  2  0  0  0
 13 14  1  0  0  0
 13 15  1  0  0  0
 15 20  1  0  0  0
 20 21  1  0  0  0
 15 16  2  0  0  0
 16 17  1  0  0  0
 17 22  1  0  0  0
 22 23  1  0  0  0
 17 18  2  0  0  0
 18 19  1  0  0  0
  6  7  1  0  0  0
  7  8  2  0  0  0
  7  9  1  0  0  0
  9 27  1  0  0  0
 27 28  1  0  0  0
 28 29  1  0  0  0
 29 30  1  0  0  0
 30 31  1  0  0  0
 31 32  1  0  0  0
 32 33  1  0  0  0
 33 34  1  0  0  0
 32 35  1  0  0  0
 35 36  2  0  0  0
 35 37  1  0  0  0
 37 38  2  0  0  0
  9 10  1  0  0  0
 10 11  2  0  0  0
 11  1  1  0  0  0
 10  4  1  0  0  0
 18 12  1  0  0  0
 34 29  1  0  0  0
 25 26  1  0  0  0
M  END
> <minimizedAffinity>
-6.28283

> <CNNscore>
0.1001287475

> <CNNaffinity>
6.4791388512

> <CNN_VS>
0.6487480402

> <CNNaffinity_variance>
0.1117755994

$$$$
[H]c1nc(-c2c(C([H])([H])[H])nn(C([H])([H])C([H])([H])N(C([H])([H])[H])C([H])([H])[H])c2[H])c([H])c2c1C([H])([H])N(c1c(F)c(OC([H])([H])[H])c([H])c(OC([H])([H])[H])c1F)C(=O)C21C([H])([H])C1([H])[H]


 36 40  0  0  0  0  0  0  0  0999 V2000
    0.1914   22.0387  -19.3260 N   0  0  0  0  0  0  0  0  0  0  0  0
    0.5736   21.1354  -20.4061 C   0  0  0  0  0  0  0  0  0  0  0  0
   -0.0751   21.5111  -21.6659 C   0  0  0  0  0  0  0  0  0  0  0  0
    0.5384   21.2815  -22.8698 C   0  0  0  0  0  0  0  0  0  0  0  0
   -0.0106   21.6088  -24.0276 N   0  0  0  0  0  0  0  0  0  0  0  0
   -1.2343   22.2031  -24.1264 C   0  0  0  0  0  0  0  0  0  0  0  0
   -1.8684   22.4424  -22.9350 C   0  0  0  0  0  0  0  0  0  0  0  0
   -1.3038   22.1031  -21.6950 C   0  0  0  0  0  0  0  0  0  0  0  0
   -2.0121   22.3697  -20.4415 C   0  0  0  0  0  0  0  0  0  0  0  0
   -3.4301   22.7104  -20.3517 C   0  0  0  0  0  0  0  0  0  0  0  0
   -3.0427   21.3147  -20.0933 C   0  0  0  0  0  0  0  0  0  0  0  0
   -1.0393   22.7490  -19.3588 C   0  0  0  0  0  0  0  0  0  0  0  0
   -1.3240   23.6564  -18.5322 O   0  0  0  0  0  0  0  0  0  0  0  0
    2.7838   23.4927  -17.0888 C   0  0  0  0  0  0  0  0  0  0  0  0
    2.7517   22.6103  -16.0335 C   0  0  0  0  0  0  0  0  0  0  0  0
    1.8853   21.5336  -16.0402 C   0  0  0  0  0  0  0  0  0  0  0  0
    1.0634   21.3705  -17.1208 C   0  0  0  0  0  0  0  0  0  0  0  0
    0.2081   20.3093  -17.1261 F   0  0  0  0  0  0  0  0  0  0  0  0
    1.0484   22.2280  -18.2181 C   0  0  0  0  0  0  0  0  0  0  0  0
    1.9453   23.2993  -18.1576 C   0  0  0  0  0  0  0  0  0  0  0  0
    1.9933   24.1679  -19.1701 F   0  0  0  0  0  0  0  0  0  0  0  0
    4.9170   24.4118  -16.4010 C   0  0  0  0  0  0  0  0  0  0  0  0
    3.6668   24.5551  -17.0391 O   0  0  0  0  0  0  0  0  0  0  0  0
    1.8164   20.6185  -15.0014 O   0  0  0  0  0  0  0  0  0  0  0  0
    2.7786   19.5642  -15.0156 C   0  0  0  0  0  0  0  0  0  0  0  0
   -1.7426   22.5083  -25.4442 C   0  0  0  0  0  0  0  0  0  0  0  0
   -3.0978   22.7049  -25.7109 C   0  0  0  0  0  0  0  0  0  0  0  0
   -3.2835   22.9621  -27.0135 N   0  0  0  0  0  0  0  0  0  0  0  0
   -2.1041   22.9367  -27.5843 N   0  0  0  0  0  0  0  0  0  0  0  0
   -1.1294   22.6604  -26.6509 C   0  0  0  0  0  0  0  0  0  0  0  0
    0.3021   22.5488  -26.9611 C   0  0  0  0  0  0  0  0  0  0  0  0
   -4.5838   23.2150  -27.6152 C   0  0  0  0  0  0  0  0  0  0  0  0
   -4.3930   23.5324  -29.0799 C   0  0  0  0  0  0  0  0  0  0  0  0
   -4.8464   24.8407  -29.4369 N   0  0  0  0  0  0  0  0  0  0  0  0
   -5.5505   25.4848  -28.3685 C   0  0  0  0  0  0  0  0  0  0  0  0
   -3.8157   25.6754  -29.9864 C   0  0  0  0  0  0  0  0  0  0  0  0
 22 23  1  0  0  0
 23 14  1  0  0  0
 14 15  2  0  0  0
 15 16  1  0  0  0
 16 24  1  0  0  0
 24 25  1  0  0  0
 16 17  2  0  0  0
 17 18  1  0  0  0
 17 19  1  0  0  0
 19  1  1  0  0  0
  1  2  1  0  0  0
  2  3  1  0  0  0
  3  4  2  0  0  0
  4  5  1  0  0  0
  5  6  2  0  0  0
  6  7  1  0  0  0
  7  8  2  0  0  0
  8  9  1  0  0  0
  9 10  1  0  0  0
 10 11  1  0  0  0
  9 12  1  0  0  0
 12 13  2  0  0  0
  6 26  1  0  0  0
 26 27  2  0  0  0
 27 28  1  0  0  0
 28 32  1  0  0  0
 32 33  1  0  0  0
 33 34  1  0  0  0
 34 35  1  0  0  0
 34 36  1  0  0  0
 28 29  1  0  0  0
 29 30  2  0  0  0
 30 31  1  0  0  0
 19 20  2  0  0  0
 20 21  1  0  0  0
 20 14  1  0  0  0
 12  1  1  0  0  0
 30 26  1  0  0  0
  8  3  1  0  0  0
 11  9  1  0  0  0
M  END
> <minimizedAffinity>
-7.72875

> <CNNscore>
0.2497315556

> <CNNaffinity>
6.6489205360

> <CNN_VS>
1.6604452133

> <CNNaffinity_variance>
0.0858151913

$$$$
[H]c1nc(-c2c(C([H])([H])[H])nn(C([H])([H])C([H])([H])N(C([H])([H])[H])C([H])([H])[H])c2[H])c([H])c2c1C([H])([H])N(c1c(F)c(OC([H])([H])[H])c([H])c(OC([H])([H])[H])c1F)C(=O)C21C([H])([H])C1([H])[H]


 36 40  0  0  0  0  0  0  0  0999 V2000
    0.1019   21.9481  -19.2896 N   0  0  0  0  0  0  0  0  0  0  0  0
    0.4182   20.9880  -20.3416 C   0  0  0  0  0  0  0  0  0  0  0  0
   -0.1641   21.3956  -21.6237 C   0  0  0  0  0  0  0  0  0  0  0  0
    0.4500   21.0809  -22.8079 C   0  0  0  0  0  0  0  0  0  0  0  0
   -0.0399   21.4331  -23.9847 N   0  0  0  0  0  0  0  0  0  0  0  0
   -1.1981   22.1399  -24.1245 C   0  0  0  0  0  0  0  0  0  0  0  0
   -1.8314   22.4659  -22.9535 C   0  0  0  0  0  0  0  0  0  0  0  0
   -1.3290   22.1022  -21.6939 C   0  0  0  0  0  0  0  0  0  0  0  0
   -2.0350   22.4639  -20.4631 C   0  0  0  0  0  0  0  0  0  0  0  0
   -3.4150   22.9412  -20.4137 C   0  0  0  0  0  0  0  0  0  0  0  0
   -3.1698   21.5210  -20.1176 C   0  0  0  0  0  0  0  0  0  0  0  0
   -1.0535   22.7724  -19.3658 C   0  0  0  0  0  0  0  0  0  0  0  0
   -1.2668   23.7215  -18.5649 O   0  0  0  0  0  0  0  0  0  0  0  0
    1.3657   21.7788  -15.7947 C   0  0  0  0  0  0  0  0  0  0  0  0
    2.6154   22.3374  -15.9349 C   0  0  0  0  0  0  0  0  0  0  0  0
    3.0585   22.7743  -17.1689 C   0  0  0  0  0  0  0  0  0  0  0  0
    2.2237   22.6358  -18.2430 C   0  0  0  0  0  0  0  0  0  0  0  0
    2.6619   23.0654  -19.4600 F   0  0  0  0  0  0  0  0  0  0  0  0
    0.9493   22.0793  -18.1659 C   0  0  0  0  0  0  0  0  0  0  0  0
    0.5533   21.6550  -16.8935 C   0  0  0  0  0  0  0  0  0  0  0  0
   -0.6548   21.1098  -16.7343 F   0  0  0  0  0  0  0  0  0  0  0  0
    0.6024   22.2981  -13.5551 C   0  0  0  0  0  0  0  0  0  0  0  0
    0.9643   21.3562  -14.5412 O   0  0  0  0  0  0  0  0  0  0  0  0
    4.3080   23.3430  -17.3600 O   0  0  0  0  0  0  0  0  0  0  0  0
    4.4188   24.7417  -17.0973 C   0  0  0  0  0  0  0  0  0  0  0  0
   -1.6462   22.4625  -25.4598 C   0  0  0  0  0  0  0  0  0  0  0  0
   -2.9775   22.7417  -25.7696 C   0  0  0  0  0  0  0  0  0  0  0  0
   -3.1074   22.9962  -27.0795 N   0  0  0  0  0  0  0  0  0  0  0  0
   -1.9153   22.8900  -27.6137 N   0  0  0  0  0  0  0  0  0  0  0  0
   -0.9887   22.5625  -26.6485 C   0  0  0  0  0  0  0  0  0  0  0  0
    0.4415   22.3571  -26.9138 C   0  0  0  0  0  0  0  0  0  0  0  0
   -4.3703   23.3245  -27.7229 C   0  0  0  0  0  0  0  0  0  0  0  0
   -4.1222   23.5722  -29.1925 C   0  0  0  0  0  0  0  0  0  0  0  0
   -4.8908   24.6569  -29.7189 N   0  0  0  0  0  0  0  0  0  0  0  0
   -4.0764   25.7792  -30.0783 C   0  0  0  0  0  0  0  0  0  0  0  0
   -5.7780   24.2704  -30.7794 C   0  0  0  0  0  0  0  0  0  0  0  0
 22 23  1  0  0  0
 23 14  1  0  0  0
 14 15  2  0  0  0
 15 16  1  0  0  0
 16 24  1  0  0  0
 24 25  1  0  0  0
 16 17  2  0  0  0
 17 18  1  0  0  0
 17 19  1  0  0  0
 19  1  1  0  0  0
  1  2  1  0  0  0
  2  3  1  0  0  0
  3  4  2  0  0  0
  4  5  1  0  0  0
  5  6  2  0  0  0
  6  7  1  0  0  0
  7  8  2  0  0  0
  8  9  1  0  0  0
  9 10  1  0  0  0
 10 11  1  0  0  0
  9 12  1  0  0  0
 12 13  2  0  0  0
  6 26  1  0  0  0
 26 27  2  0  0  0
 27 28  1  0  0  0
 28 32  1  0  0  0
 32 33  1  0  0  0
 33 34  1  0  0  0
 34 35  1  0  0  0
 34 36  1  0  0  0
 28 29  1  0  0  0
 29 30  2  0  0  0
 30 31  1  0  0  0
 19 20  2  0  0  0
 20 21  1  0  0  0
 20 14  1  0  0  0
 12  1  1  0  0  0
 30 26  1  0  0  0
  8  3  1  0  0  0
 11  9  1  0  0  0
M  END
> <minimizedAffinity>
-7.76496

> <CNNscore>
0.2401801497

> <CNNaffinity>
6.6363463402

> <CNN_VS>
1.5939186811

> <CNNaffinity_variance>
0.1112175956

$$$$
[H]c1nc(-c2c(C([H])([H])[H])nn(C([H])([H])C([H])([H])N(C([H])([H])[H])C([H])([H])[H])c2[H])c([H])c2c1C([H])([H])N(c1c(F)c(OC([H])([H])[H])c([H])c(OC([H])([H])[H])c1F)C(=O)C21C([H])([H])C1([H])[H]


 36 40  0  0  0  0  0  0  0  0999 V2000
   -0.5006   21.4620  -18.9059 N   0  0  0  0  0  0  0  0  0  0  0  0
   -0.7689   22.7735  -19.4860 C   0  0  0  0  0  0  0  0  0  0  0  0
   -0.9970   22.6773  -20.9309 C   0  0  0  0  0  0  0  0  0  0  0  0
   -1.8374   23.5507  -21.5709 C   0  0  0  0  0  0  0  0  0  0  0  0
   -2.0733   23.4953  -22.8710 N   0  0  0  0  0  0  0  0  0  0  0  0
   -1.5021   22.5656  -23.6895 C   0  0  0  0  0  0  0  0  0  0  0  0
   -0.6565   21.6809  -23.0722 C   0  0  0  0  0  0  0  0  0  0  0  0
   -0.3922   21.7218  -21.6938 C   0  0  0  0  0  0  0  0  0  0  0  0
    0.5209   20.7628  -21.0686 C   0  0  0  0  0  0  0  0  0  0  0  0
    1.4466   19.9048  -21.8046 C   0  0  0  0  0  0  0  0  0  0  0  0
    1.9820   21.1391  -21.2091 C   0  0  0  0  0  0  0  0  0  0  0  0
    0.0435   20.4067  -19.6873 C   0  0  0  0  0  0  0  0  0  0  0  0
    0.1316   19.2227  -19.2655 O   0  0  0  0  0  0  0  0  0  0  0  0
   -0.1436   21.3244  -15.2054 C   0  0  0  0  0  0  0  0  0  0  0  0
   -1.3282   20.7246  -14.8446 C   0  0  0  0  0  0  0  0  0  0  0  0
   -2.2547   20.3595  -15.8029 C   0  0  0  0  0  0  0  0  0  0  0  0
   -1.9626   20.6106  -17.1149 C   0  0  0  0  0  0  0  0  0  0  0  0
   -2.8775   20.2517  -18.0594 F   0  0  0  0  0  0  0  0  0  0  0  0
   -0.7827   21.2140  -17.5433 C   0  0  0  0  0  0  0  0  0  0  0  0
    0.1177   21.5618  -16.5314 C   0  0  0  0  0  0  0  0  0  0  0  0
    1.2731   22.1451  -16.8584 F   0  0  0  0  0  0  0  0  0  0  0  0
    0.5414   21.2519  -12.8829 C   0  0  0  0  0  0  0  0  0  0  0  0
    0.7537   21.6721  -14.2130 O   0  0  0  0  0  0  0  0  0  0  0  0
   -3.4609   19.7532  -15.4888 O   0  0  0  0  0  0  0  0  0  0  0  0
   -3.3874   18.4604  -14.8883 C   0  0  0  0  0  0  0  0  0  0  0  0
   -1.8233   22.6038  -25.0978 C   0  0  0  0  0  0  0  0  0  0  0  0
   -3.0988   22.8983  -25.5801 C   0  0  0  0  0  0  0  0  0  0  0  0
   -3.1118   22.8535  -26.9200 N   0  0  0  0  0  0  0  0  0  0  0  0
   -1.8991   22.5429  -27.3080 N   0  0  0  0  0  0  0  0  0  0  0  0
   -1.0765   22.3810  -26.2149 C   0  0  0  0  0  0  0  0  0  0  0  0
    0.3447   22.0190  -26.2983 C   0  0  0  0  0  0  0  0  0  0  0  0
   -4.2912   23.1142  -27.7311 C   0  0  0  0  0  0  0  0  0  0  0  0
   -5.2835   23.9072  -26.9130 C   0  0  0  0  0  0  0  0  0  0  0  0
   -5.4314   25.2573  -27.3602 N   0  0  0  0  0  0  0  0  0  0  0  0
   -4.9207   26.2045  -26.4147 C   0  0  0  0  0  0  0  0  0  0  0  0
   -4.9203   25.4833  -28.6826 C   0  0  0  0  0  0  0  0  0  0  0  0
 22 23  1  0  0  0
 23 14  1  0  0  0
 14 15  2  0  0  0
 15 16  1  0  0  0
 16 24  1  0  0  0
 24 25  1  0  0  0
 16 17  2  0  0  0
 17 18  1  0  0  0
 17 19  1  0  0  0
 19  1  1  0  0  0
  1  2  1  0  0  0
  2  3  1  0  0  0
  3  4  2  0  0  0
  4  5  1  0  0  0
  5  6  2  0  0  0
  6  7  1  0  0  0
  7  8  2  0  0  0
  8  9  1  0  0  0
  9 10  1  0  0  0
 10 11  1  0  0  0
  9 12  1  0  0  0
 12 13  2  0  0  0
  6 26  1  0  0  0
 26 27  2  0  0  0
 27 28  1  0  0  0
 28 32  1  0  0  0
 32 33  1  0  0  0
 33 34  1  0  0  0
 34 35  1  0  0  0
 34 36  1  0  0  0
 28 29  1  0  0  0
 29 30  2  0  0  0
 30 31  1  0  0  0
 19 20  2  0  0  0
 20 21  1  0  0  0
 20 14  1  0  0  0
 12  1  1  0  0  0
 30 26  1  0  0  0
  8  3  1  0  0  0
 11  9  1  0  0  0
M  END
> <minimizedAffinity>
-6.50161

> <CNNscore>
0.1184397638

> <CNNaffinity>
6.3345518112

> <CNN_VS>
0.7502627969

> <CNNaffinity_variance>
0.0640523285

$$$$
[H]c1nc(-c2c(C([H])([H])[H])nn(C([H])([H])C([H])([H])N(C([H])([H])[H])C([H])([H])[H])c2[H])c([H])c2c1C([H])([H])N(c1c(F)c(OC([H])([H])[H])c([H])c(OC([H])([H])[H])c1F)C(=O)C21C([H])([H])C1([H])[H]


 36 40  0  0  0  0  0  0  0  0999 V2000
   -4.2751   22.3773  -24.1706 N   0  0  0  0  0  0  0  0  0  0  0  0
   -5.2985   21.3578  -23.9666 C   0  0  0  0  0  0  0  0  0  0  0  0
   -6.0953   21.6388  -22.7686 C   0  0  0  0  0  0  0  0  0  0  0  0
   -7.4124   21.2668  -22.6955 C   0  0  0  0  0  0  0  0  0  0  0  0
   -8.1665   21.5052  -21.6355 N   0  0  0  0  0  0  0  0  0  0  0  0
   -7.7012   22.1414  -20.5223 C   0  0  0  0  0  0  0  0  0  0  0  0
   -6.3855   22.5228  -20.5713 C   0  0  0  0  0  0  0  0  0  0  0  0
   -5.5674   22.2798  -21.6862 C   0  0  0  0  0  0  0  0  0  0  0  0
   -4.1641   22.6976  -21.7019 C   0  0  0  0  0  0  0  0  0  0  0  0
   -3.4126   23.1086  -20.5182 C   0  0  0  0  0  0  0  0  0  0  0  0
   -3.2368   21.7284  -20.9968 C   0  0  0  0  0  0  0  0  0  0  0  0
   -3.7618   23.1356  -23.0835 C   0  0  0  0  0  0  0  0  0  0  0  0
   -3.0053   24.1304  -23.2443 O   0  0  0  0  0  0  0  0  0  0  0  0
   -1.9918   22.4728  -27.1062 C   0  0  0  0  0  0  0  0  0  0  0  0
   -2.7673   23.1399  -28.0265 C   0  0  0  0  0  0  0  0  0  0  0  0
   -4.0412   23.5647  -27.6999 C   0  0  0  0  0  0  0  0  0  0  0  0
   -4.5082   23.3040  -26.4415 C   0  0  0  0  0  0  0  0  0  0  0  0
   -5.7652   23.7219  -26.1206 F   0  0  0  0  0  0  0  0  0  0  0  0
   -3.7730   22.6340  -25.4666 C   0  0  0  0  0  0  0  0  0  0  0  0
   -2.4914   22.2278  -25.8519 C   0  0  0  0  0  0  0  0  0  0  0  0
   -1.7218   21.5787  -24.9754 F   0  0  0  0  0  0  0  0  0  0  0  0
    0.3766   22.9360  -27.3171 C   0  0  0  0  0  0  0  0  0  0  0  0
   -0.7234   22.0669  -27.4767 O   0  0  0  0  0  0  0  0  0  0  0  0
   -4.8596   24.2398  -28.5921 O   0  0  0  0  0  0  0  0  0  0  0  0
   -5.4567   23.4581  -29.6264 C   0  0  0  0  0  0  0  0  0  0  0  0
   -8.6107   22.3405  -19.4173 C   0  0  0  0  0  0  0  0  0  0  0  0
   -8.4433   21.7301  -18.1740 C   0  0  0  0  0  0  0  0  0  0  0  0
   -9.4355   22.0834  -17.3445 N   0  0  0  0  0  0  0  0  0  0  0  0
  -10.2252   22.8915  -18.0086 N   0  0  0  0  0  0  0  0  0  0  0  0
   -9.7508   23.0745  -19.2890 C   0  0  0  0  0  0  0  0  0  0  0  0
  -10.4071   23.9146  -20.2996 C   0  0  0  0  0  0  0  0  0  0  0  0
   -9.5517   21.6182  -15.9708 C   0  0  0  0  0  0  0  0  0  0  0  0
   -8.1771   21.2595  -15.4566 C   0  0  0  0  0  0  0  0  0  0  0  0
   -7.7357   22.1045  -14.3909 N   0  0  0  0  0  0  0  0  0  0  0  0
   -7.0211   23.2522  -14.8645 C   0  0  0  0  0  0  0  0  0  0  0  0
   -8.7781   22.4584  -13.4694 C   0  0  0  0  0  0  0  0  0  0  0  0
 22 23  1  0  0  0
 23 14  1  0  0  0
 14 15  2  0  0  0
 15 16  1  0  0  0
 16 24  1  0  0  0
 24 25  1  0  0  0
 16 17  2  0  0  0
 17 18  1  0  0  0
 17 19  1  0  0  0
 19  1  1  0  0  0
  1  2  1  0  0  0
  2  3  1  0  0  0
  3  4  2  0  0  0
  4  5  1  0  0  0
  5  6  2  0  0  0
  6  7  1  0  0  0
  7  8  2  0  0  0
  8  9  1  0  0  0
  9 10  1  0  0  0
 10 11  1  0  0  0
  9 12  1  0  0  0
 12 13  2  0  0  0
  6 26  1  0  0  0
 26 27  2  0  0  0
 27 28  1  0  0  0
 28 32  1  0  0  0
 32 33  1  0  0  0
 33 34  1  0  0  0
 34 35  1  0  0  0
 34 36  1  0  0  0
 28 29  1  0  0  0
 29 30  2  0  0  0
 30 31  1  0  0  0
 19 20  2  0  0  0
 20 21  1  0  0  0
 20 14  1  0  0  0
 12  1  1  0  0  0
 30 26  1  0  0  0
  8  3  1  0  0  0
 11  9  1  0  0  0
M  END
> <minimizedAffinity>
-7.00528

> <CNNscore>
0.1170052439

> <CNNaffinity>
6.5648584366

> <CNN_VS>
0.7681228518

> <CNNaffinity_variance>
0.0425985903

$$$$
[H]c1nc(-c2c(C([H])([H])[H])nn(C([H])([H])C([H])([H])N(C([H])([H])[H])C([H])([H])[H])c2[H])c([H])c2c1C([H])([H])N(c1c(F)c(OC([H])([H])[H])c([H])c(OC([H])([H])[H])c1F)C(=O)C21C([H])([H])C1([H])[H]


 36 40  0  0  0  0  0  0  0  0999 V2000
   -3.2478   22.8051  -22.3390 N   0  0  0  0  0  0  0  0  0  0  0  0
   -4.1944   21.9488  -21.6324 C   0  0  0  0  0  0  0  0  0  0  0  0
   -4.0848   22.1223  -20.1808 C   0  0  0  0  0  0  0  0  0  0  0  0
   -5.1776   21.9661  -19.3684 C   0  0  0  0  0  0  0  0  0  0  0  0
   -5.1220   22.1177  -18.0558 N   0  0  0  0  0  0  0  0  0  0  0  0
   -3.9739   22.4425  -17.3948 C   0  0  0  0  0  0  0  0  0  0  0  0
   -2.8665   22.6033  -18.1864 C   0  0  0  0  0  0  0  0  0  0  0  0
   -2.9034   22.4472  -19.5812 C   0  0  0  0  0  0  0  0  0  0  0  0
   -1.6990   22.6225  -20.3954 C   0  0  0  0  0  0  0  0  0  0  0  0
   -0.3405   22.6685  -19.8595 C   0  0  0  0  0  0  0  0  0  0  0  0
   -0.8094   21.3962  -20.4308 C   0  0  0  0  0  0  0  0  0  0  0  0
   -2.0463   23.2450  -21.7199 C   0  0  0  0  0  0  0  0  0  0  0  0
   -1.2929   24.1132  -22.2359 O   0  0  0  0  0  0  0  0  0  0  0  0
   -4.6134   24.7183  -25.2225 C   0  0  0  0  0  0  0  0  0  0  0  0
   -4.0482   24.0456  -26.2815 C   0  0  0  0  0  0  0  0  0  0  0  0
   -3.2167   22.9628  -26.0666 C   0  0  0  0  0  0  0  0  0  0  0  0
   -2.9718   22.5803  -24.7768 C   0  0  0  0  0  0  0  0  0  0  0  0
   -2.1504   21.5133  -24.5656 F   0  0  0  0  0  0  0  0  0  0  0  0
   -3.5130   23.2194  -23.6640 C   0  0  0  0  0  0  0  0  0  0  0  0
   -4.3466   24.3077  -23.9407 C   0  0  0  0  0  0  0  0  0  0  0  0
   -4.9054   24.9752  -22.9287 F   0  0  0  0  0  0  0  0  0  0  0  0
   -4.9145   27.1050  -25.5080 C   0  0  0  0  0  0  0  0  0  0  0  0
   -5.4391   25.7955  -25.4849 O   0  0  0  0  0  0  0  0  0  0  0  0
   -2.6244   22.2540  -27.1000 O   0  0  0  0  0  0  0  0  0  0  0  0
   -2.3261   22.9877  -28.2874 C   0  0  0  0  0  0  0  0  0  0  0  0
   -4.0257   22.5731  -15.9566 C   0  0  0  0  0  0  0  0  0  0  0  0
   -3.2393   21.8091  -15.0939 C   0  0  0  0  0  0  0  0  0  0  0  0
   -3.4994   22.1311  -13.8187 N   0  0  0  0  0  0  0  0  0  0  0  0
   -4.4174   23.0663  -13.8359 N   0  0  0  0  0  0  0  0  0  0  0  0
   -4.7675   23.3658  -15.1341 C   0  0  0  0  0  0  0  0  0  0  0  0
   -5.7785   24.3644  -15.5065 C   0  0  0  0  0  0  0  0  0  0  0  0
   -2.8444   21.5156  -12.6746 C   0  0  0  0  0  0  0  0  0  0  0  0
   -3.0895   22.3685  -11.4518 C   0  0  0  0  0  0  0  0  0  0  0  0
   -1.9025   22.9874  -10.9492 N   0  0  0  0  0  0  0  0  0  0  0  0
   -2.1668   23.8550   -9.8404 C   0  0  0  0  0  0  0  0  0  0  0  0
   -0.8449   22.0579  -10.6689 C   0  0  0  0  0  0  0  0  0  0  0  0
 22 23  1  0  0  0
 23 14  1  0  0  0
 14 15  2  0  0  0
 15 16  1  0  0  0
 16 24  1  0  0  0
 24 25  1  0  0  0
 16 17  2  0  0  0
 17 18  1  0  0  0
 17 19  1  0  0  0
 19  1  1  0  0  0
  1  2  1  0  0  0
  2  3  1  0  0  0
  3  4  2  0  0  0
  4  5  1  0  0  0
  5  6  2  0  0  0
  6  7  1  0  0  0
  7  8  2  0  0  0
  8  9  1  0  0  0
  9 10  1  0  0  0
 10 11  1  0  0  0
  9 12  1  0  0  0
 12 13  2  0  0  0
  6 26  1  0  0  0
 26 27  2  0  0  0
 27 28  1  0  0  0
 28 32  1  0  0  0
 32 33  1  0  0  0
 33 34  1  0  0  0
 34 35  1  0  0  0
 34 36  1  0  0  0
 28 29  1  0  0  0
 29 30  2  0  0  0
 30 31  1  0  0  0
 19 20  2  0  0  0
 20 21  1  0  0  0
 20 14  1  0  0  0
 12  1  1  0  0  0
 30 26  1  0  0  0
  8  3  1  0  0  0
 11  9  1  0  0  0
M  END
> <minimizedAffinity>
-6.61727

> <CNNscore>
0.1134747192

> <CNNaffinity>
6.1943368912

> <CNN_VS>
0.7029006481

> <CNNaffinity_variance>
0.0327722989

$$$$
[H]c1nc(-c2c(C([H])([H])[H])nn(C([H])([H])C([H])([H])N(C([H])([H])[H])C([H])([H])[H])c2[H])c([H])c2c1C([H])([H])N(c1c(F)c(OC([H])([H])[H])c([H])c(OC([H])([H])[H])c1F)C(=O)C21C([H])([H])C1([H])[H]


 36 40  0  0  0  0  0  0  0  0999 V2000
   -3.1021   22.5748  -22.8541 N   0  0  0  0  0  0  0  0  0  0  0  0
   -4.0421   21.6441  -22.2387 C   0  0  0  0  0  0  0  0  0  0  0  0
   -4.1775   21.9002  -20.8016 C   0  0  0  0  0  0  0  0  0  0  0  0
   -5.3572   21.6507  -20.1499 C   0  0  0  0  0  0  0  0  0  0  0  0
   -5.5217   21.8717  -18.8564 N   0  0  0  0  0  0  0  0  0  0  0  0
   -4.5336   22.3671  -18.0571 C   0  0  0  0  0  0  0  0  0  0  0  0
   -3.3434   22.6240  -18.6864 C   0  0  0  0  0  0  0  0  0  0  0  0
   -3.1472   22.3968  -20.0580 C   0  0  0  0  0  0  0  0  0  0  0  0
   -1.8600   22.6788  -20.6964 C   0  0  0  0  0  0  0  0  0  0  0  0
   -0.6143   22.9176  -19.9711 C   0  0  0  0  0  0  0  0  0  0  0  0
   -0.8414   21.5710  -20.5188 C   0  0  0  0  0  0  0  0  0  0  0  0
   -2.0683   23.1887  -22.0962 C   0  0  0  0  0  0  0  0  0  0  0  0
   -1.3485   24.1167  -22.5527 O   0  0  0  0  0  0  0  0  0  0  0  0
   -2.4147   22.6491  -26.5096 C   0  0  0  0  0  0  0  0  0  0  0  0
   -3.3989   23.5043  -26.9493 C   0  0  0  0  0  0  0  0  0  0  0  0
   -4.2959   24.0646  -26.0598 C   0  0  0  0  0  0  0  0  0  0  0  0
   -4.1790   23.7462  -24.7351 C   0  0  0  0  0  0  0  0  0  0  0  0
   -5.0650   24.2979  -23.8586 F   0  0  0  0  0  0  0  0  0  0  0  0
   -3.2059   22.8882  -24.2284 C   0  0  0  0  0  0  0  0  0  0  0  0
   -2.3257   22.3510  -25.1731 C   0  0  0  0  0  0  0  0  0  0  0  0
   -1.3634   21.5187  -24.7689 F   0  0  0  0  0  0  0  0  0  0  0  0
   -0.2513   22.6647  -27.5993 C   0  0  0  0  0  0  0  0  0  0  0  0
   -1.5392   22.1125  -27.4350 O   0  0  0  0  0  0  0  0  0  0  0  0
   -5.3035   24.9308  -26.4546 O   0  0  0  0  0  0  0  0  0  0  0  0
   -4.9820   26.3214  -26.4627 C   0  0  0  0  0  0  0  0  0  0  0  0
   -4.8205   22.5603  -16.6541 C   0  0  0  0  0  0  0  0  0  0  0  0
   -4.7769   21.5262  -15.7186 C   0  0  0  0  0  0  0  0  0  0  0  0
   -5.0955   21.9867  -14.5005 N   0  0  0  0  0  0  0  0  0  0  0  0
   -5.3398   23.2684  -14.6235 N   0  0  0  0  0  0  0  0  0  0  0  0
   -5.1810   23.6593  -15.9349 C   0  0  0  0  0  0  0  0  0  0  0  0
   -5.3894   25.0309  -16.4179 C   0  0  0  0  0  0  0  0  0  0  0  0
   -5.1411   21.1593  -13.3046 C   0  0  0  0  0  0  0  0  0  0  0  0
   -3.7366   20.7273  -12.9532 C   0  0  0  0  0  0  0  0  0  0  0  0
   -2.8808   21.8195  -12.6075 N   0  0  0  0  0  0  0  0  0  0  0  0
   -2.6461   21.9037  -11.1969 C   0  0  0  0  0  0  0  0  0  0  0  0
   -1.6601   21.8535  -13.3622 C   0  0  0  0  0  0  0  0  0  0  0  0
 22 23  1  0  0  0
 23 14  1  0  0  0
 14 15  2  0  0  0
 15 16  1  0  0  0
 16 24  1  0  0  0
 24 25  1  0  0  0
 16 17  2  0  0  0
 17 18  1  0  0  0
 17 19  1  0  0  0
 19  1  1  0  0  0
  1  2  1  0  0  0
  2  3  1  0  0  0
  3  4  2  0  0  0
  4  5  1  0  0  0
  5  6  2  0  0  0
  6  7  1  0  0  0
  7  8  2  0  0  0
  8  9  1  0  0  0
  9 10  1  0  0  0
 10 11  1  0  0  0
  9 12  1  0  0  0
 12 13  2  0  0  0
  6 26  1  0  0  0
 26 27  2  0  0  0
 27 28  1  0  0  0
 28 32  1  0  0  0
 32 33  1  0  0  0
 33 34  1  0  0  0
 34 35  1  0  0  0
 34 36  1  0  0  0
 28 29  1  0  0  0
 29 30  2  0  0  0
 30 31  1  0  0  0
 19 20  2  0  0  0
 20 21  1  0  0  0
 20 14  1  0  0  0
 12  1  1  0  0  0
 30 26  1  0  0  0
  8  3  1  0  0  0
 11  9  1  0  0  0
M  END
> <minimizedAffinity>
-6.65472

> <CNNscore>
0.1048850045

> <CNNaffinity>
6.3221273422

> <CNN_VS>
0.6630963683

> <CNNaffinity_variance>
0.0327346995

$$$$
[H]c1nc(-c2c(C([H])([H])[H])nn(C([H])([H])C([H])([H])N(C([H])([H])[H])C([H])([H])[H])c2[H])c([H])c2c1C([H])([H])N(c1c(F)c(OC([H])([H])[H])c([H])c(OC([H])([H])[H])c1F)C(=O)C21C([H])([H])C1([H])[H]


 36 40  0  0  0  0  0  0  0  0999 V2000
   -4.9069   24.6003  -25.1873 N   0  0  0  0  0  0  0  0  0  0  0  0
   -3.9332   24.9851  -24.1713 C   0  0  0  0  0  0  0  0  0  0  0  0
   -4.2285   24.3464  -22.8852 C   0  0  0  0  0  0  0  0  0  0  0  0
   -3.2228   24.0232  -22.0120 C   0  0  0  0  0  0  0  0  0  0  0  0
   -3.4463   23.4429  -20.8448 N   0  0  0  0  0  0  0  0  0  0  0  0
   -4.6958   23.1150  -20.4068 C   0  0  0  0  0  0  0  0  0  0  0  0
   -5.7189   23.4293  -21.2631 C   0  0  0  0  0  0  0  0  0  0  0  0
   -5.5040   24.0452  -22.5064 C   0  0  0  0  0  0  0  0  0  0  0  0
   -6.6220   24.3707  -23.3942 C   0  0  0  0  0  0  0  0  0  0  0  0
   -8.0246   24.3795  -22.9851 C   0  0  0  0  0  0  0  0  0  0  0  0
   -7.3181   25.6689  -23.0387 C   0  0  0  0  0  0  0  0  0  0  0  0
   -6.2206   24.1897  -24.8325 C   0  0  0  0  0  0  0  0  0  0  0  0
   -7.0275   23.6952  -25.6644 O   0  0  0  0  0  0  0  0  0  0  0  0
   -3.2509   23.7700  -28.4135 C   0  0  0  0  0  0  0  0  0  0  0  0
   -3.8523   24.6707  -29.2623 C   0  0  0  0  0  0  0  0  0  0  0  0
   -4.8031   25.5567  -28.7922 C   0  0  0  0  0  0  0  0  0  0  0  0
   -5.1288   25.5132  -27.4649 C   0  0  0  0  0  0  0  0  0  0  0  0
   -6.0677   26.3862  -27.0023 F   0  0  0  0  0  0  0  0  0  0  0  0
   -4.5566   24.6261  -26.5564 C   0  0  0  0  0  0  0  0  0  0  0  0
   -3.6012   23.7534  -27.0869 C   0  0  0  0  0  0  0  0  0  0  0  0
   -3.0052   22.8711  -26.2817 F   0  0  0  0  0  0  0  0  0  0  0  0
   -0.9324   23.2200  -28.8496 C   0  0  0  0  0  0  0  0  0  0  0  0
   -2.3050   22.9029  -28.9276 O   0  0  0  0  0  0  0  0  0  0  0  0
   -5.4362   26.4815  -29.6078 O   0  0  0  0  0  0  0  0  0  0  0  0
   -5.3946   26.2274  -31.0118 C   0  0  0  0  0  0  0  0  0  0  0  0
   -4.8248   22.4925  -19.1092 C   0  0  0  0  0  0  0  0  0  0  0  0
   -4.3354   21.2175  -18.8243 C   0  0  0  0  0  0  0  0  0  0  0  0
   -4.6021   20.8899  -17.5519 N   0  0  0  0  0  0  0  0  0  0  0  0
   -5.2400   21.9025  -17.0178 N   0  0  0  0  0  0  0  0  0  0  0  0
   -5.3965   22.9090  -17.9452 C   0  0  0  0  0  0  0  0  0  0  0  0
   -6.0794   24.1812  -17.6748 C   0  0  0  0  0  0  0  0  0  0  0  0
   -4.2224   19.6252  -16.9410 C   0  0  0  0  0  0  0  0  0  0  0  0
   -2.7187   19.5796  -16.8018 C   0  0  0  0  0  0  0  0  0  0  0  0
   -2.2117   20.5212  -15.8526 N   0  0  0  0  0  0  0  0  0  0  0  0
   -2.4854   20.1347  -14.5007 C   0  0  0  0  0  0  0  0  0  0  0  0
   -0.8284   20.8493  -16.0521 C   0  0  0  0  0  0  0  0  0  0  0  0
 22 23  1  0  0  0
 23 14  1  0  0  0
 14 15  2  0  0  0
 15 16  1  0  0  0
 16 24  1  0  0  0
 24 25  1  0  0  0
 16 17  2  0  0  0
 17 18  1  0  0  0
 17 19  1  0  0  0
 19  1  1  0  0  0
  1  2  1  0  0  0
  2  3  1  0  0  0
  3  4  2  0  0  0
  4  5  1  0  0  0
  5  6  2  0  0  0
  6  7  1  0  0  0
  7  8  2  0  0  0
  8  9  1  0  0  0
  9 10  1  0  0  0
 10 11  1  0  0  0
  9 12  1  0  0  0
 12 13  2  0  0  0
  6 26  1  0  0  0
 26 27  2  0  0  0
 27 28  1  0  0  0
 28 32  1  0  0  0
 32 33  1  0  0  0
 33 34  1  0  0  0
 34 35  1  0  0  0
 34 36  1  0  0  0
 28 29  1  0  0  0
 29 30  2  0  0  0
 30 31  1  0  0  0
 19 20  2  0  0  0
 20 21  1  0  0  0
 20 14  1  0  0  0
 12  1  1  0  0  0
 30 26  1  0  0  0
  8  3  1  0  0  0
 11  9  1  0  0  0
M  END
> <minimizedAffinity>
-7.51675

> <CNNscore>
0.1035520881

> <CNNaffinity>
6.7140250206

> <CNN_VS>
0.6952512860

> <CNNaffinity_variance>
0.2851037681

$$$$
[H]c1nc(-c2c(C([H])([H])[H])nn(C([H])([H])C([H])([H])N(C([H])([H])[H])C([H])([H])[H])c2[H])c([H])c2c1C([H])([H])N(c1c(F)c(OC([H])([H])[H])c([H])c(OC([H])([H])[H])c1F)C(=O)C21C([H])([H])C1([H])[H]


 36 40  0  0  0  0  0  0  0  0999 V2000
   -3.3067   22.6559  -22.8723 N   0  0  0  0  0  0  0  0  0  0  0  0
   -4.3749   21.7855  -22.3929 C   0  0  0  0  0  0  0  0  0  0  0  0
   -4.6885   22.0564  -20.9867 C   0  0  0  0  0  0  0  0  0  0  0  0
   -5.9583   21.8804  -20.5017 C   0  0  0  0  0  0  0  0  0  0  0  0
   -6.2833   22.1172  -19.2419 N   0  0  0  0  0  0  0  0  0  0  0  0
   -5.3851   22.5572  -18.3144 C   0  0  0  0  0  0  0  0  0  0  0  0
   -4.1074   22.7402  -18.7757 C   0  0  0  0  0  0  0  0  0  0  0  0
   -3.7409   22.4948  -20.1087 C   0  0  0  0  0  0  0  0  0  0  0  0
   -2.3645   22.6970  -20.5657 C   0  0  0  0  0  0  0  0  0  0  0  0
   -1.2168   22.8652  -19.6774 C   0  0  0  0  0  0  0  0  0  0  0  0
   -1.4470   21.5318  -20.2550 C   0  0  0  0  0  0  0  0  0  0  0  0
   -2.3506   23.2113  -21.9792 C   0  0  0  0  0  0  0  0  0  0  0  0
   -1.5218   24.0929  -22.3310 O   0  0  0  0  0  0  0  0  0  0  0  0
   -2.1796   22.6136  -26.4174 C   0  0  0  0  0  0  0  0  0  0  0  0
   -2.9902   23.5802  -26.9672 C   0  0  0  0  0  0  0  0  0  0  0  0
   -3.9116   24.2546  -26.1887 C   0  0  0  0  0  0  0  0  0  0  0  0
   -3.9956   23.9354  -24.8618 C   0  0  0  0  0  0  0  0  0  0  0  0
   -4.9057   24.5999  -24.0950 F   0  0  0  0  0  0  0  0  0  0  0  0
   -3.2044   22.9681  -24.2470 C   0  0  0  0  0  0  0  0  0  0  0  0
   -2.2900   22.3181  -25.0820 C   0  0  0  0  0  0  0  0  0  0  0  0
   -1.4939   21.3768  -24.5700 F   0  0  0  0  0  0  0  0  0  0  0  0
    0.0627   22.4155  -27.3124 C   0  0  0  0  0  0  0  0  0  0  0  0
   -1.2721   21.9651  -27.2339 O   0  0  0  0  0  0  0  0  0  0  0  0
   -4.7493   25.2352  -26.6966 O   0  0  0  0  0  0  0  0  0  0  0  0
   -4.6838   25.4634  -28.1041 C   0  0  0  0  0  0  0  0  0  0  0  0
   -5.8475   22.7740  -16.9627 C   0  0  0  0  0  0  0  0  0  0  0  0
   -5.8708   24.0312  -16.3584 C   0  0  0  0  0  0  0  0  0  0  0  0
   -6.3357   23.9366  -15.1045 N   0  0  0  0  0  0  0  0  0  0  0  0
   -6.6079   22.6731  -14.8876 N   0  0  0  0  0  0  0  0  0  0  0  0
   -6.3207   21.9253  -16.0083 C   0  0  0  0  0  0  0  0  0  0  0  0
   -6.5008   20.4701  -16.0975 C   0  0  0  0  0  0  0  0  0  0  0  0
   -6.4855   25.0703  -14.2049 C   0  0  0  0  0  0  0  0  0  0  0  0
   -7.8175   24.9642  -13.4998 C   0  0  0  0  0  0  0  0  0  0  0  0
   -8.2011   26.1708  -12.8351 N   0  0  0  0  0  0  0  0  0  0  0  0
   -9.6088   26.4201  -12.9257 C   0  0  0  0  0  0  0  0  0  0  0  0
   -7.7215   26.2597  -11.4849 C   0  0  0  0  0  0  0  0  0  0  0  0
 22 23  1  0  0  0
 23 14  1  0  0  0
 14 15  2  0  0  0
 15 16  1  0  0  0
 16 24  1  0  0  0
 24 25  1  0  0  0
 16 17  2  0  0  0
 17 18  1  0  0  0
 17 19  1  0  0  0
 19  1  1  0  0  0
  1  2  1  0  0  0
  2  3  1  0  0  0
  3  4  2  0  0  0
  4  5  1  0  0  0
  5  6  2  0  0  0
  6  7  1  0  0  0
  7  8  2  0  0  0
  8  9  1  0  0  0
  9 10  1  0  0  0
 10 11  1  0  0  0
  9 12  1  0  0  0
 12 13  2  0  0  0
  6 26  1  0  0  0
 26 27  2  0  0  0
 27 28  1  0  0  0
 28 32  1  0  0  0
 32 33  1  0  0  0
 33 34  1  0  0  0
 34 35  1  0  0  0
 34 36  1  0  0  0
 28 29  1  0  0  0
 29 30  2  0  0  0
 30 31  1  0  0  0
 19 20  2  0  0  0
 20 21  1  0  0  0
 20 14  1  0  0  0
 12  1  1  0  0  0
 30 26  1  0  0  0
  8  3  1  0  0  0
 11  9  1  0  0  0
M  END
> <minimizedAffinity>
-7.28884

> <CNNscore>
0.1024046466

> <CNNaffinity>
6.0141820908

> <CNN_VS>
0.6158801913

> <CNNaffinity_variance>
0.0800306723

$$$$
[H]c1nc(-c2c(C([H])([H])[H])nn(C([H])([H])C([H])([H])N(C([H])([H])[H])C([H])([H])[H])c2[H])c([H])c2c1C([H])([H])N(c1c(F)c(OC([H])([H])[H])c([H])c(OC([H])([H])[H])c1F)C(=O)C21C([H])([H])C1([H])[H]


 36 40  0  0  0  0  0  0  0  0999 V2000
   -5.2901   23.1227  -24.4464 N   0  0  0  0  0  0  0  0  0  0  0  0
   -5.7068   21.8916  -23.7836 C   0  0  0  0  0  0  0  0  0  0  0  0
   -6.6767   22.1650  -22.7188 C   0  0  0  0  0  0  0  0  0  0  0  0
   -7.6462   21.2509  -22.3976 C   0  0  0  0  0  0  0  0  0  0  0  0
   -8.5418   21.4605  -21.4474 N   0  0  0  0  0  0  0  0  0  0  0  0
   -8.5805   22.6033  -20.7037 C   0  0  0  0  0  0  0  0  0  0  0  0
   -7.6197   23.5330  -21.0062 C   0  0  0  0  0  0  0  0  0  0  0  0
   -6.6598   23.3308  -22.0107 C   0  0  0  0  0  0  0  0  0  0  0  0
   -5.6447   24.3447  -22.3038 C   0  0  0  0  0  0  0  0  0  0  0  0
   -5.3346   25.4770  -21.4341 C   0  0  0  0  0  0  0  0  0  0  0  0
   -4.4558   24.2989  -21.3654 C   0  0  0  0  0  0  0  0  0  0  0  0
   -5.3432   24.3755  -23.7772 C   0  0  0  0  0  0  0  0  0  0  0  0
   -5.1510   25.4717  -24.3680 O   0  0  0  0  0  0  0  0  0  0  0  0
   -3.0699   22.6229  -27.3893 C   0  0  0  0  0  0  0  0  0  0  0  0
   -3.8910   23.0295  -28.4158 C   0  0  0  0  0  0  0  0  0  0  0  0
   -5.1756   23.4699  -28.1595 C   0  0  0  0  0  0  0  0  0  0  0  0
   -5.6066   23.4898  -26.8620 C   0  0  0  0  0  0  0  0  0  0  0  0
   -6.8742   23.9228  -26.6100 F   0  0  0  0  0  0  0  0  0  0  0  0
   -4.8246   23.0915  -25.7806 C   0  0  0  0  0  0  0  0  0  0  0  0
   -3.5343   22.6558  -26.0985 C   0  0  0  0  0  0  0  0  0  0  0  0
   -2.7206   22.2565  -25.1185 F   0  0  0  0  0  0  0  0  0  0  0  0
   -0.6706   22.9364  -27.2733 C   0  0  0  0  0  0  0  0  0  0  0  0
   -1.7924   22.1905  -27.6926 O   0  0  0  0  0  0  0  0  0  0  0  0
   -6.0394   23.8891  -29.1593 O   0  0  0  0  0  0  0  0  0  0  0  0
   -5.7357   25.1369  -29.7823 C   0  0  0  0  0  0  0  0  0  0  0  0
   -9.5971   22.7222  -19.6838 C   0  0  0  0  0  0  0  0  0  0  0  0
   -9.7916   21.7653  -18.6873 C   0  0  0  0  0  0  0  0  0  0  0  0
  -10.8045   22.1261  -17.8866 N   0  0  0  0  0  0  0  0  0  0  0  0
  -11.2610   23.2707  -18.3329 N   0  0  0  0  0  0  0  0  0  0  0  0
  -10.5434   23.6707  -19.4386 C   0  0  0  0  0  0  0  0  0  0  0  0
  -10.8049   24.9061  -20.1892 C   0  0  0  0  0  0  0  0  0  0  0  0
  -11.2598   21.3431  -16.7480 C   0  0  0  0  0  0  0  0  0  0  0  0
  -11.8535   20.0475  -17.2497 C   0  0  0  0  0  0  0  0  0  0  0  0
  -11.6054   18.9398  -16.3803 N   0  0  0  0  0  0  0  0  0  0  0  0
  -12.1414   17.7137  -16.8916 C   0  0  0  0  0  0  0  0  0  0  0  0
  -10.2285   18.8094  -15.9951 C   0  0  0  0  0  0  0  0  0  0  0  0
 22 23  1  0  0  0
 23 14  1  0  0  0
 14 15  2  0  0  0
 15 16  1  0  0  0
 16 24  1  0  0  0
 24 25  1  0  0  0
 16 17  2  0  0  0
 17 18  1  0  0  0
 17 19  1  0  0  0
 19  1  1  0  0  0
  1  2  1  0  0  0
  2  3  1  0  0  0
  3  4  2  0  0  0
  4  5  1  0  0  0
  5  6  2  0  0  0
  6  7  1  0  0  0
  7  8  2  0  0  0
  8  9  1  0  0  0
  9 10  1  0  0  0
 10 11  1  0  0  0
  9 12  1  0  0  0
 12 13  2  0  0  0
  6 26  1  0  0  0
 26 27  2  0  0  0
 27 28  1  0  0  0
 28 32  1  0  0  0
 32 33  1  0  0  0
 33 34  1  0  0  0
 34 35  1  0  0  0
 34 36  1  0  0  0
 28 29  1  0  0  0
 29 30  2  0  0  0
 30 31  1  0  0  0
 19 20  2  0  0  0
 20 21  1  0  0  0
 20 14  1  0  0  0
 12  1  1  0  0  0
 30 26  1  0  0  0
  8  3  1  0  0  0
 11  9  1  0  0  0
M  END
> <minimizedAffinity>
-7.47942

> <CNNscore>
0.1012753844

> <CNNaffinity>
6.4360074997

> <CNN_VS>
0.6518091559

> <CNNaffinity_variance>
0.0865982398

$$$$
[H]OC([H])([H])C([H])([H])N(c1nc([H])c2nc([H])c(-c3c([H])nn(C([H])([H])[H])c3[H])nc2n1)c1c([H])c(OC([H])([H])[H])c([H])c(OC([H])([H])[H])c1[H]


 31 34  0  0  0  0  0  0  0  0999 V2000
   -1.0041   22.2008  -23.5769 C   0  0  0  0  0  0  0  0  0  0  0  0
    0.1653   21.9380  -24.1286 N   0  0  0  0  0  0  0  0  0  0  0  0
    0.4342   22.0451  -25.4283 C   0  0  0  0  0  0  0  0  0  0  0  0
   -0.5875   22.4627  -26.2640 C   0  0  0  0  0  0  0  0  0  0  0  0
   -0.4125   22.5996  -27.5771 N   0  0  0  0  0  0  0  0  0  0  0  0
   -1.4133   23.0081  -28.3876 C   0  0  0  0  0  0  0  0  0  0  0  0
   -2.6604   23.2994  -27.8777 C   0  0  0  0  0  0  0  0  0  0  0  0
   -2.8365   23.1613  -26.5542 N   0  0  0  0  0  0  0  0  0  0  0  0
   -1.8284   22.7494  -25.7346 C   0  0  0  0  0  0  0  0  0  0  0  0
   -2.0027   22.6124  -24.4183 N   0  0  0  0  0  0  0  0  0  0  0  0
   -3.7418   23.7435  -28.7701 C   0  0  0  0  0  0  0  0  0  0  0  0
   -4.8580   23.0022  -29.0970 C   0  0  0  0  0  0  0  0  0  0  0  0
   -5.6043   23.7351  -29.9235 N   0  0  0  0  0  0  0  0  0  0  0  0
   -5.0267   24.9052  -30.1436 N   0  0  0  0  0  0  0  0  0  0  0  0
   -5.5559   25.9424  -30.9861 C   0  0  0  0  0  0  0  0  0  0  0  0
   -3.8642   24.9304  -29.4334 C   0  0  0  0  0  0  0  0  0  0  0  0
   -1.2211   22.0672  -22.2002 N   0  0  0  0  0  0  0  0  0  0  0  0
    0.4639   19.1684  -20.5329 C   0  0  0  0  0  0  0  0  0  0  0  0
    1.0912   19.8257  -19.5005 C   0  0  0  0  0  0  0  0  0  0  0  0
    0.9733   21.1950  -19.3594 C   0  0  0  0  0  0  0  0  0  0  0  0
    0.2172   21.8851  -20.2723 C   0  0  0  0  0  0  0  0  0  0  0  0
   -0.4483   21.2674  -21.3507 C   0  0  0  0  0  0  0  0  0  0  0  0
   -0.2897   19.9049  -21.4310 C   0  0  0  0  0  0  0  0  0  0  0  0
   -0.2252   16.9660  -19.8760 C   0  0  0  0  0  0  0  0  0  0  0  0
    0.5531   17.7972  -20.7144 O   0  0  0  0  0  0  0  0  0  0  0  0
    1.6027   21.8639  -18.3204 O   0  0  0  0  0  0  0  0  0  0  0  0
    1.9681   23.2190  -18.4321 C   0  0  0  0  0  0  0  0  0  0  0  0
   -2.2972   22.8855  -21.6283 C   0  0  0  0  0  0  0  0  0  0  0  0
   -3.4213   22.0796  -21.0705 C   0  0  0  0  0  0  0  0  0  0  0  0
   -3.8957   21.2707  -22.1273 O   0  0  0  0  0  0  0  0  0  0  0  0
   -3.8004   21.7180  -22.9977 H   0  0  0  0  0  0  0  0  0  0  0  0
 24 25  1  0  0  0
 25 18  1  0  0  0
 18 19  2  0  0  0
 19 20  1  0  0  0
 20 26  1  0  0  0
 26 27  1  0  0  0
 20 21  2  0  0  0
 21 22  1  0  0  0
 22 23  2  0  0  0
 22 17  1  0  0  0
 17 28  1  0  0  0
 28 29  1  0  0  0
 29 30  1  0  0  0
 17  1  1  0  0  0
  1  2  2  0  0  0
  2  3  1  0  0  0
  3  4  2  0  0  0
  4  5  1  0  0  0
  5  6  2  0  0  0
  6  7  1  0  0  0
  7  8  2  0  0  0
  8  9  1  0  0  0
  9 10  2  0  0  0
  7 11  1  0  0  0
 11 12  1  0  0  0
 12 13  2  0  0  0
 13 14  1  0  0  0
 14 15  1  0  0  0
 14 16  1  0  0  0
 23 18  1  0  0  0
 10  1  1  0  0  0
 16 11  2  0  0  0
  9  4  1  0  0  0
 30 31  1  0  0  0
M  END
> <minimizedAffinity>
-6.95323

> <CNNscore>
0.7835577130

> <CNNaffinity>
6.8163070679

> <CNN_VS>
5.3409700394

> <CNNaffinity_variance>
0.1285807192

$$$$
[H]OC([H])([H])C([H])([H])N(c1nc([H])c2nc([H])c(-c3c([H])nn(C([H])([H])[H])c3[H])nc2n1)c1c([H])c(OC([H])([H])[H])c([H])c(OC([H])([H])[H])c1[H]


 31 34  0  0  0  0  0  0  0  0999 V2000
   -0.9757   22.1207  -23.3614 C   0  0  0  0  0  0  0  0  0  0  0  0
    0.1376   21.7801  -23.9821 N   0  0  0  0  0  0  0  0  0  0  0  0
    0.3312   21.8633  -25.2969 C   0  0  0  0  0  0  0  0  0  0  0  0
   -0.7116   22.3423  -26.0714 C   0  0  0  0  0  0  0  0  0  0  0  0
   -0.6105   22.4613  -27.3939 N   0  0  0  0  0  0  0  0  0  0  0  0
   -1.6316   22.9298  -28.1444 C   0  0  0  0  0  0  0  0  0  0  0  0
   -2.8231   23.3038  -27.5607 C   0  0  0  0  0  0  0  0  0  0  0  0
   -2.9247   23.1838  -26.2277 N   0  0  0  0  0  0  0  0  0  0  0  0
   -1.8960   22.7113  -25.4686 C   0  0  0  0  0  0  0  0  0  0  0  0
   -1.9963   22.5921  -24.1429 N   0  0  0  0  0  0  0  0  0  0  0  0
   -3.9272   23.8128  -28.3882 C   0  0  0  0  0  0  0  0  0  0  0  0
   -5.2297   23.3614  -28.3414 C   0  0  0  0  0  0  0  0  0  0  0  0
   -5.9337   24.0600  -29.2322 N   0  0  0  0  0  0  0  0  0  0  0  0
   -5.1529   24.9340  -29.8468 N   0  0  0  0  0  0  0  0  0  0  0  0
   -5.5821   25.8506  -30.8673 C   0  0  0  0  0  0  0  0  0  0  0  0
   -3.8978   24.7960  -29.3350 C   0  0  0  0  0  0  0  0  0  0  0  0
   -1.1145   22.0080  -21.9727 N   0  0  0  0  0  0  0  0  0  0  0  0
    1.4525   20.9251  -19.4708 C   0  0  0  0  0  0  0  0  0  0  0  0
    1.3892   19.5625  -19.6466 C   0  0  0  0  0  0  0  0  0  0  0  0
    0.5136   19.0080  -20.5602 C   0  0  0  0  0  0  0  0  0  0  0  0
   -0.2920   19.8463  -21.2880 C   0  0  0  0  0  0  0  0  0  0  0  0
   -0.2725   21.2492  -21.1518 C   0  0  0  0  0  0  0  0  0  0  0  0
    0.6213   21.7335  -20.2273 C   0  0  0  0  0  0  0  0  0  0  0  0
    2.3126   22.9382  -18.4886 C   0  0  0  0  0  0  0  0  0  0  0  0
    2.3145   21.5263  -18.5672 O   0  0  0  0  0  0  0  0  0  0  0  0
    0.4450   17.6350  -20.7428 O   0  0  0  0  0  0  0  0  0  0  0  0
    0.8671   16.7378  -19.7432 C   0  0  0  0  0  0  0  0  0  0  0  0
   -2.1836   22.8045  -21.3586 C   0  0  0  0  0  0  0  0  0  0  0  0
   -3.2680   21.9760  -20.7568 C   0  0  0  0  0  0  0  0  0  0  0  0
   -3.8590   21.2580  -21.8204 O   0  0  0  0  0  0  0  0  0  0  0  0
   -3.8365   21.7690  -22.6601 H   0  0  0  0  0  0  0  0  0  0  0  0
 24 25  1  0  0  0
 25 18  1  0  0  0
 18 19  2  0  0  0
 19 20  1  0  0  0
 20 26  1  0  0  0
 26 27  1  0  0  0
 20 21  2  0  0  0
 21 22  1  0  0  0
 22 23  2  0  0  0
 22 17  1  0  0  0
 17 28  1  0  0  0
 28 29  1  0  0  0
 29 30  1  0  0  0
 17  1  1  0  0  0
  1  2  2  0  0  0
  2  3  1  0  0  0
  3  4  2  0  0  0
  4  5  1  0  0  0
  5  6  2  0  0  0
  6  7  1  0  0  0
  7  8  2  0  0  0
  8  9  1  0  0  0
  9 10  2  0  0  0
  7 11  1  0  0  0
 11 12  1  0  0  0
 12 13  2  0  0  0
 13 14  1  0  0  0
 14 15  1  0  0  0
 14 16  1  0  0  0
 23 18  1  0  0  0
 10  1  1  0  0  0
 16 11  2  0  0  0
  9  4  1  0  0  0
 30 31  1  0  0  0
M  END
> <minimizedAffinity>
-6.86640

> <CNNscore>
0.6893130541

> <CNNaffinity>
6.7220435143

> <CNN_VS>
4.6335921288

> <CNNaffinity_variance>
0.1281001419

$$$$
[H]OC([H])([H])C([H])([H])N(c1nc([H])c2nc([H])c(-c3c([H])nn(C([H])([H])[H])c3[H])nc2n1)c1c([H])c(OC([H])([H])[H])c([H])c(OC([H])([H])[H])c1[H]


 31 34  0  0  0  0  0  0  0  0999 V2000
   -2.3960   22.1884  -25.0543 C   0  0  0  0  0  0  0  0  0  0  0  0
   -1.4369   22.4154  -25.9314 N   0  0  0  0  0  0  0  0  0  0  0  0
   -0.1370   22.2458  -25.6978 C   0  0  0  0  0  0  0  0  0  0  0  0
    0.2376   21.7985  -24.4423 C   0  0  0  0  0  0  0  0  0  0  0  0
    1.5135   21.5994  -24.1167 N   0  0  0  0  0  0  0  0  0  0  0  0
    1.8729   21.1623  -22.8899 C   0  0  0  0  0  0  0  0  0  0  0  0
    0.9223   20.9055  -21.9253 C   0  0  0  0  0  0  0  0  0  0  0  0
   -0.3636   21.1063  -22.2537 N   0  0  0  0  0  0  0  0  0  0  0  0
   -0.7286   21.5473  -23.4906 C   0  0  0  0  0  0  0  0  0  0  0  0
   -2.0073   21.7467  -23.8180 N   0  0  0  0  0  0  0  0  0  0  0  0
    1.3259   20.4296  -20.5936 C   0  0  0  0  0  0  0  0  0  0  0  0
    2.2008   21.0796  -19.7483 C   0  0  0  0  0  0  0  0  0  0  0  0
    2.3162   20.3460  -18.6412 N   0  0  0  0  0  0  0  0  0  0  0  0
    1.5629   19.2617  -18.7317 N   0  0  0  0  0  0  0  0  0  0  0  0
    1.4472   18.2492  -17.7182 C   0  0  0  0  0  0  0  0  0  0  0  0
    0.9371   19.2950  -19.9415 C   0  0  0  0  0  0  0  0  0  0  0  0
   -3.7467   22.3876  -25.3645 N   0  0  0  0  0  0  0  0  0  0  0  0
   -4.9442   24.0443  -28.5020 C   0  0  0  0  0  0  0  0  0  0  0  0
   -5.0764   25.3357  -28.0479 C   0  0  0  0  0  0  0  0  0  0  0  0
   -4.7892   25.6558  -26.7350 C   0  0  0  0  0  0  0  0  0  0  0  0
   -4.3695   24.6571  -25.8936 C   0  0  0  0  0  0  0  0  0  0  0  0
   -4.2156   23.3163  -26.3007 C   0  0  0  0  0  0  0  0  0  0  0  0
   -4.5171   23.0680  -27.6181 C   0  0  0  0  0  0  0  0  0  0  0  0
   -5.6171   24.6887  -30.7131 C   0  0  0  0  0  0  0  0  0  0  0  0
   -5.2203   23.6761  -29.8094 O   0  0  0  0  0  0  0  0  0  0  0  0
   -4.9198   26.9560  -26.2707 O   0  0  0  0  0  0  0  0  0  0  0  0
   -4.1673   27.4260  -25.1774 C   0  0  0  0  0  0  0  0  0  0  0  0
   -4.7061   21.5010  -24.6950 C   0  0  0  0  0  0  0  0  0  0  0  0
   -5.6178   22.2163  -23.7561 C   0  0  0  0  0  0  0  0  0  0  0  0
   -4.8488   22.5283  -22.6127 O   0  0  0  0  0  0  0  0  0  0  0  0
   -4.1609   21.8471  -22.4409 H   0  0  0  0  0  0  0  0  0  0  0  0
 24 25  1  0  0  0
 25 18  1  0  0  0
 18 19  2  0  0  0
 19 20  1  0  0  0
 20 26  1  0  0  0
 26 27  1  0  0  0
 20 21  2  0  0  0
 21 22  1  0  0  0
 22 23  2  0  0  0
 22 17  1  0  0  0
 17 28  1  0  0  0
 28 29  1  0  0  0
 29 30  1  0  0  0
 17  1  1  0  0  0
  1  2  2  0  0  0
  2  3  1  0  0  0
  3  4  2  0  0  0
  4  5  1  0  0  0
  5  6  2  0  0  0
  6  7  1  0  0  0
  7  8  2  0  0  0
  8  9  1  0  0  0
  9 10  2  0  0  0
  7 11  1  0  0  0
 11 12  1  0  0  0
 12 13  2  0  0  0
 13 14  1  0  0  0
 14 15  1  0  0  0
 14 16  1  0  0  0
 23 18  1  0  0  0
 10  1  1  0  0  0
 16 11  2  0  0  0
  9  4  1  0  0  0
 30 31  1  0  0  0
M  END
> <minimizedAffinity>
-6.84340

> <CNNscore>
0.4260396957

> <CNNaffinity>
6.6229310036

> <CNN_VS>
2.8216314316

> <CNNaffinity_variance>
0.0529768467

$$$$
[H]OC([H])([H])C([H])([H])N(c1nc([H])c2nc([H])c(-c3c([H])nn(C([H])([H])[H])c3[H])nc2n1)c1c([H])c(OC([H])([H])[H])c([H])c(OC([H])([H])[H])c1[H]


 31 34  0  0  0  0  0  0  0  0999 V2000
   -2.6495   22.2744  -23.1977 C   0  0  0  0  0  0  0  0  0  0  0  0
   -1.4208   21.8950  -23.4926 N   0  0  0  0  0  0  0  0  0  0  0  0
   -0.8920   21.9129  -24.7145 C   0  0  0  0  0  0  0  0  0  0  0  0
   -1.6890   22.3622  -25.7535 C   0  0  0  0  0  0  0  0  0  0  0  0
   -1.2468   22.4162  -27.0085 N   0  0  0  0  0  0  0  0  0  0  0  0
   -2.0293   22.8561  -28.0183 C   0  0  0  0  0  0  0  0  0  0  0  0
   -3.3233   23.2676  -27.7810 C   0  0  0  0  0  0  0  0  0  0  0  0
   -3.7687   23.2131  -26.5160 N   0  0  0  0  0  0  0  0  0  0  0  0
   -2.9813   22.7696  -25.4957 C   0  0  0  0  0  0  0  0  0  0  0  0
   -3.4234   22.7157  -24.2374 N   0  0  0  0  0  0  0  0  0  0  0  0
   -4.1651   23.7448  -28.8884 C   0  0  0  0  0  0  0  0  0  0  0  0
   -5.1643   23.0159  -29.4991 C   0  0  0  0  0  0  0  0  0  0  0  0
   -5.6992   23.7795  -30.4521 N   0  0  0  0  0  0  0  0  0  0  0  0
   -5.0969   24.9574  -30.4849 N   0  0  0  0  0  0  0  0  0  0  0  0
   -5.4201   26.0256  -31.3904 C   0  0  0  0  0  0  0  0  0  0  0  0
   -4.1373   24.9561  -29.5176 C   0  0  0  0  0  0  0  0  0  0  0  0
   -3.1451   22.2303  -21.8889 N   0  0  0  0  0  0  0  0  0  0  0  0
   -6.2358   24.1710  -21.0502 C   0  0  0  0  0  0  0  0  0  0  0  0
   -7.0683   23.1382  -20.6873 C   0  0  0  0  0  0  0  0  0  0  0  0
   -6.6287   21.8290  -20.7272 C   0  0  0  0  0  0  0  0  0  0  0  0
   -5.3435   21.5815  -21.1374 C   0  0  0  0  0  0  0  0  0  0  0  0
   -4.4448   22.5973  -21.5216 C   0  0  0  0  0  0  0  0  0  0  0  0
   -4.9461   23.8751  -21.4574 C   0  0  0  0  0  0  0  0  0  0  0  0
   -7.5953   25.9200  -21.9720 C   0  0  0  0  0  0  0  0  0  0  0  0
   -6.6322   25.4989  -21.0261 O   0  0  0  0  0  0  0  0  0  0  0  0
   -7.4628   20.7830  -20.3620 O   0  0  0  0  0  0  0  0  0  0  0  0
   -7.5704   20.3608  -19.0231 C   0  0  0  0  0  0  0  0  0  0  0  0
   -2.2375   21.6954  -20.8668 C   0  0  0  0  0  0  0  0  0  0  0  0
   -1.8973   22.6827  -19.8020 C   0  0  0  0  0  0  0  0  0  0  0  0
   -1.2186   23.7433  -20.4428 O   0  0  0  0  0  0  0  0  0  0  0  0
   -0.6942   23.4266  -21.2119 H   0  0  0  0  0  0  0  0  0  0  0  0
 24 25  1  0  0  0
 25 18  1  0  0  0
 18 19  2  0  0  0
 19 20  1  0  0  0
 20 26  1  0  0  0
 26 27  1  0  0  0
 20 21  2  0  0  0
 21 22  1  0  0  0
 22 23  2  0  0  0
 22 17  1  0  0  0
 17 28  1  0  0  0
 28 29  1  0  0  0
 29 30  1  0  0  0
 17  1  1  0  0  0
  1  2  2  0  0  0
  2  3  1  0  0  0
  3  4  2  0  0  0
  4  5  1  0  0  0
  5  6  2  0  0  0
  6  7  1  0  0  0
  7  8  2  0  0  0
  8  9  1  0  0  0
  9 10  2  0  0  0
  7 11  1  0  0  0
 11 12  1  0  0  0
 12 13  2  0  0  0
 13 14  1  0  0  0
 14 15  1  0  0  0
 14 16  1  0  0  0
 23 18  1  0  0  0
 10  1  1  0  0  0
 16 11  2  0  0  0
  9  4  1  0  0  0
 30 31  1  0  0  0
M  END
> <minimizedAffinity>
-7.57220

> <CNNscore>
0.4100355506

> <CNNaffinity>
6.7762284279

> <CNN_VS>
2.7784945965

> <CNNaffinity_variance>
0.4550217688

$$$$
[H]OC([H])([H])C([H])([H])N(c1nc([H])c2nc([H])c(-c3c([H])nn(C([H])([H])[H])c3[H])nc2n1)c1c([H])c(OC([H])([H])[H])c([H])c(OC([H])([H])[H])c1[H]


 31 34  0  0  0  0  0  0  0  0999 V2000
   -4.3689   22.9553  -25.4224 C   0  0  0  0  0  0  0  0  0  0  0  0
   -3.9340   23.1788  -26.6478 N   0  0  0  0  0  0  0  0  0  0  0  0
   -2.6723   23.0288  -27.0461 C   0  0  0  0  0  0  0  0  0  0  0  0
   -1.7471   22.6072  -26.1063 C   0  0  0  0  0  0  0  0  0  0  0  0
   -0.4633   22.4288  -26.4118 N   0  0  0  0  0  0  0  0  0  0  0  0
    0.4349   22.0169  -25.4904 C   0  0  0  0  0  0  0  0  0  0  0  0
    0.0487   21.7651  -24.1913 C   0  0  0  0  0  0  0  0  0  0  0  0
   -1.2454   21.9450  -23.8837 N   0  0  0  0  0  0  0  0  0  0  0  0
   -2.1532   22.3606  -24.8114 C   0  0  0  0  0  0  0  0  0  0  0  0
   -3.4404   22.5392  -24.5062 N   0  0  0  0  0  0  0  0  0  0  0  0
    1.0355   21.3166  -23.1974 C   0  0  0  0  0  0  0  0  0  0  0  0
    2.3807   21.1312  -23.4399 C   0  0  0  0  0  0  0  0  0  0  0  0
    2.9456   20.7236  -22.3033 N   0  0  0  0  0  0  0  0  0  0  0  0
    2.0355   20.6379  -21.3464 N   0  0  0  0  0  0  0  0  0  0  0  0
    2.2955   20.2290  -19.9933 C   0  0  0  0  0  0  0  0  0  0  0  0
    0.8379   21.0035  -21.8834 C   0  0  0  0  0  0  0  0  0  0  0  0
   -5.7119   23.1330  -25.0684 N   0  0  0  0  0  0  0  0  0  0  0  0
   -7.3061   22.1324  -21.8313 C   0  0  0  0  0  0  0  0  0  0  0  0
   -7.1574   23.3038  -21.1262 C   0  0  0  0  0  0  0  0  0  0  0  0
   -6.5363   24.3979  -21.6969 C   0  0  0  0  0  0  0  0  0  0  0  0
   -6.0704   24.2903  -22.9826 C   0  0  0  0  0  0  0  0  0  0  0  0
   -6.1932   23.1171  -23.7543 C   0  0  0  0  0  0  0  0  0  0  0  0
   -6.8212   22.0685  -23.1264 C   0  0  0  0  0  0  0  0  0  0  0  0
   -8.1094   20.9564  -19.9002 C   0  0  0  0  0  0  0  0  0  0  0  0
   -7.9221   21.0098  -21.3008 O   0  0  0  0  0  0  0  0  0  0  0  0
   -6.3836   25.5823  -20.9918 O   0  0  0  0  0  0  0  0  0  0  0  0
   -6.5723   25.6381  -19.5977 C   0  0  0  0  0  0  0  0  0  0  0  0
   -6.6422   23.4199  -26.1669 C   0  0  0  0  0  0  0  0  0  0  0  0
   -7.0726   24.8469  -26.2209 C   0  0  0  0  0  0  0  0  0  0  0  0
   -8.4653   24.8533  -25.9835 O   0  0  0  0  0  0  0  0  0  0  0  0
   -8.8969   24.0420  -26.3331 H   0  0  0  0  0  0  0  0  0  0  0  0
 24 25  1  0  0  0
 25 18  1  0  0  0
 18 19  2  0  0  0
 19 20  1  0  0  0
 20 26  1  0  0  0
 26 27  1  0  0  0
 20 21  2  0  0  0
 21 22  1  0  0  0
 22 23  2  0  0  0
 22 17  1  0  0  0
 17 28  1  0  0  0
 28 29  1  0  0  0
 29 30  1  0  0  0
 17  1  1  0  0  0
  1  2  2  0  0  0
  2  3  1  0  0  0
  3  4  2  0  0  0
  4  5  1  0  0  0
  5  6  2  0  0  0
  6  7  1  0  0  0
  7  8  2  0  0  0
  8  9  1  0  0  0
  9 10  2  0  0  0
  7 11  1  0  0  0
 11 12  1  0  0  0
 12 13  2  0  0  0
 13 14  1  0  0  0
 14 15  1  0  0  0
 14 16  1  0  0  0
 23 18  1  0  0  0
 10  1  1  0  0  0
 16 11  2  0  0  0
  9  4  1  0  0  0
 30 31  1  0  0  0
M  END
> <minimizedAffinity>
-7.21932

> <CNNscore>
0.3957798481

> <CNNaffinity>
6.4899396896

> <CNN_VS>
2.5685873032

> <CNNaffinity_variance>
0.0868979171

$$$$
[H]OC([H])([H])C([H])([H])N(c1nc([H])c2nc([H])c(-c3c([H])nn(C([H])([H])[H])c3[H])nc2n1)c1c([H])c(OC([H])([H])[H])c([H])c(OC([H])([H])[H])c1[H]


 31 34  0  0  0  0  0  0  0  0999 V2000
   -1.7014   22.6516  -26.1155 C   0  0  0  0  0  0  0  0  0  0  0  0
   -0.5681   22.5023  -26.7744 N   0  0  0  0  0  0  0  0  0  0  0  0
    0.5770   22.0900  -26.2341 C   0  0  0  0  0  0  0  0  0  0  0  0
    0.5806   21.7961  -24.8812 C   0  0  0  0  0  0  0  0  0  0  0  0
    1.6779   21.3768  -24.2539 N   0  0  0  0  0  0  0  0  0  0  0  0
    1.6751   21.0911  -22.9334 C   0  0  0  0  0  0  0  0  0  0  0  0
    0.5257   21.2253  -22.1845 C   0  0  0  0  0  0  0  0  0  0  0  0
   -0.5802   21.6479  -22.8170 N   0  0  0  0  0  0  0  0  0  0  0  0
   -0.5798   21.9368  -24.1490 C   0  0  0  0  0  0  0  0  0  0  0  0
   -1.6794   22.3566  -24.7787 N   0  0  0  0  0  0  0  0  0  0  0  0
    0.5351   20.9108  -20.7479 C   0  0  0  0  0  0  0  0  0  0  0  0
   -0.4929   20.2993  -20.0609 C   0  0  0  0  0  0  0  0  0  0  0  0
   -0.1176   20.1838  -18.7869 N   0  0  0  0  0  0  0  0  0  0  0  0
    1.0947   20.6881  -18.6208 N   0  0  0  0  0  0  0  0  0  0  0  0
    1.8083   20.7300  -17.3740 C   0  0  0  0  0  0  0  0  0  0  0  0
    1.5192   21.1465  -19.8316 C   0  0  0  0  0  0  0  0  0  0  0  0
   -2.8726   23.0903  -26.7449 N   0  0  0  0  0  0  0  0  0  0  0  0
   -5.7051   25.0470  -25.2719 C   0  0  0  0  0  0  0  0  0  0  0  0
   -6.3623   24.0398  -24.6048 C   0  0  0  0  0  0  0  0  0  0  0  0
   -5.8923   22.7412  -24.6459 C   0  0  0  0  0  0  0  0  0  0  0  0
   -4.7557   22.4782  -25.3673 C   0  0  0  0  0  0  0  0  0  0  0  0
   -4.0398   23.4677  -26.0713 C   0  0  0  0  0  0  0  0  0  0  0  0
   -4.5613   24.7362  -25.9873 C   0  0  0  0  0  0  0  0  0  0  0  0
   -5.1960   27.3743  -25.5575 C   0  0  0  0  0  0  0  0  0  0  0  0
   -6.1387   26.3634  -25.2593 O   0  0  0  0  0  0  0  0  0  0  0  0
   -6.5497   21.7210  -23.9750 O   0  0  0  0  0  0  0  0  0  0  0  0
   -6.7451   21.7633  -22.5813 C   0  0  0  0  0  0  0  0  0  0  0  0
   -2.8186   23.2154  -28.2064 C   0  0  0  0  0  0  0  0  0  0  0  0
   -4.1228   22.9349  -28.8733 C   0  0  0  0  0  0  0  0  0  0  0  0
   -4.4840   24.1172  -29.5574 O   0  0  0  0  0  0  0  0  0  0  0  0
   -4.1663   24.9201  -29.0873 H   0  0  0  0  0  0  0  0  0  0  0  0
 24 25  1  0  0  0
 25 18  1  0  0  0
 18 19  2  0  0  0
 19 20  1  0  0  0
 20 26  1  0  0  0
 26 27  1  0  0  0
 20 21  2  0  0  0
 21 22  1  0  0  0
 22 23  2  0  0  0
 22 17  1  0  0  0
 17 28  1  0  0  0
 28 29  1  0  0  0
 29 30  1  0  0  0
 17  1  1  0  0  0
  1  2  2  0  0  0
  2  3  1  0  0  0
  3  4  2  0  0  0
  4  5  1  0  0  0
  5  6  2  0  0  0
  6  7  1  0  0  0
  7  8  2  0  0  0
  8  9  1  0  0  0
  9 10  2  0  0  0
  7 11  1  0  0  0
 11 12  1  0  0  0
 12 13  2  0  0  0
 13 14  1  0  0  0
 14 15  1  0  0  0
 14 16  1  0  0  0
 23 18  1  0  0  0
 10  1  1  0  0  0
 16 11  2  0  0  0
  9  4  1  0  0  0
 30 31  1  0  0  0
M  END
> <minimizedAffinity>
-6.94315

> <CNNscore>
0.3882059753

> <CNNaffinity>
6.6336669922

> <CNN_VS>
2.5752291679

> <CNNaffinity_variance>
0.2019169033

$$$$
[H]OC([H])([H])C([H])([H])N(c1nc([H])c2nc([H])c(-c3c([H])nn(C([H])([H])[H])c3[H])nc2n1)c1c([H])c(OC([H])([H])[H])c([H])c(OC([H])([H])[H])c1[H]


 31 34  0  0  0  0  0  0  0  0999 V2000
   -4.1657   23.4060  -26.1532 C   0  0  0  0  0  0  0  0  0  0  0  0
   -3.6166   23.3830  -27.3526 N   0  0  0  0  0  0  0  0  0  0  0  0
   -2.3642   23.0103  -27.6086 C   0  0  0  0  0  0  0  0  0  0  0  0
   -1.5786   22.6177  -26.5383 C   0  0  0  0  0  0  0  0  0  0  0  0
   -0.3150   22.2284  -26.6969 N   0  0  0  0  0  0  0  0  0  0  0  0
    0.4466   21.8460  -25.6485 C   0  0  0  0  0  0  0  0  0  0  0  0
   -0.0637   21.8460  -24.3679 C   0  0  0  0  0  0  0  0  0  0  0  0
   -1.3373   22.2386  -24.2085 N   0  0  0  0  0  0  0  0  0  0  0  0
   -2.1075   22.6248  -25.2645 C   0  0  0  0  0  0  0  0  0  0  0  0
   -3.3743   23.0147  -25.1066 N   0  0  0  0  0  0  0  0  0  0  0  0
    0.7751   21.4272  -23.2348 C   0  0  0  0  0  0  0  0  0  0  0  0
    2.1308   21.1810  -23.2972 C   0  0  0  0  0  0  0  0  0  0  0  0
    2.5356   20.8263  -22.0776 N   0  0  0  0  0  0  0  0  0  0  0  0
    1.5128   20.8319  -21.2377 N   0  0  0  0  0  0  0  0  0  0  0  0
    1.5886   20.5000  -19.8414 C   0  0  0  0  0  0  0  0  0  0  0  0
    0.4059   21.2040  -21.9396 C   0  0  0  0  0  0  0  0  0  0  0  0
   -5.4912   23.8098  -25.9522 N   0  0  0  0  0  0  0  0  0  0  0  0
   -6.9970   25.0732  -22.7650 C   0  0  0  0  0  0  0  0  0  0  0  0
   -7.2900   23.8760  -22.1549 C   0  0  0  0  0  0  0  0  0  0  0  0
   -7.0096   22.6767  -22.7809 C   0  0  0  0  0  0  0  0  0  0  0  0
   -6.4327   22.7061  -24.0250 C   0  0  0  0  0  0  0  0  0  0  0  0
   -6.1101   23.9008  -24.7002 C   0  0  0  0  0  0  0  0  0  0  0  0
   -6.4146   25.0557  -24.0208 C   0  0  0  0  0  0  0  0  0  0  0  0
   -8.1334   26.3279  -21.0646 C   0  0  0  0  0  0  0  0  0  0  0  0
   -7.2598   26.3001  -22.1762 O   0  0  0  0  0  0  0  0  0  0  0  0
   -7.3018   21.4660  -22.1711 O   0  0  0  0  0  0  0  0  0  0  0  0
   -7.9677   21.4082  -20.9319 C   0  0  0  0  0  0  0  0  0  0  0  0
   -6.2345   24.2229  -27.1486 C   0  0  0  0  0  0  0  0  0  0  0  0
   -6.0402   25.6593  -27.4998 C   0  0  0  0  0  0  0  0  0  0  0  0
   -6.4531   25.8014  -28.8434 O   0  0  0  0  0  0  0  0  0  0  0  0
   -6.2779   24.9867  -29.3652 H   0  0  0  0  0  0  0  0  0  0  0  0
 24 25  1  0  0  0
 25 18  1  0  0  0
 18 19  2  0  0  0
 19 20  1  0  0  0
 20 26  1  0  0  0
 26 27  1  0  0  0
 20 21  2  0  0  0
 21 22  1  0  0  0
 22 23  2  0  0  0
 22 17  1  0  0  0
 17 28  1  0  0  0
 28 29  1  0  0  0
 29 30  1  0  0  0
 17  1  1  0  0  0
  1  2  2  0  0  0
  2  3  1  0  0  0
  3  4  2  0  0  0
  4  5  1  0  0  0
  5  6  2  0  0  0
  6  7  1  0  0  0
  7  8  2  0  0  0
  8  9  1  0  0  0
  9 10  2  0  0  0
  7 11  1  0  0  0
 11 12  1  0  0  0
 12 13  2  0  0  0
 13 14  1  0  0  0
 14 15  1  0  0  0
 14 16  1  0  0  0
 23 18  1  0  0  0
 10  1  1  0  0  0
 16 11  2  0  0  0
  9  4  1  0  0  0
 30 31  1  0  0  0
M  END
> <minimizedAffinity>
-7.49577

> <CNNscore>
0.3854966462

> <CNNaffinity>
6.7249612808

> <CNN_VS>
2.5924499035

> <CNNaffinity_variance>
0.3525652587

$$$$
[H]OC([H])([H])C([H])([H])N(c1nc([H])c2nc([H])c(-c3c([H])nn(C([H])([H])[H])c3[H])nc2n1)c1c([H])c(OC([H])([H])[H])c([H])c(OC([H])([H])[H])c1[H]


 31 34  0  0  0  0  0  0  0  0999 V2000
    0.0013   21.4476  -22.5091 C   0  0  0  0  0  0  0  0  0  0  0  0
    0.9515   21.4412  -23.4245 N   0  0  0  0  0  0  0  0  0  0  0  0
    0.7805   21.7810  -24.7005 C   0  0  0  0  0  0  0  0  0  0  0  0
   -0.4874   22.1699  -25.0980 C   0  0  0  0  0  0  0  0  0  0  0  0
   -0.7540   22.5274  -26.3528 N   0  0  0  0  0  0  0  0  0  0  0  0
   -1.9933   22.9064  -26.7347 C   0  0  0  0  0  0  0  0  0  0  0  0
   -3.0327   22.9360  -25.8298 C   0  0  0  0  0  0  0  0  0  0  0  0
   -2.7637   22.5755  -24.5651 N   0  0  0  0  0  0  0  0  0  0  0  0
   -1.5144   22.1928  -24.1776 C   0  0  0  0  0  0  0  0  0  0  0  0
   -1.2461   21.8347  -22.9199 N   0  0  0  0  0  0  0  0  0  0  0  0
   -4.3773   23.3508  -26.2574 C   0  0  0  0  0  0  0  0  0  0  0  0
   -4.8681   23.2543  -27.5428 C   0  0  0  0  0  0  0  0  0  0  0  0
   -6.1148   23.7265  -27.5378 N   0  0  0  0  0  0  0  0  0  0  0  0
   -6.4489   24.1202  -26.3193 N   0  0  0  0  0  0  0  0  0  0  0  0
   -7.7199   24.6814  -25.9519 C   0  0  0  0  0  0  0  0  0  0  0  0
   -5.3793   23.8942  -25.5061 C   0  0  0  0  0  0  0  0  0  0  0  0
    0.2482   21.0777  -21.1815 N   0  0  0  0  0  0  0  0  0  0  0  0
    3.5660   20.1823  -19.6940 C   0  0  0  0  0  0  0  0  0  0  0  0
    3.6233   18.8514  -20.0359 C   0  0  0  0  0  0  0  0  0  0  0  0
    2.5889   18.2555  -20.7315 C   0  0  0  0  0  0  0  0  0  0  0  0
    1.5028   19.0203  -21.0733 C   0  0  0  0  0  0  0  0  0  0  0  0
    1.3870   20.3876  -20.7505 C   0  0  0  0  0  0  0  0  0  0  0  0
    2.4507   20.9164  -20.0598 C   0  0  0  0  0  0  0  0  0  0  0  0
    5.1258   22.0004  -19.5574 C   0  0  0  0  0  0  0  0  0  0  0  0
    4.5786   20.8228  -18.9974 O   0  0  0  0  0  0  0  0  0  0  0  0
    2.6406   16.9142  -21.0799 O   0  0  0  0  0  0  0  0  0  0  0  0
    3.0856   15.9347  -20.1716 C   0  0  0  0  0  0  0  0  0  0  0  0
   -0.7402   21.5161  -20.1889 C   0  0  0  0  0  0  0  0  0  0  0  0
   -0.5181   22.9103  -19.7080 C   0  0  0  0  0  0  0  0  0  0  0  0
   -1.4111   23.7301  -20.4336 O   0  0  0  0  0  0  0  0  0  0  0  0
   -1.5659   23.3841  -21.3408 H   0  0  0  0  0  0  0  0  0  0  0  0
 24 25  1  0  0  0
 25 18  1  0  0  0
 18 19  2  0  0  0
 19 20  1  0  0  0
 20 26  1  0  0  0
 26 27  1  0  0  0
 20 21  2  0  0  0
 21 22  1  0  0  0
 22 23  2  0  0  0
 22 17  1  0  0  0
 17 28  1  0  0  0
 28 29  1  0  0  0
 29 30  1  0  0  0
 17  1  1  0  0  0
  1  2  2  0  0  0
  2  3  1  0  0  0
  3  4  2  0  0  0
  4  5  1  0  0  0
  5  6  2  0  0  0
  6  7  1  0  0  0
  7  8  2  0  0  0
  8  9  1  0  0  0
  9 10  2  0  0  0
  7 11  1  0  0  0
 11 12  1  0  0  0
 12 13  2  0  0  0
 13 14  1  0  0  0
 14 15  1  0  0  0
 14 16  1  0  0  0
 23 18  1  0  0  0
 10  1  1  0  0  0
 16 11  2  0  0  0
  9  4  1  0  0  0
 30 31  1  0  0  0
M  END
> <minimizedAffinity>
-6.49836

> <CNNscore>
0.3556892276

> <CNNaffinity>
6.1158723831

> <CNN_VS>
2.1753499508

> <CNNaffinity_variance>
0.0984807089

$$$$
[H]OC([H])([H])C([H])([H])N(c1nc([H])c2nc([H])c(-c3c([H])nn(C([H])([H])[H])c3[H])nc2n1)c1c([H])c(OC([H])([H])[H])c([H])c(OC([H])([H])[H])c1[H]


 31 34  0  0  0  0  0  0  0  0999 V2000
   -2.9595   22.2208  -23.1136 C   0  0  0  0  0  0  0  0  0  0  0  0
   -1.7297   21.8134  -23.3632 N   0  0  0  0  0  0  0  0  0  0  0  0
   -1.1579   21.8133  -24.5658 C   0  0  0  0  0  0  0  0  0  0  0  0
   -1.9079   22.2742  -25.6343 C   0  0  0  0  0  0  0  0  0  0  0  0
   -1.4207   22.3119  -26.8732 N   0  0  0  0  0  0  0  0  0  0  0  0
   -2.1573   22.7632  -27.9120 C   0  0  0  0  0  0  0  0  0  0  0  0
   -3.4496   23.2039  -27.7224 C   0  0  0  0  0  0  0  0  0  0  0  0
   -3.9403   23.1658  -26.4737 N   0  0  0  0  0  0  0  0  0  0  0  0
   -3.1992   22.7108  -25.4242 C   0  0  0  0  0  0  0  0  0  0  0  0
   -3.6865   22.6732  -24.1820 N   0  0  0  0  0  0  0  0  0  0  0  0
   -4.2413   23.6933  -28.8610 C   0  0  0  0  0  0  0  0  0  0  0  0
   -5.1927   22.9619  -29.5411 C   0  0  0  0  0  0  0  0  0  0  0  0
   -5.6916   23.7392  -30.5025 N   0  0  0  0  0  0  0  0  0  0  0  0
   -5.1114   24.9283  -30.4750 N   0  0  0  0  0  0  0  0  0  0  0  0
   -5.4074   26.0128  -31.3705 C   0  0  0  0  0  0  0  0  0  0  0  0
   -4.2040   24.9202  -29.4586 C   0  0  0  0  0  0  0  0  0  0  0  0
   -3.5017   22.1944  -21.8231 N   0  0  0  0  0  0  0  0  0  0  0  0
   -7.1479   22.0850  -20.9772 C   0  0  0  0  0  0  0  0  0  0  0  0
   -7.4278   23.4314  -20.9774 C   0  0  0  0  0  0  0  0  0  0  0  0
   -6.4378   24.3589  -21.2389 C   0  0  0  0  0  0  0  0  0  0  0  0
   -5.1688   23.9073  -21.4980 C   0  0  0  0  0  0  0  0  0  0  0  0
   -4.8213   22.5412  -21.5113 C   0  0  0  0  0  0  0  0  0  0  0  0
   -5.8532   21.6739  -21.2443 C   0  0  0  0  0  0  0  0  0  0  0  0
   -8.5265   20.9396  -19.3820 C   0  0  0  0  0  0  0  0  0  0  0  0
   -8.1078   21.1185  -20.7207 O   0  0  0  0  0  0  0  0  0  0  0  0
   -6.7134   25.7180  -21.2413 O   0  0  0  0  0  0  0  0  0  0  0  0
   -7.9377   26.2213  -20.7615 C   0  0  0  0  0  0  0  0  0  0  0  0
   -2.6213   21.7016  -20.7570 C   0  0  0  0  0  0  0  0  0  0  0  0
   -2.1500   22.7749  -19.8348 C   0  0  0  0  0  0  0  0  0  0  0  0
   -1.3819   23.6654  -20.6179 O   0  0  0  0  0  0  0  0  0  0  0  0
   -0.9152   23.1983  -21.3463 H   0  0  0  0  0  0  0  0  0  0  0  0
 24 25  1  0  0  0
 25 18  1  0  0  0
 18 19  2  0  0  0
 19 20  1  0  0  0
 20 26  1  0  0  0
 26 27  1  0  0  0
 20 21  2  0  0  0
 21 22  1  0  0  0
 22 23  2  0  0  0
 22 17  1  0  0  0
 17 28  1  0  0  0
 28 29  1  0  0  0
 29 30  1  0  0  0
 17  1  1  0  0  0
  1  2  2  0  0  0
  2  3  1  0  0  0
  3  4  2  0  0  0
  4  5  1  0  0  0
  5  6  2  0  0  0
  6  7  1  0  0  0
  7  8  2  0  0  0
  8  9  1  0  0  0
  9 10  2  0  0  0
  7 11  1  0  0  0
 11 12  1  0  0  0
 12 13  2  0  0  0
 13 14  1  0  0  0
 14 15  1  0  0  0
 14 16  1  0  0  0
 23 18  1  0  0  0
 10  1  1  0  0  0
 16 11  2  0  0  0
  9  4  1  0  0  0
 30 31  1  0  0  0
M  END
> <minimizedAffinity>
-7.64637

> <CNNscore>
0.3551328182

> <CNNaffinity>
6.6496191025

> <CNN_VS>
2.3614978790

> <CNNaffinity_variance>
0.3200169802

$$$$
[H]c1nc(-c2c(C([H])([H])[H])nn(C([H])([H])C(=O)N3C([H])([H])C([H])([H])OC([H])([H])C3([H])[H])c2[H])c([H])c2c1C([H])([H])N(c1c(F)c(OC([H])([H])[H])c([H])c(OC([H])([H])[H])c1F)C(=O)C21C([H])([H])C1([H])[H]


 40 45  0  0  0  0  0  0  0  0999 V2000
   -2.9493   22.5034  -23.2901 N   0  0  0  0  0  0  0  0  0  0  0  0
   -3.1439   23.3966  -22.1771 C   0  0  0  0  0  0  0  0  0  0  0  0
   -3.9727   22.6896  -21.1471 C   0  0  0  0  0  0  0  0  0  0  0  0
   -3.6403   22.7314  -19.8301 C   0  0  0  0  0  0  0  0  0  0  0  0
   -4.4152   22.0603  -18.9373 N   0  0  0  0  0  0  0  0  0  0  0  0
   -5.4908   21.3665  -19.3300 C   0  0  0  0  0  0  0  0  0  0  0  0
   -5.8401   21.3165  -20.6568 C   0  0  0  0  0  0  0  0  0  0  0  0
   -5.0890   21.9736  -21.5764 C   0  0  0  0  0  0  0  0  0  0  0  0
   -5.3568   21.9768  -23.0404 C   0  0  0  0  0  0  0  0  0  0  0  0
   -6.5670   21.3893  -23.5981 C   0  0  0  0  0  0  0  0  0  0  0  0
   -6.3822   22.8715  -23.6210 C   0  0  0  0  0  0  0  0  0  0  0  0
   -4.0759   21.7722  -23.7826 C   0  0  0  0  0  0  0  0  0  0  0  0
   -4.0586   21.0069  -24.7488 O   0  0  0  0  0  0  0  0  0  0  0  0
    0.6066   21.5679  -23.7714 C   0  0  0  0  0  0  0  0  0  0  0  0
    0.8010   21.8761  -25.0750 C   0  0  0  0  0  0  0  0  0  0  0  0
   -0.2296   22.4215  -25.8630 C   0  0  0  0  0  0  0  0  0  0  0  0
   -1.4635   22.6263  -25.2299 C   0  0  0  0  0  0  0  0  0  0  0  0
   -2.4599   23.1750  -26.0007 F   0  0  0  0  0  0  0  0  0  0  0  0
   -1.6584   22.3118  -23.9147 C   0  0  0  0  0  0  0  0  0  0  0  0
   -0.6397   21.7846  -23.1705 C   0  0  0  0  0  0  0  0  0  0  0  0
   -0.8481   21.4767  -21.8829 F   0  0  0  0  0  0  0  0  0  0  0  0
    2.8895   20.8563  -23.3580 C   0  0  0  0  0  0  0  0  0  0  0  0
    1.5673   21.0472  -22.9615 O   0  0  0  0  0  0  0  0  0  0  0  0
   -0.0804   22.7317  -27.1160 O   0  0  0  0  0  0  0  0  0  0  0  0
    0.0595   23.1448  -28.3273 C   0  0  0  0  0  0  0  0  0  0  0  0
   -6.2684   20.6357  -18.3415 C   0  0  0  0  0  0  0  0  0  0  0  0
   -6.1321   19.2871  -18.0372 C   0  0  0  0  0  0  0  0  0  0  0  0
   -6.9800   18.9295  -17.0656 N   0  0  0  0  0  0  0  0  0  0  0  0
   -7.6437   20.0418  -16.7620 N   0  0  0  0  0  0  0  0  0  0  0  0
   -7.2544   21.0701  -17.4913 C   0  0  0  0  0  0  0  0  0  0  0  0
   -7.7646   22.4851  -17.4334 C   0  0  0  0  0  0  0  0  0  0  0  0
   -7.1808   17.6144  -16.4340 C   0  0  0  0  0  0  0  0  0  0  0  0
   -7.5109   16.6554  -17.4982 C   0  0  0  0  0  0  0  0  0  0  0  0
   -8.7148   16.6191  -17.9732 O   0  0  0  0  0  0  0  0  0  0  0  0
   -6.5588   15.7706  -18.0206 N   0  0  0  0  0  0  0  0  0  0  0  0
   -5.2103   15.7151  -17.5582 C   0  0  0  0  0  0  0  0  0  0  0  0
   -4.3594   15.2716  -18.7461 C   0  0  0  0  0  0  0  0  0  0  0  0
   -4.6870   14.0176  -19.2018 O   0  0  0  0  0  0  0  0  0  0  0  0
   -5.9872   13.6387  -18.9059 C   0  0  0  0  0  0  0  0  0  0  0  0
   -6.9132   14.8296  -19.0963 C   0  0  0  0  0  0  0  0  0  0  0  0
 22 23  1  0  0  0
 23 14  1  0  0  0
 14 15  2  0  0  0
 15 16  1  0  0  0
 16 24  1  0  0  0
 24 25  1  0  0  0
 16 17  2  0  0  0
 17 18  1  0  0  0
 17 19  1  0  0  0
 19  1  1  0  0  0
  1  2  1  0  0  0
  2  3  1  0  0  0
  3  4  2  0  0  0
  4  5  1  0  0  0
  5  6  2  0  0  0
  6  7  1  0  0  0
  7  8  2  0  0  0
  8  9  1  0  0  0
  9 10  1  0  0  0
 10 11  1  0  0  0
  9 12  1  0  0  0
 12 13  2  0  0  0
  6 26  1  0  0  0
 26 27  2  0  0  0
 27 28  1  0  0  0
 28 32  1  0  0  0
 32 33  1  0  0  0
 33 34  2  0  0  0
 33 35  1  0  0  0
 35 36  1  0  0  0
 36 37  1  0  0  0
 37 38  1  0  0  0
 38 39  1  0  0  0
 39 40  1  0  0  0
 28 29  1  0  0  0
 29 30  2  0  0  0
 30 31  1  0  0  0
 19 20  2  0  0  0
 20 21  1  0  0  0
 20 14  1  0  0  0
 12  1  1  0  0  0
 30 26  1  0  0  0
  8  3  1  0  0  0
 11  9  1  0  0  0
 40 35  1  0  0  0
M  END
> <minimizedAffinity>
-7.01952

> <CNNscore>
0.1540976465

> <CNNaffinity>
6.4255027771

> <CNN_VS>
0.9901548624

> <CNNaffinity_variance>
0.0278181620

$$$$
[H]c1nc(-c2c(C([H])([H])[H])nn(C([H])([H])C(=O)N3C([H])([H])C([H])([H])OC([H])([H])C3([H])[H])c2[H])c([H])c2c1C([H])([H])N(c1c(F)c(OC([H])([H])[H])c([H])c(OC([H])([H])[H])c1F)C(=O)C21C([H])([H])C1([H])[H]


 40 45  0  0  0  0  0  0  0  0999 V2000
    1.0081   21.3354  -17.9568 N   0  0  0  0  0  0  0  0  0  0  0  0
    1.5032   20.4547  -18.9833 C   0  0  0  0  0  0  0  0  0  0  0  0
    0.7758   20.7633  -20.2575 C   0  0  0  0  0  0  0  0  0  0  0  0
    1.4431   20.8785  -21.4356 C   0  0  0  0  0  0  0  0  0  0  0  0
    0.7398   21.1753  -22.5605 N   0  0  0  0  0  0  0  0  0  0  0  0
   -0.5867   21.3532  -22.5273 C   0  0  0  0  0  0  0  0  0  0  0  0
   -1.2748   21.2383  -21.3448 C   0  0  0  0  0  0  0  0  0  0  0  0
   -0.6052   20.9439  -20.2017 C   0  0  0  0  0  0  0  0  0  0  0  0
   -1.2380   20.8131  -18.8611 C   0  0  0  0  0  0  0  0  0  0  0  0
   -2.6843   20.8365  -18.6922 C   0  0  0  0  0  0  0  0  0  0  0  0
   -1.9308   19.5660  -18.4687 C   0  0  0  0  0  0  0  0  0  0  0  0
   -0.4054   21.5248  -17.8444 C   0  0  0  0  0  0  0  0  0  0  0  0
   -0.9635   22.2169  -16.9906 O   0  0  0  0  0  0  0  0  0  0  0  0
    3.3532   23.8752  -16.6147 C   0  0  0  0  0  0  0  0  0  0  0  0
    3.5255   23.4491  -15.3416 C   0  0  0  0  0  0  0  0  0  0  0  0
    2.8853   22.2917  -14.8607 C   0  0  0  0  0  0  0  0  0  0  0  0
    2.0617   21.6073  -15.7654 C   0  0  0  0  0  0  0  0  0  0  0  0
    1.4534   20.4688  -15.2943 F   0  0  0  0  0  0  0  0  0  0  0  0
    1.8869   22.0407  -17.0493 C   0  0  0  0  0  0  0  0  0  0  0  0
    2.5222   23.1676  -17.4922 C   0  0  0  0  0  0  0  0  0  0  0  0
    2.3366   23.5827  -18.7529 F   0  0  0  0  0  0  0  0  0  0  0  0
    5.2970   25.0289  -17.4976 C   0  0  0  0  0  0  0  0  0  0  0  0
    3.9524   24.9799  -17.1347 O   0  0  0  0  0  0  0  0  0  0  0  0
    3.0276   21.8509  -13.6468 O   0  0  0  0  0  0  0  0  0  0  0  0
    3.0771   21.3547  -12.4598 C   0  0  0  0  0  0  0  0  0  0  0  0
   -1.2904   21.7042  -23.7511 C   0  0  0  0  0  0  0  0  0  0  0  0
   -2.6694   21.7187  -23.9186 C   0  0  0  0  0  0  0  0  0  0  0  0
   -2.9954   22.1099  -25.1560 N   0  0  0  0  0  0  0  0  0  0  0  0
   -1.8330   22.3387  -25.7616 N   0  0  0  0  0  0  0  0  0  0  0  0
   -0.8037   22.1113  -24.9681 C   0  0  0  0  0  0  0  0  0  0  0  0
    0.6586   22.2631  -25.2913 C   0  0  0  0  0  0  0  0  0  0  0  0
   -4.3248   22.2692  -25.7691 C   0  0  0  0  0  0  0  0  0  0  0  0
   -5.1525   23.0518  -24.8396 C   0  0  0  0  0  0  0  0  0  0  0  0
   -5.8225   22.4426  -23.9143 O   0  0  0  0  0  0  0  0  0  0  0  0
   -5.2424   24.4473  -24.9220 N   0  0  0  0  0  0  0  0  0  0  0  0
   -4.5604   25.2150  -25.9123 C   0  0  0  0  0  0  0  0  0  0  0  0
   -4.2707   26.5772  -25.2857 C   0  0  0  0  0  0  0  0  0  0  0  0
   -5.4108   27.2656  -24.9486 O   0  0  0  0  0  0  0  0  0  0  0  0
   -6.5096   26.4502  -24.7265 C   0  0  0  0  0  0  0  0  0  0  0  0
   -6.0682   25.2078  -23.9692 C   0  0  0  0  0  0  0  0  0  0  0  0
 22 23  1  0  0  0
 23 14  1  0  0  0
 14 15  2  0  0  0
 15 16  1  0  0  0
 16 24  1  0  0  0
 24 25  1  0  0  0
 16 17  2  0  0  0
 17 18  1  0  0  0
 17 19  1  0  0  0
 19  1  1  0  0  0
  1  2  1  0  0  0
  2  3  1  0  0  0
  3  4  2  0  0  0
  4  5  1  0  0  0
  5  6  2  0  0  0
  6  7  1  0  0  0
  7  8  2  0  0  0
  8  9  1  0  0  0
  9 10  1  0  0  0
 10 11  1  0  0  0
  9 12  1  0  0  0
 12 13  2  0  0  0
  6 26  1  0  0  0
 26 27  2  0  0  0
 27 28  1  0  0  0
 28 32  1  0  0  0
 32 33  1  0  0  0
 33 34  2  0  0  0
 33 35  1  0  0  0
 35 36  1  0  0  0
 36 37  1  0  0  0
 37 38  1  0  0  0
 38 39  1  0  0  0
 39 40  1  0  0  0
 28 29  1  0  0  0
 29 30  2  0  0  0
 30 31  1  0  0  0
 19 20  2  0  0  0
 20 21  1  0  0  0
 20 14  1  0  0  0
 12  1  1  0  0  0
 30 26  1  0  0  0
  8  3  1  0  0  0
 11  9  1  0  0  0
 40 35  1  0  0  0
M  END
> <minimizedAffinity>
-7.97961

> <CNNscore>
0.1299116015

> <CNNaffinity>
6.4575605392

> <CNN_VS>
0.8389120102

> <CNNaffinity_variance>
0.1310648769

$$$$
[H]c1nc(-c2c(C([H])([H])[H])nn(C([H])([H])C(=O)N3C([H])([H])C([H])([H])OC([H])([H])C3([H])[H])c2[H])c([H])c2c1C([H])([H])N(c1c(F)c(OC([H])([H])[H])c([H])c(OC([H])([H])[H])c1F)C(=O)C21C([H])([H])C1([H])[H]


 40 45  0  0  0  0  0  0  0  0999 V2000
   -4.0429   22.2749  -24.3106 N   0  0  0  0  0  0  0  0  0  0  0  0
   -4.8461   21.1151  -24.0204 C   0  0  0  0  0  0  0  0  0  0  0  0
   -5.8720   21.4986  -22.9966 C   0  0  0  0  0  0  0  0  0  0  0  0
   -7.1714   21.1246  -23.1315 C   0  0  0  0  0  0  0  0  0  0  0  0
   -8.0661   21.5112  -22.1839 N   0  0  0  0  0  0  0  0  0  0  0  0
   -7.6917   22.2464  -21.1296 C   0  0  0  0  0  0  0  0  0  0  0  0
   -6.3823   22.6304  -20.9788 C   0  0  0  0  0  0  0  0  0  0  0  0
   -5.4617   22.2634  -21.9058 C   0  0  0  0  0  0  0  0  0  0  0  0
   -4.0212   22.6348  -21.8600 C   0  0  0  0  0  0  0  0  0  0  0  0
   -3.4406   23.3062  -20.7054 C   0  0  0  0  0  0  0  0  0  0  0  0
   -3.0734   21.8889  -21.0028 C   0  0  0  0  0  0  0  0  0  0  0  0
   -3.5745   23.0705  -23.2178 C   0  0  0  0  0  0  0  0  0  0  0  0
   -2.8499   24.0624  -23.3210 O   0  0  0  0  0  0  0  0  0  0  0  0
   -4.3674   23.6049  -27.7569 C   0  0  0  0  0  0  0  0  0  0  0  0
   -3.1024   23.4819  -28.2225 C   0  0  0  0  0  0  0  0  0  0  0  0
   -2.0754   22.9411  -27.4265 C   0  0  0  0  0  0  0  0  0  0  0  0
   -2.4297   22.5400  -26.1308 C   0  0  0  0  0  0  0  0  0  0  0  0
   -1.4260   21.9971  -25.3654 F   0  0  0  0  0  0  0  0  0  0  0  0
   -3.7066   22.6675  -25.6619 C   0  0  0  0  0  0  0  0  0  0  0  0
   -4.6866   23.1946  -26.4565 C   0  0  0  0  0  0  0  0  0  0  0  0
   -5.9333   23.3179  -25.9802 F   0  0  0  0  0  0  0  0  0  0  0  0
   -5.5559   23.8996  -29.8520 C   0  0  0  0  0  0  0  0  0  0  0  0
   -5.3995   24.1116  -28.4836 O   0  0  0  0  0  0  0  0  0  0  0  0
   -0.8508   22.8056  -27.8389 O   0  0  0  0  0  0  0  0  0  0  0  0
    0.3777   22.7777  -28.2230 C   0  0  0  0  0  0  0  0  0  0  0  0
   -8.6925   22.6656  -20.1605 C   0  0  0  0  0  0  0  0  0  0  0  0
   -9.3567   21.8332  -19.2685 C   0  0  0  0  0  0  0  0  0  0  0  0
  -10.1960   22.5340  -18.4970 N   0  0  0  0  0  0  0  0  0  0  0  0
  -10.0616   23.7948  -18.9000 N   0  0  0  0  0  0  0  0  0  0  0  0
   -9.1852   23.9152  -19.8788 C   0  0  0  0  0  0  0  0  0  0  0  0
   -8.7632   25.1749  -20.5865 C   0  0  0  0  0  0  0  0  0  0  0  0
  -11.0941   22.0696  -17.4264 C   0  0  0  0  0  0  0  0  0  0  0  0
  -10.2559   21.6395  -16.2978 C   0  0  0  0  0  0  0  0  0  0  0  0
   -9.5525   22.5161  -15.6551 O   0  0  0  0  0  0  0  0  0  0  0  0
  -10.1909   20.3008  -15.8904 N   0  0  0  0  0  0  0  0  0  0  0  0
  -10.9105   19.2532  -16.5385 C   0  0  0  0  0  0  0  0  0  0  0  0
  -11.2063   18.2016  -15.4714 C   0  0  0  0  0  0  0  0  0  0  0  0
  -10.0693   17.6461  -14.9364 O   0  0  0  0  0  0  0  0  0  0  0  0
   -8.9520   18.4609  -15.0325 C   0  0  0  0  0  0  0  0  0  0  0  0
   -9.3535   19.8996  -14.7476 C   0  0  0  0  0  0  0  0  0  0  0  0
 22 23  1  0  0  0
 23 14  1  0  0  0
 14 15  2  0  0  0
 15 16  1  0  0  0
 16 24  1  0  0  0
 24 25  1  0  0  0
 16 17  2  0  0  0
 17 18  1  0  0  0
 17 19  1  0  0  0
 19  1  1  0  0  0
  1  2  1  0  0  0
  2  3  1  0  0  0
  3  4  2  0  0  0
  4  5  1  0  0  0
  5  6  2  0  0  0
  6  7  1  0  0  0
  7  8  2  0  0  0
  8  9  1  0  0  0
  9 10  1  0  0  0
 10 11  1  0  0  0
  9 12  1  0  0  0
 12 13  2  0  0  0
  6 26  1  0  0  0
 26 27  2  0  0  0
 27 28  1  0  0  0
 28 32  1  0  0  0
 32 33  1  0  0  0
 33 34  2  0  0  0
 33 35  1  0  0  0
 35 36  1  0  0  0
 36 37  1  0  0  0
 37 38  1  0  0  0
 38 39  1  0  0  0
 39 40  1  0  0  0
 28 29  1  0  0  0
 29 30  2  0  0  0
 30 31  1  0  0  0
 19 20  2  0  0  0
 20 21  1  0  0  0
 20 14  1  0  0  0
 12  1  1  0  0  0
 30 26  1  0  0  0
  8  3  1  0  0  0
 11  9  1  0  0  0
 40 35  1  0  0  0
M  END
> <minimizedAffinity>
-7.60051

> <CNNscore>
0.1200618520

> <CNNaffinity>
6.6177887917

> <CNN_VS>
0.7945439816

> <CNNaffinity_variance>
0.0733388513

$$$$
[H]c1nc(-c2c(C([H])([H])[H])nn(C([H])([H])C(=O)N3C([H])([H])C([H])([H])OC([H])([H])C3([H])[H])c2[H])c([H])c2c1C([H])([H])N(c1c(F)c(OC([H])([H])[H])c([H])c(OC([H])([H])[H])c1F)C(=O)C21C([H])([H])C1([H])[H]


 40 45  0  0  0  0  0  0  0  0999 V2000
   -3.0466   22.6801  -23.6489 N   0  0  0  0  0  0  0  0  0  0  0  0
   -3.0956   23.6933  -22.6264 C   0  0  0  0  0  0  0  0  0  0  0  0
   -3.7247   23.0962  -21.4036 C   0  0  0  0  0  0  0  0  0  0  0  0
   -3.1901   23.2972  -20.1706 C   0  0  0  0  0  0  0  0  0  0  0  0
   -3.7891   22.7208  -19.0949 N   0  0  0  0  0  0  0  0  0  0  0  0
   -4.8871   21.9665  -19.2289 C   0  0  0  0  0  0  0  0  0  0  0  0
   -5.4396   21.7558  -20.4679 C   0  0  0  0  0  0  0  0  0  0  0  0
   -4.8679   22.3148  -21.5643 C   0  0  0  0  0  0  0  0  0  0  0  0
   -5.3635   22.1425  -22.9570 C   0  0  0  0  0  0  0  0  0  0  0  0
   -6.6244   21.4721  -23.2429 C   0  0  0  0  0  0  0  0  0  0  0  0
   -6.4999   22.9447  -23.4614 C   0  0  0  0  0  0  0  0  0  0  0  0
   -4.2095   21.8761  -23.8683 C   0  0  0  0  0  0  0  0  0  0  0  0
   -4.3170   21.0038  -24.7326 O   0  0  0  0  0  0  0  0  0  0  0  0
   -0.7687   22.4981  -26.5694 C   0  0  0  0  0  0  0  0  0  0  0  0
    0.3767   22.0539  -26.0012 C   0  0  0  0  0  0  0  0  0  0  0  0
    0.4550   21.7785  -24.6232 C   0  0  0  0  0  0  0  0  0  0  0  0
   -0.7103   21.9894  -23.8730 C   0  0  0  0  0  0  0  0  0  0  0  0
   -0.6314   21.7021  -22.5316 F   0  0  0  0  0  0  0  0  0  0  0  0
   -1.8646   22.4405  -24.4481 C   0  0  0  0  0  0  0  0  0  0  0  0
   -1.9147   22.6989  -25.7898 C   0  0  0  0  0  0  0  0  0  0  0  0
   -3.0530   23.1458  -26.3382 F   0  0  0  0  0  0  0  0  0  0  0  0
    0.0724   23.4163  -28.6523 C   0  0  0  0  0  0  0  0  0  0  0  0
   -0.9038   22.7719  -27.8948 O   0  0  0  0  0  0  0  0  0  0  0  0
    1.5353   21.3492  -24.0427 O   0  0  0  0  0  0  0  0  0  0  0  0
    2.5567   20.9455  -23.3710 C   0  0  0  0  0  0  0  0  0  0  0  0
   -5.4715   21.3419  -18.0522 C   0  0  0  0  0  0  0  0  0  0  0  0
   -5.4688   19.9817  -17.7698 C   0  0  0  0  0  0  0  0  0  0  0  0
   -6.0665   19.7369  -16.5978 N   0  0  0  0  0  0  0  0  0  0  0  0
   -6.4423   20.9311  -16.1476 N   0  0  0  0  0  0  0  0  0  0  0  0
   -6.1106   21.9035  -16.9753 C   0  0  0  0  0  0  0  0  0  0  0  0
   -6.3600   23.3787  -16.8092 C   0  0  0  0  0  0  0  0  0  0  0  0
   -6.2902   18.4543  -15.9096 C   0  0  0  0  0  0  0  0  0  0  0  0
   -6.9777   17.5583  -16.8508 C   0  0  0  0  0  0  0  0  0  0  0  0
   -8.2555   17.6741  -17.0241 O   0  0  0  0  0  0  0  0  0  0  0  0
   -6.2912   16.5737  -17.5730 N   0  0  0  0  0  0  0  0  0  0  0  0
   -4.8881   16.3495  -17.4452 C   0  0  0  0  0  0  0  0  0  0  0  0
   -4.4050   15.8252  -18.7956 C   0  0  0  0  0  0  0  0  0  0  0  0
   -4.9803   14.6268  -19.1424 O   0  0  0  0  0  0  0  0  0  0  0  0
   -6.2080   14.4023  -18.5393 C   0  0  0  0  0  0  0  0  0  0  0  0
   -7.0026   15.6986  -18.5197 C   0  0  0  0  0  0  0  0  0  0  0  0
 22 23  1  0  0  0
 23 14  1  0  0  0
 14 15  2  0  0  0
 15 16  1  0  0  0
 16 24  1  0  0  0
 24 25  1  0  0  0
 16 17  2  0  0  0
 17 18  1  0  0  0
 17 19  1  0  0  0
 19  1  1  0  0  0
  1  2  1  0  0  0
  2  3  1  0  0  0
  3  4  2  0  0  0
  4  5  1  0  0  0
  5  6  2  0  0  0
  6  7  1  0  0  0
  7  8  2  0  0  0
  8  9  1  0  0  0
  9 10  1  0  0  0
 10 11  1  0  0  0
  9 12  1  0  0  0
 12 13  2  0  0  0
  6 26  1  0  0  0
 26 27  2  0  0  0
 27 28  1  0  0  0
 28 32  1  0  0  0
 32 33  1  0  0  0
 33 34  2  0  0  0
 33 35  1  0  0  0
 35 36  1  0  0  0
 36 37  1  0  0  0
 37 38  1  0  0  0
 38 39  1  0  0  0
 39 40  1  0  0  0
 28 29  1  0  0  0
 29 30  2  0  0  0
 30 31  1  0  0  0
 19 20  2  0  0  0
 20 21  1  0  0  0
 20 14  1  0  0  0
 12  1  1  0  0  0
 30 26  1  0  0  0
  8  3  1  0  0  0
 11  9  1  0  0  0
 40 35  1  0  0  0
M  END
> <minimizedAffinity>
-6.96683

> <CNNscore>
0.1169376597

> <CNNaffinity>
6.4488878250

> <CNN_VS>
0.7541178465

> <CNNaffinity_variance>
0.0639645532

$$$$
[H]c1nc(-c2c(C([H])([H])[H])nn(C([H])([H])C(=O)N3C([H])([H])C([H])([H])OC([H])([H])C3([H])[H])c2[H])c([H])c2c1C([H])([H])N(c1c(F)c(OC([H])([H])[H])c([H])c(OC([H])([H])[H])c1F)C(=O)C21C([H])([H])C1([H])[H]


 40 45  0  0  0  0  0  0  0  0999 V2000
    0.7322   21.3192  -18.1748 N   0  0  0  0  0  0  0  0  0  0  0  0
    1.1762   20.4491  -19.2332 C   0  0  0  0  0  0  0  0  0  0  0  0
    0.4353   20.8154  -20.4841 C   0  0  0  0  0  0  0  0  0  0  0  0
    1.0831   20.9383  -21.6723 C   0  0  0  0  0  0  0  0  0  0  0  0
    0.3687   21.2881  -22.7747 N   0  0  0  0  0  0  0  0  0  0  0  0
   -0.9500   21.5105  -22.7100 C   0  0  0  0  0  0  0  0  0  0  0  0
   -1.6184   21.3885  -21.5169 C   0  0  0  0  0  0  0  0  0  0  0  0
   -0.9373   21.0418  -20.3956 C   0  0  0  0  0  0  0  0  0  0  0  0
   -1.5480   20.8979  -19.0460 C   0  0  0  0  0  0  0  0  0  0  0  0
   -2.9890   20.9664  -18.8472 C   0  0  0  0  0  0  0  0  0  0  0  0
   -2.2760   19.6655  -18.6714 C   0  0  0  0  0  0  0  0  0  0  0  0
   -0.6714   21.5539  -18.0289 C   0  0  0  0  0  0  0  0  0  0  0  0
   -1.1883   22.2423  -17.1466 O   0  0  0  0  0  0  0  0  0  0  0  0
    3.1414   23.7761  -16.7927 C   0  0  0  0  0  0  0  0  0  0  0  0
    3.3696   23.2760  -15.5558 C   0  0  0  0  0  0  0  0  0  0  0  0
    2.7486   22.0923  -15.1154 C   0  0  0  0  0  0  0  0  0  0  0  0
    1.8836   21.4621  -16.0208 C   0  0  0  0  0  0  0  0  0  0  0  0
    1.2943   20.2978  -15.5905 F   0  0  0  0  0  0  0  0  0  0  0  0
    1.6525   21.9701  -17.2679 C   0  0  0  0  0  0  0  0  0  0  0  0
    2.2701   23.1211  -17.6720 C   0  0  0  0  0  0  0  0  0  0  0  0
    2.0292   23.6095  -18.8966 F   0  0  0  0  0  0  0  0  0  0  0  0
    5.0960   25.1261  -17.2887 C   0  0  0  0  0  0  0  0  0  0  0  0
    3.7195   24.9096  -17.2734 O   0  0  0  0  0  0  0  0  0  0  0  0
    2.9442   21.5810  -13.9371 O   0  0  0  0  0  0  0  0  0  0  0  0
    3.0741   21.1548  -12.7292 C   0  0  0  0  0  0  0  0  0  0  0  0
   -1.6648   21.9171  -23.9099 C   0  0  0  0  0  0  0  0  0  0  0  0
   -3.0237   22.1938  -23.9903 C   0  0  0  0  0  0  0  0  0  0  0  0
   -3.3623   22.5642  -25.2308 N   0  0  0  0  0  0  0  0  0  0  0  0
   -2.2278   22.5203  -25.9243 N   0  0  0  0  0  0  0  0  0  0  0  0
   -1.2038   22.1434  -25.1827 C   0  0  0  0  0  0  0  0  0  0  0  0
    0.2311   21.9825  -25.6084 C   0  0  0  0  0  0  0  0  0  0  0  0
   -4.6792   22.9450  -25.7687 C   0  0  0  0  0  0  0  0  0  0  0  0
   -4.5065   24.1933  -26.5258 C   0  0  0  0  0  0  0  0  0  0  0  0
   -3.9379   25.2094  -25.9595 O   0  0  0  0  0  0  0  0  0  0  0  0
   -4.9408   24.3227  -27.8513 N   0  0  0  0  0  0  0  0  0  0  0  0
   -5.5936   23.2730  -28.5634 C   0  0  0  0  0  0  0  0  0  0  0  0
   -5.2387   23.4586  -30.0370 C   0  0  0  0  0  0  0  0  0  0  0  0
   -5.6950   24.6475  -30.5527 O   0  0  0  0  0  0  0  0  0  0  0  0
   -5.8808   25.6350  -29.5978 C   0  0  0  0  0  0  0  0  0  0  0  0
   -4.7427   25.5805  -28.5909 C   0  0  0  0  0  0  0  0  0  0  0  0
 22 23  1  0  0  0
 23 14  1  0  0  0
 14 15  2  0  0  0
 15 16  1  0  0  0
 16 24  1  0  0  0
 24 25  1  0  0  0
 16 17  2  0  0  0
 17 18  1  0  0  0
 17 19  1  0  0  0
 19  1  1  0  0  0
  1  2  1  0  0  0
  2  3  1  0  0  0
  3  4  2  0  0  0
  4  5  1  0  0  0
  5  6  2  0  0  0
  6  7  1  0  0  0
  7  8  2  0  0  0
  8  9  1  0  0  0
  9 10  1  0  0  0
 10 11  1  0  0  0
  9 12  1  0  0  0
 12 13  2  0  0  0
  6 26  1  0  0  0
 26 27  2  0  0  0
 27 28  1  0  0  0
 28 32  1  0  0  0
 32 33  1  0  0  0
 33 34  2  0  0  0
 33 35  1  0  0  0
 35 36  1  0  0  0
 36 37  1  0  0  0
 37 38  1  0  0  0
 38 39  1  0  0  0
 39 40  1  0  0  0
 28 29  1  0  0  0
 29 30  2  0  0  0
 30 31  1  0  0  0
 19 20  2  0  0  0
 20 21  1  0  0  0
 20 14  1  0  0  0
 12  1  1  0  0  0
 30 26  1  0  0  0
  8  3  1  0  0  0
 11  9  1  0  0  0
 40 35  1  0  0  0
M  END
> <minimizedAffinity>
-8.24939

> <CNNscore>
0.1141380072

> <CNNaffinity>
6.4828405380

> <CNN_VS>
0.7399384975

> <CNNaffinity_variance>
0.0369443223

$$$$
[H]c1nc(-c2c(C([H])([H])[H])nn(C([H])([H])C(=O)N3C([H])([H])C([H])([H])OC([H])([H])C3([H])[H])c2[H])c([H])c2c1C([H])([H])N(c1c(F)c(OC([H])([H])[H])c([H])c(OC([H])([H])[H])c1F)C(=O)C21C([H])([H])C1([H])[H]


 40 45  0  0  0  0  0  0  0  0999 V2000
    0.1927   21.5164  -18.0097 N   0  0  0  0  0  0  0  0  0  0  0  0
    0.5872   20.4543  -18.8991 C   0  0  0  0  0  0  0  0  0  0  0  0
    0.0753   20.7763  -20.2709 C   0  0  0  0  0  0  0  0  0  0  0  0
    0.8667   20.6333  -21.3662 C   0  0  0  0  0  0  0  0  0  0  0  0
    0.3606   20.9538  -22.5865 N   0  0  0  0  0  0  0  0  0  0  0  0
   -0.8929   21.4028  -22.7258 C   0  0  0  0  0  0  0  0  0  0  0  0
   -1.7049   21.5509  -21.6287 C   0  0  0  0  0  0  0  0  0  0  0  0
   -1.2329   21.2415  -20.3946 C   0  0  0  0  0  0  0  0  0  0  0  0
   -2.0106   21.3786  -19.1332 C   0  0  0  0  0  0  0  0  0  0  0  0
   -3.4274   21.7154  -19.1407 C   0  0  0  0  0  0  0  0  0  0  0  0
   -2.9915   20.3462  -18.7319 C   0  0  0  0  0  0  0  0  0  0  0  0
   -1.1509   22.0024  -18.0819 C   0  0  0  0  0  0  0  0  0  0  0  0
   -1.6298   22.8764  -17.3566 O   0  0  0  0  0  0  0  0  0  0  0  0
    1.8413   22.3882  -14.8045 C   0  0  0  0  0  0  0  0  0  0  0  0
    2.8562   23.1813  -15.2208 C   0  0  0  0  0  0  0  0  0  0  0  0
    3.0436   23.4811  -16.5830 C   0  0  0  0  0  0  0  0  0  0  0  0
    2.1289   22.9160  -17.4825 C   0  0  0  0  0  0  0  0  0  0  0  0
    2.3077   23.2269  -18.8090 F   0  0  0  0  0  0  0  0  0  0  0  0
    1.1069   22.1135  -17.0605 C   0  0  0  0  0  0  0  0  0  0  0  0
    0.9458   21.8392  -15.7307 C   0  0  0  0  0  0  0  0  0  0  0  0
   -0.0587   21.0460  -15.3330 F   0  0  0  0  0  0  0  0  0  0  0  0
    1.6568   22.9997  -12.4635 C   0  0  0  0  0  0  0  0  0  0  0  0
    1.6079   22.0723  -13.5024 O   0  0  0  0  0  0  0  0  0  0  0  0
    4.0040   24.2393  -17.0201 O   0  0  0  0  0  0  0  0  0  0  0  0
    4.9168   25.0698  -17.3869 C   0  0  0  0  0  0  0  0  0  0  0  0
   -1.3778   21.7663  -24.0483 C   0  0  0  0  0  0  0  0  0  0  0  0
   -2.7098   21.9278  -24.4081 C   0  0  0  0  0  0  0  0  0  0  0  0
   -2.8165   22.2878  -25.6925 N   0  0  0  0  0  0  0  0  0  0  0  0
   -1.5640   22.3516  -26.1368 N   0  0  0  0  0  0  0  0  0  0  0  0
   -0.6860   22.0513  -25.1989 C   0  0  0  0  0  0  0  0  0  0  0  0
    0.8142   22.0198  -25.3189 C   0  0  0  0  0  0  0  0  0  0  0  0
   -4.0223   22.5638  -26.4916 C   0  0  0  0  0  0  0  0  0  0  0  0
   -5.0436   23.1052  -25.5832 C   0  0  0  0  0  0  0  0  0  0  0  0
   -5.8463   22.2951  -24.9703 O   0  0  0  0  0  0  0  0  0  0  0  0
   -5.1798   24.4809  -25.3564 N   0  0  0  0  0  0  0  0  0  0  0  0
   -4.3604   25.4604  -25.9922 C   0  0  0  0  0  0  0  0  0  0  0  0
   -4.2549   26.6365  -25.0240 C   0  0  0  0  0  0  0  0  0  0  0  0
   -5.4680   27.2261  -24.7623 O   0  0  0  0  0  0  0  0  0  0  0  0
   -6.5508   26.3812  -24.9503 C   0  0  0  0  0  0  0  0  0  0  0  0
   -6.2027   24.9953  -24.4305 C   0  0  0  0  0  0  0  0  0  0  0  0
 22 23  1  0  0  0
 23 14  1  0  0  0
 14 15  2  0  0  0
 15 16  1  0  0  0
 16 24  1  0  0  0
 24 25  1  0  0  0
 16 17  2  0  0  0
 17 18  1  0  0  0
 17 19  1  0  0  0
 19  1  1  0  0  0
  1  2  1  0  0  0
  2  3  1  0  0  0
  3  4  2  0  0  0
  4  5  1  0  0  0
  5  6  2  0  0  0
  6  7  1  0  0  0
  7  8  2  0  0  0
  8  9  1  0  0  0
  9 10  1  0  0  0
 10 11  1  0  0  0
  9 12  1  0  0  0
 12 13  2  0  0  0
  6 26  1  0  0  0
 26 27  2  0  0  0
 27 28  1  0  0  0
 28 32  1  0  0  0
 32 33  1  0  0  0
 33 34  2  0  0  0
 33 35  1  0  0  0
 35 36  1  0  0  0
 36 37  1  0  0  0
 37 38  1  0  0  0
 38 39  1  0  0  0
 39 40  1  0  0  0
 28 29  1  0  0  0
 29 30  2  0  0  0
 30 31  1  0  0  0
 19 20  2  0  0  0
 20 21  1  0  0  0
 20 14  1  0  0  0
 12  1  1  0  0  0
 30 26  1  0  0  0
  8  3  1  0  0  0
 11  9  1  0  0  0
 40 35  1  0  0  0
M  END
> <minimizedAffinity>
-7.75779

> <CNNscore>
0.1141342670

> <CNNaffinity>
6.5330023766

> <CNN_VS>
0.7456394434

> <CNNaffinity_variance>
0.1889914721

$$$$
[H]c1nc(-c2c(C([H])([H])[H])nn(C([H])([H])C(=O)N3C([H])([H])C([H])([H])OC([H])([H])C3([H])[H])c2[H])c([H])c2c1C([H])([H])N(c1c(F)c(OC([H])([H])[H])c([H])c(OC([H])([H])[H])c1F)C(=O)C21C([H])([H])C1([H])[H]


 40 45  0  0  0  0  0  0  0  0999 V2000
   -3.4255   22.6323  -22.4016 N   0  0  0  0  0  0  0  0  0  0  0  0
   -4.4050   21.6699  -21.9669 C   0  0  0  0  0  0  0  0  0  0  0  0
   -4.8887   22.0741  -20.6066 C   0  0  0  0  0  0  0  0  0  0  0  0
   -6.2130   22.0649  -20.3020 C   0  0  0  0  0  0  0  0  0  0  0  0
   -6.6020   22.4556  -19.0593 N   0  0  0  0  0  0  0  0  0  0  0  0
   -5.7105   22.8445  -18.1393 C   0  0  0  0  0  0  0  0  0  0  0  0
   -4.3692   22.8574  -18.4319 C   0  0  0  0  0  0  0  0  0  0  0  0
   -3.9446   22.4748  -19.6627 C   0  0  0  0  0  0  0  0  0  0  0  0
   -2.5224   22.4652  -20.1012 C   0  0  0  0  0  0  0  0  0  0  0  0
   -1.4329   22.7226  -19.1697 C   0  0  0  0  0  0  0  0  0  0  0  0
   -1.6226   21.3508  -19.7300 C   0  0  0  0  0  0  0  0  0  0  0  0
   -2.4191   23.0476  -21.4736 C   0  0  0  0  0  0  0  0  0  0  0  0
   -1.5017   23.8317  -21.7246 O   0  0  0  0  0  0  0  0  0  0  0  0
   -2.8419   23.0379  -26.0411 C   0  0  0  0  0  0  0  0  0  0  0  0
   -3.4678   24.2112  -26.2939 C   0  0  0  0  0  0  0  0  0  0  0  0
   -4.1066   24.9386  -25.2723 C   0  0  0  0  0  0  0  0  0  0  0  0
   -4.0623   24.3854  -23.9850 C   0  0  0  0  0  0  0  0  0  0  0  0
   -4.6732   25.1094  -22.9896 F   0  0  0  0  0  0  0  0  0  0  0  0
   -3.4325   23.1996  -23.7326 C   0  0  0  0  0  0  0  0  0  0  0  0
   -2.8177   22.5133  -24.7429 C   0  0  0  0  0  0  0  0  0  0  0  0
   -2.2084   21.3489  -24.4801 F   0  0  0  0  0  0  0  0  0  0  0  0
   -0.8964   22.5450  -27.4051 C   0  0  0  0  0  0  0  0  0  0  0  0
   -2.2023   22.2980  -26.9863 O   0  0  0  0  0  0  0  0  0  0  0  0
   -4.7153   26.0683  -25.4758 O   0  0  0  0  0  0  0  0  0  0  0  0
   -5.2601   27.2288  -25.5935 C   0  0  0  0  0  0  0  0  0  0  0  0
   -6.1783   23.2874  -16.8350 C   0  0  0  0  0  0  0  0  0  0  0  0
   -5.7419   24.4191  -16.1579 C   0  0  0  0  0  0  0  0  0  0  0  0
   -6.3879   24.5572  -14.9941 N   0  0  0  0  0  0  0  0  0  0  0  0
   -7.2221   23.5223  -14.9392 N   0  0  0  0  0  0  0  0  0  0  0  0
   -7.1296   22.7497  -16.0047 C   0  0  0  0  0  0  0  0  0  0  0  0
   -7.9101   21.4979  -16.3043 C   0  0  0  0  0  0  0  0  0  0  0  0
   -6.2487   25.5990  -13.9627 C   0  0  0  0  0  0  0  0  0  0  0  0
   -7.5333   25.6985  -13.2547 C   0  0  0  0  0  0  0  0  0  0  0  0
   -8.4865   26.4143  -13.7600 O   0  0  0  0  0  0  0  0  0  0  0  0
   -7.7635   25.0397  -12.0401 N   0  0  0  0  0  0  0  0  0  0  0  0
   -6.7778   24.2405  -11.3881 C   0  0  0  0  0  0  0  0  0  0  0  0
   -7.5323   23.1606  -10.6158 C   0  0  0  0  0  0  0  0  0  0  0  0
   -8.3531   23.6733   -9.6406 O   0  0  0  0  0  0  0  0  0  0  0  0
   -8.7556   24.9780   -9.8796 C   0  0  0  0  0  0  0  0  0  0  0  0
   -9.0647   25.1454  -11.3590 C   0  0  0  0  0  0  0  0  0  0  0  0
 22 23  1  0  0  0
 23 14  1  0  0  0
 14 15  2  0  0  0
 15 16  1  0  0  0
 16 24  1  0  0  0
 24 25  1  0  0  0
 16 17  2  0  0  0
 17 18  1  0  0  0
 17 19  1  0  0  0
 19  1  1  0  0  0
  1  2  1  0  0  0
  2  3  1  0  0  0
  3  4  2  0  0  0
  4  5  1  0  0  0
  5  6  2  0  0  0
  6  7  1  0  0  0
  7  8  2  0  0  0
  8  9  1  0  0  0
  9 10  1  0  0  0
 10 11  1  0  0  0
  9 12  1  0  0  0
 12 13  2  0  0  0
  6 26  1  0  0  0
 26 27  2  0  0  0
 27 28  1  0  0  0
 28 32  1  0  0  0
 32 33  1  0  0  0
 33 34  2  0  0  0
 33 35  1  0  0  0
 35 36  1  0  0  0
 36 37  1  0  0  0
 37 38  1  0  0  0
 38 39  1  0  0  0
 39 40  1  0  0  0
 28 29  1  0  0  0
 29 30  2  0  0  0
 30 31  1  0  0  0
 19 20  2  0  0  0
 20 21  1  0  0  0
 20 14  1  0  0  0
 12  1  1  0  0  0
 30 26  1  0  0  0
  8  3  1  0  0  0
 11  9  1  0  0  0
 40 35  1  0  0  0
M  END
> <minimizedAffinity>
-8.02754

> <CNNscore>
0.1066886783

> <CNNaffinity>
6.0472340584

> <CNN_VS>
0.6451714039

> <CNNaffinity_variance>
0.1037808806

$$$$
[H]c1nc(-c2c(C([H])([H])[H])nn(C([H])([H])C(=O)N3C([H])([H])C([H])([H])OC([H])([H])C3([H])[H])c2[H])c([H])c2c1C([H])([H])N(c1c(F)c(OC([H])([H])[H])c([H])c(OC([H])([H])[H])c1F)C(=O)C21C([H])([H])C1([H])[H]


 40 45  0  0  0  0  0  0  0  0999 V2000
   -3.4857   22.5895  -22.7154 N   0  0  0  0  0  0  0  0  0  0  0  0
   -4.3867   21.5185  -22.3753 C   0  0  0  0  0  0  0  0  0  0  0  0
   -4.9651   21.8035  -21.0218 C   0  0  0  0  0  0  0  0  0  0  0  0
   -6.2944   21.6550  -20.7818 C   0  0  0  0  0  0  0  0  0  0  0  0
   -6.7722   21.9417  -19.5419 N   0  0  0  0  0  0  0  0  0  0  0  0
   -5.9625   22.3629  -18.5624 C   0  0  0  0  0  0  0  0  0  0  0  0
   -4.6172   22.5161  -18.7893 C   0  0  0  0  0  0  0  0  0  0  0  0
   -4.1052   22.2401  -20.0154 C   0  0  0  0  0  0  0  0  0  0  0  0
   -2.6710   22.3862  -20.3851 C   0  0  0  0  0  0  0  0  0  0  0  0
   -1.6523   22.6945  -19.3910 C   0  0  0  0  0  0  0  0  0  0  0  0
   -1.6858   21.3424  -20.0255 C   0  0  0  0  0  0  0  0  0  0  0  0
   -2.5646   23.0472  -21.7211 C   0  0  0  0  0  0  0  0  0  0  0  0
   -1.7162   23.9255  -21.8896 O   0  0  0  0  0  0  0  0  0  0  0  0
   -2.8955   23.1763  -26.3291 C   0  0  0  0  0  0  0  0  0  0  0  0
   -3.5183   24.3622  -26.5233 C   0  0  0  0  0  0  0  0  0  0  0  0
   -4.1570   25.0388  -25.4675 C   0  0  0  0  0  0  0  0  0  0  0  0
   -4.1161   24.4215  -24.2095 C   0  0  0  0  0  0  0  0  0  0  0  0
   -4.7268   25.0959  -23.1798 F   0  0  0  0  0  0  0  0  0  0  0  0
   -3.4893   23.2230  -24.0161 C   0  0  0  0  0  0  0  0  0  0  0  0
   -2.8745   22.5870  -25.0588 C   0  0  0  0  0  0  0  0  0  0  0  0
   -2.2682   21.4094  -24.8541 F   0  0  0  0  0  0  0  0  0  0  0  0
   -0.9381   22.7267  -27.6911 C   0  0  0  0  0  0  0  0  0  0  0  0
   -2.2561   22.4834  -27.3093 O   0  0  0  0  0  0  0  0  0  0  0  0
   -4.7629   26.1788  -25.6148 O   0  0  0  0  0  0  0  0  0  0  0  0
   -5.4585   27.2525  -25.7586 C   0  0  0  0  0  0  0  0  0  0  0  0
   -6.5263   22.6909  -17.2621 C   0  0  0  0  0  0  0  0  0  0  0  0
   -7.4813   21.9470  -16.5807 C   0  0  0  0  0  0  0  0  0  0  0  0
   -7.7694   22.5076  -15.4003 N   0  0  0  0  0  0  0  0  0  0  0  0
   -7.0038   23.5939  -15.3398 N   0  0  0  0  0  0  0  0  0  0  0  0
   -6.2563   23.7384  -16.4173 C   0  0  0  0  0  0  0  0  0  0  0  0
   -5.2661   24.8335  -16.7105 C   0  0  0  0  0  0  0  0  0  0  0  0
   -8.7143   22.0683  -14.3597 C   0  0  0  0  0  0  0  0  0  0  0  0
   -8.3969   20.6707  -14.0319 C   0  0  0  0  0  0  0  0  0  0  0  0
   -7.3751   20.4078  -13.2815 O   0  0  0  0  0  0  0  0  0  0  0  0
   -9.1690   19.6035  -14.5086 N   0  0  0  0  0  0  0  0  0  0  0  0
  -10.3038   19.7798  -15.3549 C   0  0  0  0  0  0  0  0  0  0  0  0
  -11.2576   18.6262  -15.0522 C   0  0  0  0  0  0  0  0  0  0  0  0
  -10.7194   17.3957  -15.3413 O   0  0  0  0  0  0  0  0  0  0  0  0
   -9.3336   17.3738  -15.3192 C   0  0  0  0  0  0  0  0  0  0  0  0
   -8.8365   18.2138  -14.1532 C   0  0  0  0  0  0  0  0  0  0  0  0
 22 23  1  0  0  0
 23 14  1  0  0  0
 14 15  2  0  0  0
 15 16  1  0  0  0
 16 24  1  0  0  0
 24 25  1  0  0  0
 16 17  2  0  0  0
 17 18  1  0  0  0
 17 19  1  0  0  0
 19  1  1  0  0  0
  1  2  1  0  0  0
  2  3  1  0  0  0
  3  4  2  0  0  0
  4  5  1  0  0  0
  5  6  2  0  0  0
  6  7  1  0  0  0
  7  8  2  0  0  0
  8  9  1  0  0  0
  9 10  1  0  0  0
 10 11  1  0  0  0
  9 12  1  0  0  0
 12 13  2  0  0  0
  6 26  1  0  0  0
 26 27  2  0  0  0
 27 28  1  0  0  0
 28 32  1  0  0  0
 32 33  1  0  0  0
 33 34  2  0  0  0
 33 35  1  0  0  0
 35 36  1  0  0  0
 36 37  1  0  0  0
 37 38  1  0  0  0
 38 39  1  0  0  0
 39 40  1  0  0  0
 28 29  1  0  0  0
 29 30  2  0  0  0
 30 31  1  0  0  0
 19 20  2  0  0  0
 20 21  1  0  0  0
 20 14  1  0  0  0
 12  1  1  0  0  0
 30 26  1  0  0  0
  8  3  1  0  0  0
 11  9  1  0  0  0
 40 35  1  0  0  0
M  END
> <minimizedAffinity>
-7.44700

> <CNNscore>
0.1046317965

> <CNNaffinity>
6.3305974007

> <CNN_VS>
0.6623817682

> <CNNaffinity_variance>
0.0910543874

$$$$
[H]c1nc(-c2c(C([H])([H])[H])nn(C([H])([H])C(=O)N3C([H])([H])C([H])([H])OC([H])([H])C3([H])[H])c2[H])c([H])c2c1C([H])([H])N(c1c(F)c(OC([H])([H])[H])c([H])c(OC([H])([H])[H])c1F)C(=O)C21C([H])([H])C1([H])[H]


 40 45  0  0  0  0  0  0  0  0999 V2000
   -3.6443   22.6786  -22.6716 N   0  0  0  0  0  0  0  0  0  0  0  0
   -4.4983   21.5745  -22.3167 C   0  0  0  0  0  0  0  0  0  0  0  0
   -5.0705   21.8417  -20.9570 C   0  0  0  0  0  0  0  0  0  0  0  0
   -6.3898   21.6422  -20.6997 C   0  0  0  0  0  0  0  0  0  0  0  0
   -6.8630   21.9145  -19.4547 N   0  0  0  0  0  0  0  0  0  0  0  0
   -6.0582   22.3707  -18.4869 C   0  0  0  0  0  0  0  0  0  0  0  0
   -4.7228   22.5756  -18.7313 C   0  0  0  0  0  0  0  0  0  0  0  0
   -4.2158   22.3153  -19.9629 C   0  0  0  0  0  0  0  0  0  0  0  0
   -2.7931   22.5160  -20.3511 C   0  0  0  0  0  0  0  0  0  0  0  0
   -1.7749   22.8676  -19.3710 C   0  0  0  0  0  0  0  0  0  0  0  0
   -1.7634   21.5129  -20.0007 C   0  0  0  0  0  0  0  0  0  0  0  0
   -2.7294   23.1757  -21.6905 C   0  0  0  0  0  0  0  0  0  0  0  0
   -1.9183   24.0859  -21.8725 O   0  0  0  0  0  0  0  0  0  0  0  0
   -4.6159   24.9551  -25.4329 C   0  0  0  0  0  0  0  0  0  0  0  0
   -3.7726   24.5709  -26.4195 C   0  0  0  0  0  0  0  0  0  0  0  0
   -2.8449   23.5298  -26.2297 C   0  0  0  0  0  0  0  0  0  0  0  0
   -2.8388   22.9154  -24.9696 C   0  0  0  0  0  0  0  0  0  0  0  0
   -1.9424   21.8884  -24.7970 F   0  0  0  0  0  0  0  0  0  0  0  0
   -3.6889   23.3067  -23.9742 C   0  0  0  0  0  0  0  0  0  0  0  0
   -4.5824   24.3200  -24.1852 C   0  0  0  0  0  0  0  0  0  0  0  0
   -5.4062   24.6957  -23.1971 F   0  0  0  0  0  0  0  0  0  0  0  0
   -5.2265   27.3033  -25.4756 C   0  0  0  0  0  0  0  0  0  0  0  0
   -5.5367   25.9476  -25.5630 O   0  0  0  0  0  0  0  0  0  0  0  0
   -2.0215   23.1321  -27.1528 O   0  0  0  0  0  0  0  0  0  0  0  0
   -1.1257   22.7901  -28.0120 C   0  0  0  0  0  0  0  0  0  0  0  0
   -6.6181   22.6813  -17.1807 C   0  0  0  0  0  0  0  0  0  0  0  0
   -7.5981   21.9486  -16.5229 C   0  0  0  0  0  0  0  0  0  0  0  0
   -7.8749   22.4864  -15.3293 N   0  0  0  0  0  0  0  0  0  0  0  0
   -7.0776   23.5474  -15.2371 N   0  0  0  0  0  0  0  0  0  0  0  0
   -6.3210   23.6976  -16.3075 C   0  0  0  0  0  0  0  0  0  0  0  0
   -5.2972   24.7700  -16.5678 C   0  0  0  0  0  0  0  0  0  0  0  0
   -8.8374   22.0484  -14.3043 C   0  0  0  0  0  0  0  0  0  0  0  0
   -8.5239   20.6521  -13.9675 C   0  0  0  0  0  0  0  0  0  0  0  0
   -7.5196   20.3927  -13.1926 O   0  0  0  0  0  0  0  0  0  0  0  0
   -9.2815   19.5822  -14.4614 N   0  0  0  0  0  0  0  0  0  0  0  0
  -10.3963   19.7544  -15.3348 C   0  0  0  0  0  0  0  0  0  0  0  0
  -11.3537   18.5985  -15.0538 C   0  0  0  0  0  0  0  0  0  0  0  0
  -10.8054   17.3692  -15.3287 O   0  0  0  0  0  0  0  0  0  0  0  0
   -9.4204   17.3513  -15.2734 C   0  0  0  0  0  0  0  0  0  0  0  0
   -8.9537   18.1938  -14.0967 C   0  0  0  0  0  0  0  0  0  0  0  0
 22 23  1  0  0  0
 23 14  1  0  0  0
 14 15  2  0  0  0
 15 16  1  0  0  0
 16 24  1  0  0  0
 24 25  1  0  0  0
 16 17  2  0  0  0
 17 18  1  0  0  0
 17 19  1  0  0  0
 19  1  1  0  0  0
  1  2  1  0  0  0
  2  3  1  0  0  0
  3  4  2  0  0  0
  4  5  1  0  0  0
  5  6  2  0  0  0
  6  7  1  0  0  0
  7  8  2  0  0  0
  8  9  1  0  0  0
  9 10  1  0  0  0
 10 11  1  0  0  0
  9 12  1  0  0  0
 12 13  2  0  0  0
  6 26  1  0  0  0
 26 27  2  0  0  0
 27 28  1  0  0  0
 28 32  1  0  0  0
 32 33  1  0  0  0
 33 34  2  0  0  0
 33 35  1  0  0  0
 35 36  1  0  0  0
 36 37  1  0  0  0
 37 38  1  0  0  0
 38 39  1  0  0  0
 39 40  1  0  0  0
 28 29  1  0  0  0
 29 30  2  0  0  0
 30 31  1  0  0  0
 19 20  2  0  0  0
 20 21  1  0  0  0
 20 14  1  0  0  0
 12  1  1  0  0  0
 30 26  1  0  0  0
  8  3  1  0  0  0
 11  9  1  0  0  0
 40 35  1  0  0  0
M  END
> <minimizedAffinity>
-7.30740

> <CNNscore>
0.1031430513

> <CNNaffinity>
6.3930497169

> <CNN_VS>
0.6593986750

> <CNNaffinity_variance>
0.1387912780

$$$$
[H]c1nn(-c2c([H])c([H])c3c(nc(C([H])([H])[H])n3[H])c2[H])c(N([H])[H])c1C(=O)c1c([H])c(Br)c(Br)n1[H]


 29 32  0  0  0  0  0  0  0  0999 V2000
   -0.3983   22.0869  -25.4265 N   0  0  0  0  0  0  0  0  0  0  0  0
    0.3172   22.3500  -26.5035 N   0  0  0  0  0  0  0  0  0  0  0  0
   -0.4806   22.7340  -27.5329 C   0  0  0  0  0  0  0  0  0  0  0  0
   -1.7753   22.7151  -27.0882 C   0  0  0  0  0  0  0  0  0  0  0  0
   -1.6815   22.2982  -25.7441 C   0  0  0  0  0  0  0  0  0  0  0  0
   -2.8121   22.1391  -24.8849 N   0  0  0  0  0  0  0  0  0  0  0  0
   -3.0696   22.8670  -24.1681 H   0  0  0  0  0  0  0  0  0  0  0  0
   -3.4097   21.2838  -24.9568 H   0  0  0  0  0  0  0  0  0  0  0  0
    4.5205   20.2876  -20.2887 C   0  0  0  0  0  0  0  0  0  0  0  0
    3.3222   20.5851  -21.1191 C   0  0  0  0  0  0  0  0  0  0  0  0
    3.3294   21.0144  -22.3910 N   0  0  0  0  0  0  0  0  0  0  0  0
    2.0725   21.1826  -22.8378 C   0  0  0  0  0  0  0  0  0  0  0  0
    1.5172   21.5942  -24.0366 C   0  0  0  0  0  0  0  0  0  0  0  0
    0.1264   21.6605  -24.1784 C   0  0  0  0  0  0  0  0  0  0  0  0
   -0.6656   21.3106  -23.1096 C   0  0  0  0  0  0  0  0  0  0  0  0
   -0.1595   20.8995  -21.9102 C   0  0  0  0  0  0  0  0  0  0  0  0
    1.2352   20.8446  -21.8024 C   0  0  0  0  0  0  0  0  0  0  0  0
    2.0212   20.4914  -20.7883 N   0  0  0  0  0  0  0  0  0  0  0  0
    1.6955   20.1734  -19.8334 H   0  0  0  0  0  0  0  0  0  0  0  0
   -3.0324   23.0073  -27.7535 C   0  0  0  0  0  0  0  0  0  0  0  0
   -3.3194   22.5051  -28.8813 O   0  0  0  0  0  0  0  0  0  0  0  0
   -3.9961   23.8826  -27.1488 C   0  0  0  0  0  0  0  0  0  0  0  0
   -5.3302   23.5218  -26.9084 C   0  0  0  0  0  0  0  0  0  0  0  0
   -5.9815   24.5661  -26.2959 C   0  0  0  0  0  0  0  0  0  0  0  0
   -7.7927   24.6630  -25.7313 Br  0  0  0  0  0  0  0  0  0  0  0  0
   -5.0363   25.5536  -26.1693 C   0  0  0  0  0  0  0  0  0  0  0  0
   -5.2892   27.2873  -25.3926 Br  0  0  0  0  0  0  0  0  0  0  0  0
   -3.8481   25.1241  -26.6876 N   0  0  0  0  0  0  0  0  0  0  0  0
   -2.9816   25.7181  -26.6850 H   0  0  0  0  0  0  0  0  0  0  0  0
  9 10  1  0  0  0
 10 11  2  0  0  0
 11 12  1  0  0  0
 12 13  2  0  0  0
 13 14  1  0  0  0
 14 15  2  0  0  0
 15 16  1  0  0  0
 16 17  2  0  0  0
 17 18  1  0  0  0
 14  1  1  0  0  0
  1  2  1  0  0  0
  2  3  2  0  0  0
  3  4  1  0  0  0
  4 20  1  0  0  0
 20 21  2  0  0  0
 20 22  1  0  0  0
 22 23  2  0  0  0
 23 24  1  0  0  0
 24 25  1  0  0  0
 24 26  2  0  0  0
 26 27  1  0  0  0
 26 28  1  0  0  0
  4  5  2  0  0  0
  5  6  1  0  0  0
 18 10  1  0  0  0
  5  1  1  0  0  0
 17 12  1  0  0  0
 28 22  1  0  0  0
 18 19  1  0  0  0
 28 29  1  0  0  0
  6  7  1  0  0  0
  6  8  1  0  0  0
M  END
> <minimizedAffinity>
-7.99151

> <CNNscore>
0.6150900722

> <CNNaffinity>
6.8148193359

> <CNN_VS>
4.1917276382

> <CNNaffinity_variance>
0.1698311716

$$$$
[H]c1nn(-c2c([H])c([H])c3c(nc(C([H])([H])[H])n3[H])c2[H])c(N([H])[H])c1C(=O)c1c([H])c(Br)c(Br)n1[H]


 29 32  0  0  0  0  0  0  0  0999 V2000
   -2.3755   22.7757  -25.6228 N   0  0  0  0  0  0  0  0  0  0  0  0
   -1.2806   22.1357  -25.9866 N   0  0  0  0  0  0  0  0  0  0  0  0
   -0.5260   21.8132  -24.9048 C   0  0  0  0  0  0  0  0  0  0  0  0
   -1.1753   22.2723  -23.7903 C   0  0  0  0  0  0  0  0  0  0  0  0
   -2.3472   22.8787  -24.2883 C   0  0  0  0  0  0  0  0  0  0  0  0
   -3.3313   23.4979  -23.4577 N   0  0  0  0  0  0  0  0  0  0  0  0
   -4.2316   23.0109  -23.2087 H   0  0  0  0  0  0  0  0  0  0  0  0
   -3.1688   24.4593  -23.0790 H   0  0  0  0  0  0  0  0  0  0  0  0
   -5.4215   26.1036  -31.4086 C   0  0  0  0  0  0  0  0  0  0  0  0
   -5.0868   25.3666  -30.1601 C   0  0  0  0  0  0  0  0  0  0  0  0
   -3.8527   25.1441  -29.6809 N   0  0  0  0  0  0  0  0  0  0  0  0
   -3.9126   24.4469  -28.5329 C   0  0  0  0  0  0  0  0  0  0  0  0
   -2.9698   23.9616  -27.6437 C   0  0  0  0  0  0  0  0  0  0  0  0
   -3.3775   23.2535  -26.5075 C   0  0  0  0  0  0  0  0  0  0  0  0
   -4.7224   23.0540  -26.2987 C   0  0  0  0  0  0  0  0  0  0  0  0
   -5.6850   23.5152  -27.1499 C   0  0  0  0  0  0  0  0  0  0  0  0
   -5.2428   24.2192  -28.2762 C   0  0  0  0  0  0  0  0  0  0  0  0
   -5.9167   24.7858  -29.2742 N   0  0  0  0  0  0  0  0  0  0  0  0
   -6.9686   24.7955  -29.3847 H   0  0  0  0  0  0  0  0  0  0  0  0
   -0.8285   22.2298  -22.3809 C   0  0  0  0  0  0  0  0  0  0  0  0
   -1.0897   23.1959  -21.6033 O   0  0  0  0  0  0  0  0  0  0  0  0
   -0.1727   21.0820  -21.8214 C   0  0  0  0  0  0  0  0  0  0  0  0
    1.2195   20.9680  -21.6938 C   0  0  0  0  0  0  0  0  0  0  0  0
    1.5259   19.7678  -21.0976 C   0  0  0  0  0  0  0  0  0  0  0  0
    3.2367   19.0628  -20.6677 Br  0  0  0  0  0  0  0  0  0  0  0  0
    0.3156   19.1621  -20.8678 C   0  0  0  0  0  0  0  0  0  0  0  0
    0.0282   17.4504  -20.0552 Br  0  0  0  0  0  0  0  0  0  0  0  0
   -0.6948   19.9678  -21.3095 N   0  0  0  0  0  0  0  0  0  0  0  0
   -1.7081   19.7046  -21.2223 H   0  0  0  0  0  0  0  0  0  0  0  0
  9 10  1  0  0  0
 10 11  2  0  0  0
 11 12  1  0  0  0
 12 13  2  0  0  0
 13 14  1  0  0  0
 14 15  2  0  0  0
 15 16  1  0  0  0
 16 17  2  0  0  0
 17 18  1  0  0  0
 14  1  1  0  0  0
  1  2  1  0  0  0
  2  3  2  0  0  0
  3  4  1  0  0  0
  4 20  1  0  0  0
 20 21  2  0  0  0
 20 22  1  0  0  0
 22 23  2  0  0  0
 23 24  1  0  0  0
 24 25  1  0  0  0
 24 26  2  0  0  0
 26 27  1  0  0  0
 26 28  1  0  0  0
  4  5  2  0  0  0
  5  6  1  0  0  0
 18 10  1  0  0  0
  5  1  1  0  0  0
 17 12  1  0  0  0
 28 22  1  0  0  0
 18 19  1  0  0  0
 28 29  1  0  0  0
  6  7  1  0  0  0
  6  8  1  0  0  0
M  END
> <minimizedAffinity>
-7.68936

> <CNNscore>
0.1722507626

> <CNNaffinity>
6.4845666885

> <CNN_VS>
1.1169716120

> <CNNaffinity_variance>
0.3815635443

$$$$
[H]c1nn(-c2c([H])c([H])c3c(nc(C([H])([H])[H])n3[H])c2[H])c(N([H])[H])c1C(=O)c1c([H])c(Br)c(Br)n1[H]


 29 32  0  0  0  0  0  0  0  0999 V2000
   -1.2701   22.1762  -24.6357 N   0  0  0  0  0  0  0  0  0  0  0  0
   -0.0187   22.3189  -25.0286 N   0  0  0  0  0  0  0  0  0  0  0  0
    0.8401   21.8321  -24.0963 C   0  0  0  0  0  0  0  0  0  0  0  0
    0.0957   21.3524  -23.0522 C   0  0  0  0  0  0  0  0  0  0  0  0
   -1.2414   21.5896  -23.4327 C   0  0  0  0  0  0  0  0  0  0  0  0
   -2.3673   21.2395  -22.6254 N   0  0  0  0  0  0  0  0  0  0  0  0
   -2.9406   20.3771  -22.8189 H   0  0  0  0  0  0  0  0  0  0  0  0
   -2.6423   21.8443  -21.8176 H   0  0  0  0  0  0  0  0  0  0  0  0
   -5.5898   23.5717  -30.3996 C   0  0  0  0  0  0  0  0  0  0  0  0
   -4.9474   23.3853  -29.0705 C   0  0  0  0  0  0  0  0  0  0  0  0
   -3.7088   22.9168  -28.8505 N   0  0  0  0  0  0  0  0  0  0  0  0
   -3.4478   22.8779  -27.5322 C   0  0  0  0  0  0  0  0  0  0  0  0
   -2.3580   22.4932  -26.7711 C   0  0  0  0  0  0  0  0  0  0  0  0
   -2.4122   22.5807  -25.3753 C   0  0  0  0  0  0  0  0  0  0  0  0
   -3.5618   23.0528  -24.7855 C   0  0  0  0  0  0  0  0  0  0  0  0
   -4.6589   23.4426  -25.4983 C   0  0  0  0  0  0  0  0  0  0  0  0
   -4.5711   23.3423  -26.8919 C   0  0  0  0  0  0  0  0  0  0  0  0
   -5.4492   23.6368  -27.8474 N   0  0  0  0  0  0  0  0  0  0  0  0
   -6.4233   24.0207  -27.6970 H   0  0  0  0  0  0  0  0  0  0  0  0
    0.4768   20.7465  -21.7888 C   0  0  0  0  0  0  0  0  0  0  0  0
   -0.3885   20.2869  -20.9849 O   0  0  0  0  0  0  0  0  0  0  0  0
    1.8577   20.6501  -21.4087 C   0  0  0  0  0  0  0  0  0  0  0  0
    2.7276   19.6588  -21.8867 C   0  0  0  0  0  0  0  0  0  0  0  0
    3.9807   19.8587  -21.3579 C   0  0  0  0  0  0  0  0  0  0  0  0
    5.5601   18.8416  -21.6404 Br  0  0  0  0  0  0  0  0  0  0  0  0
    3.8612   20.9710  -20.5622 C   0  0  0  0  0  0  0  0  0  0  0  0
    5.2494   21.7926  -19.5276 Br  0  0  0  0  0  0  0  0  0  0  0  0
    2.5770   21.4334  -20.6057 N   0  0  0  0  0  0  0  0  0  0  0  0
    2.2641   22.2860  -20.0775 H   0  0  0  0  0  0  0  0  0  0  0  0
  9 10  1  0  0  0
 10 11  2  0  0  0
 11 12  1  0  0  0
 12 13  2  0  0  0
 13 14  1  0  0  0
 14 15  2  0  0  0
 15 16  1  0  0  0
 16 17  2  0  0  0
 17 18  1  0  0  0
 14  1  1  0  0  0
  1  2  1  0  0  0
  2  3  2  0  0  0
  3  4  1  0  0  0
  4 20  1  0  0  0
 20 21  2  0  0  0
 20 22  1  0  0  0
 22 23  2  0  0  0
 23 24  1  0  0  0
 24 25  1  0  0  0
 24 26  2  0  0  0
 26 27  1  0  0  0
 26 28  1  0  0  0
  4  5  2  0  0  0
  5  6  1  0  0  0
 18 10  1  0  0  0
  5  1  1  0  0  0
 17 12  1  0  0  0
 28 22  1  0  0  0
 18 19  1  0  0  0
 28 29  1  0  0  0
  6  7  1  0  0  0
  6  8  1  0  0  0
M  END
> <minimizedAffinity>
-7.63704

> <CNNscore>
0.1087425873

> <CNNaffinity>
6.2815709114

> <CNN_VS>
0.6830742955

> <CNNaffinity_variance>
0.7010039091

$$$$
[H]c1nn(-c2c([H])c([H])c3c(nc(C([H])([H])[H])n3[H])c2[H])c(N([H])[H])c1C(=O)c1c([H])c(Br)c(Br)n1[H]


 29 32  0  0  0  0  0  0  0  0999 V2000
   -0.8085   22.0056  -24.3781 N   0  0  0  0  0  0  0  0  0  0  0  0
    0.4394   22.1582  -24.7786 N   0  0  0  0  0  0  0  0  0  0  0  0
    1.3085   21.7062  -23.8384 C   0  0  0  0  0  0  0  0  0  0  0  0
    0.5749   21.2394  -22.7809 C   0  0  0  0  0  0  0  0  0  0  0  0
   -0.7669   21.4474  -23.1620 C   0  0  0  0  0  0  0  0  0  0  0  0
   -1.8847   21.0989  -22.3428 N   0  0  0  0  0  0  0  0  0  0  0  0
   -2.4454   20.2237  -22.5143 H   0  0  0  0  0  0  0  0  0  0  0  0
   -2.1663   21.7180  -21.5482 H   0  0  0  0  0  0  0  0  0  0  0  0
   -7.5126   24.6048  -25.8369 C   0  0  0  0  0  0  0  0  0  0  0  0
   -6.1412   24.0274  -25.8359 C   0  0  0  0  0  0  0  0  0  0  0  0
   -5.3534   23.8648  -24.7612 N   0  0  0  0  0  0  0  0  0  0  0  0
   -4.1798   23.3140  -25.1174 C   0  0  0  0  0  0  0  0  0  0  0  0
   -3.0374   22.9398  -24.4319 C   0  0  0  0  0  0  0  0  0  0  0  0
   -1.9590   22.3754  -25.1227 C   0  0  0  0  0  0  0  0  0  0  0  0
   -2.0613   22.2039  -26.4837 C   0  0  0  0  0  0  0  0  0  0  0  0
   -3.1690   22.5589  -27.1983 C   0  0  0  0  0  0  0  0  0  0  0  0
   -4.2290   23.1203  -26.4766 C   0  0  0  0  0  0  0  0  0  0  0  0
   -5.4209   23.5604  -26.8722 N   0  0  0  0  0  0  0  0  0  0  0  0
   -5.7844   23.5567  -27.8657 H   0  0  0  0  0  0  0  0  0  0  0  0
    0.9693   20.6688  -21.5052 C   0  0  0  0  0  0  0  0  0  0  0  0
    0.3622   20.9597  -20.4314 O   0  0  0  0  0  0  0  0  0  0  0  0
    2.0694   19.7504  -21.4214 C   0  0  0  0  0  0  0  0  0  0  0  0
    1.9332   18.4079  -21.0381 C   0  0  0  0  0  0  0  0  0  0  0  0
    3.1620   17.7934  -21.0859 C   0  0  0  0  0  0  0  0  0  0  0  0
    3.5998   15.9904  -20.6784 Br  0  0  0  0  0  0  0  0  0  0  0  0
    4.0353   18.7690  -21.4984 C   0  0  0  0  0  0  0  0  0  0  0  0
    5.9220   18.5748  -21.7727 Br  0  0  0  0  0  0  0  0  0  0  0  0
    3.3597   19.9394  -21.6956 N   0  0  0  0  0  0  0  0  0  0  0  0
    3.8330   20.8177  -22.0249 H   0  0  0  0  0  0  0  0  0  0  0  0
  9 10  1  0  0  0
 10 11  2  0  0  0
 11 12  1  0  0  0
 12 13  2  0  0  0
 13 14  1  0  0  0
 14 15  2  0  0  0
 15 16  1  0  0  0
 16 17  2  0  0  0
 17 18  1  0  0  0
 14  1  1  0  0  0
  1  2  1  0  0  0
  2  3  2  0  0  0
  3  4  1  0  0  0
  4 20  1  0  0  0
 20 21  2  0  0  0
 20 22  1  0  0  0
 22 23  2  0  0  0
 23 24  1  0  0  0
 24 25  1  0  0  0
 24 26  2  0  0  0
 26 27  1  0  0  0
 26 28  1  0  0  0
  4  5  2  0  0  0
  5  6  1  0  0  0
 18 10  1  0  0  0
  5  1  1  0  0  0
 17 12  1  0  0  0
 28 22  1  0  0  0
 18 19  1  0  0  0
 28 29  1  0  0  0
  6  7  1  0  0  0
  6  8  1  0  0  0
M  END
> <minimizedAffinity>
-7.07982

> <CNNscore>
0.0981281996

> <CNNaffinity>
5.9986252785

> <CNN_VS>
0.5886343122

> <CNNaffinity_variance>
0.3423078656

$$$$
[H]c1nn(-c2c([H])c([H])c3c(nc(C([H])([H])[H])n3[H])c2[H])c(N([H])[H])c1C(=O)c1c([H])c(Br)c(Br)n1[H]


 29 32  0  0  0  0  0  0  0  0999 V2000
   -0.7703   21.9483  -24.2642 N   0  0  0  0  0  0  0  0  0  0  0  0
    0.5489   21.9555  -24.2452 N   0  0  0  0  0  0  0  0  0  0  0  0
    1.0194   21.4234  -23.0879 C   0  0  0  0  0  0  0  0  0  0  0  0
   -0.0585   21.0566  -22.3278 C   0  0  0  0  0  0  0  0  0  0  0  0
   -1.1786   21.4068  -23.1100 C   0  0  0  0  0  0  0  0  0  0  0  0
   -2.5297   21.1966  -22.6951 N   0  0  0  0  0  0  0  0  0  0  0  0
   -3.0997   20.3867  -23.0543 H   0  0  0  0  0  0  0  0  0  0  0  0
   -2.9791   21.8547  -22.0177 H   0  0  0  0  0  0  0  0  0  0  0  0
   -6.0495   25.6685  -27.7456 C   0  0  0  0  0  0  0  0  0  0  0  0
   -4.9098   24.8151  -27.3135 C   0  0  0  0  0  0  0  0  0  0  0  0
   -4.4701   24.6626  -26.0543 N   0  0  0  0  0  0  0  0  0  0  0  0
   -3.4234   23.8195  -26.0205 C   0  0  0  0  0  0  0  0  0  0  0  0
   -2.6113   23.3229  -25.0160 C   0  0  0  0  0  0  0  0  0  0  0  0
   -1.5770   22.4328  -25.3270 C   0  0  0  0  0  0  0  0  0  0  0  0
   -1.3896   22.0681  -26.6401 C   0  0  0  0  0  0  0  0  0  0  0  0
   -2.1671   22.5340  -27.6610 C   0  0  0  0  0  0  0  0  0  0  0  0
   -3.1923   23.4222  -27.3151 C   0  0  0  0  0  0  0  0  0  0  0  0
   -4.1038   24.0402  -28.0623 N   0  0  0  0  0  0  0  0  0  0  0  0
   -4.2071   23.9537  -29.1115 H   0  0  0  0  0  0  0  0  0  0  0  0
   -0.1547   20.4643  -21.0055 C   0  0  0  0  0  0  0  0  0  0  0  0
   -0.6494   21.1005  -20.0272 O   0  0  0  0  0  0  0  0  0  0  0  0
    0.3127   19.1287  -20.7644 C   0  0  0  0  0  0  0  0  0  0  0  0
    1.6519   18.7365  -20.9080 C   0  0  0  0  0  0  0  0  0  0  0  0
    1.7757   17.4079  -20.5773 C   0  0  0  0  0  0  0  0  0  0  0  0
    3.3390   16.3287  -20.5795 Br  0  0  0  0  0  0  0  0  0  0  0  0
    0.5091   17.0038  -20.2352 C   0  0  0  0  0  0  0  0  0  0  0  0
   -0.0196   15.2504  -19.6705 Br  0  0  0  0  0  0  0  0  0  0  0  0
   -0.3575   18.0526  -20.3535 N   0  0  0  0  0  0  0  0  0  0  0  0
   -1.3807   17.9696  -20.1299 H   0  0  0  0  0  0  0  0  0  0  0  0
  9 10  1  0  0  0
 10 11  2  0  0  0
 11 12  1  0  0  0
 12 13  2  0  0  0
 13 14  1  0  0  0
 14 15  2  0  0  0
 15 16  1  0  0  0
 16 17  2  0  0  0
 17 18  1  0  0  0
 14  1  1  0  0  0
  1  2  1  0  0  0
  2  3  2  0  0  0
  3  4  1  0  0  0
  4 20  1  0  0  0
 20 21  2  0  0  0
 20 22  1  0  0  0
 22 23  2  0  0  0
 23 24  1  0  0  0
 24 25  1  0  0  0
 24 26  2  0  0  0
 26 27  1  0  0  0
 26 28  1  0  0  0
  4  5  2  0  0  0
  5  6  1  0  0  0
 18 10  1  0  0  0
  5  1  1  0  0  0
 17 12  1  0  0  0
 28 22  1  0  0  0
 18 19  1  0  0  0
 28 29  1  0  0  0
  6  7  1  0  0  0
  6  8  1  0  0  0
M  END
> <minimizedAffinity>
-7.27526

> <CNNscore>
0.0947269797

> <CNNaffinity>
6.0118665695

> <CNN_VS>
0.5694859624

> <CNNaffinity_variance>
0.2294325382

$$$$
[H]c1nn(-c2c([H])c([H])c3c(nc(C([H])([H])[H])n3[H])c2[H])c(N([H])[H])c1C(=O)c1c([H])c(Br)c(Br)n1[H]


 29 32  0  0  0  0  0  0  0  0999 V2000
   -7.6084   22.1228  -21.0507 N   0  0  0  0  0  0  0  0  0  0  0  0
   -7.4980   21.3844  -22.1386 N   0  0  0  0  0  0  0  0  0  0  0  0
   -6.4987   21.8426  -22.9355 C   0  0  0  0  0  0  0  0  0  0  0  0
   -5.9412   22.9324  -22.3223 C   0  0  0  0  0  0  0  0  0  0  0  0
   -6.6745   23.0789  -21.1265 C   0  0  0  0  0  0  0  0  0  0  0  0
   -6.4243   24.1073  -20.1665 N   0  0  0  0  0  0  0  0  0  0  0  0
   -5.8851   23.9192  -19.2813 H   0  0  0  0  0  0  0  0  0  0  0  0
   -6.7787   25.0774  -20.3322 H   0  0  0  0  0  0  0  0  0  0  0  0
  -10.7984   19.1504  -15.1500 C   0  0  0  0  0  0  0  0  0  0  0  0
  -10.3850   19.9405  -16.3412 C   0  0  0  0  0  0  0  0  0  0  0  0
   -9.2820   19.7381  -17.0793 N   0  0  0  0  0  0  0  0  0  0  0  0
   -9.2161   20.6322  -18.0813 C   0  0  0  0  0  0  0  0  0  0  0  0
   -8.3206   20.8718  -19.1087 C   0  0  0  0  0  0  0  0  0  0  0  0
   -8.5534   21.9151  -20.0120 C   0  0  0  0  0  0  0  0  0  0  0  0
   -9.6808   22.6875  -19.8553 C   0  0  0  0  0  0  0  0  0  0  0  0
  -10.5893   22.4857  -18.8566 C   0  0  0  0  0  0  0  0  0  0  0  0
  -10.3261   21.4340  -17.9708 C   0  0  0  0  0  0  0  0  0  0  0  0
  -11.0034   20.9886  -16.9154 N   0  0  0  0  0  0  0  0  0  0  0  0
  -11.9133   21.3859  -16.5503 H   0  0  0  0  0  0  0  0  0  0  0  0
   -4.8661   23.8234  -22.7206 C   0  0  0  0  0  0  0  0  0  0  0  0
   -4.2737   24.5659  -21.8815 O   0  0  0  0  0  0  0  0  0  0  0  0
   -4.4388   23.8910  -24.0893 C   0  0  0  0  0  0  0  0  0  0  0  0
   -4.9804   24.7804  -25.0292 C   0  0  0  0  0  0  0  0  0  0  0  0
   -4.3399   24.6155  -26.2344 C   0  0  0  0  0  0  0  0  0  0  0  0
   -4.6402   25.5350  -27.8694 Br  0  0  0  0  0  0  0  0  0  0  0  0
   -3.4136   23.6262  -26.0161 C   0  0  0  0  0  0  0  0  0  0  0  0
   -2.1802   22.9103  -27.2963 Br  0  0  0  0  0  0  0  0  0  0  0  0
   -3.4876   23.2028  -24.7198 N   0  0  0  0  0  0  0  0  0  0  0  0
   -2.8589   22.4561  -24.3314 H   0  0  0  0  0  0  0  0  0  0  0  0
  9 10  1  0  0  0
 10 11  2  0  0  0
 11 12  1  0  0  0
 12 13  2  0  0  0
 13 14  1  0  0  0
 14 15  2  0  0  0
 15 16  1  0  0  0
 16 17  2  0  0  0
 17 18  1  0  0  0
 14  1  1  0  0  0
  1  2  1  0  0  0
  2  3  2  0  0  0
  3  4  1  0  0  0
  4 20  1  0  0  0
 20 21  2  0  0  0
 20 22  1  0  0  0
 22 23  2  0  0  0
 23 24  1  0  0  0
 24 25  1  0  0  0
 24 26  2  0  0  0
 26 27  1  0  0  0
 26 28  1  0  0  0
  4  5  2  0  0  0
  5  6  1  0  0  0
 18 10  1  0  0  0
  5  1  1  0  0  0
 17 12  1  0  0  0
 28 22  1  0  0  0
 18 19  1  0  0  0
 28 29  1  0  0  0
  6  7  1  0  0  0
  6  8  1  0  0  0
M  END
> <minimizedAffinity>
-6.63997

> <CNNscore>
0.0932814330

> <CNNaffinity>
5.4571633339

> <CNN_VS>
0.5090520382

> <CNNaffinity_variance>
0.0619498380

$$$$
[H]c1nn(-c2c([H])c([H])c3c(nc(C([H])([H])[H])n3[H])c2[H])c(N([H])[H])c1C(=O)c1c([H])c(Br)c(Br)n1[H]


 29 32  0  0  0  0  0  0  0  0999 V2000
   -4.1530   23.4062  -25.2823 N   0  0  0  0  0  0  0  0  0  0  0  0
   -5.1871   22.7854  -25.8172 N   0  0  0  0  0  0  0  0  0  0  0  0
   -6.3434   23.4386  -25.5342 C   0  0  0  0  0  0  0  0  0  0  0  0
   -6.0295   24.5359  -24.7782 C   0  0  0  0  0  0  0  0  0  0  0  0
   -4.6271   24.4803  -24.6393 C   0  0  0  0  0  0  0  0  0  0  0  0
   -3.8655   25.4471  -23.9132 N   0  0  0  0  0  0  0  0  0  0  0  0
   -3.3334   26.2136  -24.4022 H   0  0  0  0  0  0  0  0  0  0  0  0
   -3.8251   25.4067  -22.8688 H   0  0  0  0  0  0  0  0  0  0  0  0
    2.4678   20.9699  -23.2677 C   0  0  0  0  0  0  0  0  0  0  0  0
    1.2432   21.4670  -23.9513 C   0  0  0  0  0  0  0  0  0  0  0  0
    0.0710   21.7530  -23.3629 N   0  0  0  0  0  0  0  0  0  0  0  0
   -0.8212   22.1788  -24.2741 C   0  0  0  0  0  0  0  0  0  0  0  0
   -2.1400   22.5942  -24.2183 C   0  0  0  0  0  0  0  0  0  0  0  0
   -2.8012   22.9863  -25.3878 C   0  0  0  0  0  0  0  0  0  0  0  0
   -2.1160   22.9490  -26.5801 C   0  0  0  0  0  0  0  0  0  0  0  0
   -0.8154   22.5462  -26.6797 C   0  0  0  0  0  0  0  0  0  0  0  0
   -0.1842   22.1608  -25.4911 C   0  0  0  0  0  0  0  0  0  0  0  0
    1.0525   21.7283  -25.2575 N   0  0  0  0  0  0  0  0  0  0  0  0
    1.8104   21.5964  -25.9836 H   0  0  0  0  0  0  0  0  0  0  0  0
   -6.8564   25.5690  -24.1803 C   0  0  0  0  0  0  0  0  0  0  0  0
   -6.6823   26.7959  -24.4465 O   0  0  0  0  0  0  0  0  0  0  0  0
   -7.9047   25.2285  -23.2607 C   0  0  0  0  0  0  0  0  0  0  0  0
   -7.7623   24.2803  -22.2368 C   0  0  0  0  0  0  0  0  0  0  0  0
   -8.9319   24.2065  -21.5181 C   0  0  0  0  0  0  0  0  0  0  0  0
   -9.3343   23.1063  -20.0227 Br  0  0  0  0  0  0  0  0  0  0  0  0
   -9.7759   25.1116  -22.1124 C   0  0  0  0  0  0  0  0  0  0  0  0
  -11.5785   25.5063  -21.5952 Br  0  0  0  0  0  0  0  0  0  0  0  0
   -9.1404   25.7170  -23.1586 N   0  0  0  0  0  0  0  0  0  0  0  0
   -9.5990   26.4551  -23.7490 H   0  0  0  0  0  0  0  0  0  0  0  0
  9 10  1  0  0  0
 10 11  2  0  0  0
 11 12  1  0  0  0
 12 13  2  0  0  0
 13 14  1  0  0  0
 14 15  2  0  0  0
 15 16  1  0  0  0
 16 17  2  0  0  0
 17 18  1  0  0  0
 14  1  1  0  0  0
  1  2  1  0  0  0
  2  3  2  0  0  0
  3  4  1  0  0  0
  4 20  1  0  0  0
 20 21  2  0  0  0
 20 22  1  0  0  0
 22 23  2  0  0  0
 23 24  1  0  0  0
 24 25  1  0  0  0
 24 26  2  0  0  0
 26 27  1  0  0  0
 26 28  1  0  0  0
  4  5  2  0  0  0
  5  6  1  0  0  0
 18 10  1  0  0  0
  5  1  1  0  0  0
 17 12  1  0  0  0
 28 22  1  0  0  0
 18 19  1  0  0  0
 28 29  1  0  0  0
  6  7  1  0  0  0
  6  8  1  0  0  0
M  END
> <minimizedAffinity>
-8.42481

> <CNNscore>
0.0920423120

> <CNNaffinity>
5.9337019920

> <CNN_VS>
0.5461516380

> <CNNaffinity_variance>
0.0809309036

$$$$
[H]c1nn(-c2c([H])c([H])c3c(nc(C([H])([H])[H])n3[H])c2[H])c(N([H])[H])c1C(=O)c1c([H])c(Br)c(Br)n1[H]


 29 32  0  0  0  0  0  0  0  0999 V2000
   -5.2962   22.7587  -24.2806 N   0  0  0  0  0  0  0  0  0  0  0  0
   -5.2566   21.4416  -24.2134 N   0  0  0  0  0  0  0  0  0  0  0  0
   -4.0145   20.9789  -24.5081 C   0  0  0  0  0  0  0  0  0  0  0  0
   -3.2186   22.0597  -24.7776 C   0  0  0  0  0  0  0  0  0  0  0  0
   -4.0701   23.1733  -24.6227 C   0  0  0  0  0  0  0  0  0  0  0  0
   -3.6464   24.5249  -24.8111 N   0  0  0  0  0  0  0  0  0  0  0  0
   -3.4223   25.1537  -23.9962 H   0  0  0  0  0  0  0  0  0  0  0  0
   -3.5511   24.9152  -25.7768 H   0  0  0  0  0  0  0  0  0  0  0  0
  -10.6804   26.0915  -20.5749 C   0  0  0  0  0  0  0  0  0  0  0  0
   -9.7127   25.5465  -21.5652 C   0  0  0  0  0  0  0  0  0  0  0  0
   -8.6724   24.7429  -21.2933 N   0  0  0  0  0  0  0  0  0  0  0  0
   -8.0055   24.4391  -22.4205 C   0  0  0  0  0  0  0  0  0  0  0  0
   -6.8910   23.6716  -22.7100 C   0  0  0  0  0  0  0  0  0  0  0  0
   -6.4426   23.5577  -24.0308 C   0  0  0  0  0  0  0  0  0  0  0  0
   -7.1286   24.2196  -25.0225 C   0  0  0  0  0  0  0  0  0  0  0  0
   -8.2318   24.9867  -24.7808 C   0  0  0  0  0  0  0  0  0  0  0  0
   -8.6534   25.0791  -23.4491 C   0  0  0  0  0  0  0  0  0  0  0  0
   -9.6724   25.7334  -22.8972 N   0  0  0  0  0  0  0  0  0  0  0  0
  -10.3769   26.3311  -23.4124 H   0  0  0  0  0  0  0  0  0  0  0  0
   -1.8235   22.1622  -25.1672 C   0  0  0  0  0  0  0  0  0  0  0  0
   -1.4842   22.5514  -26.3246 O   0  0  0  0  0  0  0  0  0  0  0  0
   -0.7777   21.8217  -24.2448 C   0  0  0  0  0  0  0  0  0  0  0  0
   -0.9830   21.6440  -22.8686 C   0  0  0  0  0  0  0  0  0  0  0  0
    0.2060   21.2981  -22.2714 C   0  0  0  0  0  0  0  0  0  0  0  0
    0.5471   20.9321  -20.4388 Br  0  0  0  0  0  0  0  0  0  0  0  0
    1.1245   21.2686  -23.2912 C   0  0  0  0  0  0  0  0  0  0  0  0
    2.9891   20.8523  -23.1405 Br  0  0  0  0  0  0  0  0  0  0  0  0
    0.5143   21.5860  -24.4710 N   0  0  0  0  0  0  0  0  0  0  0  0
    1.0300   21.6126  -25.3859 H   0  0  0  0  0  0  0  0  0  0  0  0
  9 10  1  0  0  0
 10 11  2  0  0  0
 11 12  1  0  0  0
 12 13  2  0  0  0
 13 14  1  0  0  0
 14 15  2  0  0  0
 15 16  1  0  0  0
 16 17  2  0  0  0
 17 18  1  0  0  0
 14  1  1  0  0  0
  1  2  1  0  0  0
  2  3  2  0  0  0
  3  4  1  0  0  0
  4 20  1  0  0  0
 20 21  2  0  0  0
 20 22  1  0  0  0
 22 23  2  0  0  0
 23 24  1  0  0  0
 24 25  1  0  0  0
 24 26  2  0  0  0
 26 27  1  0  0  0
 26 28  1  0  0  0
  4  5  2  0  0  0
  5  6  1  0  0  0
 18 10  1  0  0  0
  5  1  1  0  0  0
 17 12  1  0  0  0
 28 22  1  0  0  0
 18 19  1  0  0  0
 28 29  1  0  0  0
  6  7  1  0  0  0
  6  8  1  0  0  0
M  END
> <minimizedAffinity>
-7.25948

> <CNNscore>
0.0896319598

> <CNNaffinity>
5.8438544273

> <CNN_VS>
0.5237961411

> <CNNaffinity_variance>
0.0379025787

$$$$
[H]c1nn(-c2c([H])c([H])c3c(nc(C([H])([H])[H])n3[H])c2[H])c(N([H])[H])c1C(=O)c1c([H])c(Br)c(Br)n1[H]


 29 32  0  0  0  0  0  0  0  0999 V2000
   -0.5790   21.8833  -24.2549 N   0  0  0  0  0  0  0  0  0  0  0  0
    0.6826   22.0128  -24.6188 N   0  0  0  0  0  0  0  0  0  0  0  0
    1.5157   21.5569  -23.6483 C   0  0  0  0  0  0  0  0  0  0  0  0
    0.7433   21.1119  -22.6092 C   0  0  0  0  0  0  0  0  0  0  0  0
   -0.5830   21.3366  -23.0329 C   0  0  0  0  0  0  0  0  0  0  0  0
   -1.7303   21.0134  -22.2449 N   0  0  0  0  0  0  0  0  0  0  0  0
   -2.2992   20.1452  -22.4251 H   0  0  0  0  0  0  0  0  0  0  0  0
   -2.0263   21.6446  -21.4652 H   0  0  0  0  0  0  0  0  0  0  0  0
   -7.2322   24.4830  -25.9300 C   0  0  0  0  0  0  0  0  0  0  0  0
   -5.8591   23.9116  -25.8854 C   0  0  0  0  0  0  0  0  0  0  0  0
   -5.1142   23.7306  -24.7833 N   0  0  0  0  0  0  0  0  0  0  0  0
   -3.9245   23.1921  -25.1029 C   0  0  0  0  0  0  0  0  0  0  0  0
   -2.8087   22.8089  -24.3797 C   0  0  0  0  0  0  0  0  0  0  0  0
   -1.7005   22.2632  -25.0377 C   0  0  0  0  0  0  0  0  0  0  0  0
   -1.7472   22.1189  -26.4049 C   0  0  0  0  0  0  0  0  0  0  0  0
   -2.8271   22.4837  -27.1562 C   0  0  0  0  0  0  0  0  0  0  0  0
   -3.9181   23.0258  -26.4666 C   0  0  0  0  0  0  0  0  0  0  0  0
   -5.0954   23.4687  -26.9010 N   0  0  0  0  0  0  0  0  0  0  0  0
   -5.4186   23.4837  -27.9081 H   0  0  0  0  0  0  0  0  0  0  0  0
    1.0899   20.5480  -21.3168 C   0  0  0  0  0  0  0  0  0  0  0  0
    0.5904   19.4553  -20.9135 O   0  0  0  0  0  0  0  0  0  0  0  0
    2.0165   21.2181  -20.4490 C   0  0  0  0  0  0  0  0  0  0  0  0
    3.4097   21.0940  -20.5556 C   0  0  0  0  0  0  0  0  0  0  0  0
    4.0116   21.8795  -19.6014 C   0  0  0  0  0  0  0  0  0  0  0  0
    5.8654   22.1178  -19.2623 Br  0  0  0  0  0  0  0  0  0  0  0  0
    2.9776   22.4748  -18.9223 C   0  0  0  0  0  0  0  0  0  0  0  0
    3.1262   23.7005  -17.4566 Br  0  0  0  0  0  0  0  0  0  0  0  0
    1.7850   22.0652  -19.4466 N   0  0  0  0  0  0  0  0  0  0  0  0
    0.8600   22.4070  -19.0843 H   0  0  0  0  0  0  0  0  0  0  0  0
  9 10  1  0  0  0
 10 11  2  0  0  0
 11 12  1  0  0  0
 12 13  2  0  0  0
 13 14  1  0  0  0
 14 15  2  0  0  0
 15 16  1  0  0  0
 16 17  2  0  0  0
 17 18  1  0  0  0
 14  1  1  0  0  0
  1  2  1  0  0  0
  2  3  2  0  0  0
  3  4  1  0  0  0
  4 20  1  0  0  0
 20 21  2  0  0  0
 20 22  1  0  0  0
 22 23  2  0  0  0
 23 24  1  0  0  0
 24 25  1  0  0  0
 24 26  2  0  0  0
 26 27  1  0  0  0
 26 28  1  0  0  0
  4  5  2  0  0  0
  5  6  1  0  0  0
 18 10  1  0  0  0
  5  1  1  0  0  0
 17 12  1  0  0  0
 28 22  1  0  0  0
 18 19  1  0  0  0
 28 29  1  0  0  0
  6  7  1  0  0  0
  6  8  1  0  0  0
M  END
> <minimizedAffinity>
-7.51403

> <CNNscore>
0.0839713290

> <CNNaffinity>
6.0013732910

> <CNN_VS>
0.5039432645

> <CNNaffinity_variance>
0.2357739955

$$$$
[H]c1nc(-c2c(C([H])([H])[H])nn(C([H])([H])[H])c2[H])c([H])c2c1C([H])([H])N(c1c(F)c(OC([H])([H])[H])c([H])c(OC([H])([H])[H])c1F)C(=O)N2c1c([H])c(F)c([H])c(F)c1[H]


 38 42  0  0  0  0  0  0  0  0999 V2000
   -5.7997   22.8744  -21.1171 N   0  0  0  0  0  0  0  0  0  0  0  0
   -4.7252   21.9042  -21.1742 C   0  0  0  0  0  0  0  0  0  0  0  0
   -3.7935   22.0920  -22.2807 C   0  0  0  0  0  0  0  0  0  0  0  0
   -2.7038   21.2407  -22.3428 C   0  0  0  0  0  0  0  0  0  0  0  0
   -1.8231   21.3444  -23.3398 N   0  0  0  0  0  0  0  0  0  0  0  0
   -1.9390   22.2578  -24.3172 C   0  0  0  0  0  0  0  0  0  0  0  0
   -3.0352   23.1143  -24.2542 C   0  0  0  0  0  0  0  0  0  0  0  0
   -3.9481   23.0309  -23.2499 C   0  0  0  0  0  0  0  0  0  0  0  0
   -5.0503   23.9564  -23.2235 N   0  0  0  0  0  0  0  0  0  0  0  0
   -5.9691   23.8512  -22.1340 C   0  0  0  0  0  0  0  0  0  0  0  0
   -6.9539   24.6439  -22.0719 O   0  0  0  0  0  0  0  0  0  0  0  0
   -8.5166   21.8795  -18.8113 C   0  0  0  0  0  0  0  0  0  0  0  0
   -8.1371   22.6021  -17.7028 C   0  0  0  0  0  0  0  0  0  0  0  0
   -7.0289   23.4176  -17.6657 C   0  0  0  0  0  0  0  0  0  0  0  0
   -6.2881   23.4778  -18.8392 C   0  0  0  0  0  0  0  0  0  0  0  0
   -5.1900   24.2576  -18.8773 F   0  0  0  0  0  0  0  0  0  0  0  0
   -6.6407   22.7672  -19.9635 C   0  0  0  0  0  0  0  0  0  0  0  0
   -7.7538   21.9609  -19.9706 C   0  0  0  0  0  0  0  0  0  0  0  0
   -8.1337   21.2483  -21.0600 F   0  0  0  0  0  0  0  0  0  0  0  0
  -10.8268   21.6014  -18.2478 C   0  0  0  0  0  0  0  0  0  0  0  0
   -9.6532   21.0543  -18.8197 O   0  0  0  0  0  0  0  0  0  0  0  0
   -6.6605   24.1414  -16.5354 O   0  0  0  0  0  0  0  0  0  0  0  0
   -5.6521   23.5967  -15.7074 C   0  0  0  0  0  0  0  0  0  0  0  0
   -5.1895   24.9239  -24.2598 C   0  0  0  0  0  0  0  0  0  0  0  0
   -6.0906   24.7979  -25.2879 C   0  0  0  0  0  0  0  0  0  0  0  0
   -6.1689   25.7532  -26.2614 C   0  0  0  0  0  0  0  0  0  0  0  0
   -7.0571   25.6552  -27.3095 F   0  0  0  0  0  0  0  0  0  0  0  0
   -5.3205   26.8514  -26.1890 C   0  0  0  0  0  0  0  0  0  0  0  0
   -4.3995   27.0310  -25.1827 C   0  0  0  0  0  0  0  0  0  0  0  0
   -3.5702   28.1113  -25.1224 F   0  0  0  0  0  0  0  0  0  0  0  0
   -4.3717   26.0205  -24.2229 C   0  0  0  0  0  0  0  0  0  0  0  0
   -1.0056   22.3769  -25.4140 C   0  0  0  0  0  0  0  0  0  0  0  0
   -1.3087   22.7689  -26.6961 C   0  0  0  0  0  0  0  0  0  0  0  0
   -0.1654   22.7478  -27.4435 N   0  0  0  0  0  0  0  0  0  0  0  0
   -0.1141   23.1061  -28.8680 C   0  0  0  0  0  0  0  0  0  0  0  0
    0.8060   22.3564  -26.6469 N   0  0  0  0  0  0  0  0  0  0  0  0
    0.3367   22.1170  -25.3913 C   0  0  0  0  0  0  0  0  0  0  0  0
    1.1735   21.6472  -24.2365 C   0  0  0  0  0  0  0  0  0  0  0  0
 20 21  1  0  0  0
 21 12  1  0  0  0
 12 13  2  0  0  0
 13 14  1  0  0  0
 14 22  1  0  0  0
 22 23  1  0  0  0
 14 15  2  0  0  0
 15 16  1  0  0  0
 15 17  1  0  0  0
 17  1  1  0  0  0
  1  2  1  0  0  0
  2  3  1  0  0  0
  3  4  2  0  0  0
  4  5  1  0  0  0
  5  6  2  0  0  0
  6  7  1  0  0  0
  7  8  2  0  0  0
  8  9  1  0  0  0
  9 10  1  0  0  0
 10 11  2  0  0  0
  9 24  1  0  0  0
 24 25  2  0  0  0
 25 26  1  0  0  0
 26 27  1  0  0  0
 26 28  2  0  0  0
 28 29  1  0  0  0
 29 30  1  0  0  0
 29 31  2  0  0  0
  6 32  1  0  0  0
 32 33  2  0  0  0
 33 34  1  0  0  0
 34 35  1  0  0  0
 34 36  1  0  0  0
 36 37  2  0  0  0
 37 38  1  0  0  0
 17 18  2  0  0  0
 18 19  1  0  0  0
 18 12  1  0  0  0
 10  1  1  0  0  0
 31 24  1  0  0  0
 37 32  1  0  0  0
  8  3  1  0  0  0
M  END
> <minimizedAffinity>
-8.80133

> <CNNscore>
0.3786734641

> <CNNaffinity>
7.3119530678

> <CNN_VS>
2.7688426971

> <CNNaffinity_variance>
0.0673642904

$$$$
[H]c1nc(-c2c(C([H])([H])[H])nn(C([H])([H])[H])c2[H])c([H])c2c1C([H])([H])N(c1c(F)c(OC([H])([H])[H])c([H])c(OC([H])([H])[H])c1F)C(=O)N2c1c([H])c(F)c([H])c(F)c1[H]


 38 42  0  0  0  0  0  0  0  0999 V2000
   -5.4883   22.4879  -20.3101 N   0  0  0  0  0  0  0  0  0  0  0  0
   -4.1866   21.8521  -20.3245 C   0  0  0  0  0  0  0  0  0  0  0  0
   -3.4329   22.0360  -21.5598 C   0  0  0  0  0  0  0  0  0  0  0  0
   -2.1513   21.5148  -21.6036 C   0  0  0  0  0  0  0  0  0  0  0  0
   -1.4140   21.6300  -22.7096 N   0  0  0  0  0  0  0  0  0  0  0  0
   -1.8604   22.2431  -23.8178 C   0  0  0  0  0  0  0  0  0  0  0  0
   -3.1496   22.7677  -23.7732 C   0  0  0  0  0  0  0  0  0  0  0  0
   -3.9230   22.6644  -22.6596 C   0  0  0  0  0  0  0  0  0  0  0  0
   -5.2406   23.2442  -22.6629 N   0  0  0  0  0  0  0  0  0  0  0  0
   -6.0070   23.1376  -21.4615 C   0  0  0  0  0  0  0  0  0  0  0  0
   -7.1715   23.6319  -21.4205 O   0  0  0  0  0  0  0  0  0  0  0  0
   -6.7916   23.3119  -16.9469 C   0  0  0  0  0  0  0  0  0  0  0  0
   -7.5601   22.1906  -16.7303 C   0  0  0  0  0  0  0  0  0  0  0  0
   -7.6736   21.1569  -17.6321 C   0  0  0  0  0  0  0  0  0  0  0  0
   -6.9517   21.3053  -18.8096 C   0  0  0  0  0  0  0  0  0  0  0  0
   -7.0135   20.3318  -19.7390 F   0  0  0  0  0  0  0  0  0  0  0  0
   -6.1753   22.4142  -19.0562 C   0  0  0  0  0  0  0  0  0  0  0  0
   -6.0811   23.4308  -18.1358 C   0  0  0  0  0  0  0  0  0  0  0  0
   -5.3242   24.5368  -18.3427 F   0  0  0  0  0  0  0  0  0  0  0  0
   -6.6992   23.9664  -14.6458 C   0  0  0  0  0  0  0  0  0  0  0  0
   -6.6953   24.3520  -16.0078 O   0  0  0  0  0  0  0  0  0  0  0  0
   -8.4555   20.0300  -17.3959 O   0  0  0  0  0  0  0  0  0  0  0  0
   -9.7403   20.2278  -16.8395 C   0  0  0  0  0  0  0  0  0  0  0  0
   -5.7292   23.8890  -23.8354 C   0  0  0  0  0  0  0  0  0  0  0  0
   -6.3211   23.2120  -24.8727 C   0  0  0  0  0  0  0  0  0  0  0  0
   -6.7587   23.8841  -25.9787 C   0  0  0  0  0  0  0  0  0  0  0  0
   -7.3513   23.2355  -27.0393 F   0  0  0  0  0  0  0  0  0  0  0  0
   -6.5926   25.2628  -26.0311 C   0  0  0  0  0  0  0  0  0  0  0  0
   -6.0082   25.9935  -25.0224 C   0  0  0  0  0  0  0  0  0  0  0  0
   -5.8483   27.3459  -25.0851 F   0  0  0  0  0  0  0  0  0  0  0  0
   -5.5847   25.2469  -23.9241 C   0  0  0  0  0  0  0  0  0  0  0  0
   -1.0845   22.3651  -25.0308 C   0  0  0  0  0  0  0  0  0  0  0  0
   -1.5597   22.7561  -26.2599 C   0  0  0  0  0  0  0  0  0  0  0  0
   -0.5281   22.7386  -27.1553 N   0  0  0  0  0  0  0  0  0  0  0  0
   -0.6713   23.0970  -28.5735 C   0  0  0  0  0  0  0  0  0  0  0  0
    0.5434   22.3503  -26.4978 N   0  0  0  0  0  0  0  0  0  0  0  0
    0.2493   22.1094  -25.1903 C   0  0  0  0  0  0  0  0  0  0  0  0
    1.2363   21.6423  -24.1596 C   0  0  0  0  0  0  0  0  0  0  0  0
 20 21  1  0  0  0
 21 12  1  0  0  0
 12 13  2  0  0  0
 13 14  1  0  0  0
 14 22  1  0  0  0
 22 23  1  0  0  0
 14 15  2  0  0  0
 15 16  1  0  0  0
 15 17  1  0  0  0
 17  1  1  0  0  0
  1  2  1  0  0  0
  2  3  1  0  0  0
  3  4  2  0  0  0
  4  5  1  0  0  0
  5  6  2  0  0  0
  6  7  1  0  0  0
  7  8  2  0  0  0
  8  9  1  0  0  0
  9 10  1  0  0  0
 10 11  2  0  0  0
  9 24  1  0  0  0
 24 25  2  0  0  0
 25 26  1  0  0  0
 26 27  1  0  0  0
 26 28  2  0  0  0
 28 29  1  0  0  0
 29 30  1  0  0  0
 29 31  2  0  0  0
  6 32  1  0  0  0
 32 33  2  0  0  0
 33 34  1  0  0  0
 34 35  1  0  0  0
 34 36  1  0  0  0
 36 37  2  0  0  0
 37 38  1  0  0  0
 17 18  2  0  0  0
 18 19  1  0  0  0
 18 12  1  0  0  0
 10  1  1  0  0  0
 31 24  1  0  0  0
 37 32  1  0  0  0
  8  3  1  0  0  0
M  END
> <minimizedAffinity>
-8.60206

> <CNNscore>
0.2249190509

> <CNNaffinity>
7.1050515175

> <CNN_VS>
1.5980614424

> <CNNaffinity_variance>
0.0534125939

$$$$
[H]c1nc(-c2c(C([H])([H])[H])nn(C([H])([H])[H])c2[H])c([H])c2c1C([H])([H])N(c1c(F)c(OC([H])([H])[H])c([H])c(OC([H])([H])[H])c1F)C(=O)N2c1c([H])c(F)c([H])c(F)c1[H]


 38 42  0  0  0  0  0  0  0  0999 V2000
   -5.9558   22.4450  -19.8875 N   0  0  0  0  0  0  0  0  0  0  0  0
   -5.5704   23.6562  -19.1923 C   0  0  0  0  0  0  0  0  0  0  0  0
   -5.9758   23.7098  -17.7921 C   0  0  0  0  0  0  0  0  0  0  0  0
   -5.5698   24.8099  -17.0566 C   0  0  0  0  0  0  0  0  0  0  0  0
   -5.9225   24.9320  -15.7755 N   0  0  0  0  0  0  0  0  0  0  0  0
   -6.6732   24.0177  -15.1401 C   0  0  0  0  0  0  0  0  0  0  0  0
   -7.0812   22.9109  -15.8803 C   0  0  0  0  0  0  0  0  0  0  0  0
   -6.7366   22.7611  -17.1871 C   0  0  0  0  0  0  0  0  0  0  0  0
   -7.1686   21.5860  -17.8974 N   0  0  0  0  0  0  0  0  0  0  0  0
   -6.7590   21.4558  -19.2603 C   0  0  0  0  0  0  0  0  0  0  0  0
   -7.1176   20.4391  -19.9234 O   0  0  0  0  0  0  0  0  0  0  0  0
   -3.7768   21.7210  -22.7885 C   0  0  0  0  0  0  0  0  0  0  0  0
   -4.6161   22.1319  -23.7994 C   0  0  0  0  0  0  0  0  0  0  0  0
   -5.8734   22.6493  -23.5848 C   0  0  0  0  0  0  0  0  0  0  0  0
   -6.2669   22.7394  -22.2557 C   0  0  0  0  0  0  0  0  0  0  0  0
   -7.4853   23.2380  -21.9691 F   0  0  0  0  0  0  0  0  0  0  0  0
   -5.4516   22.3366  -21.2230 C   0  0  0  0  0  0  0  0  0  0  0  0
   -4.2001   21.8238  -21.4684 C   0  0  0  0  0  0  0  0  0  0  0  0
   -3.3681   21.4193  -20.4769 F   0  0  0  0  0  0  0  0  0  0  0  0
   -1.4765   22.1388  -23.3043 C   0  0  0  0  0  0  0  0  0  0  0  0
   -2.4981   21.1959  -23.0379 O   0  0  0  0  0  0  0  0  0  0  0  0
   -6.7085   23.0601  -24.6196 O   0  0  0  0  0  0  0  0  0  0  0  0
   -6.2620   24.1207  -25.4413 C   0  0  0  0  0  0  0  0  0  0  0  0
   -7.9733   20.6135  -17.2372 C   0  0  0  0  0  0  0  0  0  0  0  0
   -7.4494   19.5367  -16.5658 C   0  0  0  0  0  0  0  0  0  0  0  0
   -8.2730   18.6288  -15.9626 C   0  0  0  0  0  0  0  0  0  0  0  0
   -7.7811   17.5346  -15.2860 F   0  0  0  0  0  0  0  0  0  0  0  0
   -9.6474   18.8179  -16.0424 C   0  0  0  0  0  0  0  0  0  0  0  0
  -10.2285   19.8777  -16.7000 C   0  0  0  0  0  0  0  0  0  0  0  0
  -11.5784   20.0525  -16.7741 F   0  0  0  0  0  0  0  0  0  0  0  0
   -9.3322   20.7656  -17.2927 C   0  0  0  0  0  0  0  0  0  0  0  0
   -7.0793   24.1382  -13.7585 C   0  0  0  0  0  0  0  0  0  0  0  0
   -8.3237   24.5119  -13.3100 C   0  0  0  0  0  0  0  0  0  0  0  0
   -8.3146   24.5177  -11.9440 N   0  0  0  0  0  0  0  0  0  0  0  0
   -9.4790   24.8737  -11.1209 C   0  0  0  0  0  0  0  0  0  0  0  0
   -7.1058   24.1597  -11.5673 N   0  0  0  0  0  0  0  0  0  0  0  0
   -6.3132   23.9171  -12.6476 C   0  0  0  0  0  0  0  0  0  0  0  0
   -4.8728   23.4983  -12.5797 C   0  0  0  0  0  0  0  0  0  0  0  0
 20 21  1  0  0  0
 21 12  1  0  0  0
 12 13  2  0  0  0
 13 14  1  0  0  0
 14 22  1  0  0  0
 22 23  1  0  0  0
 14 15  2  0  0  0
 15 16  1  0  0  0
 15 17  1  0  0  0
 17  1  1  0  0  0
  1  2  1  0  0  0
  2  3  1  0  0  0
  3  4  2  0  0  0
  4  5  1  0  0  0
  5  6  2  0  0  0
  6  7  1  0  0  0
  7  8  2  0  0  0
  8  9  1  0  0  0
  9 10  1  0  0  0
 10 11  2  0  0  0
  9 24  1  0  0  0
 24 25  2  0  0  0
 25 26  1  0  0  0
 26 27  1  0  0  0
 26 28  2  0  0  0
 28 29  1  0  0  0
 29 30  1  0  0  0
 29 31  2  0  0  0
  6 32  1  0  0  0
 32 33  2  0  0  0
 33 34  1  0  0  0
 34 35  1  0  0  0
 34 36  1  0  0  0
 36 37  2  0  0  0
 37 38  1  0  0  0
 17 18  2  0  0  0
 18 19  1  0  0  0
 18 12  1  0  0  0
 10  1  1  0  0  0
 31 24  1  0  0  0
 37 32  1  0  0  0
  8  3  1  0  0  0
M  END
> <minimizedAffinity>
-6.03081

> <CNNscore>
0.2156454325

> <CNNaffinity>
6.4004073143

> <CNN_VS>
1.3802186251

> <CNNaffinity_variance>
0.0093698334

$$$$
[H]c1nc(-c2c(C([H])([H])[H])nn(C([H])([H])[H])c2[H])c([H])c2c1C([H])([H])N(c1c(F)c(OC([H])([H])[H])c([H])c(OC([H])([H])[H])c1F)C(=O)N2c1c([H])c(F)c([H])c(F)c1[H]


 38 42  0  0  0  0  0  0  0  0999 V2000
   -0.5809   21.4924  -20.7759 N   0  0  0  0  0  0  0  0  0  0  0  0
    0.2058   21.3369  -21.9826 C   0  0  0  0  0  0  0  0  0  0  0  0
   -0.4705   21.7487  -23.2076 C   0  0  0  0  0  0  0  0  0  0  0  0
    0.2585   21.6937  -24.3829 C   0  0  0  0  0  0  0  0  0  0  0  0
   -0.3050   22.0372  -25.5426 N   0  0  0  0  0  0  0  0  0  0  0  0
   -1.5806   22.4464  -25.6356 C   0  0  0  0  0  0  0  0  0  0  0  0
   -2.3136   22.5020  -24.4529 C   0  0  0  0  0  0  0  0  0  0  0  0
   -1.7648   22.1576  -23.2574 C   0  0  0  0  0  0  0  0  0  0  0  0
   -2.5633   22.2548  -22.0636 N   0  0  0  0  0  0  0  0  0  0  0  0
   -1.9371   21.9108  -20.8259 C   0  0  0  0  0  0  0  0  0  0  0  0
   -2.6027   21.9803  -19.7516 O   0  0  0  0  0  0  0  0  0  0  0  0
    1.3129   21.8783  -17.6211 C   0  0  0  0  0  0  0  0  0  0  0  0
    1.3970   20.5542  -17.2541 C   0  0  0  0  0  0  0  0  0  0  0  0
    0.8683   19.5216  -17.9949 C   0  0  0  0  0  0  0  0  0  0  0  0
    0.2249   19.8926  -19.1688 C   0  0  0  0  0  0  0  0  0  0  0  0
   -0.3160   18.9345  -19.9463 F   0  0  0  0  0  0  0  0  0  0  0  0
    0.1235   21.2072  -19.5626 C   0  0  0  0  0  0  0  0  0  0  0  0
    0.6620   22.2172  -18.8018 C   0  0  0  0  0  0  0  0  0  0  0  0
    0.5842   23.5231  -19.1590 F   0  0  0  0  0  0  0  0  0  0  0  0
    3.1654   23.3346  -17.1981 C   0  0  0  0  0  0  0  0  0  0  0  0
    1.8618   22.9116  -16.8441 O   0  0  0  0  0  0  0  0  0  0  0  0
    0.9632   18.1879  -17.6083 O   0  0  0  0  0  0  0  0  0  0  0  0
   -0.0847   17.6568  -16.8215 C   0  0  0  0  0  0  0  0  0  0  0  0
   -3.9206   22.6786  -22.1503 C   0  0  0  0  0  0  0  0  0  0  0  0
   -4.3295   23.9533  -21.8462 C   0  0  0  0  0  0  0  0  0  0  0  0
   -5.6486   24.2976  -21.9356 C   0  0  0  0  0  0  0  0  0  0  0  0
   -6.0936   25.5653  -21.6324 F   0  0  0  0  0  0  0  0  0  0  0  0
   -6.5643   23.3336  -22.3396 C   0  0  0  0  0  0  0  0  0  0  0  0
   -6.2124   22.0420  -22.6578 C   0  0  0  0  0  0  0  0  0  0  0  0
   -7.1194   21.1034  -23.0511 F   0  0  0  0  0  0  0  0  0  0  0  0
   -4.8525   21.7577  -22.5455 C   0  0  0  0  0  0  0  0  0  0  0  0
   -2.2146   22.8078  -26.8828 C   0  0  0  0  0  0  0  0  0  0  0  0
   -3.5674   22.9108  -27.1033 C   0  0  0  0  0  0  0  0  0  0  0  0
   -3.7742   23.2640  -28.4067 N   0  0  0  0  0  0  0  0  0  0  0  0
   -5.1052   23.4611  -28.9982 C   0  0  0  0  0  0  0  0  0  0  0  0
   -2.5886   23.3741  -28.9665 N   0  0  0  0  0  0  0  0  0  0  0  0
   -1.6013   23.1028  -28.0689 C   0  0  0  0  0  0  0  0  0  0  0  0
   -0.1316   23.1261  -28.3752 C   0  0  0  0  0  0  0  0  0  0  0  0
 20 21  1  0  0  0
 21 12  1  0  0  0
 12 13  2  0  0  0
 13 14  1  0  0  0
 14 22  1  0  0  0
 22 23  1  0  0  0
 14 15  2  0  0  0
 15 16  1  0  0  0
 15 17  1  0  0  0
 17  1  1  0  0  0
  1  2  1  0  0  0
  2  3  1  0  0  0
  3  4  2  0  0  0
  4  5  1  0  0  0
  5  6  2  0  0  0
  6  7  1  0  0  0
  7  8  2  0  0  0
  8  9  1  0  0  0
  9 10  1  0  0  0
 10 11  2  0  0  0
  9 24  1  0  0  0
 24 25  2  0  0  0
 25 26  1  0  0  0
 26 27  1  0  0  0
 26 28  2  0  0  0
 28 29  1  0  0  0
 29 30  1  0  0  0
 29 31  2  0  0  0
  6 32  1  0  0  0
 32 33  2  0  0  0
 33 34  1  0  0  0
 34 35  1  0  0  0
 34 36  1  0  0  0
 36 37  2  0  0  0
 37 38  1  0  0  0
 17 18  2  0  0  0
 18 19  1  0  0  0
 18 12  1  0  0  0
 10  1  1  0  0  0
 31 24  1  0  0  0
 37 32  1  0  0  0
  8  3  1  0  0  0
M  END
> <minimizedAffinity>
-8.43608

> <CNNscore>
0.1909462810

> <CNNaffinity>
7.3250427246

> <CNN_VS>
1.3986896276

> <CNNaffinity_variance>
0.0355439037

$$$$
[H]c1nc(-c2c(C([H])([H])[H])nn(C([H])([H])[H])c2[H])c([H])c2c1C([H])([H])N(c1c(F)c(OC([H])([H])[H])c([H])c(OC([H])([H])[H])c1F)C(=O)N2c1c([H])c(F)c([H])c(F)c1[H]


 38 42  0  0  0  0  0  0  0  0999 V2000
   -0.4987   21.4127  -20.7471 N   0  0  0  0  0  0  0  0  0  0  0  0
    0.2739   21.2960  -21.9671 C   0  0  0  0  0  0  0  0  0  0  0  0
   -0.4360   21.6940  -23.1776 C   0  0  0  0  0  0  0  0  0  0  0  0
    0.2758   21.6754  -24.3646 C   0  0  0  0  0  0  0  0  0  0  0  0
   -0.3179   22.0085  -25.5122 N   0  0  0  0  0  0  0  0  0  0  0  0
   -1.6086   22.3724  -25.5816 C   0  0  0  0  0  0  0  0  0  0  0  0
   -2.3243   22.3914  -24.3872 C   0  0  0  0  0  0  0  0  0  0  0  0
   -1.7447   22.0565  -23.2036 C   0  0  0  0  0  0  0  0  0  0  0  0
   -2.5272   22.1146  -21.9967 N   0  0  0  0  0  0  0  0  0  0  0  0
   -1.8696   21.7826  -20.7722 C   0  0  0  0  0  0  0  0  0  0  0  0
   -2.5202   21.8187  -19.6870 O   0  0  0  0  0  0  0  0  0  0  0  0
    1.4673   21.8374  -17.6418 C   0  0  0  0  0  0  0  0  0  0  0  0
    1.5632   20.5177  -17.2624 C   0  0  0  0  0  0  0  0  0  0  0  0
    1.0199   19.4758  -17.9793 C   0  0  0  0  0  0  0  0  0  0  0  0
    0.3484   19.8325  -19.1417 C   0  0  0  0  0  0  0  0  0  0  0  0
   -0.2082   18.8647  -19.8959 F   0  0  0  0  0  0  0  0  0  0  0  0
    0.2345   21.1424  -19.5475 C   0  0  0  0  0  0  0  0  0  0  0  0
    0.7882   22.1620  -18.8105 C   0  0  0  0  0  0  0  0  0  0  0  0
    0.6988   23.4636  -19.1802 F   0  0  0  0  0  0  0  0  0  0  0  0
    3.3375   23.2823  -17.2592 C   0  0  0  0  0  0  0  0  0  0  0  0
    2.0317   22.8805  -16.8891 O   0  0  0  0  0  0  0  0  0  0  0  0
    1.1272   18.1467  -17.5804 O   0  0  0  0  0  0  0  0  0  0  0  0
    0.0981   17.6213  -16.7654 C   0  0  0  0  0  0  0  0  0  0  0  0
   -3.9000   22.4901  -22.0585 C   0  0  0  0  0  0  0  0  0  0  0  0
   -4.8960   21.6308  -22.4514 C   0  0  0  0  0  0  0  0  0  0  0  0
   -6.1943   22.0528  -22.5035 C   0  0  0  0  0  0  0  0  0  0  0  0
   -7.2168   21.2189  -22.8986 F   0  0  0  0  0  0  0  0  0  0  0  0
   -6.4844   23.3654  -22.1514 C   0  0  0  0  0  0  0  0  0  0  0  0
   -5.5287   24.2698  -21.7493 C   0  0  0  0  0  0  0  0  0  0  0  0
   -5.8240   25.5561  -21.4081 F   0  0  0  0  0  0  0  0  0  0  0  0
   -4.2259   23.7749  -21.7184 C   0  0  0  0  0  0  0  0  0  0  0  0
   -2.2748   22.7217  -26.8155 C   0  0  0  0  0  0  0  0  0  0  0  0
   -3.6331   22.8153  -27.0037 C   0  0  0  0  0  0  0  0  0  0  0  0
   -3.8735   23.1585  -28.3040 N   0  0  0  0  0  0  0  0  0  0  0  0
   -5.2196   23.3439  -28.8644 C   0  0  0  0  0  0  0  0  0  0  0  0
   -2.7025   23.2716  -28.8932 N   0  0  0  0  0  0  0  0  0  0  0  0
   -1.6922   23.0121  -28.0180 C   0  0  0  0  0  0  0  0  0  0  0  0
   -0.2304   23.0418  -28.3601 C   0  0  0  0  0  0  0  0  0  0  0  0
 20 21  1  0  0  0
 21 12  1  0  0  0
 12 13  2  0  0  0
 13 14  1  0  0  0
 14 22  1  0  0  0
 22 23  1  0  0  0
 14 15  2  0  0  0
 15 16  1  0  0  0
 15 17  1  0  0  0
 17  1  1  0  0  0
  1  2  1  0  0  0
  2  3  1  0  0  0
  3  4  2  0  0  0
  4  5  1  0  0  0
  5  6  2  0  0  0
  6  7  1  0  0  0
  7  8  2  0  0  0
  8  9  1  0  0  0
  9 10  1  0  0  0
 10 11  2  0  0  0
  9 24  1  0  0  0
 24 25  2  0  0  0
 25 26  1  0  0  0
 26 27  1  0  0  0
 26 28  2  0  0  0
 28 29  1  0  0  0
 29 30  1  0  0  0
 29 31  2  0  0  0
  6 32  1  0  0  0
 32 33  2  0  0  0
 33 34  1  0  0  0
 34 35  1  0  0  0
 34 36  1  0  0  0
 36 37  2  0  0  0
 37 38  1  0  0  0
 17 18  2  0  0  0
 18 19  1  0  0  0
 18 12  1  0  0  0
 10  1  1  0  0  0
 31 24  1  0  0  0
 37 32  1  0  0  0
  8  3  1  0  0  0
M  END
> <minimizedAffinity>
-8.46071

> <CNNscore>
0.1793282181

> <CNNaffinity>
7.2954530716

> <CNN_VS>
1.3082805872

> <CNNaffinity_variance>
0.0372647494

$$$$
[H]c1nc(-c2c(C([H])([H])[H])nn(C([H])([H])[H])c2[H])c([H])c2c1C([H])([H])N(c1c(F)c(OC([H])([H])[H])c([H])c(OC([H])([H])[H])c1F)C(=O)N2c1c([H])c(F)c([H])c(F)c1[H]


 38 42  0  0  0  0  0  0  0  0999 V2000
   -0.4571   21.3007  -20.7121 N   0  0  0  0  0  0  0  0  0  0  0  0
    0.3223   21.2116  -21.9301 C   0  0  0  0  0  0  0  0  0  0  0  0
   -0.3807   21.6372  -23.1352 C   0  0  0  0  0  0  0  0  0  0  0  0
    0.3379   21.6455  -24.3183 C   0  0  0  0  0  0  0  0  0  0  0  0
   -0.2493   22.0048  -25.4613 N   0  0  0  0  0  0  0  0  0  0  0  0
   -1.5396   22.3705  -25.5297 C   0  0  0  0  0  0  0  0  0  0  0  0
   -2.2621   22.3624  -24.3392 C   0  0  0  0  0  0  0  0  0  0  0  0
   -1.6892   22.0005  -23.1603 C   0  0  0  0  0  0  0  0  0  0  0  0
   -2.4784   22.0312  -21.9569 N   0  0  0  0  0  0  0  0  0  0  0  0
   -1.8278   21.6712  -20.7365 C   0  0  0  0  0  0  0  0  0  0  0  0
   -2.4845   21.6828  -19.6545 O   0  0  0  0  0  0  0  0  0  0  0  0
    1.1710   19.4797  -17.9333 C   0  0  0  0  0  0  0  0  0  0  0  0
    1.7074   20.5510  -17.2554 C   0  0  0  0  0  0  0  0  0  0  0  0
    1.5589   21.8596  -17.6557 C   0  0  0  0  0  0  0  0  0  0  0  0
    0.8177   22.0527  -18.8144 C   0  0  0  0  0  0  0  0  0  0  0  0
    0.6293   23.3081  -19.2659 F   0  0  0  0  0  0  0  0  0  0  0  0
    0.2694   21.0029  -19.5149 C   0  0  0  0  0  0  0  0  0  0  0  0
    0.4343   19.7061  -19.0903 C   0  0  0  0  0  0  0  0  0  0  0  0
   -0.0932   18.6469  -19.7526 F   0  0  0  0  0  0  0  0  0  0  0  0
    2.5102   17.4952  -17.9480 C   0  0  0  0  0  0  0  0  0  0  0  0
    1.3397   18.1539  -17.5011 O   0  0  0  0  0  0  0  0  0  0  0  0
    2.1083   22.9307  -16.9571 O   0  0  0  0  0  0  0  0  0  0  0  0
    3.3147   23.4832  -17.4459 C   0  0  0  0  0  0  0  0  0  0  0  0
   -3.8508   22.4082  -22.0178 C   0  0  0  0  0  0  0  0  0  0  0  0
   -4.8401   21.5697  -22.4682 C   0  0  0  0  0  0  0  0  0  0  0  0
   -6.1383   21.9927  -22.5161 C   0  0  0  0  0  0  0  0  0  0  0  0
   -7.1540   21.1795  -22.9679 F   0  0  0  0  0  0  0  0  0  0  0  0
   -6.4351   23.2850  -22.1004 C   0  0  0  0  0  0  0  0  0  0  0  0
   -5.4863   24.1681  -21.6390 C   0  0  0  0  0  0  0  0  0  0  0  0
   -5.7882   25.4348  -21.2357 F   0  0  0  0  0  0  0  0  0  0  0  0
   -4.1834   23.6734  -21.6161 C   0  0  0  0  0  0  0  0  0  0  0  0
   -2.1988   22.7479  -26.7590 C   0  0  0  0  0  0  0  0  0  0  0  0
   -3.5548   22.8750  -26.9446 C   0  0  0  0  0  0  0  0  0  0  0  0
   -3.7886   23.2371  -28.2409 N   0  0  0  0  0  0  0  0  0  0  0  0
   -5.1305   23.4594  -28.7976 C   0  0  0  0  0  0  0  0  0  0  0  0
   -2.6158   23.3292  -28.8304 N   0  0  0  0  0  0  0  0  0  0  0  0
   -1.6109   23.0372  -27.9593 C   0  0  0  0  0  0  0  0  0  0  0  0
   -0.1492   23.0366  -28.3028 C   0  0  0  0  0  0  0  0  0  0  0  0
 20 21  1  0  0  0
 21 12  1  0  0  0
 12 13  2  0  0  0
 13 14  1  0  0  0
 14 22  1  0  0  0
 22 23  1  0  0  0
 14 15  2  0  0  0
 15 16  1  0  0  0
 15 17  1  0  0  0
 17  1  1  0  0  0
  1  2  1  0  0  0
  2  3  1  0  0  0
  3  4  2  0  0  0
  4  5  1  0  0  0
  5  6  2  0  0  0
  6  7  1  0  0  0
  7  8  2  0  0  0
  8  9  1  0  0  0
  9 10  1  0  0  0
 10 11  2  0  0  0
  9 24  1  0  0  0
 24 25  2  0  0  0
 25 26  1  0  0  0
 26 27  1  0  0  0
 26 28  2  0  0  0
 28 29  1  0  0  0
 29 30  1  0  0  0
 29 31  2  0  0  0
  6 32  1  0  0  0
 32 33  2  0  0  0
 33 34  1  0  0  0
 34 35  1  0  0  0
 34 36  1  0  0  0
 36 37  2  0  0  0
 37 38  1  0  0  0
 17 18  2  0  0  0
 18 19  1  0  0  0
 18 12  1  0  0  0
 10  1  1  0  0  0
 31 24  1  0  0  0
 37 32  1  0  0  0
  8  3  1  0  0  0
M  END
> <minimizedAffinity>
-8.48694

> <CNNscore>
0.1782834679

> <CNNaffinity>
7.2579398155

> <CNN_VS>
1.2939707041

> <CNNaffinity_variance>
0.0341952555

$$$$
[H]c1nc(-c2c(C([H])([H])[H])nn(C([H])([H])[H])c2[H])c([H])c2c1C([H])([H])N(c1c(F)c(OC([H])([H])[H])c([H])c(OC([H])([H])[H])c1F)C(=O)N2c1c([H])c(F)c([H])c(F)c1[H]


 38 42  0  0  0  0  0  0  0  0999 V2000
    0.5696   21.6339  -17.5269 N   0  0  0  0  0  0  0  0  0  0  0  0
   -0.2410   22.6295  -18.1981 C   0  0  0  0  0  0  0  0  0  0  0  0
   -0.3772   22.4343  -19.6372 C   0  0  0  0  0  0  0  0  0  0  0  0
   -1.2019   23.3113  -20.3203 C   0  0  0  0  0  0  0  0  0  0  0  0
   -1.3559   23.2020  -21.6412 N   0  0  0  0  0  0  0  0  0  0  0  0
   -0.7355   22.2582  -22.3675 C   0  0  0  0  0  0  0  0  0  0  0  0
    0.0938   21.3758  -21.6799 C   0  0  0  0  0  0  0  0  0  0  0  0
    0.2692   21.4643  -20.3344 C   0  0  0  0  0  0  0  0  0  0  0  0
    1.1218   20.5117  -19.6728 N   0  0  0  0  0  0  0  0  0  0  0  0
    1.2540   20.6243  -18.2543 C   0  0  0  0  0  0  0  0  0  0  0  0
    1.9950   19.8085  -17.6319 O   0  0  0  0  0  0  0  0  0  0  0  0
   -0.2540   21.2790  -13.9374 C   0  0  0  0  0  0  0  0  0  0  0  0
    0.7876   22.0026  -13.4023 C   0  0  0  0  0  0  0  0  0  0  0  0
    1.7578   22.6186  -14.1598 C   0  0  0  0  0  0  0  0  0  0  0  0
    1.6306   22.4697  -15.5350 C   0  0  0  0  0  0  0  0  0  0  0  0
    2.5436   23.0470  -16.3403 F   0  0  0  0  0  0  0  0  0  0  0  0
    0.6016   21.7522  -16.1004 C   0  0  0  0  0  0  0  0  0  0  0  0
   -0.3533   21.1481  -15.3178 C   0  0  0  0  0  0  0  0  0  0  0  0
   -1.3827   20.4358  -15.8392 F   0  0  0  0  0  0  0  0  0  0  0  0
   -2.3076   21.4784  -12.7230 C   0  0  0  0  0  0  0  0  0  0  0  0
   -1.2299   20.6603  -13.1388 O   0  0  0  0  0  0  0  0  0  0  0  0
    2.8041   23.3468  -13.6012 O   0  0  0  0  0  0  0  0  0  0  0  0
    2.5515   24.0370  -12.3932 C   0  0  0  0  0  0  0  0  0  0  0  0
    1.7929   19.5116  -20.4335 C   0  0  0  0  0  0  0  0  0  0  0  0
    1.2841   18.2520  -20.6316 C   0  0  0  0  0  0  0  0  0  0  0  0
    1.9808   17.3301  -21.3603 C   0  0  0  0  0  0  0  0  0  0  0  0
    1.5024   16.0562  -21.5732 F   0  0  0  0  0  0  0  0  0  0  0  0
    3.2109   17.6931  -21.8951 C   0  0  0  0  0  0  0  0  0  0  0  0
    3.7694   18.9398  -21.7304 C   0  0  0  0  0  0  0  0  0  0  0  0
    4.9782   19.2848  -22.2578 F   0  0  0  0  0  0  0  0  0  0  0  0
    3.0072   19.8314  -20.9774 C   0  0  0  0  0  0  0  0  0  0  0  0
   -0.8761   22.1320  -23.8002 C   0  0  0  0  0  0  0  0  0  0  0  0
    0.1090   22.3529  -24.7329 C   0  0  0  0  0  0  0  0  0  0  0  0
   -0.4104   22.1415  -25.9787 N   0  0  0  0  0  0  0  0  0  0  0  0
    0.3605   22.2902  -27.2211 C   0  0  0  0  0  0  0  0  0  0  0  0
   -1.6712   21.8022  -25.8156 N   0  0  0  0  0  0  0  0  0  0  0  0
   -2.0014   21.7836  -24.4947 C   0  0  0  0  0  0  0  0  0  0  0  0
   -3.3612   21.4479  -23.9538 C   0  0  0  0  0  0  0  0  0  0  0  0
 20 21  1  0  0  0
 21 12  1  0  0  0
 12 13  2  0  0  0
 13 14  1  0  0  0
 14 22  1  0  0  0
 22 23  1  0  0  0
 14 15  2  0  0  0
 15 16  1  0  0  0
 15 17  1  0  0  0
 17  1  1  0  0  0
  1  2  1  0  0  0
  2  3  1  0  0  0
  3  4  2  0  0  0
  4  5  1  0  0  0
  5  6  2  0  0  0
  6  7  1  0  0  0
  7  8  2  0  0  0
  8  9  1  0  0  0
  9 10  1  0  0  0
 10 11  2  0  0  0
  9 24  1  0  0  0
 24 25  2  0  0  0
 25 26  1  0  0  0
 26 27  1  0  0  0
 26 28  2  0  0  0
 28 29  1  0  0  0
 29 30  1  0  0  0
 29 31  2  0  0  0
  6 32  1  0  0  0
 32 33  2  0  0  0
 33 34  1  0  0  0
 34 35  1  0  0  0
 34 36  1  0  0  0
 36 37  2  0  0  0
 37 38  1  0  0  0
 17 18  2  0  0  0
 18 19  1  0  0  0
 18 12  1  0  0  0
 10  1  1  0  0  0
 31 24  1  0  0  0
 37 32  1  0  0  0
  8  3  1  0  0  0
M  END
> <minimizedAffinity>
-6.99511

> <CNNscore>
0.1594626158

> <CNNaffinity>
6.2650823593

> <CNN_VS>
0.9990464449

> <CNNaffinity_variance>
0.1869887263

$$$$
[H]c1nc(-c2c(C([H])([H])[H])nn(C([H])([H])[H])c2[H])c([H])c2c1C([H])([H])N(c1c(F)c(OC([H])([H])[H])c([H])c(OC([H])([H])[H])c1F)C(=O)N2c1c([H])c(F)c([H])c(F)c1[H]


 38 42  0  0  0  0  0  0  0  0999 V2000
    0.7170   21.7410  -17.5391 N   0  0  0  0  0  0  0  0  0  0  0  0
   -0.1359   22.7034  -18.2064 C   0  0  0  0  0  0  0  0  0  0  0  0
   -0.2923   22.4868  -19.6404 C   0  0  0  0  0  0  0  0  0  0  0  0
   -1.1559   23.3301  -20.3180 C   0  0  0  0  0  0  0  0  0  0  0  0
   -1.3305   23.2003  -21.6345 N   0  0  0  0  0  0  0  0  0  0  0  0
   -0.6948   22.2673  -22.3615 C   0  0  0  0  0  0  0  0  0  0  0  0
    0.1736   21.4189  -21.6794 C   0  0  0  0  0  0  0  0  0  0  0  0
    0.3707   21.5288  -20.3385 C   0  0  0  0  0  0  0  0  0  0  0  0
    1.2641   20.6106  -19.6820 N   0  0  0  0  0  0  0  0  0  0  0  0
    1.4187   20.7441  -18.2676 C   0  0  0  0  0  0  0  0  0  0  0  0
    2.1957   19.9588  -17.6498 O   0  0  0  0  0  0  0  0  0  0  0  0
    1.7528   22.7212  -14.1252 C   0  0  0  0  0  0  0  0  0  0  0  0
    0.7487   22.1100  -13.4089 C   0  0  0  0  0  0  0  0  0  0  0  0
   -0.2622   21.3752  -13.9858 C   0  0  0  0  0  0  0  0  0  0  0  0
   -0.2184   21.2774  -15.3707 C   0  0  0  0  0  0  0  0  0  0  0  0
   -1.1753   20.5719  -16.0048 F   0  0  0  0  0  0  0  0  0  0  0  0
    0.7713   21.8773  -16.1150 C   0  0  0  0  0  0  0  0  0  0  0  0
    1.7685   22.6049  -15.5104 C   0  0  0  0  0  0  0  0  0  0  0  0
    2.7613   23.2076  -16.2104 F   0  0  0  0  0  0  0  0  0  0  0  0
    2.4038   24.1867  -12.3474 C   0  0  0  0  0  0  0  0  0  0  0  0
    2.7718   23.4659  -13.5088 O   0  0  0  0  0  0  0  0  0  0  0  0
   -1.2695   20.7636  -13.2453 O   0  0  0  0  0  0  0  0  0  0  0  0
   -2.4595   21.4953  -13.0266 C   0  0  0  0  0  0  0  0  0  0  0  0
    1.9517   19.6225  -20.4437 C   0  0  0  0  0  0  0  0  0  0  0  0
    3.1711   19.8442  -21.0341 C   0  0  0  0  0  0  0  0  0  0  0  0
    3.7762   18.8610  -21.7645 C   0  0  0  0  0  0  0  0  0  0  0  0
    4.9962   19.0518  -22.3747 F   0  0  0  0  0  0  0  0  0  0  0  0
    3.1337   17.6360  -21.8966 C   0  0  0  0  0  0  0  0  0  0  0  0
    1.9127   17.3567  -21.3270 C   0  0  0  0  0  0  0  0  0  0  0  0
    1.2900   16.1518  -21.4647 F   0  0  0  0  0  0  0  0  0  0  0  0
    1.3512   18.4022  -20.5959 C   0  0  0  0  0  0  0  0  0  0  0  0
   -0.8576   22.1197  -23.7897 C   0  0  0  0  0  0  0  0  0  0  0  0
    0.1178   22.3089  -24.7395 C   0  0  0  0  0  0  0  0  0  0  0  0
   -0.4224   22.0855  -25.9743 N   0  0  0  0  0  0  0  0  0  0  0  0
    0.3333   22.2009  -27.2296 C   0  0  0  0  0  0  0  0  0  0  0  0
   -1.6861   21.7698  -25.7881 N   0  0  0  0  0  0  0  0  0  0  0  0
   -1.9980   21.7785  -24.4627 C   0  0  0  0  0  0  0  0  0  0  0  0
   -3.3554   21.4742  -23.8975 C   0  0  0  0  0  0  0  0  0  0  0  0
 20 21  1  0  0  0
 21 12  1  0  0  0
 12 13  2  0  0  0
 13 14  1  0  0  0
 14 22  1  0  0  0
 22 23  1  0  0  0
 14 15  2  0  0  0
 15 16  1  0  0  0
 15 17  1  0  0  0
 17  1  1  0  0  0
  1  2  1  0  0  0
  2  3  1  0  0  0
  3  4  2  0  0  0
  4  5  1  0  0  0
  5  6  2  0  0  0
  6  7  1  0  0  0
  7  8  2  0  0  0
  8  9  1  0  0  0
  9 10  1  0  0  0
 10 11  2  0  0  0
  9 24  1  0  0  0
 24 25  2  0  0  0
 25 26  1  0  0  0
 26 27  1  0  0  0
 26 28  2  0  0  0
 28 29  1  0  0  0
 29 30  1  0  0  0
 29 31  2  0  0  0
  6 32  1  0  0  0
 32 33  2  0  0  0
 33 34  1  0  0  0
 34 35  1  0  0  0
 34 36  1  0  0  0
 36 37  2  0  0  0
 37 38  1  0  0  0
 17 18  2  0  0  0
 18 19  1  0  0  0
 18 12  1  0  0  0
 10  1  1  0  0  0
 31 24  1  0  0  0
 37 32  1  0  0  0
  8  3  1  0  0  0
M  END
> <minimizedAffinity>
-6.97172

> <CNNscore>
0.1589141041

> <CNNaffinity>
6.3133935928

> <CNN_VS>
1.0032873154

> <CNNaffinity_variance>
0.1567759961

$$$$
[H]c1nc(-c2c(C([H])([H])[H])nn(C([H])([H])[H])c2[H])c([H])c2c1C([H])([H])N(c1c(F)c(OC([H])([H])[H])c([H])c(OC([H])([H])[H])c1F)C(=O)N2c1c([H])c(F)c([H])c(F)c1[H]


 38 42  0  0  0  0  0  0  0  0999 V2000
   -0.7250   21.3987  -20.5246 N   0  0  0  0  0  0  0  0  0  0  0  0
    0.0898   21.2167  -21.7086 C   0  0  0  0  0  0  0  0  0  0  0  0
   -0.5441   21.6346  -22.9541 C   0  0  0  0  0  0  0  0  0  0  0  0
    0.2146   21.5546  -24.1091 C   0  0  0  0  0  0  0  0  0  0  0  0
   -0.3099   21.9021  -25.2858 N   0  0  0  0  0  0  0  0  0  0  0  0
   -1.5730   22.3391  -25.4157 C   0  0  0  0  0  0  0  0  0  0  0  0
   -2.3358   22.4198  -24.2534 C   0  0  0  0  0  0  0  0  0  0  0  0
   -1.8270   22.0720  -23.0414 C   0  0  0  0  0  0  0  0  0  0  0  0
   -2.6546   22.1959  -21.8701 N   0  0  0  0  0  0  0  0  0  0  0  0
   -2.0696   21.8470  -20.6138 C   0  0  0  0  0  0  0  0  0  0  0  0
   -2.7618   21.9393  -19.5582 O   0  0  0  0  0  0  0  0  0  0  0  0
    0.6248   19.6091  -17.5812 C   0  0  0  0  0  0  0  0  0  0  0  0
    1.2753   20.6564  -16.9689 C   0  0  0  0  0  0  0  0  0  0  0  0
    1.2927   21.9398  -17.4661 C   0  0  0  0  0  0  0  0  0  0  0  0
    0.5996   22.1329  -18.6543 C   0  0  0  0  0  0  0  0  0  0  0  0
    0.5718   23.3646  -19.1998 F   0  0  0  0  0  0  0  0  0  0  0  0
   -0.0599   21.1067  -19.2910 C   0  0  0  0  0  0  0  0  0  0  0  0
   -0.0599   19.8348  -18.7698 C   0  0  0  0  0  0  0  0  0  0  0  0
   -0.7005   18.7996  -19.3673 F   0  0  0  0  0  0  0  0  0  0  0  0
   -0.3652   18.0309  -16.0776 C   0  0  0  0  0  0  0  0  0  0  0  0
    0.6248   18.3087  -17.0504 O   0  0  0  0  0  0  0  0  0  0  0  0
    1.9559   22.9868  -16.8329 O   0  0  0  0  0  0  0  0  0  0  0  0
    3.2757   23.2755  -17.2503 C   0  0  0  0  0  0  0  0  0  0  0  0
   -3.9992   22.6493  -21.9960 C   0  0  0  0  0  0  0  0  0  0  0  0
   -4.3822   23.9424  -21.7393 C   0  0  0  0  0  0  0  0  0  0  0  0
   -5.6904   24.3154  -21.8648 C   0  0  0  0  0  0  0  0  0  0  0  0
   -6.1096   25.6023  -21.6096 F   0  0  0  0  0  0  0  0  0  0  0  0
   -6.6220   23.3615  -22.2565 C   0  0  0  0  0  0  0  0  0  0  0  0
   -6.2963   22.0526  -22.5278 C   0  0  0  0  0  0  0  0  0  0  0  0
   -7.2187   21.1242  -22.9093 F   0  0  0  0  0  0  0  0  0  0  0  0
   -4.9461   21.7392  -22.3805 C   0  0  0  0  0  0  0  0  0  0  0  0
   -2.1652   22.7055  -26.6819 C   0  0  0  0  0  0  0  0  0  0  0  0
   -3.5092   22.8307  -26.9410 C   0  0  0  0  0  0  0  0  0  0  0  0
   -3.6731   23.1813  -28.2511 N   0  0  0  0  0  0  0  0  0  0  0  0
   -4.9832   23.3985  -28.8809 C   0  0  0  0  0  0  0  0  0  0  0  0
   -2.4704   23.2683  -28.7777 N   0  0  0  0  0  0  0  0  0  0  0  0
   -1.5137   22.9842  -27.8514 C   0  0  0  0  0  0  0  0  0  0  0  0
   -0.0357   22.9806  -28.1161 C   0  0  0  0  0  0  0  0  0  0  0  0
 20 21  1  0  0  0
 21 12  1  0  0  0
 12 13  2  0  0  0
 13 14  1  0  0  0
 14 22  1  0  0  0
 22 23  1  0  0  0
 14 15  2  0  0  0
 15 16  1  0  0  0
 15 17  1  0  0  0
 17  1  1  0  0  0
  1  2  1  0  0  0
  2  3  1  0  0  0
  3  4  2  0  0  0
  4  5  1  0  0  0
  5  6  2  0  0  0
  6  7  1  0  0  0
  7  8  2  0  0  0
  8  9  1  0  0  0
  9 10  1  0  0  0
 10 11  2  0  0  0
  9 24  1  0  0  0
 24 25  2  0  0  0
 25 26  1  0  0  0
 26 27  1  0  0  0
 26 28  2  0  0  0
 28 29  1  0  0  0
 29 30  1  0  0  0
 29 31  2  0  0  0
  6 32  1  0  0  0
 32 33  2  0  0  0
 33 34  1  0  0  0
 34 35  1  0  0  0
 34 36  1  0  0  0
 36 37  2  0  0  0
 37 38  1  0  0  0
 17 18  2  0  0  0
 18 19  1  0  0  0
 18 12  1  0  0  0
 10  1  1  0  0  0
 31 24  1  0  0  0
 37 32  1  0  0  0
  8  3  1  0  0  0
M  END
> <minimizedAffinity>
-8.34145

> <CNNscore>
0.1584639847

> <CNNaffinity>
7.1793985367

> <CNN_VS>
1.1376761198

> <CNNaffinity_variance>
0.0485724919

$$$$
[H]c1nn(C([H])([H])[H])c([H])c1-c1nc([H])c2c(c1[H])N(c1c([H])c([H])c(C#N)c([H])c1[H])C(=O)N(c1c(F)c(OC([H])([H])[H])c([H])c(OC([H])([H])[H])c1F)C2([H])[H]


 37 41  0  0  0  0  0  0  0  0999 V2000
   -1.2169   21.8857  -23.7042 N   0  0  0  0  0  0  0  0  0  0  0  0
   -0.8341   21.7134  -25.0753 C   0  0  0  0  0  0  0  0  0  0  0  0
   -1.8127   22.3151  -25.9959 C   0  0  0  0  0  0  0  0  0  0  0  0
   -1.5452   22.2450  -27.3780 C   0  0  0  0  0  0  0  0  0  0  0  0
   -2.3965   22.7672  -28.2528 N   0  0  0  0  0  0  0  0  0  0  0  0
   -3.5395   23.3829  -27.9204 C   0  0  0  0  0  0  0  0  0  0  0  0
   -3.8484   23.4788  -26.5863 C   0  0  0  0  0  0  0  0  0  0  0  0
   -2.9723   22.9385  -25.6328 C   0  0  0  0  0  0  0  0  0  0  0  0
   -3.2971   23.0541  -24.2447 N   0  0  0  0  0  0  0  0  0  0  0  0
   -2.4093   22.5224  -23.2960 C   0  0  0  0  0  0  0  0  0  0  0  0
   -2.6617   22.6056  -22.0787 O   0  0  0  0  0  0  0  0  0  0  0  0
    0.1518   20.1528  -20.6806 C   0  0  0  0  0  0  0  0  0  0  0  0
    1.5078   20.3173  -20.8521 C   0  0  0  0  0  0  0  0  0  0  0  0
    1.9798   21.0057  -21.9743 C   0  0  0  0  0  0  0  0  0  0  0  0
    1.0756   21.5046  -22.8843 C   0  0  0  0  0  0  0  0  0  0  0  0
    1.5176   22.1710  -23.9708 F   0  0  0  0  0  0  0  0  0  0  0  0
   -0.2877   21.3527  -22.7348 C   0  0  0  0  0  0  0  0  0  0  0  0
   -0.7279   20.6728  -21.6244 C   0  0  0  0  0  0  0  0  0  0  0  0
   -2.0588   20.5065  -21.4524 F   0  0  0  0  0  0  0  0  0  0  0  0
   -0.6248   20.1600  -18.3881 C   0  0  0  0  0  0  0  0  0  0  0  0
   -0.3155   19.4760  -19.5769 O   0  0  0  0  0  0  0  0  0  0  0  0
    3.3481   21.1474  -22.1069 O   0  0  0  0  0  0  0  0  0  0  0  0
    4.2837   20.2094  -21.6719 C   0  0  0  0  0  0  0  0  0  0  0  0
   -4.5148   23.7078  -23.9046 C   0  0  0  0  0  0  0  0  0  0  0  0
   -5.6666   22.9751  -23.7239 C   0  0  0  0  0  0  0  0  0  0  0  0
   -6.8537   23.6194  -23.3895 C   0  0  0  0  0  0  0  0  0  0  0  0
   -6.8926   24.9888  -23.2356 C   0  0  0  0  0  0  0  0  0  0  0  0
   -5.7413   25.7398  -23.4141 C   0  0  0  0  0  0  0  0  0  0  0  0
   -4.5783   25.0734  -23.7456 C   0  0  0  0  0  0  0  0  0  0  0  0
   -8.1161   25.6675  -22.8895 C   0  0  0  0  0  0  0  0  0  0  0  0
   -9.0972   26.2202  -22.6304 N   0  0  0  0  0  0  0  0  0  0  0  0
   -4.4241   23.9346  -28.9320 C   0  0  0  0  0  0  0  0  0  0  0  0
   -5.5224   23.3362  -29.5099 C   0  0  0  0  0  0  0  0  0  0  0  0
   -6.0158   24.2417  -30.3854 N   0  0  0  0  0  0  0  0  0  0  0  0
   -5.3051   25.3457  -30.3875 N   0  0  0  0  0  0  0  0  0  0  0  0
   -5.5656   26.5120  -31.2090 C   0  0  0  0  0  0  0  0  0  0  0  0
   -4.3027   25.1864  -29.4902 C   0  0  0  0  0  0  0  0  0  0  0  0
 20 21  1  0  0  0
 21 12  1  0  0  0
 12 13  2  0  0  0
 13 14  1  0  0  0
 14 22  1  0  0  0
 22 23  1  0  0  0
 14 15  2  0  0  0
 15 16  1  0  0  0
 15 17  1  0  0  0
 17  1  1  0  0  0
  1  2  1  0  0  0
  2  3  1  0  0  0
  3  4  2  0  0  0
  4  5  1  0  0  0
  5  6  2  0  0  0
  6  7  1  0  0  0
  7  8  2  0  0  0
  8  9  1  0  0  0
  9 10  1  0  0  0
 10 11  2  0  0  0
  9 24  1  0  0  0
 24 25  2  0  0  0
 25 26  1  0  0  0
 26 27  2  0  0  0
 27 28  1  0  0  0
 28 29  2  0  0  0
 27 30  1  0  0  0
 30 31  3  0  0  0
  6 32  1  0  0  0
 32 33  1  0  0  0
 33 34  2  0  0  0
 34 35  1  0  0  0
 35 36  1  0  0  0
 35 37  1  0  0  0
 17 18  2  0  0  0
 18 19  1  0  0  0
 18 12  1  0  0  0
 10  1  1  0  0  0
 29 24  1  0  0  0
 37 32  2  0  0  0
  8  3  1  0  0  0
M  END
> <minimizedAffinity>
-8.71397

> <CNNscore>
0.2352746427

> <CNNaffinity>
7.4665374756

> <CNN_VS>
1.7566869259

> <CNNaffinity_variance>
0.1702784598

$$$$
[H]c1nn(C([H])([H])[H])c([H])c1-c1nc([H])c2c(c1[H])N(c1c([H])c([H])c(C#N)c([H])c1[H])C(=O)N(c1c(F)c(OC([H])([H])[H])c([H])c(OC([H])([H])[H])c1F)C2([H])[H]


 37 41  0  0  0  0  0  0  0  0999 V2000
   -0.0937   21.3481  -20.6792 N   0  0  0  0  0  0  0  0  0  0  0  0
    0.7521   21.1663  -21.8227 C   0  0  0  0  0  0  0  0  0  0  0  0
    0.0891   21.5917  -23.0664 C   0  0  0  0  0  0  0  0  0  0  0  0
    0.8200   21.4953  -24.2676 C   0  0  0  0  0  0  0  0  0  0  0  0
    0.2687   21.8607  -25.4189 N   0  0  0  0  0  0  0  0  0  0  0  0
   -0.9788   22.3345  -25.5430 C   0  0  0  0  0  0  0  0  0  0  0  0
   -1.7348   22.4487  -24.4028 C   0  0  0  0  0  0  0  0  0  0  0  0
   -1.1853   22.0722  -23.1679 C   0  0  0  0  0  0  0  0  0  0  0  0
   -1.9767   22.2062  -21.9841 N   0  0  0  0  0  0  0  0  0  0  0  0
   -1.4156   21.8396  -20.7506 C   0  0  0  0  0  0  0  0  0  0  0  0
   -2.0774   21.9434  -19.7000 O   0  0  0  0  0  0  0  0  0  0  0  0
    1.0576   19.3196  -17.7504 C   0  0  0  0  0  0  0  0  0  0  0  0
    1.6460   20.2793  -16.9578 C   0  0  0  0  0  0  0  0  0  0  0  0
    1.6656   21.6094  -17.3894 C   0  0  0  0  0  0  0  0  0  0  0  0
    1.0944   21.9300  -18.6002 C   0  0  0  0  0  0  0  0  0  0  0  0
    1.1060   23.2093  -19.0280 F   0  0  0  0  0  0  0  0  0  0  0  0
    0.4990   20.9866  -19.4122 C   0  0  0  0  0  0  0  0  0  0  0  0
    0.4919   19.6863  -18.9672 C   0  0  0  0  0  0  0  0  0  0  0  0
   -0.0828   18.7394  -19.7430 F   0  0  0  0  0  0  0  0  0  0  0  0
    1.5688   17.6458  -16.0784 C   0  0  0  0  0  0  0  0  0  0  0  0
    1.0367   18.0098  -17.3278 O   0  0  0  0  0  0  0  0  0  0  0  0
    2.2665   22.5396  -16.5628 O   0  0  0  0  0  0  0  0  0  0  0  0
    3.6218   22.8657  -16.5970 C   0  0  0  0  0  0  0  0  0  0  0  0
   -3.3006   22.7082  -22.1293 C   0  0  0  0  0  0  0  0  0  0  0  0
   -3.5272   24.0663  -22.1519 C   0  0  0  0  0  0  0  0  0  0  0  0
   -4.8234   24.5512  -22.2961 C   0  0  0  0  0  0  0  0  0  0  0  0
   -5.8897   23.6860  -22.4174 C   0  0  0  0  0  0  0  0  0  0  0  0
   -5.6774   22.3164  -22.3966 C   0  0  0  0  0  0  0  0  0  0  0  0
   -4.3808   21.8642  -22.2522 C   0  0  0  0  0  0  0  0  0  0  0  0
   -7.2367   24.1763  -22.5672 C   0  0  0  0  0  0  0  0  0  0  0  0
   -8.3145   24.5799  -22.6701 N   0  0  0  0  0  0  0  0  0  0  0  0
   -1.5175   22.7186  -26.8362 C   0  0  0  0  0  0  0  0  0  0  0  0
   -0.8212   22.9890  -27.9940 C   0  0  0  0  0  0  0  0  0  0  0  0
   -1.7565   23.2952  -28.9220 N   0  0  0  0  0  0  0  0  0  0  0  0
   -2.9689   23.2331  -28.4220 N   0  0  0  0  0  0  0  0  0  0  0  0
   -4.1938   23.5016  -29.1504 C   0  0  0  0  0  0  0  0  0  0  0  0
   -2.8547   22.8753  -27.1203 C   0  0  0  0  0  0  0  0  0  0  0  0
 20 21  1  0  0  0
 21 12  1  0  0  0
 12 13  2  0  0  0
 13 14  1  0  0  0
 14 22  1  0  0  0
 22 23  1  0  0  0
 14 15  2  0  0  0
 15 16  1  0  0  0
 15 17  1  0  0  0
 17  1  1  0  0  0
  1  2  1  0  0  0
  2  3  1  0  0  0
  3  4  2  0  0  0
  4  5  1  0  0  0
  5  6  2  0  0  0
  6  7  1  0  0  0
  7  8  2  0  0  0
  8  9  1  0  0  0
  9 10  1  0  0  0
 10 11  2  0  0  0
  9 24  1  0  0  0
 24 25  2  0  0  0
 25 26  1  0  0  0
 26 27  2  0  0  0
 27 28  1  0  0  0
 28 29  2  0  0  0
 27 30  1  0  0  0
 30 31  3  0  0  0
  6 32  1  0  0  0
 32 33  1  0  0  0
 33 34  2  0  0  0
 34 35  1  0  0  0
 35 36  1  0  0  0
 35 37  1  0  0  0
 17 18  2  0  0  0
 18 19  1  0  0  0
 18 12  1  0  0  0
 10  1  1  0  0  0
 29 24  1  0  0  0
 37 32  2  0  0  0
  8  3  1  0  0  0
M  END
> <minimizedAffinity>
-7.38271

> <CNNscore>
0.2212790549

> <CNNaffinity>
7.0752477646

> <CNN_VS>
1.5656040907

> <CNNaffinity_variance>
0.0282307919

$$$$
[H]c1nn(C([H])([H])[H])c([H])c1-c1nc([H])c2c(c1[H])N(c1c([H])c([H])c(C#N)c([H])c1[H])C(=O)N(c1c(F)c(OC([H])([H])[H])c([H])c(OC([H])([H])[H])c1F)C2([H])[H]


 37 41  0  0  0  0  0  0  0  0999 V2000
   -2.4296   23.1020  -24.7171 N   0  0  0  0  0  0  0  0  0  0  0  0
   -1.1628   22.7195  -25.2696 C   0  0  0  0  0  0  0  0  0  0  0  0
   -0.2741   22.1395  -24.2493 C   0  0  0  0  0  0  0  0  0  0  0  0
    0.9968   21.6914  -24.6621 C   0  0  0  0  0  0  0  0  0  0  0  0
    1.8401   21.1643  -23.7823 N   0  0  0  0  0  0  0  0  0  0  0  0
    1.5753   21.0150  -22.4770 C   0  0  0  0  0  0  0  0  0  0  0  0
    0.3503   21.4355  -22.0219 C   0  0  0  0  0  0  0  0  0  0  0  0
   -0.5668   21.9974  -22.9229 C   0  0  0  0  0  0  0  0  0  0  0  0
   -1.8450   22.4215  -22.4412 N   0  0  0  0  0  0  0  0  0  0  0  0
   -2.7621   22.9709  -23.3510 C   0  0  0  0  0  0  0  0  0  0  0  0
   -3.8843   23.3506  -22.9649 O   0  0  0  0  0  0  0  0  0  0  0  0
   -4.8450   25.4311  -26.3783 C   0  0  0  0  0  0  0  0  0  0  0  0
   -5.2044   24.7126  -27.4963 C   0  0  0  0  0  0  0  0  0  0  0  0
   -4.6474   23.4475  -27.7083 C   0  0  0  0  0  0  0  0  0  0  0  0
   -3.7500   22.9477  -26.7920 C   0  0  0  0  0  0  0  0  0  0  0  0
   -3.2057   21.7285  -26.9844 F   0  0  0  0  0  0  0  0  0  0  0  0
   -3.3738   23.6482  -25.6643 C   0  0  0  0  0  0  0  0  0  0  0  0
   -3.9343   24.8891  -25.4772 C   0  0  0  0  0  0  0  0  0  0  0  0
   -3.5828   25.5999  -24.3818 F   0  0  0  0  0  0  0  0  0  0  0  0
   -6.1491   26.9460  -25.0134 C   0  0  0  0  0  0  0  0  0  0  0  0
   -5.3919   26.6764  -26.1670 O   0  0  0  0  0  0  0  0  0  0  0  0
   -5.0361   22.7613  -28.8433 O   0  0  0  0  0  0  0  0  0  0  0  0
   -5.4797   23.3677  -30.0179 C   0  0  0  0  0  0  0  0  0  0  0  0
   -2.1133   22.2598  -21.0528 C   0  0  0  0  0  0  0  0  0  0  0  0
   -1.4274   23.0097  -20.1235 C   0  0  0  0  0  0  0  0  0  0  0  0
   -1.6953   22.8488  -18.7676 C   0  0  0  0  0  0  0  0  0  0  0  0
   -2.6433   21.9441  -18.3394 C   0  0  0  0  0  0  0  0  0  0  0  0
   -3.3419   21.1823  -19.2630 C   0  0  0  0  0  0  0  0  0  0  0  0
   -3.0549   21.3633  -20.6014 C   0  0  0  0  0  0  0  0  0  0  0  0
   -2.9296   21.7686  -16.9379 C   0  0  0  0  0  0  0  0  0  0  0  0
   -3.1575   21.6478  -15.8115 N   0  0  0  0  0  0  0  0  0  0  0  0
    2.5456   20.4264  -21.5703 C   0  0  0  0  0  0  0  0  0  0  0  0
    2.6517   19.1069  -21.1881 C   0  0  0  0  0  0  0  0  0  0  0  0
    3.7047   19.0535  -20.3406 N   0  0  0  0  0  0  0  0  0  0  0  0
    4.2498   20.2365  -20.1754 N   0  0  0  0  0  0  0  0  0  0  0  0
    5.3949   20.5247  -19.3335 C   0  0  0  0  0  0  0  0  0  0  0  0
    3.5491   21.1168  -20.9301 C   0  0  0  0  0  0  0  0  0  0  0  0
 20 21  1  0  0  0
 21 12  1  0  0  0
 12 13  2  0  0  0
 13 14  1  0  0  0
 14 22  1  0  0  0
 22 23  1  0  0  0
 14 15  2  0  0  0
 15 16  1  0  0  0
 15 17  1  0  0  0
 17  1  1  0  0  0
  1  2  1  0  0  0
  2  3  1  0  0  0
  3  4  2  0  0  0
  4  5  1  0  0  0
  5  6  2  0  0  0
  6  7  1  0  0  0
  7  8  2  0  0  0
  8  9  1  0  0  0
  9 10  1  0  0  0
 10 11  2  0  0  0
  9 24  1  0  0  0
 24 25  2  0  0  0
 25 26  1  0  0  0
 26 27  2  0  0  0
 27 28  1  0  0  0
 28 29  2  0  0  0
 27 30  1  0  0  0
 30 31  3  0  0  0
  6 32  1  0  0  0
 32 33  1  0  0  0
 33 34  2  0  0  0
 34 35  1  0  0  0
 35 36  1  0  0  0
 35 37  1  0  0  0
 17 18  2  0  0  0
 18 19  1  0  0  0
 18 12  1  0  0  0
 10  1  1  0  0  0
 29 24  1  0  0  0
 37 32  2  0  0  0
  8  3  1  0  0  0
M  END
> <minimizedAffinity>
-7.48415

> <CNNscore>
0.1298492849

> <CNNaffinity>
6.9105787277

> <CNN_VS>
0.8973336816

> <CNNaffinity_variance>
0.1589142680

$$$$
[H]c1nn(C([H])([H])[H])c([H])c1-c1nc([H])c2c(c1[H])N(c1c([H])c([H])c(C#N)c([H])c1[H])C(=O)N(c1c(F)c(OC([H])([H])[H])c([H])c(OC([H])([H])[H])c1F)C2([H])[H]


 37 41  0  0  0  0  0  0  0  0999 V2000
   -0.8603   21.6070  -21.4952 N   0  0  0  0  0  0  0  0  0  0  0  0
   -0.2025   21.5667  -22.7688 C   0  0  0  0  0  0  0  0  0  0  0  0
   -1.0652   22.0790  -23.8461 C   0  0  0  0  0  0  0  0  0  0  0  0
   -0.5322   22.1244  -25.1501 C   0  0  0  0  0  0  0  0  0  0  0  0
   -1.2684   22.5730  -26.1599 N   0  0  0  0  0  0  0  0  0  0  0  0
   -2.5313   23.0058  -26.0410 C   0  0  0  0  0  0  0  0  0  0  0  0
   -3.0991   22.9828  -24.7914 C   0  0  0  0  0  0  0  0  0  0  0  0
   -2.3511   22.5153  -23.7002 C   0  0  0  0  0  0  0  0  0  0  0  0
   -2.9475   22.5065  -22.4002 N   0  0  0  0  0  0  0  0  0  0  0  0
   -2.1886   22.0494  -21.3113 C   0  0  0  0  0  0  0  0  0  0  0  0
   -2.6774   22.0283  -20.1653 O   0  0  0  0  0  0  0  0  0  0  0  0
    1.1667   21.6146  -18.3472 C   0  0  0  0  0  0  0  0  0  0  0  0
    1.4769   20.2804  -18.2096 C   0  0  0  0  0  0  0  0  0  0  0  0
    1.0153   19.3659  -19.1617 C   0  0  0  0  0  0  0  0  0  0  0  0
    0.2593   19.8216  -20.2179 C   0  0  0  0  0  0  0  0  0  0  0  0
   -0.1918   18.9501  -21.1435 F   0  0  0  0  0  0  0  0  0  0  0  0
   -0.0649   21.1532  -20.3778 C   0  0  0  0  0  0  0  0  0  0  0  0
    0.3998   22.0331  -19.4297 C   0  0  0  0  0  0  0  0  0  0  0  0
    0.0959   23.3445  -19.5590 F   0  0  0  0  0  0  0  0  0  0  0  0
    2.8255   23.2137  -17.6059 C   0  0  0  0  0  0  0  0  0  0  0  0
    1.6200   22.5168  -17.4118 O   0  0  0  0  0  0  0  0  0  0  0  0
    1.3500   18.0368  -18.9845 O   0  0  0  0  0  0  0  0  0  0  0  0
    2.3997   17.3941  -19.6398 C   0  0  0  0  0  0  0  0  0  0  0  0
   -4.2898   22.9662  -22.2874 C   0  0  0  0  0  0  0  0  0  0  0  0
   -4.5474   24.2959  -22.0389 C   0  0  0  0  0  0  0  0  0  0  0  0
   -5.8617   24.7399  -21.9316 C   0  0  0  0  0  0  0  0  0  0  0  0
   -6.9154   23.8620  -22.0716 C   0  0  0  0  0  0  0  0  0  0  0  0
   -6.6719   22.5206  -22.3221 C   0  0  0  0  0  0  0  0  0  0  0  0
   -5.3579   22.1089  -22.4233 C   0  0  0  0  0  0  0  0  0  0  0  0
   -8.2809   24.3099  -21.9624 C   0  0  0  0  0  0  0  0  0  0  0  0
   -9.3698   24.6877  -21.8805 N   0  0  0  0  0  0  0  0  0  0  0  0
   -3.2780   23.4866  -27.1905 C   0  0  0  0  0  0  0  0  0  0  0  0
   -3.2135   23.0315  -28.4893 C   0  0  0  0  0  0  0  0  0  0  0  0
   -4.0927   23.7864  -29.1871 N   0  0  0  0  0  0  0  0  0  0  0  0
   -4.6888   24.6666  -28.4165 N   0  0  0  0  0  0  0  0  0  0  0  0
   -5.6854   25.6263  -28.8508 C   0  0  0  0  0  0  0  0  0  0  0  0
   -4.2020   24.5058  -27.1625 C   0  0  0  0  0  0  0  0  0  0  0  0
 20 21  1  0  0  0
 21 12  1  0  0  0
 12 13  2  0  0  0
 13 14  1  0  0  0
 14 22  1  0  0  0
 22 23  1  0  0  0
 14 15  2  0  0  0
 15 16  1  0  0  0
 15 17  1  0  0  0
 17  1  1  0  0  0
  1  2  1  0  0  0
  2  3  1  0  0  0
  3  4  2  0  0  0
  4  5  1  0  0  0
  5  6  2  0  0  0
  6  7  1  0  0  0
  7  8  2  0  0  0
  8  9  1  0  0  0
  9 10  1  0  0  0
 10 11  2  0  0  0
  9 24  1  0  0  0
 24 25  2  0  0  0
 25 26  1  0  0  0
 26 27  2  0  0  0
 27 28  1  0  0  0
 28 29  2  0  0  0
 27 30  1  0  0  0
 30 31  3  0  0  0
  6 32  1  0  0  0
 32 33  1  0  0  0
 33 34  2  0  0  0
 34 35  1  0  0  0
 35 36  1  0  0  0
 35 37  1  0  0  0
 17 18  2  0  0  0
 18 19  1  0  0  0
 18 12  1  0  0  0
 10  1  1  0  0  0
 29 24  1  0  0  0
 37 32  2  0  0  0
  8  3  1  0  0  0
M  END
> <minimizedAffinity>
-7.92392

> <CNNscore>
0.1240094081

> <CNNaffinity>
7.2173891068

> <CNN_VS>
0.8950241804

> <CNNaffinity_variance>
0.2800756991

$$$$
[H]c1nn(C([H])([H])[H])c([H])c1-c1nc([H])c2c(c1[H])N(c1c([H])c([H])c(C#N)c([H])c1[H])C(=O)N(c1c(F)c(OC([H])([H])[H])c([H])c(OC([H])([H])[H])c1F)C2([H])[H]


 37 41  0  0  0  0  0  0  0  0999 V2000
   -0.8718   21.6016  -21.5090 N   0  0  0  0  0  0  0  0  0  0  0  0
   -0.2101   21.5719  -22.7808 C   0  0  0  0  0  0  0  0  0  0  0  0
   -1.0732   22.0831  -23.8583 C   0  0  0  0  0  0  0  0  0  0  0  0
   -0.5368   22.1383  -25.1604 C   0  0  0  0  0  0  0  0  0  0  0  0
   -1.2732   22.5864  -26.1703 N   0  0  0  0  0  0  0  0  0  0  0  0
   -2.5395   23.0096  -26.0531 C   0  0  0  0  0  0  0  0  0  0  0  0
   -3.1107   22.9767  -24.8053 C   0  0  0  0  0  0  0  0  0  0  0  0
   -2.3626   22.5095  -23.7141 C   0  0  0  0  0  0  0  0  0  0  0  0
   -2.9627   22.4905  -22.4159 N   0  0  0  0  0  0  0  0  0  0  0  0
   -2.2037   22.0337  -21.3269 C   0  0  0  0  0  0  0  0  0  0  0  0
   -2.6957   22.0038  -20.1825 O   0  0  0  0  0  0  0  0  0  0  0  0
    1.0021   19.3650  -19.1629 C   0  0  0  0  0  0  0  0  0  0  0  0
    1.4645   20.2631  -18.2275 C   0  0  0  0  0  0  0  0  0  0  0  0
    1.1578   21.6203  -18.3679 C   0  0  0  0  0  0  0  0  0  0  0  0
    0.3984   22.0287  -19.4409 C   0  0  0  0  0  0  0  0  0  0  0  0
    0.0949   23.3349  -19.5878 F   0  0  0  0  0  0  0  0  0  0  0  0
   -0.0765   21.1483  -20.3913 C   0  0  0  0  0  0  0  0  0  0  0  0
    0.2377   19.8198  -20.2324 C   0  0  0  0  0  0  0  0  0  0  0  0
   -0.2121   18.9337  -21.1497 F   0  0  0  0  0  0  0  0  0  0  0  0
    2.5320   17.5156  -19.4757 C   0  0  0  0  0  0  0  0  0  0  0  0
    1.3023   18.0286  -19.0269 O   0  0  0  0  0  0  0  0  0  0  0  0
    1.6424   22.4867  -17.4064 O   0  0  0  0  0  0  0  0  0  0  0  0
    2.7660   23.2962  -17.5690 C   0  0  0  0  0  0  0  0  0  0  0  0
   -4.3086   22.9400  -22.3049 C   0  0  0  0  0  0  0  0  0  0  0  0
   -5.3494   22.0488  -22.4413 C   0  0  0  0  0  0  0  0  0  0  0  0
   -6.6631   22.4937  -22.3298 C   0  0  0  0  0  0  0  0  0  0  0  0
   -6.9384   23.8218  -22.0832 C   0  0  0  0  0  0  0  0  0  0  0  0
   -5.9013   24.7307  -21.9434 C   0  0  0  0  0  0  0  0  0  0  0  0
   -4.6082   24.2606  -22.0591 C   0  0  0  0  0  0  0  0  0  0  0  0
   -8.2949   24.2945  -21.9657 C   0  0  0  0  0  0  0  0  0  0  0  0
   -9.3851   24.6612  -21.8557 N   0  0  0  0  0  0  0  0  0  0  0  0
   -3.2862   23.4904  -27.2026 C   0  0  0  0  0  0  0  0  0  0  0  0
   -3.2188   23.0380  -28.5022 C   0  0  0  0  0  0  0  0  0  0  0  0
   -4.0995   23.7917  -29.1996 N   0  0  0  0  0  0  0  0  0  0  0  0
   -4.6991   24.6686  -28.4280 N   0  0  0  0  0  0  0  0  0  0  0  0
   -5.6981   25.6262  -28.8616 C   0  0  0  0  0  0  0  0  0  0  0  0
   -4.2134   24.5067  -27.1737 C   0  0  0  0  0  0  0  0  0  0  0  0
 20 21  1  0  0  0
 21 12  1  0  0  0
 12 13  2  0  0  0
 13 14  1  0  0  0
 14 22  1  0  0  0
 22 23  1  0  0  0
 14 15  2  0  0  0
 15 16  1  0  0  0
 15 17  1  0  0  0
 17  1  1  0  0  0
  1  2  1  0  0  0
  2  3  1  0  0  0
  3  4  2  0  0  0
  4  5  1  0  0  0
  5  6  2  0  0  0
  6  7  1  0  0  0
  7  8  2  0  0  0
  8  9  1  0  0  0
  9 10  1  0  0  0
 10 11  2  0  0  0
  9 24  1  0  0  0
 24 25  2  0  0  0
 25 26  1  0  0  0
 26 27  2  0  0  0
 27 28  1  0  0  0
 28 29  2  0  0  0
 27 30  1  0  0  0
 30 31  3  0  0  0
  6 32  1  0  0  0
 32 33  1  0  0  0
 33 34  2  0  0  0
 34 35  1  0  0  0
 35 36  1  0  0  0
 35 37  1  0  0  0
 17 18  2  0  0  0
 18 19  1  0  0  0
 18 12  1  0  0  0
 10  1  1  0  0  0
 29 24  1  0  0  0
 37 32  2  0  0  0
  8  3  1  0  0  0
M  END
> <minimizedAffinity>
-7.90541

> <CNNscore>
0.1235657558

> <CNNaffinity>
7.2238707542

> <CNN_VS>
0.8926230669

> <CNNaffinity_variance>
0.2865465283

$$$$
[H]c1nn(C([H])([H])[H])c([H])c1-c1nc([H])c2c(c1[H])N(c1c([H])c([H])c(C#N)c([H])c1[H])C(=O)N(c1c(F)c(OC([H])([H])[H])c([H])c(OC([H])([H])[H])c1F)C2([H])[H]


 37 41  0  0  0  0  0  0  0  0999 V2000
   -5.5996   21.3531  -20.2196 N   0  0  0  0  0  0  0  0  0  0  0  0
   -5.9266   21.4054  -21.6148 C   0  0  0  0  0  0  0  0  0  0  0  0
   -4.7304   21.6033  -22.4497 C   0  0  0  0  0  0  0  0  0  0  0  0
   -4.9035   21.6439  -23.8478 C   0  0  0  0  0  0  0  0  0  0  0  0
   -3.8592   21.8247  -24.6476 N   0  0  0  0  0  0  0  0  0  0  0  0
   -2.5980   21.9789  -24.2211 C   0  0  0  0  0  0  0  0  0  0  0  0
   -2.3736   21.9474  -22.8672 C   0  0  0  0  0  0  0  0  0  0  0  0
   -3.4533   21.7581  -21.9912 C   0  0  0  0  0  0  0  0  0  0  0  0
   -3.2075   21.7147  -20.5829 N   0  0  0  0  0  0  0  0  0  0  0  0
   -4.2910   21.5121  -19.7135 C   0  0  0  0  0  0  0  0  0  0  0  0
   -4.1123   21.4692  -18.4811 O   0  0  0  0  0  0  0  0  0  0  0  0
   -7.9357   19.6953  -17.8086 C   0  0  0  0  0  0  0  0  0  0  0  0
   -8.8831   20.6755  -17.6163 C   0  0  0  0  0  0  0  0  0  0  0  0
   -8.7543   21.8964  -18.2860 C   0  0  0  0  0  0  0  0  0  0  0  0
   -7.6804   22.0911  -19.1248 C   0  0  0  0  0  0  0  0  0  0  0  0
   -7.5445   23.2640  -19.7773 F   0  0  0  0  0  0  0  0  0  0  0  0
   -6.7180   21.1247  -19.3340 C   0  0  0  0  0  0  0  0  0  0  0  0
   -6.8657   19.9332  -18.6651 C   0  0  0  0  0  0  0  0  0  0  0  0
   -5.9366   18.9679  -18.8489 F   0  0  0  0  0  0  0  0  0  0  0  0
   -8.6536   17.3839  -17.7799 C   0  0  0  0  0  0  0  0  0  0  0  0
   -8.0603   18.4926  -17.1509 O   0  0  0  0  0  0  0  0  0  0  0  0
   -9.7276   22.8519  -18.0636 O   0  0  0  0  0  0  0  0  0  0  0  0
  -10.9641   22.8824  -18.7075 C   0  0  0  0  0  0  0  0  0  0  0  0
   -1.8645   21.8822  -20.1423 C   0  0  0  0  0  0  0  0  0  0  0  0
   -1.4290   23.1119  -19.7016 C   0  0  0  0  0  0  0  0  0  0  0  0
   -0.1155   23.2692  -19.2702 C   0  0  0  0  0  0  0  0  0  0  0  0
    0.7606   22.2049  -19.2779 C   0  0  0  0  0  0  0  0  0  0  0  0
    0.3367   20.9609  -19.7186 C   0  0  0  0  0  0  0  0  0  0  0  0
   -0.9718   20.8347  -20.1408 C   0  0  0  0  0  0  0  0  0  0  0  0
    2.1234   22.3554  -18.8336 C   0  0  0  0  0  0  0  0  0  0  0  0
    3.2200   22.4574  -18.4840 N   0  0  0  0  0  0  0  0  0  0  0  0
   -1.5014   22.1702  -25.1543 C   0  0  0  0  0  0  0  0  0  0  0  0
   -0.1591   21.9494  -24.9360 C   0  0  0  0  0  0  0  0  0  0  0  0
    0.4588   22.2660  -26.0969 N   0  0  0  0  0  0  0  0  0  0  0  0
   -0.4006   22.6628  -27.0068 N   0  0  0  0  0  0  0  0  0  0  0  0
   -0.0667   23.0724  -28.3572 C   0  0  0  0  0  0  0  0  0  0  0  0
   -1.6347   22.6147  -26.4497 C   0  0  0  0  0  0  0  0  0  0  0  0
 20 21  1  0  0  0
 21 12  1  0  0  0
 12 13  2  0  0  0
 13 14  1  0  0  0
 14 22  1  0  0  0
 22 23  1  0  0  0
 14 15  2  0  0  0
 15 16  1  0  0  0
 15 17  1  0  0  0
 17  1  1  0  0  0
  1  2  1  0  0  0
  2  3  1  0  0  0
  3  4  2  0  0  0
  4  5  1  0  0  0
  5  6  2  0  0  0
  6  7  1  0  0  0
  7  8  2  0  0  0
  8  9  1  0  0  0
  9 10  1  0  0  0
 10 11  2  0  0  0
  9 24  1  0  0  0
 24 25  2  0  0  0
 25 26  1  0  0  0
 26 27  2  0  0  0
 27 28  1  0  0  0
 28 29  2  0  0  0
 27 30  1  0  0  0
 30 31  3  0  0  0
  6 32  1  0  0  0
 32 33  1  0  0  0
 33 34  2  0  0  0
 34 35  1  0  0  0
 35 36  1  0  0  0
 35 37  1  0  0  0
 17 18  2  0  0  0
 18 19  1  0  0  0
 18 12  1  0  0  0
 10  1  1  0  0  0
 29 24  1  0  0  0
 37 32  2  0  0  0
  8  3  1  0  0  0
M  END
> <minimizedAffinity>
-6.76521

> <CNNscore>
0.1205564439

> <CNNaffinity>
6.2438764572

> <CNN_VS>
0.7527395487

> <CNNaffinity_variance>
0.1826441586

$$$$
[H]c1nn(C([H])([H])[H])c([H])c1-c1nc([H])c2c(c1[H])N(c1c([H])c([H])c(C#N)c([H])c1[H])C(=O)N(c1c(F)c(OC([H])([H])[H])c([H])c(OC([H])([H])[H])c1F)C2([H])[H]


 37 41  0  0  0  0  0  0  0  0999 V2000
   -1.8808   20.9264  -19.3099 N   0  0  0  0  0  0  0  0  0  0  0  0
   -3.0252   21.6747  -18.8782 C   0  0  0  0  0  0  0  0  0  0  0  0
   -3.5738   22.5080  -19.9608 C   0  0  0  0  0  0  0  0  0  0  0  0
   -4.7222   23.2760  -19.6822 C   0  0  0  0  0  0  0  0  0  0  0  0
   -5.2557   24.0488  -20.6208 N   0  0  0  0  0  0  0  0  0  0  0  0
   -4.7749   24.1670  -21.8662 C   0  0  0  0  0  0  0  0  0  0  0  0
   -3.6566   23.4399  -22.1905 C   0  0  0  0  0  0  0  0  0  0  0  0
   -3.0654   22.6120  -21.2241 C   0  0  0  0  0  0  0  0  0  0  0  0
   -1.9077   21.8492  -21.5753 N   0  0  0  0  0  0  0  0  0  0  0  0
   -1.3294   21.0134  -20.6069 C   0  0  0  0  0  0  0  0  0  0  0  0
   -0.3202   20.3353  -20.8794 O   0  0  0  0  0  0  0  0  0  0  0  0
   -1.3459   17.9976  -17.0394 C   0  0  0  0  0  0  0  0  0  0  0  0
   -0.1925   18.3596  -16.3808 C   0  0  0  0  0  0  0  0  0  0  0  0
    0.4182   19.5804  -16.6852 C   0  0  0  0  0  0  0  0  0  0  0  0
   -0.1493   20.3947  -17.6389 C   0  0  0  0  0  0  0  0  0  0  0  0
    0.4293   21.5751  -17.9416 F   0  0  0  0  0  0  0  0  0  0  0  0
   -1.3044   20.0543  -18.3126 C   0  0  0  0  0  0  0  0  0  0  0  0
   -1.8865   18.8501  -17.9966 C   0  0  0  0  0  0  0  0  0  0  0  0
   -3.0184   18.4887  -18.6423 F   0  0  0  0  0  0  0  0  0  0  0  0
   -2.9588   16.7185  -15.7662 C   0  0  0  0  0  0  0  0  0  0  0  0
   -1.9492   16.7969  -16.7415 O   0  0  0  0  0  0  0  0  0  0  0  0
    1.5742   19.9037  -16.0004 O   0  0  0  0  0  0  0  0  0  0  0  0
    2.7398   19.1387  -16.0159 C   0  0  0  0  0  0  0  0  0  0  0  0
   -1.4052   21.9852  -22.9000 C   0  0  0  0  0  0  0  0  0  0  0  0
   -0.1398   22.4852  -23.1123 C   0  0  0  0  0  0  0  0  0  0  0  0
    0.3469   22.6141  -24.4094 C   0  0  0  0  0  0  0  0  0  0  0  0
   -0.4246   22.2459  -25.4910 C   0  0  0  0  0  0  0  0  0  0  0  0
   -1.7002   21.7409  -25.2932 C   0  0  0  0  0  0  0  0  0  0  0  0
   -2.1565   21.6245  -23.9952 C   0  0  0  0  0  0  0  0  0  0  0  0
    0.0685   22.3748  -26.8391 C   0  0  0  0  0  0  0  0  0  0  0  0
    0.4824   22.4734  -27.9134 N   0  0  0  0  0  0  0  0  0  0  0  0
   -5.4121   25.0309  -22.8448 C   0  0  0  0  0  0  0  0  0  0  0  0
   -6.7238   25.4519  -22.8718 C   0  0  0  0  0  0  0  0  0  0  0  0
   -6.8346   26.2382  -23.9670 N   0  0  0  0  0  0  0  0  0  0  0  0
   -5.6940   26.3302  -24.6107 N   0  0  0  0  0  0  0  0  0  0  0  0
   -5.4714   27.0955  -25.8223 C   0  0  0  0  0  0  0  0  0  0  0  0
   -4.7843   25.5873  -23.9355 C   0  0  0  0  0  0  0  0  0  0  0  0
 20 21  1  0  0  0
 21 12  1  0  0  0
 12 13  2  0  0  0
 13 14  1  0  0  0
 14 22  1  0  0  0
 22 23  1  0  0  0
 14 15  2  0  0  0
 15 16  1  0  0  0
 15 17  1  0  0  0
 17  1  1  0  0  0
  1  2  1  0  0  0
  2  3  1  0  0  0
  3  4  2  0  0  0
  4  5  1  0  0  0
  5  6  2  0  0  0
  6  7  1  0  0  0
  7  8  2  0  0  0
  8  9  1  0  0  0
  9 10  1  0  0  0
 10 11  2  0  0  0
  9 24  1  0  0  0
 24 25  2  0  0  0
 25 26  1  0  0  0
 26 27  2  0  0  0
 27 28  1  0  0  0
 28 29  2  0  0  0
 27 30  1  0  0  0
 30 31  3  0  0  0
  6 32  1  0  0  0
 32 33  1  0  0  0
 33 34  2  0  0  0
 34 35  1  0  0  0
 35 36  1  0  0  0
 35 37  1  0  0  0
 17 18  2  0  0  0
 18 19  1  0  0  0
 18 12  1  0  0  0
 10  1  1  0  0  0
 29 24  1  0  0  0
 37 32  2  0  0  0
  8  3  1  0  0  0
M  END
> <minimizedAffinity>
-6.76388

> <CNNscore>
0.1159150451

> <CNNaffinity>
6.7049512863

> <CNN_VS>
0.7772047520

> <CNNaffinity_variance>
0.2116523683

$$$$
[H]c1nn(C([H])([H])[H])c([H])c1-c1nc([H])c2c(c1[H])N(c1c([H])c([H])c(C#N)c([H])c1[H])C(=O)N(c1c(F)c(OC([H])([H])[H])c([H])c(OC([H])([H])[H])c1F)C2([H])[H]


 37 41  0  0  0  0  0  0  0  0999 V2000
   -4.9122   22.7454  -20.8479 N   0  0  0  0  0  0  0  0  0  0  0  0
   -4.3302   22.1539  -19.6785 C   0  0  0  0  0  0  0  0  0  0  0  0
   -2.9655   21.6647  -19.9347 C   0  0  0  0  0  0  0  0  0  0  0  0
   -2.2620   21.0848  -18.8599 C   0  0  0  0  0  0  0  0  0  0  0  0
   -1.0298   20.6229  -19.0366 N   0  0  0  0  0  0  0  0  0  0  0  0
   -0.3675   20.6621  -20.2010 C   0  0  0  0  0  0  0  0  0  0  0  0
   -1.0075   21.2171  -21.2812 C   0  0  0  0  0  0  0  0  0  0  0  0
   -2.3105   21.7159  -21.1320 C   0  0  0  0  0  0  0  0  0  0  0  0
   -2.9644   22.3032  -22.2604 N   0  0  0  0  0  0  0  0  0  0  0  0
   -4.2631   22.8116  -22.1002 C   0  0  0  0  0  0  0  0  0  0  0  0
   -4.8616   23.3296  -23.0625 O   0  0  0  0  0  0  0  0  0  0  0  0
   -8.6139   22.9583  -20.3277 C   0  0  0  0  0  0  0  0  0  0  0  0
   -8.8187   24.3196  -20.3201 C   0  0  0  0  0  0  0  0  0  0  0  0
   -7.7286   25.1794  -20.4878 C   0  0  0  0  0  0  0  0  0  0  0  0
   -6.4719   24.6438  -20.6573 C   0  0  0  0  0  0  0  0  0  0  0  0
   -5.4118   25.4619  -20.8206 F   0  0  0  0  0  0  0  0  0  0  0  0
   -6.2409   23.2835  -20.6684 C   0  0  0  0  0  0  0  0  0  0  0  0
   -7.3274   22.4585  -20.5018 C   0  0  0  0  0  0  0  0  0  0  0  0
   -7.1313   21.1204  -20.5061 F   0  0  0  0  0  0  0  0  0  0  0  0
  -10.0518   21.6493  -18.8863 C   0  0  0  0  0  0  0  0  0  0  0  0
   -9.6851   22.1098  -20.1631 O   0  0  0  0  0  0  0  0  0  0  0  0
   -7.9796   26.5383  -20.4735 O   0  0  0  0  0  0  0  0  0  0  0  0
   -9.2510   27.1059  -20.5489 C   0  0  0  0  0  0  0  0  0  0  0  0
   -2.2516   22.3367  -23.4919 C   0  0  0  0  0  0  0  0  0  0  0  0
   -2.8153   21.8095  -24.6323 C   0  0  0  0  0  0  0  0  0  0  0  0
   -2.1146   21.8469  -25.8339 C   0  0  0  0  0  0  0  0  0  0  0  0
   -0.8569   22.4076  -25.8986 C   0  0  0  0  0  0  0  0  0  0  0  0
   -0.2764   22.9423  -24.7591 C   0  0  0  0  0  0  0  0  0  0  0  0
   -0.9951   22.8910  -23.5812 C   0  0  0  0  0  0  0  0  0  0  0  0
   -0.1213   22.4520  -27.1372 C   0  0  0  0  0  0  0  0  0  0  0  0
    0.4514   22.4832  -28.1403 N   0  0  0  0  0  0  0  0  0  0  0  0
    0.9825   20.1396  -20.3219 C   0  0  0  0  0  0  0  0  0  0  0  0
    2.1662   20.8440  -20.2896 C   0  0  0  0  0  0  0  0  0  0  0  0
    3.1458   19.9231  -20.4384 N   0  0  0  0  0  0  0  0  0  0  0  0
    2.6533   18.7120  -20.5591 N   0  0  0  0  0  0  0  0  0  0  0  0
    3.4319   17.5009  -20.7321 C   0  0  0  0  0  0  0  0  0  0  0  0
    1.3040   18.8124  -20.4905 C   0  0  0  0  0  0  0  0  0  0  0  0
 20 21  1  0  0  0
 21 12  1  0  0  0
 12 13  2  0  0  0
 13 14  1  0  0  0
 14 22  1  0  0  0
 22 23  1  0  0  0
 14 15  2  0  0  0
 15 16  1  0  0  0
 15 17  1  0  0  0
 17  1  1  0  0  0
  1  2  1  0  0  0
  2  3  1  0  0  0
  3  4  2  0  0  0
  4  5  1  0  0  0
  5  6  2  0  0  0
  6  7  1  0  0  0
  7  8  2  0  0  0
  8  9  1  0  0  0
  9 10  1  0  0  0
 10 11  2  0  0  0
  9 24  1  0  0  0
 24 25  2  0  0  0
 25 26  1  0  0  0
 26 27  2  0  0  0
 27 28  1  0  0  0
 28 29  2  0  0  0
 27 30  1  0  0  0
 30 31  3  0  0  0
  6 32  1  0  0  0
 32 33  1  0  0  0
 33 34  2  0  0  0
 34 35  1  0  0  0
 35 36  1  0  0  0
 35 37  1  0  0  0
 17 18  2  0  0  0
 18 19  1  0  0  0
 18 12  1  0  0  0
 10  1  1  0  0  0
 29 24  1  0  0  0
 37 32  2  0  0  0
  8  3  1  0  0  0
M  END
> <minimizedAffinity>
-7.45583

> <CNNscore>
0.1092312858

> <CNNaffinity>
6.5872435570

> <CNN_VS>
0.7195330858

> <CNNaffinity_variance>
0.0298251957

$$$$
[H]c1nn(C([H])([H])[H])c([H])c1-c1nc([H])c2c(c1[H])N(c1c([H])c([H])c(C#N)c([H])c1[H])C(=O)N(c1c(F)c(OC([H])([H])[H])c([H])c(OC([H])([H])[H])c1F)C2([H])[H]


 37 41  0  0  0  0  0  0  0  0999 V2000
   -4.6258   22.4024  -20.5745 N   0  0  0  0  0  0  0  0  0  0  0  0
   -3.9535   21.7813  -19.4706 C   0  0  0  0  0  0  0  0  0  0  0  0
   -2.5913   21.3544  -19.8302 C   0  0  0  0  0  0  0  0  0  0  0  0
   -1.8040   20.7537  -18.8273 C   0  0  0  0  0  0  0  0  0  0  0  0
   -0.5700   20.3457  -19.0984 N   0  0  0  0  0  0  0  0  0  0  0  0
    0.0181   20.4608  -20.2972 C   0  0  0  0  0  0  0  0  0  0  0  0
   -0.7053   21.0393  -21.3103 C   0  0  0  0  0  0  0  0  0  0  0  0
   -2.0129   21.4828  -21.0608 C   0  0  0  0  0  0  0  0  0  0  0  0
   -2.7542   22.0951  -22.1196 N   0  0  0  0  0  0  0  0  0  0  0  0
   -4.0572   22.5479  -21.8588 C   0  0  0  0  0  0  0  0  0  0  0  0
   -4.7308   23.0857  -22.7586 O   0  0  0  0  0  0  0  0  0  0  0  0
   -7.5057   24.7086  -19.9370 C   0  0  0  0  0  0  0  0  0  0  0  0
   -8.5394   23.8203  -19.7430 C   0  0  0  0  0  0  0  0  0  0  0  0
   -8.2889   22.4467  -19.8221 C   0  0  0  0  0  0  0  0  0  0  0  0
   -7.0109   22.0126  -20.0930 C   0  0  0  0  0  0  0  0  0  0  0  0
   -6.7556   20.6903  -20.1716 F   0  0  0  0  0  0  0  0  0  0  0  0
   -5.9586   22.8827  -20.2913 C   0  0  0  0  0  0  0  0  0  0  0  0
   -6.2289   24.2277  -20.2087 C   0  0  0  0  0  0  0  0  0  0  0  0
   -5.2175   25.1045  -20.4008 F   0  0  0  0  0  0  0  0  0  0  0  0
   -8.6605   26.6817  -20.7319 C   0  0  0  0  0  0  0  0  0  0  0  0
   -7.7494   26.0610  -19.8593 O   0  0  0  0  0  0  0  0  0  0  0  0
   -9.3553   21.5910  -19.6208 O   0  0  0  0  0  0  0  0  0  0  0  0
  -10.4277   21.8546  -18.7696 C   0  0  0  0  0  0  0  0  0  0  0  0
   -2.1197   22.2094  -23.3885 C   0  0  0  0  0  0  0  0  0  0  0  0
   -2.7417   21.7287  -24.5191 C   0  0  0  0  0  0  0  0  0  0  0  0
   -2.1175   21.8450  -25.7572 C   0  0  0  0  0  0  0  0  0  0  0  0
   -0.8780   22.4382  -25.8682 C   0  0  0  0  0  0  0  0  0  0  0  0
   -0.2395   22.9269  -24.7391 C   0  0  0  0  0  0  0  0  0  0  0  0
   -0.8828   22.7975  -23.5242 C   0  0  0  0  0  0  0  0  0  0  0  0
   -0.2214   22.5643  -27.1449 C   0  0  0  0  0  0  0  0  0  0  0  0
    0.2874   22.6615  -28.1778 N   0  0  0  0  0  0  0  0  0  0  0  0
    1.3752   19.9942  -20.5225 C   0  0  0  0  0  0  0  0  0  0  0  0
    2.2694   20.4279  -21.4768 C   0  0  0  0  0  0  0  0  0  0  0  0
    3.3928   19.6991  -21.2857 N   0  0  0  0  0  0  0  0  0  0  0  0
    3.2548   18.8545  -20.2899 N   0  0  0  0  0  0  0  0  0  0  0  0
    4.2703   17.9296  -19.8248 C   0  0  0  0  0  0  0  0  0  0  0  0
    2.0052   19.0135  -19.7913 C   0  0  0  0  0  0  0  0  0  0  0  0
 20 21  1  0  0  0
 21 12  1  0  0  0
 12 13  2  0  0  0
 13 14  1  0  0  0
 14 22  1  0  0  0
 22 23  1  0  0  0
 14 15  2  0  0  0
 15 16  1  0  0  0
 15 17  1  0  0  0
 17  1  1  0  0  0
  1  2  1  0  0  0
  2  3  1  0  0  0
  3  4  2  0  0  0
  4  5  1  0  0  0
  5  6  2  0  0  0
  6  7  1  0  0  0
  7  8  2  0  0  0
  8  9  1  0  0  0
  9 10  1  0  0  0
 10 11  2  0  0  0
  9 24  1  0  0  0
 24 25  2  0  0  0
 25 26  1  0  0  0
 26 27  2  0  0  0
 27 28  1  0  0  0
 28 29  2  0  0  0
 27 30  1  0  0  0
 30 31  3  0  0  0
  6 32  1  0  0  0
 32 33  1  0  0  0
 33 34  2  0  0  0
 34 35  1  0  0  0
 35 36  1  0  0  0
 35 37  1  0  0  0
 17 18  2  0  0  0
 18 19  1  0  0  0
 18 12  1  0  0  0
 10  1  1  0  0  0
 29 24  1  0  0  0
 37 32  2  0  0  0
  8  3  1  0  0  0
M  END
> <minimizedAffinity>
-7.28007

> <CNNscore>
0.1031517908

> <CNNaffinity>
6.5895509720

> <CNN_VS>
0.6797239780

> <CNNaffinity_variance>
0.0513405204

$$$$
[H]/C(C(=O)N1C([H])([H])C([H])([H])C([H])(N2C(=O)N(c3c(Cl)c(OC([H])([H])[H])c([H])c(OC([H])([H])[H])c3Cl)C([H])([H])c3c([H])nc(N([H])c4c([H])c([H])c([H])c([H])c4OC([H])([H])[H])nc32)C([H])([H])C1([H])[H])=C(/[H])C([H])([H])N(C([H])([H])[H])C([H])([H])[H]


 47 51  0  0  0  0  0  0  0  0999 V2000
   -8.1068   20.7269  -18.8142 C   0  0  0  0  0  0  0  0  0  0  0  0
   -8.8967   20.9760  -19.8476 N   0  0  0  0  0  0  0  0  0  0  0  0
   -8.5720   21.4932  -21.0168 C   0  0  0  0  0  0  0  0  0  0  0  0
   -7.2203   21.8248  -21.1985 C   0  0  0  0  0  0  0  0  0  0  0  0
   -6.8291   22.3983  -22.4919 C   0  0  0  0  0  0  0  0  0  0  0  0
   -5.4342   22.7485  -22.5997 N   0  0  0  0  0  0  0  0  0  0  0  0
   -4.4935   22.5184  -21.5426 C   0  0  0  0  0  0  0  0  0  0  0  0
   -3.2837   22.8015  -21.6333 O   0  0  0  0  0  0  0  0  0  0  0  0
   -4.9666   21.9434  -20.3428 N   0  0  0  0  0  0  0  0  0  0  0  0
   -6.3514   21.5966  -20.1798 C   0  0  0  0  0  0  0  0  0  0  0  0
   -6.7816   21.0634  -19.0223 N   0  0  0  0  0  0  0  0  0  0  0  0
   -4.0987   21.6787  -19.2452 C   0  0  0  0  0  0  0  0  0  0  0  0
   -4.4700   22.6186  -18.1078 C   0  0  0  0  0  0  0  0  0  0  0  0
   -4.5578   21.8857  -16.7964 C   0  0  0  0  0  0  0  0  0  0  0  0
   -3.2813   21.1479  -16.6015 N   0  0  0  0  0  0  0  0  0  0  0  0
   -3.0175   20.1960  -17.6494 C   0  0  0  0  0  0  0  0  0  0  0  0
   -4.1370   20.2972  -18.6817 C   0  0  0  0  0  0  0  0  0  0  0  0
   -2.4879   21.4223  -15.4760 C   0  0  0  0  0  0  0  0  0  0  0  0
   -3.0001   22.3333  -14.6979 O   0  0  0  0  0  0  0  0  0  0  0  0
   -1.2444   20.8959  -15.0351 C   0  0  0  0  0  0  0  0  0  0  0  0
   -0.1153   21.4832  -14.7609 C   0  0  0  0  0  0  0  0  0  0  0  0
    1.1430   20.8498  -14.3050 C   0  0  0  0  0  0  0  0  0  0  0  0
    2.0793   21.7293  -13.7080 N   0  0  0  0  0  0  0  0  0  0  0  0
    2.9894   22.3559  -14.6327 C   0  0  0  0  0  0  0  0  0  0  0  0
    1.3530   22.7577  -12.9844 C   0  0  0  0  0  0  0  0  0  0  0  0
   -4.9691   23.3454  -23.8035 C   0  0  0  0  0  0  0  0  0  0  0  0
   -4.2943   22.5674  -24.7073 C   0  0  0  0  0  0  0  0  0  0  0  0
   -4.0055   20.8503  -24.3964 Cl  0  0  0  0  0  0  0  0  0  0  0  0
   -3.8290   23.1306  -25.8892 C   0  0  0  0  0  0  0  0  0  0  0  0
   -4.0250   24.4585  -26.1874 C   0  0  0  0  0  0  0  0  0  0  0  0
   -4.7047   25.2388  -25.2760 C   0  0  0  0  0  0  0  0  0  0  0  0
   -5.1676   24.6698  -24.0950 C   0  0  0  0  0  0  0  0  0  0  0  0
   -6.0208   25.7015  -22.9769 Cl  0  0  0  0  0  0  0  0  0  0  0  0
   -3.1498   22.2974  -26.7725 O   0  0  0  0  0  0  0  0  0  0  0  0
   -2.2215   22.8224  -27.6965 C   0  0  0  0  0  0  0  0  0  0  0  0
   -4.9150   26.5834  -25.5553 O   0  0  0  0  0  0  0  0  0  0  0  0
   -4.0082   27.5927  -25.2299 C   0  0  0  0  0  0  0  0  0  0  0  0
   -8.4952   20.1849  -17.5976 N   0  0  0  0  0  0  0  0  0  0  0  0
   -9.5480   19.9546  -17.5282 H   0  0  0  0  0  0  0  0  0  0  0  0
   -7.8574   20.6939  -15.3121 C   0  0  0  0  0  0  0  0  0  0  0  0
   -7.1399   20.4941  -14.1787 C   0  0  0  0  0  0  0  0  0  0  0  0
   -6.2200   19.4687  -14.1504 C   0  0  0  0  0  0  0  0  0  0  0  0
   -6.0377   18.6757  -15.2371 C   0  0  0  0  0  0  0  0  0  0  0  0
   -6.7924   18.9102  -16.3859 C   0  0  0  0  0  0  0  0  0  0  0  0
   -7.7195   19.9075  -16.4808 C   0  0  0  0  0  0  0  0  0  0  0  0
   -8.9377   22.5783  -14.2715 C   0  0  0  0  0  0  0  0  0  0  0  0
   -8.7978   21.7185  -15.3845 O   0  0  0  0  0  0  0  0  0  0  0  0
 46 47  1  0  0  0
 47 40  1  0  0  0
 40 41  2  0  0  0
 41 42  1  0  0  0
 42 43  2  0  0  0
 43 44  1  0  0  0
 44 45  2  0  0  0
 45 38  1  0  0  0
 38  1  1  0  0  0
  1  2  2  0  0  0
  2  3  1  0  0  0
  3  4  2  0  0  0
  4  5  1  0  0  0
  5  6  1  0  0  0
  6  7  1  0  0  0
  7  8  2  0  0  0
  7  9  1  0  0  0
  9 12  1  0  0  0
 12 13  1  0  0  0
 13 14  1  0  0  0
 14 15  1  0  0  0
 15 16  1  0  0  0
 16 17  1  0  0  0
 15 18  1  0  0  0
 18 19  2  0  0  0
 18 20  1  0  0  0
 20 21  2  0  0  0
 21 22  1  0  0  0
 22 23  1  0  0  0
 23 24  1  0  0  0
 23 25  1  0  0  0
  9 10  1  0  0  0
 10 11  2  0  0  0
  6 26  1  0  0  0
 26 27  2  0  0  0
 27 28  1  0  0  0
 27 29  1  0  0  0
 29 34  1  0  0  0
 34 35  1  0  0  0
 29 30  2  0  0  0
 30 31  1  0  0  0
 31 36  1  0  0  0
 36 37  1  0  0  0
 31 32  2  0  0  0
 32 33  1  0  0  0
 45 40  1  0  0  0
 11  1  1  0  0  0
 32 26  1  0  0  0
 10  4  1  0  0  0
 17 12  1  0  0  0
 38 39  1  0  0  0
M  END
> <minimizedAffinity>
-6.02061

> <CNNscore>
0.0996568874

> <CNNaffinity>
6.7940444946

> <CNN_VS>
0.6770732999

> <CNNaffinity_variance>
0.1113007069

$$$$
[H]/C(C(=O)N1C([H])([H])C([H])([H])C([H])(N2C(=O)N(c3c(Cl)c(OC([H])([H])[H])c([H])c(OC([H])([H])[H])c3Cl)C([H])([H])c3c([H])nc(N([H])c4c([H])c([H])c([H])c([H])c4OC([H])([H])[H])nc32)C([H])([H])C1([H])[H])=C(/[H])C([H])([H])N(C([H])([H])[H])C([H])([H])[H]


 47 51  0  0  0  0  0  0  0  0999 V2000
   -0.7807   21.6446  -23.8719 C   0  0  0  0  0  0  0  0  0  0  0  0
    0.5027   21.5156  -24.1725 N   0  0  0  0  0  0  0  0  0  0  0  0
    1.5131   21.2876  -23.3558 C   0  0  0  0  0  0  0  0  0  0  0  0
    1.1986   21.1646  -21.9935 C   0  0  0  0  0  0  0  0  0  0  0  0
    2.3030   20.9062  -21.0616 C   0  0  0  0  0  0  0  0  0  0  0  0
    1.9160   20.8259  -19.6745 N   0  0  0  0  0  0  0  0  0  0  0  0
    0.5549   20.9483  -19.2415 C   0  0  0  0  0  0  0  0  0  0  0  0
    0.2093   20.8628  -18.0476 O   0  0  0  0  0  0  0  0  0  0  0  0
   -0.4377   21.1772  -20.2193 N   0  0  0  0  0  0  0  0  0  0  0  0
   -0.0992   21.2857  -21.6115 C   0  0  0  0  0  0  0  0  0  0  0  0
   -1.0602   21.5185  -22.5233 N   0  0  0  0  0  0  0  0  0  0  0  0
   -1.8134   21.3076  -19.8749 C   0  0  0  0  0  0  0  0  0  0  0  0
   -2.2327   20.0607  -19.1105 C   0  0  0  0  0  0  0  0  0  0  0  0
   -3.0231   20.4115  -17.8789 C   0  0  0  0  0  0  0  0  0  0  0  0
   -4.1466   21.2925  -18.2954 N   0  0  0  0  0  0  0  0  0  0  0  0
   -3.7024   22.5090  -18.9249 C   0  0  0  0  0  0  0  0  0  0  0  0
   -2.1794   22.4727  -19.0168 C   0  0  0  0  0  0  0  0  0  0  0  0
   -5.4694   20.8898  -18.0510 C   0  0  0  0  0  0  0  0  0  0  0  0
   -5.5512   19.7357  -17.4519 O   0  0  0  0  0  0  0  0  0  0  0  0
   -6.7197   21.5018  -18.3337 C   0  0  0  0  0  0  0  0  0  0  0  0
   -7.9166   20.9987  -18.4298 C   0  0  0  0  0  0  0  0  0  0  0  0
   -9.1751   21.7176  -18.7330 C   0  0  0  0  0  0  0  0  0  0  0  0
  -10.3539   21.1023  -18.2447 N   0  0  0  0  0  0  0  0  0  0  0  0
  -10.2134   20.4718  -16.9568 C   0  0  0  0  0  0  0  0  0  0  0  0
  -11.4033   22.1034  -18.1726 C   0  0  0  0  0  0  0  0  0  0  0  0
    2.9236   20.6151  -18.6937 C   0  0  0  0  0  0  0  0  0  0  0  0
    3.2893   19.3300  -18.3898 C   0  0  0  0  0  0  0  0  0  0  0  0
    2.5335   17.9509  -19.1995 Cl  0  0  0  0  0  0  0  0  0  0  0  0
    4.2702   19.1008  -17.4328 C   0  0  0  0  0  0  0  0  0  0  0  0
    4.8949   20.1321  -16.7718 C   0  0  0  0  0  0  0  0  0  0  0  0
    4.5249   21.4242  -17.0800 C   0  0  0  0  0  0  0  0  0  0  0  0
    3.5426   21.6474  -18.0381 C   0  0  0  0  0  0  0  0  0  0  0  0
    3.1122   23.3007  -18.3896 Cl  0  0  0  0  0  0  0  0  0  0  0  0
    4.6043   17.7778  -17.1613 O   0  0  0  0  0  0  0  0  0  0  0  0
    5.6923   17.4624  -16.3199 C   0  0  0  0  0  0  0  0  0  0  0  0
    5.1422   22.4827  -16.4251 O   0  0  0  0  0  0  0  0  0  0  0  0
    5.2245   22.5919  -15.0366 C   0  0  0  0  0  0  0  0  0  0  0  0
   -1.8114   21.8902  -24.7673 N   0  0  0  0  0  0  0  0  0  0  0  0
   -1.9672   21.1062  -25.4934 H   0  0  0  0  0  0  0  0  0  0  0  0
   -3.1488   23.4105  -26.1050 C   0  0  0  0  0  0  0  0  0  0  0  0
   -3.9707   24.4758  -26.2751 C   0  0  0  0  0  0  0  0  0  0  0  0
   -4.3502   25.2020  -25.1673 C   0  0  0  0  0  0  0  0  0  0  0  0
   -3.9084   24.8555  -23.9313 C   0  0  0  0  0  0  0  0  0  0  0  0
   -3.0639   23.7545  -23.7935 C   0  0  0  0  0  0  0  0  0  0  0  0
   -2.6502   22.9929  -24.8479 C   0  0  0  0  0  0  0  0  0  0  0  0
   -2.9424   23.1747  -28.4930 C   0  0  0  0  0  0  0  0  0  0  0  0
   -2.7405   22.6487  -27.1969 O   0  0  0  0  0  0  0  0  0  0  0  0
 46 47  1  0  0  0
 47 40  1  0  0  0
 40 41  2  0  0  0
 41 42  1  0  0  0
 42 43  2  0  0  0
 43 44  1  0  0  0
 44 45  2  0  0  0
 45 38  1  0  0  0
 38  1  1  0  0  0
  1  2  2  0  0  0
  2  3  1  0  0  0
  3  4  2  0  0  0
  4  5  1  0  0  0
  5  6  1  0  0  0
  6  7  1  0  0  0
  7  8  2  0  0  0
  7  9  1  0  0  0
  9 12  1  0  0  0
 12 13  1  0  0  0
 13 14  1  0  0  0
 14 15  1  0  0  0
 15 16  1  0  0  0
 16 17  1  0  0  0
 15 18  1  0  0  0
 18 19  2  0  0  0
 18 20  1  0  0  0
 20 21  2  0  0  0
 21 22  1  0  0  0
 22 23  1  0  0  0
 23 24  1  0  0  0
 23 25  1  0  0  0
  9 10  1  0  0  0
 10 11  2  0  0  0
  6 26  1  0  0  0
 26 27  2  0  0  0
 27 28  1  0  0  0
 27 29  1  0  0  0
 29 34  1  0  0  0
 34 35  1  0  0  0
 29 30  2  0  0  0
 30 31  1  0  0  0
 31 36  1  0  0  0
 36 37  1  0  0  0
 31 32  2  0  0  0
 32 33  1  0  0  0
 45 40  1  0  0  0
 11  1  1  0  0  0
 32 26  1  0  0  0
 10  4  1  0  0  0
 17 12  1  0  0  0
 38 39  1  0  0  0
M  END
> <minimizedAffinity>
-6.29308

> <CNNscore>
0.0745754167

> <CNNaffinity>
6.8324003220

> <CNN_VS>
0.5095291138

> <CNNaffinity_variance>
0.0784807056

$$$$
[H]/C(C(=O)N1C([H])([H])C([H])([H])C([H])(N2C(=O)N(c3c(Cl)c(OC([H])([H])[H])c([H])c(OC([H])([H])[H])c3Cl)C([H])([H])c3c([H])nc(N([H])c4c([H])c([H])c([H])c([H])c4OC([H])([H])[H])nc32)C([H])([H])C1([H])[H])=C(/[H])C([H])([H])N(C([H])([H])[H])C([H])([H])[H]


 47 51  0  0  0  0  0  0  0  0999 V2000
   -1.3674   21.9542  -17.4380 C   0  0  0  0  0  0  0  0  0  0  0  0
   -0.3959   22.4458  -18.1921 N   0  0  0  0  0  0  0  0  0  0  0  0
   -0.4651   22.8654  -19.4407 C   0  0  0  0  0  0  0  0  0  0  0  0
   -1.7235   22.7848  -20.0571 C   0  0  0  0  0  0  0  0  0  0  0  0
   -1.8312   23.2489  -21.4456 C   0  0  0  0  0  0  0  0  0  0  0  0
   -3.1421   23.1059  -22.0297 N   0  0  0  0  0  0  0  0  0  0  0  0
   -4.2631   22.5888  -21.3009 C   0  0  0  0  0  0  0  0  0  0  0  0
   -5.4027   22.4781  -21.7917 O   0  0  0  0  0  0  0  0  0  0  0  0
   -4.0599   22.1867  -19.9627 N   0  0  0  0  0  0  0  0  0  0  0  0
   -2.7677   22.2901  -19.3430 C   0  0  0  0  0  0  0  0  0  0  0  0
   -2.5950   21.8871  -18.0714 N   0  0  0  0  0  0  0  0  0  0  0  0
   -5.1200   21.6655  -19.1673 C   0  0  0  0  0  0  0  0  0  0  0  0
   -5.9345   22.8350  -18.6347 C   0  0  0  0  0  0  0  0  0  0  0  0
   -7.4111   22.5967  -18.8010 C   0  0  0  0  0  0  0  0  0  0  0  0
   -7.7320   21.2828  -18.1824 N   0  0  0  0  0  0  0  0  0  0  0  0
   -7.0139   20.1890  -18.7836 C   0  0  0  0  0  0  0  0  0  0  0  0
   -6.0845   20.7560  -19.8531 C   0  0  0  0  0  0  0  0  0  0  0  0
   -8.6572   21.2217  -17.1279 C   0  0  0  0  0  0  0  0  0  0  0  0
   -9.1501   22.3853  -16.8106 O   0  0  0  0  0  0  0  0  0  0  0  0
   -9.1484   20.1375  -16.3527 C   0  0  0  0  0  0  0  0  0  0  0  0
   -8.7020   19.5991  -15.2546 C   0  0  0  0  0  0  0  0  0  0  0  0
   -9.2821   18.4590  -14.5088 C   0  0  0  0  0  0  0  0  0  0  0  0
  -10.4419   18.7600  -13.7531 N   0  0  0  0  0  0  0  0  0  0  0  0
  -11.3789   17.6722  -13.6317 C   0  0  0  0  0  0  0  0  0  0  0  0
  -10.0329   19.1862  -12.4266 C   0  0  0  0  0  0  0  0  0  0  0  0
   -3.3344   23.4945  -23.3839 C   0  0  0  0  0  0  0  0  0  0  0  0
   -2.7738   22.7317  -24.3747 C   0  0  0  0  0  0  0  0  0  0  0  0
   -1.8310   21.2856  -23.9893 Cl  0  0  0  0  0  0  0  0  0  0  0  0
   -2.9472   23.0943  -25.7047 C   0  0  0  0  0  0  0  0  0  0  0  0
   -3.6714   24.2059  -26.0660 C   0  0  0  0  0  0  0  0  0  0  0  0
   -4.2345   24.9713  -25.0667 C   0  0  0  0  0  0  0  0  0  0  0  0
   -4.0573   24.6039  -23.7376 C   0  0  0  0  0  0  0  0  0  0  0  0
   -4.7905   25.6070  -22.5135 Cl  0  0  0  0  0  0  0  0  0  0  0  0
   -2.3572   22.2862  -26.6715 O   0  0  0  0  0  0  0  0  0  0  0  0
   -1.1637   22.6779  -27.3145 C   0  0  0  0  0  0  0  0  0  0  0  0
   -4.9706   26.0993  -25.4073 O   0  0  0  0  0  0  0  0  0  0  0  0
   -4.4173   27.3729  -25.5433 C   0  0  0  0  0  0  0  0  0  0  0  0
   -1.2463   21.5190  -16.1263 N   0  0  0  0  0  0  0  0  0  0  0  0
   -0.4631   22.0070  -15.5653 H   0  0  0  0  0  0  0  0  0  0  0  0
   -3.0073   20.9472  -14.5574 C   0  0  0  0  0  0  0  0  0  0  0  0
   -3.7770   20.0738  -13.8617 C   0  0  0  0  0  0  0  0  0  0  0  0
   -3.5638   18.7233  -14.0320 C   0  0  0  0  0  0  0  0  0  0  0  0
   -2.6016   18.2787  -14.8802 C   0  0  0  0  0  0  0  0  0  0  0  0
   -1.8284   19.2050  -15.5790 C   0  0  0  0  0  0  0  0  0  0  0  0
   -1.9874   20.5552  -15.4570 C   0  0  0  0  0  0  0  0  0  0  0  0
   -4.3435   22.9052  -14.9834 C   0  0  0  0  0  0  0  0  0  0  0  0
   -3.1886   22.3207  -14.4159 O   0  0  0  0  0  0  0  0  0  0  0  0
 46 47  1  0  0  0
 47 40  1  0  0  0
 40 41  2  0  0  0
 41 42  1  0  0  0
 42 43  2  0  0  0
 43 44  1  0  0  0
 44 45  2  0  0  0
 45 38  1  0  0  0
 38  1  1  0  0  0
  1  2  2  0  0  0
  2  3  1  0  0  0
  3  4  2  0  0  0
  4  5  1  0  0  0
  5  6  1  0  0  0
  6  7  1  0  0  0
  7  8  2  0  0  0
  7  9  1  0  0  0
  9 12  1  0  0  0
 12 13  1  0  0  0
 13 14  1  0  0  0
 14 15  1  0  0  0
 15 16  1  0  0  0
 16 17  1  0  0  0
 15 18  1  0  0  0
 18 19  2  0  0  0
 18 20  1  0  0  0
 20 21  2  0  0  0
 21 22  1  0  0  0
 22 23  1  0  0  0
 23 24  1  0  0  0
 23 25  1  0  0  0
  9 10  1  0  0  0
 10 11  2  0  0  0
  6 26  1  0  0  0
 26 27  2  0  0  0
 27 28  1  0  0  0
 27 29  1  0  0  0
 29 34  1  0  0  0
 34 35  1  0  0  0
 29 30  2  0  0  0
 30 31  1  0  0  0
 31 36  1  0  0  0
 36 37  1  0  0  0
 31 32  2  0  0  0
 32 33  1  0  0  0
 45 40  1  0  0  0
 11  1  1  0  0  0
 32 26  1  0  0  0
 10  4  1  0  0  0
 17 12  1  0  0  0
 38 39  1  0  0  0
M  END
> <minimizedAffinity>
-6.00383

> <CNNscore>
0.0651587546

> <CNNaffinity>
6.4450254440

> <CNN_VS>
0.4199498296

> <CNNaffinity_variance>
0.1512506157

$$$$
[H]/C(C(=O)N1C([H])([H])C([H])([H])C([H])(N2C(=O)N(c3c(Cl)c(OC([H])([H])[H])c([H])c(OC([H])([H])[H])c3Cl)C([H])([H])c3c([H])nc(N([H])c4c([H])c([H])c([H])c([H])c4OC([H])([H])[H])nc32)C([H])([H])C1([H])[H])=C(/[H])C([H])([H])N(C([H])([H])[H])C([H])([H])[H]


 47 51  0  0  0  0  0  0  0  0999 V2000
   -0.7741   21.6396  -18.7728 C   0  0  0  0  0  0  0  0  0  0  0  0
   -0.4044   22.4714  -19.7348 N   0  0  0  0  0  0  0  0  0  0  0  0
   -1.1636   23.0699  -20.6323 C   0  0  0  0  0  0  0  0  0  0  0  0
   -2.5389   22.7972  -20.5677 C   0  0  0  0  0  0  0  0  0  0  0  0
   -3.4087   23.4530  -21.5516 C   0  0  0  0  0  0  0  0  0  0  0  0
   -4.8042   23.1026  -21.4519 N   0  0  0  0  0  0  0  0  0  0  0  0
   -5.3103   22.2149  -20.4463 C   0  0  0  0  0  0  0  0  0  0  0  0
   -6.5163   21.9204  -20.3418 O   0  0  0  0  0  0  0  0  0  0  0  0
   -4.3933   21.6498  -19.5334 N   0  0  0  0  0  0  0  0  0  0  0  0
   -2.9904   21.9519  -19.6052 C   0  0  0  0  0  0  0  0  0  0  0  0
   -2.1338   21.3900  -18.7336 N   0  0  0  0  0  0  0  0  0  0  0  0
   -4.8129   20.7614  -18.5024 C   0  0  0  0  0  0  0  0  0  0  0  0
   -5.4935   21.5809  -17.4161 C   0  0  0  0  0  0  0  0  0  0  0  0
   -6.7860   20.9464  -16.9783 C   0  0  0  0  0  0  0  0  0  0  0  0
   -6.4963   19.5364  -16.6039 N   0  0  0  0  0  0  0  0  0  0  0  0
   -5.9462   18.7687  -17.6909 C   0  0  0  0  0  0  0  0  0  0  0  0
   -5.7786   19.6928  -18.8938 C   0  0  0  0  0  0  0  0  0  0  0  0
   -6.7708   19.0963  -15.2991 C   0  0  0  0  0  0  0  0  0  0  0  0
   -7.2783   20.0263  -14.5407 O   0  0  0  0  0  0  0  0  0  0  0  0
   -6.5987   17.8387  -14.6614 C   0  0  0  0  0  0  0  0  0  0  0  0
   -7.4635   17.0222  -14.1317 C   0  0  0  0  0  0  0  0  0  0  0  0
   -7.1927   15.7204  -13.4803 C   0  0  0  0  0  0  0  0  0  0  0  0
   -5.8527   15.5199  -13.0670 N   0  0  0  0  0  0  0  0  0  0  0  0
   -5.6352   15.6513  -11.6487 C   0  0  0  0  0  0  0  0  0  0  0  0
   -5.4293   14.1978  -13.4929 C   0  0  0  0  0  0  0  0  0  0  0  0
   -5.7187   23.6601  -22.3871 C   0  0  0  0  0  0  0  0  0  0  0  0
   -5.7785   23.1280  -23.6484 C   0  0  0  0  0  0  0  0  0  0  0  0
   -4.7463   21.7695  -24.1149 Cl  0  0  0  0  0  0  0  0  0  0  0  0
   -6.6633   23.6587  -24.5788 C   0  0  0  0  0  0  0  0  0  0  0  0
   -7.4921   24.7127  -24.2739 C   0  0  0  0  0  0  0  0  0  0  0  0
   -7.4299   25.2459  -23.0038 C   0  0  0  0  0  0  0  0  0  0  0  0
   -6.5423   24.7109  -22.0771 C   0  0  0  0  0  0  0  0  0  0  0  0
   -6.5038   25.4229  -20.4852 Cl  0  0  0  0  0  0  0  0  0  0  0  0
   -6.6843   23.0823  -25.8450 O   0  0  0  0  0  0  0  0  0  0  0  0
   -6.2183   23.7911  -26.9726 C   0  0  0  0  0  0  0  0  0  0  0  0
   -8.2577   26.3113  -22.6723 O   0  0  0  0  0  0  0  0  0  0  0  0
   -9.5639   26.1608  -22.2057 C   0  0  0  0  0  0  0  0  0  0  0  0
    0.0637   21.0277  -17.8517 N   0  0  0  0  0  0  0  0  0  0  0  0
    0.4479   20.0689  -18.1669 H   0  0  0  0  0  0  0  0  0  0  0  0
    1.6838   22.1816  -16.4612 C   0  0  0  0  0  0  0  0  0  0  0  0
    2.1495   22.6573  -15.2796 C   0  0  0  0  0  0  0  0  0  0  0  0
    1.3987   22.4534  -14.1425 C   0  0  0  0  0  0  0  0  0  0  0  0
    0.2165   21.7891  -14.2067 C   0  0  0  0  0  0  0  0  0  0  0  0
   -0.2315   21.3132  -15.4384 C   0  0  0  0  0  0  0  0  0  0  0  0
    0.4621   21.4809  -16.6019 C   0  0  0  0  0  0  0  0  0  0  0  0
    2.7029   23.6872  -18.0409 C   0  0  0  0  0  0  0  0  0  0  0  0
    2.4100   22.3654  -17.6352 O   0  0  0  0  0  0  0  0  0  0  0  0
 46 47  1  0  0  0
 47 40  1  0  0  0
 40 41  2  0  0  0
 41 42  1  0  0  0
 42 43  2  0  0  0
 43 44  1  0  0  0
 44 45  2  0  0  0
 45 38  1  0  0  0
 38  1  1  0  0  0
  1  2  2  0  0  0
  2  3  1  0  0  0
  3  4  2  0  0  0
  4  5  1  0  0  0
  5  6  1  0  0  0
  6  7  1  0  0  0
  7  8  2  0  0  0
  7  9  1  0  0  0
  9 12  1  0  0  0
 12 13  1  0  0  0
 13 14  1  0  0  0
 14 15  1  0  0  0
 15 16  1  0  0  0
 16 17  1  0  0  0
 15 18  1  0  0  0
 18 19  2  0  0  0
 18 20  1  0  0  0
 20 21  2  0  0  0
 21 22  1  0  0  0
 22 23  1  0  0  0
 23 24  1  0  0  0
 23 25  1  0  0  0
  9 10  1  0  0  0
 10 11  2  0  0  0
  6 26  1  0  0  0
 26 27  2  0  0  0
 27 28  1  0  0  0
 27 29  1  0  0  0
 29 34  1  0  0  0
 34 35  1  0  0  0
 29 30  2  0  0  0
 30 31  1  0  0  0
 31 36  1  0  0  0
 36 37  1  0  0  0
 31 32  2  0  0  0
 32 33  1  0  0  0
 45 40  1  0  0  0
 11  1  1  0  0  0
 32 26  1  0  0  0
 10  4  1  0  0  0
 17 12  1  0  0  0
 38 39  1  0  0  0
M  END
> <minimizedAffinity>
-5.95696

> <CNNscore>
0.0589136183

> <CNNaffinity>
6.2669897079

> <CNN_VS>
0.3692110479

> <CNNaffinity_variance>
0.1693078279

$$$$
[H]/C(C(=O)N1C([H])([H])C([H])([H])C([H])(N2C(=O)N(c3c(Cl)c(OC([H])([H])[H])c([H])c(OC([H])([H])[H])c3Cl)C([H])([H])c3c([H])nc(N([H])c4c([H])c([H])c([H])c([H])c4OC([H])([H])[H])nc32)C([H])([H])C1([H])[H])=C(/[H])C([H])([H])N(C([H])([H])[H])C([H])([H])[H]


 47 51  0  0  0  0  0  0  0  0999 V2000
   -2.1534   22.6396  -25.5514 C   0  0  0  0  0  0  0  0  0  0  0  0
   -0.8837   22.2651  -25.5926 N   0  0  0  0  0  0  0  0  0  0  0  0
   -0.1218   21.8534  -24.5977 C   0  0  0  0  0  0  0  0  0  0  0  0
   -0.7237   21.8021  -23.3308 C   0  0  0  0  0  0  0  0  0  0  0  0
    0.0994   21.3434  -22.2053 C   0  0  0  0  0  0  0  0  0  0  0  0
   -0.5692   21.3480  -20.9273 N   0  0  0  0  0  0  0  0  0  0  0  0
   -1.9418   21.7318  -20.7722 C   0  0  0  0  0  0  0  0  0  0  0  0
   -2.5323   21.7220  -19.6753 O   0  0  0  0  0  0  0  0  0  0  0  0
   -2.6537   22.1399  -21.9213 N   0  0  0  0  0  0  0  0  0  0  0  0
   -2.0253   22.1721  -23.2131 C   0  0  0  0  0  0  0  0  0  0  0  0
   -2.7196   22.5785  -24.2911 N   0  0  0  0  0  0  0  0  0  0  0  0
   -4.0207   22.5336  -21.8557 C   0  0  0  0  0  0  0  0  0  0  0  0
   -4.8735   21.2774  -21.7586 C   0  0  0  0  0  0  0  0  0  0  0  0
   -5.9237   21.4080  -20.6887 C   0  0  0  0  0  0  0  0  0  0  0  0
   -6.6859   22.6581  -20.9501 N   0  0  0  0  0  0  0  0  0  0  0  0
   -5.8565   23.8351  -20.9337 C   0  0  0  0  0  0  0  0  0  0  0  0
   -4.4116   23.4001  -20.7050 C   0  0  0  0  0  0  0  0  0  0  0  0
   -8.0704   22.5907  -21.1744 C   0  0  0  0  0  0  0  0  0  0  0  0
   -8.5404   21.3769  -21.1158 O   0  0  0  0  0  0  0  0  0  0  0  0
   -9.0410   23.5904  -21.4503 C   0  0  0  0  0  0  0  0  0  0  0  0
   -8.9600   24.6974  -22.1308 C   0  0  0  0  0  0  0  0  0  0  0  0
  -10.0322   25.6907  -22.3675 C   0  0  0  0  0  0  0  0  0  0  0  0
   -9.8015   26.9719  -21.8090 N   0  0  0  0  0  0  0  0  0  0  0  0
  -10.9873   27.7694  -21.6245 C   0  0  0  0  0  0  0  0  0  0  0  0
   -9.1353   26.8065  -20.5294 C   0  0  0  0  0  0  0  0  0  0  0  0
    0.1599   20.9548  -19.7717 C   0  0  0  0  0  0  0  0  0  0  0  0
    0.4597   19.6287  -19.6008 C   0  0  0  0  0  0  0  0  0  0  0  0
   -0.0407   18.4197  -20.7911 Cl  0  0  0  0  0  0  0  0  0  0  0  0
    1.1693   19.2219  -18.4777 C   0  0  0  0  0  0  0  0  0  0  0  0
    1.5870   20.1154  -17.5196 C   0  0  0  0  0  0  0  0  0  0  0  0
    1.2841   21.4492  -17.6945 C   0  0  0  0  0  0  0  0  0  0  0  0
    0.5734   21.8503  -18.8201 C   0  0  0  0  0  0  0  0  0  0  0  0
    0.2166   23.5489  -18.9921 Cl  0  0  0  0  0  0  0  0  0  0  0  0
    1.4474   17.8645  -18.3519 O   0  0  0  0  0  0  0  0  0  0  0  0
    0.6509   17.0334  -17.5358 C   0  0  0  0  0  0  0  0  0  0  0  0
    1.6956   22.3708  -16.7397 O   0  0  0  0  0  0  0  0  0  0  0  0
    1.5075   22.2005  -15.3677 C   0  0  0  0  0  0  0  0  0  0  0  0
   -2.9156   23.0719  -26.6269 N   0  0  0  0  0  0  0  0  0  0  0  0
   -2.7311   22.5379  -27.5472 H   0  0  0  0  0  0  0  0  0  0  0  0
   -4.8907   24.0477  -27.6449 C   0  0  0  0  0  0  0  0  0  0  0  0
   -5.8561   24.9934  -27.7597 C   0  0  0  0  0  0  0  0  0  0  0  0
   -5.8491   26.0557  -26.8824 C   0  0  0  0  0  0  0  0  0  0  0  0
   -4.8934   26.1512  -25.9229 C   0  0  0  0  0  0  0  0  0  0  0  0
   -3.9158   25.1610  -25.8341 C   0  0  0  0  0  0  0  0  0  0  0  0
   -3.8649   24.0834  -26.6704 C   0  0  0  0  0  0  0  0  0  0  0  0
   -5.3303   23.1373  -29.8309 C   0  0  0  0  0  0  0  0  0  0  0  0
   -4.8600   22.9572  -28.5103 O   0  0  0  0  0  0  0  0  0  0  0  0
 46 47  1  0  0  0
 47 40  1  0  0  0
 40 41  2  0  0  0
 41 42  1  0  0  0
 42 43  2  0  0  0
 43 44  1  0  0  0
 44 45  2  0  0  0
 45 38  1  0  0  0
 38  1  1  0  0  0
  1  2  2  0  0  0
  2  3  1  0  0  0
  3  4  2  0  0  0
  4  5  1  0  0  0
  5  6  1  0  0  0
  6  7  1  0  0  0
  7  8  2  0  0  0
  7  9  1  0  0  0
  9 12  1  0  0  0
 12 13  1  0  0  0
 13 14  1  0  0  0
 14 15  1  0  0  0
 15 16  1  0  0  0
 16 17  1  0  0  0
 15 18  1  0  0  0
 18 19  2  0  0  0
 18 20  1  0  0  0
 20 21  2  0  0  0
 21 22  1  0  0  0
 22 23  1  0  0  0
 23 24  1  0  0  0
 23 25  1  0  0  0
  9 10  1  0  0  0
 10 11  2  0  0  0
  6 26  1  0  0  0
 26 27  2  0  0  0
 27 28  1  0  0  0
 27 29  1  0  0  0
 29 34  1  0  0  0
 34 35  1  0  0  0
 29 30  2  0  0  0
 30 31  1  0  0  0
 31 36  1  0  0  0
 36 37  1  0  0  0
 31 32  2  0  0  0
 32 33  1  0  0  0
 45 40  1  0  0  0
 11  1  1  0  0  0
 32 26  1  0  0  0
 10  4  1  0  0  0
 17 12  1  0  0  0
 38 39  1  0  0  0
M  END
> <minimizedAffinity>
-8.08786

> <CNNscore>
0.0443623811

> <CNNaffinity>
7.4132599831

> <CNN_VS>
0.3288698792

> <CNNaffinity_variance>
0.0859956294

$$$$
[H]/C(C(=O)N1C([H])([H])C([H])([H])C([H])(N2C(=O)N(c3c(Cl)c(OC([H])([H])[H])c([H])c(OC([H])([H])[H])c3Cl)C([H])([H])c3c([H])nc(N([H])c4c([H])c([H])c([H])c([H])c4OC([H])([H])[H])nc32)C([H])([H])C1([H])[H])=C(/[H])C([H])([H])N(C([H])([H])[H])C([H])([H])[H]


 47 51  0  0  0  0  0  0  0  0999 V2000
   -1.4244   22.3973  -24.0434 C   0  0  0  0  0  0  0  0  0  0  0  0
   -0.2482   22.2454  -24.6330 N   0  0  0  0  0  0  0  0  0  0  0  0
    0.8739   21.7903  -24.1099 C   0  0  0  0  0  0  0  0  0  0  0  0
    0.8256   21.4169  -22.7578 C   0  0  0  0  0  0  0  0  0  0  0  0
    2.0589   20.9025  -22.1502 C   0  0  0  0  0  0  0  0  0  0  0  0
    1.9495   20.5707  -20.7509 N   0  0  0  0  0  0  0  0  0  0  0  0
    0.7231   20.6946  -20.0187 C   0  0  0  0  0  0  0  0  0  0  0  0
    0.6150   20.3938  -18.8146 O   0  0  0  0  0  0  0  0  0  0  0  0
   -0.4136   21.1819  -20.7000 N   0  0  0  0  0  0  0  0  0  0  0  0
   -0.3493   21.5455  -22.0886 C   0  0  0  0  0  0  0  0  0  0  0  0
   -1.4418   22.0213  -22.7127 N   0  0  0  0  0  0  0  0  0  0  0  0
   -1.6708   21.3325  -20.0483 C   0  0  0  0  0  0  0  0  0  0  0  0
   -1.8503   20.1678  -19.0859 C   0  0  0  0  0  0  0  0  0  0  0  0
   -2.3355   20.6367  -17.7408 C   0  0  0  0  0  0  0  0  0  0  0  0
   -3.5569   21.4570  -17.9587 N   0  0  0  0  0  0  0  0  0  0  0  0
   -3.3198   22.6058  -18.7939 C   0  0  0  0  0  0  0  0  0  0  0  0
   -1.8627   22.5768  -19.2467 C   0  0  0  0  0  0  0  0  0  0  0  0
   -4.7676   21.0675  -17.3636 C   0  0  0  0  0  0  0  0  0  0  0  0
   -4.6624   19.9815  -16.6514 O   0  0  0  0  0  0  0  0  0  0  0  0
   -6.0703   21.6328  -17.3951 C   0  0  0  0  0  0  0  0  0  0  0  0
   -6.9538   21.6944  -18.3494 C   0  0  0  0  0  0  0  0  0  0  0  0
   -8.2989   22.3108  -18.2943 C   0  0  0  0  0  0  0  0  0  0  0  0
   -8.7931   22.7920  -19.5316 N   0  0  0  0  0  0  0  0  0  0  0  0
   -8.5566   21.9192  -20.6534 C   0  0  0  0  0  0  0  0  0  0  0  0
  -10.2206   23.0241  -19.4017 C   0  0  0  0  0  0  0  0  0  0  0  0
    3.1033   20.0994  -20.0667 C   0  0  0  0  0  0  0  0  0  0  0  0
    3.4264   18.7708  -20.1565 C   0  0  0  0  0  0  0  0  0  0  0  0
    2.4376   17.6539  -21.1070 Cl  0  0  0  0  0  0  0  0  0  0  0  0
    4.5484   18.2883  -19.4941 C   0  0  0  0  0  0  0  0  0  0  0  0
    5.3564   19.1083  -18.7421 C   0  0  0  0  0  0  0  0  0  0  0  0
    5.0289   20.4449  -18.6539 C   0  0  0  0  0  0  0  0  0  0  0  0
    3.9048   20.9219  -19.3186 C   0  0  0  0  0  0  0  0  0  0  0  0
    3.5359   22.6204  -19.1734 Cl  0  0  0  0  0  0  0  0  0  0  0  0
    4.8318   16.9318  -19.6175 O   0  0  0  0  0  0  0  0  0  0  0  0
    4.5433   16.0321  -18.5694 C   0  0  0  0  0  0  0  0  0  0  0  0
    5.8304   21.2930  -17.8999 O   0  0  0  0  0  0  0  0  0  0  0  0
    5.7403   21.4132  -16.5128 C   0  0  0  0  0  0  0  0  0  0  0  0
   -2.5801   22.8869  -24.6344 N   0  0  0  0  0  0  0  0  0  0  0  0
   -3.3298   23.2248  -23.9344 H   0  0  0  0  0  0  0  0  0  0  0  0
   -4.2228   23.2524  -26.3829 C   0  0  0  0  0  0  0  0  0  0  0  0
   -4.6133   23.3711  -27.6763 C   0  0  0  0  0  0  0  0  0  0  0  0
   -3.6666   23.2354  -28.6681 C   0  0  0  0  0  0  0  0  0  0  0  0
   -2.3693   22.9877  -28.3538 C   0  0  0  0  0  0  0  0  0  0  0  0
   -2.0034   22.8712  -27.0134 C   0  0  0  0  0  0  0  0  0  0  0  0
   -2.8899   22.9947  -25.9829 C   0  0  0  0  0  0  0  0  0  0  0  0
   -6.5132   23.5109  -25.6843 C   0  0  0  0  0  0  0  0  0  0  0  0
   -5.1463   23.3825  -25.3488 O   0  0  0  0  0  0  0  0  0  0  0  0
 46 47  1  0  0  0
 47 40  1  0  0  0
 40 41  2  0  0  0
 41 42  1  0  0  0
 42 43  2  0  0  0
 43 44  1  0  0  0
 44 45  2  0  0  0
 45 38  1  0  0  0
 38  1  1  0  0  0
  1  2  2  0  0  0
  2  3  1  0  0  0
  3  4  2  0  0  0
  4  5  1  0  0  0
  5  6  1  0  0  0
  6  7  1  0  0  0
  7  8  2  0  0  0
  7  9  1  0  0  0
  9 12  1  0  0  0
 12 13  1  0  0  0
 13 14  1  0  0  0
 14 15  1  0  0  0
 15 16  1  0  0  0
 16 17  1  0  0  0
 15 18  1  0  0  0
 18 19  2  0  0  0
 18 20  1  0  0  0
 20 21  2  0  0  0
 21 22  1  0  0  0
 22 23  1  0  0  0
 23 24  1  0  0  0
 23 25  1  0  0  0
  9 10  1  0  0  0
 10 11  2  0  0  0
  6 26  1  0  0  0
 26 27  2  0  0  0
 27 28  1  0  0  0
 27 29  1  0  0  0
 29 34  1  0  0  0
 34 35  1  0  0  0
 29 30  2  0  0  0
 30 31  1  0  0  0
 31 36  1  0  0  0
 36 37  1  0  0  0
 31 32  2  0  0  0
 32 33  1  0  0  0
 45 40  1  0  0  0
 11  1  1  0  0  0
 32 26  1  0  0  0
 10  4  1  0  0  0
 17 12  1  0  0  0
 38 39  1  0  0  0
M  END
> <minimizedAffinity>
-6.87513

> <CNNscore>
0.0411528423

> <CNNaffinity>
6.8575658798

> <CNN_VS>
0.2822083235

> <CNNaffinity_variance>
0.0631001145

$$$$
[H]/C(C(=O)N1C([H])([H])C([H])([H])C([H])(N2C(=O)N(c3c(Cl)c(OC([H])([H])[H])c([H])c(OC([H])([H])[H])c3Cl)C([H])([H])c3c([H])nc(N([H])c4c([H])c([H])c([H])c([H])c4OC([H])([H])[H])nc32)C([H])([H])C1([H])[H])=C(/[H])C([H])([H])N(C([H])([H])[H])C([H])([H])[H]


 47 51  0  0  0  0  0  0  0  0999 V2000
   -0.8821   20.7909  -19.2949 C   0  0  0  0  0  0  0  0  0  0  0  0
    0.0069   21.1372  -20.2136 N   0  0  0  0  0  0  0  0  0  0  0  0
   -0.2041   21.7464  -21.3644 C   0  0  0  0  0  0  0  0  0  0  0  0
   -1.5361   22.0733  -21.6622 C   0  0  0  0  0  0  0  0  0  0  0  0
   -1.8002   22.7560  -22.9346 C   0  0  0  0  0  0  0  0  0  0  0  0
   -3.1919   23.0313  -23.1943 N   0  0  0  0  0  0  0  0  0  0  0  0
   -4.2335   22.7012  -22.2661 C   0  0  0  0  0  0  0  0  0  0  0  0
   -5.4361   22.9510  -22.4743 O   0  0  0  0  0  0  0  0  0  0  0  0
   -3.8733   22.0620  -21.0597 N   0  0  0  0  0  0  0  0  0  0  0  0
   -2.5025   21.7481  -20.7649 C   0  0  0  0  0  0  0  0  0  0  0  0
   -2.1850   21.1257  -19.6155 N   0  0  0  0  0  0  0  0  0  0  0  0
   -4.8449   21.7029  -20.0824 C   0  0  0  0  0  0  0  0  0  0  0  0
   -5.0861   22.9084  -19.1861 C   0  0  0  0  0  0  0  0  0  0  0  0
   -6.5561   23.1446  -18.9673 C   0  0  0  0  0  0  0  0  0  0  0  0
   -7.1523   21.8743  -18.4745 N   0  0  0  0  0  0  0  0  0  0  0  0
   -6.9893   20.7821  -19.3987 C   0  0  0  0  0  0  0  0  0  0  0  0
   -6.1824   21.2818  -20.5938 C   0  0  0  0  0  0  0  0  0  0  0  0
   -7.7903   21.8484  -17.2239 C   0  0  0  0  0  0  0  0  0  0  0  0
   -7.7857   23.0041  -16.6223 O   0  0  0  0  0  0  0  0  0  0  0  0
   -8.4319   20.8063  -16.5027 C   0  0  0  0  0  0  0  0  0  0  0  0
   -9.1854   20.8380  -15.4415 C   0  0  0  0  0  0  0  0  0  0  0  0
   -9.8165   19.6913  -14.7492 C   0  0  0  0  0  0  0  0  0  0  0  0
   -9.2174   18.4321  -14.9987 N   0  0  0  0  0  0  0  0  0  0  0  0
   -8.3428   17.9651  -13.9534 C   0  0  0  0  0  0  0  0  0  0  0  0
  -10.2684   17.4532  -15.2127 C   0  0  0  0  0  0  0  0  0  0  0  0
   -3.5490   23.6572  -24.4200 C   0  0  0  0  0  0  0  0  0  0  0  0
   -3.6071   22.8950  -25.5572 C   0  0  0  0  0  0  0  0  0  0  0  0
   -3.2520   21.1628  -25.5133 Cl  0  0  0  0  0  0  0  0  0  0  0  0
   -3.9517   23.4865  -26.7663 C   0  0  0  0  0  0  0  0  0  0  0  0
   -4.2406   24.8274  -26.8625 C   0  0  0  0  0  0  0  0  0  0  0  0
   -4.1816   25.5918  -25.7163 C   0  0  0  0  0  0  0  0  0  0  0  0
   -3.8358   24.9945  -24.5095 C   0  0  0  0  0  0  0  0  0  0  0  0
   -3.7758   26.0070  -23.0905 Cl  0  0  0  0  0  0  0  0  0  0  0  0
   -3.9958   22.6683  -27.8907 O   0  0  0  0  0  0  0  0  0  0  0  0
   -4.7720   23.0217  -29.0150 C   0  0  0  0  0  0  0  0  0  0  0  0
   -4.4694   26.9491  -25.7887 O   0  0  0  0  0  0  0  0  0  0  0  0
   -5.7136   27.4947  -25.4709 C   0  0  0  0  0  0  0  0  0  0  0  0
   -0.6135   20.1443  -18.0973 N   0  0  0  0  0  0  0  0  0  0  0  0
   -0.3327   19.1070  -18.2041 H   0  0  0  0  0  0  0  0  0  0  0  0
    0.5261   21.1089  -16.1841 C   0  0  0  0  0  0  0  0  0  0  0  0
    0.5721   21.6154  -14.9269 C   0  0  0  0  0  0  0  0  0  0  0  0
   -0.5970   21.6933  -14.2020 C   0  0  0  0  0  0  0  0  0  0  0  0
   -1.7703   21.2706  -14.7384 C   0  0  0  0  0  0  0  0  0  0  0  0
   -1.7805   20.7548  -16.0338 C   0  0  0  0  0  0  0  0  0  0  0  0
   -0.6597   20.6498  -16.8057 C   0  0  0  0  0  0  0  0  0  0  0  0
    2.3029   22.2071  -17.3832 C   0  0  0  0  0  0  0  0  0  0  0  0
    1.6837   21.0120  -16.9522 O   0  0  0  0  0  0  0  0  0  0  0  0
 46 47  1  0  0  0
 47 40  1  0  0  0
 40 41  2  0  0  0
 41 42  1  0  0  0
 42 43  2  0  0  0
 43 44  1  0  0  0
 44 45  2  0  0  0
 45 38  1  0  0  0
 38  1  1  0  0  0
  1  2  2  0  0  0
  2  3  1  0  0  0
  3  4  2  0  0  0
  4  5  1  0  0  0
  5  6  1  0  0  0
  6  7  1  0  0  0
  7  8  2  0  0  0
  7  9  1  0  0  0
  9 12  1  0  0  0
 12 13  1  0  0  0
 13 14  1  0  0  0
 14 15  1  0  0  0
 15 16  1  0  0  0
 16 17  1  0  0  0
 15 18  1  0  0  0
 18 19  2  0  0  0
 18 20  1  0  0  0
 20 21  2  0  0  0
 21 22  1  0  0  0
 22 23  1  0  0  0
 23 24  1  0  0  0
 23 25  1  0  0  0
  9 10  1  0  0  0
 10 11  2  0  0  0
  6 26  1  0  0  0
 26 27  2  0  0  0
 27 28  1  0  0  0
 27 29  1  0  0  0
 29 34  1  0  0  0
 34 35  1  0  0  0
 29 30  2  0  0  0
 30 31  1  0  0  0
 31 36  1  0  0  0
 36 37  1  0  0  0
 31 32  2  0  0  0
 32 33  1  0  0  0
 45 40  1  0  0  0
 11  1  1  0  0  0
 32 26  1  0  0  0
 10  4  1  0  0  0
 17 12  1  0  0  0
 38 39  1  0  0  0
M  END
> <minimizedAffinity>
-6.17931

> <CNNscore>
0.0408462808

> <CNNaffinity>
6.7217826843

> <CNN_VS>
0.2745598257

> <CNNaffinity_variance>
0.1435321122

$$$$
[H]/C(C(=O)N1C([H])([H])C([H])([H])C([H])(N2C(=O)N(c3c(Cl)c(OC([H])([H])[H])c([H])c(OC([H])([H])[H])c3Cl)C([H])([H])c3c([H])nc(N([H])c4c([H])c([H])c([H])c([H])c4OC([H])([H])[H])nc32)C([H])([H])C1([H])[H])=C(/[H])C([H])([H])N(C([H])([H])[H])C([H])([H])[H]


 47 51  0  0  0  0  0  0  0  0999 V2000
   -4.3046   24.2059  -22.0533 C   0  0  0  0  0  0  0  0  0  0  0  0
   -5.5457   24.6581  -21.9568 N   0  0  0  0  0  0  0  0  0  0  0  0
   -6.4266   24.4263  -21.0026 C   0  0  0  0  0  0  0  0  0  0  0  0
   -6.0046   23.5967  -19.9521 C   0  0  0  0  0  0  0  0  0  0  0  0
   -6.9629   23.3250  -18.8737 C   0  0  0  0  0  0  0  0  0  0  0  0
   -6.4781   22.4382  -17.8448 N   0  0  0  0  0  0  0  0  0  0  0  0
   -5.1511   21.8955  -17.8515 C   0  0  0  0  0  0  0  0  0  0  0  0
   -4.7181   21.1431  -16.9581 O   0  0  0  0  0  0  0  0  0  0  0  0
   -4.2983   22.2332  -18.9251 N   0  0  0  0  0  0  0  0  0  0  0  0
   -4.7424   23.0961  -19.9847 C   0  0  0  0  0  0  0  0  0  0  0  0
   -3.9169   23.3919  -21.0046 N   0  0  0  0  0  0  0  0  0  0  0  0
   -2.9648   21.7401  -19.0068 C   0  0  0  0  0  0  0  0  0  0  0  0
   -2.0838   22.6009  -18.1136 C   0  0  0  0  0  0  0  0  0  0  0  0
   -1.1758   21.7568  -17.2606 C   0  0  0  0  0  0  0  0  0  0  0  0
   -0.4347   20.8336  -18.1609 N   0  0  0  0  0  0  0  0  0  0  0  0
   -1.3032   19.9668  -18.9143 C   0  0  0  0  0  0  0  0  0  0  0  0
   -2.7479   20.3268  -18.5791 C   0  0  0  0  0  0  0  0  0  0  0  0
    0.9683   20.8792  -18.1963 C   0  0  0  0  0  0  0  0  0  0  0  0
    1.4727   21.7677  -17.3877 O   0  0  0  0  0  0  0  0  0  0  0  0
    1.9272   20.1437  -18.9427 C   0  0  0  0  0  0  0  0  0  0  0  0
    1.8801   19.6517  -20.1472 C   0  0  0  0  0  0  0  0  0  0  0  0
    2.9361   18.8893  -20.8516 C   0  0  0  0  0  0  0  0  0  0  0  0
    3.9445   19.6766  -21.4599 N   0  0  0  0  0  0  0  0  0  0  0  0
    5.1153   18.9427  -21.8680 C   0  0  0  0  0  0  0  0  0  0  0  0
    3.3754   20.3460  -22.6161 C   0  0  0  0  0  0  0  0  0  0  0  0
   -7.3491   22.0870  -16.7773 C   0  0  0  0  0  0  0  0  0  0  0  0
   -7.3293   22.8424  -15.6343 C   0  0  0  0  0  0  0  0  0  0  0  0
   -6.2487   24.2341  -15.4795 Cl  0  0  0  0  0  0  0  0  0  0  0  0
   -8.1705   22.5157  -14.5779 C   0  0  0  0  0  0  0  0  0  0  0  0
   -9.0337   21.4471  -14.6405 C   0  0  0  0  0  0  0  0  0  0  0  0
   -9.0516   20.6890  -15.7922 C   0  0  0  0  0  0  0  0  0  0  0  0
   -8.2073   21.0205  -16.8458 C   0  0  0  0  0  0  0  0  0  0  0  0
   -8.2699   20.0283  -18.2791 Cl  0  0  0  0  0  0  0  0  0  0  0  0
   -8.1110   23.3144  -13.4402 O   0  0  0  0  0  0  0  0  0  0  0  0
   -9.2747   23.9134  -12.9127 C   0  0  0  0  0  0  0  0  0  0  0  0
   -9.9154   19.6043  -15.8788 O   0  0  0  0  0  0  0  0  0  0  0  0
  -10.1373   18.7060  -14.8345 C   0  0  0  0  0  0  0  0  0  0  0  0
   -3.4129   24.4728  -23.0820 N   0  0  0  0  0  0  0  0  0  0  0  0
   -2.9066   25.4230  -22.9976 H   0  0  0  0  0  0  0  0  0  0  0  0
   -3.7407   23.9212  -25.4224 C   0  0  0  0  0  0  0  0  0  0  0  0
   -3.4930   23.2050  -26.5472 C   0  0  0  0  0  0  0  0  0  0  0  0
   -2.5611   22.1915  -26.4942 C   0  0  0  0  0  0  0  0  0  0  0  0
   -1.9053   21.9177  -25.3375 C   0  0  0  0  0  0  0  0  0  0  0  0
   -2.1853   22.6740  -24.2001 C   0  0  0  0  0  0  0  0  0  0  0  0
   -3.0957   23.6909  -24.1838 C   0  0  0  0  0  0  0  0  0  0  0  0
   -4.5279   25.9808  -26.3915 C   0  0  0  0  0  0  0  0  0  0  0  0
   -4.6744   24.9543  -25.4311 O   0  0  0  0  0  0  0  0  0  0  0  0
 46 47  1  0  0  0
 47 40  1  0  0  0
 40 41  2  0  0  0
 41 42  1  0  0  0
 42 43  2  0  0  0
 43 44  1  0  0  0
 44 45  2  0  0  0
 45 38  1  0  0  0
 38  1  1  0  0  0
  1  2  2  0  0  0
  2  3  1  0  0  0
  3  4  2  0  0  0
  4  5  1  0  0  0
  5  6  1  0  0  0
  6  7  1  0  0  0
  7  8  2  0  0  0
  7  9  1  0  0  0
  9 12  1  0  0  0
 12 13  1  0  0  0
 13 14  1  0  0  0
 14 15  1  0  0  0
 15 16  1  0  0  0
 16 17  1  0  0  0
 15 18  1  0  0  0
 18 19  2  0  0  0
 18 20  1  0  0  0
 20 21  2  0  0  0
 21 22  1  0  0  0
 22 23  1  0  0  0
 23 24  1  0  0  0
 23 25  1  0  0  0
  9 10  1  0  0  0
 10 11  2  0  0  0
  6 26  1  0  0  0
 26 27  2  0  0  0
 27 28  1  0  0  0
 27 29  1  0  0  0
 29 34  1  0  0  0
 34 35  1  0  0  0
 29 30  2  0  0  0
 30 31  1  0  0  0
 31 36  1  0  0  0
 36 37  1  0  0  0
 31 32  2  0  0  0
 32 33  1  0  0  0
 45 40  1  0  0  0
 11  1  1  0  0  0
 32 26  1  0  0  0
 10  4  1  0  0  0
 17 12  1  0  0  0
 38 39  1  0  0  0
M  END
> <minimizedAffinity>
-6.86358

> <CNNscore>
0.0380880535

> <CNNaffinity>
6.3736190796

> <CNN_VS>
0.2427587509

> <CNNaffinity_variance>
0.3098534346

$$$$
[H]/C(C(=O)N1C([H])([H])C([H])([H])C([H])(N2C(=O)N(c3c(Cl)c(OC([H])([H])[H])c([H])c(OC([H])([H])[H])c3Cl)C([H])([H])c3c([H])nc(N([H])c4c([H])c([H])c([H])c([H])c4OC([H])([H])[H])nc32)C([H])([H])C1([H])[H])=C(/[H])C([H])([H])N(C([H])([H])[H])C([H])([H])[H]


 47 51  0  0  0  0  0  0  0  0999 V2000
   -2.2437   22.4684  -25.4074 C   0  0  0  0  0  0  0  0  0  0  0  0
   -0.9619   22.1580  -25.5291 N   0  0  0  0  0  0  0  0  0  0  0  0
   -0.1295   21.7470  -24.5921 C   0  0  0  0  0  0  0  0  0  0  0  0
   -0.6598   21.6192  -23.2988 C   0  0  0  0  0  0  0  0  0  0  0  0
    0.2429   21.1593  -22.2365 C   0  0  0  0  0  0  0  0  0  0  0  0
   -0.3558   21.0836  -20.9266 N   0  0  0  0  0  0  0  0  0  0  0  0
   -1.7345   21.3940  -20.6856 C   0  0  0  0  0  0  0  0  0  0  0  0
   -2.2644   21.3146  -19.5609 O   0  0  0  0  0  0  0  0  0  0  0  0
   -2.5251   21.8096  -21.7792 N   0  0  0  0  0  0  0  0  0  0  0  0
   -1.9690   21.9207  -23.0993 C   0  0  0  0  0  0  0  0  0  0  0  0
   -2.7382   22.3328  -24.1230 N   0  0  0  0  0  0  0  0  0  0  0  0
   -3.9036   22.1337  -21.6273 C   0  0  0  0  0  0  0  0  0  0  0  0
   -4.0272   23.6460  -21.5157 C   0  0  0  0  0  0  0  0  0  0  0  0
   -5.1297   24.1731  -22.3939 C   0  0  0  0  0  0  0  0  0  0  0  0
   -6.3708   23.4220  -22.0656 N   0  0  0  0  0  0  0  0  0  0  0  0
   -6.2423   22.0041  -22.2812 C   0  0  0  0  0  0  0  0  0  0  0  0
   -4.8137   21.7156  -22.7339 C   0  0  0  0  0  0  0  0  0  0  0  0
   -7.4993   24.1179  -21.6034 C   0  0  0  0  0  0  0  0  0  0  0  0
   -7.3101   25.4045  -21.5218 O   0  0  0  0  0  0  0  0  0  0  0  0
   -8.7938   23.6824  -21.2130 C   0  0  0  0  0  0  0  0  0  0  0  0
   -9.3490   23.5938  -20.0387 C   0  0  0  0  0  0  0  0  0  0  0  0
  -10.7162   23.1223  -19.7211 C   0  0  0  0  0  0  0  0  0  0  0  0
  -10.7891   22.0929  -18.7508 N   0  0  0  0  0  0  0  0  0  0  0  0
   -9.5124   21.6233  -18.2759 C   0  0  0  0  0  0  0  0  0  0  0  0
  -11.5690   22.5728  -17.6238 C   0  0  0  0  0  0  0  0  0  0  0  0
    0.4517   20.6834  -19.8268 C   0  0  0  0  0  0  0  0  0  0  0  0
    0.8762   21.6369  -18.9390 C   0  0  0  0  0  0  0  0  0  0  0  0
    0.4304   23.3364  -19.1435 Cl  0  0  0  0  0  0  0  0  0  0  0  0
    1.6679   21.2684  -17.8584 C   0  0  0  0  0  0  0  0  0  0  0  0
    2.0448   19.9632  -17.6458 C   0  0  0  0  0  0  0  0  0  0  0  0
    1.6157   19.0059  -18.5407 C   0  0  0  0  0  0  0  0  0  0  0  0
    0.8240   19.3806  -19.6204 C   0  0  0  0  0  0  0  0  0  0  0  0
    0.3092   18.1301  -20.7220 Cl  0  0  0  0  0  0  0  0  0  0  0  0
    2.0723   22.2750  -16.9871 O   0  0  0  0  0  0  0  0  0  0  0  0
    3.3692   22.8253  -17.0663 C   0  0  0  0  0  0  0  0  0  0  0  0
    1.9838   17.6803  -18.3467 O   0  0  0  0  0  0  0  0  0  0  0  0
    1.3511   16.8254  -17.4436 C   0  0  0  0  0  0  0  0  0  0  0  0
   -3.0817   22.9030  -26.4240 N   0  0  0  0  0  0  0  0  0  0  0  0
   -3.1843   22.2086  -27.2446 H   0  0  0  0  0  0  0  0  0  0  0  0
   -4.3625   24.4766  -27.7556 C   0  0  0  0  0  0  0  0  0  0  0  0
   -5.0675   25.6206  -27.9382 C   0  0  0  0  0  0  0  0  0  0  0  0
   -5.2441   26.4671  -26.8655 C   0  0  0  0  0  0  0  0  0  0  0  0
   -4.7215   26.1592  -25.6510 C   0  0  0  0  0  0  0  0  0  0  0  0
   -4.0016   24.9747  -25.4995 C   0  0  0  0  0  0  0  0  0  0  0  0
   -3.7899   24.0928  -26.5195 C   0  0  0  0  0  0  0  0  0  0  0  0
   -5.2889   23.1402  -29.5323 C   0  0  0  0  0  0  0  0  0  0  0  0
   -4.1600   23.5923  -28.8122 O   0  0  0  0  0  0  0  0  0  0  0  0
 46 47  1  0  0  0
 47 40  1  0  0  0
 40 41  2  0  0  0
 41 42  1  0  0  0
 42 43  2  0  0  0
 43 44  1  0  0  0
 44 45  2  0  0  0
 45 38  1  0  0  0
 38  1  1  0  0  0
  1  2  2  0  0  0
  2  3  1  0  0  0
  3  4  2  0  0  0
  4  5  1  0  0  0
  5  6  1  0  0  0
  6  7  1  0  0  0
  7  8  2  0  0  0
  7  9  1  0  0  0
  9 12  1  0  0  0
 12 13  1  0  0  0
 13 14  1  0  0  0
 14 15  1  0  0  0
 15 16  1  0  0  0
 16 17  1  0  0  0
 15 18  1  0  0  0
 18 19  2  0  0  0
 18 20  1  0  0  0
 20 21  2  0  0  0
 21 22  1  0  0  0
 22 23  1  0  0  0
 23 24  1  0  0  0
 23 25  1  0  0  0
  9 10  1  0  0  0
 10 11  2  0  0  0
  6 26  1  0  0  0
 26 27  2  0  0  0
 27 28  1  0  0  0
 27 29  1  0  0  0
 29 34  1  0  0  0
 34 35  1  0  0  0
 29 30  2  0  0  0
 30 31  1  0  0  0
 31 36  1  0  0  0
 36 37  1  0  0  0
 31 32  2  0  0  0
 32 33  1  0  0  0
 45 40  1  0  0  0
 11  1  1  0  0  0
 32 26  1  0  0  0
 10  4  1  0  0  0
 17 12  1  0  0  0
 38 39  1  0  0  0
M  END
> <minimizedAffinity>
-8.14095

> <CNNscore>
0.0352260396

> <CNNaffinity>
7.1618547440

> <CNN_VS>
0.2522837818

> <CNNaffinity_variance>
0.1169068590

$$$$
[H]c1nc(N([H])[H])c(-c2nn(-c3c([H])c(OC([H])([H])[H])c([H])c(OC([H])([H])[H])c3[H])c(=O)c([H])c2[H])c([H])c1-c1c([H])nn(C2([H])C([H])([H])C([H])([H])N(C([H])([H])[H])C([H])([H])C2([H])[H])c1[H]


 38 42  0  0  0  0  0  0  0  0999 V2000
   -2.2522   22.7738  -26.4678 C   0  0  0  0  0  0  0  0  0  0  0  0
   -1.6098   22.3826  -25.3264 C   0  0  0  0  0  0  0  0  0  0  0  0
   -0.2596   22.0956  -25.3308 C   0  0  0  0  0  0  0  0  0  0  0  0
    0.4219   22.2156  -26.5224 C   0  0  0  0  0  0  0  0  0  0  0  0
   -0.1792   22.5980  -27.6638 N   0  0  0  0  0  0  0  0  0  0  0  0
   -1.5054   22.8757  -27.6409 C   0  0  0  0  0  0  0  0  0  0  0  0
   -2.1998   23.2829  -28.8050 N   0  0  0  0  0  0  0  0  0  0  0  0
   -2.2957   24.2775  -29.0775 H   0  0  0  0  0  0  0  0  0  0  0  0
   -2.6278   22.5566  -29.4063 H   0  0  0  0  0  0  0  0  0  0  0  0
   -5.6903   23.4528  -25.3529 N   0  0  0  0  0  0  0  0  0  0  0  0
   -4.4145   23.1773  -25.3842 N   0  0  0  0  0  0  0  0  0  0  0  0
   -3.6642   23.0836  -26.5047 C   0  0  0  0  0  0  0  0  0  0  0  0
   -4.2945   23.2948  -27.7010 C   0  0  0  0  0  0  0  0  0  0  0  0
   -5.6657   23.5960  -27.7494 C   0  0  0  0  0  0  0  0  0  0  0  0
   -6.3051   23.6595  -26.5315 C   0  0  0  0  0  0  0  0  0  0  0  0
   -7.5428   23.9273  -26.5109 O   0  0  0  0  0  0  0  0  0  0  0  0
   -7.4925   22.5391  -22.2113 C   0  0  0  0  0  0  0  0  0  0  0  0
   -7.9379   23.7866  -21.8268 C   0  0  0  0  0  0  0  0  0  0  0  0
   -7.6594   24.9200  -22.5760 C   0  0  0  0  0  0  0  0  0  0  0  0
   -6.9104   24.7802  -23.7433 C   0  0  0  0  0  0  0  0  0  0  0  0
   -6.4509   23.5447  -24.1536 C   0  0  0  0  0  0  0  0  0  0  0  0
   -6.7606   22.4597  -23.3672 C   0  0  0  0  0  0  0  0  0  0  0  0
   -8.6302   21.5625  -20.2596 C   0  0  0  0  0  0  0  0  0  0  0  0
   -7.8180   21.4622  -21.4015 O   0  0  0  0  0  0  0  0  0  0  0  0
   -8.1346   26.1482  -22.1385 O   0  0  0  0  0  0  0  0  0  0  0  0
   -8.4202   26.4358  -20.8035 C   0  0  0  0  0  0  0  0  0  0  0  0
    0.4442   21.6754  -24.1211 C   0  0  0  0  0  0  0  0  0  0  0  0
   -0.1033   21.4737  -22.8716 C   0  0  0  0  0  0  0  0  0  0  0  0
    0.8841   21.0964  -22.0493 N   0  0  0  0  0  0  0  0  0  0  0  0
    2.0344   21.0409  -22.6848 N   0  0  0  0  0  0  0  0  0  0  0  0
    1.7991   21.3906  -23.9595 C   0  0  0  0  0  0  0  0  0  0  0  0
    3.3035   20.6689  -22.0924 C   0  0  0  0  0  0  0  0  0  0  0  0
    3.2642   21.0451  -20.6354 C   0  0  0  0  0  0  0  0  0  0  0  0
    3.8978   19.9770  -19.7711 C   0  0  0  0  0  0  0  0  0  0  0  0
    3.1398   18.7426  -19.8269 N   0  0  0  0  0  0  0  0  0  0  0  0
    3.7623   17.6731  -19.1129 C   0  0  0  0  0  0  0  0  0  0  0  0
    2.7389   18.4060  -21.1690 C   0  0  0  0  0  0  0  0  0  0  0  0
    3.5085   19.1705  -22.2164 C   0  0  0  0  0  0  0  0  0  0  0  0
 23 24  1  0  0  0
 24 17  1  0  0  0
 17 18  2  0  0  0
 18 19  1  0  0  0
 19 25  1  0  0  0
 25 26  1  0  0  0
 19 20  2  0  0  0
 20 21  1  0  0  0
 21 22  2  0  0  0
 21 10  1  0  0  0
 10 11  1  0  0  0
 11 12  2  0  0  0
 12 13  1  0  0  0
 13 14  2  0  0  0
 14 15  1  0  0  0
 15 16  2  0  0  0
 12  1  1  0  0  0
  1  2  2  0  0  0
  2  3  1  0  0  0
  3  4  2  0  0  0
  4  5  1  0  0  0
  5  6  2  0  0  0
  6  7  1  0  0  0
  3 27  1  0  0  0
 27 28  1  0  0  0
 28 29  2  0  0  0
 29 30  1  0  0  0
 30 31  1  0  0  0
 30 32  1  0  0  0
 32 33  1  0  0  0
 33 34  1  0  0  0
 34 35  1  0  0  0
 35 36  1  0  0  0
 35 37  1  0  0  0
 37 38  1  0  0  0
 22 17  1  0  0  0
 15 10  1  0  0  0
  6  1  1  0  0  0
 31 27  2  0  0  0
 38 32  1  0  0  0
  7  8  1  0  0  0
  7  9  1  0  0  0
M  END
> <minimizedAffinity>
-9.77379

> <CNNscore>
0.6841838956

> <CNNaffinity>
7.5551481247

> <CNN_VS>
5.1691107750

> <CNNaffinity_variance>
0.1821402609

$$$$
[H]c1nc(N([H])[H])c(-c2nn(-c3c([H])c(OC([H])([H])[H])c([H])c(OC([H])([H])[H])c3[H])c(=O)c([H])c2[H])c([H])c1-c1c([H])nn(C2([H])C([H])([H])C([H])([H])N(C([H])([H])[H])C([H])([H])C2([H])[H])c1[H]


 38 42  0  0  0  0  0  0  0  0999 V2000
   -2.2597   22.7855  -26.4629 C   0  0  0  0  0  0  0  0  0  0  0  0
   -1.6190   22.3964  -25.3199 C   0  0  0  0  0  0  0  0  0  0  0  0
   -0.2706   22.1015  -25.3234 C   0  0  0  0  0  0  0  0  0  0  0  0
    0.4111   22.2115  -26.5159 C   0  0  0  0  0  0  0  0  0  0  0  0
   -0.1883   22.5916  -27.6589 N   0  0  0  0  0  0  0  0  0  0  0  0
   -1.5129   22.8771  -27.6369 C   0  0  0  0  0  0  0  0  0  0  0  0
   -2.2054   23.2824  -28.8028 N   0  0  0  0  0  0  0  0  0  0  0  0
   -2.2956   24.2761  -29.0802 H   0  0  0  0  0  0  0  0  0  0  0  0
   -2.6379   22.5555  -29.4002 H   0  0  0  0  0  0  0  0  0  0  0  0
   -5.6833   23.5343  -25.3484 N   0  0  0  0  0  0  0  0  0  0  0  0
   -4.4098   23.2489  -25.3789 N   0  0  0  0  0  0  0  0  0  0  0  0
   -3.6699   23.1033  -26.5009 C   0  0  0  0  0  0  0  0  0  0  0  0
   -4.3092   23.2688  -27.6995 C   0  0  0  0  0  0  0  0  0  0  0  0
   -5.6788   23.5772  -27.7489 C   0  0  0  0  0  0  0  0  0  0  0  0
   -6.3070   23.6959  -26.5294 C   0  0  0  0  0  0  0  0  0  0  0  0
   -7.5428   23.9730  -26.5095 O   0  0  0  0  0  0  0  0  0  0  0  0
   -7.6050   25.0441  -22.5235 C   0  0  0  0  0  0  0  0  0  0  0  0
   -7.8891   23.9049  -21.7995 C   0  0  0  0  0  0  0  0  0  0  0  0
   -7.4638   22.6531  -22.2187 C   0  0  0  0  0  0  0  0  0  0  0  0
   -6.7325   22.5589  -23.4018 C   0  0  0  0  0  0  0  0  0  0  0  0
   -6.4329   23.6814  -24.1476 C   0  0  0  0  0  0  0  0  0  0  0  0
   -6.8831   24.8933  -23.6786 C   0  0  0  0  0  0  0  0  0  0  0  0
   -8.5038   26.4392  -20.7061 C   0  0  0  0  0  0  0  0  0  0  0  0
   -8.0701   26.2528  -22.0293 O   0  0  0  0  0  0  0  0  0  0  0  0
   -7.7801   21.5431  -21.4483 O   0  0  0  0  0  0  0  0  0  0  0  0
   -8.6124   21.5902  -20.3296 C   0  0  0  0  0  0  0  0  0  0  0  0
    0.4313   21.6834  -24.1119 C   0  0  0  0  0  0  0  0  0  0  0  0
   -0.1201   21.4726  -22.8656 C   0  0  0  0  0  0  0  0  0  0  0  0
    0.8668   21.1012  -22.0400 N   0  0  0  0  0  0  0  0  0  0  0  0
    2.0205   21.0580  -22.6704 N   0  0  0  0  0  0  0  0  0  0  0  0
    1.7879   21.4100  -23.9450 C   0  0  0  0  0  0  0  0  0  0  0  0
    3.2900   20.6951  -22.0733 C   0  0  0  0  0  0  0  0  0  0  0  0
    3.2399   21.0640  -20.6148 C   0  0  0  0  0  0  0  0  0  0  0  0
    3.8793   19.9978  -19.7524 C   0  0  0  0  0  0  0  0  0  0  0  0
    3.1333   18.7566  -19.8178 N   0  0  0  0  0  0  0  0  0  0  0  0
    3.7622   17.6896  -19.1057 C   0  0  0  0  0  0  0  0  0  0  0  0
    2.7422   18.4227  -21.1635 C   0  0  0  0  0  0  0  0  0  0  0  0
    3.5097   19.1994  -22.2034 C   0  0  0  0  0  0  0  0  0  0  0  0
 23 24  1  0  0  0
 24 17  1  0  0  0
 17 18  2  0  0  0
 18 19  1  0  0  0
 19 25  1  0  0  0
 25 26  1  0  0  0
 19 20  2  0  0  0
 20 21  1  0  0  0
 21 22  2  0  0  0
 21 10  1  0  0  0
 10 11  1  0  0  0
 11 12  2  0  0  0
 12 13  1  0  0  0
 13 14  2  0  0  0
 14 15  1  0  0  0
 15 16  2  0  0  0
 12  1  1  0  0  0
  1  2  2  0  0  0
  2  3  1  0  0  0
  3  4  2  0  0  0
  4  5  1  0  0  0
  5  6  2  0  0  0
  6  7  1  0  0  0
  3 27  1  0  0  0
 27 28  1  0  0  0
 28 29  2  0  0  0
 29 30  1  0  0  0
 30 31  1  0  0  0
 30 32  1  0  0  0
 32 33  1  0  0  0
 33 34  1  0  0  0
 34 35  1  0  0  0
 35 36  1  0  0  0
 35 37  1  0  0  0
 37 38  1  0  0  0
 22 17  1  0  0  0
 15 10  1  0  0  0
  6  1  1  0  0  0
 31 27  2  0  0  0
 38 32  1  0  0  0
  7  8  1  0  0  0
  7  9  1  0  0  0
M  END
> <minimizedAffinity>
-9.77032

> <CNNscore>
0.6660915017

> <CNNaffinity>
7.5347275734

> <CNN_VS>
5.0188179016

> <CNNaffinity_variance>
0.1759624183

$$$$
[H]c1nc(N([H])[H])c(-c2nn(-c3c([H])c(OC([H])([H])[H])c([H])c(OC([H])([H])[H])c3[H])c(=O)c([H])c2[H])c([H])c1-c1c([H])nn(C2([H])C([H])([H])C([H])([H])N(C([H])([H])[H])C([H])([H])C2([H])[H])c1[H]


 38 42  0  0  0  0  0  0  0  0999 V2000
   -2.0051   22.6254  -26.1561 C   0  0  0  0  0  0  0  0  0  0  0  0
   -1.4304   22.2271  -24.9815 C   0  0  0  0  0  0  0  0  0  0  0  0
   -0.0858   21.9231  -24.9128 C   0  0  0  0  0  0  0  0  0  0  0  0
    0.6607   22.0334  -26.0658 C   0  0  0  0  0  0  0  0  0  0  0  0
    0.1271   22.4224  -27.2381 N   0  0  0  0  0  0  0  0  0  0  0  0
   -1.1947   22.7169  -27.2871 C   0  0  0  0  0  0  0  0  0  0  0  0
   -1.8199   23.1318  -28.4872 N   0  0  0  0  0  0  0  0  0  0  0  0
   -1.8882   24.1273  -28.7646 H   0  0  0  0  0  0  0  0  0  0  0  0
   -2.2238   22.4105  -29.1106 H   0  0  0  0  0  0  0  0  0  0  0  0
   -5.4755   23.4103  -25.2262 N   0  0  0  0  0  0  0  0  0  0  0  0
   -4.2043   23.1153  -25.1884 N   0  0  0  0  0  0  0  0  0  0  0  0
   -3.4090   22.9531  -26.2695 C   0  0  0  0  0  0  0  0  0  0  0  0
   -3.9847   23.1110  -27.5009 C   0  0  0  0  0  0  0  0  0  0  0  0
   -5.3476   23.4288  -27.6236 C   0  0  0  0  0  0  0  0  0  0  0  0
   -6.0366   23.5644  -26.4391 C   0  0  0  0  0  0  0  0  0  0  0  0
   -7.2695   23.8506  -26.4854 O   0  0  0  0  0  0  0  0  0  0  0  0
   -7.4799   24.9676  -22.4858 C   0  0  0  0  0  0  0  0  0  0  0  0
   -7.8600   23.8323  -21.8008 C   0  0  0  0  0  0  0  0  0  0  0  0
   -7.4728   22.5679  -22.2190 C   0  0  0  0  0  0  0  0  0  0  0  0
   -6.6805   22.4568  -23.3606 C   0  0  0  0  0  0  0  0  0  0  0  0
   -6.2845   23.5749  -24.0669 C   0  0  0  0  0  0  0  0  0  0  0  0
   -6.7013   24.7999  -23.6010 C   0  0  0  0  0  0  0  0  0  0  0  0
   -8.3688   26.3857  -20.6813 C   0  0  0  0  0  0  0  0  0  0  0  0
   -7.9132   26.1897  -21.9957 O   0  0  0  0  0  0  0  0  0  0  0  0
   -7.8863   21.4627  -21.4888 O   0  0  0  0  0  0  0  0  0  0  0  0
   -8.6007   21.5489  -20.2936 C   0  0  0  0  0  0  0  0  0  0  0  0
    0.5461   21.4950  -23.6667 C   0  0  0  0  0  0  0  0  0  0  0  0
    1.8935   21.3039  -23.4437 C   0  0  0  0  0  0  0  0  0  0  0  0
    2.0454   20.9119  -22.1723 N   0  0  0  0  0  0  0  0  0  0  0  0
    0.8847   20.8367  -21.5581 N   0  0  0  0  0  0  0  0  0  0  0  0
   -0.0570   21.1886  -22.4480 C   0  0  0  0  0  0  0  0  0  0  0  0
    0.6898   20.4431  -20.1771 C   0  0  0  0  0  0  0  0  0  0  0  0
    2.0359   20.0994  -19.5975 C   0  0  0  0  0  0  0  0  0  0  0  0
    2.1811   20.6255  -18.1863 C   0  0  0  0  0  0  0  0  0  0  0  0
    2.1585   22.0747  -18.1645 N   0  0  0  0  0  0  0  0  0  0  0  0
    2.1820   22.6130  -16.8413 C   0  0  0  0  0  0  0  0  0  0  0  0
    1.1259   22.6194  -19.0085 C   0  0  0  0  0  0  0  0  0  0  0  0
    0.0883   21.5957  -19.3947 C   0  0  0  0  0  0  0  0  0  0  0  0
 23 24  1  0  0  0
 24 17  1  0  0  0
 17 18  2  0  0  0
 18 19  1  0  0  0
 19 25  1  0  0  0
 25 26  1  0  0  0
 19 20  2  0  0  0
 20 21  1  0  0  0
 21 22  2  0  0  0
 21 10  1  0  0  0
 10 11  1  0  0  0
 11 12  2  0  0  0
 12 13  1  0  0  0
 13 14  2  0  0  0
 14 15  1  0  0  0
 15 16  2  0  0  0
 12  1  1  0  0  0
  1  2  2  0  0  0
  2  3  1  0  0  0
  3  4  2  0  0  0
  4  5  1  0  0  0
  5  6  2  0  0  0
  6  7  1  0  0  0
  3 27  1  0  0  0
 27 28  1  0  0  0
 28 29  2  0  0  0
 29 30  1  0  0  0
 30 31  1  0  0  0
 30 32  1  0  0  0
 32 33  1  0  0  0
 33 34  1  0  0  0
 34 35  1  0  0  0
 35 36  1  0  0  0
 35 37  1  0  0  0
 37 38  1  0  0  0
 22 17  1  0  0  0
 15 10  1  0  0  0
  6  1  1  0  0  0
 31 27  2  0  0  0
 38 32  1  0  0  0
  7  8  1  0  0  0
  7  9  1  0  0  0
M  END
> <minimizedAffinity>
-9.40783

> <CNNscore>
0.5150069594

> <CNNaffinity>
7.3147635460

> <CNN_VS>
3.7671542168

> <CNNaffinity_variance>
0.0879689083

$$$$
[H]c1nc(N([H])[H])c(-c2nn(-c3c([H])c(OC([H])([H])[H])c([H])c(OC([H])([H])[H])c3[H])c(=O)c([H])c2[H])c([H])c1-c1c([H])nn(C2([H])C([H])([H])C([H])([H])N(C([H])([H])[H])C([H])([H])C2([H])[H])c1[H]


 38 42  0  0  0  0  0  0  0  0999 V2000
   -2.0988   22.6702  -26.1719 C   0  0  0  0  0  0  0  0  0  0  0  0
   -1.4947   22.2667  -25.0140 C   0  0  0  0  0  0  0  0  0  0  0  0
   -0.1504   21.9553  -24.9822 C   0  0  0  0  0  0  0  0  0  0  0  0
    0.5653   22.0638  -26.1547 C   0  0  0  0  0  0  0  0  0  0  0  0
    0.0023   22.4578  -27.3115 N   0  0  0  0  0  0  0  0  0  0  0  0
   -1.3188   22.7594  -27.3243 C   0  0  0  0  0  0  0  0  0  0  0  0
   -1.9739   23.1798  -28.5063 N   0  0  0  0  0  0  0  0  0  0  0  0
   -2.0444   24.1762  -28.7800 H   0  0  0  0  0  0  0  0  0  0  0  0
   -2.3985   22.4618  -29.1198 H   0  0  0  0  0  0  0  0  0  0  0  0
   -5.5471   23.4357  -25.1483 N   0  0  0  0  0  0  0  0  0  0  0  0
   -4.2765   23.1358  -25.1454 N   0  0  0  0  0  0  0  0  0  0  0  0
   -3.5034   23.0055  -26.2467 C   0  0  0  0  0  0  0  0  0  0  0  0
   -4.1030   23.2041  -27.4608 C   0  0  0  0  0  0  0  0  0  0  0  0
   -5.4669   23.5297  -27.5460 C   0  0  0  0  0  0  0  0  0  0  0  0
   -6.1316   23.6298  -26.3443 C   0  0  0  0  0  0  0  0  0  0  0  0
   -7.3642   23.9211  -26.3568 O   0  0  0  0  0  0  0  0  0  0  0  0
   -7.5627   22.6093  -22.1140 C   0  0  0  0  0  0  0  0  0  0  0  0
   -7.8583   23.8834  -21.6762 C   0  0  0  0  0  0  0  0  0  0  0  0
   -7.4103   25.0068  -22.3552 C   0  0  0  0  0  0  0  0  0  0  0  0
   -6.6441   24.8289  -23.5060 C   0  0  0  0  0  0  0  0  0  0  0  0
   -6.3322   23.5660  -23.9684 C   0  0  0  0  0  0  0  0  0  0  0  0
   -6.8061   22.4928  -23.2507 C   0  0  0  0  0  0  0  0  0  0  0  0
   -8.8058   21.6948  -20.1968 C   0  0  0  0  0  0  0  0  0  0  0  0
   -8.0521   21.5450  -21.3729 O   0  0  0  0  0  0  0  0  0  0  0  0
   -7.7397   26.2631  -21.8665 O   0  0  0  0  0  0  0  0  0  0  0  0
   -8.5682   26.4708  -20.7634 C   0  0  0  0  0  0  0  0  0  0  0  0
    0.5127   21.5216  -23.7543 C   0  0  0  0  0  0  0  0  0  0  0  0
    1.8667   21.3452  -23.5615 C   0  0  0  0  0  0  0  0  0  0  0  0
    2.0500   20.9411  -22.2980 N   0  0  0  0  0  0  0  0  0  0  0  0
    0.9033   20.8445  -21.6607 N   0  0  0  0  0  0  0  0  0  0  0  0
   -0.0610   21.1942  -22.5269 C   0  0  0  0  0  0  0  0  0  0  0  0
    0.7423   20.4333  -20.2805 C   0  0  0  0  0  0  0  0  0  0  0  0
    2.0427   19.8308  -19.8204 C   0  0  0  0  0  0  0  0  0  0  0  0
    2.3838   20.2618  -18.4107 C   0  0  0  0  0  0  0  0  0  0  0  0
    2.6255   21.6896  -18.3454 N   0  0  0  0  0  0  0  0  0  0  0  0
    2.8430   22.1581  -17.0133 C   0  0  0  0  0  0  0  0  0  0  0  0
    1.6494   22.4451  -19.0882 C   0  0  0  0  0  0  0  0  0  0  0  0
    0.4182   21.6401  -19.4197 C   0  0  0  0  0  0  0  0  0  0  0  0
 23 24  1  0  0  0
 24 17  1  0  0  0
 17 18  2  0  0  0
 18 19  1  0  0  0
 19 25  1  0  0  0
 25 26  1  0  0  0
 19 20  2  0  0  0
 20 21  1  0  0  0
 21 22  2  0  0  0
 21 10  1  0  0  0
 10 11  1  0  0  0
 11 12  2  0  0  0
 12 13  1  0  0  0
 13 14  2  0  0  0
 14 15  1  0  0  0
 15 16  2  0  0  0
 12  1  1  0  0  0
  1  2  2  0  0  0
  2  3  1  0  0  0
  3  4  2  0  0  0
  4  5  1  0  0  0
  5  6  2  0  0  0
  6  7  1  0  0  0
  3 27  1  0  0  0
 27 28  1  0  0  0
 28 29  2  0  0  0
 29 30  1  0  0  0
 30 31  1  0  0  0
 30 32  1  0  0  0
 32 33  1  0  0  0
 33 34  1  0  0  0
 34 35  1  0  0  0
 35 36  1  0  0  0
 35 37  1  0  0  0
 37 38  1  0  0  0
 22 17  1  0  0  0
 15 10  1  0  0  0
  6  1  1  0  0  0
 31 27  2  0  0  0
 38 32  1  0  0  0
  7  8  1  0  0  0
  7  9  1  0  0  0
M  END
> <minimizedAffinity>
-9.36311

> <CNNscore>
0.4853422344

> <CNNaffinity>
7.2983384132

> <CNN_VS>
3.5421919823

> <CNNaffinity_variance>
0.1114461198

$$$$
[H]c1nc(N([H])[H])c(-c2nn(-c3c([H])c(OC([H])([H])[H])c([H])c(OC([H])([H])[H])c3[H])c(=O)c([H])c2[H])c([H])c1-c1c([H])nn(C2([H])C([H])([H])C([H])([H])N(C([H])([H])[H])C([H])([H])C2([H])[H])c1[H]


 38 42  0  0  0  0  0  0  0  0999 V2000
   -0.4201   21.8593  -24.0881 C   0  0  0  0  0  0  0  0  0  0  0  0
   -1.5565   22.2971  -24.7089 C   0  0  0  0  0  0  0  0  0  0  0  0
   -1.5459   22.6634  -26.0397 C   0  0  0  0  0  0  0  0  0  0  0  0
   -0.3534   22.5742  -26.7243 C   0  0  0  0  0  0  0  0  0  0  0  0
    0.7832   22.1476  -26.1442 N   0  0  0  0  0  0  0  0  0  0  0  0
    0.7543   21.7920  -24.8368 C   0  0  0  0  0  0  0  0  0  0  0  0
    1.9131   21.3350  -24.1650 N   0  0  0  0  0  0  0  0  0  0  0  0
    2.1773   20.3343  -24.1275 H   0  0  0  0  0  0  0  0  0  0  0  0
    2.5190   22.0298  -23.6934 H   0  0  0  0  0  0  0  0  0  0  0  0
    0.1801   19.8738  -21.0513 N   0  0  0  0  0  0  0  0  0  0  0  0
    0.1246   20.2843  -22.2894 N   0  0  0  0  0  0  0  0  0  0  0  0
   -0.3896   21.4662  -22.6968 C   0  0  0  0  0  0  0  0  0  0  0  0
   -0.8919   22.2973  -21.7325 C   0  0  0  0  0  0  0  0  0  0  0  0
   -0.8682   21.9261  -20.3779 C   0  0  0  0  0  0  0  0  0  0  0  0
   -0.3150   20.6945  -20.1073 C   0  0  0  0  0  0  0  0  0  0  0  0
   -0.2655   20.3045  -18.9033 O   0  0  0  0  0  0  0  0  0  0  0  0
    0.4859   16.3113  -19.9706 C   0  0  0  0  0  0  0  0  0  0  0  0
    1.8592   16.2085  -19.8924 C   0  0  0  0  0  0  0  0  0  0  0  0
    2.6859   17.2825  -20.1867 C   0  0  0  0  0  0  0  0  0  0  0  0
    2.1012   18.4887  -20.5692 C   0  0  0  0  0  0  0  0  0  0  0  0
    0.7298   18.6219  -20.6565 C   0  0  0  0  0  0  0  0  0  0  0  0
   -0.0350   17.5202  -20.3518 C   0  0  0  0  0  0  0  0  0  0  0  0
   -0.2628   14.5773  -18.3927 C   0  0  0  0  0  0  0  0  0  0  0  0
   -0.2620   15.1868  -19.6584 O   0  0  0  0  0  0  0  0  0  0  0  0
    4.0605   17.1186  -20.0901 O   0  0  0  0  0  0  0  0  0  0  0  0
    4.9849   17.9664  -20.7009 C   0  0  0  0  0  0  0  0  0  0  0  0
   -2.7502   23.1344  -26.7203 C   0  0  0  0  0  0  0  0  0  0  0  0
   -3.0486   23.0062  -28.0605 C   0  0  0  0  0  0  0  0  0  0  0  0
   -4.2441   23.5726  -28.2686 N   0  0  0  0  0  0  0  0  0  0  0  0
   -4.7386   24.0590  -27.1510 N   0  0  0  0  0  0  0  0  0  0  0  0
   -3.8458   23.8064  -26.1807 C   0  0  0  0  0  0  0  0  0  0  0  0
   -6.0127   24.7373  -27.0222 C   0  0  0  0  0  0  0  0  0  0  0  0
   -6.9641   23.8089  -26.3161 C   0  0  0  0  0  0  0  0  0  0  0  0
   -7.8124   24.5499  -25.3057 C   0  0  0  0  0  0  0  0  0  0  0  0
   -6.9978   25.0863  -24.2334 N   0  0  0  0  0  0  0  0  0  0  0  0
   -7.7427   25.8876  -23.3146 C   0  0  0  0  0  0  0  0  0  0  0  0
   -5.7916   25.7064  -24.7192 C   0  0  0  0  0  0  0  0  0  0  0  0
   -5.8414   25.9994  -26.1975 C   0  0  0  0  0  0  0  0  0  0  0  0
 23 24  1  0  0  0
 24 17  1  0  0  0
 17 18  2  0  0  0
 18 19  1  0  0  0
 19 25  1  0  0  0
 25 26  1  0  0  0
 19 20  2  0  0  0
 20 21  1  0  0  0
 21 22  2  0  0  0
 21 10  1  0  0  0
 10 11  1  0  0  0
 11 12  2  0  0  0
 12 13  1  0  0  0
 13 14  2  0  0  0
 14 15  1  0  0  0
 15 16  2  0  0  0
 12  1  1  0  0  0
  1  2  2  0  0  0
  2  3  1  0  0  0
  3  4  2  0  0  0
  4  5  1  0  0  0
  5  6  2  0  0  0
  6  7  1  0  0  0
  3 27  1  0  0  0
 27 28  1  0  0  0
 28 29  2  0  0  0
 29 30  1  0  0  0
 30 31  1  0  0  0
 30 32  1  0  0  0
 32 33  1  0  0  0
 33 34  1  0  0  0
 34 35  1  0  0  0
 35 36  1  0  0  0
 35 37  1  0  0  0
 37 38  1  0  0  0
 22 17  1  0  0  0
 15 10  1  0  0  0
  6  1  1  0  0  0
 31 27  2  0  0  0
 38 32  1  0  0  0
  7  8  1  0  0  0
  7  9  1  0  0  0
M  END
> <minimizedAffinity>
-8.14008

> <CNNscore>
0.4543078840

> <CNNaffinity>
7.1246972084

> <CNN_VS>
3.2368061543

> <CNNaffinity_variance>
0.2751298845

$$$$
[H]c1nc(N([H])[H])c(-c2nn(-c3c([H])c(OC([H])([H])[H])c([H])c(OC([H])([H])[H])c3[H])c(=O)c([H])c2[H])c([H])c1-c1c([H])nn(C2([H])C([H])([H])C([H])([H])N(C([H])([H])[H])C([H])([H])C2([H])[H])c1[H]


 38 42  0  0  0  0  0  0  0  0999 V2000
   -0.0686   21.6346  -23.6598 C   0  0  0  0  0  0  0  0  0  0  0  0
   -1.3082   22.0323  -24.0766 C   0  0  0  0  0  0  0  0  0  0  0  0
   -1.5378   22.3908  -25.3896 C   0  0  0  0  0  0  0  0  0  0  0  0
   -0.4781   22.3356  -26.2687 C   0  0  0  0  0  0  0  0  0  0  0  0
    0.7543   21.9489  -25.8920 N   0  0  0  0  0  0  0  0  0  0  0  0
    0.9616   21.6004  -24.5989 C   0  0  0  0  0  0  0  0  0  0  0  0
    2.2327   21.1846  -24.1357 N   0  0  0  0  0  0  0  0  0  0  0  0
    2.5317   20.1930  -24.1437 H   0  0  0  0  0  0  0  0  0  0  0  0
    2.8876   21.9011  -23.7753 H   0  0  0  0  0  0  0  0  0  0  0  0
    1.7011   21.2145  -20.4635 N   0  0  0  0  0  0  0  0  0  0  0  0
    1.3885   21.5338  -21.6902 N   0  0  0  0  0  0  0  0  0  0  0  0
    0.2127   21.2509  -22.2943 C   0  0  0  0  0  0  0  0  0  0  0  0
   -0.7234   20.5756  -21.5591 C   0  0  0  0  0  0  0  0  0  0  0  0
   -0.4613   20.1972  -20.2319 C   0  0  0  0  0  0  0  0  0  0  0  0
    0.7773   20.5507  -19.7452 C   0  0  0  0  0  0  0  0  0  0  0  0
    1.0719   20.2367  -18.5541 O   0  0  0  0  0  0  0  0  0  0  0  0
    4.3254   22.8884  -18.3987 C   0  0  0  0  0  0  0  0  0  0  0  0
    5.4086   22.0926  -18.7084 C   0  0  0  0  0  0  0  0  0  0  0  0
    5.2958   21.0193  -19.5795 C   0  0  0  0  0  0  0  0  0  0  0  0
    4.0519   20.7501  -20.1484 C   0  0  0  0  0  0  0  0  0  0  0  0
    2.9497   21.5289  -19.8575 C   0  0  0  0  0  0  0  0  0  0  0  0
    3.1268   22.5784  -18.9865 C   0  0  0  0  0  0  0  0  0  0  0  0
    3.8146   24.1045  -16.3209 C   0  0  0  0  0  0  0  0  0  0  0  0
    4.5303   23.9394  -17.5185 O   0  0  0  0  0  0  0  0  0  0  0  0
    6.4210   20.2544  -19.8527 O   0  0  0  0  0  0  0  0  0  0  0  0
    6.3807   19.0325  -20.5247 C   0  0  0  0  0  0  0  0  0  0  0  0
   -2.8556   22.8191  -25.8537 C   0  0  0  0  0  0  0  0  0  0  0  0
   -3.2424   23.0432  -27.1582 C   0  0  0  0  0  0  0  0  0  0  0  0
   -4.5267   23.4224  -27.1439 N   0  0  0  0  0  0  0  0  0  0  0  0
   -4.9961   23.4584  -25.9156 N   0  0  0  0  0  0  0  0  0  0  0  0
   -3.9950   23.0932  -25.0989 C   0  0  0  0  0  0  0  0  0  0  0  0
   -6.3470   23.8284  -25.5439 C   0  0  0  0  0  0  0  0  0  0  0  0
   -6.7128   23.0636  -24.3001 C   0  0  0  0  0  0  0  0  0  0  0  0
   -7.4745   23.9306  -23.3216 C   0  0  0  0  0  0  0  0  0  0  0  0
   -6.6456   25.0123  -22.8275 N   0  0  0  0  0  0  0  0  0  0  0  0
   -7.3576   25.9204  -21.9852 C   0  0  0  0  0  0  0  0  0  0  0  0
   -5.8883   25.6455  -23.8767 C   0  0  0  0  0  0  0  0  0  0  0  0
   -6.4101   25.3162  -25.2525 C   0  0  0  0  0  0  0  0  0  0  0  0
 23 24  1  0  0  0
 24 17  1  0  0  0
 17 18  2  0  0  0
 18 19  1  0  0  0
 19 25  1  0  0  0
 25 26  1  0  0  0
 19 20  2  0  0  0
 20 21  1  0  0  0
 21 22  2  0  0  0
 21 10  1  0  0  0
 10 11  1  0  0  0
 11 12  2  0  0  0
 12 13  1  0  0  0
 13 14  2  0  0  0
 14 15  1  0  0  0
 15 16  2  0  0  0
 12  1  1  0  0  0
  1  2  2  0  0  0
  2  3  1  0  0  0
  3  4  2  0  0  0
  4  5  1  0  0  0
  5  6  2  0  0  0
  6  7  1  0  0  0
  3 27  1  0  0  0
 27 28  1  0  0  0
 28 29  2  0  0  0
 29 30  1  0  0  0
 30 31  1  0  0  0
 30 32  1  0  0  0
 32 33  1  0  0  0
 33 34  1  0  0  0
 34 35  1  0  0  0
 35 36  1  0  0  0
 35 37  1  0  0  0
 37 38  1  0  0  0
 22 17  1  0  0  0
 15 10  1  0  0  0
  6  1  1  0  0  0
 31 27  2  0  0  0
 38 32  1  0  0  0
  7  8  1  0  0  0
  7  9  1  0  0  0
M  END
> <minimizedAffinity>
-8.05589

> <CNNscore>
0.4477968812

> <CNNaffinity>
7.1627388000

> <CNN_VS>
3.2074520588

> <CNNaffinity_variance>
0.4588865340

$$$$
[H]c1nc(N([H])[H])c(-c2nn(-c3c([H])c(OC([H])([H])[H])c([H])c(OC([H])([H])[H])c3[H])c(=O)c([H])c2[H])c([H])c1-c1c([H])nn(C2([H])C([H])([H])C([H])([H])N(C([H])([H])[H])C([H])([H])C2([H])[H])c1[H]


 38 42  0  0  0  0  0  0  0  0999 V2000
   -0.4020   21.8322  -24.0747 C   0  0  0  0  0  0  0  0  0  0  0  0
   -1.5379   22.2744  -24.6933 C   0  0  0  0  0  0  0  0  0  0  0  0
   -1.5316   22.6286  -26.0273 C   0  0  0  0  0  0  0  0  0  0  0  0
   -0.3437   22.5227  -26.7177 C   0  0  0  0  0  0  0  0  0  0  0  0
    0.7923   22.0914  -26.1400 N   0  0  0  0  0  0  0  0  0  0  0  0
    0.7676   21.7479  -24.8293 C   0  0  0  0  0  0  0  0  0  0  0  0
    1.9262   21.2868  -24.1598 N   0  0  0  0  0  0  0  0  0  0  0  0
    2.1818   20.2842  -24.1146 H   0  0  0  0  0  0  0  0  0  0  0  0
    2.5407   21.9805  -23.6978 H   0  0  0  0  0  0  0  0  0  0  0  0
    0.2467   19.8929  -21.0182 N   0  0  0  0  0  0  0  0  0  0  0  0
    0.1853   20.2914  -22.2599 N   0  0  0  0  0  0  0  0  0  0  0  0
   -0.3671   21.4514  -22.6802 C   0  0  0  0  0  0  0  0  0  0  0  0
   -0.9045   22.2721  -21.7259 C   0  0  0  0  0  0  0  0  0  0  0  0
   -0.8770   21.9126  -20.3682 C   0  0  0  0  0  0  0  0  0  0  0  0
   -0.2830   20.7033  -20.0841 C   0  0  0  0  0  0  0  0  0  0  0  0
   -0.2281   20.3247  -18.8766 O   0  0  0  0  0  0  0  0  0  0  0  0
    2.7663   17.3183  -20.0305 C   0  0  0  0  0  0  0  0  0  0  0  0
    1.9290   16.2440  -19.8129 C   0  0  0  0  0  0  0  0  0  0  0  0
    0.5564   16.3468  -19.9833 C   0  0  0  0  0  0  0  0  0  0  0  0
    0.0242   17.5712  -20.3843 C   0  0  0  0  0  0  0  0  0  0  0  0
    0.8371   18.6641  -20.6096 C   0  0  0  0  0  0  0  0  0  0  0  0
    2.1895   18.4978  -20.4234 C   0  0  0  0  0  0  0  0  0  0  0  0
    4.8563   17.7196  -18.7943 C   0  0  0  0  0  0  0  0  0  0  0  0
    4.1250   17.1245  -19.8358 O   0  0  0  0  0  0  0  0  0  0  0  0
   -0.2351   15.2313  -19.7493 O   0  0  0  0  0  0  0  0  0  0  0  0
   -0.4456   14.6844  -18.4832 C   0  0  0  0  0  0  0  0  0  0  0  0
   -2.7355   23.1039  -26.7055 C   0  0  0  0  0  0  0  0  0  0  0  0
   -3.0396   22.9718  -28.0441 C   0  0  0  0  0  0  0  0  0  0  0  0
   -4.2324   23.5446  -28.2503 N   0  0  0  0  0  0  0  0  0  0  0  0
   -4.7199   24.0387  -27.1329 N   0  0  0  0  0  0  0  0  0  0  0  0
   -3.8250   23.7848  -26.1648 C   0  0  0  0  0  0  0  0  0  0  0  0
   -5.9894   24.7252  -27.0024 C   0  0  0  0  0  0  0  0  0  0  0  0
   -6.9477   23.8005  -26.3007 C   0  0  0  0  0  0  0  0  0  0  0  0
   -7.7917   24.5432  -25.2881 C   0  0  0  0  0  0  0  0  0  0  0  0
   -6.9744   25.0696  -24.2129 N   0  0  0  0  0  0  0  0  0  0  0  0
   -7.7144   25.8723  -23.2914 C   0  0  0  0  0  0  0  0  0  0  0  0
   -5.7635   25.6834  -24.6952 C   0  0  0  0  0  0  0  0  0  0  0  0
   -5.8101   25.9827  -26.1723 C   0  0  0  0  0  0  0  0  0  0  0  0
 23 24  1  0  0  0
 24 17  1  0  0  0
 17 18  2  0  0  0
 18 19  1  0  0  0
 19 25  1  0  0  0
 25 26  1  0  0  0
 19 20  2  0  0  0
 20 21  1  0  0  0
 21 22  2  0  0  0
 21 10  1  0  0  0
 10 11  1  0  0  0
 11 12  2  0  0  0
 12 13  1  0  0  0
 13 14  2  0  0  0
 14 15  1  0  0  0
 15 16  2  0  0  0
 12  1  1  0  0  0
  1  2  2  0  0  0
  2  3  1  0  0  0
  3  4  2  0  0  0
  4  5  1  0  0  0
  5  6  2  0  0  0
  6  7  1  0  0  0
  3 27  1  0  0  0
 27 28  1  0  0  0
 28 29  2  0  0  0
 29 30  1  0  0  0
 30 31  1  0  0  0
 30 32  1  0  0  0
 32 33  1  0  0  0
 33 34  1  0  0  0
 34 35  1  0  0  0
 35 36  1  0  0  0
 35 37  1  0  0  0
 37 38  1  0  0  0
 22 17  1  0  0  0
 15 10  1  0  0  0
  6  1  1  0  0  0
 31 27  2  0  0  0
 38 32  1  0  0  0
  7  8  1  0  0  0
  7  9  1  0  0  0
M  END
> <minimizedAffinity>
-8.04710

> <CNNscore>
0.4390168190

> <CNNaffinity>
7.1018767357

> <CNN_VS>
3.1178433895

> <CNNaffinity_variance>
0.3013055325

$$$$
[H]c1nc(N([H])[H])c(-c2nn(-c3c([H])c(OC([H])([H])[H])c([H])c(OC([H])([H])[H])c3[H])c(=O)c([H])c2[H])c([H])c1-c1c([H])nn(C2([H])C([H])([H])C([H])([H])N(C([H])([H])[H])C([H])([H])C2([H])[H])c1[H]


 38 42  0  0  0  0  0  0  0  0999 V2000
   -4.3478   23.2956  -26.5240 C   0  0  0  0  0  0  0  0  0  0  0  0
   -4.9865   23.4952  -25.3320 C   0  0  0  0  0  0  0  0  0  0  0  0
   -6.3384   23.7697  -25.2848 C   0  0  0  0  0  0  0  0  0  0  0  0
   -7.0256   23.8366  -26.4773 C   0  0  0  0  0  0  0  0  0  0  0  0
   -6.4283   23.6454  -27.6676 N   0  0  0  0  0  0  0  0  0  0  0  0
   -5.1003   23.3768  -27.6951 C   0  0  0  0  0  0  0  0  0  0  0  0
   -4.4097   23.1655  -28.9123 N   0  0  0  0  0  0  0  0  0  0  0  0
   -4.3091   22.2277  -29.3403 H   0  0  0  0  0  0  0  0  0  0  0  0
   -3.9895   23.9814  -29.3918 H   0  0  0  0  0  0  0  0  0  0  0  0
   -0.9387   22.2910  -25.5788 N   0  0  0  0  0  0  0  0  0  0  0  0
   -2.2142   22.5687  -25.5585 N   0  0  0  0  0  0  0  0  0  0  0  0
   -2.9342   23.0055  -26.6160 C   0  0  0  0  0  0  0  0  0  0  0  0
   -2.2707   23.1690  -27.8018 C   0  0  0  0  0  0  0  0  0  0  0  0
   -0.8974   22.8909  -27.9032 C   0  0  0  0  0  0  0  0  0  0  0  0
   -0.2913   22.4534  -26.7468 C   0  0  0  0  0  0  0  0  0  0  0  0
    0.9465   22.1864  -26.7759 O   0  0  0  0  0  0  0  0  0  0  0  0
    1.8466   21.1198  -23.3827 C   0  0  0  0  0  0  0  0  0  0  0  0
    1.1535   20.9381  -22.2040 C   0  0  0  0  0  0  0  0  0  0  0  0
   -0.2071   21.1917  -22.1150 C   0  0  0  0  0  0  0  0  0  0  0  0
   -0.8774   21.6405  -23.2519 C   0  0  0  0  0  0  0  0  0  0  0  0
   -0.2107   21.8317  -24.4456 C   0  0  0  0  0  0  0  0  0  0  0  0
    1.1379   21.5625  -24.4689 C   0  0  0  0  0  0  0  0  0  0  0  0
    3.8231   19.9854  -22.4535 C   0  0  0  0  0  0  0  0  0  0  0  0
    3.2045   20.8416  -23.3797 O   0  0  0  0  0  0  0  0  0  0  0  0
   -0.8502   20.9904  -20.9020 O   0  0  0  0  0  0  0  0  0  0  0  0
   -0.3970   21.5131  -19.6905 C   0  0  0  0  0  0  0  0  0  0  0  0
   -7.0382   23.9867  -24.0204 C   0  0  0  0  0  0  0  0  0  0  0  0
   -7.8558   25.0491  -23.6974 C   0  0  0  0  0  0  0  0  0  0  0  0
   -8.2928   24.8622  -22.4454 N   0  0  0  0  0  0  0  0  0  0  0  0
   -7.8114   23.7485  -21.9372 N   0  0  0  0  0  0  0  0  0  0  0  0
   -7.0370   23.1865  -22.8790 C   0  0  0  0  0  0  0  0  0  0  0  0
   -8.0835   23.2476  -20.6049 C   0  0  0  0  0  0  0  0  0  0  0  0
   -7.5207   21.8549  -20.5082 C   0  0  0  0  0  0  0  0  0  0  0  0
   -6.8489   21.6213  -19.1727 C   0  0  0  0  0  0  0  0  0  0  0  0
   -5.6858   22.4724  -19.0175 N   0  0  0  0  0  0  0  0  0  0  0  0
   -5.0843   22.3646  -17.7261 C   0  0  0  0  0  0  0  0  0  0  0  0
   -5.9359   23.8253  -19.4446 C   0  0  0  0  0  0  0  0  0  0  0  0
   -7.4062   24.1330  -19.5753 C   0  0  0  0  0  0  0  0  0  0  0  0
 23 24  1  0  0  0
 24 17  1  0  0  0
 17 18  2  0  0  0
 18 19  1  0  0  0
 19 25  1  0  0  0
 25 26  1  0  0  0
 19 20  2  0  0  0
 20 21  1  0  0  0
 21 22  2  0  0  0
 21 10  1  0  0  0
 10 11  1  0  0  0
 11 12  2  0  0  0
 12 13  1  0  0  0
 13 14  2  0  0  0
 14 15  1  0  0  0
 15 16  2  0  0  0
 12  1  1  0  0  0
  1  2  2  0  0  0
  2  3  1  0  0  0
  3  4  2  0  0  0
  4  5  1  0  0  0
  5  6  2  0  0  0
  6  7  1  0  0  0
  3 27  1  0  0  0
 27 28  1  0  0  0
 28 29  2  0  0  0
 29 30  1  0  0  0
 30 31  1  0  0  0
 30 32  1  0  0  0
 32 33  1  0  0  0
 33 34  1  0  0  0
 34 35  1  0  0  0
 35 36  1  0  0  0
 35 37  1  0  0  0
 37 38  1  0  0  0
 22 17  1  0  0  0
 15 10  1  0  0  0
  6  1  1  0  0  0
 31 27  2  0  0  0
 38 32  1  0  0  0
  7  8  1  0  0  0
  7  9  1  0  0  0
M  END
> <minimizedAffinity>
-9.28438

> <CNNscore>
0.3131859899

> <CNNaffinity>
7.0770554543

> <CNN_VS>
2.2164347172

> <CNNaffinity_variance>
0.2222395241

$$$$
[H]c1nc(N([H])[H])c(-c2nn(-c3c([H])c(OC([H])([H])[H])c([H])c(OC([H])([H])[H])c3[H])c(=O)c([H])c2[H])c([H])c1-c1c([H])nn(C2([H])C([H])([H])C([H])([H])N(C([H])([H])[H])C([H])([H])C2([H])[H])c1[H]


 38 42  0  0  0  0  0  0  0  0999 V2000
   -4.7057   23.9030  -26.1652 C   0  0  0  0  0  0  0  0  0  0  0  0
   -5.3687   23.8356  -24.9717 C   0  0  0  0  0  0  0  0  0  0  0  0
   -6.6458   24.3414  -24.8360 C   0  0  0  0  0  0  0  0  0  0  0  0
   -7.2329   24.9171  -25.9417 C   0  0  0  0  0  0  0  0  0  0  0  0
   -6.6090   25.0000  -27.1309 N   0  0  0  0  0  0  0  0  0  0  0  0
   -5.3555   24.4982  -27.2459 C   0  0  0  0  0  0  0  0  0  0  0  0
   -4.6422   24.5525  -28.4671 N   0  0  0  0  0  0  0  0  0  0  0  0
   -4.6921   23.7986  -29.1756 H   0  0  0  0  0  0  0  0  0  0  0  0
   -4.0480   25.3788  -28.6577 H   0  0  0  0  0  0  0  0  0  0  0  0
   -1.4109   22.4494  -25.4200 N   0  0  0  0  0  0  0  0  0  0  0  0
   -2.6215   22.9274  -25.3185 N   0  0  0  0  0  0  0  0  0  0  0  0
   -3.3682   23.3849  -26.3483 C   0  0  0  0  0  0  0  0  0  0  0  0
   -2.8081   23.3426  -27.5963 C   0  0  0  0  0  0  0  0  0  0  0  0
   -1.5094   22.8420  -27.7865 C   0  0  0  0  0  0  0  0  0  0  0  0
   -0.8649   22.4101  -26.6489 C   0  0  0  0  0  0  0  0  0  0  0  0
    0.3093   21.9478  -26.7569 O   0  0  0  0  0  0  0  0  0  0  0  0
   -0.4897   21.1405  -22.0449 C   0  0  0  0  0  0  0  0  0  0  0  0
    0.8792   21.0576  -22.1925 C   0  0  0  0  0  0  0  0  0  0  0  0
    1.5054   21.4218  -23.3752 C   0  0  0  0  0  0  0  0  0  0  0  0
    0.7202   21.8808  -24.4316 C   0  0  0  0  0  0  0  0  0  0  0  0
   -0.6521   21.9747  -24.3135 C   0  0  0  0  0  0  0  0  0  0  0  0
   -1.2127   21.5984  -23.1153 C   0  0  0  0  0  0  0  0  0  0  0  0
   -2.0356   21.4726  -20.1589 C   0  0  0  0  0  0  0  0  0  0  0  0
   -1.0298   20.7553  -20.8277 O   0  0  0  0  0  0  0  0  0  0  0  0
    2.8863   21.3166  -23.4644 O   0  0  0  0  0  0  0  0  0  0  0  0
    3.6376   20.3785  -22.7560 C   0  0  0  0  0  0  0  0  0  0  0  0
   -7.3700   24.2792  -23.5683 C   0  0  0  0  0  0  0  0  0  0  0  0
   -7.5210   23.1770  -22.7533 C   0  0  0  0  0  0  0  0  0  0  0  0
   -8.2524   23.5489  -21.6950 N   0  0  0  0  0  0  0  0  0  0  0  0
   -8.5847   24.8194  -21.7719 N   0  0  0  0  0  0  0  0  0  0  0  0
   -8.0583   25.2974  -22.9107 C   0  0  0  0  0  0  0  0  0  0  0  0
   -9.3740   25.5411  -20.7941 C   0  0  0  0  0  0  0  0  0  0  0  0
   -8.8535   26.9518  -20.7265 C   0  0  0  0  0  0  0  0  0  0  0  0
   -9.9827   27.9538  -20.6252 C   0  0  0  0  0  0  0  0  0  0  0  0
  -10.7967   27.9460  -21.8246 N   0  0  0  0  0  0  0  0  0  0  0  0
  -11.9395   28.7980  -21.7286 C   0  0  0  0  0  0  0  0  0  0  0  0
  -11.0885   26.6108  -22.2802 C   0  0  0  0  0  0  0  0  0  0  0  0
  -10.8287   25.5652  -21.2253 C   0  0  0  0  0  0  0  0  0  0  0  0
 23 24  1  0  0  0
 24 17  1  0  0  0
 17 18  2  0  0  0
 18 19  1  0  0  0
 19 25  1  0  0  0
 25 26  1  0  0  0
 19 20  2  0  0  0
 20 21  1  0  0  0
 21 22  2  0  0  0
 21 10  1  0  0  0
 10 11  1  0  0  0
 11 12  2  0  0  0
 12 13  1  0  0  0
 13 14  2  0  0  0
 14 15  1  0  0  0
 15 16  2  0  0  0
 12  1  1  0  0  0
  1  2  2  0  0  0
  2  3  1  0  0  0
  3  4  2  0  0  0
  4  5  1  0  0  0
  5  6  2  0  0  0
  6  7  1  0  0  0
  3 27  1  0  0  0
 27 28  1  0  0  0
 28 29  2  0  0  0
 29 30  1  0  0  0
 30 31  1  0  0  0
 30 32  1  0  0  0
 32 33  1  0  0  0
 33 34  1  0  0  0
 34 35  1  0  0  0
 35 36  1  0  0  0
 35 37  1  0  0  0
 37 38  1  0  0  0
 22 17  1  0  0  0
 15 10  1  0  0  0
  6  1  1  0  0  0
 31 27  2  0  0  0
 38 32  1  0  0  0
  7  8  1  0  0  0
  7  9  1  0  0  0
M  END
> <minimizedAffinity>
-9.61318

> <CNNscore>
0.2643819451

> <CNNaffinity>
6.9152212143

> <CNN_VS>
1.8282595873

> <CNNaffinity_variance>
0.3652128279

$$$$
[H]OC(C([H])([H])[H])(C([H])([H])[H])C([H])([H])N([H])c1nc([H])c2c([H])c(-c3c(Cl)c(OC([H])([H])[H])c([H])c(OC([H])([H])[H])c3Cl)c(=O)n(C([H])([H])C([H])([H])C([H])([H])N3C([H])([H])C([H])([H])N(C(=O)C([H])=C([H])[H])C([H])([H])C3([H])[H])c2n1


 44 47  0  0  0  0  0  0  0  0999 V2000
   -0.3573   21.1490  -21.0097 C   0  0  0  0  0  0  0  0  0  0  0  0
    0.3709   21.2941  -22.1678 C   0  0  0  0  0  0  0  0  0  0  0  0
   -0.2673   21.6929  -23.3044 C   0  0  0  0  0  0  0  0  0  0  0  0
    0.4422   21.8351  -24.4779 C   0  0  0  0  0  0  0  0  0  0  0  0
   -0.2374   22.2203  -25.5688 N   0  0  0  0  0  0  0  0  0  0  0  0
   -1.5579   22.4734  -25.5844 C   0  0  0  0  0  0  0  0  0  0  0  0
   -2.2333   22.3308  -24.4352 N   0  0  0  0  0  0  0  0  0  0  0  0
   -1.6267   21.9439  -23.2766 C   0  0  0  0  0  0  0  0  0  0  0  0
   -2.3578   21.8105  -22.1623 N   0  0  0  0  0  0  0  0  0  0  0  0
   -1.7117   21.4142  -21.0440 C   0  0  0  0  0  0  0  0  0  0  0  0
   -2.3482   21.2687  -19.9567 O   0  0  0  0  0  0  0  0  0  0  0  0
    1.3128   18.9820  -18.4606 C   0  0  0  0  0  0  0  0  0  0  0  0
    1.6465   19.9524  -17.5424 C   0  0  0  0  0  0  0  0  0  0  0  0
    1.3587   21.2949  -17.7003 C   0  0  0  0  0  0  0  0  0  0  0  0
    0.6891   21.6591  -18.8702 C   0  0  0  0  0  0  0  0  0  0  0  0
    0.3279   23.3668  -19.0625 Cl  0  0  0  0  0  0  0  0  0  0  0  0
    0.3363   20.7270  -19.8137 C   0  0  0  0  0  0  0  0  0  0  0  0
    0.6414   19.4040  -19.6172 C   0  0  0  0  0  0  0  0  0  0  0  0
    0.2207   18.1637  -20.7803 Cl  0  0  0  0  0  0  0  0  0  0  0  0
    0.8650   16.8045  -17.4255 C   0  0  0  0  0  0  0  0  0  0  0  0
    1.6168   17.6419  -18.2708 O   0  0  0  0  0  0  0  0  0  0  0  0
    1.7056   22.2566  -16.7593 O   0  0  0  0  0  0  0  0  0  0  0  0
    1.3723   21.9874  -15.4064 C   0  0  0  0  0  0  0  0  0  0  0  0
   -2.2192   22.8819  -26.7958 N   0  0  0  0  0  0  0  0  0  0  0  0
   -1.6562   23.3055  -27.5644 H   0  0  0  0  0  0  0  0  0  0  0  0
   -3.6301   22.7274  -26.9869 C   0  0  0  0  0  0  0  0  0  0  0  0
   -4.3164   24.0363  -27.3014 C   0  0  0  0  0  0  0  0  0  0  0  0
   -5.8170   23.7816  -27.2642 C   0  0  0  0  0  0  0  0  0  0  0  0
   -3.9902   24.5432  -28.6836 C   0  0  0  0  0  0  0  0  0  0  0  0
   -3.9985   24.9977  -26.3578 O   0  0  0  0  0  0  0  0  0  0  0  0
   -3.3849   25.6513  -26.7779 H   0  0  0  0  0  0  0  0  0  0  0  0
   -3.7691   22.0929  -22.1294 C   0  0  0  0  0  0  0  0  0  0  0  0
   -4.1545   23.4761  -21.7689 C   0  0  0  0  0  0  0  0  0  0  0  0
   -4.8006   24.2965  -22.8462 C   0  0  0  0  0  0  0  0  0  0  0  0
   -6.2325   24.4166  -22.5883 N   0  0  0  0  0  0  0  0  0  0  0  0
   -6.7930   25.5825  -23.2774 C   0  0  0  0  0  0  0  0  0  0  0  0
   -8.2611   25.3886  -23.3307 C   0  0  0  0  0  0  0  0  0  0  0  0
   -8.8298   24.9928  -22.0522 N   0  0  0  0  0  0  0  0  0  0  0  0
   -8.0321   24.5332  -20.9721 C   0  0  0  0  0  0  0  0  0  0  0  0
   -6.5512   24.6192  -21.2071 C   0  0  0  0  0  0  0  0  0  0  0  0
  -10.2637   25.1071  -21.9493 C   0  0  0  0  0  0  0  0  0  0  0  0
  -10.8576   25.5937  -23.0260 O   0  0  0  0  0  0  0  0  0  0  0  0
  -11.1530   24.7925  -20.9049 C   0  0  0  0  0  0  0  0  0  0  0  0
  -11.4879   25.4602  -19.8663 C   0  0  0  0  0  0  0  0  0  0  0  0
 20 21  1  0  0  0
 21 12  1  0  0  0
 12 13  2  0  0  0
 13 14  1  0  0  0
 14 22  1  0  0  0
 22 23  1  0  0  0
 14 15  2  0  0  0
 15 16  1  0  0  0
 15 17  1  0  0  0
 17 18  2  0  0  0
 18 19  1  0  0  0
 17  1  1  0  0  0
  1  2  2  0  0  0
  2  3  1  0  0  0
  3  4  2  0  0  0
  4  5  1  0  0  0
  5  6  2  0  0  0
  6 24  1  0  0  0
 24 26  1  0  0  0
 26 27  1  0  0  0
 27 28  1  0  0  0
 27 29  1  0  0  0
 27 30  1  0  0  0
  6  7  1  0  0  0
  7  8  2  0  0  0
  8  9  1  0  0  0
  9 32  1  0  0  0
 32 33  1  0  0  0
 33 34  1  0  0  0
 34 35  1  0  0  0
 35 36  1  0  0  0
 36 37  1  0  0  0
 37 38  1  0  0  0
 38 39  1  0  0  0
 39 40  1  0  0  0
 38 41  1  0  0  0
 41 42  2  0  0  0
 41 43  1  0  0  0
 43 44  2  0  0  0
  9 10  1  0  0  0
 10 11  2  0  0  0
 18 12  1  0  0  0
 10  1  1  0  0  0
  8  3  1  0  0  0
 40 35  1  0  0  0
 24 25  1  0  0  0
 30 31  1  0  0  0
M  END
> <minimizedAffinity>
-7.17590

> <CNNscore>
0.0770593584

> <CNNaffinity>
7.0095100403

> <CNN_VS>
0.5401483178

> <CNNaffinity_variance>
0.4504741728

$$$$
[H]OC(C([H])([H])[H])(C([H])([H])[H])C([H])([H])N([H])c1nc([H])c2c([H])c(-c3c(Cl)c(OC([H])([H])[H])c([H])c(OC([H])([H])[H])c3Cl)c(=O)n(C([H])([H])C([H])([H])C([H])([H])N3C([H])([H])C([H])([H])N(C(=O)C([H])=C([H])[H])C([H])([H])C3([H])[H])c2n1


 44 47  0  0  0  0  0  0  0  0999 V2000
   -2.8019   22.5751  -22.7098 C   0  0  0  0  0  0  0  0  0  0  0  0
   -2.5243   21.8288  -23.8316 C   0  0  0  0  0  0  0  0  0  0  0  0
   -2.8321   22.3387  -25.0577 C   0  0  0  0  0  0  0  0  0  0  0  0
   -2.5710   21.6030  -26.1941 C   0  0  0  0  0  0  0  0  0  0  0  0
   -2.9033   22.1485  -27.3741 N   0  0  0  0  0  0  0  0  0  0  0  0
   -3.4707   23.3597  -27.5120 C   0  0  0  0  0  0  0  0  0  0  0  0
   -3.7177   24.0625  -26.3974 N   0  0  0  0  0  0  0  0  0  0  0  0
   -3.4140   23.5892  -25.1550 C   0  0  0  0  0  0  0  0  0  0  0  0
   -3.6938   24.3355  -24.0786 N   0  0  0  0  0  0  0  0  0  0  0  0
   -3.3836   23.8168  -22.8703 C   0  0  0  0  0  0  0  0  0  0  0  0
   -3.6242   24.4740  -21.8127 O   0  0  0  0  0  0  0  0  0  0  0  0
   -3.1438   21.0562  -19.3100 C   0  0  0  0  0  0  0  0  0  0  0  0
   -1.8097   20.9734  -18.9789 C   0  0  0  0  0  0  0  0  0  0  0  0
   -0.7830   21.3875  -19.8061 C   0  0  0  0  0  0  0  0  0  0  0  0
   -1.1505   21.9169  -21.0447 C   0  0  0  0  0  0  0  0  0  0  0  0
    0.1606   22.4400  -22.0892 Cl  0  0  0  0  0  0  0  0  0  0  0  0
   -2.4672   22.0192  -21.4181 C   0  0  0  0  0  0  0  0  0  0  0  0
   -3.4556   21.5960  -20.5661 C   0  0  0  0  0  0  0  0  0  0  0  0
   -5.1547   21.6976  -20.9798 Cl  0  0  0  0  0  0  0  0  0  0  0  0
   -4.1518   19.3572  -17.8570 C   0  0  0  0  0  0  0  0  0  0  0  0
   -4.1504   20.6312  -18.4553 O   0  0  0  0  0  0  0  0  0  0  0  0
    0.5569   21.2941  -19.4501 O   0  0  0  0  0  0  0  0  0  0  0  0
    0.8641   20.5602  -18.2750 C   0  0  0  0  0  0  0  0  0  0  0  0
   -3.8007   23.8788  -28.8132 N   0  0  0  0  0  0  0  0  0  0  0  0
   -3.0427   24.2736  -29.4103 H   0  0  0  0  0  0  0  0  0  0  0  0
   -5.1394   23.8734  -29.3222 C   0  0  0  0  0  0  0  0  0  0  0  0
   -5.4469   25.0997  -30.1497 C   0  0  0  0  0  0  0  0  0  0  0  0
   -5.9155   24.6186  -31.5161 C   0  0  0  0  0  0  0  0  0  0  0  0
   -4.2316   25.9621  -30.3797 C   0  0  0  0  0  0  0  0  0  0  0  0
   -6.4540   25.8478  -29.5652 O   0  0  0  0  0  0  0  0  0  0  0  0
   -6.0488   26.6676  -29.1856 H   0  0  0  0  0  0  0  0  0  0  0  0
   -4.2800   25.6464  -24.1822 C   0  0  0  0  0  0  0  0  0  0  0  0
   -5.7160   25.6979  -24.5381 C   0  0  0  0  0  0  0  0  0  0  0  0
   -6.6311   26.3556  -23.5475 C   0  0  0  0  0  0  0  0  0  0  0  0
   -7.1960   25.3522  -22.6502 N   0  0  0  0  0  0  0  0  0  0  0  0
   -7.5292   24.1253  -23.3796 C   0  0  0  0  0  0  0  0  0  0  0  0
   -7.6709   23.0482  -22.3718 C   0  0  0  0  0  0  0  0  0  0  0  0
   -8.4975   23.4336  -21.2391 N   0  0  0  0  0  0  0  0  0  0  0  0
   -8.8526   24.7827  -20.9781 C   0  0  0  0  0  0  0  0  0  0  0  0
   -8.4243   25.7584  -22.0365 C   0  0  0  0  0  0  0  0  0  0  0  0
   -8.9431   22.3494  -20.3992 C   0  0  0  0  0  0  0  0  0  0  0  0
   -8.5653   21.1476  -20.8018 O   0  0  0  0  0  0  0  0  0  0  0  0
   -9.7116   22.3364  -19.2203 C   0  0  0  0  0  0  0  0  0  0  0  0
  -10.8812   22.7975  -18.9832 C   0  0  0  0  0  0  0  0  0  0  0  0
 20 21  1  0  0  0
 21 12  1  0  0  0
 12 13  2  0  0  0
 13 14  1  0  0  0
 14 22  1  0  0  0
 22 23  1  0  0  0
 14 15  2  0  0  0
 15 16  1  0  0  0
 15 17  1  0  0  0
 17 18  2  0  0  0
 18 19  1  0  0  0
 17  1  1  0  0  0
  1  2  2  0  0  0
  2  3  1  0  0  0
  3  4  2  0  0  0
  4  5  1  0  0  0
  5  6  2  0  0  0
  6 24  1  0  0  0
 24 26  1  0  0  0
 26 27  1  0  0  0
 27 28  1  0  0  0
 27 29  1  0  0  0
 27 30  1  0  0  0
  6  7  1  0  0  0
  7  8  2  0  0  0
  8  9  1  0  0  0
  9 32  1  0  0  0
 32 33  1  0  0  0
 33 34  1  0  0  0
 34 35  1  0  0  0
 35 36  1  0  0  0
 36 37  1  0  0  0
 37 38  1  0  0  0
 38 39  1  0  0  0
 39 40  1  0  0  0
 38 41  1  0  0  0
 41 42  2  0  0  0
 41 43  1  0  0  0
 43 44  2  0  0  0
  9 10  1  0  0  0
 10 11  2  0  0  0
 18 12  1  0  0  0
 10  1  1  0  0  0
  8  3  1  0  0  0
 40 35  1  0  0  0
 24 25  1  0  0  0
 30 31  1  0  0  0
M  END
> <minimizedAffinity>
-7.52949

> <CNNscore>
0.0765913352

> <CNNaffinity>
7.4273805618

> <CNN_VS>
0.5688729882

> <CNNaffinity_variance>
0.2010914534

$$$$
[H]OC(C([H])([H])[H])(C([H])([H])[H])C([H])([H])N([H])c1nc([H])c2c([H])c(-c3c(Cl)c(OC([H])([H])[H])c([H])c(OC([H])([H])[H])c3Cl)c(=O)n(C([H])([H])C([H])([H])C([H])([H])N3C([H])([H])C([H])([H])N(C(=O)C([H])=C([H])[H])C([H])([H])C3([H])[H])c2n1


 44 47  0  0  0  0  0  0  0  0999 V2000
   -0.3540   21.1540  -21.0282 C   0  0  0  0  0  0  0  0  0  0  0  0
    0.3833   21.3018  -22.1802 C   0  0  0  0  0  0  0  0  0  0  0  0
   -0.2481   21.6908  -23.3239 C   0  0  0  0  0  0  0  0  0  0  0  0
    0.4707   21.8353  -24.4914 C   0  0  0  0  0  0  0  0  0  0  0  0
   -0.2024   22.2106  -25.5898 N   0  0  0  0  0  0  0  0  0  0  0  0
   -1.5249   22.4517  -25.6182 C   0  0  0  0  0  0  0  0  0  0  0  0
   -2.2094   22.3070  -24.4746 N   0  0  0  0  0  0  0  0  0  0  0  0
   -1.6099   21.9297  -23.3092 C   0  0  0  0  0  0  0  0  0  0  0  0
   -2.3498   21.7936  -22.2011 N   0  0  0  0  0  0  0  0  0  0  0  0
   -1.7104   21.4069  -21.0756 C   0  0  0  0  0  0  0  0  0  0  0  0
   -2.3554   21.2595  -19.9937 O   0  0  0  0  0  0  0  0  0  0  0  0
    1.3491   21.2804  -17.7016 C   0  0  0  0  0  0  0  0  0  0  0  0
    1.6326   19.9406  -17.5568 C   0  0  0  0  0  0  0  0  0  0  0  0
    1.2990   18.9768  -18.4894 C   0  0  0  0  0  0  0  0  0  0  0  0
    0.6359   19.4174  -19.6366 C   0  0  0  0  0  0  0  0  0  0  0  0
    0.2158   18.1859  -20.8158 Cl  0  0  0  0  0  0  0  0  0  0  0  0
    0.3325   20.7425  -19.8245 C   0  0  0  0  0  0  0  0  0  0  0  0
    0.6819   21.6669  -18.8730 C   0  0  0  0  0  0  0  0  0  0  0  0
    0.3248   23.3726  -19.0494 Cl  0  0  0  0  0  0  0  0  0  0  0  0
    2.9109   22.9360  -16.7889 C   0  0  0  0  0  0  0  0  0  0  0  0
    1.6985   22.2225  -16.7452 O   0  0  0  0  0  0  0  0  0  0  0  0
    1.5957   17.6298  -18.3214 O   0  0  0  0  0  0  0  0  0  0  0  0
    2.9388   17.2305  -18.5463 C   0  0  0  0  0  0  0  0  0  0  0  0
   -2.1788   22.8501  -26.8370 N   0  0  0  0  0  0  0  0  0  0  0  0
   -1.6122   23.2731  -27.6032 H   0  0  0  0  0  0  0  0  0  0  0  0
   -3.5872   22.6862  -27.0386 C   0  0  0  0  0  0  0  0  0  0  0  0
   -4.2041   23.8525  -27.7748 C   0  0  0  0  0  0  0  0  0  0  0  0
   -4.3453   24.9944  -26.7776 C   0  0  0  0  0  0  0  0  0  0  0  0
   -5.5873   23.5451  -28.2905 C   0  0  0  0  0  0  0  0  0  0  0  0
   -3.3909   24.2621  -28.8173 O   0  0  0  0  0  0  0  0  0  0  0  0
   -3.8166   23.9860  -29.6675 H   0  0  0  0  0  0  0  0  0  0  0  0
   -3.7639   22.0633  -22.1820 C   0  0  0  0  0  0  0  0  0  0  0  0
   -4.1647   23.4457  -21.8356 C   0  0  0  0  0  0  0  0  0  0  0  0
   -4.8225   24.2468  -22.9204 C   0  0  0  0  0  0  0  0  0  0  0  0
   -6.2457   24.3983  -22.6330 N   0  0  0  0  0  0  0  0  0  0  0  0
   -6.8035   25.5533  -23.3424 C   0  0  0  0  0  0  0  0  0  0  0  0
   -8.2754   25.3827  -23.3559 C   0  0  0  0  0  0  0  0  0  0  0  0
   -8.8200   25.0332  -22.0536 N   0  0  0  0  0  0  0  0  0  0  0  0
   -8.0045   24.5914  -20.9794 C   0  0  0  0  0  0  0  0  0  0  0  0
   -6.5283   24.6457  -21.2512 C   0  0  0  0  0  0  0  0  0  0  0  0
  -10.2490   25.1746  -21.9208 C   0  0  0  0  0  0  0  0  0  0  0  0
  -10.8604   25.6402  -22.9972 O   0  0  0  0  0  0  0  0  0  0  0  0
  -11.1184   24.9051  -20.8474 C   0  0  0  0  0  0  0  0  0  0  0  0
  -11.5791   25.6745  -19.9351 C   0  0  0  0  0  0  0  0  0  0  0  0
 20 21  1  0  0  0
 21 12  1  0  0  0
 12 13  2  0  0  0
 13 14  1  0  0  0
 14 22  1  0  0  0
 22 23  1  0  0  0
 14 15  2  0  0  0
 15 16  1  0  0  0
 15 17  1  0  0  0
 17 18  2  0  0  0
 18 19  1  0  0  0
 17  1  1  0  0  0
  1  2  2  0  0  0
  2  3  1  0  0  0
  3  4  2  0  0  0
  4  5  1  0  0  0
  5  6  2  0  0  0
  6 24  1  0  0  0
 24 26  1  0  0  0
 26 27  1  0  0  0
 27 28  1  0  0  0
 27 29  1  0  0  0
 27 30  1  0  0  0
  6  7  1  0  0  0
  7  8  2  0  0  0
  8  9  1  0  0  0
  9 32  1  0  0  0
 32 33  1  0  0  0
 33 34  1  0  0  0
 34 35  1  0  0  0
 35 36  1  0  0  0
 36 37  1  0  0  0
 37 38  1  0  0  0
 38 39  1  0  0  0
 39 40  1  0  0  0
 38 41  1  0  0  0
 41 42  2  0  0  0
 41 43  1  0  0  0
 43 44  2  0  0  0
  9 10  1  0  0  0
 10 11  2  0  0  0
 18 12  1  0  0  0
 10  1  1  0  0  0
  8  3  1  0  0  0
 40 35  1  0  0  0
 24 25  1  0  0  0
 30 31  1  0  0  0
M  END
> <minimizedAffinity>
-7.22411

> <CNNscore>
0.0742402598

> <CNNaffinity>
6.9867386818

> <CNN_VS>
0.5186973214

> <CNNaffinity_variance>
0.3847641349

$$$$
[H]OC(C([H])([H])[H])(C([H])([H])[H])C([H])([H])N([H])c1nc([H])c2c([H])c(-c3c(Cl)c(OC([H])([H])[H])c([H])c(OC([H])([H])[H])c3Cl)c(=O)n(C([H])([H])C([H])([H])C([H])([H])N3C([H])([H])C([H])([H])N(C(=O)C([H])=C([H])[H])C([H])([H])C3([H])[H])c2n1


 44 47  0  0  0  0  0  0  0  0999 V2000
   -1.3694   22.1900  -22.9429 C   0  0  0  0  0  0  0  0  0  0  0  0
   -1.5827   21.6920  -24.2074 C   0  0  0  0  0  0  0  0  0  0  0  0
   -2.4604   22.3324  -25.0306 C   0  0  0  0  0  0  0  0  0  0  0  0
   -2.6959   21.8442  -26.2983 C   0  0  0  0  0  0  0  0  0  0  0  0
   -3.5768   22.5075  -27.0628 N   0  0  0  0  0  0  0  0  0  0  0  0
   -4.2372   23.6104  -26.6686 C   0  0  0  0  0  0  0  0  0  0  0  0
   -3.9967   24.0725  -25.4334 N   0  0  0  0  0  0  0  0  0  0  0  0
   -3.1180   23.4645  -24.5860 C   0  0  0  0  0  0  0  0  0  0  0  0
   -2.9274   23.9694  -23.3602 N   0  0  0  0  0  0  0  0  0  0  0  0
   -2.0552   23.3237  -22.5555 C   0  0  0  0  0  0  0  0  0  0  0  0
   -1.8317   23.7517  -21.3827 O   0  0  0  0  0  0  0  0  0  0  0  0
    0.0588   20.3328  -20.0284 C   0  0  0  0  0  0  0  0  0  0  0  0
    1.3540   20.1979  -20.4762 C   0  0  0  0  0  0  0  0  0  0  0  0
    1.8043   20.6809  -21.6902 C   0  0  0  0  0  0  0  0  0  0  0  0
    0.8678   21.3405  -22.4888 C   0  0  0  0  0  0  0  0  0  0  0  0
    1.4487   21.9506  -24.0296 Cl  0  0  0  0  0  0  0  0  0  0  0  0
   -0.4339   21.4990  -22.0842 C   0  0  0  0  0  0  0  0  0  0  0  0
   -0.8393   21.0038  -20.8708 C   0  0  0  0  0  0  0  0  0  0  0  0
   -2.4848   21.1711  -20.2941 Cl  0  0  0  0  0  0  0  0  0  0  0  0
   -0.2607   18.4742  -18.4609 C   0  0  0  0  0  0  0  0  0  0  0  0
   -0.3605   19.8358  -18.8030 O   0  0  0  0  0  0  0  0  0  0  0  0
    3.1170   20.5327  -22.1211 O   0  0  0  0  0  0  0  0  0  0  0  0
    3.7396   19.2807  -21.8790 C   0  0  0  0  0  0  0  0  0  0  0  0
   -5.1699   24.2679  -27.5457 N   0  0  0  0  0  0  0  0  0  0  0  0
   -6.1556   23.9305  -27.5848 H   0  0  0  0  0  0  0  0  0  0  0  0
   -4.7931   25.3755  -28.3719 C   0  0  0  0  0  0  0  0  0  0  0  0
   -5.4314   25.3179  -29.7401 C   0  0  0  0  0  0  0  0  0  0  0  0
   -5.6513   23.8493  -30.0763 C   0  0  0  0  0  0  0  0  0  0  0  0
   -4.5436   25.8878  -30.8174 C   0  0  0  0  0  0  0  0  0  0  0  0
   -6.6532   25.9685  -29.7408 O   0  0  0  0  0  0  0  0  0  0  0  0
   -6.5501   26.8180  -30.2388 H   0  0  0  0  0  0  0  0  0  0  0  0
   -3.5964   25.1605  -22.9059 C   0  0  0  0  0  0  0  0  0  0  0  0
   -4.8991   24.9655  -22.2300 C   0  0  0  0  0  0  0  0  0  0  0  0
   -6.1154   25.4528  -22.9611 C   0  0  0  0  0  0  0  0  0  0  0  0
   -7.3165   25.1363  -22.1939 N   0  0  0  0  0  0  0  0  0  0  0  0
   -7.5173   26.1043  -21.1119 C   0  0  0  0  0  0  0  0  0  0  0  0
   -8.9301   25.9842  -20.6813 C   0  0  0  0  0  0  0  0  0  0  0  0
   -9.3465   24.6067  -20.4722 N   0  0  0  0  0  0  0  0  0  0  0  0
   -8.5882   23.5015  -20.9390 C   0  0  0  0  0  0  0  0  0  0  0  0
   -7.2605   23.8632  -21.5408 C   0  0  0  0  0  0  0  0  0  0  0  0
  -10.5816   24.4353  -19.7478 C   0  0  0  0  0  0  0  0  0  0  0  0
  -11.1445   25.5610  -19.3416 O   0  0  0  0  0  0  0  0  0  0  0  0
  -11.3029   23.2805  -19.3919 C   0  0  0  0  0  0  0  0  0  0  0  0
  -11.2712   22.5739  -18.3259 C   0  0  0  0  0  0  0  0  0  0  0  0
 20 21  1  0  0  0
 21 12  1  0  0  0
 12 13  2  0  0  0
 13 14  1  0  0  0
 14 22  1  0  0  0
 22 23  1  0  0  0
 14 15  2  0  0  0
 15 16  1  0  0  0
 15 17  1  0  0  0
 17 18  2  0  0  0
 18 19  1  0  0  0
 17  1  1  0  0  0
  1  2  2  0  0  0
  2  3  1  0  0  0
  3  4  2  0  0  0
  4  5  1  0  0  0
  5  6  2  0  0  0
  6 24  1  0  0  0
 24 26  1  0  0  0
 26 27  1  0  0  0
 27 28  1  0  0  0
 27 29  1  0  0  0
 27 30  1  0  0  0
  6  7  1  0  0  0
  7  8  2  0  0  0
  8  9  1  0  0  0
  9 32  1  0  0  0
 32 33  1  0  0  0
 33 34  1  0  0  0
 34 35  1  0  0  0
 35 36  1  0  0  0
 36 37  1  0  0  0
 37 38  1  0  0  0
 38 39  1  0  0  0
 39 40  1  0  0  0
 38 41  1  0  0  0
 41 42  2  0  0  0
 41 43  1  0  0  0
 43 44  2  0  0  0
  9 10  1  0  0  0
 10 11  2  0  0  0
 18 12  1  0  0  0
 10  1  1  0  0  0
  8  3  1  0  0  0
 40 35  1  0  0  0
 24 25  1  0  0  0
 30 31  1  0  0  0
M  END
> <minimizedAffinity>
-8.49704

> <CNNscore>
0.0544270240

> <CNNaffinity>
6.8544106483

> <CNN_VS>
0.3730651736

> <CNNaffinity_variance>
0.2868053317

$$$$
[H]OC(C([H])([H])[H])(C([H])([H])[H])C([H])([H])N([H])c1nc([H])c2c([H])c(-c3c(Cl)c(OC([H])([H])[H])c([H])c(OC([H])([H])[H])c3Cl)c(=O)n(C([H])([H])C([H])([H])C([H])([H])N3C([H])([H])C([H])([H])N(C(=O)C([H])=C([H])[H])C([H])([H])C3([H])[H])c2n1


 44 47  0  0  0  0  0  0  0  0999 V2000
   -0.4696   21.1817  -21.0607 C   0  0  0  0  0  0  0  0  0  0  0  0
    0.2648   21.4678  -22.1882 C   0  0  0  0  0  0  0  0  0  0  0  0
   -0.3867   21.8592  -23.3198 C   0  0  0  0  0  0  0  0  0  0  0  0
    0.3297   22.1412  -24.4634 C   0  0  0  0  0  0  0  0  0  0  0  0
   -0.3625   22.5121  -25.5514 N   0  0  0  0  0  0  0  0  0  0  0  0
   -1.7019   22.6238  -25.5912 C   0  0  0  0  0  0  0  0  0  0  0  0
   -2.3838   22.3463  -24.4709 N   0  0  0  0  0  0  0  0  0  0  0  0
   -1.7655   21.9622  -23.3175 C   0  0  0  0  0  0  0  0  0  0  0  0
   -2.5031   21.6899  -22.2332 N   0  0  0  0  0  0  0  0  0  0  0  0
   -1.8436   21.3028  -21.1195 C   0  0  0  0  0  0  0  0  0  0  0  0
   -2.4852   21.0301  -20.0600 O   0  0  0  0  0  0  0  0  0  0  0  0
    1.2825   19.0455  -18.5408 C   0  0  0  0  0  0  0  0  0  0  0  0
    1.5741   20.0144  -17.6067 C   0  0  0  0  0  0  0  0  0  0  0  0
    1.2317   21.3462  -17.7446 C   0  0  0  0  0  0  0  0  0  0  0  0
    0.5503   21.7009  -18.9106 C   0  0  0  0  0  0  0  0  0  0  0  0
    0.1197   23.3951  -19.0774 Cl  0  0  0  0  0  0  0  0  0  0  0  0
    0.2381   20.7699  -19.8694 C   0  0  0  0  0  0  0  0  0  0  0  0
    0.5969   19.4577  -19.6926 C   0  0  0  0  0  0  0  0  0  0  0  0
    0.2300   18.2195  -20.8760 Cl  0  0  0  0  0  0  0  0  0  0  0  0
    2.7025   17.3159  -17.5381 C   0  0  0  0  0  0  0  0  0  0  0  0
    1.6409   17.7162  -18.3709 O   0  0  0  0  0  0  0  0  0  0  0  0
    1.5368   22.3065  -16.7878 O   0  0  0  0  0  0  0  0  0  0  0  0
    1.2100   22.0037  -15.4405 C   0  0  0  0  0  0  0  0  0  0  0  0
   -2.3757   23.0265  -26.7976 N   0  0  0  0  0  0  0  0  0  0  0  0
   -1.9100   23.7050  -27.4377 H   0  0  0  0  0  0  0  0  0  0  0  0
   -3.6697   22.5271  -27.1546 C   0  0  0  0  0  0  0  0  0  0  0  0
   -4.7633   23.5446  -26.9279 C   0  0  0  0  0  0  0  0  0  0  0  0
   -5.6335   23.5607  -28.1772 C   0  0  0  0  0  0  0  0  0  0  0  0
   -4.2256   24.9418  -26.7480 C   0  0  0  0  0  0  0  0  0  0  0  0
   -5.5434   23.1943  -25.8395 O   0  0  0  0  0  0  0  0  0  0  0  0
   -5.3317   23.8131  -25.0961 H   0  0  0  0  0  0  0  0  0  0  0  0
   -3.9370   21.8183  -22.2257 C   0  0  0  0  0  0  0  0  0  0  0  0
   -4.4810   23.0809  -21.6767 C   0  0  0  0  0  0  0  0  0  0  0  0
   -5.8287   23.5074  -22.1799 C   0  0  0  0  0  0  0  0  0  0  0  0
   -6.8536   23.1829  -21.1923 N   0  0  0  0  0  0  0  0  0  0  0  0
   -6.2585   22.9717  -19.8696 C   0  0  0  0  0  0  0  0  0  0  0  0
   -7.3550   23.0848  -18.8793 C   0  0  0  0  0  0  0  0  0  0  0  0
   -8.5342   22.3167  -19.2453 N   0  0  0  0  0  0  0  0  0  0  0  0
   -8.7267   21.7893  -20.5488 C   0  0  0  0  0  0  0  0  0  0  0  0
   -7.5581   21.9688  -21.4751 C   0  0  0  0  0  0  0  0  0  0  0  0
   -9.4961   22.1164  -18.1897 C   0  0  0  0  0  0  0  0  0  0  0  0
   -9.1496   22.6312  -17.0218 O   0  0  0  0  0  0  0  0  0  0  0  0
  -10.7457   21.4691  -18.1754 C   0  0  0  0  0  0  0  0  0  0  0  0
  -11.1716   20.4959  -17.4625 C   0  0  0  0  0  0  0  0  0  0  0  0
 20 21  1  0  0  0
 21 12  1  0  0  0
 12 13  2  0  0  0
 13 14  1  0  0  0
 14 22  1  0  0  0
 22 23  1  0  0  0
 14 15  2  0  0  0
 15 16  1  0  0  0
 15 17  1  0  0  0
 17 18  2  0  0  0
 18 19  1  0  0  0
 17  1  1  0  0  0
  1  2  2  0  0  0
  2  3  1  0  0  0
  3  4  2  0  0  0
  4  5  1  0  0  0
  5  6  2  0  0  0
  6 24  1  0  0  0
 24 26  1  0  0  0
 26 27  1  0  0  0
 27 28  1  0  0  0
 27 29  1  0  0  0
 27 30  1  0  0  0
  6  7  1  0  0  0
  7  8  2  0  0  0
  8  9  1  0  0  0
  9 32  1  0  0  0
 32 33  1  0  0  0
 33 34  1  0  0  0
 34 35  1  0  0  0
 35 36  1  0  0  0
 36 37  1  0  0  0
 37 38  1  0  0  0
 38 39  1  0  0  0
 39 40  1  0  0  0
 38 41  1  0  0  0
 41 42  2  0  0  0
 41 43  1  0  0  0
 43 44  2  0  0  0
  9 10  1  0  0  0
 10 11  2  0  0  0
 18 12  1  0  0  0
 10  1  1  0  0  0
  8  3  1  0  0  0
 40 35  1  0  0  0
 24 25  1  0  0  0
 30 31  1  0  0  0
M  END
> <minimizedAffinity>
-6.66236

> <CNNscore>
0.0506155528

> <CNNaffinity>
6.7904329300

> <CNN_VS>
0.3437015116

> <CNNaffinity_variance>
0.2045667171

$$$$
[H]OC(C([H])([H])[H])(C([H])([H])[H])C([H])([H])N([H])c1nc([H])c2c([H])c(-c3c(Cl)c(OC([H])([H])[H])c([H])c(OC([H])([H])[H])c3Cl)c(=O)n(C([H])([H])C([H])([H])C([H])([H])N3C([H])([H])C([H])([H])N(C(=O)C([H])=C([H])[H])C([H])([H])C3([H])[H])c2n1


 44 47  0  0  0  0  0  0  0  0999 V2000
   -4.0099   20.8225  -17.9075 C   0  0  0  0  0  0  0  0  0  0  0  0
   -5.1458   21.5701  -18.1151 C   0  0  0  0  0  0  0  0  0  0  0  0
   -5.1622   22.4799  -19.1300 C   0  0  0  0  0  0  0  0  0  0  0  0
   -6.2872   23.2461  -19.3490 C   0  0  0  0  0  0  0  0  0  0  0  0
   -6.2454   24.1331  -20.3549 N   0  0  0  0  0  0  0  0  0  0  0  0
   -5.1803   24.3166  -21.1548 C   0  0  0  0  0  0  0  0  0  0  0  0
   -4.0944   23.5635  -20.9290 N   0  0  0  0  0  0  0  0  0  0  0  0
   -4.0454   22.6363  -19.9300 C   0  0  0  0  0  0  0  0  0  0  0  0
   -2.9278   21.9207  -19.7490 N   0  0  0  0  0  0  0  0  0  0  0  0
   -2.9262   21.0235  -18.7389 C   0  0  0  0  0  0  0  0  0  0  0  0
   -1.8980   20.3156  -18.5156 O   0  0  0  0  0  0  0  0  0  0  0  0
   -4.4556   17.6373  -16.0000 C   0  0  0  0  0  0  0  0  0  0  0  0
   -4.0063   18.0617  -14.7694 C   0  0  0  0  0  0  0  0  0  0  0  0
   -3.5575   19.3434  -14.5125 C   0  0  0  0  0  0  0  0  0  0  0  0
   -3.5721   20.2391  -15.5836 C   0  0  0  0  0  0  0  0  0  0  0  0
   -2.9998   21.8651  -15.2480 Cl  0  0  0  0  0  0  0  0  0  0  0  0
   -4.0111   19.8614  -16.8277 C   0  0  0  0  0  0  0  0  0  0  0  0
   -4.4484   18.5785  -17.0395 C   0  0  0  0  0  0  0  0  0  0  0  0
   -5.0211   18.0307  -18.6016 Cl  0  0  0  0  0  0  0  0  0  0  0  0
   -5.6076   15.6040  -15.2570 C   0  0  0  0  0  0  0  0  0  0  0  0
   -4.8999   16.3423  -16.2238 O   0  0  0  0  0  0  0  0  0  0  0  0
   -3.1086   19.7489  -13.2617 O   0  0  0  0  0  0  0  0  0  0  0  0
   -4.0948   20.0356  -12.2823 C   0  0  0  0  0  0  0  0  0  0  0  0
   -5.2093   25.2900  -22.2146 N   0  0  0  0  0  0  0  0  0  0  0  0
   -5.8456   26.1119  -22.1328 H   0  0  0  0  0  0  0  0  0  0  0  0
   -4.3918   25.1719  -23.3846 C   0  0  0  0  0  0  0  0  0  0  0  0
   -5.1498   25.4898  -24.6524 C   0  0  0  0  0  0  0  0  0  0  0  0
   -4.3530   26.5475  -25.4038 C   0  0  0  0  0  0  0  0  0  0  0  0
   -6.5123   26.0757  -24.3805 C   0  0  0  0  0  0  0  0  0  0  0  0
   -5.2693   24.3645  -25.4494 O   0  0  0  0  0  0  0  0  0  0  0  0
   -6.2099   24.0576  -25.4109 H   0  0  0  0  0  0  0  0  0  0  0  0
   -1.7731   22.0692  -20.5960 C   0  0  0  0  0  0  0  0  0  0  0  0
   -1.7359   21.2237  -21.8107 C   0  0  0  0  0  0  0  0  0  0  0  0
   -0.4425   21.1954  -22.5707 C   0  0  0  0  0  0  0  0  0  0  0  0
   -0.6693   21.6054  -23.9533 N   0  0  0  0  0  0  0  0  0  0  0  0
    0.5010   22.3052  -24.4910 C   0  0  0  0  0  0  0  0  0  0  0  0
    0.3715   22.2928  -25.9671 C   0  0  0  0  0  0  0  0  0  0  0  0
   -0.9505   22.6882  -26.4260 N   0  0  0  0  0  0  0  0  0  0  0  0
   -2.0699   22.7601  -25.5564 C   0  0  0  0  0  0  0  0  0  0  0  0
   -1.7516   22.5304  -24.1067 C   0  0  0  0  0  0  0  0  0  0  0  0
   -1.0489   23.0136  -27.8275 C   0  0  0  0  0  0  0  0  0  0  0  0
    0.0919   22.9415  -28.4926 O   0  0  0  0  0  0  0  0  0  0  0  0
   -2.1453   23.3959  -28.6227 C   0  0  0  0  0  0  0  0  0  0  0  0
   -3.2605   22.8086  -28.8419 C   0  0  0  0  0  0  0  0  0  0  0  0
 20 21  1  0  0  0
 21 12  1  0  0  0
 12 13  2  0  0  0
 13 14  1  0  0  0
 14 22  1  0  0  0
 22 23  1  0  0  0
 14 15  2  0  0  0
 15 16  1  0  0  0
 15 17  1  0  0  0
 17 18  2  0  0  0
 18 19  1  0  0  0
 17  1  1  0  0  0
  1  2  2  0  0  0
  2  3  1  0  0  0
  3  4  2  0  0  0
  4  5  1  0  0  0
  5  6  2  0  0  0
  6 24  1  0  0  0
 24 26  1  0  0  0
 26 27  1  0  0  0
 27 28  1  0  0  0
 27 29  1  0  0  0
 27 30  1  0  0  0
  6  7  1  0  0  0
  7  8  2  0  0  0
  8  9  1  0  0  0
  9 32  1  0  0  0
 32 33  1  0  0  0
 33 34  1  0  0  0
 34 35  1  0  0  0
 35 36  1  0  0  0
 36 37  1  0  0  0
 37 38  1  0  0  0
 38 39  1  0  0  0
 39 40  1  0  0  0
 38 41  1  0  0  0
 41 42  2  0  0  0
 41 43  1  0  0  0
 43 44  2  0  0  0
  9 10  1  0  0  0
 10 11  2  0  0  0
 18 12  1  0  0  0
 10  1  1  0  0  0
  8  3  1  0  0  0
 40 35  1  0  0  0
 24 25  1  0  0  0
 30 31  1  0  0  0
M  END
> <minimizedAffinity>
-6.40819

> <CNNscore>
0.0494940504

> <CNNaffinity>
6.4374170303

> <CNN_VS>
0.3186138570

> <CNNaffinity_variance>
0.0807253346

$$$$
[H]OC(C([H])([H])[H])(C([H])([H])[H])C([H])([H])N([H])c1nc([H])c2c([H])c(-c3c(Cl)c(OC([H])([H])[H])c([H])c(OC([H])([H])[H])c3Cl)c(=O)n(C([H])([H])C([H])([H])C([H])([H])N3C([H])([H])C([H])([H])N(C(=O)C([H])=C([H])[H])C([H])([H])C3([H])[H])c2n1


 44 47  0  0  0  0  0  0  0  0999 V2000
   -1.8772   22.4858  -23.4496 C   0  0  0  0  0  0  0  0  0  0  0  0
   -2.1827   21.9817  -24.6926 C   0  0  0  0  0  0  0  0  0  0  0  0
   -3.0861   22.6427  -25.4703 C   0  0  0  0  0  0  0  0  0  0  0  0
   -3.4135   22.1491  -26.7152 C   0  0  0  0  0  0  0  0  0  0  0  0
   -4.3159   22.8339  -27.4344 N   0  0  0  0  0  0  0  0  0  0  0  0
   -4.9141   23.9630  -27.0159 C   0  0  0  0  0  0  0  0  0  0  0  0
   -4.5846   24.4300  -25.8032 N   0  0  0  0  0  0  0  0  0  0  0  0
   -3.6775   23.8015  -25.0019 C   0  0  0  0  0  0  0  0  0  0  0  0
   -3.3970   24.3129  -23.7962 N   0  0  0  0  0  0  0  0  0  0  0  0
   -2.5002   23.6465  -23.0366 C   0  0  0  0  0  0  0  0  0  0  0  0
   -2.1925   24.0793  -21.8849 O   0  0  0  0  0  0  0  0  0  0  0  0
    1.3252   20.9474  -22.2829 C   0  0  0  0  0  0  0  0  0  0  0  0
    0.8845   20.4172  -21.0908 C   0  0  0  0  0  0  0  0  0  0  0  0
   -0.4137   20.5294  -20.6302 C   0  0  0  0  0  0  0  0  0  0  0  0
   -1.3093   21.2270  -21.4432 C   0  0  0  0  0  0  0  0  0  0  0  0
   -2.9563   21.3648  -20.8498 Cl  0  0  0  0  0  0  0  0  0  0  0  0
   -0.9157   21.7726  -22.6393 C   0  0  0  0  0  0  0  0  0  0  0  0
    0.3833   21.6379  -23.0592 C   0  0  0  0  0  0  0  0  0  0  0  0
    0.9518   22.3094  -24.5739 Cl  0  0  0  0  0  0  0  0  0  0  0  0
    3.6839   20.4265  -21.8607 C   0  0  0  0  0  0  0  0  0  0  0  0
    2.6365   20.8163  -22.7161 O   0  0  0  0  0  0  0  0  0  0  0  0
   -0.8354   19.9856  -19.4231 O   0  0  0  0  0  0  0  0  0  0  0  0
    0.1068   19.2100  -18.6989 C   0  0  0  0  0  0  0  0  0  0  0  0
   -5.8752   24.6425  -27.8442 N   0  0  0  0  0  0  0  0  0  0  0  0
   -6.8030   24.1988  -28.0152 H   0  0  0  0  0  0  0  0  0  0  0  0
   -5.6038   25.9134  -28.4462 C   0  0  0  0  0  0  0  0  0  0  0  0
   -5.1733   25.7881  -29.8891 C   0  0  0  0  0  0  0  0  0  0  0  0
   -5.7447   24.4807  -30.4205 C   0  0  0  0  0  0  0  0  0  0  0  0
   -3.6753   25.7079  -30.0413 C   0  0  0  0  0  0  0  0  0  0  0  0
   -5.6699   26.8369  -30.6436 O   0  0  0  0  0  0  0  0  0  0  0  0
   -4.9176   27.4415  -30.8643 H   0  0  0  0  0  0  0  0  0  0  0  0
   -3.9972   25.5311  -23.3183 C   0  0  0  0  0  0  0  0  0  0  0  0
   -5.0586   25.3842  -22.2967 C   0  0  0  0  0  0  0  0  0  0  0  0
   -6.3981   24.9135  -22.7818 C   0  0  0  0  0  0  0  0  0  0  0  0
   -6.9742   23.9779  -21.8207 N   0  0  0  0  0  0  0  0  0  0  0  0
   -6.8045   22.5934  -22.2709 C   0  0  0  0  0  0  0  0  0  0  0  0
   -7.0038   21.7261  -21.0861 C   0  0  0  0  0  0  0  0  0  0  0  0
   -8.1915   22.0712  -20.3212 N   0  0  0  0  0  0  0  0  0  0  0  0
   -8.8891   23.2932  -20.5058 C   0  0  0  0  0  0  0  0  0  0  0  0
   -8.3864   24.1349  -21.6436 C   0  0  0  0  0  0  0  0  0  0  0  0
   -8.6222   21.0817  -19.3646 C   0  0  0  0  0  0  0  0  0  0  0  0
   -7.8932   19.9784  -19.3449 O   0  0  0  0  0  0  0  0  0  0  0  0
   -9.6841   21.0758  -18.4410 C   0  0  0  0  0  0  0  0  0  0  0  0
   -9.9400   21.8573  -17.4610 C   0  0  0  0  0  0  0  0  0  0  0  0
 20 21  1  0  0  0
 21 12  1  0  0  0
 12 13  2  0  0  0
 13 14  1  0  0  0
 14 22  1  0  0  0
 22 23  1  0  0  0
 14 15  2  0  0  0
 15 16  1  0  0  0
 15 17  1  0  0  0
 17 18  2  0  0  0
 18 19  1  0  0  0
 17  1  1  0  0  0
  1  2  2  0  0  0
  2  3  1  0  0  0
  3  4  2  0  0  0
  4  5  1  0  0  0
  5  6  2  0  0  0
  6 24  1  0  0  0
 24 26  1  0  0  0
 26 27  1  0  0  0
 27 28  1  0  0  0
 27 29  1  0  0  0
 27 30  1  0  0  0
  6  7  1  0  0  0
  7  8  2  0  0  0
  8  9  1  0  0  0
  9 32  1  0  0  0
 32 33  1  0  0  0
 33 34  1  0  0  0
 34 35  1  0  0  0
 35 36  1  0  0  0
 36 37  1  0  0  0
 37 38  1  0  0  0
 38 39  1  0  0  0
 39 40  1  0  0  0
 38 41  1  0  0  0
 41 42  2  0  0  0
 41 43  1  0  0  0
 43 44  2  0  0  0
  9 10  1  0  0  0
 10 11  2  0  0  0
 18 12  1  0  0  0
 10  1  1  0  0  0
  8  3  1  0  0  0
 40 35  1  0  0  0
 24 25  1  0  0  0
 30 31  1  0  0  0
M  END
> <minimizedAffinity>
-8.16598

> <CNNscore>
0.0490875319

> <CNNaffinity>
6.8104429245

> <CNN_VS>
0.3343078196

> <CNNaffinity_variance>
0.6286294460

$$$$
[H]OC(C([H])([H])[H])(C([H])([H])[H])C([H])([H])N([H])c1nc([H])c2c([H])c(-c3c(Cl)c(OC([H])([H])[H])c([H])c(OC([H])([H])[H])c3Cl)c(=O)n(C([H])([H])C([H])([H])C([H])([H])N3C([H])([H])C([H])([H])N(C(=O)C([H])=C([H])[H])C([H])([H])C3([H])[H])c2n1


 44 47  0  0  0  0  0  0  0  0999 V2000
   -5.9913   22.2226  -18.2517 C   0  0  0  0  0  0  0  0  0  0  0  0
   -6.6745   22.8433  -19.2716 C   0  0  0  0  0  0  0  0  0  0  0  0
   -5.9712   23.3711  -20.3132 C   0  0  0  0  0  0  0  0  0  0  0  0
   -6.6360   24.0060  -21.3407 C   0  0  0  0  0  0  0  0  0  0  0  0
   -5.8940   24.5161  -22.3355 N   0  0  0  0  0  0  0  0  0  0  0  0
   -4.5523   24.4450  -22.3886 C   0  0  0  0  0  0  0  0  0  0  0  0
   -3.9210   23.8241  -21.3820 N   0  0  0  0  0  0  0  0  0  0  0  0
   -4.5919   23.2752  -20.3291 C   0  0  0  0  0  0  0  0  0  0  0  0
   -3.9035   22.6757  -19.3490 N   0  0  0  0  0  0  0  0  0  0  0  0
   -4.6141   22.1579  -18.3232 C   0  0  0  0  0  0  0  0  0  0  0  0
   -4.0206   21.5781  -17.3641 O   0  0  0  0  0  0  0  0  0  0  0  0
   -7.7240   21.8803  -14.9557 C   0  0  0  0  0  0  0  0  0  0  0  0
   -8.1960   20.5943  -15.0961 C   0  0  0  0  0  0  0  0  0  0  0  0
   -7.9841   19.8133  -16.2164 C   0  0  0  0  0  0  0  0  0  0  0  0
   -7.2442   20.3890  -17.2512 C   0  0  0  0  0  0  0  0  0  0  0  0
   -6.9803   19.3895  -18.6707 Cl  0  0  0  0  0  0  0  0  0  0  0  0
   -6.7536   21.6671  -17.1562 C   0  0  0  0  0  0  0  0  0  0  0  0
   -6.9871   22.4083  -16.0257 C   0  0  0  0  0  0  0  0  0  0  0  0
   -6.3905   24.0446  -15.8394 Cl  0  0  0  0  0  0  0  0  0  0  0  0
   -9.1710   23.3058  -13.5817 C   0  0  0  0  0  0  0  0  0  0  0  0
   -7.9548   22.6375  -13.8165 O   0  0  0  0  0  0  0  0  0  0  0  0
   -8.4706   18.5172  -16.3354 O   0  0  0  0  0  0  0  0  0  0  0  0
   -8.8932   17.8731  -15.1437 C   0  0  0  0  0  0  0  0  0  0  0  0
   -3.8235   25.0181  -23.4895 N   0  0  0  0  0  0  0  0  0  0  0  0
   -3.0010   25.6276  -23.2923 H   0  0  0  0  0  0  0  0  0  0  0  0
   -4.1875   24.7810  -24.8542 C   0  0  0  0  0  0  0  0  0  0  0  0
   -4.8760   25.9702  -25.4825 C   0  0  0  0  0  0  0  0  0  0  0  0
   -4.7631   25.8136  -26.9927 C   0  0  0  0  0  0  0  0  0  0  0  0
   -4.2148   27.2773  -25.1249 C   0  0  0  0  0  0  0  0  0  0  0  0
   -6.2145   26.0057  -25.1316 O   0  0  0  0  0  0  0  0  0  0  0  0
   -6.3452   26.7465  -24.4879 H   0  0  0  0  0  0  0  0  0  0  0  0
   -2.4690   22.5574  -19.3772 C   0  0  0  0  0  0  0  0  0  0  0  0
   -1.9172   21.4390  -20.1748 C   0  0  0  0  0  0  0  0  0  0  0  0
   -0.5147   21.6028  -20.6822 C   0  0  0  0  0  0  0  0  0  0  0  0
   -0.5331   21.8650  -22.1182 N   0  0  0  0  0  0  0  0  0  0  0  0
   -1.7064   21.2522  -22.7477 C   0  0  0  0  0  0  0  0  0  0  0  0
   -1.8842   21.9104  -24.0634 C   0  0  0  0  0  0  0  0  0  0  0  0
   -0.6495   22.0007  -24.8263 N   0  0  0  0  0  0  0  0  0  0  0  0
    0.6253   21.7794  -24.2431 C   0  0  0  0  0  0  0  0  0  0  0  0
    0.5880   21.3118  -22.8164 C   0  0  0  0  0  0  0  0  0  0  0  0
   -0.8059   22.3220  -26.2234 C   0  0  0  0  0  0  0  0  0  0  0  0
   -2.0598   22.4532  -26.6230 O   0  0  0  0  0  0  0  0  0  0  0  0
    0.1390   22.5236  -27.2467 C   0  0  0  0  0  0  0  0  0  0  0  0
    0.0432   23.1518  -28.3571 C   0  0  0  0  0  0  0  0  0  0  0  0
 20 21  1  0  0  0
 21 12  1  0  0  0
 12 13  2  0  0  0
 13 14  1  0  0  0
 14 22  1  0  0  0
 22 23  1  0  0  0
 14 15  2  0  0  0
 15 16  1  0  0  0
 15 17  1  0  0  0
 17 18  2  0  0  0
 18 19  1  0  0  0
 17  1  1  0  0  0
  1  2  2  0  0  0
  2  3  1  0  0  0
  3  4  2  0  0  0
  4  5  1  0  0  0
  5  6  2  0  0  0
  6 24  1  0  0  0
 24 26  1  0  0  0
 26 27  1  0  0  0
 27 28  1  0  0  0
 27 29  1  0  0  0
 27 30  1  0  0  0
  6  7  1  0  0  0
  7  8  2  0  0  0
  8  9  1  0  0  0
  9 32  1  0  0  0
 32 33  1  0  0  0
 33 34  1  0  0  0
 34 35  1  0  0  0
 35 36  1  0  0  0
 36 37  1  0  0  0
 37 38  1  0  0  0
 38 39  1  0  0  0
 39 40  1  0  0  0
 38 41  1  0  0  0
 41 42  2  0  0  0
 41 43  1  0  0  0
 43 44  2  0  0  0
  9 10  1  0  0  0
 10 11  2  0  0  0
 18 12  1  0  0  0
 10  1  1  0  0  0
  8  3  1  0  0  0
 40 35  1  0  0  0
 24 25  1  0  0  0
 30 31  1  0  0  0
M  END
> <minimizedAffinity>
-6.95416

> <CNNscore>
0.0428103395

> <CNNaffinity>
5.9434041977

> <CNN_VS>
0.2544391453

> <CNNaffinity_variance>
0.4908916056

$$$$
[H]OC(C([H])([H])[H])(C([H])([H])[H])C([H])([H])N([H])c1nc([H])c2c([H])c(-c3c(Cl)c(OC([H])([H])[H])c([H])c(OC([H])([H])[H])c3Cl)c(=O)n(C([H])([H])C([H])([H])C([H])([H])N3C([H])([H])C([H])([H])N(C(=O)C([H])=C([H])[H])C([H])([H])C3([H])[H])c2n1


 44 47  0  0  0  0  0  0  0  0999 V2000
   -5.8029   22.0916  -18.3531 C   0  0  0  0  0  0  0  0  0  0  0  0
   -6.5196   22.6916  -19.3624 C   0  0  0  0  0  0  0  0  0  0  0  0
   -5.8479   23.2450  -20.4115 C   0  0  0  0  0  0  0  0  0  0  0  0
   -6.5468   23.8597  -21.4286 C   0  0  0  0  0  0  0  0  0  0  0  0
   -5.8352   24.3967  -22.4315 N   0  0  0  0  0  0  0  0  0  0  0  0
   -4.4927   24.3706  -22.5020 C   0  0  0  0  0  0  0  0  0  0  0  0
   -3.8280   23.7688  -21.5054 N   0  0  0  0  0  0  0  0  0  0  0  0
   -4.4665   23.1953  -20.4455 C   0  0  0  0  0  0  0  0  0  0  0  0
   -3.7458   22.6169  -19.4760 N   0  0  0  0  0  0  0  0  0  0  0  0
   -4.4253   22.0732  -18.4426 C   0  0  0  0  0  0  0  0  0  0  0  0
   -3.8004   21.5113  -17.4928 O   0  0  0  0  0  0  0  0  0  0  0  0
   -7.6659   19.6286  -16.2447 C   0  0  0  0  0  0  0  0  0  0  0  0
   -7.9113   20.4279  -15.1505 C   0  0  0  0  0  0  0  0  0  0  0  0
   -7.5018   21.7441  -15.0499 C   0  0  0  0  0  0  0  0  0  0  0  0
   -6.7998   22.2671  -16.1377 C   0  0  0  0  0  0  0  0  0  0  0  0
   -6.2833   23.9399  -16.0009 Cl  0  0  0  0  0  0  0  0  0  0  0  0
   -6.5319   21.5084  -17.2494 C   0  0  0  0  0  0  0  0  0  0  0  0
   -6.9568   20.2054  -17.3082 C   0  0  0  0  0  0  0  0  0  0  0  0
   -6.6486   19.1820  -18.6960 Cl  0  0  0  0  0  0  0  0  0  0  0  0
   -7.7120   17.3387  -15.3683 C   0  0  0  0  0  0  0  0  0  0  0  0
   -8.0916   18.3101  -16.3134 O   0  0  0  0  0  0  0  0  0  0  0  0
   -7.7613   22.5317  -13.9350 O   0  0  0  0  0  0  0  0  0  0  0  0
   -9.0834   23.0248  -13.7851 C   0  0  0  0  0  0  0  0  0  0  0  0
   -3.7978   24.9703  -23.6106 N   0  0  0  0  0  0  0  0  0  0  0  0
   -2.9449   25.5412  -23.4272 H   0  0  0  0  0  0  0  0  0  0  0  0
   -4.2361   24.8114  -24.9648 C   0  0  0  0  0  0  0  0  0  0  0  0
   -4.9463   26.0376  -25.4889 C   0  0  0  0  0  0  0  0  0  0  0  0
   -4.9875   25.9236  -27.0067 C   0  0  0  0  0  0  0  0  0  0  0  0
   -4.2132   27.3144  -25.1633 C   0  0  0  0  0  0  0  0  0  0  0  0
   -6.2420   26.0998  -25.0061 O   0  0  0  0  0  0  0  0  0  0  0  0
   -6.2859   26.8243  -24.3327 H   0  0  0  0  0  0  0  0  0  0  0  0
   -2.3086   22.5467  -19.5229 C   0  0  0  0  0  0  0  0  0  0  0  0
   -1.7296   21.3254  -20.1269 C   0  0  0  0  0  0  0  0  0  0  0  0
   -0.3357   21.4400  -20.6704 C   0  0  0  0  0  0  0  0  0  0  0  0
   -0.3819   21.7835  -22.0885 N   0  0  0  0  0  0  0  0  0  0  0  0
   -1.5472   21.1756  -22.7372 C   0  0  0  0  0  0  0  0  0  0  0  0
   -1.7616   21.9029  -24.0103 C   0  0  0  0  0  0  0  0  0  0  0  0
   -0.5409   22.0710  -24.7825 N   0  0  0  0  0  0  0  0  0  0  0  0
    0.7477   21.8520  -24.2295 C   0  0  0  0  0  0  0  0  0  0  0  0
    0.7435   21.3025  -22.8318 C   0  0  0  0  0  0  0  0  0  0  0  0
   -0.7261   22.4674  -26.1567 C   0  0  0  0  0  0  0  0  0  0  0  0
   -1.9887   22.5865  -26.5318 O   0  0  0  0  0  0  0  0  0  0  0  0
    0.1982   22.7534  -27.1787 C   0  0  0  0  0  0  0  0  0  0  0  0
    0.0140   23.0502  -28.4094 C   0  0  0  0  0  0  0  0  0  0  0  0
 20 21  1  0  0  0
 21 12  1  0  0  0
 12 13  2  0  0  0
 13 14  1  0  0  0
 14 22  1  0  0  0
 22 23  1  0  0  0
 14 15  2  0  0  0
 15 16  1  0  0  0
 15 17  1  0  0  0
 17 18  2  0  0  0
 18 19  1  0  0  0
 17  1  1  0  0  0
  1  2  2  0  0  0
  2  3  1  0  0  0
  3  4  2  0  0  0
  4  5  1  0  0  0
  5  6  2  0  0  0
  6 24  1  0  0  0
 24 26  1  0  0  0
 26 27  1  0  0  0
 27 28  1  0  0  0
 27 29  1  0  0  0
 27 30  1  0  0  0
  6  7  1  0  0  0
  7  8  2  0  0  0
  8  9  1  0  0  0
  9 32  1  0  0  0
 32 33  1  0  0  0
 33 34  1  0  0  0
 34 35  1  0  0  0
 35 36  1  0  0  0
 36 37  1  0  0  0
 37 38  1  0  0  0
 38 39  1  0  0  0
 39 40  1  0  0  0
 38 41  1  0  0  0
 41 42  2  0  0  0
 41 43  1  0  0  0
 43 44  2  0  0  0
  9 10  1  0  0  0
 10 11  2  0  0  0
 18 12  1  0  0  0
 10  1  1  0  0  0
  8  3  1  0  0  0
 40 35  1  0  0  0
 24 25  1  0  0  0
 30 31  1  0  0  0
M  END
> <minimizedAffinity>
-6.91512

> <CNNscore>
0.0413325503

> <CNNaffinity>
5.9846391678

> <CNN_VS>
0.2473603934

> <CNNaffinity_variance>
0.4541668892

$$$$
[H]O[C@@]1([H])C([H])([H])N(C([H])([H])/C([H])=C(\[H])C(=O)N2C([H])([H])C([H])(n3c([H])c(C#Cc4c([H])c(OC([H])([H])[H])c([H])c(OC([H])([H])[H])c4[H])c4c(N([H])[H])nc([H])nc43)C2([H])[H])C([H])([H])C1([H])[H]


 40 44  0  0  0  0  0  0  0  0999 V2000
   -1.3545   22.2318  -24.0592 C   0  0  0  0  0  0  0  0  0  0  0  0
   -2.5802   22.8366  -24.0250 C   0  0  0  0  0  0  0  0  0  0  0  0
   -2.8460   23.3480  -25.2554 N   0  0  0  0  0  0  0  0  0  0  0  0
   -1.7962   23.0627  -26.0430 C   0  0  0  0  0  0  0  0  0  0  0  0
   -1.5436   23.3282  -27.3252 N   0  0  0  0  0  0  0  0  0  0  0  0
   -0.3870   22.9112  -27.8645 C   0  0  0  0  0  0  0  0  0  0  0  0
    0.5459   22.2312  -27.1785 N   0  0  0  0  0  0  0  0  0  0  0  0
    0.3421   21.9367  -25.8808 C   0  0  0  0  0  0  0  0  0  0  0  0
    1.3093   21.2205  -25.1352 N   0  0  0  0  0  0  0  0  0  0  0  0
   -0.8471   22.3620  -25.3159 C   0  0  0  0  0  0  0  0  0  0  0  0
    2.0808   21.7776  -24.7104 H   0  0  0  0  0  0  0  0  0  0  0  0
    1.3189   20.2002  -24.9750 H   0  0  0  0  0  0  0  0  0  0  0  0
   -4.0765   24.0521  -25.5124 C   0  0  0  0  0  0  0  0  0  0  0  0
   -5.2502   23.2659  -25.9834 C   0  0  0  0  0  0  0  0  0  0  0  0
   -6.0805   24.1379  -25.1810 N   0  0  0  0  0  0  0  0  0  0  0  0
   -4.9626   24.2371  -24.2682 C   0  0  0  0  0  0  0  0  0  0  0  0
   -7.3847   24.6552  -25.2632 C   0  0  0  0  0  0  0  0  0  0  0  0
   -8.0839   24.3227  -26.2888 O   0  0  0  0  0  0  0  0  0  0  0  0
   -7.9756   25.5278  -24.2711 C   0  0  0  0  0  0  0  0  0  0  0  0
   -8.5341   25.0606  -23.1761 C   0  0  0  0  0  0  0  0  0  0  0  0
   -9.1363   25.9528  -22.1634 C   0  0  0  0  0  0  0  0  0  0  0  0
  -10.5494   25.6625  -21.9418 N   0  0  0  0  0  0  0  0  0  0  0  0
  -10.9118   26.2597  -20.6624 C   0  0  0  0  0  0  0  0  0  0  0  0
  -11.1417   27.7260  -20.9886 C   0  0  0  0  0  0  0  0  0  0  0  0
  -11.6997   27.6981  -22.3960 C   0  0  0  0  0  0  0  0  0  0  0  0
  -11.1274   28.7187  -23.1583 O   0  0  0  0  0  0  0  0  0  0  0  0
  -11.3373   26.3339  -22.9504 C   0  0  0  0  0  0  0  0  0  0  0  0
  -11.1513   28.4076  -24.1161 H   0  0  0  0  0  0  0  0  0  0  0  0
   -0.1157   20.9802  -22.0605 C   0  0  0  0  0  0  0  0  0  0  0  0
   -0.6675   21.5584  -22.9692 C   0  0  0  0  0  0  0  0  0  0  0  0
    1.8864   20.2377  -18.9746 C   0  0  0  0  0  0  0  0  0  0  0  0
    1.7393   18.8690  -18.9144 C   0  0  0  0  0  0  0  0  0  0  0  0
    1.0045   18.1774  -19.8545 C   0  0  0  0  0  0  0  0  0  0  0  0
    0.4075   18.8864  -20.8755 C   0  0  0  0  0  0  0  0  0  0  0  0
    0.5264   20.2694  -20.9802 C   0  0  0  0  0  0  0  0  0  0  0  0
    1.2731   20.9081  -20.0114 C   0  0  0  0  0  0  0  0  0  0  0  0
    2.7752   20.3994  -16.6905 C   0  0  0  0  0  0  0  0  0  0  0  0
    2.6327   20.8978  -18.0112 O   0  0  0  0  0  0  0  0  0  0  0  0
    0.8483   16.8016  -19.8056 O   0  0  0  0  0  0  0  0  0  0  0  0
    1.4487   15.9801  -20.7811 C   0  0  0  0  0  0  0  0  0  0  0  0
 37 38  1  0  0  0
 38 31  1  0  0  0
 31 32  2  0  0  0
 32 33  1  0  0  0
 33 39  1  0  0  0
 39 40  1  0  0  0
 33 34  2  0  0  0
 34 35  1  0  0  0
 35 36  2  0  0  0
 35 29  1  0  0  0
 29 30  3  0  0  0
 30  1  1  0  0  0
  1  2  2  0  0  0
  2  3  1  0  0  0
  3 13  1  0  0  0
 13 14  1  0  0  0
 14 15  1  0  0  0
 15 16  1  0  0  0
 15 17  1  0  0  0
 17 18  2  0  0  0
 17 19  1  0  0  0
 19 20  2  0  0  0
 20 21  1  0  0  0
 21 22  1  0  0  0
 22 23  1  0  0  0
 23 24  1  0  0  0
 24 25  1  0  0  0
 25 26  1  0  0  0
 25 27  1  0  0  0
  3  4  1  0  0  0
  4  5  2  0  0  0
  5  6  1  0  0  0
  6  7  2  0  0  0
  7  8  1  0  0  0
  8  9  1  0  0  0
  8 10  2  0  0  0
 36 31  1  0  0  0
 10  1  1  0  0  0
 16 13  1  0  0  0
 27 22  1  0  0  0
 10  4  1  0  0  0
 26 28  1  0  0  0
  9 11  1  0  0  0
  9 12  1  0  0  0
M  END
> <minimizedAffinity>
-8.16814

> <CNNscore>
0.6882154942

> <CNNaffinity>
7.2240586281

> <CNN_VS>
4.9717092514

> <CNNaffinity_variance>
0.2737132013

$$$$
[H]O[C@@]1([H])C([H])([H])N(C([H])([H])/C([H])=C(\[H])C(=O)N2C([H])([H])C([H])(n3c([H])c(C#Cc4c([H])c(OC([H])([H])[H])c([H])c(OC([H])([H])[H])c4[H])c4c(N([H])[H])nc([H])nc43)C2([H])[H])C([H])([H])C1([H])[H]


 40 44  0  0  0  0  0  0  0  0999 V2000
   -1.2281   21.7519  -23.6644 C   0  0  0  0  0  0  0  0  0  0  0  0
   -2.4832   21.7568  -23.1220 C   0  0  0  0  0  0  0  0  0  0  0  0
   -3.3691   22.1301  -24.0821 N   0  0  0  0  0  0  0  0  0  0  0  0
   -2.6702   22.3537  -25.2069 C   0  0  0  0  0  0  0  0  0  0  0  0
   -3.0432   22.7348  -26.4292 N   0  0  0  0  0  0  0  0  0  0  0  0
   -2.1096   22.8807  -27.3829 C   0  0  0  0  0  0  0  0  0  0  0  0
   -0.8009   22.6621  -27.1759 N   0  0  0  0  0  0  0  0  0  0  0  0
   -0.3696   22.2760  -25.9605 C   0  0  0  0  0  0  0  0  0  0  0  0
    1.0044   22.0384  -25.7162 N   0  0  0  0  0  0  0  0  0  0  0  0
   -1.3243   22.1225  -24.9709 C   0  0  0  0  0  0  0  0  0  0  0  0
    1.5873   22.8667  -25.4706 H   0  0  0  0  0  0  0  0  0  0  0  0
    1.4791   21.1220  -25.7590 H   0  0  0  0  0  0  0  0  0  0  0  0
   -4.7765   22.2292  -23.7898 C   0  0  0  0  0  0  0  0  0  0  0  0
   -5.3270   21.3859  -22.6929 C   0  0  0  0  0  0  0  0  0  0  0  0
   -6.1950   22.4941  -22.3578 N   0  0  0  0  0  0  0  0  0  0  0  0
   -5.1342   23.3648  -22.8151 C   0  0  0  0  0  0  0  0  0  0  0  0
   -7.4889   22.6458  -21.8305 C   0  0  0  0  0  0  0  0  0  0  0  0
   -8.1398   21.5724  -21.5555 O   0  0  0  0  0  0  0  0  0  0  0  0
   -8.1194   23.9249  -21.5828 C   0  0  0  0  0  0  0  0  0  0  0  0
   -8.7207   24.6018  -22.5364 C   0  0  0  0  0  0  0  0  0  0  0  0
   -9.3650   25.9074  -22.2819 C   0  0  0  0  0  0  0  0  0  0  0  0
  -10.7693   25.7672  -21.9100 N   0  0  0  0  0  0  0  0  0  0  0  0
  -10.9354   26.4205  -20.6176 C   0  0  0  0  0  0  0  0  0  0  0  0
  -11.0501   27.8967  -20.9594 C   0  0  0  0  0  0  0  0  0  0  0  0
  -11.7511   27.9016  -22.3016 C   0  0  0  0  0  0  0  0  0  0  0  0
  -11.1618   28.8449  -23.1462 O   0  0  0  0  0  0  0  0  0  0  0  0
  -11.5865   26.4980  -22.8517 C   0  0  0  0  0  0  0  0  0  0  0  0
  -11.3160   28.5212  -24.0876 H   0  0  0  0  0  0  0  0  0  0  0  0
    1.0609   21.1205  -22.4571 C   0  0  0  0  0  0  0  0  0  0  0  0
    0.0228   21.4213  -23.0016 C   0  0  0  0  0  0  0  0  0  0  0  0
    3.8643   20.8695  -19.9751 C   0  0  0  0  0  0  0  0  0  0  0  0
    4.6845   19.9742  -20.6264 C   0  0  0  0  0  0  0  0  0  0  0  0
    4.3502   19.4481  -21.8567 C   0  0  0  0  0  0  0  0  0  0  0  0
    3.1619   19.8370  -22.4383 C   0  0  0  0  0  0  0  0  0  0  0  0
    2.2993   20.7385  -21.8208 C   0  0  0  0  0  0  0  0  0  0  0  0
    2.6855   21.2317  -20.5913 C   0  0  0  0  0  0  0  0  0  0  0  0
    4.0563   22.7417  -18.3967 C   0  0  0  0  0  0  0  0  0  0  0  0
    4.2344   21.3765  -18.7394 O   0  0  0  0  0  0  0  0  0  0  0  0
    5.1655   18.5470  -22.5222 O   0  0  0  0  0  0  0  0  0  0  0  0
    5.1002   17.1708  -22.2244 C   0  0  0  0  0  0  0  0  0  0  0  0
 37 38  1  0  0  0
 38 31  1  0  0  0
 31 32  2  0  0  0
 32 33  1  0  0  0
 33 39  1  0  0  0
 39 40  1  0  0  0
 33 34  2  0  0  0
 34 35  1  0  0  0
 35 36  2  0  0  0
 35 29  1  0  0  0
 29 30  3  0  0  0
 30  1  1  0  0  0
  1  2  2  0  0  0
  2  3  1  0  0  0
  3 13  1  0  0  0
 13 14  1  0  0  0
 14 15  1  0  0  0
 15 16  1  0  0  0
 15 17  1  0  0  0
 17 18  2  0  0  0
 17 19  1  0  0  0
 19 20  2  0  0  0
 20 21  1  0  0  0
 21 22  1  0  0  0
 22 23  1  0  0  0
 23 24  1  0  0  0
 24 25  1  0  0  0
 25 26  1  0  0  0
 25 27  1  0  0  0
  3  4  1  0  0  0
  4  5  2  0  0  0
  5  6  1  0  0  0
  6  7  2  0  0  0
  7  8  1  0  0  0
  8  9  1  0  0  0
  8 10  2  0  0  0
 36 31  1  0  0  0
 10  1  1  0  0  0
 16 13  1  0  0  0
 27 22  1  0  0  0
 10  4  1  0  0  0
 26 28  1  0  0  0
  9 11  1  0  0  0
  9 12  1  0  0  0
M  END
> <minimizedAffinity>
-8.55802

> <CNNscore>
0.6008145809

> <CNNaffinity>
6.9145545959

> <CNN_VS>
4.1543650627

> <CNNaffinity_variance>
0.0973004848

$$$$
[H]O[C@@]1([H])C([H])([H])N(C([H])([H])/C([H])=C(\[H])C(=O)N2C([H])([H])C([H])(n3c([H])c(C#Cc4c([H])c(OC([H])([H])[H])c([H])c(OC([H])([H])[H])c4[H])c4c(N([H])[H])nc([H])nc43)C2([H])[H])C([H])([H])C1([H])[H]


 40 44  0  0  0  0  0  0  0  0999 V2000
   -1.2420   21.7576  -23.7600 C   0  0  0  0  0  0  0  0  0  0  0  0
   -2.4940   21.7497  -23.2104 C   0  0  0  0  0  0  0  0  0  0  0  0
   -3.3871   22.1310  -24.1606 N   0  0  0  0  0  0  0  0  0  0  0  0
   -2.6957   22.3722  -25.2864 C   0  0  0  0  0  0  0  0  0  0  0  0
   -3.0775   22.7670  -26.5016 N   0  0  0  0  0  0  0  0  0  0  0  0
   -2.1500   22.9294  -27.4586 C   0  0  0  0  0  0  0  0  0  0  0  0
   -0.8391   22.7143  -27.2619 N   0  0  0  0  0  0  0  0  0  0  0  0
   -0.3991   22.3147  -26.0540 C   0  0  0  0  0  0  0  0  0  0  0  0
    0.9774   22.0804  -25.8205 N   0  0  0  0  0  0  0  0  0  0  0  0
   -1.3474   22.1443  -25.0610 C   0  0  0  0  0  0  0  0  0  0  0  0
    1.5578   22.9082  -25.5677 H   0  0  0  0  0  0  0  0  0  0  0  0
    1.4560   21.1669  -25.8777 H   0  0  0  0  0  0  0  0  0  0  0  0
   -4.7933   22.2199  -23.8591 C   0  0  0  0  0  0  0  0  0  0  0  0
   -5.3332   21.3615  -22.7687 C   0  0  0  0  0  0  0  0  0  0  0  0
   -6.2047   22.4615  -22.4160 N   0  0  0  0  0  0  0  0  0  0  0  0
   -5.1507   23.3426  -22.8695 C   0  0  0  0  0  0  0  0  0  0  0  0
   -7.4962   22.6009  -21.8796 C   0  0  0  0  0  0  0  0  0  0  0  0
   -8.1402   21.5212  -21.6130 O   0  0  0  0  0  0  0  0  0  0  0  0
   -8.1314   23.8739  -21.6136 C   0  0  0  0  0  0  0  0  0  0  0  0
   -8.6006   24.6338  -22.5788 C   0  0  0  0  0  0  0  0  0  0  0  0
   -9.2499   25.9331  -22.3058 C   0  0  0  0  0  0  0  0  0  0  0  0
  -10.6362   25.7784  -21.8763 N   0  0  0  0  0  0  0  0  0  0  0  0
  -10.7664   26.4689  -20.5992 C   0  0  0  0  0  0  0  0  0  0  0  0
  -10.9233   27.9312  -20.9817 C   0  0  0  0  0  0  0  0  0  0  0  0
  -11.6744   27.8807  -22.2955 C   0  0  0  0  0  0  0  0  0  0  0  0
  -11.1362   28.8077  -23.1907 O   0  0  0  0  0  0  0  0  0  0  0  0
  -11.5027   26.4638  -22.8081 C   0  0  0  0  0  0  0  0  0  0  0  0
  -11.3193   28.4518  -24.1151 H   0  0  0  0  0  0  0  0  0  0  0  0
    1.0498   21.1231  -22.5596 C   0  0  0  0  0  0  0  0  0  0  0  0
    0.0142   21.4243  -23.1085 C   0  0  0  0  0  0  0  0  0  0  0  0
    4.3832   19.5388  -21.8809 C   0  0  0  0  0  0  0  0  0  0  0  0
    4.6298   20.0265  -20.6161 C   0  0  0  0  0  0  0  0  0  0  0  0
    3.7374   20.8594  -19.9742 C   0  0  0  0  0  0  0  0  0  0  0  0
    2.5726   21.2045  -20.6266 C   0  0  0  0  0  0  0  0  0  0  0  0
    2.2775   20.7381  -21.9046 C   0  0  0  0  0  0  0  0  0  0  0  0
    3.2070   19.9084  -22.4977 C   0  0  0  0  0  0  0  0  0  0  0  0
    5.6318   17.4255  -21.9730 C   0  0  0  0  0  0  0  0  0  0  0  0
    5.3043   18.7040  -22.4938 O   0  0  0  0  0  0  0  0  0  0  0  0
    3.9730   21.3570  -18.7028 O   0  0  0  0  0  0  0  0  0  0  0  0
    4.2802   22.7199  -18.5155 C   0  0  0  0  0  0  0  0  0  0  0  0
 37 38  1  0  0  0
 38 31  1  0  0  0
 31 32  2  0  0  0
 32 33  1  0  0  0
 33 39  1  0  0  0
 39 40  1  0  0  0
 33 34  2  0  0  0
 34 35  1  0  0  0
 35 36  2  0  0  0
 35 29  1  0  0  0
 29 30  3  0  0  0
 30  1  1  0  0  0
  1  2  2  0  0  0
  2  3  1  0  0  0
  3 13  1  0  0  0
 13 14  1  0  0  0
 14 15  1  0  0  0
 15 16  1  0  0  0
 15 17  1  0  0  0
 17 18  2  0  0  0
 17 19  1  0  0  0
 19 20  2  0  0  0
 20 21  1  0  0  0
 21 22  1  0  0  0
 22 23  1  0  0  0
 23 24  1  0  0  0
 24 25  1  0  0  0
 25 26  1  0  0  0
 25 27  1  0  0  0
  3  4  1  0  0  0
  4  5  2  0  0  0
  5  6  1  0  0  0
  6  7  2  0  0  0
  7  8  1  0  0  0
  8  9  1  0  0  0
  8 10  2  0  0  0
 36 31  1  0  0  0
 10  1  1  0  0  0
 16 13  1  0  0  0
 27 22  1  0  0  0
 10  4  1  0  0  0
 26 28  1  0  0  0
  9 11  1  0  0  0
  9 12  1  0  0  0
M  END
> <minimizedAffinity>
-8.64138

> <CNNscore>
0.5928889513

> <CNNaffinity>
6.9234251976

> <CNN_VS>
4.1048221588

> <CNNaffinity_variance>
0.0894913226

$$$$
[H]O[C@@]1([H])C([H])([H])N(C([H])([H])/C([H])=C(\[H])C(=O)N2C([H])([H])C([H])(n3c([H])c(C#Cc4c([H])c(OC([H])([H])[H])c([H])c(OC([H])([H])[H])c4[H])c4c(N([H])[H])nc([H])nc43)C2([H])[H])C([H])([H])C1([H])[H]


 40 44  0  0  0  0  0  0  0  0999 V2000
   -0.8120   22.2267  -23.3983 C   0  0  0  0  0  0  0  0  0  0  0  0
   -1.8895   22.6659  -22.6804 C   0  0  0  0  0  0  0  0  0  0  0  0
   -2.8298   23.1255  -23.5468 N   0  0  0  0  0  0  0  0  0  0  0  0
   -2.3398   22.9724  -24.7878 C   0  0  0  0  0  0  0  0  0  0  0  0
   -2.8454   23.2557  -25.9889 N   0  0  0  0  0  0  0  0  0  0  0  0
   -2.1179   22.9883  -27.0851 C   0  0  0  0  0  0  0  0  0  0  0  0
   -0.8912   22.4436  -27.0436 N   0  0  0  0  0  0  0  0  0  0  0  0
   -0.3331   22.1380  -25.8573 C   0  0  0  0  0  0  0  0  0  0  0  0
    0.9584   21.5625  -25.7859 N   0  0  0  0  0  0  0  0  0  0  0  0
   -1.0751   22.4095  -24.7215 C   0  0  0  0  0  0  0  0  0  0  0  0
    1.7666   22.2201  -25.8029 H   0  0  0  0  0  0  0  0  0  0  0  0
    1.1707   20.5539  -25.7187 H   0  0  0  0  0  0  0  0  0  0  0  0
   -4.0787   23.6596  -23.0662 C   0  0  0  0  0  0  0  0  0  0  0  0
   -5.2481   23.6490  -23.9881 C   0  0  0  0  0  0  0  0  0  0  0  0
   -6.0757   23.3552  -22.8381 N   0  0  0  0  0  0  0  0  0  0  0  0
   -4.9393   22.6419  -22.2974 C   0  0  0  0  0  0  0  0  0  0  0  0
   -7.3908   23.6431  -22.4346 C   0  0  0  0  0  0  0  0  0  0  0  0
   -8.1071   24.3521  -23.2319 O   0  0  0  0  0  0  0  0  0  0  0  0
   -7.9750   23.1915  -21.1897 C   0  0  0  0  0  0  0  0  0  0  0  0
   -8.3866   21.9539  -21.0216 C   0  0  0  0  0  0  0  0  0  0  0  0
   -8.9820   21.4937  -19.7496 C   0  0  0  0  0  0  0  0  0  0  0  0
   -8.0317   21.5481  -18.6432 N   0  0  0  0  0  0  0  0  0  0  0  0
   -8.7902   21.3267  -17.4183 C   0  0  0  0  0  0  0  0  0  0  0  0
   -8.9604   19.8180  -17.3543 C   0  0  0  0  0  0  0  0  0  0  0  0
   -7.6893   19.2857  -17.9818 C   0  0  0  0  0  0  0  0  0  0  0  0
   -7.9849   18.2137  -18.8266 O   0  0  0  0  0  0  0  0  0  0  0  0
   -7.1020   20.4477  -18.7594 C   0  0  0  0  0  0  0  0  0  0  0  0
   -7.2611   18.1939  -19.5271 H   0  0  0  0  0  0  0  0  0  0  0  0
    1.4411   21.1652  -22.4535 C   0  0  0  0  0  0  0  0  0  0  0  0
    0.4244   21.6603  -22.8845 C   0  0  0  0  0  0  0  0  0  0  0  0
    4.4880   20.4804  -20.3727 C   0  0  0  0  0  0  0  0  0  0  0  0
    4.9474   19.3353  -20.9860 C   0  0  0  0  0  0  0  0  0  0  0  0
    4.2913   18.7776  -22.0633 C   0  0  0  0  0  0  0  0  0  0  0  0
    3.1478   19.3922  -22.5282 C   0  0  0  0  0  0  0  0  0  0  0  0
    2.6436   20.5504  -21.9430 C   0  0  0  0  0  0  0  0  0  0  0  0
    3.3413   21.0631  -20.8687 C   0  0  0  0  0  0  0  0  0  0  0  0
    5.2155   22.4053  -19.0314 C   0  0  0  0  0  0  0  0  0  0  0  0
    5.1747   21.0113  -19.2921 O   0  0  0  0  0  0  0  0  0  0  0  0
    4.7422   17.6266  -22.6890 O   0  0  0  0  0  0  0  0  0  0  0  0
    4.0065   16.4280  -22.5943 C   0  0  0  0  0  0  0  0  0  0  0  0
 37 38  1  0  0  0
 38 31  1  0  0  0
 31 32  2  0  0  0
 32 33  1  0  0  0
 33 39  1  0  0  0
 39 40  1  0  0  0
 33 34  2  0  0  0
 34 35  1  0  0  0
 35 36  2  0  0  0
 35 29  1  0  0  0
 29 30  3  0  0  0
 30  1  1  0  0  0
  1  2  2  0  0  0
  2  3  1  0  0  0
  3 13  1  0  0  0
 13 14  1  0  0  0
 14 15  1  0  0  0
 15 16  1  0  0  0
 15 17  1  0  0  0
 17 18  2  0  0  0
 17 19  1  0  0  0
 19 20  2  0  0  0
 20 21  1  0  0  0
 21 22  1  0  0  0
 22 23  1  0  0  0
 23 24  1  0  0  0
 24 25  1  0  0  0
 25 26  1  0  0  0
 25 27  1  0  0  0
  3  4  1  0  0  0
  4  5  2  0  0  0
  5  6  1  0  0  0
  6  7  2  0  0  0
  7  8  1  0  0  0
  8  9  1  0  0  0
  8 10  2  0  0  0
 36 31  1  0  0  0
 10  1  1  0  0  0
 16 13  1  0  0  0
 27 22  1  0  0  0
 10  4  1  0  0  0
 26 28  1  0  0  0
  9 11  1  0  0  0
  9 12  1  0  0  0
M  END
> <minimizedAffinity>
-7.59272

> <CNNscore>
0.4299483001

> <CNNaffinity>
6.7629714012

> <CNN_VS>
2.9077279568

> <CNNaffinity_variance>
0.3481952250

$$$$
[H]O[C@@]1([H])C([H])([H])N(C([H])([H])/C([H])=C(\[H])C(=O)N2C([H])([H])C([H])(n3c([H])c(C#Cc4c([H])c(OC([H])([H])[H])c([H])c(OC([H])([H])[H])c4[H])c4c(N([H])[H])nc([H])nc43)C2([H])[H])C([H])([H])C1([H])[H]


 40 44  0  0  0  0  0  0  0  0999 V2000
   -0.8455   22.2034  -23.2909 C   0  0  0  0  0  0  0  0  0  0  0  0
   -1.9358   22.6490  -22.5965 C   0  0  0  0  0  0  0  0  0  0  0  0
   -2.8495   23.1247  -23.4826 N   0  0  0  0  0  0  0  0  0  0  0  0
   -2.3306   22.9750  -24.7122 C   0  0  0  0  0  0  0  0  0  0  0  0
   -2.8034   23.2720  -25.9233 N   0  0  0  0  0  0  0  0  0  0  0  0
   -2.0518   23.0046  -27.0031 C   0  0  0  0  0  0  0  0  0  0  0  0
   -0.8323   22.4465  -26.9354 N   0  0  0  0  0  0  0  0  0  0  0  0
   -0.3069   22.1268  -25.7379 C   0  0  0  0  0  0  0  0  0  0  0  0
    0.9763   21.5370  -25.6389 N   0  0  0  0  0  0  0  0  0  0  0  0
   -1.0739   22.3982  -24.6188 C   0  0  0  0  0  0  0  0  0  0  0  0
    1.7915   22.1861  -25.6312 H   0  0  0  0  0  0  0  0  0  0  0  0
    1.1763   20.5257  -25.5737 H   0  0  0  0  0  0  0  0  0  0  0  0
   -4.1042   23.6686  -23.0290 C   0  0  0  0  0  0  0  0  0  0  0  0
   -5.2253   23.7564  -24.0051 C   0  0  0  0  0  0  0  0  0  0  0  0
   -6.1186   23.4177  -22.9183 N   0  0  0  0  0  0  0  0  0  0  0  0
   -5.0332   22.6334  -22.3711 C   0  0  0  0  0  0  0  0  0  0  0  0
   -7.4430   23.7234  -22.5608 C   0  0  0  0  0  0  0  0  0  0  0  0
   -8.0962   24.5055  -23.3438 O   0  0  0  0  0  0  0  0  0  0  0  0
   -8.1027   23.2130  -21.3779 C   0  0  0  0  0  0  0  0  0  0  0  0
   -8.2001   21.9242  -21.1357 C   0  0  0  0  0  0  0  0  0  0  0  0
   -8.8731   21.4043  -19.9269 C   0  0  0  0  0  0  0  0  0  0  0  0
   -9.1051   22.4469  -18.9322 N   0  0  0  0  0  0  0  0  0  0  0  0
  -10.5460   22.5282  -18.7278 C   0  0  0  0  0  0  0  0  0  0  0  0
  -10.8512   21.3849  -17.7745 C   0  0  0  0  0  0  0  0  0  0  0  0
   -9.6124   21.2987  -16.9080 C   0  0  0  0  0  0  0  0  0  0  0  0
   -9.2613   19.9622  -16.7060 O   0  0  0  0  0  0  0  0  0  0  0  0
   -8.5301   22.0381  -17.6709 C   0  0  0  0  0  0  0  0  0  0  0  0
   -8.2664   19.9488  -16.5486 H   0  0  0  0  0  0  0  0  0  0  0  0
    1.3702   21.1204  -22.2842 C   0  0  0  0  0  0  0  0  0  0  0  0
    0.3718   21.6202  -22.7508 C   0  0  0  0  0  0  0  0  0  0  0  0
    4.1897   18.7251  -21.6550 C   0  0  0  0  0  0  0  0  0  0  0  0
    4.8139   19.3575  -20.6020 C   0  0  0  0  0  0  0  0  0  0  0  0
    4.3406   20.5465  -20.0877 C   0  0  0  0  0  0  0  0  0  0  0  0
    3.2129   21.1051  -20.6512 C   0  0  0  0  0  0  0  0  0  0  0  0
    2.5464   20.5052  -21.7160 C   0  0  0  0  0  0  0  0  0  0  0  0
    3.0653   19.3174  -22.1892 C   0  0  0  0  0  0  0  0  0  0  0  0
    3.8649   16.5398  -22.7284 C   0  0  0  0  0  0  0  0  0  0  0  0
    4.6952   17.5311  -22.1446 O   0  0  0  0  0  0  0  0  0  0  0  0
    4.9588   21.1930  -19.0297 O   0  0  0  0  0  0  0  0  0  0  0  0
    5.6968   22.3739  -19.2480 C   0  0  0  0  0  0  0  0  0  0  0  0
 37 38  1  0  0  0
 38 31  1  0  0  0
 31 32  2  0  0  0
 32 33  1  0  0  0
 33 39  1  0  0  0
 39 40  1  0  0  0
 33 34  2  0  0  0
 34 35  1  0  0  0
 35 36  2  0  0  0
 35 29  1  0  0  0
 29 30  3  0  0  0
 30  1  1  0  0  0
  1  2  2  0  0  0
  2  3  1  0  0  0
  3 13  1  0  0  0
 13 14  1  0  0  0
 14 15  1  0  0  0
 15 16  1  0  0  0
 15 17  1  0  0  0
 17 18  2  0  0  0
 17 19  1  0  0  0
 19 20  2  0  0  0
 20 21  1  0  0  0
 21 22  1  0  0  0
 22 23  1  0  0  0
 23 24  1  0  0  0
 24 25  1  0  0  0
 25 26  1  0  0  0
 25 27  1  0  0  0
  3  4  1  0  0  0
  4  5  2  0  0  0
  5  6  1  0  0  0
  6  7  2  0  0  0
  7  8  1  0  0  0
  8  9  1  0  0  0
  8 10  2  0  0  0
 36 31  1  0  0  0
 10  1  1  0  0  0
 16 13  1  0  0  0
 27 22  1  0  0  0
 10  4  1  0  0  0
 26 28  1  0  0  0
  9 11  1  0  0  0
  9 12  1  0  0  0
M  END
> <minimizedAffinity>
-7.27040

> <CNNscore>
0.4161805511

> <CNNaffinity>
6.7056035995

> <CNN_VS>
2.7907416821

> <CNNaffinity_variance>
0.4113720953

$$$$
[H]O[C@@]1([H])C([H])([H])N(C([H])([H])/C([H])=C(\[H])C(=O)N2C([H])([H])C([H])(n3c([H])c(C#Cc4c([H])c(OC([H])([H])[H])c([H])c(OC([H])([H])[H])c4[H])c4c(N([H])[H])nc([H])nc43)C2([H])[H])C([H])([H])C1([H])[H]


 40 44  0  0  0  0  0  0  0  0999 V2000
   -0.9330   21.7997  -22.7243 C   0  0  0  0  0  0  0  0  0  0  0  0
   -1.3423   21.5225  -21.4495 C   0  0  0  0  0  0  0  0  0  0  0  0
   -0.2991   20.9819  -20.7671 N   0  0  0  0  0  0  0  0  0  0  0  0
    0.7447   20.9252  -21.6101 C   0  0  0  0  0  0  0  0  0  0  0  0
    1.9953   20.4889  -21.4549 N   0  0  0  0  0  0  0  0  0  0  0  0
    2.8455   20.5558  -22.4918 C   0  0  0  0  0  0  0  0  0  0  0  0
    2.5060   21.0441  -23.6958 N   0  0  0  0  0  0  0  0  0  0  0  0
    1.2563   21.4978  -23.9073 C   0  0  0  0  0  0  0  0  0  0  0  0
    0.8731   22.0180  -25.1669 N   0  0  0  0  0  0  0  0  0  0  0  0
    0.3727   21.4333  -22.8446 C   0  0  0  0  0  0  0  0  0  0  0  0
    0.5602   21.3290  -25.8835 H   0  0  0  0  0  0  0  0  0  0  0  0
    0.8756   23.0145  -25.4385 H   0  0  0  0  0  0  0  0  0  0  0  0
   -0.4448   20.5833  -19.3901 C   0  0  0  0  0  0  0  0  0  0  0  0
    0.3550   21.3047  -18.3619 C   0  0  0  0  0  0  0  0  0  0  0  0
   -0.7849   21.1861  -17.4787 N   0  0  0  0  0  0  0  0  0  0  0  0
   -1.6140   21.2682  -18.6613 C   0  0  0  0  0  0  0  0  0  0  0  0
   -0.9858   21.0478  -16.0945 C   0  0  0  0  0  0  0  0  0  0  0  0
    0.0618   20.9976  -15.3520 O   0  0  0  0  0  0  0  0  0  0  0  0
   -2.2878   20.9611  -15.4682 C   0  0  0  0  0  0  0  0  0  0  0  0
   -3.0472   22.0197  -15.2898 C   0  0  0  0  0  0  0  0  0  0  0  0
   -4.3769   21.9297  -14.6509 C   0  0  0  0  0  0  0  0  0  0  0  0
   -5.1597   23.1483  -14.8306 N   0  0  0  0  0  0  0  0  0  0  0  0
   -6.4494   22.7495  -15.3805 C   0  0  0  0  0  0  0  0  0  0  0  0
   -7.2394   22.2783  -14.1710 C   0  0  0  0  0  0  0  0  0  0  0  0
   -6.7395   23.1627  -13.0481 C   0  0  0  0  0  0  0  0  0  0  0  0
   -6.5556   22.4064  -11.8886 O   0  0  0  0  0  0  0  0  0  0  0  0
   -5.4251   23.7387  -13.5384 C   0  0  0  0  0  0  0  0  0  0  0  0
   -5.8402   22.8724  -11.3540 H   0  0  0  0  0  0  0  0  0  0  0  0
   -2.3822   22.8806  -24.6807 C   0  0  0  0  0  0  0  0  0  0  0  0
   -1.7187   22.3796  -23.8013 C   0  0  0  0  0  0  0  0  0  0  0  0
   -4.6211   25.2810  -26.4994 C   0  0  0  0  0  0  0  0  0  0  0  0
   -4.6889   24.6639  -27.7294 C   0  0  0  0  0  0  0  0  0  0  0  0
   -4.0245   23.4826  -27.9848 C   0  0  0  0  0  0  0  0  0  0  0  0
   -3.2771   22.9157  -26.9741 C   0  0  0  0  0  0  0  0  0  0  0  0
   -3.1771   23.5000  -25.7146 C   0  0  0  0  0  0  0  0  0  0  0  0
   -3.8629   24.6810  -25.5168 C   0  0  0  0  0  0  0  0  0  0  0  0
   -5.9185   26.7697  -25.0387 C   0  0  0  0  0  0  0  0  0  0  0  0
   -5.3028   26.4677  -26.2807 O   0  0  0  0  0  0  0  0  0  0  0  0
   -4.0839   22.8518  -29.2170 O   0  0  0  0  0  0  0  0  0  0  0  0
   -5.3142   22.7190  -29.8920 C   0  0  0  0  0  0  0  0  0  0  0  0
 37 38  1  0  0  0
 38 31  1  0  0  0
 31 32  2  0  0  0
 32 33  1  0  0  0
 33 39  1  0  0  0
 39 40  1  0  0  0
 33 34  2  0  0  0
 34 35  1  0  0  0
 35 36  2  0  0  0
 35 29  1  0  0  0
 29 30  3  0  0  0
 30  1  1  0  0  0
  1  2  2  0  0  0
  2  3  1  0  0  0
  3 13  1  0  0  0
 13 14  1  0  0  0
 14 15  1  0  0  0
 15 16  1  0  0  0
 15 17  1  0  0  0
 17 18  2  0  0  0
 17 19  1  0  0  0
 19 20  2  0  0  0
 20 21  1  0  0  0
 21 22  1  0  0  0
 22 23  1  0  0  0
 23 24  1  0  0  0
 24 25  1  0  0  0
 25 26  1  0  0  0
 25 27  1  0  0  0
  3  4  1  0  0  0
  4  5  2  0  0  0
  5  6  1  0  0  0
  6  7  2  0  0  0
  7  8  1  0  0  0
  8  9  1  0  0  0
  8 10  2  0  0  0
 36 31  1  0  0  0
 10  1  1  0  0  0
 16 13  1  0  0  0
 27 22  1  0  0  0
 10  4  1  0  0  0
 26 28  1  0  0  0
  9 11  1  0  0  0
  9 12  1  0  0  0
M  END
> <minimizedAffinity>
-7.07375

> <CNNscore>
0.2660144269

> <CNNaffinity>
6.4691886902

> <CNN_VS>
1.7208975554

> <CNNaffinity_variance>
0.2497134656

$$$$
[H]O[C@@]1([H])C([H])([H])N(C([H])([H])/C([H])=C(\[H])C(=O)N2C([H])([H])C([H])(n3c([H])c(C#Cc4c([H])c(OC([H])([H])[H])c([H])c(OC([H])([H])[H])c4[H])c4c(N([H])[H])nc([H])nc43)C2([H])[H])C([H])([H])C1([H])[H]


 40 44  0  0  0  0  0  0  0  0999 V2000
   -0.7118   21.5919  -22.7431 C   0  0  0  0  0  0  0  0  0  0  0  0
   -1.8445   21.7086  -21.9862 C   0  0  0  0  0  0  0  0  0  0  0  0
   -2.8474   22.1744  -22.7757 N   0  0  0  0  0  0  0  0  0  0  0  0
   -2.3412   22.3442  -24.0080 C   0  0  0  0  0  0  0  0  0  0  0  0
   -2.8875   22.7725  -25.1467 N   0  0  0  0  0  0  0  0  0  0  0  0
   -2.1283   22.8408  -26.2518 C   0  0  0  0  0  0  0  0  0  0  0  0
   -0.8303   22.4977  -26.2796 N   0  0  0  0  0  0  0  0  0  0  0  0
   -0.2287   22.0589  -25.1581 C   0  0  0  0  0  0  0  0  0  0  0  0
    1.1381   21.6904  -25.1605 N   0  0  0  0  0  0  0  0  0  0  0  0
   -1.0028   21.9847  -24.0137 C   0  0  0  0  0  0  0  0  0  0  0  0
    1.8310   22.4573  -25.0270 H   0  0  0  0  0  0  0  0  0  0  0  0
    1.5089   20.7340  -25.2820 H   0  0  0  0  0  0  0  0  0  0  0  0
   -4.1648   22.4022  -22.2385 C   0  0  0  0  0  0  0  0  0  0  0  0
   -5.2743   21.5248  -22.7039 C   0  0  0  0  0  0  0  0  0  0  0  0
   -5.8010   21.5781  -21.3572 N   0  0  0  0  0  0  0  0  0  0  0  0
   -4.4303   21.6797  -20.9062 C   0  0  0  0  0  0  0  0  0  0  0  0
   -7.0749   21.5492  -20.7643 C   0  0  0  0  0  0  0  0  0  0  0  0
   -8.0866   21.4624  -21.5519 O   0  0  0  0  0  0  0  0  0  0  0  0
   -7.3072   21.6099  -19.3369 C   0  0  0  0  0  0  0  0  0  0  0  0
   -7.0370   22.6866  -18.6321 C   0  0  0  0  0  0  0  0  0  0  0  0
   -7.2755   22.7476  -17.1748 C   0  0  0  0  0  0  0  0  0  0  0  0
   -6.8247   24.0081  -16.5935 N   0  0  0  0  0  0  0  0  0  0  0  0
   -6.4516   23.7312  -15.2118 C   0  0  0  0  0  0  0  0  0  0  0  0
   -5.0547   23.1419  -15.3151 C   0  0  0  0  0  0  0  0  0  0  0  0
   -4.4493   23.8582  -16.5040 C   0  0  0  0  0  0  0  0  0  0  0  0
   -3.7333   22.9554  -17.2931 O   0  0  0  0  0  0  0  0  0  0  0  0
   -5.6222   24.4407  -17.2686 C   0  0  0  0  0  0  0  0  0  0  0  0
   -3.7467   23.3227  -18.2311 H   0  0  0  0  0  0  0  0  0  0  0  0
    1.7031   20.7774  -21.9681 C   0  0  0  0  0  0  0  0  0  0  0  0
    0.5999   21.1375  -22.3113 C   0  0  0  0  0  0  0  0  0  0  0  0
    4.9727   20.5828  -20.1366 C   0  0  0  0  0  0  0  0  0  0  0  0
    5.5757   19.5540  -20.8268 C   0  0  0  0  0  0  0  0  0  0  0  0
    4.9460   18.9193  -21.8769 C   0  0  0  0  0  0  0  0  0  0  0  0
    3.6810   19.3355  -22.2347 C   0  0  0  0  0  0  0  0  0  0  0  0
    3.0295   20.3701  -21.5690 C   0  0  0  0  0  0  0  0  0  0  0  0
    3.7077   20.9678  -20.5265 C   0  0  0  0  0  0  0  0  0  0  0  0
    5.7028   22.6072  -18.9525 C   0  0  0  0  0  0  0  0  0  0  0  0
    5.6374   21.1963  -19.0865 O   0  0  0  0  0  0  0  0  0  0  0  0
    5.5407   17.8835  -22.5790 O   0  0  0  0  0  0  0  0  0  0  0  0
    5.9971   16.7334  -21.9038 C   0  0  0  0  0  0  0  0  0  0  0  0
 37 38  1  0  0  0
 38 31  1  0  0  0
 31 32  2  0  0  0
 32 33  1  0  0  0
 33 39  1  0  0  0
 39 40  1  0  0  0
 33 34  2  0  0  0
 34 35  1  0  0  0
 35 36  2  0  0  0
 35 29  1  0  0  0
 29 30  3  0  0  0
 30  1  1  0  0  0
  1  2  2  0  0  0
  2  3  1  0  0  0
  3 13  1  0  0  0
 13 14  1  0  0  0
 14 15  1  0  0  0
 15 16  1  0  0  0
 15 17  1  0  0  0
 17 18  2  0  0  0
 17 19  1  0  0  0
 19 20  2  0  0  0
 20 21  1  0  0  0
 21 22  1  0  0  0
 22 23  1  0  0  0
 23 24  1  0  0  0
 24 25  1  0  0  0
 25 26  1  0  0  0
 25 27  1  0  0  0
  3  4  1  0  0  0
  4  5  2  0  0  0
  5  6  1  0  0  0
  6  7  2  0  0  0
  7  8  1  0  0  0
  8  9  1  0  0  0
  8 10  2  0  0  0
 36 31  1  0  0  0
 10  1  1  0  0  0
 16 13  1  0  0  0
 27 22  1  0  0  0
 10  4  1  0  0  0
 26 28  1  0  0  0
  9 11  1  0  0  0
  9 12  1  0  0  0
M  END
> <minimizedAffinity>
-7.19182

> <CNNscore>
0.2486800998

> <CNNaffinity>
6.3706369400

> <CNN_VS>
1.5842506886

> <CNNaffinity_variance>
0.0702492744

$$$$
[H]O[C@@]1([H])C([H])([H])N(C([H])([H])/C([H])=C(\[H])C(=O)N2C([H])([H])C([H])(n3c([H])c(C#Cc4c([H])c(OC([H])([H])[H])c([H])c(OC([H])([H])[H])c4[H])c4c(N([H])[H])nc([H])nc43)C2([H])[H])C([H])([H])C1([H])[H]


 40 44  0  0  0  0  0  0  0  0999 V2000
   -1.0591   21.6770  -22.8886 C   0  0  0  0  0  0  0  0  0  0  0  0
   -2.1917   21.7647  -22.1277 C   0  0  0  0  0  0  0  0  0  0  0  0
   -3.1993   22.2431  -22.9037 N   0  0  0  0  0  0  0  0  0  0  0  0
   -2.6960   22.4490  -24.1317 C   0  0  0  0  0  0  0  0  0  0  0  0
   -3.2471   22.9026  -25.2582 N   0  0  0  0  0  0  0  0  0  0  0  0
   -2.4899   23.0059  -26.3620 C   0  0  0  0  0  0  0  0  0  0  0  0
   -1.1892   22.6740  -26.4001 N   0  0  0  0  0  0  0  0  0  0  0  0
   -0.5827   22.2109  -25.2910 C   0  0  0  0  0  0  0  0  0  0  0  0
    0.7870   21.8535  -25.3045 N   0  0  0  0  0  0  0  0  0  0  0  0
   -1.3548   22.1006  -24.1482 C   0  0  0  0  0  0  0  0  0  0  0  0
    1.4739   22.6221  -25.1517 H   0  0  0  0  0  0  0  0  0  0  0  0
    1.1652   20.9036  -25.4513 H   0  0  0  0  0  0  0  0  0  0  0  0
   -4.5178   22.4462  -22.3593 C   0  0  0  0  0  0  0  0  0  0  0  0
   -5.6025   21.5173  -22.7814 C   0  0  0  0  0  0  0  0  0  0  0  0
   -6.1165   21.6001  -21.4314 N   0  0  0  0  0  0  0  0  0  0  0  0
   -4.7453   21.7620  -21.0000 C   0  0  0  0  0  0  0  0  0  0  0  0
   -7.3825   21.5501  -20.8230 C   0  0  0  0  0  0  0  0  0  0  0  0
   -8.3990   21.4030  -21.5954 O   0  0  0  0  0  0  0  0  0  0  0  0
   -7.6017   21.6527  -19.3960 C   0  0  0  0  0  0  0  0  0  0  0  0
   -6.8950   22.4630  -18.6388 C   0  0  0  0  0  0  0  0  0  0  0  0
   -7.1205   22.5674  -17.1819 C   0  0  0  0  0  0  0  0  0  0  0  0
   -6.8968   23.9210  -16.6840 N   0  0  0  0  0  0  0  0  0  0  0  0
   -6.4750   23.7997  -15.2939 C   0  0  0  0  0  0  0  0  0  0  0  0
   -4.9965   23.4601  -15.3826 C   0  0  0  0  0  0  0  0  0  0  0  0
   -4.5319   24.1971  -16.6211 C   0  0  0  0  0  0  0  0  0  0  0  0
   -3.6711   23.3874  -17.3653 O   0  0  0  0  0  0  0  0  0  0  0  0
   -5.7924   24.5160  -17.4016 C   0  0  0  0  0  0  0  0  0  0  0  0
   -3.7529   23.6882  -18.3233 H   0  0  0  0  0  0  0  0  0  0  0  0
    1.3631   20.8640  -22.1348 C   0  0  0  0  0  0  0  0  0  0  0  0
    0.2568   21.2220  -22.4702 C   0  0  0  0  0  0  0  0  0  0  0  0
    4.5887   18.9603  -21.9016 C   0  0  0  0  0  0  0  0  0  0  0  0
    5.2521   19.7225  -20.9650 C   0  0  0  0  0  0  0  0  0  0  0  0
    4.6766   20.8431  -20.4036 C   0  0  0  0  0  0  0  0  0  0  0  0
    3.4041   21.1980  -20.7988 C   0  0  0  0  0  0  0  0  0  0  0  0
    2.6925   20.4609  -21.7414 C   0  0  0  0  0  0  0  0  0  0  0  0
    3.3184   19.3501  -22.2690 C   0  0  0  0  0  0  0  0  0  0  0  0
    6.6085   17.6700  -22.4388 C   0  0  0  0  0  0  0  0  0  0  0  0
    5.2001   17.8408  -22.4435 O   0  0  0  0  0  0  0  0  0  0  0  0
    5.3326   21.6184  -19.4611 O   0  0  0  0  0  0  0  0  0  0  0  0
    4.6017   22.4384  -18.5778 C   0  0  0  0  0  0  0  0  0  0  0  0
 37 38  1  0  0  0
 38 31  1  0  0  0
 31 32  2  0  0  0
 32 33  1  0  0  0
 33 39  1  0  0  0
 39 40  1  0  0  0
 33 34  2  0  0  0
 34 35  1  0  0  0
 35 36  2  0  0  0
 35 29  1  0  0  0
 29 30  3  0  0  0
 30  1  1  0  0  0
  1  2  2  0  0  0
  2  3  1  0  0  0
  3 13  1  0  0  0
 13 14  1  0  0  0
 14 15  1  0  0  0
 15 16  1  0  0  0
 15 17  1  0  0  0
 17 18  2  0  0  0
 17 19  1  0  0  0
 19 20  2  0  0  0
 20 21  1  0  0  0
 21 22  1  0  0  0
 22 23  1  0  0  0
 23 24  1  0  0  0
 24 25  1  0  0  0
 25 26  1  0  0  0
 25 27  1  0  0  0
  3  4  1  0  0  0
  4  5  2  0  0  0
  5  6  1  0  0  0
  6  7  2  0  0  0
  7  8  1  0  0  0
  8  9  1  0  0  0
  8 10  2  0  0  0
 36 31  1  0  0  0
 10  1  1  0  0  0
 16 13  1  0  0  0
 27 22  1  0  0  0
 10  4  1  0  0  0
 26 28  1  0  0  0
  9 11  1  0  0  0
  9 12  1  0  0  0
M  END
> <minimizedAffinity>
-7.36744

> <CNNscore>
0.2450588942

> <CNNaffinity>
6.4693174362

> <CNN_VS>
1.5853637457

> <CNNaffinity_variance>
0.1551275700

$$$$
[H]O[C@@]1([H])C([H])([H])N(C([H])([H])/C([H])=C(\[H])C(=O)N2C([H])([H])C([H])(n3c([H])c(C#Cc4c([H])c(OC([H])([H])[H])c([H])c(OC([H])([H])[H])c4[H])c4c(N([H])[H])nc([H])nc43)C2([H])[H])C([H])([H])C1([H])[H]


 40 44  0  0  0  0  0  0  0  0999 V2000
   -5.3542   24.0715  -21.9496 C   0  0  0  0  0  0  0  0  0  0  0  0
   -5.0097   23.4570  -20.7777 C   0  0  0  0  0  0  0  0  0  0  0  0
   -5.8146   23.9267  -19.7889 N   0  0  0  0  0  0  0  0  0  0  0  0
   -6.6484   24.8222  -20.3426 C   0  0  0  0  0  0  0  0  0  0  0  0
   -7.6261   25.5691  -19.8283 N   0  0  0  0  0  0  0  0  0  0  0  0
   -8.3124   26.3946  -20.6346 C   0  0  0  0  0  0  0  0  0  0  0  0
   -8.0691   26.5149  -21.9497 N   0  0  0  0  0  0  0  0  0  0  0  0
   -7.0929   25.7844  -22.5205 C   0  0  0  0  0  0  0  0  0  0  0  0
   -6.8166   25.8920  -23.9048 N   0  0  0  0  0  0  0  0  0  0  0  0
   -6.3800   24.9304  -21.6979 C   0  0  0  0  0  0  0  0  0  0  0  0
   -6.1765   26.6607  -24.1969 H   0  0  0  0  0  0  0  0  0  0  0  0
   -7.1905   25.2798  -24.6479 H   0  0  0  0  0  0  0  0  0  0  0  0
   -5.6721   23.4560  -18.4346 C   0  0  0  0  0  0  0  0  0  0  0  0
   -5.7952   24.4471  -17.3301 C   0  0  0  0  0  0  0  0  0  0  0  0
   -6.4625   23.4183  -16.5620 N   0  0  0  0  0  0  0  0  0  0  0  0
   -6.9760   22.9191  -17.8189 C   0  0  0  0  0  0  0  0  0  0  0  0
   -6.5580   23.0668  -15.2046 C   0  0  0  0  0  0  0  0  0  0  0  0
   -5.9084   23.7903  -14.3643 O   0  0  0  0  0  0  0  0  0  0  0  0
   -7.3366   21.9525  -14.7077 C   0  0  0  0  0  0  0  0  0  0  0  0
   -8.4259   21.5371  -15.3160 C   0  0  0  0  0  0  0  0  0  0  0  0
   -9.2196   20.3985  -14.8081 C   0  0  0  0  0  0  0  0  0  0  0  0
  -10.3322   20.0631  -15.6911 N   0  0  0  0  0  0  0  0  0  0  0  0
   -9.7617   19.7460  -16.9944 C   0  0  0  0  0  0  0  0  0  0  0  0
   -9.2861   18.3097  -16.8522 C   0  0  0  0  0  0  0  0  0  0  0  0
  -10.2895   17.6910  -15.9018 C   0  0  0  0  0  0  0  0  0  0  0  0
   -9.6334   16.8764  -14.9765 O   0  0  0  0  0  0  0  0  0  0  0  0
  -10.9719   18.8580  -15.2145 C   0  0  0  0  0  0  0  0  0  0  0  0
  -10.2074   16.8645  -14.1487 H   0  0  0  0  0  0  0  0  0  0  0  0
   -4.2797   23.7050  -24.3594 C   0  0  0  0  0  0  0  0  0  0  0  0
   -4.7560   23.8790  -23.2605 C   0  0  0  0  0  0  0  0  0  0  0  0
   -1.9650   22.7207  -27.1443 C   0  0  0  0  0  0  0  0  0  0  0  0
   -2.7269   23.0861  -28.2326 C   0  0  0  0  0  0  0  0  0  0  0  0
   -3.9781   23.6474  -28.0853 C   0  0  0  0  0  0  0  0  0  0  0  0
   -4.4664   23.8423  -26.8106 C   0  0  0  0  0  0  0  0  0  0  0  0
   -3.7355   23.4901  -25.6793 C   0  0  0  0  0  0  0  0  0  0  0  0
   -2.4906   22.9327  -25.8876 C   0  0  0  0  0  0  0  0  0  0  0  0
    0.3079   22.2361  -26.3491 C   0  0  0  0  0  0  0  0  0  0  0  0
   -0.7119   22.1593  -27.3325 O   0  0  0  0  0  0  0  0  0  0  0  0
   -4.7547   24.0190  -29.1709 O   0  0  0  0  0  0  0  0  0  0  0  0
   -5.4137   23.0422  -29.9445 C   0  0  0  0  0  0  0  0  0  0  0  0
 37 38  1  0  0  0
 38 31  1  0  0  0
 31 32  2  0  0  0
 32 33  1  0  0  0
 33 39  1  0  0  0
 39 40  1  0  0  0
 33 34  2  0  0  0
 34 35  1  0  0  0
 35 36  2  0  0  0
 35 29  1  0  0  0
 29 30  3  0  0  0
 30  1  1  0  0  0
  1  2  2  0  0  0
  2  3  1  0  0  0
  3 13  1  0  0  0
 13 14  1  0  0  0
 14 15  1  0  0  0
 15 16  1  0  0  0
 15 17  1  0  0  0
 17 18  2  0  0  0
 17 19  1  0  0  0
 19 20  2  0  0  0
 20 21  1  0  0  0
 21 22  1  0  0  0
 22 23  1  0  0  0
 23 24  1  0  0  0
 24 25  1  0  0  0
 25 26  1  0  0  0
 25 27  1  0  0  0
  3  4  1  0  0  0
  4  5  2  0  0  0
  5  6  1  0  0  0
  6  7  2  0  0  0
  7  8  1  0  0  0
  8  9  1  0  0  0
  8 10  2  0  0  0
 36 31  1  0  0  0
 10  1  1  0  0  0
 16 13  1  0  0  0
 27 22  1  0  0  0
 10  4  1  0  0  0
 26 28  1  0  0  0
  9 11  1  0  0  0
  9 12  1  0  0  0
M  END
> <minimizedAffinity>
-7.59520

> <CNNscore>
0.0874684453

> <CNNaffinity>
5.9935517311

> <CNN_VS>
0.5242466331

> <CNNaffinity_variance>
0.2370259762

$$$$
[H]c1nc(-c2c(C([H])([H])[H])nn(C([H])([H])[H])c2[H])c([H])c2c1C([H])([H])N(c1c(F)c(OC([H])([H])[H])c([H])c(OC([H])([H])[H])c1F)C(=O)N2c1c([H])c([H])c(S(=O)(=O)C([H])([H])[H])c([H])c1[H]


 40 44  0  0  0  0  0  0  0  0999 V2000
   -5.4609   22.3901  -19.5755 N   0  0  0  0  0  0  0  0  0  0  0  0
   -6.1707   21.1679  -19.8439 C   0  0  0  0  0  0  0  0  0  0  0  0
   -6.6734   20.5027  -18.6192 C   0  0  0  0  0  0  0  0  0  0  0  0
   -7.3558   19.2954  -18.8078 C   0  0  0  0  0  0  0  0  0  0  0  0
   -7.8366   18.6485  -17.7509 N   0  0  0  0  0  0  0  0  0  0  0  0
   -7.7135   19.0830  -16.4595 C   0  0  0  0  0  0  0  0  0  0  0  0
   -7.0511   20.2504  -16.2964 C   0  0  0  0  0  0  0  0  0  0  0  0
   -6.5223   20.9777  -17.3641 C   0  0  0  0  0  0  0  0  0  0  0  0
   -5.8273   22.1984  -17.1222 N   0  0  0  0  0  0  0  0  0  0  0  0
   -5.3010   22.8952  -18.2440 C   0  0  0  0  0  0  0  0  0  0  0  0
   -4.6752   23.9819  -18.1008 O   0  0  0  0  0  0  0  0  0  0  0  0
   -5.2238   24.6210  -22.5712 C   0  0  0  0  0  0  0  0  0  0  0  0
   -3.8278   24.5419  -22.7617 C   0  0  0  0  0  0  0  0  0  0  0  0
   -3.0104   23.8088  -21.9571 C   0  0  0  0  0  0  0  0  0  0  0  0
   -3.5279   23.0961  -20.8971 C   0  0  0  0  0  0  0  0  0  0  0  0
   -2.6899   22.3730  -20.1111 F   0  0  0  0  0  0  0  0  0  0  0  0
   -4.8852   23.1390  -20.6670 C   0  0  0  0  0  0  0  0  0  0  0  0
   -5.6975   23.8776  -21.4792 C   0  0  0  0  0  0  0  0  0  0  0  0
   -7.0244   23.9223  -21.2546 F   0  0  0  0  0  0  0  0  0  0  0  0
   -6.5402   26.1183  -24.2002 C   0  0  0  0  0  0  0  0  0  0  0  0
   -5.9160   25.3310  -23.3713 O   0  0  0  0  0  0  0  0  0  0  0  0
   -1.6376   23.7449  -22.1624 O   0  0  0  0  0  0  0  0  0  0  0  0
   -1.1422   22.8789  -23.1635 C   0  0  0  0  0  0  0  0  0  0  0  0
   -8.2699   18.2642  -15.3979 C   0  0  0  0  0  0  0  0  0  0  0  0
   -7.5469   17.3494  -14.6135 C   0  0  0  0  0  0  0  0  0  0  0  0
   -8.3563   16.7374  -13.7426 N   0  0  0  0  0  0  0  0  0  0  0  0
   -7.9213   15.7232  -12.7721 C   0  0  0  0  0  0  0  0  0  0  0  0
   -9.5426   17.2220  -13.9437 N   0  0  0  0  0  0  0  0  0  0  0  0
   -9.5540   18.1560  -14.9402 C   0  0  0  0  0  0  0  0  0  0  0  0
  -10.7685   18.8439  -15.3806 C   0  0  0  0  0  0  0  0  0  0  0  0
   -5.6516   22.7123  -15.8145 C   0  0  0  0  0  0  0  0  0  0  0  0
   -4.5551   22.4471  -15.0329 C   0  0  0  0  0  0  0  0  0  0  0  0
   -4.4719   22.9940  -13.7559 C   0  0  0  0  0  0  0  0  0  0  0  0
   -5.4722   23.7996  -13.2585 C   0  0  0  0  0  0  0  0  0  0  0  0
   -6.5638   24.0563  -14.0528 C   0  0  0  0  0  0  0  0  0  0  0  0
   -6.6692   23.5185  -15.3381 C   0  0  0  0  0  0  0  0  0  0  0  0
   -5.3787   24.4890  -11.6591 S   0  0  0  0  0  0  0  0  0  0  0  0
   -3.7799   24.1524  -10.9125 C   0  0  0  0  0  0  0  0  0  0  0  0
   -5.5281   25.9771  -11.7540 O   0  0  0  0  0  0  0  0  0  0  0  0
   -6.4107   23.8890  -10.7384 O   0  0  0  0  0  0  0  0  0  0  0  0
 20 21  1  0  0  0
 21 12  1  0  0  0
 12 13  2  0  0  0
 13 14  1  0  0  0
 14 22  1  0  0  0
 22 23  1  0  0  0
 14 15  2  0  0  0
 15 16  1  0  0  0
 15 17  1  0  0  0
 17  1  1  0  0  0
  1  2  1  0  0  0
  2  3  1  0  0  0
  3  4  2  0  0  0
  4  5  1  0  0  0
  5  6  2  0  0  0
  6  7  1  0  0  0
  7  8  2  0  0  0
  8  9  1  0  0  0
  9 10  1  0  0  0
 10 11  2  0  0  0
  9 31  1  0  0  0
 31 32  2  0  0  0
 32 33  1  0  0  0
 33 34  2  0  0  0
 34 35  1  0  0  0
 35 36  2  0  0  0
 34 37  1  0  0  0
 37 38  1  0  0  0
 37 39  2  0  0  0
 37 40  2  0  0  0
  6 24  1  0  0  0
 24 25  2  0  0  0
 25 26  1  0  0  0
 26 27  1  0  0  0
 26 28  1  0  0  0
 28 29  2  0  0  0
 29 30  1  0  0  0
 17 18  2  0  0  0
 18 19  1  0  0  0
 18 12  1  0  0  0
 10  1  1  0  0  0
 36 31  1  0  0  0
 29 24  1  0  0  0
  8  3  1  0  0  0
M  END
> <minimizedAffinity>
-6.00495

> <CNNscore>
0.2031160593

> <CNNaffinity>
6.3222742081

> <CNN_VS>
1.2841553688

> <CNNaffinity_variance>
0.4683274329

$$$$
[H]c1nc(-c2c(C([H])([H])[H])nn(C([H])([H])[H])c2[H])c([H])c2c1C([H])([H])N(c1c(F)c(OC([H])([H])[H])c([H])c(OC([H])([H])[H])c1F)C(=O)N2c1c([H])c([H])c(S(=O)(=O)C([H])([H])[H])c([H])c1[H]


 40 44  0  0  0  0  0  0  0  0999 V2000
   -6.7532   23.7509  -19.8367 N   0  0  0  0  0  0  0  0  0  0  0  0
   -6.3398   24.5487  -18.7133 C   0  0  0  0  0  0  0  0  0  0  0  0
   -6.0142   23.7438  -17.5127 C   0  0  0  0  0  0  0  0  0  0  0  0
   -5.6249   24.4605  -16.3754 C   0  0  0  0  0  0  0  0  0  0  0  0
   -5.3148   23.7992  -15.2649 N   0  0  0  0  0  0  0  0  0  0  0  0
   -5.3469   22.4368  -15.1446 C   0  0  0  0  0  0  0  0  0  0  0  0
   -5.7257   21.7611  -16.2528 C   0  0  0  0  0  0  0  0  0  0  0  0
   -6.0640   22.3958  -17.4492 C   0  0  0  0  0  0  0  0  0  0  0  0
   -6.4630   21.6239  -18.5791 N   0  0  0  0  0  0  0  0  0  0  0  0
   -6.8053   22.3203  -19.7702 C   0  0  0  0  0  0  0  0  0  0  0  0
   -7.1668   21.6984  -20.8074 O   0  0  0  0  0  0  0  0  0  0  0  0
   -8.9079   25.2418  -22.5092 C   0  0  0  0  0  0  0  0  0  0  0  0
   -7.8826   25.5825  -23.4171 C   0  0  0  0  0  0  0  0  0  0  0  0
   -6.5651   25.3453  -23.1702 C   0  0  0  0  0  0  0  0  0  0  0  0
   -6.1705   24.7473  -21.9930 C   0  0  0  0  0  0  0  0  0  0  0  0
   -4.8500   24.5221  -21.7729 F   0  0  0  0  0  0  0  0  0  0  0  0
   -7.1320   24.3944  -21.0721 C   0  0  0  0  0  0  0  0  0  0  0  0
   -8.4514   24.6366  -21.3281 C   0  0  0  0  0  0  0  0  0  0  0  0
   -9.3926   24.2941  -20.4281 F   0  0  0  0  0  0  0  0  0  0  0  0
  -11.3493   25.8398  -23.0661 C   0  0  0  0  0  0  0  0  0  0  0  0
  -10.1165   25.4994  -22.8191 O   0  0  0  0  0  0  0  0  0  0  0  0
   -5.5712   25.6892  -24.0783 O   0  0  0  0  0  0  0  0  0  0  0  0
   -5.7898   26.7909  -24.9364 C   0  0  0  0  0  0  0  0  0  0  0  0
   -5.0027   21.8470  -13.8637 C   0  0  0  0  0  0  0  0  0  0  0  0
   -3.7295   21.3747  -13.5024 C   0  0  0  0  0  0  0  0  0  0  0  0
   -3.7519   20.8681  -12.2651 N   0  0  0  0  0  0  0  0  0  0  0  0
   -2.5868   20.2911  -11.5801 C   0  0  0  0  0  0  0  0  0  0  0  0
   -4.9698   20.9996  -11.8385 N   0  0  0  0  0  0  0  0  0  0  0  0
   -5.7789   21.5887  -12.7679 C   0  0  0  0  0  0  0  0  0  0  0  0
   -7.2046   21.8365  -12.5479 C   0  0  0  0  0  0  0  0  0  0  0  0
   -6.5283   20.2102  -18.5336 C   0  0  0  0  0  0  0  0  0  0  0  0
   -7.6942   19.5067  -18.3617 C   0  0  0  0  0  0  0  0  0  0  0  0
   -7.6595   18.1159  -18.3251 C   0  0  0  0  0  0  0  0  0  0  0  0
   -6.4736   17.4283  -18.4586 C   0  0  0  0  0  0  0  0  0  0  0  0
   -5.3146   18.1463  -18.6303 C   0  0  0  0  0  0  0  0  0  0  0  0
   -5.3248   19.5429  -18.6704 C   0  0  0  0  0  0  0  0  0  0  0  0
   -6.4188   15.6856  -18.4129 S   0  0  0  0  0  0  0  0  0  0  0  0
   -6.0881   15.0153  -20.0463 C   0  0  0  0  0  0  0  0  0  0  0  0
   -5.3028   15.2508  -17.5122 O   0  0  0  0  0  0  0  0  0  0  0  0
   -7.7387   15.1032  -17.9755 O   0  0  0  0  0  0  0  0  0  0  0  0
 20 21  1  0  0  0
 21 12  1  0  0  0
 12 13  2  0  0  0
 13 14  1  0  0  0
 14 22  1  0  0  0
 22 23  1  0  0  0
 14 15  2  0  0  0
 15 16  1  0  0  0
 15 17  1  0  0  0
 17  1  1  0  0  0
  1  2  1  0  0  0
  2  3  1  0  0  0
  3  4  2  0  0  0
  4  5  1  0  0  0
  5  6  2  0  0  0
  6  7  1  0  0  0
  7  8  2  0  0  0
  8  9  1  0  0  0
  9 10  1  0  0  0
 10 11  2  0  0  0
  9 31  1  0  0  0
 31 32  2  0  0  0
 32 33  1  0  0  0
 33 34  2  0  0  0
 34 35  1  0  0  0
 35 36  2  0  0  0
 34 37  1  0  0  0
 37 38  1  0  0  0
 37 39  2  0  0  0
 37 40  2  0  0  0
  6 24  1  0  0  0
 24 25  2  0  0  0
 25 26  1  0  0  0
 26 27  1  0  0  0
 26 28  1  0  0  0
 28 29  2  0  0  0
 29 30  1  0  0  0
 17 18  2  0  0  0
 18 19  1  0  0  0
 18 12  1  0  0  0
 10  1  1  0  0  0
 36 31  1  0  0  0
 29 24  1  0  0  0
  8  3  1  0  0  0
M  END
> <minimizedAffinity>
-5.78458

> <CNNscore>
0.1699121594

> <CNNaffinity>
6.3785033226

> <CNN_VS>
1.0837852955

> <CNNaffinity_variance>
0.0742824599

$$$$
[H]c1nc(-c2c(C([H])([H])[H])nn(C([H])([H])[H])c2[H])c([H])c2c1C([H])([H])N(c1c(F)c(OC([H])([H])[H])c([H])c(OC([H])([H])[H])c1F)C(=O)N2c1c([H])c([H])c(S(=O)(=O)C([H])([H])[H])c([H])c1[H]


 40 44  0  0  0  0  0  0  0  0999 V2000
   -7.3296   23.8753  -20.0903 N   0  0  0  0  0  0  0  0  0  0  0  0
   -6.7086   24.7938  -19.1736 C   0  0  0  0  0  0  0  0  0  0  0  0
   -6.0649   24.1229  -18.0199 C   0  0  0  0  0  0  0  0  0  0  0  0
   -5.4594   24.9613  -17.0769 C   0  0  0  0  0  0  0  0  0  0  0  0
   -4.8601   24.4239  -16.0193 N   0  0  0  0  0  0  0  0  0  0  0  0
   -4.7867   23.0798  -15.7750 C   0  0  0  0  0  0  0  0  0  0  0  0
   -5.3775   22.2854  -16.6960 C   0  0  0  0  0  0  0  0  0  0  0  0
   -6.0229   22.7869  -17.8276 C   0  0  0  0  0  0  0  0  0  0  0  0
   -6.6330   21.8941  -18.7563 N   0  0  0  0  0  0  0  0  0  0  0  0
   -7.2845   22.4574  -19.8873 C   0  0  0  0  0  0  0  0  0  0  0  0
   -7.8447   21.7242  -20.7485 O   0  0  0  0  0  0  0  0  0  0  0  0
   -7.9668   24.9379  -23.6219 C   0  0  0  0  0  0  0  0  0  0  0  0
   -9.3027   25.3625  -23.4584 C   0  0  0  0  0  0  0  0  0  0  0  0
   -9.9595   25.3008  -22.2677 C   0  0  0  0  0  0  0  0  0  0  0  0
   -9.3290   24.8084  -21.1456 C   0  0  0  0  0  0  0  0  0  0  0  0
  -10.0074   24.7587  -19.9708 F   0  0  0  0  0  0  0  0  0  0  0  0
   -8.0240   24.3804  -21.2506 C   0  0  0  0  0  0  0  0  0  0  0  0
   -7.3731   24.4457  -22.4494 C   0  0  0  0  0  0  0  0  0  0  0  0
   -6.0979   24.0260  -22.5544 F   0  0  0  0  0  0  0  0  0  0  0  0
   -6.9390   25.2047  -25.9673 C   0  0  0  0  0  0  0  0  0  0  0  0
   -7.4269   25.0303  -24.7722 O   0  0  0  0  0  0  0  0  0  0  0  0
  -11.2756   25.7243  -22.1288 O   0  0  0  0  0  0  0  0  0  0  0  0
  -11.5284   27.1043  -21.9579 C   0  0  0  0  0  0  0  0  0  0  0  0
   -4.1182   22.6315  -14.5671 C   0  0  0  0  0  0  0  0  0  0  0  0
   -4.5444   22.8998  -13.2552 C   0  0  0  0  0  0  0  0  0  0  0  0
   -3.6956   22.3677  -12.3693 N   0  0  0  0  0  0  0  0  0  0  0  0
   -3.8471   22.4616  -10.9105 C   0  0  0  0  0  0  0  0  0  0  0  0
   -2.7654   21.7841  -13.0596 N   0  0  0  0  0  0  0  0  0  0  0  0
   -2.9675   21.9108  -14.4044 C   0  0  0  0  0  0  0  0  0  0  0  0
   -2.0545   21.3610  -15.4077 C   0  0  0  0  0  0  0  0  0  0  0  0
   -6.6066   20.4905  -18.5719 C   0  0  0  0  0  0  0  0  0  0  0  0
   -5.4967   19.7139  -18.7931 C   0  0  0  0  0  0  0  0  0  0  0  0
   -5.5671   18.3392  -18.5889 C   0  0  0  0  0  0  0  0  0  0  0  0
   -6.7332   17.7395  -18.1675 C   0  0  0  0  0  0  0  0  0  0  0  0
   -7.8360   18.5300  -17.9500 C   0  0  0  0  0  0  0  0  0  0  0  0
   -7.7891   19.9123  -18.1480 C   0  0  0  0  0  0  0  0  0  0  0  0
   -6.8327   16.0173  -17.9099 S   0  0  0  0  0  0  0  0  0  0  0  0
   -8.4686   15.5529  -17.3313 C   0  0  0  0  0  0  0  0  0  0  0  0
   -6.5959   15.3098  -19.2096 O   0  0  0  0  0  0  0  0  0  0  0  0
   -5.8632   15.5610  -16.8494 O   0  0  0  0  0  0  0  0  0  0  0  0
 20 21  1  0  0  0
 21 12  1  0  0  0
 12 13  2  0  0  0
 13 14  1  0  0  0
 14 22  1  0  0  0
 22 23  1  0  0  0
 14 15  2  0  0  0
 15 16  1  0  0  0
 15 17  1  0  0  0
 17  1  1  0  0  0
  1  2  1  0  0  0
  2  3  1  0  0  0
  3  4  2  0  0  0
  4  5  1  0  0  0
  5  6  2  0  0  0
  6  7  1  0  0  0
  7  8  2  0  0  0
  8  9  1  0  0  0
  9 10  1  0  0  0
 10 11  2  0  0  0
  9 31  1  0  0  0
 31 32  2  0  0  0
 32 33  1  0  0  0
 33 34  2  0  0  0
 34 35  1  0  0  0
 35 36  2  0  0  0
 34 37  1  0  0  0
 37 38  1  0  0  0
 37 39  2  0  0  0
 37 40  2  0  0  0
  6 24  1  0  0  0
 24 25  2  0  0  0
 25 26  1  0  0  0
 26 27  1  0  0  0
 26 28  1  0  0  0
 28 29  2  0  0  0
 29 30  1  0  0  0
 17 18  2  0  0  0
 18 19  1  0  0  0
 18 12  1  0  0  0
 10  1  1  0  0  0
 36 31  1  0  0  0
 29 24  1  0  0  0
  8  3  1  0  0  0
M  END
> <minimizedAffinity>
-5.87603

> <CNNscore>
0.1548569351

> <CNNaffinity>
6.2785611153

> <CNN_VS>
0.9722787142

> <CNNaffinity_variance>
0.1258649528

$$$$
[H]c1nc(-c2c(C([H])([H])[H])nn(C([H])([H])[H])c2[H])c([H])c2c1C([H])([H])N(c1c(F)c(OC([H])([H])[H])c([H])c(OC([H])([H])[H])c1F)C(=O)N2c1c([H])c([H])c(S(=O)(=O)C([H])([H])[H])c([H])c1[H]


 40 44  0  0  0  0  0  0  0  0999 V2000
   -6.1276   22.9691  -20.3423 N   0  0  0  0  0  0  0  0  0  0  0  0
   -5.6476   24.0371  -19.5065 C   0  0  0  0  0  0  0  0  0  0  0  0
   -5.9881   23.8581  -18.0757 C   0  0  0  0  0  0  0  0  0  0  0  0
   -5.5687   24.8739  -17.2091 C   0  0  0  0  0  0  0  0  0  0  0  0
   -5.8382   24.7737  -15.9115 N   0  0  0  0  0  0  0  0  0  0  0  0
   -6.5106   23.7270  -15.3423 C   0  0  0  0  0  0  0  0  0  0  0  0
   -6.9086   22.7556  -16.1945 C   0  0  0  0  0  0  0  0  0  0  0  0
   -6.6573   22.8013  -17.5668 C   0  0  0  0  0  0  0  0  0  0  0  0
   -7.1117   21.7469  -18.4116 N   0  0  0  0  0  0  0  0  0  0  0  0
   -6.8369   21.8469  -19.8028 C   0  0  0  0  0  0  0  0  0  0  0  0
   -7.2106   20.9484  -20.6067 O   0  0  0  0  0  0  0  0  0  0  0  0
   -4.4129   22.5646  -23.6443 C   0  0  0  0  0  0  0  0  0  0  0  0
   -5.4240   23.1203  -24.4571 C   0  0  0  0  0  0  0  0  0  0  0  0
   -6.5987   23.5941  -23.9585 C   0  0  0  0  0  0  0  0  0  0  0  0
   -6.8533   23.5486  -22.6049 C   0  0  0  0  0  0  0  0  0  0  0  0
   -8.0330   24.0286  -22.1348 F   0  0  0  0  0  0  0  0  0  0  0  0
   -5.8990   23.0158  -21.7668 C   0  0  0  0  0  0  0  0  0  0  0  0
   -4.7235   22.5424  -22.2759 C   0  0  0  0  0  0  0  0  0  0  0  0
   -3.7901   22.0194  -21.4583 F   0  0  0  0  0  0  0  0  0  0  0  0
   -2.3077   21.6758  -24.8303 C   0  0  0  0  0  0  0  0  0  0  0  0
   -3.3427   22.1440  -24.1929 O   0  0  0  0  0  0  0  0  0  0  0  0
   -7.5814   24.1374  -24.7770 O   0  0  0  0  0  0  0  0  0  0  0  0
   -7.2427   25.2287  -25.6089 C   0  0  0  0  0  0  0  0  0  0  0  0
   -6.7545   23.7572  -13.9117 C   0  0  0  0  0  0  0  0  0  0  0  0
   -5.7792   23.9834  -12.9257 C   0  0  0  0  0  0  0  0  0  0  0  0
   -6.3237   23.9217  -11.7059 N   0  0  0  0  0  0  0  0  0  0  0  0
   -5.5818   24.1140  -10.4520 C   0  0  0  0  0  0  0  0  0  0  0  0
   -7.5838   23.6691  -11.8807 N   0  0  0  0  0  0  0  0  0  0  0  0
   -7.9068   23.5571  -13.2030 C   0  0  0  0  0  0  0  0  0  0  0  0
   -9.2590   23.2557  -13.6754 C   0  0  0  0  0  0  0  0  0  0  0  0
   -7.8203   20.6323  -17.9010 C   0  0  0  0  0  0  0  0  0  0  0  0
   -9.1696   20.6374  -17.6501 C   0  0  0  0  0  0  0  0  0  0  0  0
   -9.7794   19.4939  -17.1431 C   0  0  0  0  0  0  0  0  0  0  0  0
   -9.0530   18.3521  -16.8869 C   0  0  0  0  0  0  0  0  0  0  0  0
   -7.7030   18.3621  -17.1432 C   0  0  0  0  0  0  0  0  0  0  0  0
   -7.0689   19.4983  -17.6525 C   0  0  0  0  0  0  0  0  0  0  0  0
   -9.8071   16.9140  -16.2502 S   0  0  0  0  0  0  0  0  0  0  0  0
  -11.5787   16.9390  -16.5461 C   0  0  0  0  0  0  0  0  0  0  0  0
   -9.2492   15.7129  -16.9515 O   0  0  0  0  0  0  0  0  0  0  0  0
   -9.6287   16.8125  -14.7566 O   0  0  0  0  0  0  0  0  0  0  0  0
 20 21  1  0  0  0
 21 12  1  0  0  0
 12 13  2  0  0  0
 13 14  1  0  0  0
 14 22  1  0  0  0
 22 23  1  0  0  0
 14 15  2  0  0  0
 15 16  1  0  0  0
 15 17  1  0  0  0
 17  1  1  0  0  0
  1  2  1  0  0  0
  2  3  1  0  0  0
  3  4  2  0  0  0
  4  5  1  0  0  0
  5  6  2  0  0  0
  6  7  1  0  0  0
  7  8  2  0  0  0
  8  9  1  0  0  0
  9 10  1  0  0  0
 10 11  2  0  0  0
  9 31  1  0  0  0
 31 32  2  0  0  0
 32 33  1  0  0  0
 33 34  2  0  0  0
 34 35  1  0  0  0
 35 36  2  0  0  0
 34 37  1  0  0  0
 37 38  1  0  0  0
 37 39  2  0  0  0
 37 40  2  0  0  0
  6 24  1  0  0  0
 24 25  2  0  0  0
 25 26  1  0  0  0
 26 27  1  0  0  0
 26 28  1  0  0  0
 28 29  2  0  0  0
 29 30  1  0  0  0
 17 18  2  0  0  0
 18 19  1  0  0  0
 18 12  1  0  0  0
 10  1  1  0  0  0
 36 31  1  0  0  0
 29 24  1  0  0  0
  8  3  1  0  0  0
M  END
> <minimizedAffinity>
-5.85200

> <CNNscore>
0.1516568959

> <CNNaffinity>
6.4239258766

> <CNN_VS>
0.9742326736

> <CNNaffinity_variance>
0.0655692816

$$$$
[H]c1nc(-c2c(C([H])([H])[H])nn(C([H])([H])[H])c2[H])c([H])c2c1C([H])([H])N(c1c(F)c(OC([H])([H])[H])c([H])c(OC([H])([H])[H])c1F)C(=O)N2c1c([H])c([H])c(S(=O)(=O)C([H])([H])[H])c([H])c1[H]


 40 44  0  0  0  0  0  0  0  0999 V2000
   -6.9826   24.4348  -21.9612 N   0  0  0  0  0  0  0  0  0  0  0  0
   -5.9347   23.8578  -21.1620 C   0  0  0  0  0  0  0  0  0  0  0  0
   -4.7346   23.4896  -21.9490 C   0  0  0  0  0  0  0  0  0  0  0  0
   -3.6839   22.9023  -21.2350 C   0  0  0  0  0  0  0  0  0  0  0  0
   -2.5760   22.5514  -21.8798 N   0  0  0  0  0  0  0  0  0  0  0  0
   -2.3775   22.7250  -23.2222 C   0  0  0  0  0  0  0  0  0  0  0  0
   -3.4030   23.2931  -23.8958 C   0  0  0  0  0  0  0  0  0  0  0  0
   -4.5922   23.6837  -23.2778 C   0  0  0  0  0  0  0  0  0  0  0  0
   -5.6383   24.2702  -24.0482 N   0  0  0  0  0  0  0  0  0  0  0  0
   -6.8317   24.6419  -23.3711 C   0  0  0  0  0  0  0  0  0  0  0  0
   -7.7969   25.1664  -23.9928 O   0  0  0  0  0  0  0  0  0  0  0  0
   -9.6556   26.5968  -20.4819 C   0  0  0  0  0  0  0  0  0  0  0  0
  -10.5643   25.5734  -20.1379 C   0  0  0  0  0  0  0  0  0  0  0  0
  -10.3225   24.2557  -20.3793 C   0  0  0  0  0  0  0  0  0  0  0  0
   -9.1499   23.8590  -20.9848 C   0  0  0  0  0  0  0  0  0  0  0  0
   -8.9343   22.5383  -21.2132 F   0  0  0  0  0  0  0  0  0  0  0  0
   -8.2282   24.8187  -21.3408 C   0  0  0  0  0  0  0  0  0  0  0  0
   -8.4795   26.1383  -21.0951 C   0  0  0  0  0  0  0  0  0  0  0  0
   -7.5805   27.0781  -21.4442 F   0  0  0  0  0  0  0  0  0  0  0  0
  -10.1984   29.0707  -20.0196 C   0  0  0  0  0  0  0  0  0  0  0  0
   -9.9607   27.8058  -20.2201 O   0  0  0  0  0  0  0  0  0  0  0  0
  -11.2316   23.2636  -20.0326 O   0  0  0  0  0  0  0  0  0  0  0  0
  -11.4834   23.0248  -18.6625 C   0  0  0  0  0  0  0  0  0  0  0  0
   -1.1242   22.2755  -23.8003 C   0  0  0  0  0  0  0  0  0  0  0  0
    0.0155   21.8930  -23.0724 C   0  0  0  0  0  0  0  0  0  0  0  0
    1.0093   21.5568  -23.9016 N   0  0  0  0  0  0  0  0  0  0  0  0
    2.3397   21.1076  -23.4680 C   0  0  0  0  0  0  0  0  0  0  0  0
    0.5490   21.7100  -25.1046 N   0  0  0  0  0  0  0  0  0  0  0  0
   -0.7451   22.1466  -25.1078 C   0  0  0  0  0  0  0  0  0  0  0  0
   -1.4964   22.4186  -26.3341 C   0  0  0  0  0  0  0  0  0  0  0  0
   -5.5134   24.4777  -25.4433 C   0  0  0  0  0  0  0  0  0  0  0  0
   -5.7969   23.5196  -26.3842 C   0  0  0  0  0  0  0  0  0  0  0  0
   -5.6396   23.8142  -27.7352 C   0  0  0  0  0  0  0  0  0  0  0  0
   -5.2033   25.0534  -28.1488 C   0  0  0  0  0  0  0  0  0  0  0  0
   -4.9236   26.0024  -27.1952 C   0  0  0  0  0  0  0  0  0  0  0  0
   -5.0742   25.7297  -25.8331 C   0  0  0  0  0  0  0  0  0  0  0  0
   -5.0014   25.4327  -29.8393 S   0  0  0  0  0  0  0  0  0  0  0  0
   -5.6973   24.1370  -30.8706 C   0  0  0  0  0  0  0  0  0  0  0  0
   -5.7358   26.7011  -30.1512 O   0  0  0  0  0  0  0  0  0  0  0  0
   -3.5441   25.5336  -30.2119 O   0  0  0  0  0  0  0  0  0  0  0  0
 20 21  1  0  0  0
 21 12  1  0  0  0
 12 13  2  0  0  0
 13 14  1  0  0  0
 14 22  1  0  0  0
 22 23  1  0  0  0
 14 15  2  0  0  0
 15 16  1  0  0  0
 15 17  1  0  0  0
 17  1  1  0  0  0
  1  2  1  0  0  0
  2  3  1  0  0  0
  3  4  2  0  0  0
  4  5  1  0  0  0
  5  6  2  0  0  0
  6  7  1  0  0  0
  7  8  2  0  0  0
  8  9  1  0  0  0
  9 10  1  0  0  0
 10 11  2  0  0  0
  9 31  1  0  0  0
 31 32  2  0  0  0
 32 33  1  0  0  0
 33 34  2  0  0  0
 34 35  1  0  0  0
 35 36  2  0  0  0
 34 37  1  0  0  0
 37 38  1  0  0  0
 37 39  2  0  0  0
 37 40  2  0  0  0
  6 24  1  0  0  0
 24 25  2  0  0  0
 25 26  1  0  0  0
 26 27  1  0  0  0
 26 28  1  0  0  0
 28 29  2  0  0  0
 29 30  1  0  0  0
 17 18  2  0  0  0
 18 19  1  0  0  0
 18 12  1  0  0  0
 10  1  1  0  0  0
 36 31  1  0  0  0
 29 24  1  0  0  0
  8  3  1  0  0  0
M  END
> <minimizedAffinity>
-10.35323

> <CNNscore>
0.1469656527

> <CNNaffinity>
7.3398904800

> <CNN_VS>
1.0787117481

> <CNNaffinity_variance>
0.1439495534

$$$$
[H]c1nc(-c2c(C([H])([H])[H])nn(C([H])([H])[H])c2[H])c([H])c2c1C([H])([H])N(c1c(F)c(OC([H])([H])[H])c([H])c(OC([H])([H])[H])c1F)C(=O)N2c1c([H])c([H])c(S(=O)(=O)C([H])([H])[H])c([H])c1[H]


 40 44  0  0  0  0  0  0  0  0999 V2000
   -3.5387   21.2202  -18.0645 N   0  0  0  0  0  0  0  0  0  0  0  0
   -2.2198   20.8105  -18.4673 C   0  0  0  0  0  0  0  0  0  0  0  0
   -1.9141   21.1315  -19.8811 C   0  0  0  0  0  0  0  0  0  0  0  0
   -0.6529   20.7401  -20.3447 C   0  0  0  0  0  0  0  0  0  0  0  0
   -0.3130   21.0013  -21.6027 N   0  0  0  0  0  0  0  0  0  0  0  0
   -1.1210   21.6404  -22.5029 C   0  0  0  0  0  0  0  0  0  0  0  0
   -2.3355   22.0106  -22.0378 C   0  0  0  0  0  0  0  0  0  0  0  0
   -2.7528   21.7657  -20.7284 C   0  0  0  0  0  0  0  0  0  0  0  0
   -4.0504   22.1756  -20.3040 N   0  0  0  0  0  0  0  0  0  0  0  0
   -4.4288   21.8941  -18.9629 C   0  0  0  0  0  0  0  0  0  0  0  0
   -5.5630   22.2296  -18.5220 O   0  0  0  0  0  0  0  0  0  0  0  0
   -4.3375   21.7528  -14.4471 C   0  0  0  0  0  0  0  0  0  0  0  0
   -4.8198   20.4575  -14.1624 C   0  0  0  0  0  0  0  0  0  0  0  0
   -4.8861   19.4695  -15.0965 C   0  0  0  0  0  0  0  0  0  0  0  0
   -4.4740   19.7016  -16.3908 C   0  0  0  0  0  0  0  0  0  0  0  0
   -4.5506   18.6982  -17.3020 F   0  0  0  0  0  0  0  0  0  0  0  0
   -3.9943   20.9496  -16.7218 C   0  0  0  0  0  0  0  0  0  0  0  0
   -3.9318   21.9349  -15.7781 C   0  0  0  0  0  0  0  0  0  0  0  0
   -3.4650   23.1562  -16.1003 F   0  0  0  0  0  0  0  0  0  0  0  0
   -4.3579   23.4521  -12.5130 C   0  0  0  0  0  0  0  0  0  0  0  0
   -4.3095   22.6192  -13.5134 O   0  0  0  0  0  0  0  0  0  0  0  0
   -5.3649   18.2004  -14.7947 O   0  0  0  0  0  0  0  0  0  0  0  0
   -6.7319   18.0525  -14.4676 C   0  0  0  0  0  0  0  0  0  0  0  0
   -0.6288   21.8420  -23.8534 C   0  0  0  0  0  0  0  0  0  0  0  0
   -1.4131   22.2210  -24.9561 C   0  0  0  0  0  0  0  0  0  0  0  0
   -0.6629   22.2955  -26.0606 N   0  0  0  0  0  0  0  0  0  0  0  0
   -1.1706   22.6670  -27.3887 C   0  0  0  0  0  0  0  0  0  0  0  0
    0.5444   21.9830  -25.7039 N   0  0  0  0  0  0  0  0  0  0  0  0
    0.6284   21.6958  -24.3713 C   0  0  0  0  0  0  0  0  0  0  0  0
    1.8734   21.2946  -23.7145 C   0  0  0  0  0  0  0  0  0  0  0  0
   -4.9485   22.8365  -21.1767 C   0  0  0  0  0  0  0  0  0  0  0  0
   -5.9176   22.1915  -21.9036 C   0  0  0  0  0  0  0  0  0  0  0  0
   -6.7529   22.9256  -22.7403 C   0  0  0  0  0  0  0  0  0  0  0  0
   -6.6261   24.2923  -22.8541 C   0  0  0  0  0  0  0  0  0  0  0  0
   -5.6513   24.9241  -22.1199 C   0  0  0  0  0  0  0  0  0  0  0  0
   -4.8013   24.2081  -21.2731 C   0  0  0  0  0  0  0  0  0  0  0  0
   -7.6667   25.2217  -23.9008 S   0  0  0  0  0  0  0  0  0  0  0  0
   -9.3167   25.3557  -23.2034 C   0  0  0  0  0  0  0  0  0  0  0  0
   -7.1190   26.6102  -24.0342 O   0  0  0  0  0  0  0  0  0  0  0  0
   -7.8280   24.5613  -25.2463 O   0  0  0  0  0  0  0  0  0  0  0  0
 20 21  1  0  0  0
 21 12  1  0  0  0
 12 13  2  0  0  0
 13 14  1  0  0  0
 14 22  1  0  0  0
 22 23  1  0  0  0
 14 15  2  0  0  0
 15 16  1  0  0  0
 15 17  1  0  0  0
 17  1  1  0  0  0
  1  2  1  0  0  0
  2  3  1  0  0  0
  3  4  2  0  0  0
  4  5  1  0  0  0
  5  6  2  0  0  0
  6  7  1  0  0  0
  7  8  2  0  0  0
  8  9  1  0  0  0
  9 10  1  0  0  0
 10 11  2  0  0  0
  9 31  1  0  0  0
 31 32  2  0  0  0
 32 33  1  0  0  0
 33 34  2  0  0  0
 34 35  1  0  0  0
 35 36  2  0  0  0
 34 37  1  0  0  0
 37 38  1  0  0  0
 37 39  2  0  0  0
 37 40  2  0  0  0
  6 24  1  0  0  0
 24 25  2  0  0  0
 25 26  1  0  0  0
 26 27  1  0  0  0
 26 28  1  0  0  0
 28 29  2  0  0  0
 29 30  1  0  0  0
 17 18  2  0  0  0
 18 19  1  0  0  0
 18 12  1  0  0  0
 10  1  1  0  0  0
 36 31  1  0  0  0
 29 24  1  0  0  0
  8  3  1  0  0  0
M  END
> <minimizedAffinity>
-7.04960

> <CNNscore>
0.1173427850

> <CNNaffinity>
6.8030791283

> <CNN_VS>
0.7982922792

> <CNNaffinity_variance>
0.0735252947

$$$$
[H]c1nc(-c2c(C([H])([H])[H])nn(C([H])([H])[H])c2[H])c([H])c2c1C([H])([H])N(c1c(F)c(OC([H])([H])[H])c([H])c(OC([H])([H])[H])c1F)C(=O)N2c1c([H])c([H])c(S(=O)(=O)C([H])([H])[H])c([H])c1[H]


 40 44  0  0  0  0  0  0  0  0999 V2000
   -0.4374   21.4240  -20.6750 N   0  0  0  0  0  0  0  0  0  0  0  0
    0.3292   21.3194  -21.8878 C   0  0  0  0  0  0  0  0  0  0  0  0
   -0.4313   21.7150  -23.0962 C   0  0  0  0  0  0  0  0  0  0  0  0
    0.2500   21.6161  -24.3148 C   0  0  0  0  0  0  0  0  0  0  0  0
   -0.3730   21.9593  -25.4375 N   0  0  0  0  0  0  0  0  0  0  0  0
   -1.6619   22.4142  -25.4959 C   0  0  0  0  0  0  0  0  0  0  0  0
   -2.3046   22.5027  -24.3095 C   0  0  0  0  0  0  0  0  0  0  0  0
   -1.7070   22.1578  -23.0960 C   0  0  0  0  0  0  0  0  0  0  0  0
   -2.4438   22.2671  -21.8806 N   0  0  0  0  0  0  0  0  0  0  0  0
   -1.7909   21.8948  -20.6740 C   0  0  0  0  0  0  0  0  0  0  0  0
   -2.3851   21.9674  -19.5628 O   0  0  0  0  0  0  0  0  0  0  0  0
    0.6713   19.2855  -17.8106 C   0  0  0  0  0  0  0  0  0  0  0  0
    1.2492   20.3028  -17.0216 C   0  0  0  0  0  0  0  0  0  0  0  0
    1.2809   21.6090  -17.4035 C   0  0  0  0  0  0  0  0  0  0  0  0
    0.7353   21.9994  -18.6073 C   0  0  0  0  0  0  0  0  0  0  0  0
    0.7802   23.3087  -18.9630 F   0  0  0  0  0  0  0  0  0  0  0  0
    0.1581   21.0453  -19.4158 C   0  0  0  0  0  0  0  0  0  0  0  0
    0.1313   19.7372  -19.0246 C   0  0  0  0  0  0  0  0  0  0  0  0
   -0.4308   18.8027  -19.8146 F   0  0  0  0  0  0  0  0  0  0  0  0
    0.6083   16.8834  -16.8863 C   0  0  0  0  0  0  0  0  0  0  0  0
    0.6844   18.0872  -17.3778 O   0  0  0  0  0  0  0  0  0  0  0  0
    1.8556   22.5952  -16.6110 O   0  0  0  0  0  0  0  0  0  0  0  0
    3.2435   22.8351  -16.7287 C   0  0  0  0  0  0  0  0  0  0  0  0
   -2.2248   22.7338  -26.7951 C   0  0  0  0  0  0  0  0  0  0  0  0
   -3.5967   22.7994  -27.0924 C   0  0  0  0  0  0  0  0  0  0  0  0
   -3.7822   23.0920  -28.3840 N   0  0  0  0  0  0  0  0  0  0  0  0
   -5.0969   23.2375  -29.0246 C   0  0  0  0  0  0  0  0  0  0  0  0
   -2.6004   23.2112  -28.9050 N   0  0  0  0  0  0  0  0  0  0  0  0
   -1.6108   23.0036  -27.9868 C   0  0  0  0  0  0  0  0  0  0  0  0
   -0.1860   23.0596  -28.3170 C   0  0  0  0  0  0  0  0  0  0  0  0
   -3.7841   22.7231  -21.8572 C   0  0  0  0  0  0  0  0  0  0  0  0
   -4.8725   21.8876  -21.8240 C   0  0  0  0  0  0  0  0  0  0  0  0
   -6.1546   22.4283  -21.8074 C   0  0  0  0  0  0  0  0  0  0  0  0
   -6.3543   23.7910  -21.8238 C   0  0  0  0  0  0  0  0  0  0  0  0
   -5.2549   24.6148  -21.8569 C   0  0  0  0  0  0  0  0  0  0  0  0
   -3.9582   24.0949  -21.8738 C   0  0  0  0  0  0  0  0  0  0  0  0
   -7.9569   24.4791  -21.8048 S   0  0  0  0  0  0  0  0  0  0  0  0
   -8.0039   25.9568  -20.7846 C   0  0  0  0  0  0  0  0  0  0  0  0
   -8.3381   24.8799  -23.1975 O   0  0  0  0  0  0  0  0  0  0  0  0
   -8.9608   23.5233  -21.2121 O   0  0  0  0  0  0  0  0  0  0  0  0
 20 21  1  0  0  0
 21 12  1  0  0  0
 12 13  2  0  0  0
 13 14  1  0  0  0
 14 22  1  0  0  0
 22 23  1  0  0  0
 14 15  2  0  0  0
 15 16  1  0  0  0
 15 17  1  0  0  0
 17  1  1  0  0  0
  1  2  1  0  0  0
  2  3  1  0  0  0
  3  4  2  0  0  0
  4  5  1  0  0  0
  5  6  2  0  0  0
  6  7  1  0  0  0
  7  8  2  0  0  0
  8  9  1  0  0  0
  9 10  1  0  0  0
 10 11  2  0  0  0
  9 31  1  0  0  0
 31 32  2  0  0  0
 32 33  1  0  0  0
 33 34  2  0  0  0
 34 35  1  0  0  0
 35 36  2  0  0  0
 34 37  1  0  0  0
 37 38  1  0  0  0
 37 39  2  0  0  0
 37 40  2  0  0  0
  6 24  1  0  0  0
 24 25  2  0  0  0
 25 26  1  0  0  0
 26 27  1  0  0  0
 26 28  1  0  0  0
 28 29  2  0  0  0
 29 30  1  0  0  0
 17 18  2  0  0  0
 18 19  1  0  0  0
 18 12  1  0  0  0
 10  1  1  0  0  0
 36 31  1  0  0  0
 29 24  1  0  0  0
  8  3  1  0  0  0
M  END
> <minimizedAffinity>
-8.26237

> <CNNscore>
0.1091319621

> <CNNaffinity>
7.1531057358

> <CNN_VS>
0.7806324363

> <CNNaffinity_variance>
0.0471833609

$$$$
[H]c1nc(-c2c(C([H])([H])[H])nn(C([H])([H])[H])c2[H])c([H])c2c1C([H])([H])N(c1c(F)c(OC([H])([H])[H])c([H])c(OC([H])([H])[H])c1F)C(=O)N2c1c([H])c([H])c(S(=O)(=O)C([H])([H])[H])c([H])c1[H]


 40 44  0  0  0  0  0  0  0  0999 V2000
   -0.4939   21.4857  -19.8470 N   0  0  0  0  0  0  0  0  0  0  0  0
   -0.9023   22.4730  -20.8104 C   0  0  0  0  0  0  0  0  0  0  0  0
   -2.3473   22.7934  -20.7425 C   0  0  0  0  0  0  0  0  0  0  0  0
   -2.8159   23.7326  -21.6682 C   0  0  0  0  0  0  0  0  0  0  0  0
   -4.1018   24.0686  -21.6591 N   0  0  0  0  0  0  0  0  0  0  0  0
   -5.0268   23.5548  -20.7918 C   0  0  0  0  0  0  0  0  0  0  0  0
   -4.5563   22.6488  -19.9053 C   0  0  0  0  0  0  0  0  0  0  0  0
   -3.2182   22.2534  -19.8630 C   0  0  0  0  0  0  0  0  0  0  0  0
   -2.7889   21.2867  -18.9074 N   0  0  0  0  0  0  0  0  0  0  0  0
   -1.4174   20.9129  -18.9129 C   0  0  0  0  0  0  0  0  0  0  0  0
   -0.9707   20.0628  -18.0937 O   0  0  0  0  0  0  0  0  0  0  0  0
    2.5953   19.5251  -20.6350 C   0  0  0  0  0  0  0  0  0  0  0  0
    3.4702   20.1727  -19.7369 C   0  0  0  0  0  0  0  0  0  0  0  0
    3.0775   21.1930  -18.9257 C   0  0  0  0  0  0  0  0  0  0  0  0
    1.7760   21.6452  -18.9503 C   0  0  0  0  0  0  0  0  0  0  0  0
    1.4115   22.6638  -18.1303 F   0  0  0  0  0  0  0  0  0  0  0  0
    0.8808   21.0470  -19.8093 C   0  0  0  0  0  0  0  0  0  0  0  0
    1.2837   20.0243  -20.6198 C   0  0  0  0  0  0  0  0  0  0  0  0
    0.4105   19.4396  -21.4617 F   0  0  0  0  0  0  0  0  0  0  0  0
    3.4128   17.6089  -22.1477 C   0  0  0  0  0  0  0  0  0  0  0  0
    3.0451   18.5782  -21.3590 O   0  0  0  0  0  0  0  0  0  0  0  0
    3.9559   21.8172  -18.0484 O   0  0  0  0  0  0  0  0  0  0  0  0
    4.8425   22.7930  -18.5578 C   0  0  0  0  0  0  0  0  0  0  0  0
   -6.4046   23.9965  -20.9080 C   0  0  0  0  0  0  0  0  0  0  0  0
   -6.8719   25.2876  -20.6090 C   0  0  0  0  0  0  0  0  0  0  0  0
   -8.1939   25.3618  -20.7961 N   0  0  0  0  0  0  0  0  0  0  0  0
   -8.9997   26.5709  -20.5760 C   0  0  0  0  0  0  0  0  0  0  0  0
   -8.5730   24.1870  -21.1945 N   0  0  0  0  0  0  0  0  0  0  0  0
   -7.5280   23.3120  -21.2815 C   0  0  0  0  0  0  0  0  0  0  0  0
   -7.6839   21.9146  -21.6883 C   0  0  0  0  0  0  0  0  0  0  0  0
   -3.6855   20.7028  -17.9800 C   0  0  0  0  0  0  0  0  0  0  0  0
   -4.4048   19.5612  -18.2312 C   0  0  0  0  0  0  0  0  0  0  0  0
   -5.2667   19.0631  -17.2587 C   0  0  0  0  0  0  0  0  0  0  0  0
   -5.4131   19.6955  -16.0439 C   0  0  0  0  0  0  0  0  0  0  0  0
   -4.6862   20.8374  -15.8069 C   0  0  0  0  0  0  0  0  0  0  0  0
   -3.8146   21.3559  -16.7679 C   0  0  0  0  0  0  0  0  0  0  0  0
   -6.4915   19.0806  -14.8188 S   0  0  0  0  0  0  0  0  0  0  0  0
   -8.0921   18.6730  -15.5250 C   0  0  0  0  0  0  0  0  0  0  0  0
   -5.9179   17.8211  -14.2440 O   0  0  0  0  0  0  0  0  0  0  0  0
   -6.7511   20.1076  -13.7462 O   0  0  0  0  0  0  0  0  0  0  0  0
 20 21  1  0  0  0
 21 12  1  0  0  0
 12 13  2  0  0  0
 13 14  1  0  0  0
 14 22  1  0  0  0
 22 23  1  0  0  0
 14 15  2  0  0  0
 15 16  1  0  0  0
 15 17  1  0  0  0
 17  1  1  0  0  0
  1  2  1  0  0  0
  2  3  1  0  0  0
  3  4  2  0  0  0
  4  5  1  0  0  0
  5  6  2  0  0  0
  6  7  1  0  0  0
  7  8  2  0  0  0
  8  9  1  0  0  0
  9 10  1  0  0  0
 10 11  2  0  0  0
  9 31  1  0  0  0
 31 32  2  0  0  0
 32 33  1  0  0  0
 33 34  2  0  0  0
 34 35  1  0  0  0
 35 36  2  0  0  0
 34 37  1  0  0  0
 37 38  1  0  0  0
 37 39  2  0  0  0
 37 40  2  0  0  0
  6 24  1  0  0  0
 24 25  2  0  0  0
 25 26  1  0  0  0
 26 27  1  0  0  0
 26 28  1  0  0  0
 28 29  2  0  0  0
 29 30  1  0  0  0
 17 18  2  0  0  0
 18 19  1  0  0  0
 18 12  1  0  0  0
 10  1  1  0  0  0
 36 31  1  0  0  0
 29 24  1  0  0  0
  8  3  1  0  0  0
M  END
> <minimizedAffinity>
-5.80588

> <CNNscore>
0.1000150964

> <CNNaffinity>
6.2430753708

> <CNN_VS>
0.6244018078

> <CNNaffinity_variance>
0.0954641104

$$$$
[H]c1nc(-c2c(C([H])([H])[H])nn(C([H])([H])[H])c2[H])c([H])c2c1C([H])([H])N(c1c(F)c(OC([H])([H])[H])c([H])c(OC([H])([H])[H])c1F)C(=O)N2c1c([H])c([H])c(S(=O)(=O)C([H])([H])[H])c([H])c1[H]


 40 44  0  0  0  0  0  0  0  0999 V2000
   -1.5832   20.8452  -19.1538 N   0  0  0  0  0  0  0  0  0  0  0  0
   -0.5404   20.6106  -20.1168 C   0  0  0  0  0  0  0  0  0  0  0  0
   -0.8805   21.0928  -21.4759 C   0  0  0  0  0  0  0  0  0  0  0  0
    0.0833   20.8762  -22.4673 C   0  0  0  0  0  0  0  0  0  0  0  0
   -0.1565   21.2880  -23.7081 N   0  0  0  0  0  0  0  0  0  0  0  0
   -1.3020   21.9244  -24.1013 C   0  0  0  0  0  0  0  0  0  0  0  0
   -2.2218   22.1245  -23.1307 C   0  0  0  0  0  0  0  0  0  0  0  0
   -2.0310   21.7163  -21.8095 C   0  0  0  0  0  0  0  0  0  0  0  0
   -3.0452   21.9511  -20.8358 N   0  0  0  0  0  0  0  0  0  0  0  0
   -2.8039   21.5076  -19.5069 C   0  0  0  0  0  0  0  0  0  0  0  0
   -3.6595   21.6838  -18.5960 O   0  0  0  0  0  0  0  0  0  0  0  0
   -1.8072   18.6974  -16.0970 C   0  0  0  0  0  0  0  0  0  0  0  0
   -1.1302   19.5573  -15.2060 C   0  0  0  0  0  0  0  0  0  0  0  0
   -0.6250   20.7644  -15.5810 C   0  0  0  0  0  0  0  0  0  0  0  0
   -0.7585   21.2058  -16.8797 C   0  0  0  0  0  0  0  0  0  0  0  0
   -0.2456   22.4140  -17.2263 F   0  0  0  0  0  0  0  0  0  0  0  0
   -1.4115   20.4045  -17.7900 C   0  0  0  0  0  0  0  0  0  0  0  0
   -1.9148   19.1948  -17.4049 C   0  0  0  0  0  0  0  0  0  0  0  0
   -2.5518   18.4093  -18.2939 F   0  0  0  0  0  0  0  0  0  0  0  0
   -2.6261   16.3990  -15.2755 C   0  0  0  0  0  0  0  0  0  0  0  0
   -2.2490   17.5840  -15.6632 O   0  0  0  0  0  0  0  0  0  0  0  0
    0.0388   21.5958  -14.6871 O   0  0  0  0  0  0  0  0  0  0  0  0
   -0.5740   21.8827  -13.4463 C   0  0  0  0  0  0  0  0  0  0  0  0
   -1.4403   22.3011  -25.4962 C   0  0  0  0  0  0  0  0  0  0  0  0
   -0.3786   22.6100  -26.3636 C   0  0  0  0  0  0  0  0  0  0  0  0
   -0.8435   22.9417  -27.5728 N   0  0  0  0  0  0  0  0  0  0  0  0
    0.0007   23.3184  -28.7151 C   0  0  0  0  0  0  0  0  0  0  0  0
   -2.1359   22.8560  -27.5034 N   0  0  0  0  0  0  0  0  0  0  0  0
   -2.5595   22.4708  -26.2634 C   0  0  0  0  0  0  0  0  0  0  0  0
   -3.9716   22.3164  -25.9105 C   0  0  0  0  0  0  0  0  0  0  0  0
   -4.2616   22.5974  -21.1642 C   0  0  0  0  0  0  0  0  0  0  0  0
   -5.4254   21.9294  -21.4521 C   0  0  0  0  0  0  0  0  0  0  0  0
   -6.5725   22.6509  -21.7688 C   0  0  0  0  0  0  0  0  0  0  0  0
   -6.5633   24.0279  -21.7993 C   0  0  0  0  0  0  0  0  0  0  0  0
   -5.3906   24.6827  -21.5086 C   0  0  0  0  0  0  0  0  0  0  0  0
   -4.2266   23.9796  -21.1876 C   0  0  0  0  0  0  0  0  0  0  0  0
   -7.9948   24.9418  -22.1964 S   0  0  0  0  0  0  0  0  0  0  0  0
   -9.4044   24.3636  -21.2447 C   0  0  0  0  0  0  0  0  0  0  0  0
   -7.7735   26.3818  -21.8457 O   0  0  0  0  0  0  0  0  0  0  0  0
   -8.3684   24.7791  -23.6478 O   0  0  0  0  0  0  0  0  0  0  0  0
 20 21  1  0  0  0
 21 12  1  0  0  0
 12 13  2  0  0  0
 13 14  1  0  0  0
 14 22  1  0  0  0
 22 23  1  0  0  0
 14 15  2  0  0  0
 15 16  1  0  0  0
 15 17  1  0  0  0
 17  1  1  0  0  0
  1  2  1  0  0  0
  2  3  1  0  0  0
  3  4  2  0  0  0
  4  5  1  0  0  0
  5  6  2  0  0  0
  6  7  1  0  0  0
  7  8  2  0  0  0
  8  9  1  0  0  0
  9 10  1  0  0  0
 10 11  2  0  0  0
  9 31  1  0  0  0
 31 32  2  0  0  0
 32 33  1  0  0  0
 33 34  2  0  0  0
 34 35  1  0  0  0
 35 36  2  0  0  0
 34 37  1  0  0  0
 37 38  1  0  0  0
 37 39  2  0  0  0
 37 40  2  0  0  0
  6 24  1  0  0  0
 24 25  2  0  0  0
 25 26  1  0  0  0
 26 27  1  0  0  0
 26 28  1  0  0  0
 28 29  2  0  0  0
 29 30  1  0  0  0
 17 18  2  0  0  0
 18 19  1  0  0  0
 18 12  1  0  0  0
 10  1  1  0  0  0
 36 31  1  0  0  0
 29 24  1  0  0  0
  8  3  1  0  0  0
M  END
> <minimizedAffinity>
-6.97898

> <CNNscore>
0.0724907219

> <CNNaffinity>
6.6532335281

> <CNN_VS>
0.4822976887

> <CNNaffinity_variance>
0.0468667969

$$$$
[H]c1c(F)c(C([H])([H])Oc2nsc(N([H])C(=O)N([H])C([H])([H])C([H])([H])C([H])([H])C([H])([H])N3C([H])([H])C([H])([H])C([H])([H])C3([H])[H])c2C(=O)N([H])[H])c(F)c([H])c1Br


 36 38  0  0  0  0  0  0  0  0999 V2000
   -4.0810   23.5713  -23.1907 C   0  0  0  0  0  0  0  0  0  0  0  0
   -3.4893   22.5431  -22.4935 C   0  0  0  0  0  0  0  0  0  0  0  0
   -3.3519   21.3064  -23.6866 S   0  0  0  0  0  0  0  0  0  0  0  0
   -4.0247   22.1183  -24.9648 N   0  0  0  0  0  0  0  0  0  0  0  0
   -4.3534   23.3223  -24.4928 C   0  0  0  0  0  0  0  0  0  0  0  0
   -3.0718   22.4624  -21.1249 N   0  0  0  0  0  0  0  0  0  0  0  0
   -1.7365   22.9649  -20.7958 C   0  0  0  0  0  0  0  0  0  0  0  0
   -1.1182   23.4095  -21.7726 O   0  0  0  0  0  0  0  0  0  0  0  0
   -1.3635   22.8727  -19.4645 N   0  0  0  0  0  0  0  0  0  0  0  0
   -3.6507   22.0815  -20.3990 H   0  0  0  0  0  0  0  0  0  0  0  0
   -2.1220   22.4095  -18.7870 H   0  0  0  0  0  0  0  0  0  0  0  0
   -0.1900   23.2598  -18.7857 C   0  0  0  0  0  0  0  0  0  0  0  0
    0.6779   22.2130  -18.2158 C   0  0  0  0  0  0  0  0  0  0  0  0
    1.8516   22.5528  -17.3737 C   0  0  0  0  0  0  0  0  0  0  0  0
    2.7924   23.5162  -18.0348 C   0  0  0  0  0  0  0  0  0  0  0  0
    4.0384   23.0034  -18.4110 N   0  0  0  0  0  0  0  0  0  0  0  0
    4.9093   22.6021  -17.3619 C   0  0  0  0  0  0  0  0  0  0  0  0
    5.9919   21.7719  -18.0614 C   0  0  0  0  0  0  0  0  0  0  0  0
    5.6484   21.8362  -19.5366 C   0  0  0  0  0  0  0  0  0  0  0  0
    4.1283   22.0469  -19.4472 C   0  0  0  0  0  0  0  0  0  0  0  0
   -4.2347   26.0594  -23.2454 N   0  0  0  0  0  0  0  0  0  0  0  0
   -4.3904   24.8704  -22.5228 C   0  0  0  0  0  0  0  0  0  0  0  0
   -4.7844   24.9373  -21.3395 O   0  0  0  0  0  0  0  0  0  0  0  0
   -3.3389   26.5987  -23.2184 H   0  0  0  0  0  0  0  0  0  0  0  0
   -5.0628   26.3863  -23.8183 H   0  0  0  0  0  0  0  0  0  0  0  0
   -4.9703   24.2459  -25.4219 O   0  0  0  0  0  0  0  0  0  0  0  0
   -4.1291   24.6490  -26.4672 C   0  0  0  0  0  0  0  0  0  0  0  0
   -4.5873   24.4622  -27.8172 C   0  0  0  0  0  0  0  0  0  0  0  0
   -5.3781   25.5166  -28.3459 C   0  0  0  0  0  0  0  0  0  0  0  0
   -5.6477   26.6134  -27.5633 F   0  0  0  0  0  0  0  0  0  0  0  0
   -5.8704   25.4597  -29.6072 C   0  0  0  0  0  0  0  0  0  0  0  0
   -5.6062   24.3713  -30.3920 C   0  0  0  0  0  0  0  0  0  0  0  0
   -6.2936   24.2739  -32.1768 Br  0  0  0  0  0  0  0  0  0  0  0  0
   -4.8452   23.3306  -29.9171 C   0  0  0  0  0  0  0  0  0  0  0  0
   -4.3344   23.3851  -28.6142 C   0  0  0  0  0  0  0  0  0  0  0  0
   -3.6041   22.3428  -28.2145 F   0  0  0  0  0  0  0  0  0  0  0  0
 21 22  1  0  0  0
 22 23  2  0  0  0
 22  1  1  0  0  0
  1  2  2  0  0  0
  2  6  1  0  0  0
  6  7  1  0  0  0
  7  8  2  0  0  0
  7  9  1  0  0  0
  9 12  1  0  0  0
 12 13  1  0  0  0
 13 14  1  0  0  0
 14 15  1  0  0  0
 15 16  1  0  0  0
 16 17  1  0  0  0
 17 18  1  0  0  0
 18 19  1  0  0  0
 19 20  1  0  0  0
  2  3  1  0  0  0
  3  4  1  0  0  0
  4  5  2  0  0  0
  5 26  1  0  0  0
 26 27  1  0  0  0
 27 28  1  0  0  0
 28 29  2  0  0  0
 29 30  1  0  0  0
 29 31  1  0  0  0
 31 32  2  0  0  0
 32 33  1  0  0  0
 32 34  1  0  0  0
 34 35  2  0  0  0
 35 36  1  0  0  0
  5  1  1  0  0  0
 35 28  1  0  0  0
 20 16  1  0  0  0
 21 24  1  0  0  0
 21 25  1  0  0  0
  6 10  1  0  0  0
  9 11  1  0  0  0
M  END
> <minimizedAffinity>
-6.78734

> <CNNscore>
0.1676635295

> <CNNaffinity>
6.0650072098

> <CNN_VS>
1.0168805122

> <CNNaffinity_variance>
0.0865777284

$$$$
[H]c1c(F)c(C([H])([H])Oc2nsc(N([H])C(=O)N([H])C([H])([H])C([H])([H])C([H])([H])C([H])([H])N3C([H])([H])C([H])([H])C([H])([H])C3([H])[H])c2C(=O)N([H])[H])c(F)c([H])c1Br


 36 38  0  0  0  0  0  0  0  0999 V2000
   -2.4460   21.9140  -23.1567 C   0  0  0  0  0  0  0  0  0  0  0  0
   -1.2796   21.2329  -22.8941 C   0  0  0  0  0  0  0  0  0  0  0  0
   -0.2859   21.6510  -24.2394 S   0  0  0  0  0  0  0  0  0  0  0  0
   -1.3534   22.6320  -25.0415 N   0  0  0  0  0  0  0  0  0  0  0  0
   -2.4598   22.6449  -24.2957 C   0  0  0  0  0  0  0  0  0  0  0  0
   -0.9237   20.3790  -21.7996 N   0  0  0  0  0  0  0  0  0  0  0  0
   -0.0852   20.9495  -20.7435 C   0  0  0  0  0  0  0  0  0  0  0  0
    0.2196   22.1343  -20.9366 O   0  0  0  0  0  0  0  0  0  0  0  0
    0.2407   20.0984  -19.6998 N   0  0  0  0  0  0  0  0  0  0  0  0
   -1.2229   19.4234  -21.7328 H   0  0  0  0  0  0  0  0  0  0  0  0
   -0.1632   19.0600  -19.7865 H   0  0  0  0  0  0  0  0  0  0  0  0
    0.9964   20.2934  -18.5256 C   0  0  0  0  0  0  0  0  0  0  0  0
    0.6742   21.4404  -17.6571 C   0  0  0  0  0  0  0  0  0  0  0  0
    1.5598   22.6289  -17.5824 C   0  0  0  0  0  0  0  0  0  0  0  0
    2.7221   22.5584  -18.5280 C   0  0  0  0  0  0  0  0  0  0  0  0
    3.7981   23.4079  -18.2490 N   0  0  0  0  0  0  0  0  0  0  0  0
    3.5862   24.4061  -17.2597 C   0  0  0  0  0  0  0  0  0  0  0  0
    4.9935   24.9112  -16.9202 C   0  0  0  0  0  0  0  0  0  0  0  0
    5.9210   24.1520  -17.8483 C   0  0  0  0  0  0  0  0  0  0  0  0
    5.0937   22.8747  -18.0653 C   0  0  0  0  0  0  0  0  0  0  0  0
   -4.8785   21.5570  -22.7410 N   0  0  0  0  0  0  0  0  0  0  0  0
   -3.6075   21.8315  -22.2221 C   0  0  0  0  0  0  0  0  0  0  0  0
   -3.4882   21.9988  -20.9901 O   0  0  0  0  0  0  0  0  0  0  0  0
   -5.5324   22.3265  -23.0135 H   0  0  0  0  0  0  0  0  0  0  0  0
   -5.1462   20.5379  -22.8445 H   0  0  0  0  0  0  0  0  0  0  0  0
   -3.5684   23.4414  -24.7791 O   0  0  0  0  0  0  0  0  0  0  0  0
   -4.2554   22.8666  -25.8563 C   0  0  0  0  0  0  0  0  0  0  0  0
   -4.3920   23.6371  -27.0626 C   0  0  0  0  0  0  0  0  0  0  0  0
   -5.5269   24.4887  -27.1189 C   0  0  0  0  0  0  0  0  0  0  0  0
   -6.3953   24.5242  -26.0545 F   0  0  0  0  0  0  0  0  0  0  0  0
   -5.7677   25.2658  -28.2026 C   0  0  0  0  0  0  0  0  0  0  0  0
   -4.9078   25.2359  -29.2657 C   0  0  0  0  0  0  0  0  0  0  0  0
   -5.2323   26.3273  -30.8054 Br  0  0  0  0  0  0  0  0  0  0  0  0
   -3.7986   24.4252  -29.2497 C   0  0  0  0  0  0  0  0  0  0  0  0
   -3.5459   23.6204  -28.1317 C   0  0  0  0  0  0  0  0  0  0  0  0
   -2.4530   22.8569  -28.1797 F   0  0  0  0  0  0  0  0  0  0  0  0
 21 22  1  0  0  0
 22 23  2  0  0  0
 22  1  1  0  0  0
  1  2  2  0  0  0
  2  6  1  0  0  0
  6  7  1  0  0  0
  7  8  2  0  0  0
  7  9  1  0  0  0
  9 12  1  0  0  0
 12 13  1  0  0  0
 13 14  1  0  0  0
 14 15  1  0  0  0
 15 16  1  0  0  0
 16 17  1  0  0  0
 17 18  1  0  0  0
 18 19  1  0  0  0
 19 20  1  0  0  0
  2  3  1  0  0  0
  3  4  1  0  0  0
  4  5  2  0  0  0
  5 26  1  0  0  0
 26 27  1  0  0  0
 27 28  1  0  0  0
 28 29  2  0  0  0
 29 30  1  0  0  0
 29 31  1  0  0  0
 31 32  2  0  0  0
 32 33  1  0  0  0
 32 34  1  0  0  0
 34 35  2  0  0  0
 35 36  1  0  0  0
  5  1  1  0  0  0
 35 28  1  0  0  0
 20 16  1  0  0  0
 21 24  1  0  0  0
 21 25  1  0  0  0
  6 10  1  0  0  0
  9 11  1  0  0  0
M  END
> <minimizedAffinity>
-6.86032

> <CNNscore>
0.1615539491

> <CNNaffinity>
6.2423844337

> <CNN_VS>
1.0084818602

> <CNNaffinity_variance>
0.1927773803

$$$$
[H]c1c(F)c(C([H])([H])Oc2nsc(N([H])C(=O)N([H])C([H])([H])C([H])([H])C([H])([H])C([H])([H])N3C([H])([H])C([H])([H])C([H])([H])C3([H])[H])c2C(=O)N([H])[H])c(F)c([H])c1Br


 36 38  0  0  0  0  0  0  0  0999 V2000
   -3.1894   22.7602  -22.6821 C   0  0  0  0  0  0  0  0  0  0  0  0
   -2.1323   21.9851  -22.2637 C   0  0  0  0  0  0  0  0  0  0  0  0
   -1.1312   21.9215  -23.6657 S   0  0  0  0  0  0  0  0  0  0  0  0
   -2.0627   22.8447  -24.6783 N   0  0  0  0  0  0  0  0  0  0  0  0
   -3.1292   23.2015  -23.9601 C   0  0  0  0  0  0  0  0  0  0  0  0
   -1.8748   21.3624  -20.9989 N   0  0  0  0  0  0  0  0  0  0  0  0
   -1.1259   22.1352  -20.0061 C   0  0  0  0  0  0  0  0  0  0  0  0
   -0.7999   23.2640  -20.3978 O   0  0  0  0  0  0  0  0  0  0  0  0
   -0.8940   21.5049  -18.7941 N   0  0  0  0  0  0  0  0  0  0  0  0
   -2.1835   20.4342  -20.7744 H   0  0  0  0  0  0  0  0  0  0  0  0
   -1.2944   20.4648  -18.7124 H   0  0  0  0  0  0  0  0  0  0  0  0
   -0.2396   21.9311  -17.6203 C   0  0  0  0  0  0  0  0  0  0  0  0
    1.2322   22.0183  -17.6204 C   0  0  0  0  0  0  0  0  0  0  0  0
    2.0578   21.1865  -18.5308 C   0  0  0  0  0  0  0  0  0  0  0  0
    2.9063   21.9984  -19.4642 C   0  0  0  0  0  0  0  0  0  0  0  0
    3.1686   21.4284  -20.7145 N   0  0  0  0  0  0  0  0  0  0  0  0
    4.1888   20.4402  -20.7668 C   0  0  0  0  0  0  0  0  0  0  0  0
    3.9949   19.7635  -22.1289 C   0  0  0  0  0  0  0  0  0  0  0  0
    2.8559   20.5174  -22.7866 C   0  0  0  0  0  0  0  0  0  0  0  0
    2.1021   21.0034  -21.5382 C   0  0  0  0  0  0  0  0  0  0  0  0
   -5.6246   22.7549  -22.1464 N   0  0  0  0  0  0  0  0  0  0  0  0
   -4.3188   23.0775  -21.7583 C   0  0  0  0  0  0  0  0  0  0  0  0
   -4.1423   23.6219  -20.6482 O   0  0  0  0  0  0  0  0  0  0  0  0
   -6.2299   23.4463  -22.6460 H   0  0  0  0  0  0  0  0  0  0  0  0
   -5.9700   21.7820  -21.9115 H   0  0  0  0  0  0  0  0  0  0  0  0
   -4.1189   24.0273  -24.6199 O   0  0  0  0  0  0  0  0  0  0  0  0
   -4.8188   23.3712  -25.6409 C   0  0  0  0  0  0  0  0  0  0  0  0
   -4.9679   24.0449  -26.9024 C   0  0  0  0  0  0  0  0  0  0  0  0
   -4.1314   23.5746  -27.9492 C   0  0  0  0  0  0  0  0  0  0  0  0
   -3.2611   22.5403  -27.7023 F   0  0  0  0  0  0  0  0  0  0  0  0
   -4.1770   24.1276  -29.1856 C   0  0  0  0  0  0  0  0  0  0  0  0
   -5.0407   25.1573  -29.4388 C   0  0  0  0  0  0  0  0  0  0  0  0
   -5.1186   25.9507  -31.1800 Br  0  0  0  0  0  0  0  0  0  0  0  0
   -5.8663   25.6406  -28.4526 C   0  0  0  0  0  0  0  0  0  0  0  0
   -5.8226   25.0722  -27.1734 C   0  0  0  0  0  0  0  0  0  0  0  0
   -6.6491   25.5875  -26.2619 F   0  0  0  0  0  0  0  0  0  0  0  0
 21 22  1  0  0  0
 22 23  2  0  0  0
 22  1  1  0  0  0
  1  2  2  0  0  0
  2  6  1  0  0  0
  6  7  1  0  0  0
  7  8  2  0  0  0
  7  9  1  0  0  0
  9 12  1  0  0  0
 12 13  1  0  0  0
 13 14  1  0  0  0
 14 15  1  0  0  0
 15 16  1  0  0  0
 16 17  1  0  0  0
 17 18  1  0  0  0
 18 19  1  0  0  0
 19 20  1  0  0  0
  2  3  1  0  0  0
  3  4  1  0  0  0
  4  5  2  0  0  0
  5 26  1  0  0  0
 26 27  1  0  0  0
 27 28  1  0  0  0
 28 29  2  0  0  0
 29 30  1  0  0  0
 29 31  1  0  0  0
 31 32  2  0  0  0
 32 33  1  0  0  0
 32 34  1  0  0  0
 34 35  2  0  0  0
 35 36  1  0  0  0
  5  1  1  0  0  0
 35 28  1  0  0  0
 20 16  1  0  0  0
 21 24  1  0  0  0
 21 25  1  0  0  0
  6 10  1  0  0  0
  9 11  1  0  0  0
M  END
> <minimizedAffinity>
-6.79386

> <CNNscore>
0.1473595798

> <CNNaffinity>
6.4364786148

> <CNN_VS>
0.9484767914

> <CNNaffinity_variance>
0.0797519386

$$$$
[H]c1c(F)c(C([H])([H])Oc2nsc(N([H])C(=O)N([H])C([H])([H])C([H])([H])C([H])([H])C([H])([H])N3C([H])([H])C([H])([H])C([H])([H])C3([H])[H])c2C(=O)N([H])[H])c(F)c([H])c1Br


 36 38  0  0  0  0  0  0  0  0999 V2000
   -6.7863   24.9842  -22.0097 C   0  0  0  0  0  0  0  0  0  0  0  0
   -7.4726   24.6003  -20.8806 C   0  0  0  0  0  0  0  0  0  0  0  0
   -9.0366   25.2777  -21.1395 S   0  0  0  0  0  0  0  0  0  0  0  0
   -8.7591   25.9888  -22.6102 N   0  0  0  0  0  0  0  0  0  0  0  0
   -7.4871   25.7159  -22.9070 C   0  0  0  0  0  0  0  0  0  0  0  0
   -7.0488   23.8339  -19.7463 N   0  0  0  0  0  0  0  0  0  0  0  0
   -6.3079   24.5356  -18.6962 C   0  0  0  0  0  0  0  0  0  0  0  0
   -6.1361   25.7398  -18.9292 O   0  0  0  0  0  0  0  0  0  0  0  0
   -5.9129   23.7664  -17.6135 N   0  0  0  0  0  0  0  0  0  0  0  0
   -7.2382   22.8532  -19.6483 H   0  0  0  0  0  0  0  0  0  0  0  0
   -6.1929   22.6859  -17.6677 H   0  0  0  0  0  0  0  0  0  0  0  0
   -5.2142   24.0901  -16.4324 C   0  0  0  0  0  0  0  0  0  0  0  0
   -5.4750   23.3004  -15.2150 C   0  0  0  0  0  0  0  0  0  0  0  0
   -6.0117   23.9299  -13.9830 C   0  0  0  0  0  0  0  0  0  0  0  0
   -6.4798   25.3389  -14.1966 C   0  0  0  0  0  0  0  0  0  0  0  0
   -7.0875   25.9610  -13.1008 N   0  0  0  0  0  0  0  0  0  0  0  0
   -8.5058   25.8980  -13.0338 C   0  0  0  0  0  0  0  0  0  0  0  0
   -8.8389   26.3186  -11.5976 C   0  0  0  0  0  0  0  0  0  0  0  0
   -7.5040   26.6615  -10.9661 C   0  0  0  0  0  0  0  0  0  0  0  0
   -6.5765   25.7617  -11.7987 C   0  0  0  0  0  0  0  0  0  0  0  0
   -4.4549   25.5593  -22.6814 N   0  0  0  0  0  0  0  0  0  0  0  0
   -5.3563   24.6006  -22.2037 C   0  0  0  0  0  0  0  0  0  0  0  0
   -4.9320   23.4525  -21.9551 O   0  0  0  0  0  0  0  0  0  0  0  0
   -4.2582   25.6589  -23.7039 H   0  0  0  0  0  0  0  0  0  0  0  0
   -3.9831   26.1767  -21.9623 H   0  0  0  0  0  0  0  0  0  0  0  0
   -6.9807   26.2304  -24.1623 O   0  0  0  0  0  0  0  0  0  0  0  0
   -7.1833   25.3735  -25.2521 C   0  0  0  0  0  0  0  0  0  0  0  0
   -6.0535   24.6441  -25.7607 C   0  0  0  0  0  0  0  0  0  0  0  0
   -5.1896   25.3752  -26.6185 C   0  0  0  0  0  0  0  0  0  0  0  0
   -5.4752   26.6894  -26.9004 F   0  0  0  0  0  0  0  0  0  0  0  0
   -4.0901   24.7997  -27.1628 C   0  0  0  0  0  0  0  0  0  0  0  0
   -3.7994   23.4922  -26.8867 C   0  0  0  0  0  0  0  0  0  0  0  0
   -2.2498   22.6627  -27.6470 Br  0  0  0  0  0  0  0  0  0  0  0  0
   -4.6103   22.7511  -26.0616 C   0  0  0  0  0  0  0  0  0  0  0  0
   -5.7478   23.3417  -25.4969 C   0  0  0  0  0  0  0  0  0  0  0  0
   -6.4926   22.5680  -24.7055 F   0  0  0  0  0  0  0  0  0  0  0  0
 21 22  1  0  0  0
 22 23  2  0  0  0
 22  1  1  0  0  0
  1  2  2  0  0  0
  2  6  1  0  0  0
  6  7  1  0  0  0
  7  8  2  0  0  0
  7  9  1  0  0  0
  9 12  1  0  0  0
 12 13  1  0  0  0
 13 14  1  0  0  0
 14 15  1  0  0  0
 15 16  1  0  0  0
 16 17  1  0  0  0
 17 18  1  0  0  0
 18 19  1  0  0  0
 19 20  1  0  0  0
  2  3  1  0  0  0
  3  4  1  0  0  0
  4  5  2  0  0  0
  5 26  1  0  0  0
 26 27  1  0  0  0
 27 28  1  0  0  0
 28 29  2  0  0  0
 29 30  1  0  0  0
 29 31  1  0  0  0
 31 32  2  0  0  0
 32 33  1  0  0  0
 32 34  1  0  0  0
 34 35  2  0  0  0
 35 36  1  0  0  0
  5  1  1  0  0  0
 35 28  1  0  0  0
 20 16  1  0  0  0
 21 24  1  0  0  0
 21 25  1  0  0  0
  6 10  1  0  0  0
  9 11  1  0  0  0
M  END
> <minimizedAffinity>
-6.83395

> <CNNscore>
0.1332016289

> <CNNaffinity>
5.5238809586

> <CNN_VS>
0.7357899547

> <CNNaffinity_variance>
0.1444263458

$$$$
[H]c1c(F)c(C([H])([H])Oc2nsc(N([H])C(=O)N([H])C([H])([H])C([H])([H])C([H])([H])C([H])([H])N3C([H])([H])C([H])([H])C([H])([H])C3([H])[H])c2C(=O)N([H])[H])c(F)c([H])c1Br


 36 38  0  0  0  0  0  0  0  0999 V2000
   -3.7288   22.4964  -22.2105 C   0  0  0  0  0  0  0  0  0  0  0  0
   -4.7932   22.6595  -21.3539 C   0  0  0  0  0  0  0  0  0  0  0  0
   -6.1485   22.3300  -22.3671 S   0  0  0  0  0  0  0  0  0  0  0  0
   -5.3348   22.0128  -23.7752 N   0  0  0  0  0  0  0  0  0  0  0  0
   -4.0408   22.1552  -23.4824 C   0  0  0  0  0  0  0  0  0  0  0  0
   -4.8282   23.0126  -19.9654 N   0  0  0  0  0  0  0  0  0  0  0  0
   -4.7596   21.9228  -18.9899 C   0  0  0  0  0  0  0  0  0  0  0  0
   -4.6777   20.7994  -19.5048 O   0  0  0  0  0  0  0  0  0  0  0  0
   -4.7954   22.2977  -17.6564 N   0  0  0  0  0  0  0  0  0  0  0  0
   -4.8966   23.9611  -19.6448 H   0  0  0  0  0  0  0  0  0  0  0  0
   -4.8872   23.3959  -17.4714 H   0  0  0  0  0  0  0  0  0  0  0  0
   -4.7350   21.5470  -16.4646 C   0  0  0  0  0  0  0  0  0  0  0  0
   -5.8747   20.6797  -16.1140 C   0  0  0  0  0  0  0  0  0  0  0  0
   -6.9701   21.1572  -15.2340 C   0  0  0  0  0  0  0  0  0  0  0  0
   -7.8608   22.1664  -15.8960 C   0  0  0  0  0  0  0  0  0  0  0  0
   -8.5609   21.7266  -17.0245 N   0  0  0  0  0  0  0  0  0  0  0  0
   -9.9440   21.4482  -16.8521 C   0  0  0  0  0  0  0  0  0  0  0  0
  -10.4952   21.3553  -18.2797 C   0  0  0  0  0  0  0  0  0  0  0  0
   -9.2905   21.5380  -19.1816 C   0  0  0  0  0  0  0  0  0  0  0  0
   -8.3963   22.3864  -18.2631 C   0  0  0  0  0  0  0  0  0  0  0  0
   -1.3937   21.6664  -21.9351 N   0  0  0  0  0  0  0  0  0  0  0  0
   -2.3268   22.6907  -21.7348 C   0  0  0  0  0  0  0  0  0  0  0  0
   -1.9532   23.7362  -21.1627 O   0  0  0  0  0  0  0  0  0  0  0  0
   -1.2245   20.9349  -21.2069 H   0  0  0  0  0  0  0  0  0  0  0  0
   -0.8689   21.6666  -22.8547 H   0  0  0  0  0  0  0  0  0  0  0  0
   -3.0959   21.9301  -24.5564 O   0  0  0  0  0  0  0  0  0  0  0  0
   -2.5811   23.1060  -25.1177 C   0  0  0  0  0  0  0  0  0  0  0  0
   -3.1495   23.5734  -26.3529 C   0  0  0  0  0  0  0  0  0  0  0  0
   -3.9744   24.7247  -26.2493 C   0  0  0  0  0  0  0  0  0  0  0  0
   -4.1722   25.3025  -25.0184 F   0  0  0  0  0  0  0  0  0  0  0  0
   -4.5687   25.2624  -27.3421 C   0  0  0  0  0  0  0  0  0  0  0  0
   -4.3763   24.6928  -28.5705 C   0  0  0  0  0  0  0  0  0  0  0  0
   -5.2083   25.4392  -30.1255 Br  0  0  0  0  0  0  0  0  0  0  0  0
   -3.5855   23.5783  -28.7123 C   0  0  0  0  0  0  0  0  0  0  0  0
   -2.9693   23.0192  -27.5856 C   0  0  0  0  0  0  0  0  0  0  0  0
   -2.2151   21.9383  -27.7915 F   0  0  0  0  0  0  0  0  0  0  0  0
 21 22  1  0  0  0
 22 23  2  0  0  0
 22  1  1  0  0  0
  1  2  2  0  0  0
  2  6  1  0  0  0
  6  7  1  0  0  0
  7  8  2  0  0  0
  7  9  1  0  0  0
  9 12  1  0  0  0
 12 13  1  0  0  0
 13 14  1  0  0  0
 14 15  1  0  0  0
 15 16  1  0  0  0
 16 17  1  0  0  0
 17 18  1  0  0  0
 18 19  1  0  0  0
 19 20  1  0  0  0
  2  3  1  0  0  0
  3  4  1  0  0  0
  4  5  2  0  0  0
  5 26  1  0  0  0
 26 27  1  0  0  0
 27 28  1  0  0  0
 28 29  2  0  0  0
 29 30  1  0  0  0
 29 31  1  0  0  0
 31 32  2  0  0  0
 32 33  1  0  0  0
 32 34  1  0  0  0
 34 35  2  0  0  0
 35 36  1  0  0  0
  5  1  1  0  0  0
 35 28  1  0  0  0
 20 16  1  0  0  0
 21 24  1  0  0  0
 21 25  1  0  0  0
  6 10  1  0  0  0
  9 11  1  0  0  0
M  END
> <minimizedAffinity>
-6.05782

> <CNNscore>
0.1274170280

> <CNNaffinity>
6.0021018982

> <CNN_VS>
0.7647699714

> <CNNaffinity_variance>
0.1294272542

$$$$
[H]c1c(F)c(C([H])([H])Oc2nsc(N([H])C(=O)N([H])C([H])([H])C([H])([H])C([H])([H])C([H])([H])N3C([H])([H])C([H])([H])C([H])([H])C3([H])[H])c2C(=O)N([H])[H])c(F)c([H])c1Br


 36 38  0  0  0  0  0  0  0  0999 V2000
   -2.5297   21.8715  -24.6538 C   0  0  0  0  0  0  0  0  0  0  0  0
   -1.2695   21.7420  -24.1168 C   0  0  0  0  0  0  0  0  0  0  0  0
   -0.2547   22.3028  -25.3926 S   0  0  0  0  0  0  0  0  0  0  0  0
   -1.4293   22.6618  -26.5048 N   0  0  0  0  0  0  0  0  0  0  0  0
   -2.5873   22.3590  -25.9150 C   0  0  0  0  0  0  0  0  0  0  0  0
   -0.8467   21.2681  -22.8321 N   0  0  0  0  0  0  0  0  0  0  0  0
   -0.8086   22.2364  -21.7345 C   0  0  0  0  0  0  0  0  0  0  0  0
   -1.1573   23.3776  -22.0663 O   0  0  0  0  0  0  0  0  0  0  0  0
   -0.3959   21.7465  -20.5058 N   0  0  0  0  0  0  0  0  0  0  0  0
   -0.5813   20.3153  -22.6618 H   0  0  0  0  0  0  0  0  0  0  0  0
   -0.1226   20.6630  -20.4911 H   0  0  0  0  0  0  0  0  0  0  0  0
   -0.2533   22.3621  -19.2455 C   0  0  0  0  0  0  0  0  0  0  0  0
   -1.4644   22.6499  -18.4555 C   0  0  0  0  0  0  0  0  0  0  0  0
   -1.7953   21.8749  -17.2340 C   0  0  0  0  0  0  0  0  0  0  0  0
   -3.2635   21.6044  -17.0870 C   0  0  0  0  0  0  0  0  0  0  0  0
   -3.8452   21.9932  -15.8756 N   0  0  0  0  0  0  0  0  0  0  0  0
   -3.0837   21.7661  -14.6973 C   0  0  0  0  0  0  0  0  0  0  0  0
   -3.7882   22.6006  -13.6212 C   0  0  0  0  0  0  0  0  0  0  0  0
   -4.9904   23.2087  -14.3161 C   0  0  0  0  0  0  0  0  0  0  0  0
   -4.4671   23.2568  -15.7606 C   0  0  0  0  0  0  0  0  0  0  0  0
   -4.0671   22.2267  -22.7231 N   0  0  0  0  0  0  0  0  0  0  0  0
   -3.7399   21.4891  -23.8672 C   0  0  0  0  0  0  0  0  0  0  0  0
   -4.4744   20.5326  -24.1921 O   0  0  0  0  0  0  0  0  0  0  0  0
   -3.7262   21.9413  -21.7763 H   0  0  0  0  0  0  0  0  0  0  0  0
   -4.6734   23.0837  -22.8601 H   0  0  0  0  0  0  0  0  0  0  0  0
   -3.7940   22.5823  -26.6838 O   0  0  0  0  0  0  0  0  0  0  0  0
   -4.2169   23.9178  -26.7046 C   0  0  0  0  0  0  0  0  0  0  0  0
   -5.2006   24.3330  -25.7416 C   0  0  0  0  0  0  0  0  0  0  0  0
   -6.5449   24.0048  -26.0605 C   0  0  0  0  0  0  0  0  0  0  0  0
   -6.8150   23.3335  -27.2287 F   0  0  0  0  0  0  0  0  0  0  0  0
   -7.5643   24.3417  -25.2336 C   0  0  0  0  0  0  0  0  0  0  0  0
   -7.3032   25.0098  -24.0692 C   0  0  0  0  0  0  0  0  0  0  0  0
   -8.7313   25.4938  -22.8887 Br  0  0  0  0  0  0  0  0  0  0  0  0
   -6.0161   25.3454  -23.7250 C   0  0  0  0  0  0  0  0  0  0  0  0
   -4.9595   24.9992  -24.5766 C   0  0  0  0  0  0  0  0  0  0  0  0
   -3.7348   25.3543  -24.1844 F   0  0  0  0  0  0  0  0  0  0  0  0
 21 22  1  0  0  0
 22 23  2  0  0  0
 22  1  1  0  0  0
  1  2  2  0  0  0
  2  6  1  0  0  0
  6  7  1  0  0  0
  7  8  2  0  0  0
  7  9  1  0  0  0
  9 12  1  0  0  0
 12 13  1  0  0  0
 13 14  1  0  0  0
 14 15  1  0  0  0
 15 16  1  0  0  0
 16 17  1  0  0  0
 17 18  1  0  0  0
 18 19  1  0  0  0
 19 20  1  0  0  0
  2  3  1  0  0  0
  3  4  1  0  0  0
  4  5  2  0  0  0
  5 26  1  0  0  0
 26 27  1  0  0  0
 27 28  1  0  0  0
 28 29  2  0  0  0
 29 30  1  0  0  0
 29 31  1  0  0  0
 31 32  2  0  0  0
 32 33  1  0  0  0
 32 34  1  0  0  0
 34 35  2  0  0  0
 35 36  1  0  0  0
  5  1  1  0  0  0
 35 28  1  0  0  0
 20 16  1  0  0  0
 21 24  1  0  0  0
 21 25  1  0  0  0
  6 10  1  0  0  0
  9 11  1  0  0  0
M  END
> <minimizedAffinity>
-6.51311

> <CNNscore>
0.1268940121

> <CNNaffinity>
5.7722997665

> <CNN_VS>
0.7324702740

> <CNNaffinity_variance>
0.2446210831

$$$$
[H]c1c(F)c(C([H])([H])Oc2nsc(N([H])C(=O)N([H])C([H])([H])C([H])([H])C([H])([H])C([H])([H])N3C([H])([H])C([H])([H])C([H])([H])C3([H])[H])c2C(=O)N([H])[H])c(F)c([H])c1Br


 36 38  0  0  0  0  0  0  0  0999 V2000
   -5.3952   23.9419  -21.6052 C   0  0  0  0  0  0  0  0  0  0  0  0
   -5.2189   22.8277  -20.8172 C   0  0  0  0  0  0  0  0  0  0  0  0
   -4.3605   21.7576  -21.8612 S   0  0  0  0  0  0  0  0  0  0  0  0
   -4.2680   22.7342  -23.1966 N   0  0  0  0  0  0  0  0  0  0  0  0
   -4.8844   23.8676  -22.8563 C   0  0  0  0  0  0  0  0  0  0  0  0
   -5.6235   22.5657  -19.4677 N   0  0  0  0  0  0  0  0  0  0  0  0
   -4.6065   22.6911  -18.4217 C   0  0  0  0  0  0  0  0  0  0  0  0
   -3.4912   23.0177  -18.8497 O   0  0  0  0  0  0  0  0  0  0  0  0
   -5.0299   22.4313  -17.1282 N   0  0  0  0  0  0  0  0  0  0  0  0
   -6.5602   22.3046  -19.2193 H   0  0  0  0  0  0  0  0  0  0  0  0
   -6.1038   22.1395  -17.0267 H   0  0  0  0  0  0  0  0  0  0  0  0
   -4.3551   22.4668  -15.8908 C   0  0  0  0  0  0  0  0  0  0  0  0
   -4.8138   23.4156  -14.8596 C   0  0  0  0  0  0  0  0  0  0  0  0
   -5.9672   23.1051  -13.9789 C   0  0  0  0  0  0  0  0  0  0  0  0
   -7.2931   23.3693  -14.6287 C   0  0  0  0  0  0  0  0  0  0  0  0
   -8.1568   24.2300  -13.9429 N   0  0  0  0  0  0  0  0  0  0  0  0
   -8.9897   23.6449  -12.9509 C   0  0  0  0  0  0  0  0  0  0  0  0
   -9.5243   24.8379  -12.1497 C   0  0  0  0  0  0  0  0  0  0  0  0
   -8.9615   26.0635  -12.8421 C   0  0  0  0  0  0  0  0  0  0  0  0
   -7.6811   25.4641  -13.4457 C   0  0  0  0  0  0  0  0  0  0  0  0
   -6.9962   25.8266  -21.9245 N   0  0  0  0  0  0  0  0  0  0  0  0
   -6.1104   25.1438  -21.0823 C   0  0  0  0  0  0  0  0  0  0  0  0
   -5.9480   25.5651  -19.9178 O   0  0  0  0  0  0  0  0  0  0  0  0
   -6.6788   26.6358  -22.5062 H   0  0  0  0  0  0  0  0  0  0  0  0
   -7.9988   25.4872  -21.9451 H   0  0  0  0  0  0  0  0  0  0  0  0
   -4.9462   24.9087  -23.8609 O   0  0  0  0  0  0  0  0  0  0  0  0
   -3.9742   24.7914  -24.8631 C   0  0  0  0  0  0  0  0  0  0  0  0
   -4.4055   24.8289  -26.2342 C   0  0  0  0  0  0  0  0  0  0  0  0
   -4.2568   23.6146  -26.9553 C   0  0  0  0  0  0  0  0  0  0  0  0
   -3.7287   22.5157  -26.3215 F   0  0  0  0  0  0  0  0  0  0  0  0
   -4.6263   23.5213  -28.2557 C   0  0  0  0  0  0  0  0  0  0  0  0
   -5.1527   24.6108  -28.8931 C   0  0  0  0  0  0  0  0  0  0  0  0
   -5.6804   24.4972  -30.7305 Br  0  0  0  0  0  0  0  0  0  0  0  0
   -5.3127   25.8036  -28.2301 C   0  0  0  0  0  0  0  0  0  0  0  0
   -4.9321   25.9045  -26.8860 C   0  0  0  0  0  0  0  0  0  0  0  0
   -5.1132   27.0896  -26.3010 F   0  0  0  0  0  0  0  0  0  0  0  0
 21 22  1  0  0  0
 22 23  2  0  0  0
 22  1  1  0  0  0
  1  2  2  0  0  0
  2  6  1  0  0  0
  6  7  1  0  0  0
  7  8  2  0  0  0
  7  9  1  0  0  0
  9 12  1  0  0  0
 12 13  1  0  0  0
 13 14  1  0  0  0
 14 15  1  0  0  0
 15 16  1  0  0  0
 16 17  1  0  0  0
 17 18  1  0  0  0
 18 19  1  0  0  0
 19 20  1  0  0  0
  2  3  1  0  0  0
  3  4  1  0  0  0
  4  5  2  0  0  0
  5 26  1  0  0  0
 26 27  1  0  0  0
 27 28  1  0  0  0
 28 29  2  0  0  0
 29 30  1  0  0  0
 29 31  1  0  0  0
 31 32  2  0  0  0
 32 33  1  0  0  0
 32 34  1  0  0  0
 34 35  2  0  0  0
 35 36  1  0  0  0
  5  1  1  0  0  0
 35 28  1  0  0  0
 20 16  1  0  0  0
 21 24  1  0  0  0
 21 25  1  0  0  0
  6 10  1  0  0  0
  9 11  1  0  0  0
M  END
> <minimizedAffinity>
-6.62280

> <CNNscore>
0.1219466850

> <CNNaffinity>
5.6996908188

> <CNN_VS>
0.6950584054

> <CNNaffinity_variance>
0.2346672565

$$$$
[H]c1c(F)c(C([H])([H])Oc2nsc(N([H])C(=O)N([H])C([H])([H])C([H])([H])C([H])([H])C([H])([H])N3C([H])([H])C([H])([H])C([H])([H])C3([H])[H])c2C(=O)N([H])[H])c(F)c([H])c1Br


 36 38  0  0  0  0  0  0  0  0999 V2000
   -5.3911   24.0937  -21.4610 C   0  0  0  0  0  0  0  0  0  0  0  0
   -5.2391   22.9051  -20.7846 C   0  0  0  0  0  0  0  0  0  0  0  0
   -4.2743   21.9737  -21.8679 S   0  0  0  0  0  0  0  0  0  0  0  0
   -4.1142   23.0906  -23.0812 N   0  0  0  0  0  0  0  0  0  0  0  0
   -4.7882   24.1665  -22.6705 C   0  0  0  0  0  0  0  0  0  0  0  0
   -5.7331   22.4897  -19.5051 N   0  0  0  0  0  0  0  0  0  0  0  0
   -6.8136   21.5017  -19.4870 C   0  0  0  0  0  0  0  0  0  0  0  0
   -7.1746   21.1395  -20.6150 O   0  0  0  0  0  0  0  0  0  0  0  0
   -7.2683   21.1212  -18.2347 N   0  0  0  0  0  0  0  0  0  0  0  0
   -5.3719   22.8449  -18.6387 H   0  0  0  0  0  0  0  0  0  0  0  0
   -6.7669   21.6236  -17.3716 H   0  0  0  0  0  0  0  0  0  0  0  0
   -8.2592   20.2032  -17.8307 C   0  0  0  0  0  0  0  0  0  0  0  0
   -7.9987   18.7611  -17.9931 C   0  0  0  0  0  0  0  0  0  0  0  0
   -6.6691   18.2566  -18.4171 C   0  0  0  0  0  0  0  0  0  0  0  0
   -6.2808   16.9759  -17.7394 C   0  0  0  0  0  0  0  0  0  0  0  0
   -5.7052   15.9954  -18.5545 N   0  0  0  0  0  0  0  0  0  0  0  0
   -6.5050   15.4962  -19.6181 C   0  0  0  0  0  0  0  0  0  0  0  0
   -5.5163   14.7477  -20.5198 C   0  0  0  0  0  0  0  0  0  0  0  0
   -4.1809   14.8447  -19.8088 C   0  0  0  0  0  0  0  0  0  0  0  0
   -4.3861   16.1566  -19.0344 C   0  0  0  0  0  0  0  0  0  0  0  0
   -7.0174   25.9685  -21.7003 N   0  0  0  0  0  0  0  0  0  0  0  0
   -6.1790   25.2157  -20.8695 C   0  0  0  0  0  0  0  0  0  0  0  0
   -6.1184   25.5094  -19.6571 O   0  0  0  0  0  0  0  0  0  0  0  0
   -6.6803   26.8433  -22.1642 H   0  0  0  0  0  0  0  0  0  0  0  0
   -8.0052   25.6127  -21.8367 H   0  0  0  0  0  0  0  0  0  0  0  0
   -4.8080   25.3084  -23.5607 O   0  0  0  0  0  0  0  0  0  0  0  0
   -3.8501   25.2513  -24.5815 C   0  0  0  0  0  0  0  0  0  0  0  0
   -4.3115   25.1776  -25.9414 C   0  0  0  0  0  0  0  0  0  0  0  0
   -3.9318   24.0090  -26.6533 C   0  0  0  0  0  0  0  0  0  0  0  0
   -3.1736   23.0526  -26.0218 F   0  0  0  0  0  0  0  0  0  0  0  0
   -4.3040   23.8212  -27.9427 C   0  0  0  0  0  0  0  0  0  0  0  0
   -5.0588   24.7686  -28.5777 C   0  0  0  0  0  0  0  0  0  0  0  0
   -5.5939   24.5198  -30.3995 Br  0  0  0  0  0  0  0  0  0  0  0  0
   -5.4463   25.9129  -27.9233 C   0  0  0  0  0  0  0  0  0  0  0  0
   -5.0638   26.1112  -26.5907 C   0  0  0  0  0  0  0  0  0  0  0  0
   -5.4723   27.2424  -26.0137 F   0  0  0  0  0  0  0  0  0  0  0  0
 21 22  1  0  0  0
 22 23  2  0  0  0
 22  1  1  0  0  0
  1  2  2  0  0  0
  2  6  1  0  0  0
  6  7  1  0  0  0
  7  8  2  0  0  0
  7  9  1  0  0  0
  9 12  1  0  0  0
 12 13  1  0  0  0
 13 14  1  0  0  0
 14 15  1  0  0  0
 15 16  1  0  0  0
 16 17  1  0  0  0
 17 18  1  0  0  0
 18 19  1  0  0  0
 19 20  1  0  0  0
  2  3  1  0  0  0
  3  4  1  0  0  0
  4  5  2  0  0  0
  5 26  1  0  0  0
 26 27  1  0  0  0
 27 28  1  0  0  0
 28 29  2  0  0  0
 29 30  1  0  0  0
 29 31  1  0  0  0
 31 32  2  0  0  0
 32 33  1  0  0  0
 32 34  1  0  0  0
 34 35  2  0  0  0
 35 36  1  0  0  0
  5  1  1  0  0  0
 35 28  1  0  0  0
 20 16  1  0  0  0
 21 24  1  0  0  0
 21 25  1  0  0  0
  6 10  1  0  0  0
  9 11  1  0  0  0
M  END
> <minimizedAffinity>
-6.53673

> <CNNscore>
0.1129110232

> <CNNaffinity>
5.7278089523

> <CNN_VS>
0.6467327476

> <CNNaffinity_variance>
0.1200132221

$$$$
[H]c1c(F)c(C([H])([H])Oc2nsc(N([H])C(=O)N([H])C([H])([H])C([H])([H])C([H])([H])C([H])([H])N3C([H])([H])C([H])([H])C([H])([H])C3([H])[H])c2C(=O)N([H])[H])c(F)c([H])c1Br


 36 38  0  0  0  0  0  0  0  0999 V2000
   -4.5274   23.7055  -22.3390 C   0  0  0  0  0  0  0  0  0  0  0  0
   -5.0199   23.2183  -21.1502 C   0  0  0  0  0  0  0  0  0  0  0  0
   -4.0371   21.8291  -20.8742 S   0  0  0  0  0  0  0  0  0  0  0  0
   -3.0840   21.9264  -22.2261 N   0  0  0  0  0  0  0  0  0  0  0  0
   -3.5062   23.0062  -22.8865 C   0  0  0  0  0  0  0  0  0  0  0  0
   -6.0774   23.6992  -20.3111 N   0  0  0  0  0  0  0  0  0  0  0  0
   -7.4015   23.0980  -20.4823 C   0  0  0  0  0  0  0  0  0  0  0  0
   -7.4404   22.2231  -21.3581 O   0  0  0  0  0  0  0  0  0  0  0  0
   -8.4015   23.5848  -19.6559 N   0  0  0  0  0  0  0  0  0  0  0  0
   -5.9451   24.4189  -19.6242 H   0  0  0  0  0  0  0  0  0  0  0  0
   -8.0887   24.3972  -18.9552 H   0  0  0  0  0  0  0  0  0  0  0  0
   -9.7635   23.2453  -19.5240 C   0  0  0  0  0  0  0  0  0  0  0  0
  -10.1170   21.9711  -18.8719 C   0  0  0  0  0  0  0  0  0  0  0  0
   -9.1946   21.3065  -17.9181 C   0  0  0  0  0  0  0  0  0  0  0  0
   -9.4057   21.7370  -16.4967 C   0  0  0  0  0  0  0  0  0  0  0  0
   -8.4066   22.5427  -15.9402 N   0  0  0  0  0  0  0  0  0  0  0  0
   -8.2927   22.5351  -14.5235 C   0  0  0  0  0  0  0  0  0  0  0  0
   -6.9328   23.1871  -14.2467 C   0  0  0  0  0  0  0  0  0  0  0  0
   -6.3995   23.5835  -15.6093 C   0  0  0  0  0  0  0  0  0  0  0  0
   -7.1033   22.5353  -16.4861 C   0  0  0  0  0  0  0  0  0  0  0  0
   -4.2411   25.8892  -23.5082 N   0  0  0  0  0  0  0  0  0  0  0  0
   -5.1057   24.9336  -22.9612 C   0  0  0  0  0  0  0  0  0  0  0  0
   -6.3361   25.1416  -23.0126 O   0  0  0  0  0  0  0  0  0  0  0  0
   -3.8964   26.6981  -22.9416 H   0  0  0  0  0  0  0  0  0  0  0  0
   -3.9535   25.7559  -24.5183 H   0  0  0  0  0  0  0  0  0  0  0  0
   -2.8288   23.3243  -24.1262 O   0  0  0  0  0  0  0  0  0  0  0  0
   -3.0374   22.3864  -25.1459 C   0  0  0  0  0  0  0  0  0  0  0  0
   -3.5250   22.8594  -26.4132 C   0  0  0  0  0  0  0  0  0  0  0  0
   -4.9269   23.0728  -26.4878 C   0  0  0  0  0  0  0  0  0  0  0  0
   -5.7054   22.8238  -25.3832 F   0  0  0  0  0  0  0  0  0  0  0  0
   -5.5091   23.5173  -27.6279 C   0  0  0  0  0  0  0  0  0  0  0  0
   -4.7406   23.7674  -28.7313 C   0  0  0  0  0  0  0  0  0  0  0  0
   -5.5462   24.3960  -30.3509 Br  0  0  0  0  0  0  0  0  0  0  0  0
   -3.3808   23.5732  -28.6993 C   0  0  0  0  0  0  0  0  0  0  0  0
   -2.7750   23.1139  -27.5231 C   0  0  0  0  0  0  0  0  0  0  0  0
   -1.4520   22.9461  -27.5585 F   0  0  0  0  0  0  0  0  0  0  0  0
 21 22  1  0  0  0
 22 23  2  0  0  0
 22  1  1  0  0  0
  1  2  2  0  0  0
  2  6  1  0  0  0
  6  7  1  0  0  0
  7  8  2  0  0  0
  7  9  1  0  0  0
  9 12  1  0  0  0
 12 13  1  0  0  0
 13 14  1  0  0  0
 14 15  1  0  0  0
 15 16  1  0  0  0
 16 17  1  0  0  0
 17 18  1  0  0  0
 18 19  1  0  0  0
 19 20  1  0  0  0
  2  3  1  0  0  0
  3  4  1  0  0  0
  4  5  2  0  0  0
  5 26  1  0  0  0
 26 27  1  0  0  0
 27 28  1  0  0  0
 28 29  2  0  0  0
 29 30  1  0  0  0
 29 31  1  0  0  0
 31 32  2  0  0  0
 32 33  1  0  0  0
 32 34  1  0  0  0
 34 35  2  0  0  0
 35 36  1  0  0  0
  5  1  1  0  0  0
 35 28  1  0  0  0
 20 16  1  0  0  0
 21 24  1  0  0  0
 21 25  1  0  0  0
  6 10  1  0  0  0
  9 11  1  0  0  0
M  END
> <minimizedAffinity>
-6.45124

> <CNNscore>
0.0998917446

> <CNNaffinity>
5.8037519455

> <CNN_VS>
0.5797469020

> <CNNaffinity_variance>
0.2094080448

$$$$
[H]c1nc(N([H])C(=O)C([H])([H])N2C([H])([H])C([H])([H])N(c3c(Cl)c([H])nc4c3nc(-c3c([H])c([H])c(N5C([H])([H])C([H])([H])N(C([H])([H])[H])C([H])([H])C5([H])[H])c([H])c3[H])n4[H])C([H])([H])C2([H])[H])sc1[H]


 40 45  0  0  0  0  0  0  0  0999 V2000
    0.5230   21.7576  -24.4988 C   0  0  0  0  0  0  0  0  0  0  0  0
   -0.7542   22.1165  -24.6593 N   0  0  0  0  0  0  0  0  0  0  0  0
   -1.0241   22.4782  -25.9026 C   0  0  0  0  0  0  0  0  0  0  0  0
   -2.2154   22.9323  -26.4876 C   0  0  0  0  0  0  0  0  0  0  0  0
   -2.1120   23.2393  -27.8342 C   0  0  0  0  0  0  0  0  0  0  0  0
   -3.4254   23.7510  -28.8537 Cl  0  0  0  0  0  0  0  0  0  0  0  0
   -0.8922   23.0920  -28.5108 C   0  0  0  0  0  0  0  0  0  0  0  0
    0.1957   22.6568  -27.8940 N   0  0  0  0  0  0  0  0  0  0  0  0
    0.1414   22.3516  -26.6087 C   0  0  0  0  0  0  0  0  0  0  0  0
    1.0742   21.9040  -25.7094 N   0  0  0  0  0  0  0  0  0  0  0  0
    2.0605   21.7221  -25.9933 H   0  0  0  0  0  0  0  0  0  0  0  0
    2.6354   20.5048  -20.9968 C   0  0  0  0  0  0  0  0  0  0  0  0
    3.2845   20.6851  -22.2141 C   0  0  0  0  0  0  0  0  0  0  0  0
    2.5692   21.0811  -23.3226 C   0  0  0  0  0  0  0  0  0  0  0  0
    1.2088   21.3131  -23.2855 C   0  0  0  0  0  0  0  0  0  0  0  0
    0.5764   21.1310  -22.0790 C   0  0  0  0  0  0  0  0  0  0  0  0
    1.2823   20.7301  -20.9421 C   0  0  0  0  0  0  0  0  0  0  0  0
    6.2156   20.0415  -17.2959 C   0  0  0  0  0  0  0  0  0  0  0  0
    4.8501   19.5881  -17.4531 N   0  0  0  0  0  0  0  0  0  0  0  0
    4.8166   18.6888  -18.5800 C   0  0  0  0  0  0  0  0  0  0  0  0
    4.6083   19.3888  -19.8920 C   0  0  0  0  0  0  0  0  0  0  0  0
    3.3506   20.1024  -19.8374 N   0  0  0  0  0  0  0  0  0  0  0  0
    2.8177   20.4313  -18.5381 C   0  0  0  0  0  0  0  0  0  0  0  0
    3.9686   20.7028  -17.5846 C   0  0  0  0  0  0  0  0  0  0  0  0
   -3.4155   22.9933  -25.8129 N   0  0  0  0  0  0  0  0  0  0  0  0
   -4.1003   21.8791  -25.2052 C   0  0  0  0  0  0  0  0  0  0  0  0
   -4.2244   22.0924  -23.7083 C   0  0  0  0  0  0  0  0  0  0  0  0
   -3.8026   23.3477  -23.2675 N   0  0  0  0  0  0  0  0  0  0  0  0
   -3.8708   24.5011  -24.0439 C   0  0  0  0  0  0  0  0  0  0  0  0
   -4.1679   24.2222  -25.4829 C   0  0  0  0  0  0  0  0  0  0  0  0
   -3.5951   23.4930  -21.8545 C   0  0  0  0  0  0  0  0  0  0  0  0
   -4.3236   22.5520  -21.0249 C   0  0  0  0  0  0  0  0  0  0  0  0
   -3.7705   21.4882  -20.6422 O   0  0  0  0  0  0  0  0  0  0  0  0
   -5.6459   22.7731  -20.6190 N   0  0  0  0  0  0  0  0  0  0  0  0
   -6.1663   22.0718  -20.0093 H   0  0  0  0  0  0  0  0  0  0  0  0
   -6.4183   23.9251  -20.9729 C   0  0  0  0  0  0  0  0  0  0  0  0
   -7.1099   24.1267  -22.0845 N   0  0  0  0  0  0  0  0  0  0  0  0
   -7.7573   25.2191  -22.2661 C   0  0  0  0  0  0  0  0  0  0  0  0
   -7.7074   26.1698  -21.2685 C   0  0  0  0  0  0  0  0  0  0  0  0
   -6.7084   25.3958  -20.1208 S   0  0  0  0  0  0  0  0  0  0  0  0
 18 19  1  0  0  0
 19 20  1  0  0  0
 20 21  1  0  0  0
 21 22  1  0  0  0
 22 23  1  0  0  0
 23 24  1  0  0  0
 22 12  1  0  0  0
 12 13  2  0  0  0
 13 14  1  0  0  0
 14 15  2  0  0  0
 15 16  1  0  0  0
 16 17  2  0  0  0
 15  1  1  0  0  0
  1  2  2  0  0  0
  2  3  1  0  0  0
  3  4  2  0  0  0
  4 25  1  0  0  0
 25 26  1  0  0  0
 26 27  1  0  0  0
 27 28  1  0  0  0
 28 31  1  0  0  0
 31 32  1  0  0  0
 32 33  2  0  0  0
 32 34  1  0  0  0
 34 36  1  0  0  0
 36 37  2  0  0  0
 37 38  1  0  0  0
 38 39  2  0  0  0
 39 40  1  0  0  0
 28 29  1  0  0  0
 29 30  1  0  0  0
  4  5  1  0  0  0
  5  6  1  0  0  0
  5  7  2  0  0  0
  7  8  1  0  0  0
  8  9  2  0  0  0
  9 10  1  0  0  0
 24 19  1  0  0  0
 17 12  1  0  0  0
 10  1  1  0  0  0
  9  3  1  0  0  0
 30 25  1  0  0  0
 40 36  1  0  0  0
 34 35  1  0  0  0
 10 11  1  0  0  0
M  END
> <minimizedAffinity>
-8.38806

> <CNNscore>
0.8232839704

> <CNNaffinity>
7.6929779053

> <CNN_VS>
6.3335056305

> <CNNaffinity_variance>
0.0758329928

$$$$
[H]c1nc(N([H])C(=O)C([H])([H])N2C([H])([H])C([H])([H])N(c3c(Cl)c([H])nc4c3nc(-c3c([H])c([H])c(N5C([H])([H])C([H])([H])N(C([H])([H])[H])C([H])([H])C5([H])[H])c([H])c3[H])n4[H])C([H])([H])C2([H])[H])sc1[H]


 40 45  0  0  0  0  0  0  0  0999 V2000
   -0.2056   21.7790  -24.1560 C   0  0  0  0  0  0  0  0  0  0  0  0
   -1.3199   22.2989  -24.6794 N   0  0  0  0  0  0  0  0  0  0  0  0
   -1.1776   22.6157  -25.9557 C   0  0  0  0  0  0  0  0  0  0  0  0
   -2.0786   23.1913  -26.8637 C   0  0  0  0  0  0  0  0  0  0  0  0
   -1.5615   23.3966  -28.1321 C   0  0  0  0  0  0  0  0  0  0  0  0
   -2.4494   24.0187  -29.4926 Cl  0  0  0  0  0  0  0  0  0  0  0  0
   -0.2382   23.0415  -28.4321 C   0  0  0  0  0  0  0  0  0  0  0  0
    0.5587   22.5008  -27.5233 N   0  0  0  0  0  0  0  0  0  0  0  0
    0.1055   22.2868  -26.2998 C   0  0  0  0  0  0  0  0  0  0  0  0
    0.6749   21.7727  -25.1638 N   0  0  0  0  0  0  0  0  0  0  0  0
    1.6626   21.4399  -25.1527 H   0  0  0  0  0  0  0  0  0  0  0  0
    0.6399   20.4795  -20.1696 C   0  0  0  0  0  0  0  0  0  0  0  0
    1.6413   20.5851  -21.1296 C   0  0  0  0  0  0  0  0  0  0  0  0
    1.3293   20.9989  -22.4058 C   0  0  0  0  0  0  0  0  0  0  0  0
    0.0429   21.3214  -22.7890 C   0  0  0  0  0  0  0  0  0  0  0  0
   -0.9395   21.2127  -21.8341 C   0  0  0  0  0  0  0  0  0  0  0  0
   -0.6455   20.7953  -20.5338 C   0  0  0  0  0  0  0  0  0  0  0  0
    0.3635   19.5306  -15.0949 C   0  0  0  0  0  0  0  0  0  0  0  0
    1.2454   19.1090  -16.1623 N   0  0  0  0  0  0  0  0  0  0  0  0
    1.9086   20.2847  -16.6697 C   0  0  0  0  0  0  0  0  0  0  0  0
    1.1334   20.9843  -17.7489 C   0  0  0  0  0  0  0  0  0  0  0  0
    0.9357   20.0605  -18.8450 N   0  0  0  0  0  0  0  0  0  0  0  0
    1.0274   18.6491  -18.5623 C   0  0  0  0  0  0  0  0  0  0  0  0
    0.5146   18.3909  -17.1560 C   0  0  0  0  0  0  0  0  0  0  0  0
   -3.3956   23.4582  -26.5582 N   0  0  0  0  0  0  0  0  0  0  0  0
   -4.4659   22.4925  -26.5190 C   0  0  0  0  0  0  0  0  0  0  0  0
   -5.0479   22.4102  -25.1203 C   0  0  0  0  0  0  0  0  0  0  0  0
   -4.5480   23.3623  -24.2306 N   0  0  0  0  0  0  0  0  0  0  0  0
   -4.1008   24.6220  -24.6194 C   0  0  0  0  0  0  0  0  0  0  0  0
   -3.9382   24.7548  -26.1003 C   0  0  0  0  0  0  0  0  0  0  0  0
   -4.8120   23.1370  -22.8377 C   0  0  0  0  0  0  0  0  0  0  0  0
   -4.4140   24.2155  -21.9528 C   0  0  0  0  0  0  0  0  0  0  0  0
   -3.2112   24.3320  -21.6010 O   0  0  0  0  0  0  0  0  0  0  0  0
   -5.3247   25.1569  -21.4567 N   0  0  0  0  0  0  0  0  0  0  0  0
   -5.0156   25.9432  -20.8080 H   0  0  0  0  0  0  0  0  0  0  0  0
   -6.7251   25.1613  -21.7531 C   0  0  0  0  0  0  0  0  0  0  0  0
   -7.3553   25.8690  -22.6787 N   0  0  0  0  0  0  0  0  0  0  0  0
   -8.6254   25.7709  -22.8288 C   0  0  0  0  0  0  0  0  0  0  0  0
   -9.3067   24.9077  -21.9968 C   0  0  0  0  0  0  0  0  0  0  0  0
   -8.0328   24.2909  -21.0421 S   0  0  0  0  0  0  0  0  0  0  0  0
 18 19  1  0  0  0
 19 20  1  0  0  0
 20 21  1  0  0  0
 21 22  1  0  0  0
 22 23  1  0  0  0
 23 24  1  0  0  0
 22 12  1  0  0  0
 12 13  2  0  0  0
 13 14  1  0  0  0
 14 15  2  0  0  0
 15 16  1  0  0  0
 16 17  2  0  0  0
 15  1  1  0  0  0
  1  2  2  0  0  0
  2  3  1  0  0  0
  3  4  2  0  0  0
  4 25  1  0  0  0
 25 26  1  0  0  0
 26 27  1  0  0  0
 27 28  1  0  0  0
 28 31  1  0  0  0
 31 32  1  0  0  0
 32 33  2  0  0  0
 32 34  1  0  0  0
 34 36  1  0  0  0
 36 37  2  0  0  0
 37 38  1  0  0  0
 38 39  2  0  0  0
 39 40  1  0  0  0
 28 29  1  0  0  0
 29 30  1  0  0  0
  4  5  1  0  0  0
  5  6  1  0  0  0
  5  7  2  0  0  0
  7  8  1  0  0  0
  8  9  2  0  0  0
  9 10  1  0  0  0
 24 19  1  0  0  0
 17 12  1  0  0  0
 10  1  1  0  0  0
  9  3  1  0  0  0
 30 25  1  0  0  0
 40 36  1  0  0  0
 34 35  1  0  0  0
 10 11  1  0  0  0
M  END
> <minimizedAffinity>
-8.07831

> <CNNscore>
0.5858500004

> <CNNaffinity>
7.5808305740

> <CNN_VS>
4.4412298203

> <CNNaffinity_variance>
0.0877845064

$$$$
[H]c1nc(N([H])C(=O)C([H])([H])N2C([H])([H])C([H])([H])N(c3c(Cl)c([H])nc4c3nc(-c3c([H])c([H])c(N5C([H])([H])C([H])([H])N(C([H])([H])[H])C([H])([H])C5([H])[H])c([H])c3[H])n4[H])C([H])([H])C2([H])[H])sc1[H]


 40 45  0  0  0  0  0  0  0  0999 V2000
   -0.8264   21.9726  -24.7769 C   0  0  0  0  0  0  0  0  0  0  0  0
   -2.1617   21.9180  -24.7737 N   0  0  0  0  0  0  0  0  0  0  0  0
   -2.6877   22.3684  -25.9006 C   0  0  0  0  0  0  0  0  0  0  0  0
   -4.0259   22.4991  -26.3002 C   0  0  0  0  0  0  0  0  0  0  0  0
   -4.1965   23.0367  -27.5652 C   0  0  0  0  0  0  0  0  0  0  0  0
   -5.7237   23.2516  -28.3701 Cl  0  0  0  0  0  0  0  0  0  0  0  0
   -3.0884   23.4053  -28.3421 C   0  0  0  0  0  0  0  0  0  0  0  0
   -1.8494   23.2535  -27.9005 N   0  0  0  0  0  0  0  0  0  0  0  0
   -1.6410   22.7435  -26.6985 C   0  0  0  0  0  0  0  0  0  0  0  0
   -0.5079   22.4840  -25.9719 N   0  0  0  0  0  0  0  0  0  0  0  0
    0.4413   22.6810  -26.3548 H   0  0  0  0  0  0  0  0  0  0  0  0
    1.8273   20.7813  -21.6410 C   0  0  0  0  0  0  0  0  0  0  0  0
    0.4595   20.9174  -21.4260 C   0  0  0  0  0  0  0  0  0  0  0  0
   -0.3628   21.3116  -22.4583 C   0  0  0  0  0  0  0  0  0  0  0  0
    0.1133   21.5849  -23.7250 C   0  0  0  0  0  0  0  0  0  0  0  0
    1.4658   21.4489  -23.9271 C   0  0  0  0  0  0  0  0  0  0  0  0
    2.3181   21.0501  -22.8945 C   0  0  0  0  0  0  0  0  0  0  0  0
    6.0023   19.3938  -18.9256 C   0  0  0  0  0  0  0  0  0  0  0  0
    4.6430   19.7578  -18.5869 N   0  0  0  0  0  0  0  0  0  0  0  0
    3.7689   18.7720  -19.1733 C   0  0  0  0  0  0  0  0  0  0  0  0
    3.3753   19.0932  -20.5863 C   0  0  0  0  0  0  0  0  0  0  0  0
    2.6963   20.3710  -20.5950 N   0  0  0  0  0  0  0  0  0  0  0  0
    2.9363   21.2697  -19.4926 C   0  0  0  0  0  0  0  0  0  0  0  0
    4.3659   21.0922  -19.0107 C   0  0  0  0  0  0  0  0  0  0  0  0
   -5.0893   22.0567  -25.5434 N   0  0  0  0  0  0  0  0  0  0  0  0
   -4.9995   21.2540  -24.3487 C   0  0  0  0  0  0  0  0  0  0  0  0
   -5.5730   22.0093  -23.1644 C   0  0  0  0  0  0  0  0  0  0  0  0
   -6.1862   23.2190  -23.4938 N   0  0  0  0  0  0  0  0  0  0  0  0
   -6.8074   23.4616  -24.7158 C   0  0  0  0  0  0  0  0  0  0  0  0
   -6.5094   22.4157  -25.7425 C   0  0  0  0  0  0  0  0  0  0  0  0
   -6.4561   24.1163  -22.4063 C   0  0  0  0  0  0  0  0  0  0  0  0
   -5.2875   24.7515  -21.8271 C   0  0  0  0  0  0  0  0  0  0  0  0
   -4.9744   24.5250  -20.6293 O   0  0  0  0  0  0  0  0  0  0  0  0
   -4.4698   25.6276  -22.5524 N   0  0  0  0  0  0  0  0  0  0  0  0
   -3.6149   26.0853  -22.1119 H   0  0  0  0  0  0  0  0  0  0  0  0
   -4.6904   25.9956  -23.9180 C   0  0  0  0  0  0  0  0  0  0  0  0
   -3.9271   25.7198  -24.9649 N   0  0  0  0  0  0  0  0  0  0  0  0
   -4.2528   26.1209  -26.1389 C   0  0  0  0  0  0  0  0  0  0  0  0
   -5.4189   26.8451  -26.2708 C   0  0  0  0  0  0  0  0  0  0  0  0
   -5.9666   26.8912  -24.6544 S   0  0  0  0  0  0  0  0  0  0  0  0
 18 19  1  0  0  0
 19 20  1  0  0  0
 20 21  1  0  0  0
 21 22  1  0  0  0
 22 23  1  0  0  0
 23 24  1  0  0  0
 22 12  1  0  0  0
 12 13  2  0  0  0
 13 14  1  0  0  0
 14 15  2  0  0  0
 15 16  1  0  0  0
 16 17  2  0  0  0
 15  1  1  0  0  0
  1  2  2  0  0  0
  2  3  1  0  0  0
  3  4  2  0  0  0
  4 25  1  0  0  0
 25 26  1  0  0  0
 26 27  1  0  0  0
 27 28  1  0  0  0
 28 31  1  0  0  0
 31 32  1  0  0  0
 32 33  2  0  0  0
 32 34  1  0  0  0
 34 36  1  0  0  0
 36 37  2  0  0  0
 37 38  1  0  0  0
 38 39  2  0  0  0
 39 40  1  0  0  0
 28 29  1  0  0  0
 29 30  1  0  0  0
  4  5  1  0  0  0
  5  6  1  0  0  0
  5  7  2  0  0  0
  7  8  1  0  0  0
  8  9  2  0  0  0
  9 10  1  0  0  0
 24 19  1  0  0  0
 17 12  1  0  0  0
 10  1  1  0  0  0
  9  3  1  0  0  0
 30 25  1  0  0  0
 40 36  1  0  0  0
 34 35  1  0  0  0
 10 11  1  0  0  0
M  END
> <minimizedAffinity>
-7.99811

> <CNNscore>
0.5248202682

> <CNNaffinity>
7.7514925003

> <CNN_VS>
4.0681405067

> <CNNaffinity_variance>
0.1626505405

$$$$
[H]c1nc(N([H])C(=O)C([H])([H])N2C([H])([H])C([H])([H])N(c3c(Cl)c([H])nc4c3nc(-c3c([H])c([H])c(N5C([H])([H])C([H])([H])N(C([H])([H])[H])C([H])([H])C5([H])[H])c([H])c3[H])n4[H])C([H])([H])C2([H])[H])sc1[H]


 40 45  0  0  0  0  0  0  0  0999 V2000
   -1.9910   22.5718  -25.7637 C   0  0  0  0  0  0  0  0  0  0  0  0
   -2.9060   23.5420  -25.6772 N   0  0  0  0  0  0  0  0  0  0  0  0
   -3.5244   23.7560  -26.8267 C   0  0  0  0  0  0  0  0  0  0  0  0
   -4.5238   24.6774  -27.1728 C   0  0  0  0  0  0  0  0  0  0  0  0
   -4.9213   24.6210  -28.4984 C   0  0  0  0  0  0  0  0  0  0  0  0
   -6.1881   25.5768  -29.2110 Cl  0  0  0  0  0  0  0  0  0  0  0  0
   -4.3394   23.7001  -29.3820 C   0  0  0  0  0  0  0  0  0  0  0  0
   -3.3982   22.8572  -28.9858 N   0  0  0  0  0  0  0  0  0  0  0  0
   -2.9894   22.8766  -27.7285 C   0  0  0  0  0  0  0  0  0  0  0  0
   -2.0465   22.1617  -27.0364 N   0  0  0  0  0  0  0  0  0  0  0  0
   -1.4838   21.4147  -27.4964 H   0  0  0  0  0  0  0  0  0  0  0  0
    0.7093   21.1418  -22.7706 C   0  0  0  0  0  0  0  0  0  0  0  0
    1.1668   21.7660  -23.9267 C   0  0  0  0  0  0  0  0  0  0  0  0
    0.2672   22.2057  -24.8726 C   0  0  0  0  0  0  0  0  0  0  0  0
   -1.0973   22.0543  -24.7276 C   0  0  0  0  0  0  0  0  0  0  0  0
   -1.5393   21.4354  -23.5830 C   0  0  0  0  0  0  0  0  0  0  0  0
   -0.6447   20.9819  -22.6106 C   0  0  0  0  0  0  0  0  0  0  0  0
    3.4014   18.1607  -19.5155 C   0  0  0  0  0  0  0  0  0  0  0  0
    3.5102   19.5319  -19.9658 N   0  0  0  0  0  0  0  0  0  0  0  0
    2.3220   20.2272  -19.5364 C   0  0  0  0  0  0  0  0  0  0  0  0
    1.1871   20.1226  -20.5142 C   0  0  0  0  0  0  0  0  0  0  0  0
    1.6156   20.6840  -21.7772 N   0  0  0  0  0  0  0  0  0  0  0  0
    3.0326   20.7597  -22.0354 C   0  0  0  0  0  0  0  0  0  0  0  0
    3.7204   19.5762  -21.3768 C   0  0  0  0  0  0  0  0  0  0  0  0
   -5.1284   25.5170  -26.2624 N   0  0  0  0  0  0  0  0  0  0  0  0
   -6.3659   25.2594  -25.5682 C   0  0  0  0  0  0  0  0  0  0  0  0
   -6.1263   25.2044  -24.0711 C   0  0  0  0  0  0  0  0  0  0  0  0
   -4.8329   25.5546  -23.6806 N   0  0  0  0  0  0  0  0  0  0  0  0
   -4.0310   26.4504  -24.3823 C   0  0  0  0  0  0  0  0  0  0  0  0
   -4.5692   26.7810  -25.7380 C   0  0  0  0  0  0  0  0  0  0  0  0
   -4.4571   25.2175  -22.3368 C   0  0  0  0  0  0  0  0  0  0  0  0
   -3.4803   24.1514  -22.2193 C   0  0  0  0  0  0  0  0  0  0  0  0
   -2.2605   24.3881  -22.4194 O   0  0  0  0  0  0  0  0  0  0  0  0
   -3.8359   22.8379  -21.8871 N   0  0  0  0  0  0  0  0  0  0  0  0
   -3.1058   22.0669  -21.8045 H   0  0  0  0  0  0  0  0  0  0  0  0
   -5.1761   22.4020  -21.6363 C   0  0  0  0  0  0  0  0  0  0  0  0
   -6.0927   22.0483  -22.5247 N   0  0  0  0  0  0  0  0  0  0  0  0
   -7.2625   21.6789  -22.1499 C   0  0  0  0  0  0  0  0  0  0  0  0
   -7.5295   21.6636  -20.7971 C   0  0  0  0  0  0  0  0  0  0  0  0
   -6.0384   22.1948  -20.1576 S   0  0  0  0  0  0  0  0  0  0  0  0
 18 19  1  0  0  0
 19 20  1  0  0  0
 20 21  1  0  0  0
 21 22  1  0  0  0
 22 23  1  0  0  0
 23 24  1  0  0  0
 22 12  1  0  0  0
 12 13  2  0  0  0
 13 14  1  0  0  0
 14 15  2  0  0  0
 15 16  1  0  0  0
 16 17  2  0  0  0
 15  1  1  0  0  0
  1  2  2  0  0  0
  2  3  1  0  0  0
  3  4  2  0  0  0
  4 25  1  0  0  0
 25 26  1  0  0  0
 26 27  1  0  0  0
 27 28  1  0  0  0
 28 31  1  0  0  0
 31 32  1  0  0  0
 32 33  2  0  0  0
 32 34  1  0  0  0
 34 36  1  0  0  0
 36 37  2  0  0  0
 37 38  1  0  0  0
 38 39  2  0  0  0
 39 40  1  0  0  0
 28 29  1  0  0  0
 29 30  1  0  0  0
  4  5  1  0  0  0
  5  6  1  0  0  0
  5  7  2  0  0  0
  7  8  1  0  0  0
  8  9  2  0  0  0
  9 10  1  0  0  0
 24 19  1  0  0  0
 17 12  1  0  0  0
 10  1  1  0  0  0
  9  3  1  0  0  0
 30 25  1  0  0  0
 40 36  1  0  0  0
 34 35  1  0  0  0
 10 11  1  0  0  0
M  END
> <minimizedAffinity>
-9.00921

> <CNNscore>
0.3171119094

> <CNNaffinity>
7.6843490601

> <CNN_VS>
2.4367985725

> <CNNaffinity_variance>
0.1230906099

$$$$
[H]c1nc(N([H])C(=O)C([H])([H])N2C([H])([H])C([H])([H])N(c3c(Cl)c([H])nc4c3nc(-c3c([H])c([H])c(N5C([H])([H])C([H])([H])N(C([H])([H])[H])C([H])([H])C5([H])[H])c([H])c3[H])n4[H])C([H])([H])C2([H])[H])sc1[H]


 40 45  0  0  0  0  0  0  0  0999 V2000
   -0.0579   21.8885  -24.4866 C   0  0  0  0  0  0  0  0  0  0  0  0
   -0.1615   21.6069  -23.1843 N   0  0  0  0  0  0  0  0  0  0  0  0
    0.9758   21.1679  -22.6712 C   0  0  0  0  0  0  0  0  0  0  0  0
    1.2950   20.7523  -21.3699 C   0  0  0  0  0  0  0  0  0  0  0  0
    2.6051   20.3337  -21.2071 C   0  0  0  0  0  0  0  0  0  0  0  0
    3.3229   19.8351  -19.7029 Cl  0  0  0  0  0  0  0  0  0  0  0  0
    3.4994   20.3428  -22.2875 C   0  0  0  0  0  0  0  0  0  0  0  0
    3.1290   20.7492  -23.4921 N   0  0  0  0  0  0  0  0  0  0  0  0
    1.8875   21.1577  -23.6918 C   0  0  0  0  0  0  0  0  0  0  0  0
    1.2136   21.6094  -24.7968 N   0  0  0  0  0  0  0  0  0  0  0  0
    1.6845   21.6999  -25.7222 H   0  0  0  0  0  0  0  0  0  0  0  0
   -3.1039   23.3940  -27.0848 C   0  0  0  0  0  0  0  0  0  0  0  0
   -3.2698   23.3711  -25.7037 C   0  0  0  0  0  0  0  0  0  0  0  0
   -2.2699   22.8706  -24.8994 C   0  0  0  0  0  0  0  0  0  0  0  0
   -1.0839   22.3789  -25.4068 C   0  0  0  0  0  0  0  0  0  0  0  0
   -0.9300   22.4044  -26.7722 C   0  0  0  0  0  0  0  0  0  0  0  0
   -1.9309   22.9078  -27.6067 C   0  0  0  0  0  0  0  0  0  0  0  0
   -5.6033   25.7408  -30.9545 C   0  0  0  0  0  0  0  0  0  0  0  0
   -5.9930   24.8445  -29.8870 N   0  0  0  0  0  0  0  0  0  0  0  0
   -5.7430   25.5201  -28.6377 C   0  0  0  0  0  0  0  0  0  0  0  0
   -4.3441   25.3260  -28.1275 C   0  0  0  0  0  0  0  0  0  0  0  0
   -4.1172   23.9098  -27.9362 N   0  0  0  0  0  0  0  0  0  0  0  0
   -4.9539   22.9883  -28.6649 C   0  0  0  0  0  0  0  0  0  0  0  0
   -5.3085   23.5982  -30.0102 C   0  0  0  0  0  0  0  0  0  0  0  0
    0.4138   20.8276  -20.3130 N   0  0  0  0  0  0  0  0  0  0  0  0
   -0.2097   19.7079  -19.6518 C   0  0  0  0  0  0  0  0  0  0  0  0
    0.2057   19.6617  -18.1934 C   0  0  0  0  0  0  0  0  0  0  0  0
    0.9554   20.7610  -17.7720 N   0  0  0  0  0  0  0  0  0  0  0  0
    0.8306   22.0352  -18.3184 C   0  0  0  0  0  0  0  0  0  0  0  0
    0.0320   22.0550  -19.5829 C   0  0  0  0  0  0  0  0  0  0  0  0
    1.6394   20.6255  -16.5172 C   0  0  0  0  0  0  0  0  0  0  0  0
    1.5503   21.7771  -15.6395 C   0  0  0  0  0  0  0  0  0  0  0  0
    2.4668   22.6397  -15.6348 O   0  0  0  0  0  0  0  0  0  0  0  0
    0.4683   21.9818  -14.7739 N   0  0  0  0  0  0  0  0  0  0  0  0
    0.4182   22.8333  -14.1361 H   0  0  0  0  0  0  0  0  0  0  0  0
   -0.6487   21.0949  -14.6521 C   0  0  0  0  0  0  0  0  0  0  0  0
   -0.7903   20.0810  -13.8116 N   0  0  0  0  0  0  0  0  0  0  0  0
   -1.8551   19.3658  -13.8188 C   0  0  0  0  0  0  0  0  0  0  0  0
   -2.8406   19.6886  -14.7278 C   0  0  0  0  0  0  0  0  0  0  0  0
   -2.1383   21.0291  -15.5180 S   0  0  0  0  0  0  0  0  0  0  0  0
 18 19  1  0  0  0
 19 20  1  0  0  0
 20 21  1  0  0  0
 21 22  1  0  0  0
 22 23  1  0  0  0
 23 24  1  0  0  0
 22 12  1  0  0  0
 12 13  2  0  0  0
 13 14  1  0  0  0
 14 15  2  0  0  0
 15 16  1  0  0  0
 16 17  2  0  0  0
 15  1  1  0  0  0
  1  2  2  0  0  0
  2  3  1  0  0  0
  3  4  2  0  0  0
  4 25  1  0  0  0
 25 26  1  0  0  0
 26 27  1  0  0  0
 27 28  1  0  0  0
 28 31  1  0  0  0
 31 32  1  0  0  0
 32 33  2  0  0  0
 32 34  1  0  0  0
 34 36  1  0  0  0
 36 37  2  0  0  0
 37 38  1  0  0  0
 38 39  2  0  0  0
 39 40  1  0  0  0
 28 29  1  0  0  0
 29 30  1  0  0  0
  4  5  1  0  0  0
  5  6  1  0  0  0
  5  7  2  0  0  0
  7  8  1  0  0  0
  8  9  2  0  0  0
  9 10  1  0  0  0
 24 19  1  0  0  0
 17 12  1  0  0  0
 10  1  1  0  0  0
  9  3  1  0  0  0
 30 25  1  0  0  0
 40 36  1  0  0  0
 34 35  1  0  0  0
 10 11  1  0  0  0
M  END
> <minimizedAffinity>
-8.40815

> <CNNscore>
0.2537783384

> <CNNaffinity>
6.5420050621

> <CNN_VS>
1.6602191925

> <CNNaffinity_variance>
0.1307064295

$$$$
[H]c1nc(N([H])C(=O)C([H])([H])N2C([H])([H])C([H])([H])N(c3c(Cl)c([H])nc4c3nc(-c3c([H])c([H])c(N5C([H])([H])C([H])([H])N(C([H])([H])[H])C([H])([H])C5([H])[H])c([H])c3[H])n4[H])C([H])([H])C2([H])[H])sc1[H]


 40 45  0  0  0  0  0  0  0  0999 V2000
   -1.4140   22.4135  -25.2185 C   0  0  0  0  0  0  0  0  0  0  0  0
   -2.4988   23.1796  -25.0685 N   0  0  0  0  0  0  0  0  0  0  0  0
   -3.0531   23.5011  -26.2256 C   0  0  0  0  0  0  0  0  0  0  0  0
   -4.1770   24.2884  -26.5168 C   0  0  0  0  0  0  0  0  0  0  0  0
   -4.4503   24.4197  -27.8683 C   0  0  0  0  0  0  0  0  0  0  0  0
   -5.8133   25.2647  -28.5421 Cl  0  0  0  0  0  0  0  0  0  0  0  0
   -3.6376   23.7971  -28.8270 C   0  0  0  0  0  0  0  0  0  0  0  0
   -2.5894   23.0663  -28.4798 N   0  0  0  0  0  0  0  0  0  0  0  0
   -2.2927   22.9142  -27.2003 C   0  0  0  0  0  0  0  0  0  0  0  0
   -1.2904   22.2510  -26.5411 N   0  0  0  0  0  0  0  0  0  0  0  0
   -0.5627   21.7122  -27.0575 H   0  0  0  0  0  0  0  0  0  0  0  0
    1.2830   20.8794  -22.2744 C   0  0  0  0  0  0  0  0  0  0  0  0
    1.7297   21.3013  -23.5227 C   0  0  0  0  0  0  0  0  0  0  0  0
    0.8300   21.7816  -24.4485 C   0  0  0  0  0  0  0  0  0  0  0  0
   -0.5242   21.8671  -24.1940 C   0  0  0  0  0  0  0  0  0  0  0  0
   -0.9558   21.4467  -22.9589 C   0  0  0  0  0  0  0  0  0  0  0  0
   -0.0608   20.9564  -22.0048 C   0  0  0  0  0  0  0  0  0  0  0  0
    5.4660   18.9516  -19.9260 C   0  0  0  0  0  0  0  0  0  0  0  0
    4.2340   19.5605  -19.4717 N   0  0  0  0  0  0  0  0  0  0  0  0
    3.1477   18.7075  -19.8864 C   0  0  0  0  0  0  0  0  0  0  0  0
    2.6480   19.0127  -21.2691 C   0  0  0  0  0  0  0  0  0  0  0  0
    2.1906   20.3852  -21.2999 N   0  0  0  0  0  0  0  0  0  0  0  0
    2.7025   21.2892  -20.2993 C   0  0  0  0  0  0  0  0  0  0  0  0
    4.1307   20.8971  -19.9613 C   0  0  0  0  0  0  0  0  0  0  0  0
   -4.9988   24.8233  -25.5484 N   0  0  0  0  0  0  0  0  0  0  0  0
   -6.3025   24.3291  -25.1798 C   0  0  0  0  0  0  0  0  0  0  0  0
   -6.3054   23.8877  -23.7283 C   0  0  0  0  0  0  0  0  0  0  0  0
   -5.1321   24.1838  -23.0329 N   0  0  0  0  0  0  0  0  0  0  0  0
   -4.3157   25.2728  -23.3254 C   0  0  0  0  0  0  0  0  0  0  0  0
   -4.6553   25.9269  -24.6269 C   0  0  0  0  0  0  0  0  0  0  0  0
   -4.9495   23.5186  -21.7740 C   0  0  0  0  0  0  0  0  0  0  0  0
   -4.9874   22.0696  -21.8317 C   0  0  0  0  0  0  0  0  0  0  0  0
   -4.1448   21.4433  -22.5258 O   0  0  0  0  0  0  0  0  0  0  0  0
   -5.9398   21.3132  -21.1368 N   0  0  0  0  0  0  0  0  0  0  0  0
   -5.9532   20.2496  -21.1897 H   0  0  0  0  0  0  0  0  0  0  0  0
   -6.9686   21.8696  -20.3116 C   0  0  0  0  0  0  0  0  0  0  0  0
   -6.9217   22.1101  -19.0098 N   0  0  0  0  0  0  0  0  0  0  0  0
   -7.9307   22.6135  -18.3983 C   0  0  0  0  0  0  0  0  0  0  0  0
   -9.0587   22.8933  -19.1404 C   0  0  0  0  0  0  0  0  0  0  0  0
   -8.5641   22.3976  -20.6974 S   0  0  0  0  0  0  0  0  0  0  0  0
 18 19  1  0  0  0
 19 20  1  0  0  0
 20 21  1  0  0  0
 21 22  1  0  0  0
 22 23  1  0  0  0
 23 24  1  0  0  0
 22 12  1  0  0  0
 12 13  2  0  0  0
 13 14  1  0  0  0
 14 15  2  0  0  0
 15 16  1  0  0  0
 16 17  2  0  0  0
 15  1  1  0  0  0
  1  2  2  0  0  0
  2  3  1  0  0  0
  3  4  2  0  0  0
  4 25  1  0  0  0
 25 26  1  0  0  0
 26 27  1  0  0  0
 27 28  1  0  0  0
 28 31  1  0  0  0
 31 32  1  0  0  0
 32 33  2  0  0  0
 32 34  1  0  0  0
 34 36  1  0  0  0
 36 37  2  0  0  0
 37 38  1  0  0  0
 38 39  2  0  0  0
 39 40  1  0  0  0
 28 29  1  0  0  0
 29 30  1  0  0  0
  4  5  1  0  0  0
  5  6  1  0  0  0
  5  7  2  0  0  0
  7  8  1  0  0  0
  8  9  2  0  0  0
  9 10  1  0  0  0
 24 19  1  0  0  0
 17 12  1  0  0  0
 10  1  1  0  0  0
  9  3  1  0  0  0
 30 25  1  0  0  0
 40 36  1  0  0  0
 34 35  1  0  0  0
 10 11  1  0  0  0
M  END
> <minimizedAffinity>
-8.63496

> <CNNscore>
0.2118023634

> <CNNaffinity>
7.5613021851

> <CNN_VS>
1.6015017033

> <CNNaffinity_variance>
0.1893975288

$$$$
[H]c1nc(N([H])C(=O)C([H])([H])N2C([H])([H])C([H])([H])N(c3c(Cl)c([H])nc4c3nc(-c3c([H])c([H])c(N5C([H])([H])C([H])([H])N(C([H])([H])[H])C([H])([H])C5([H])[H])c([H])c3[H])n4[H])C([H])([H])C2([H])[H])sc1[H]


 40 45  0  0  0  0  0  0  0  0999 V2000
   -1.5913   22.5197  -25.3382 C   0  0  0  0  0  0  0  0  0  0  0  0
   -2.7058   23.2338  -25.1539 N   0  0  0  0  0  0  0  0  0  0  0  0
   -3.2634   23.6020  -26.2953 C   0  0  0  0  0  0  0  0  0  0  0  0
   -4.4146   24.3620  -26.5506 C   0  0  0  0  0  0  0  0  0  0  0  0
   -4.6826   24.5626  -27.8945 C   0  0  0  0  0  0  0  0  0  0  0  0
   -6.0721   25.3938  -28.5307 Cl  0  0  0  0  0  0  0  0  0  0  0  0
   -3.8394   24.0293  -28.8804 C   0  0  0  0  0  0  0  0  0  0  0  0
   -2.7666   23.3195  -28.5666 N   0  0  0  0  0  0  0  0  0  0  0  0
   -2.4737   23.1032  -27.2956 C   0  0  0  0  0  0  0  0  0  0  0  0
   -1.4516   22.4406  -26.6668 N   0  0  0  0  0  0  0  0  0  0  0  0
   -0.6999   21.9614  -27.2070 H   0  0  0  0  0  0  0  0  0  0  0  0
    1.1422   20.9124  -22.4677 C   0  0  0  0  0  0  0  0  0  0  0  0
    1.5737   21.3691  -23.7090 C   0  0  0  0  0  0  0  0  0  0  0  0
    0.6626   21.8722  -24.6111 C   0  0  0  0  0  0  0  0  0  0  0  0
   -0.6888   21.9476  -24.3391 C   0  0  0  0  0  0  0  0  0  0  0  0
   -1.1055   21.4929  -23.1110 C   0  0  0  0  0  0  0  0  0  0  0  0
   -0.1987   20.9789  -22.1809 C   0  0  0  0  0  0  0  0  0  0  0  0
    4.4114   17.8347  -19.9046 C   0  0  0  0  0  0  0  0  0  0  0  0
    4.0751   19.2409  -19.8395 N   0  0  0  0  0  0  0  0  0  0  0  0
    2.6869   19.3400  -19.4614 C   0  0  0  0  0  0  0  0  0  0  0  0
    1.7480   19.2929  -20.6323 C   0  0  0  0  0  0  0  0  0  0  0  0
    2.0618   20.3939  -21.5173 N   0  0  0  0  0  0  0  0  0  0  0  0
    3.3807   20.9716  -21.4336 C   0  0  0  0  0  0  0  0  0  0  0  0
    4.3776   19.8819  -21.0783 C   0  0  0  0  0  0  0  0  0  0  0  0
   -5.2635   24.8070  -25.5604 N   0  0  0  0  0  0  0  0  0  0  0  0
   -6.5655   24.2656  -25.2578 C   0  0  0  0  0  0  0  0  0  0  0  0
   -6.5886   23.7123  -23.8454 C   0  0  0  0  0  0  0  0  0  0  0  0
   -5.4339   23.9711  -23.1054 N   0  0  0  0  0  0  0  0  0  0  0  0
   -4.6305   25.0920  -23.2958 C   0  0  0  0  0  0  0  0  0  0  0  0
   -4.9563   25.8404  -24.5490 C   0  0  0  0  0  0  0  0  0  0  0  0
   -5.2640   23.2126  -21.8986 C   0  0  0  0  0  0  0  0  0  0  0  0
   -4.6385   21.9149  -22.0695 C   0  0  0  0  0  0  0  0  0  0  0  0
   -4.6493   21.3524  -23.1953 O   0  0  0  0  0  0  0  0  0  0  0  0
   -4.0083   21.2386  -21.0171 N   0  0  0  0  0  0  0  0  0  0  0  0
   -3.5533   20.2862  -21.1599 H   0  0  0  0  0  0  0  0  0  0  0  0
   -3.9151   21.7351  -19.6778 C   0  0  0  0  0  0  0  0  0  0  0  0
   -2.8585   22.2683  -19.0829 N   0  0  0  0  0  0  0  0  0  0  0  0
   -2.9228   22.6702  -17.8665 C   0  0  0  0  0  0  0  0  0  0  0  0
   -4.1242   22.5278  -17.2048 C   0  0  0  0  0  0  0  0  0  0  0  0
   -5.0886   21.8097  -18.4167 S   0  0  0  0  0  0  0  0  0  0  0  0
 18 19  1  0  0  0
 19 20  1  0  0  0
 20 21  1  0  0  0
 21 22  1  0  0  0
 22 23  1  0  0  0
 23 24  1  0  0  0
 22 12  1  0  0  0
 12 13  2  0  0  0
 13 14  1  0  0  0
 14 15  2  0  0  0
 15 16  1  0  0  0
 16 17  2  0  0  0
 15  1  1  0  0  0
  1  2  2  0  0  0
  2  3  1  0  0  0
  3  4  2  0  0  0
  4 25  1  0  0  0
 25 26  1  0  0  0
 26 27  1  0  0  0
 27 28  1  0  0  0
 28 31  1  0  0  0
 31 32  1  0  0  0
 32 33  2  0  0  0
 32 34  1  0  0  0
 34 36  1  0  0  0
 36 37  2  0  0  0
 37 38  1  0  0  0
 38 39  2  0  0  0
 39 40  1  0  0  0
 28 29  1  0  0  0
 29 30  1  0  0  0
  4  5  1  0  0  0
  5  6  1  0  0  0
  5  7  2  0  0  0
  7  8  1  0  0  0
  8  9  2  0  0  0
  9 10  1  0  0  0
 24 19  1  0  0  0
 17 12  1  0  0  0
 10  1  1  0  0  0
  9  3  1  0  0  0
 30 25  1  0  0  0
 40 36  1  0  0  0
 34 35  1  0  0  0
 10 11  1  0  0  0
M  END
> <minimizedAffinity>
-8.88693

> <CNNscore>
0.2097058743

> <CNNaffinity>
7.5313491821

> <CNN_VS>
1.5793681145

> <CNNaffinity_variance>
0.1598713845

$$$$
[H]c1nc(N([H])C(=O)C([H])([H])N2C([H])([H])C([H])([H])N(c3c(Cl)c([H])nc4c3nc(-c3c([H])c([H])c(N5C([H])([H])C([H])([H])N(C([H])([H])[H])C([H])([H])C5([H])[H])c([H])c3[H])n4[H])C([H])([H])C2([H])[H])sc1[H]


 40 45  0  0  0  0  0  0  0  0999 V2000
   -0.0849   21.9479  -24.6286 C   0  0  0  0  0  0  0  0  0  0  0  0
   -0.1897   21.7493  -23.3112 N   0  0  0  0  0  0  0  0  0  0  0  0
    0.9328   21.2955  -22.7787 C   0  0  0  0  0  0  0  0  0  0  0  0
    1.2449   20.9458  -21.4565 C   0  0  0  0  0  0  0  0  0  0  0  0
    2.5383   20.4844  -21.2758 C   0  0  0  0  0  0  0  0  0  0  0  0
    3.2469   20.0477  -19.7482 Cl  0  0  0  0  0  0  0  0  0  0  0  0
    3.4238   20.3921  -22.3596 C   0  0  0  0  0  0  0  0  0  0  0  0
    3.0608   20.7405  -23.5844 N   0  0  0  0  0  0  0  0  0  0  0  0
    1.8354   21.1869  -23.8017 C   0  0  0  0  0  0  0  0  0  0  0  0
    1.1718   21.5989  -24.9282 N   0  0  0  0  0  0  0  0  0  0  0  0
    1.6388   21.6145  -25.8599 H   0  0  0  0  0  0  0  0  0  0  0  0
   -3.1046   23.3961  -27.2893 C   0  0  0  0  0  0  0  0  0  0  0  0
   -3.3563   23.2086  -25.9339 C   0  0  0  0  0  0  0  0  0  0  0  0
   -2.3612   22.7322  -25.1094 C   0  0  0  0  0  0  0  0  0  0  0  0
   -1.0973   22.4240  -25.5712 C   0  0  0  0  0  0  0  0  0  0  0  0
   -0.8587   22.6112  -26.9116 C   0  0  0  0  0  0  0  0  0  0  0  0
   -1.8533   23.0935  -27.7659 C   0  0  0  0  0  0  0  0  0  0  0  0
   -5.5817   25.5007  -31.3097 C   0  0  0  0  0  0  0  0  0  0  0  0
   -5.9911   24.7493  -30.1424 N   0  0  0  0  0  0  0  0  0  0  0  0
   -5.6506   25.5310  -28.9794 C   0  0  0  0  0  0  0  0  0  0  0  0
   -4.2501   25.2926  -28.4932 C   0  0  0  0  0  0  0  0  0  0  0  0
   -4.1117   23.8913  -28.1601 N   0  0  0  0  0  0  0  0  0  0  0  0
   -5.0346   22.9607  -28.7623 C   0  0  0  0  0  0  0  0  0  0  0  0
   -5.3968   23.4517  -30.1534 C   0  0  0  0  0  0  0  0  0  0  0  0
    0.3758   21.1203  -20.4014 N   0  0  0  0  0  0  0  0  0  0  0  0
    0.0395   20.1274  -19.4111 C   0  0  0  0  0  0  0  0  0  0  0  0
    0.4603   20.5982  -18.0316 C   0  0  0  0  0  0  0  0  0  0  0  0
    0.9288   21.9122  -17.9885 N   0  0  0  0  0  0  0  0  0  0  0  0
    0.5020   22.9124  -18.8577 C   0  0  0  0  0  0  0  0  0  0  0  0
   -0.2839   22.3860  -20.0162 C   0  0  0  0  0  0  0  0  0  0  0  0
    1.6309   22.3023  -16.7988 C   0  0  0  0  0  0  0  0  0  0  0  0
    3.0117   22.6988  -17.0004 C   0  0  0  0  0  0  0  0  0  0  0  0
    3.4550   22.8723  -18.1655 O   0  0  0  0  0  0  0  0  0  0  0  0
    3.8995   22.9020  -15.9362 N   0  0  0  0  0  0  0  0  0  0  0  0
    4.9105   23.1934  -16.1018 H   0  0  0  0  0  0  0  0  0  0  0  0
    3.5575   22.7397  -14.5557 C   0  0  0  0  0  0  0  0  0  0  0  0
    4.0335   21.8450  -13.7027 N   0  0  0  0  0  0  0  0  0  0  0  0
    3.6284   21.8173  -12.4860 C   0  0  0  0  0  0  0  0  0  0  0  0
    2.6855   22.7467  -12.1006 C   0  0  0  0  0  0  0  0  0  0  0  0
    2.4522   23.6074  -13.5564 S   0  0  0  0  0  0  0  0  0  0  0  0
 18 19  1  0  0  0
 19 20  1  0  0  0
 20 21  1  0  0  0
 21 22  1  0  0  0
 22 23  1  0  0  0
 23 24  1  0  0  0
 22 12  1  0  0  0
 12 13  2  0  0  0
 13 14  1  0  0  0
 14 15  2  0  0  0
 15 16  1  0  0  0
 16 17  2  0  0  0
 15  1  1  0  0  0
  1  2  2  0  0  0
  2  3  1  0  0  0
  3  4  2  0  0  0
  4 25  1  0  0  0
 25 26  1  0  0  0
 26 27  1  0  0  0
 27 28  1  0  0  0
 28 31  1  0  0  0
 31 32  1  0  0  0
 32 33  2  0  0  0
 32 34  1  0  0  0
 34 36  1  0  0  0
 36 37  2  0  0  0
 37 38  1  0  0  0
 38 39  2  0  0  0
 39 40  1  0  0  0
 28 29  1  0  0  0
 29 30  1  0  0  0
  4  5  1  0  0  0
  5  6  1  0  0  0
  5  7  2  0  0  0
  7  8  1  0  0  0
  8  9  2  0  0  0
  9 10  1  0  0  0
 24 19  1  0  0  0
 17 12  1  0  0  0
 10  1  1  0  0  0
  9  3  1  0  0  0
 30 25  1  0  0  0
 40 36  1  0  0  0
 34 35  1  0  0  0
 10 11  1  0  0  0
M  END
> <minimizedAffinity>
-9.21406

> <CNNscore>
0.2017056793

> <CNNaffinity>
6.2815017700

> <CNN_VS>
1.2670146227

> <CNNaffinity_variance>
0.4185071886

$$$$
[H]c1nc(N([H])C(=O)C([H])([H])N2C([H])([H])C([H])([H])N(c3c(Cl)c([H])nc4c3nc(-c3c([H])c([H])c(N5C([H])([H])C([H])([H])N(C([H])([H])[H])C([H])([H])C5([H])[H])c([H])c3[H])n4[H])C([H])([H])C2([H])[H])sc1[H]


 40 45  0  0  0  0  0  0  0  0999 V2000
    0.0483   21.8878  -24.3609 C   0  0  0  0  0  0  0  0  0  0  0  0
   -0.0022   21.6695  -23.0434 N   0  0  0  0  0  0  0  0  0  0  0  0
    1.1376   21.1976  -22.5662 C   0  0  0  0  0  0  0  0  0  0  0  0
    1.5024   20.8245  -21.2641 C   0  0  0  0  0  0  0  0  0  0  0  0
    2.7979   20.3490  -21.1458 C   0  0  0  0  0  0  0  0  0  0  0  0
    3.5667   19.8823  -19.6567 Cl  0  0  0  0  0  0  0  0  0  0  0  0
    3.6356   20.2660  -22.2677 C   0  0  0  0  0  0  0  0  0  0  0  0
    3.2241   20.6367  -23.4704 N   0  0  0  0  0  0  0  0  0  0  0  0
    1.9948   21.0972  -23.6284 C   0  0  0  0  0  0  0  0  0  0  0  0
    1.2878   21.5325  -24.7192 N   0  0  0  0  0  0  0  0  0  0  0  0
    1.7149   21.5587  -25.6696 H   0  0  0  0  0  0  0  0  0  0  0  0
   -3.0596   23.4159  -26.8710 C   0  0  0  0  0  0  0  0  0  0  0  0
   -3.2095   23.3395  -25.4899 C   0  0  0  0  0  0  0  0  0  0  0  0
   -2.1896   22.8333  -24.7148 C   0  0  0  0  0  0  0  0  0  0  0  0
   -0.9987   22.3875  -25.2520 C   0  0  0  0  0  0  0  0  0  0  0  0
   -0.8607   22.4658  -26.6170 C   0  0  0  0  0  0  0  0  0  0  0  0
   -1.8819   22.9759  -27.4223 C   0  0  0  0  0  0  0  0  0  0  0  0
   -5.6542   25.8285  -30.6362 C   0  0  0  0  0  0  0  0  0  0  0  0
   -6.0135   24.8969  -29.5884 N   0  0  0  0  0  0  0  0  0  0  0  0
   -5.7551   25.5416  -28.3246 C   0  0  0  0  0  0  0  0  0  0  0  0
   -4.3457   25.3560  -27.8409 C   0  0  0  0  0  0  0  0  0  0  0  0
   -4.0937   23.9388  -27.6926 N   0  0  0  0  0  0  0  0  0  0  0  0
   -4.9270   23.0245  -28.4342 C   0  0  0  0  0  0  0  0  0  0  0  0
   -5.3116   23.6656  -29.7565 C   0  0  0  0  0  0  0  0  0  0  0  0
    0.6806   20.9901  -20.1703 N   0  0  0  0  0  0  0  0  0  0  0  0
    0.1163   19.9314  -19.3700 C   0  0  0  0  0  0  0  0  0  0  0  0
    0.6136   20.0322  -17.9402 C   0  0  0  0  0  0  0  0  0  0  0  0
    1.3649   21.1769  -17.6700 N   0  0  0  0  0  0  0  0  0  0  0  0
    1.1858   22.3905  -18.3280 C   0  0  0  0  0  0  0  0  0  0  0  0
    0.3174   22.2772  -19.5404 C   0  0  0  0  0  0  0  0  0  0  0  0
    2.1207   21.1727  -16.4496 C   0  0  0  0  0  0  0  0  0  0  0  0
    1.6972   22.1445  -15.4593 C   0  0  0  0  0  0  0  0  0  0  0  0
    0.6164   21.9803  -14.8357 O   0  0  0  0  0  0  0  0  0  0  0  0
    2.4494   23.2864  -15.1555 N   0  0  0  0  0  0  0  0  0  0  0  0
    2.1241   23.9900  -14.4251 H   0  0  0  0  0  0  0  0  0  0  0  0
    3.6937   23.6239  -15.7775 C   0  0  0  0  0  0  0  0  0  0  0  0
    3.8976   24.4723  -16.7741 N   0  0  0  0  0  0  0  0  0  0  0  0
    5.0779   24.6736  -17.2341 C   0  0  0  0  0  0  0  0  0  0  0  0
    6.1202   23.9789  -16.6574 C   0  0  0  0  0  0  0  0  0  0  0  0
    5.2973   23.0699  -15.4695 S   0  0  0  0  0  0  0  0  0  0  0  0
 18 19  1  0  0  0
 19 20  1  0  0  0
 20 21  1  0  0  0
 21 22  1  0  0  0
 22 23  1  0  0  0
 23 24  1  0  0  0
 22 12  1  0  0  0
 12 13  2  0  0  0
 13 14  1  0  0  0
 14 15  2  0  0  0
 15 16  1  0  0  0
 16 17  2  0  0  0
 15  1  1  0  0  0
  1  2  2  0  0  0
  2  3  1  0  0  0
  3  4  2  0  0  0
  4 25  1  0  0  0
 25 26  1  0  0  0
 26 27  1  0  0  0
 27 28  1  0  0  0
 28 31  1  0  0  0
 31 32  1  0  0  0
 32 33  2  0  0  0
 32 34  1  0  0  0
 34 36  1  0  0  0
 36 37  2  0  0  0
 37 38  1  0  0  0
 38 39  2  0  0  0
 39 40  1  0  0  0
 28 29  1  0  0  0
 29 30  1  0  0  0
  4  5  1  0  0  0
  5  6  1  0  0  0
  5  7  2  0  0  0
  7  8  1  0  0  0
  8  9  2  0  0  0
  9 10  1  0  0  0
 24 19  1  0  0  0
 17 12  1  0  0  0
 10  1  1  0  0  0
  9  3  1  0  0  0
 30 25  1  0  0  0
 40 36  1  0  0  0
 34 35  1  0  0  0
 10 11  1  0  0  0
M  END
> <minimizedAffinity>
-9.52528

> <CNNscore>
0.1987276375

> <CNNaffinity>
6.3548173904

> <CNN_VS>
1.2628778219

> <CNNaffinity_variance>
0.3746498525

$$$$
[H]c1nc2c([H])c([H])c(N(c3c(F)c(OC([H])([H])[H])c([H])c(OC([H])([H])[H])c3F)C([H])([H])C([H])([H])OC([H])(C([H])([H])[H])C([H])([H])[H])nc2c([H])c1-c1c([H])nn(C([H])([H])[H])c1[H]


 35 38  0  0  0  0  0  0  0  0999 V2000
   -2.0252   21.6648  -22.2328 N   0  0  0  0  0  0  0  0  0  0  0  0
   -1.6688   21.9443  -23.5981 C   0  0  0  0  0  0  0  0  0  0  0  0
   -0.3680   21.7956  -24.0227 C   0  0  0  0  0  0  0  0  0  0  0  0
    0.0431   22.0469  -25.3257 C   0  0  0  0  0  0  0  0  0  0  0  0
   -0.9239   22.4653  -26.2153 C   0  0  0  0  0  0  0  0  0  0  0  0
   -0.5789   22.7266  -27.4978 N   0  0  0  0  0  0  0  0  0  0  0  0
   -1.5525   23.1329  -28.3245 C   0  0  0  0  0  0  0  0  0  0  0  0
   -2.8738   23.3036  -27.9682 C   0  0  0  0  0  0  0  0  0  0  0  0
   -3.2172   23.0365  -26.6666 C   0  0  0  0  0  0  0  0  0  0  0  0
   -2.2257   22.6099  -25.7735 C   0  0  0  0  0  0  0  0  0  0  0  0
   -2.5842   22.3535  -24.4925 N   0  0  0  0  0  0  0  0  0  0  0  0
   -3.8812   23.7558  -28.9353 C   0  0  0  0  0  0  0  0  0  0  0  0
   -4.9732   23.0503  -29.3931 C   0  0  0  0  0  0  0  0  0  0  0  0
   -5.6359   23.8542  -30.2764 N   0  0  0  0  0  0  0  0  0  0  0  0
   -5.0261   25.0075  -30.3939 N   0  0  0  0  0  0  0  0  0  0  0  0
   -5.4263   26.1197  -31.2346 C   0  0  0  0  0  0  0  0  0  0  0  0
   -3.9388   24.9734  -29.5763 C   0  0  0  0  0  0  0  0  0  0  0  0
    0.3665   22.6814  -19.5387 C   0  0  0  0  0  0  0  0  0  0  0  0
    1.0273   21.4939  -19.3575 C   0  0  0  0  0  0  0  0  0  0  0  0
    0.7157   20.3666  -20.0888 C   0  0  0  0  0  0  0  0  0  0  0  0
   -0.2855   20.4590  -21.0166 C   0  0  0  0  0  0  0  0  0  0  0  0
   -0.6357   19.3891  -21.7630 F   0  0  0  0  0  0  0  0  0  0  0  0
   -1.0007   21.6398  -21.2526 C   0  0  0  0  0  0  0  0  0  0  0  0
   -0.6515   22.7331  -20.4984 C   0  0  0  0  0  0  0  0  0  0  0  0
   -1.2469   23.9284  -20.6212 F   0  0  0  0  0  0  0  0  0  0  0  0
    2.0389   23.9935  -18.4023 C   0  0  0  0  0  0  0  0  0  0  0  0
    0.6973   23.8019  -18.7913 O   0  0  0  0  0  0  0  0  0  0  0  0
    1.3790   19.1610  -19.9123 O   0  0  0  0  0  0  0  0  0  0  0  0
    1.2010   18.4831  -18.6855 C   0  0  0  0  0  0  0  0  0  0  0  0
   -3.3832   21.3992  -21.8374 C   0  0  0  0  0  0  0  0  0  0  0  0
   -4.1344   22.6016  -21.3237 C   0  0  0  0  0  0  0  0  0  0  0  0
   -5.0331   22.9629  -22.3339 O   0  0  0  0  0  0  0  0  0  0  0  0
   -5.8107   21.9216  -22.7716 C   0  0  0  0  0  0  0  0  0  0  0  0
   -7.0982   21.7679  -22.0135 C   0  0  0  0  0  0  0  0  0  0  0  0
   -6.0958   22.0400  -24.2582 C   0  0  0  0  0  0  0  0  0  0  0  0
 26 27  1  0  0  0
 27 18  1  0  0  0
 18 19  2  0  0  0
 19 20  1  0  0  0
 20 28  1  0  0  0
 28 29  1  0  0  0
 20 21  2  0  0  0
 21 22  1  0  0  0
 21 23  1  0  0  0
 23  1  1  0  0  0
  1 30  1  0  0  0
 30 31  1  0  0  0
 31 32  1  0  0  0
 32 33  1  0  0  0
 33 34  1  0  0  0
 33 35  1  0  0  0
  1  2  1  0  0  0
  2  3  2  0  0  0
  3  4  1  0  0  0
  4  5  2  0  0  0
  5  6  1  0  0  0
  6  7  2  0  0  0
  7  8  1  0  0  0
  8  9  2  0  0  0
  9 10  1  0  0  0
 10 11  2  0  0  0
  8 12  1  0  0  0
 12 13  1  0  0  0
 13 14  2  0  0  0
 14 15  1  0  0  0
 15 16  1  0  0  0
 15 17  1  0  0  0
 23 24  2  0  0  0
 24 25  1  0  0  0
 24 18  1  0  0  0
 11  2  1  0  0  0
 17 12  2  0  0  0
 10  5  1  0  0  0
M  END
> <minimizedAffinity>
-7.75646

> <CNNscore>
0.8456066251

> <CNNaffinity>
7.9183511734

> <CNN_VS>
6.6958103180

> <CNNaffinity_variance>
0.1287711561

$$$$
[H]c1nc2c([H])c([H])c(N(c3c(F)c(OC([H])([H])[H])c([H])c(OC([H])([H])[H])c3F)C([H])([H])C([H])([H])OC([H])(C([H])([H])[H])C([H])([H])[H])nc2c([H])c1-c1c([H])nn(C([H])([H])[H])c1[H]


 35 38  0  0  0  0  0  0  0  0999 V2000
   -2.0105   21.5664  -22.1691 N   0  0  0  0  0  0  0  0  0  0  0  0
   -1.6540   21.8624  -23.5309 C   0  0  0  0  0  0  0  0  0  0  0  0
   -0.3497   21.7370  -23.9523 C   0  0  0  0  0  0  0  0  0  0  0  0
    0.0617   22.0051  -25.2519 C   0  0  0  0  0  0  0  0  0  0  0  0
   -0.9086   22.4158  -26.1413 C   0  0  0  0  0  0  0  0  0  0  0  0
   -0.5636   22.6927  -27.4205 N   0  0  0  0  0  0  0  0  0  0  0  0
   -1.5406   23.0907  -28.2472 C   0  0  0  0  0  0  0  0  0  0  0  0
   -2.8655   23.2382  -27.8940 C   0  0  0  0  0  0  0  0  0  0  0  0
   -3.2089   22.9554  -26.5958 C   0  0  0  0  0  0  0  0  0  0  0  0
   -2.2139   22.5368  -25.7028 C   0  0  0  0  0  0  0  0  0  0  0  0
   -2.5727   22.2647  -24.4251 N   0  0  0  0  0  0  0  0  0  0  0  0
   -3.8766   23.6827  -28.8609 C   0  0  0  0  0  0  0  0  0  0  0  0
   -4.9542   22.9630  -29.3305 C   0  0  0  0  0  0  0  0  0  0  0  0
   -5.6271   23.7642  -30.2086 N   0  0  0  0  0  0  0  0  0  0  0  0
   -5.0369   24.9291  -30.3117 N   0  0  0  0  0  0  0  0  0  0  0  0
   -5.4530   26.0428  -31.1429 C   0  0  0  0  0  0  0  0  0  0  0  0
   -3.9526   24.9056  -29.4897 C   0  0  0  0  0  0  0  0  0  0  0  0
    0.7235   20.4061  -19.8909 C   0  0  0  0  0  0  0  0  0  0  0  0
    0.9980   21.5827  -19.2429 C   0  0  0  0  0  0  0  0  0  0  0  0
    0.3172   22.7482  -19.5272 C   0  0  0  0  0  0  0  0  0  0  0  0
   -0.6563   22.7058  -20.4875 C   0  0  0  0  0  0  0  0  0  0  0  0
   -1.3570   23.8147  -20.8095 F   0  0  0  0  0  0  0  0  0  0  0  0
   -0.9874   21.5387  -21.1875 C   0  0  0  0  0  0  0  0  0  0  0  0
   -0.2803   20.4060  -20.8668 C   0  0  0  0  0  0  0  0  0  0  0  0
   -0.4941   19.2185  -21.4519 F   0  0  0  0  0  0  0  0  0  0  0  0
    2.6048   18.9551  -20.2973 C   0  0  0  0  0  0  0  0  0  0  0  0
    1.4216   19.2465  -19.5881 O   0  0  0  0  0  0  0  0  0  0  0  0
    0.5881   23.9431  -18.8766 O   0  0  0  0  0  0  0  0  0  0  0  0
    1.9051   24.1580  -18.4121 C   0  0  0  0  0  0  0  0  0  0  0  0
   -3.3673   21.2872  -21.7787 C   0  0  0  0  0  0  0  0  0  0  0  0
   -4.0981   22.4559  -21.1671 C   0  0  0  0  0  0  0  0  0  0  0  0
   -4.6920   23.1460  -22.2300 O   0  0  0  0  0  0  0  0  0  0  0  0
   -4.5947   24.5094  -22.1188 C   0  0  0  0  0  0  0  0  0  0  0  0
   -4.4298   25.2133  -23.4352 C   0  0  0  0  0  0  0  0  0  0  0  0
   -5.7848   25.0826  -21.3702 C   0  0  0  0  0  0  0  0  0  0  0  0
 26 27  1  0  0  0
 27 18  1  0  0  0
 18 19  2  0  0  0
 19 20  1  0  0  0
 20 28  1  0  0  0
 28 29  1  0  0  0
 20 21  2  0  0  0
 21 22  1  0  0  0
 21 23  1  0  0  0
 23  1  1  0  0  0
  1 30  1  0  0  0
 30 31  1  0  0  0
 31 32  1  0  0  0
 32 33  1  0  0  0
 33 34  1  0  0  0
 33 35  1  0  0  0
  1  2  1  0  0  0
  2  3  2  0  0  0
  3  4  1  0  0  0
  4  5  2  0  0  0
  5  6  1  0  0  0
  6  7  2  0  0  0
  7  8  1  0  0  0
  8  9  2  0  0  0
  9 10  1  0  0  0
 10 11  2  0  0  0
  8 12  1  0  0  0
 12 13  1  0  0  0
 13 14  2  0  0  0
 14 15  1  0  0  0
 15 16  1  0  0  0
 15 17  1  0  0  0
 23 24  2  0  0  0
 24 25  1  0  0  0
 24 18  1  0  0  0
 11  2  1  0  0  0
 17 12  2  0  0  0
 10  5  1  0  0  0
M  END
> <minimizedAffinity>
-7.75157

> <CNNscore>
0.6595105529

> <CNNaffinity>
7.7104096413

> <CNN_VS>
5.0850963593

> <CNNaffinity_variance>
0.1303299963

$$$$
[H]c1nc2c([H])c([H])c(N(c3c(F)c(OC([H])([H])[H])c([H])c(OC([H])([H])[H])c3F)C([H])([H])C([H])([H])OC([H])(C([H])([H])[H])C([H])([H])[H])nc2c([H])c1-c1c([H])nn(C([H])([H])[H])c1[H]


 35 38  0  0  0  0  0  0  0  0999 V2000
   -5.4508   23.6848  -25.9465 N   0  0  0  0  0  0  0  0  0  0  0  0
   -4.0727   23.2845  -26.0442 C   0  0  0  0  0  0  0  0  0  0  0  0
   -3.4380   23.2650  -27.2655 C   0  0  0  0  0  0  0  0  0  0  0  0
   -2.1103   22.8905  -27.4299 C   0  0  0  0  0  0  0  0  0  0  0  0
   -1.4199   22.5250  -26.2936 C   0  0  0  0  0  0  0  0  0  0  0  0
   -0.1236   22.1491  -26.3955 N   0  0  0  0  0  0  0  0  0  0  0  0
    0.5049   21.8002  -25.2643 C   0  0  0  0  0  0  0  0  0  0  0  0
   -0.0675   21.7959  -24.0096 C   0  0  0  0  0  0  0  0  0  0  0  0
   -1.3818   22.1785  -23.9130 C   0  0  0  0  0  0  0  0  0  0  0  0
   -2.0712   22.5498  -25.0747 C   0  0  0  0  0  0  0  0  0  0  0  0
   -3.3686   22.9221  -24.9587 N   0  0  0  0  0  0  0  0  0  0  0  0
    0.6903   21.3964  -22.8176 C   0  0  0  0  0  0  0  0  0  0  0  0
    0.2105   21.2551  -21.5333 C   0  0  0  0  0  0  0  0  0  0  0  0
    1.2584   20.8671  -20.7477 N   0  0  0  0  0  0  0  0  0  0  0  0
    2.3516   20.7596  -21.4613 N   0  0  0  0  0  0  0  0  0  0  0  0
    3.6652   20.3711  -20.9842 C   0  0  0  0  0  0  0  0  0  0  0  0
    2.0289   21.0811  -22.7436 C   0  0  0  0  0  0  0  0  0  0  0  0
   -7.0401   22.5909  -22.7388 C   0  0  0  0  0  0  0  0  0  0  0  0
   -7.2814   23.8157  -22.1721 C   0  0  0  0  0  0  0  0  0  0  0  0
   -6.9400   24.9926  -22.8054 C   0  0  0  0  0  0  0  0  0  0  0  0
   -6.3440   24.9116  -24.0343 C   0  0  0  0  0  0  0  0  0  0  0  0
   -5.9868   26.0294  -24.7031 F   0  0  0  0  0  0  0  0  0  0  0  0
   -6.0687   23.6945  -24.6701 C   0  0  0  0  0  0  0  0  0  0  0  0
   -6.4284   22.5524  -23.9976 C   0  0  0  0  0  0  0  0  0  0  0  0
   -6.2303   21.3201  -24.4879 F   0  0  0  0  0  0  0  0  0  0  0  0
   -8.1384   21.5031  -20.8893 C   0  0  0  0  0  0  0  0  0  0  0  0
   -7.3922   21.4207  -22.0828 O   0  0  0  0  0  0  0  0  0  0  0  0
   -7.1805   26.2362  -22.2397 O   0  0  0  0  0  0  0  0  0  0  0  0
   -7.9037   26.2809  -21.0267 C   0  0  0  0  0  0  0  0  0  0  0  0
   -6.2199   24.0621  -27.1029 C   0  0  0  0  0  0  0  0  0  0  0  0
   -5.8903   25.4244  -27.6593 C   0  0  0  0  0  0  0  0  0  0  0  0
   -6.2444   25.3907  -29.0128 O   0  0  0  0  0  0  0  0  0  0  0  0
   -5.3023   24.7918  -29.8094 C   0  0  0  0  0  0  0  0  0  0  0  0
   -5.8461   24.2903  -31.1165 C   0  0  0  0  0  0  0  0  0  0  0  0
   -4.1277   25.7208  -30.0592 C   0  0  0  0  0  0  0  0  0  0  0  0
 26 27  1  0  0  0
 27 18  1  0  0  0
 18 19  2  0  0  0
 19 20  1  0  0  0
 20 28  1  0  0  0
 28 29  1  0  0  0
 20 21  2  0  0  0
 21 22  1  0  0  0
 21 23  1  0  0  0
 23  1  1  0  0  0
  1 30  1  0  0  0
 30 31  1  0  0  0
 31 32  1  0  0  0
 32 33  1  0  0  0
 33 34  1  0  0  0
 33 35  1  0  0  0
  1  2  1  0  0  0
  2  3  2  0  0  0
  3  4  1  0  0  0
  4  5  2  0  0  0
  5  6  1  0  0  0
  6  7  2  0  0  0
  7  8  1  0  0  0
  8  9  2  0  0  0
  9 10  1  0  0  0
 10 11  2  0  0  0
  8 12  1  0  0  0
 12 13  1  0  0  0
 13 14  2  0  0  0
 14 15  1  0  0  0
 15 16  1  0  0  0
 15 17  1  0  0  0
 23 24  2  0  0  0
 24 25  1  0  0  0
 24 18  1  0  0  0
 11  2  1  0  0  0
 17 12  2  0  0  0
 10  5  1  0  0  0
M  END
> <minimizedAffinity>
-8.96879

> <CNNscore>
0.4982312620

> <CNNaffinity>
7.6736192703

> <CNN_VS>
3.8232369423

> <CNNaffinity_variance>
0.0910785273

$$$$
[H]c1nc2c([H])c([H])c(N(c3c(F)c(OC([H])([H])[H])c([H])c(OC([H])([H])[H])c3F)C([H])([H])C([H])([H])OC([H])(C([H])([H])[H])C([H])([H])[H])nc2c([H])c1-c1c([H])nn(C([H])([H])[H])c1[H]


 35 38  0  0  0  0  0  0  0  0999 V2000
   -1.2290   21.7920  -21.2996 N   0  0  0  0  0  0  0  0  0  0  0  0
   -1.0755   21.9546  -22.7205 C   0  0  0  0  0  0  0  0  0  0  0  0
    0.1422   21.7255  -23.3202 C   0  0  0  0  0  0  0  0  0  0  0  0
    0.3584   21.8626  -24.6856 C   0  0  0  0  0  0  0  0  0  0  0  0
   -0.7205   22.2492  -25.4525 C   0  0  0  0  0  0  0  0  0  0  0  0
   -0.5662   22.4003  -26.7887 N   0  0  0  0  0  0  0  0  0  0  0  0
   -1.6425   22.7798  -27.4916 C   0  0  0  0  0  0  0  0  0  0  0  0
   -2.8900   23.0265  -26.9580 C   0  0  0  0  0  0  0  0  0  0  0  0
   -3.0399   22.8710  -25.6028 C   0  0  0  0  0  0  0  0  0  0  0  0
   -1.9365   22.4755  -24.8355 C   0  0  0  0  0  0  0  0  0  0  0  0
   -2.1043   22.3298  -23.4991 N   0  0  0  0  0  0  0  0  0  0  0  0
   -4.0196   23.4425  -27.7980 C   0  0  0  0  0  0  0  0  0  0  0  0
   -5.3608   23.3637  -27.4902 C   0  0  0  0  0  0  0  0  0  0  0  0
   -6.0531   23.8631  -28.5565 N   0  0  0  0  0  0  0  0  0  0  0  0
   -5.2290   24.2445  -29.5007 N   0  0  0  0  0  0  0  0  0  0  0  0
   -5.5848   24.8249  -30.7816 C   0  0  0  0  0  0  0  0  0  0  0  0
   -3.9664   23.9957  -29.0581 C   0  0  0  0  0  0  0  0  0  0  0  0
    1.6953   21.8251  -18.9631 C   0  0  0  0  0  0  0  0  0  0  0  0
    2.0949   20.5185  -19.0761 C   0  0  0  0  0  0  0  0  0  0  0  0
    1.4375   19.6226  -19.8933 C   0  0  0  0  0  0  0  0  0  0  0  0
    0.3576   20.0725  -20.6025 C   0  0  0  0  0  0  0  0  0  0  0  0
   -0.3265   19.2422  -21.4191 F   0  0  0  0  0  0  0  0  0  0  0  0
   -0.1040   21.3931  -20.5339 C   0  0  0  0  0  0  0  0  0  0  0  0
    0.5854   22.2448  -19.7061 C   0  0  0  0  0  0  0  0  0  0  0  0
    0.2590   23.5357  -19.5469 F   0  0  0  0  0  0  0  0  0  0  0  0
    2.1831   22.6194  -16.7402 C   0  0  0  0  0  0  0  0  0  0  0  0
    2.3720   22.7079  -18.1346 O   0  0  0  0  0  0  0  0  0  0  0  0
    1.8350   18.2989  -20.0139 O   0  0  0  0  0  0  0  0  0  0  0  0
    3.2206   18.0226  -20.0084 C   0  0  0  0  0  0  0  0  0  0  0  0
   -2.4884   22.0097  -20.6380 C   0  0  0  0  0  0  0  0  0  0  0  0
   -2.7284   21.1282  -19.4384 C   0  0  0  0  0  0  0  0  0  0  0  0
   -4.1167   20.9965  -19.3206 O   0  0  0  0  0  0  0  0  0  0  0  0
   -4.5901   21.2993  -18.0696 C   0  0  0  0  0  0  0  0  0  0  0  0
   -5.0924   22.7086  -17.9379 C   0  0  0  0  0  0  0  0  0  0  0  0
   -5.6710   20.3220  -17.6433 C   0  0  0  0  0  0  0  0  0  0  0  0
 26 27  1  0  0  0
 27 18  1  0  0  0
 18 19  2  0  0  0
 19 20  1  0  0  0
 20 28  1  0  0  0
 28 29  1  0  0  0
 20 21  2  0  0  0
 21 22  1  0  0  0
 21 23  1  0  0  0
 23  1  1  0  0  0
  1 30  1  0  0  0
 30 31  1  0  0  0
 31 32  1  0  0  0
 32 33  1  0  0  0
 33 34  1  0  0  0
 33 35  1  0  0  0
  1  2  1  0  0  0
  2  3  2  0  0  0
  3  4  1  0  0  0
  4  5  2  0  0  0
  5  6  1  0  0  0
  6  7  2  0  0  0
  7  8  1  0  0  0
  8  9  2  0  0  0
  9 10  1  0  0  0
 10 11  2  0  0  0
  8 12  1  0  0  0
 12 13  1  0  0  0
 13 14  2  0  0  0
 14 15  1  0  0  0
 15 16  1  0  0  0
 15 17  1  0  0  0
 23 24  2  0  0  0
 24 25  1  0  0  0
 24 18  1  0  0  0
 11  2  1  0  0  0
 17 12  2  0  0  0
 10  5  1  0  0  0
M  END
> <minimizedAffinity>
-6.94923

> <CNNscore>
0.4703862369

> <CNNaffinity>
7.3643584251

> <CNN_VS>
3.4640927315

> <CNNaffinity_variance>
0.3602543473

$$$$
[H]c1nc2c([H])c([H])c(N(c3c(F)c(OC([H])([H])[H])c([H])c(OC([H])([H])[H])c3F)C([H])([H])C([H])([H])OC([H])(C([H])([H])[H])C([H])([H])[H])nc2c([H])c1-c1c([H])nn(C([H])([H])[H])c1[H]


 35 38  0  0  0  0  0  0  0  0999 V2000
    0.3769   20.7713  -20.6373 N   0  0  0  0  0  0  0  0  0  0  0  0
    0.3694   21.1260  -22.0312 C   0  0  0  0  0  0  0  0  0  0  0  0
    1.5418   21.1414  -22.7523 C   0  0  0  0  0  0  0  0  0  0  0  0
    1.6048   21.4729  -24.0999 C   0  0  0  0  0  0  0  0  0  0  0  0
    0.4163   21.7986  -24.7186 C   0  0  0  0  0  0  0  0  0  0  0  0
    0.4192   22.1317  -26.0305 N   0  0  0  0  0  0  0  0  0  0  0  0
   -0.7597   22.4430  -26.5871 C   0  0  0  0  0  0  0  0  0  0  0  0
   -1.9702   22.4488  -25.9266 C   0  0  0  0  0  0  0  0  0  0  0  0
   -1.9665   22.1097  -24.5969 C   0  0  0  0  0  0  0  0  0  0  0  0
   -0.7525   21.7786  -23.9809 C   0  0  0  0  0  0  0  0  0  0  0  0
   -0.7695   21.4487  -22.6671 N   0  0  0  0  0  0  0  0  0  0  0  0
   -3.2197   22.8054  -26.6095 C   0  0  0  0  0  0  0  0  0  0  0  0
   -4.4255   23.1298  -26.0258 C   0  0  0  0  0  0  0  0  0  0  0  0
   -5.3083   23.3924  -27.0345 N   0  0  0  0  0  0  0  0  0  0  0  0
   -4.7279   23.2518  -28.2004 N   0  0  0  0  0  0  0  0  0  0  0  0
   -5.3373   23.4443  -29.5026 C   0  0  0  0  0  0  0  0  0  0  0  0
   -3.4371   22.8894  -27.9668 C   0  0  0  0  0  0  0  0  0  0  0  0
    3.6564   20.6654  -18.8357 C   0  0  0  0  0  0  0  0  0  0  0  0
    3.6562   21.9203  -18.2836 C   0  0  0  0  0  0  0  0  0  0  0  0
    2.6162   22.8044  -18.4817 C   0  0  0  0  0  0  0  0  0  0  0  0
    1.5642   22.3961  -19.2553 C   0  0  0  0  0  0  0  0  0  0  0  0
    0.5169   23.2174  -19.4853 F   0  0  0  0  0  0  0  0  0  0  0  0
    1.5002   21.1293  -19.8491 C   0  0  0  0  0  0  0  0  0  0  0  0
    2.5607   20.2871  -19.6208 C   0  0  0  0  0  0  0  0  0  0  0  0
    2.6309   19.0450  -20.1213 F   0  0  0  0  0  0  0  0  0  0  0  0
    6.0307   20.2970  -18.6429 C   0  0  0  0  0  0  0  0  0  0  0  0
    4.7138   19.7936  -18.6227 O   0  0  0  0  0  0  0  0  0  0  0  0
    2.6075   24.0758  -17.9268 O   0  0  0  0  0  0  0  0  0  0  0  0
    3.7922   24.5341  -17.3080 C   0  0  0  0  0  0  0  0  0  0  0  0
   -0.7121   20.0564  -20.0257 C   0  0  0  0  0  0  0  0  0  0  0  0
   -1.7076   20.9276  -19.3019 C   0  0  0  0  0  0  0  0  0  0  0  0
   -1.5829   20.6187  -17.9426 O   0  0  0  0  0  0  0  0  0  0  0  0
   -2.2466   21.4928  -17.1204 C   0  0  0  0  0  0  0  0  0  0  0  0
   -2.9197   22.6187  -17.8520 C   0  0  0  0  0  0  0  0  0  0  0  0
   -3.2549   20.7649  -16.2493 C   0  0  0  0  0  0  0  0  0  0  0  0
 26 27  1  0  0  0
 27 18  1  0  0  0
 18 19  2  0  0  0
 19 20  1  0  0  0
 20 28  1  0  0  0
 28 29  1  0  0  0
 20 21  2  0  0  0
 21 22  1  0  0  0
 21 23  1  0  0  0
 23  1  1  0  0  0
  1 30  1  0  0  0
 30 31  1  0  0  0
 31 32  1  0  0  0
 32 33  1  0  0  0
 33 34  1  0  0  0
 33 35  1  0  0  0
  1  2  1  0  0  0
  2  3  2  0  0  0
  3  4  1  0  0  0
  4  5  2  0  0  0
  5  6  1  0  0  0
  6  7  2  0  0  0
  7  8  1  0  0  0
  8  9  2  0  0  0
  9 10  1  0  0  0
 10 11  2  0  0  0
  8 12  1  0  0  0
 12 13  1  0  0  0
 13 14  2  0  0  0
 14 15  1  0  0  0
 15 16  1  0  0  0
 15 17  1  0  0  0
 23 24  2  0  0  0
 24 25  1  0  0  0
 24 18  1  0  0  0
 11  2  1  0  0  0
 17 12  2  0  0  0
 10  5  1  0  0  0
M  END
> <minimizedAffinity>
-6.60941

> <CNNscore>
0.4232595563

> <CNNaffinity>
7.1469511986

> <CNN_VS>
3.0250153542

> <CNNaffinity_variance>
0.1694028080

$$$$
[H]c1nc2c([H])c([H])c(N(c3c(F)c(OC([H])([H])[H])c([H])c(OC([H])([H])[H])c3F)C([H])([H])C([H])([H])OC([H])(C([H])([H])[H])C([H])([H])[H])nc2c([H])c1-c1c([H])nn(C([H])([H])[H])c1[H]


 35 38  0  0  0  0  0  0  0  0999 V2000
   -5.4009   22.9962  -24.9702 N   0  0  0  0  0  0  0  0  0  0  0  0
   -4.0064   22.7505  -25.2236 C   0  0  0  0  0  0  0  0  0  0  0  0
   -3.4975   22.8747  -26.4965 C   0  0  0  0  0  0  0  0  0  0  0  0
   -2.1621   22.6536  -26.8095 C   0  0  0  0  0  0  0  0  0  0  0  0
   -1.3294   22.2925  -25.7715 C   0  0  0  0  0  0  0  0  0  0  0  0
   -0.0188   22.0627  -26.0197 N   0  0  0  0  0  0  0  0  0  0  0  0
    0.7504   21.7118  -24.9797 C   0  0  0  0  0  0  0  0  0  0  0  0
    0.3087   21.5684  -23.6811 C   0  0  0  0  0  0  0  0  0  0  0  0
   -1.0209   21.8033  -23.4359 C   0  0  0  0  0  0  0  0  0  0  0  0
   -1.8557   22.1718  -24.4990 C   0  0  0  0  0  0  0  0  0  0  0  0
   -3.1655   22.3972  -24.2369 N   0  0  0  0  0  0  0  0  0  0  0  0
    1.2171   21.1772  -22.5964 C   0  0  0  0  0  0  0  0  0  0  0  0
    2.5621   20.8935  -22.6968 C   0  0  0  0  0  0  0  0  0  0  0  0
    3.0064   20.5793  -21.4439 N   0  0  0  0  0  0  0  0  0  0  0  0
    2.0260   20.6504  -20.5782 N   0  0  0  0  0  0  0  0  0  0  0  0
    2.1049   20.3891  -19.1535 C   0  0  0  0  0  0  0  0  0  0  0  0
    0.9091   21.0175  -21.2635 C   0  0  0  0  0  0  0  0  0  0  0  0
   -7.0400   22.0158  -21.7508 C   0  0  0  0  0  0  0  0  0  0  0  0
   -6.7166   23.1070  -20.9864 C   0  0  0  0  0  0  0  0  0  0  0  0
   -5.9769   24.1569  -21.4895 C   0  0  0  0  0  0  0  0  0  0  0  0
   -5.5641   24.0862  -22.7919 C   0  0  0  0  0  0  0  0  0  0  0  0
   -4.8369   25.0835  -23.3406 F   0  0  0  0  0  0  0  0  0  0  0  0
   -5.8588   23.0020  -23.6280 C   0  0  0  0  0  0  0  0  0  0  0  0
   -6.5980   21.9831  -23.0789 C   0  0  0  0  0  0  0  0  0  0  0  0
   -6.9576   20.8874  -23.7633 F   0  0  0  0  0  0  0  0  0  0  0  0
   -8.2057   21.0423  -19.8791 C   0  0  0  0  0  0  0  0  0  0  0  0
   -7.7849   20.9718  -21.2229 O   0  0  0  0  0  0  0  0  0  0  0  0
   -5.6453   25.2649  -20.7234 O   0  0  0  0  0  0  0  0  0  0  0  0
   -6.5342   25.6451  -19.6931 C   0  0  0  0  0  0  0  0  0  0  0  0
   -6.3419   23.2230  -26.0352 C   0  0  0  0  0  0  0  0  0  0  0  0
   -6.8230   24.6471  -26.1554 C   0  0  0  0  0  0  0  0  0  0  0  0
   -6.6532   25.0058  -27.4975 O   0  0  0  0  0  0  0  0  0  0  0  0
   -5.6888   25.9616  -27.6898 C   0  0  0  0  0  0  0  0  0  0  0  0
   -5.0037   26.3926  -26.4246 C   0  0  0  0  0  0  0  0  0  0  0  0
   -4.6588   25.5016  -28.7060 C   0  0  0  0  0  0  0  0  0  0  0  0
 26 27  1  0  0  0
 27 18  1  0  0  0
 18 19  2  0  0  0
 19 20  1  0  0  0
 20 28  1  0  0  0
 28 29  1  0  0  0
 20 21  2  0  0  0
 21 22  1  0  0  0
 21 23  1  0  0  0
 23  1  1  0  0  0
  1 30  1  0  0  0
 30 31  1  0  0  0
 31 32  1  0  0  0
 32 33  1  0  0  0
 33 34  1  0  0  0
 33 35  1  0  0  0
  1  2  1  0  0  0
  2  3  2  0  0  0
  3  4  1  0  0  0
  4  5  2  0  0  0
  5  6  1  0  0  0
  6  7  2  0  0  0
  7  8  1  0  0  0
  8  9  2  0  0  0
  9 10  1  0  0  0
 10 11  2  0  0  0
  8 12  1  0  0  0
 12 13  1  0  0  0
 13 14  2  0  0  0
 14 15  1  0  0  0
 15 16  1  0  0  0
 15 17  1  0  0  0
 23 24  2  0  0  0
 24 25  1  0  0  0
 24 18  1  0  0  0
 11  2  1  0  0  0
 17 12  2  0  0  0
 10  5  1  0  0  0
M  END
> <minimizedAffinity>
-8.30153

> <CNNscore>
0.4221248627

> <CNNaffinity>
7.3941755295

> <CNN_VS>
3.1212654114

> <CNNaffinity_variance>
0.0943214893

$$$$
[H]c1nc2c([H])c([H])c(N(c3c(F)c(OC([H])([H])[H])c([H])c(OC([H])([H])[H])c3F)C([H])([H])C([H])([H])OC([H])(C([H])([H])[H])C([H])([H])[H])nc2c([H])c1-c1c([H])nn(C([H])([H])[H])c1[H]


 35 38  0  0  0  0  0  0  0  0999 V2000
    0.8716   20.6982  -20.6625 N   0  0  0  0  0  0  0  0  0  0  0  0
    0.7356   21.0672  -22.0461 C   0  0  0  0  0  0  0  0  0  0  0  0
    1.8380   21.1008  -22.8696 C   0  0  0  0  0  0  0  0  0  0  0  0
    1.7765   21.4468  -24.2136 C   0  0  0  0  0  0  0  0  0  0  0  0
    0.5344   21.7679  -24.7191 C   0  0  0  0  0  0  0  0  0  0  0  0
    0.4163   22.1147  -26.0221 N   0  0  0  0  0  0  0  0  0  0  0  0
   -0.8104   22.4208  -26.4668 C   0  0  0  0  0  0  0  0  0  0  0  0
   -1.9565   22.4087  -25.6999 C   0  0  0  0  0  0  0  0  0  0  0  0
   -1.8301   22.0558  -24.3798 C   0  0  0  0  0  0  0  0  0  0  0  0
   -0.5629   21.7296  -23.8794 C   0  0  0  0  0  0  0  0  0  0  0  0
   -0.4586   21.3861  -22.5731 N   0  0  0  0  0  0  0  0  0  0  0  0
   -3.2654   22.7608  -26.2635 C   0  0  0  0  0  0  0  0  0  0  0  0
   -4.4417   22.9656  -25.5750 C   0  0  0  0  0  0  0  0  0  0  0  0
   -5.4033   23.2738  -26.4948 N   0  0  0  0  0  0  0  0  0  0  0  0
   -4.8989   23.2729  -27.7037 N   0  0  0  0  0  0  0  0  0  0  0  0
   -5.6050   23.5531  -28.9395 C   0  0  0  0  0  0  0  0  0  0  0  0
   -3.5797   22.9589  -27.5897 C   0  0  0  0  0  0  0  0  0  0  0  0
    4.3530   20.7422  -19.2878 C   0  0  0  0  0  0  0  0  0  0  0  0
    4.3016   21.9082  -18.5684 C   0  0  0  0  0  0  0  0  0  0  0  0
    3.1626   22.6846  -18.5177 C   0  0  0  0  0  0  0  0  0  0  0  0
    2.0639   22.2597  -19.2133 C   0  0  0  0  0  0  0  0  0  0  0  0
    0.9197   22.9774  -19.2020 F   0  0  0  0  0  0  0  0  0  0  0  0
    2.0477   21.0799  -19.9679 C   0  0  0  0  0  0  0  0  0  0  0  0
    3.2066   20.3433  -19.9854 C   0  0  0  0  0  0  0  0  0  0  0  0
    3.3326   19.1915  -20.6604 F   0  0  0  0  0  0  0  0  0  0  0  0
    6.0460   19.4901  -18.1148 C   0  0  0  0  0  0  0  0  0  0  0  0
    5.5099   19.9780  -19.3241 O   0  0  0  0  0  0  0  0  0  0  0  0
    3.1016   23.8655  -17.7923 O   0  0  0  0  0  0  0  0  0  0  0  0
    3.0705   23.7735  -16.3827 C   0  0  0  0  0  0  0  0  0  0  0  0
   -0.1412   19.9460  -19.9699 C   0  0  0  0  0  0  0  0  0  0  0  0
   -0.0715   18.4547  -20.1826 C   0  0  0  0  0  0  0  0  0  0  0  0
    0.4126   17.9109  -18.9874 O   0  0  0  0  0  0  0  0  0  0  0  0
    1.1930   16.7980  -19.1700 C   0  0  0  0  0  0  0  0  0  0  0  0
    1.3953   16.4313  -20.6124 C   0  0  0  0  0  0  0  0  0  0  0  0
    2.5372   16.9545  -18.4817 C   0  0  0  0  0  0  0  0  0  0  0  0
 26 27  1  0  0  0
 27 18  1  0  0  0
 18 19  2  0  0  0
 19 20  1  0  0  0
 20 28  1  0  0  0
 28 29  1  0  0  0
 20 21  2  0  0  0
 21 22  1  0  0  0
 21 23  1  0  0  0
 23  1  1  0  0  0
  1 30  1  0  0  0
 30 31  1  0  0  0
 31 32  1  0  0  0
 32 33  1  0  0  0
 33 34  1  0  0  0
 33 35  1  0  0  0
  1  2  1  0  0  0
  2  3  2  0  0  0
  3  4  1  0  0  0
  4  5  2  0  0  0
  5  6  1  0  0  0
  6  7  2  0  0  0
  7  8  1  0  0  0
  8  9  2  0  0  0
  9 10  1  0  0  0
 10 11  2  0  0  0
  8 12  1  0  0  0
 12 13  1  0  0  0
 13 14  2  0  0  0
 14 15  1  0  0  0
 15 16  1  0  0  0
 15 17  1  0  0  0
 23 24  2  0  0  0
 24 25  1  0  0  0
 24 18  1  0  0  0
 11  2  1  0  0  0
 17 12  2  0  0  0
 10  5  1  0  0  0
M  END
> <minimizedAffinity>
-6.39573

> <CNNscore>
0.3897190988

> <CNNaffinity>
6.9819421768

> <CNN_VS>
2.7209961414

> <CNNaffinity_variance>
0.1828916967

$$$$
[H]c1nc2c([H])c([H])c(N(c3c(F)c(OC([H])([H])[H])c([H])c(OC([H])([H])[H])c3F)C([H])([H])C([H])([H])OC([H])(C([H])([H])[H])C([H])([H])[H])nc2c([H])c1-c1c([H])nn(C([H])([H])[H])c1[H]


 35 38  0  0  0  0  0  0  0  0999 V2000
   -5.4195   23.7798  -25.9617 N   0  0  0  0  0  0  0  0  0  0  0  0
   -4.0482   23.3507  -26.0296 C   0  0  0  0  0  0  0  0  0  0  0  0
   -3.3895   23.3124  -27.2377 C   0  0  0  0  0  0  0  0  0  0  0  0
   -2.0668   22.9100  -27.3734 C   0  0  0  0  0  0  0  0  0  0  0  0
   -1.4071   22.5356  -26.2218 C   0  0  0  0  0  0  0  0  0  0  0  0
   -0.1171   22.1326  -26.2957 N   0  0  0  0  0  0  0  0  0  0  0  0
    0.4809   21.7762  -25.1504 C   0  0  0  0  0  0  0  0  0  0  0  0
   -0.1167   21.7895  -23.9077 C   0  0  0  0  0  0  0  0  0  0  0  0
   -1.4245   22.1996  -23.8394 C   0  0  0  0  0  0  0  0  0  0  0  0
   -2.0824   22.5795  -25.0165 C   0  0  0  0  0  0  0  0  0  0  0  0
   -3.3738   22.9790  -24.9284 N   0  0  0  0  0  0  0  0  0  0  0  0
    0.6084   21.3801  -22.6988 C   0  0  0  0  0  0  0  0  0  0  0  0
    1.9382   21.0304  -22.6025 C   0  0  0  0  0  0  0  0  0  0  0  0
    2.1846   20.7239  -21.2944 N   0  0  0  0  0  0  0  0  0  0  0  0
    1.0966   20.8611  -20.5781 N   0  0  0  0  0  0  0  0  0  0  0  0
    0.9602   20.6287  -19.1528 C   0  0  0  0  0  0  0  0  0  0  0  0
    0.1076   21.2655  -21.4210 C   0  0  0  0  0  0  0  0  0  0  0  0
   -6.9477   25.0882  -22.8051 C   0  0  0  0  0  0  0  0  0  0  0  0
   -7.2771   23.9027  -22.2003 C   0  0  0  0  0  0  0  0  0  0  0  0
   -7.0162   22.6844  -22.7923 C   0  0  0  0  0  0  0  0  0  0  0  0
   -6.4104   22.6827  -24.0190 C   0  0  0  0  0  0  0  0  0  0  0  0
   -6.1296   21.5211  -24.6485 F   0  0  0  0  0  0  0  0  0  0  0  0
   -6.0475   23.8558  -24.6925 C   0  0  0  0  0  0  0  0  0  0  0  0
   -6.3290   25.0419  -24.0601 C   0  0  0  0  0  0  0  0  0  0  0  0
   -6.0332   26.2401  -24.5845 F   0  0  0  0  0  0  0  0  0  0  0  0
   -8.0628   26.3218  -21.0601 C   0  0  0  0  0  0  0  0  0  0  0  0
   -7.2202   26.3012  -22.1904 O   0  0  0  0  0  0  0  0  0  0  0  0
   -7.3457   21.4802  -22.1876 O   0  0  0  0  0  0  0  0  0  0  0  0
   -8.1465   21.5229  -21.0243 C   0  0  0  0  0  0  0  0  0  0  0  0
   -6.1719   24.1206  -27.1401 C   0  0  0  0  0  0  0  0  0  0  0  0
   -5.9157   25.5093  -27.6691 C   0  0  0  0  0  0  0  0  0  0  0  0
   -6.2364   25.4749  -29.0310 O   0  0  0  0  0  0  0  0  0  0  0  0
   -5.2983   24.8317  -29.7972 C   0  0  0  0  0  0  0  0  0  0  0  0
   -5.8360   24.3079  -31.0981 C   0  0  0  0  0  0  0  0  0  0  0  0
   -4.0978   25.7247  -30.0548 C   0  0  0  0  0  0  0  0  0  0  0  0
 26 27  1  0  0  0
 27 18  1  0  0  0
 18 19  2  0  0  0
 19 20  1  0  0  0
 20 28  1  0  0  0
 28 29  1  0  0  0
 20 21  2  0  0  0
 21 22  1  0  0  0
 21 23  1  0  0  0
 23  1  1  0  0  0
  1 30  1  0  0  0
 30 31  1  0  0  0
 31 32  1  0  0  0
 32 33  1  0  0  0
 33 34  1  0  0  0
 33 35  1  0  0  0
  1  2  1  0  0  0
  2  3  2  0  0  0
  3  4  1  0  0  0
  4  5  2  0  0  0
  5  6  1  0  0  0
  6  7  2  0  0  0
  7  8  1  0  0  0
  8  9  2  0  0  0
  9 10  1  0  0  0
 10 11  2  0  0  0
  8 12  1  0  0  0
 12 13  1  0  0  0
 13 14  2  0  0  0
 14 15  1  0  0  0
 15 16  1  0  0  0
 15 17  1  0  0  0
 23 24  2  0  0  0
 24 25  1  0  0  0
 24 18  1  0  0  0
 11  2  1  0  0  0
 17 12  2  0  0  0
 10  5  1  0  0  0
M  END
> <minimizedAffinity>
-8.92685

> <CNNscore>
0.3855565488

> <CNNaffinity>
7.5448670387

> <CNN_VS>
2.9089729786

> <CNNaffinity_variance>
0.0933138728

$$$$
[H]c1nc2c([H])c([H])c(N(c3c(F)c(OC([H])([H])[H])c([H])c(OC([H])([H])[H])c3F)C([H])([H])C([H])([H])OC([H])(C([H])([H])[H])C([H])([H])[H])nc2c([H])c1-c1c([H])nn(C([H])([H])[H])c1[H]


 35 38  0  0  0  0  0  0  0  0999 V2000
   -0.2725   21.8086  -21.1636 N   0  0  0  0  0  0  0  0  0  0  0  0
   -0.2736   21.8984  -22.5991 C   0  0  0  0  0  0  0  0  0  0  0  0
    0.8733   21.6376  -23.3142 C   0  0  0  0  0  0  0  0  0  0  0  0
    0.9406   21.7047  -24.7002 C   0  0  0  0  0  0  0  0  0  0  0  0
   -0.2162   22.0531  -25.3649 C   0  0  0  0  0  0  0  0  0  0  0  0
   -0.2075   22.1357  -26.7159 N   0  0  0  0  0  0  0  0  0  0  0  0
   -1.3548   22.4802  -27.3170 C   0  0  0  0  0  0  0  0  0  0  0  0
   -2.5386   22.7552  -26.6652 C   0  0  0  0  0  0  0  0  0  0  0  0
   -2.5411   22.6692  -25.2957 C   0  0  0  0  0  0  0  0  0  0  0  0
   -1.3597   22.3120  -24.6327 C   0  0  0  0  0  0  0  0  0  0  0  0
   -1.3820   22.2346  -23.2803 N   0  0  0  0  0  0  0  0  0  0  0  0
   -3.7540   23.1292  -27.3986 C   0  0  0  0  0  0  0  0  0  0  0  0
   -5.0130   23.3338  -26.8765 C   0  0  0  0  0  0  0  0  0  0  0  0
   -5.8352   23.6666  -27.9152 N   0  0  0  0  0  0  0  0  0  0  0  0
   -5.1678   23.6810  -29.0422 N   0  0  0  0  0  0  0  0  0  0  0  0
   -5.6934   23.9886  -30.3588 C   0  0  0  0  0  0  0  0  0  0  0  0
   -3.8795   23.3525  -28.7518 C   0  0  0  0  0  0  0  0  0  0  0  0
    1.5309   18.7343  -20.0197 C   0  0  0  0  0  0  0  0  0  0  0  0
    2.5157   19.3138  -19.2620 C   0  0  0  0  0  0  0  0  0  0  0  0
    2.6113   20.6816  -19.1122 C   0  0  0  0  0  0  0  0  0  0  0  0
    1.6858   21.4638  -19.7472 C   0  0  0  0  0  0  0  0  0  0  0  0
    1.7279   22.8095  -19.6381 F   0  0  0  0  0  0  0  0  0  0  0  0
    0.6547   20.9382  -20.5360 C   0  0  0  0  0  0  0  0  0  0  0  0
    0.6037   19.5708  -20.6527 C   0  0  0  0  0  0  0  0  0  0  0  0
   -0.3309   18.9310  -21.3706 F   0  0  0  0  0  0  0  0  0  0  0  0
    2.2348   16.7221  -21.1447 C   0  0  0  0  0  0  0  0  0  0  0  0
    1.4549   17.3562  -20.1559 O   0  0  0  0  0  0  0  0  0  0  0  0
    3.6041   21.2765  -18.3474 O   0  0  0  0  0  0  0  0  0  0  0  0
    4.7640   21.7342  -19.0119 C   0  0  0  0  0  0  0  0  0  0  0  0
   -1.1891   22.5639  -20.3508 C   0  0  0  0  0  0  0  0  0  0  0  0
   -2.5367   21.9157  -20.1560 C   0  0  0  0  0  0  0  0  0  0  0  0
   -3.4356   22.9542  -19.8876 O   0  0  0  0  0  0  0  0  0  0  0  0
   -4.5603   22.9198  -20.6714 C   0  0  0  0  0  0  0  0  0  0  0  0
   -4.6097   21.7458  -21.6069 C   0  0  0  0  0  0  0  0  0  0  0  0
   -5.8188   22.9595  -19.8230 C   0  0  0  0  0  0  0  0  0  0  0  0
 26 27  1  0  0  0
 27 18  1  0  0  0
 18 19  2  0  0  0
 19 20  1  0  0  0
 20 28  1  0  0  0
 28 29  1  0  0  0
 20 21  2  0  0  0
 21 22  1  0  0  0
 21 23  1  0  0  0
 23  1  1  0  0  0
  1 30  1  0  0  0
 30 31  1  0  0  0
 31 32  1  0  0  0
 32 33  1  0  0  0
 33 34  1  0  0  0
 33 35  1  0  0  0
  1  2  1  0  0  0
  2  3  2  0  0  0
  3  4  1  0  0  0
  4  5  2  0  0  0
  5  6  1  0  0  0
  6  7  2  0  0  0
  7  8  1  0  0  0
  8  9  2  0  0  0
  9 10  1  0  0  0
 10 11  2  0  0  0
  8 12  1  0  0  0
 12 13  1  0  0  0
 13 14  2  0  0  0
 14 15  1  0  0  0
 15 16  1  0  0  0
 15 17  1  0  0  0
 23 24  2  0  0  0
 24 25  1  0  0  0
 24 18  1  0  0  0
 11  2  1  0  0  0
 17 12  2  0  0  0
 10  5  1  0  0  0
M  END
> <minimizedAffinity>
-6.95634

> <CNNscore>
0.3744801283

> <CNNaffinity>
7.2551946640

> <CNN_VS>
2.7169263363

> <CNNaffinity_variance>
0.1227372512

$$$$
[H]c1nc(N([H])c2nn([H])c(C([H])([H])C([H])([H])c3c([H])c(OC([H])([H])[H])c([H])c(OC([H])([H])[H])c3[H])c2[H])c2c([H])c([H])c(N3C([H])([H])C([H])([H])N(C([H])([H])C([H])([H])OC([H])([H])[H])C([H])([H])C3([H])[H])c([H])c2n1


 40 44  0  0  0  0  0  0  0  0999 V2000
   -6.7059   24.3216  -24.9829 C   0  0  0  0  0  0  0  0  0  0  0  0
   -5.8924   23.2316  -25.1864 C   0  0  0  0  0  0  0  0  0  0  0  0
   -5.1835   23.0390  -26.3800 C   0  0  0  0  0  0  0  0  0  0  0  0
   -5.2731   23.9350  -27.3989 C   0  0  0  0  0  0  0  0  0  0  0  0
   -4.5929   23.7697  -28.5705 C   0  0  0  0  0  0  0  0  0  0  0  0
   -4.7460   24.7183  -29.5302 N   0  0  0  0  0  0  0  0  0  0  0  0
   -5.5357   25.7822  -29.3403 C   0  0  0  0  0  0  0  0  0  0  0  0
   -6.1979   25.9371  -28.1918 N   0  0  0  0  0  0  0  0  0  0  0  0
   -6.0979   25.0492  -27.2049 C   0  0  0  0  0  0  0  0  0  0  0  0
   -6.7947   25.2258  -26.0146 C   0  0  0  0  0  0  0  0  0  0  0  0
   -9.0548   24.6196  -21.4078 N   0  0  0  0  0  0  0  0  0  0  0  0
   -7.7118   24.1309  -21.3789 C   0  0  0  0  0  0  0  0  0  0  0  0
   -7.3303   23.4812  -22.7101 C   0  0  0  0  0  0  0  0  0  0  0  0
   -7.4192   24.4995  -23.7554 N   0  0  0  0  0  0  0  0  0  0  0  0
   -8.2409   25.6597  -23.4941 C   0  0  0  0  0  0  0  0  0  0  0  0
   -9.4338   25.2185  -22.6472 C   0  0  0  0  0  0  0  0  0  0  0  0
   -9.3471   25.3809  -20.2334 C   0  0  0  0  0  0  0  0  0  0  0  0
  -10.3372   26.4805  -20.4128 C   0  0  0  0  0  0  0  0  0  0  0  0
  -10.5224   28.8016  -20.5332 C   0  0  0  0  0  0  0  0  0  0  0  0
   -9.8212   27.7053  -20.1114 O   0  0  0  0  0  0  0  0  0  0  0  0
   -3.7556   22.6550  -28.7922 N   0  0  0  0  0  0  0  0  0  0  0  0
   -4.0285   21.7676  -29.2407 H   0  0  0  0  0  0  0  0  0  0  0  0
   -2.3716   22.7191  -28.3644 C   0  0  0  0  0  0  0  0  0  0  0  0
   -1.8264   22.1562  -27.2346 C   0  0  0  0  0  0  0  0  0  0  0  0
   -0.4667   22.4436  -27.1792 C   0  0  0  0  0  0  0  0  0  0  0  0
   -0.2299   23.1726  -28.2783 N   0  0  0  0  0  0  0  0  0  0  0  0
   -1.3525   23.3395  -28.9843 N   0  0  0  0  0  0  0  0  0  0  0  0
    0.7197   23.5430  -28.5167 H   0  0  0  0  0  0  0  0  0  0  0  0
    0.5057   22.0340  -26.1376 C   0  0  0  0  0  0  0  0  0  0  0  0
    0.5670   23.0075  -24.9827 C   0  0  0  0  0  0  0  0  0  0  0  0
   -0.1370   22.3563  -23.8337 C   0  0  0  0  0  0  0  0  0  0  0  0
   -1.4203   22.7810  -23.5658 C   0  0  0  0  0  0  0  0  0  0  0  0
   -2.0862   22.2042  -22.5235 C   0  0  0  0  0  0  0  0  0  0  0  0
   -1.4870   21.2305  -21.7700 C   0  0  0  0  0  0  0  0  0  0  0  0
   -0.2097   20.8143  -22.0443 C   0  0  0  0  0  0  0  0  0  0  0  0
    0.4849   21.3731  -23.0827 C   0  0  0  0  0  0  0  0  0  0  0  0
   -3.3759   22.6377  -22.2620 O   0  0  0  0  0  0  0  0  0  0  0  0
   -4.3171   21.7054  -21.7861 C   0  0  0  0  0  0  0  0  0  0  0  0
    0.3326   19.8191  -21.2333 O   0  0  0  0  0  0  0  0  0  0  0  0
    1.4977   19.9968  -20.4847 C   0  0  0  0  0  0  0  0  0  0  0  0
 19 20  1  0  0  0
 20 18  1  0  0  0
 18 17  1  0  0  0
 17 11  1  0  0  0
 11 12  1  0  0  0
 12 13  1  0  0  0
 13 14  1  0  0  0
 14 15  1  0  0  0
 15 16  1  0  0  0
 14  1  1  0  0  0
  1  2  2  0  0  0
  2  3  1  0  0  0
  3  4  2  0  0  0
  4  5  1  0  0  0
  5 21  1  0  0  0
 21 23  1  0  0  0
 23 24  1  0  0  0
 24 25  2  0  0  0
 25 29  1  0  0  0
 29 30  1  0  0  0
 30 31  1  0  0  0
 31 32  2  0  0  0
 32 33  1  0  0  0
 33 37  1  0  0  0
 37 38  1  0  0  0
 33 34  2  0  0  0
 34 35  1  0  0  0
 35 39  1  0  0  0
 39 40  1  0  0  0
 35 36  2  0  0  0
 25 26  1  0  0  0
 26 27  1  0  0  0
  5  6  2  0  0  0
  6  7  1  0  0  0
  7  8  2  0  0  0
  8  9  1  0  0  0
  9 10  2  0  0  0
 16 11  1  0  0  0
 10  1  1  0  0  0
  9  4  1  0  0  0
 27 23  2  0  0  0
 36 31  1  0  0  0
 21 22  1  0  0  0
 26 28  1  0  0  0
M  END
> <minimizedAffinity>
-8.27123

> <CNNscore>
0.5491323471

> <CNNaffinity>
7.4859552383

> <CNN_VS>
4.1107802391

> <CNNaffinity_variance>
0.1332449317

$$$$
[H]c1nc(N([H])c2nn([H])c(C([H])([H])C([H])([H])c3c([H])c(OC([H])([H])[H])c([H])c(OC([H])([H])[H])c3[H])c2[H])c2c([H])c([H])c(N3C([H])([H])C([H])([H])N(C([H])([H])C([H])([H])OC([H])([H])[H])C([H])([H])C3([H])[H])c([H])c2n1


 40 44  0  0  0  0  0  0  0  0999 V2000
   -6.2775   24.1822  -24.9964 C   0  0  0  0  0  0  0  0  0  0  0  0
   -5.4063   23.1578  -25.2843 C   0  0  0  0  0  0  0  0  0  0  0  0
   -4.8042   23.0183  -26.5423 C   0  0  0  0  0  0  0  0  0  0  0  0
   -5.0613   23.9028  -27.5425 C   0  0  0  0  0  0  0  0  0  0  0  0
   -4.4878   23.7883  -28.7756 C   0  0  0  0  0  0  0  0  0  0  0  0
   -4.8062   24.7206  -29.7104 N   0  0  0  0  0  0  0  0  0  0  0  0
   -5.6531   25.7208  -29.4386 C   0  0  0  0  0  0  0  0  0  0  0  0
   -6.2102   25.8262  -28.2303 N   0  0  0  0  0  0  0  0  0  0  0  0
   -5.9466   24.9504  -27.2628 C   0  0  0  0  0  0  0  0  0  0  0  0
   -6.5356   25.0750  -26.0094 C   0  0  0  0  0  0  0  0  0  0  0  0
   -8.3673   24.4567  -21.2621 N   0  0  0  0  0  0  0  0  0  0  0  0
   -7.3338   23.4912  -21.4688 C   0  0  0  0  0  0  0  0  0  0  0  0
   -7.2233   23.1057  -22.9449 C   0  0  0  0  0  0  0  0  0  0  0  0
   -6.8794   24.3067  -23.7043 N   0  0  0  0  0  0  0  0  0  0  0  0
   -7.1708   25.5881  -23.1021 C   0  0  0  0  0  0  0  0  0  0  0  0
   -8.4541   25.4499  -22.2841 C   0  0  0  0  0  0  0  0  0  0  0  0
   -8.3488   24.9458  -19.9188 C   0  0  0  0  0  0  0  0  0  0  0  0
   -7.0052   25.0019  -19.2760 C   0  0  0  0  0  0  0  0  0  0  0  0
   -5.7968   24.4073  -17.3727 C   0  0  0  0  0  0  0  0  0  0  0  0
   -6.9785   24.3840  -18.0615 O   0  0  0  0  0  0  0  0  0  0  0  0
   -3.5928   22.7411  -29.0841 N   0  0  0  0  0  0  0  0  0  0  0  0
   -3.7966   21.9187  -29.6716 H   0  0  0  0  0  0  0  0  0  0  0  0
   -2.2475   22.7842  -28.5447 C   0  0  0  0  0  0  0  0  0  0  0  0
   -1.7883   22.1547  -27.4118 C   0  0  0  0  0  0  0  0  0  0  0  0
   -0.4397   22.4435  -27.2312 C   0  0  0  0  0  0  0  0  0  0  0  0
   -0.1234   23.2401  -28.2613 N   0  0  0  0  0  0  0  0  0  0  0  0
   -1.1882   23.4459  -29.0426 N   0  0  0  0  0  0  0  0  0  0  0  0
    0.8387   23.6283  -28.4005 H   0  0  0  0  0  0  0  0  0  0  0  0
    0.4510   21.9742  -26.1429 C   0  0  0  0  0  0  0  0  0  0  0  0
    0.5596   22.9684  -25.0093 C   0  0  0  0  0  0  0  0  0  0  0  0
   -0.3264   22.4677  -23.9120 C   0  0  0  0  0  0  0  0  0  0  0  0
    0.1391   21.4038  -23.1699 C   0  0  0  0  0  0  0  0  0  0  0  0
   -0.6483   20.9266  -22.1625 C   0  0  0  0  0  0  0  0  0  0  0  0
   -1.8663   21.4961  -21.9036 C   0  0  0  0  0  0  0  0  0  0  0  0
   -2.3209   22.5546  -22.6473 C   0  0  0  0  0  0  0  0  0  0  0  0
   -1.5551   23.0562  -23.6646 C   0  0  0  0  0  0  0  0  0  0  0  0
   -0.1718   19.8570  -21.4219 O   0  0  0  0  0  0  0  0  0  0  0  0
    0.1955   20.0757  -20.0808 C   0  0  0  0  0  0  0  0  0  0  0  0
   -3.5702   23.0808  -22.3240 O   0  0  0  0  0  0  0  0  0  0  0  0
   -3.8019   24.4479  -22.1600 C   0  0  0  0  0  0  0  0  0  0  0  0
 19 20  1  0  0  0
 20 18  1  0  0  0
 18 17  1  0  0  0
 17 11  1  0  0  0
 11 12  1  0  0  0
 12 13  1  0  0  0
 13 14  1  0  0  0
 14 15  1  0  0  0
 15 16  1  0  0  0
 14  1  1  0  0  0
  1  2  2  0  0  0
  2  3  1  0  0  0
  3  4  2  0  0  0
  4  5  1  0  0  0
  5 21  1  0  0  0
 21 23  1  0  0  0
 23 24  1  0  0  0
 24 25  2  0  0  0
 25 29  1  0  0  0
 29 30  1  0  0  0
 30 31  1  0  0  0
 31 32  2  0  0  0
 32 33  1  0  0  0
 33 37  1  0  0  0
 37 38  1  0  0  0
 33 34  2  0  0  0
 34 35  1  0  0  0
 35 39  1  0  0  0
 39 40  1  0  0  0
 35 36  2  0  0  0
 25 26  1  0  0  0
 26 27  1  0  0  0
  5  6  2  0  0  0
  6  7  1  0  0  0
  7  8  2  0  0  0
  8  9  1  0  0  0
  9 10  2  0  0  0
 16 11  1  0  0  0
 10  1  1  0  0  0
  9  4  1  0  0  0
 27 23  2  0  0  0
 36 31  1  0  0  0
 21 22  1  0  0  0
 26 28  1  0  0  0
M  END
> <minimizedAffinity>
-8.22353

> <CNNscore>
0.4985979795

> <CNNaffinity>
7.3705687523

> <CNN_VS>
3.6749505997

> <CNNaffinity_variance>
0.2138577253

$$$$
[H]c1nc(N([H])c2nn([H])c(C([H])([H])C([H])([H])c3c([H])c(OC([H])([H])[H])c([H])c(OC([H])([H])[H])c3[H])c2[H])c2c([H])c([H])c(N3C([H])([H])C([H])([H])N(C([H])([H])C([H])([H])OC([H])([H])[H])C([H])([H])C3([H])[H])c([H])c2n1


 40 44  0  0  0  0  0  0  0  0999 V2000
   -0.4681   21.6115  -24.2083 C   0  0  0  0  0  0  0  0  0  0  0  0
   -1.8200   21.5053  -24.4371 C   0  0  0  0  0  0  0  0  0  0  0  0
   -2.4072   21.8956  -25.6485 C   0  0  0  0  0  0  0  0  0  0  0  0
   -1.6528   22.4019  -26.6601 C   0  0  0  0  0  0  0  0  0  0  0  0
   -2.2010   22.7890  -27.8485 C   0  0  0  0  0  0  0  0  0  0  0  0
   -1.3664   23.2830  -28.7991 N   0  0  0  0  0  0  0  0  0  0  0  0
   -0.0495   23.3897  -28.5847 C   0  0  0  0  0  0  0  0  0  0  0  0
    0.4795   23.0092  -27.4198 N   0  0  0  0  0  0  0  0  0  0  0  0
   -0.2751   22.5154  -26.4404 C   0  0  0  0  0  0  0  0  0  0  0  0
    0.2922   22.1236  -25.2328 C   0  0  0  0  0  0  0  0  0  0  0  0
    1.3271   20.0979  -20.6203 N   0  0  0  0  0  0  0  0  0  0  0  0
    1.9321   21.1554  -21.3678 C   0  0  0  0  0  0  0  0  0  0  0  0
    1.5617   21.0684  -22.8494 C   0  0  0  0  0  0  0  0  0  0  0  0
    0.1107   21.2051  -22.9645 N   0  0  0  0  0  0  0  0  0  0  0  0
   -0.6857   20.9162  -21.7933 C   0  0  0  0  0  0  0  0  0  0  0  0
   -0.0068   19.7852  -21.0219 C   0  0  0  0  0  0  0  0  0  0  0  0
    1.5272   20.2844  -19.2170 C   0  0  0  0  0  0  0  0  0  0  0  0
    1.4560   21.6953  -18.7418 C   0  0  0  0  0  0  0  0  0  0  0  0
   -0.2277   23.2956  -18.9427 C   0  0  0  0  0  0  0  0  0  0  0  0
    0.1835   22.0872  -18.4508 O   0  0  0  0  0  0  0  0  0  0  0  0
   -3.5871   22.6861  -28.0955 N   0  0  0  0  0  0  0  0  0  0  0  0
   -4.0617   21.9189  -28.5949 H   0  0  0  0  0  0  0  0  0  0  0  0
   -4.4659   23.7369  -27.6200 C   0  0  0  0  0  0  0  0  0  0  0  0
   -5.4304   23.6329  -26.6456 C   0  0  0  0  0  0  0  0  0  0  0  0
   -6.0595   24.8620  -26.4782 C   0  0  0  0  0  0  0  0  0  0  0  0
   -5.4562   25.6735  -27.3575 N   0  0  0  0  0  0  0  0  0  0  0  0
   -4.5122   25.0144  -28.0366 N   0  0  0  0  0  0  0  0  0  0  0  0
   -5.7174   26.6811  -27.4678 H   0  0  0  0  0  0  0  0  0  0  0  0
   -7.1531   25.2009  -25.5362 C   0  0  0  0  0  0  0  0  0  0  0  0
   -6.6466   25.8226  -24.2548 C   0  0  0  0  0  0  0  0  0  0  0  0
   -6.2850   24.6928  -23.3424 C   0  0  0  0  0  0  0  0  0  0  0  0
   -5.0309   24.7274  -22.7722 C   0  0  0  0  0  0  0  0  0  0  0  0
   -4.6744   23.7097  -21.9357 C   0  0  0  0  0  0  0  0  0  0  0  0
   -5.5461   22.6861  -21.6761 C   0  0  0  0  0  0  0  0  0  0  0  0
   -6.7920   22.6604  -22.2481 C   0  0  0  0  0  0  0  0  0  0  0  0
   -7.1796   23.6661  -23.0916 C   0  0  0  0  0  0  0  0  0  0  0  0
   -3.4117   23.7533  -21.3671 O   0  0  0  0  0  0  0  0  0  0  0  0
   -2.3223   24.1353  -22.1727 C   0  0  0  0  0  0  0  0  0  0  0  0
   -7.6231   21.5861  -21.9359 O   0  0  0  0  0  0  0  0  0  0  0  0
   -8.3798   21.5236  -20.7642 C   0  0  0  0  0  0  0  0  0  0  0  0
 19 20  1  0  0  0
 20 18  1  0  0  0
 18 17  1  0  0  0
 17 11  1  0  0  0
 11 12  1  0  0  0
 12 13  1  0  0  0
 13 14  1  0  0  0
 14 15  1  0  0  0
 15 16  1  0  0  0
 14  1  1  0  0  0
  1  2  2  0  0  0
  2  3  1  0  0  0
  3  4  2  0  0  0
  4  5  1  0  0  0
  5 21  1  0  0  0
 21 23  1  0  0  0
 23 24  1  0  0  0
 24 25  2  0  0  0
 25 29  1  0  0  0
 29 30  1  0  0  0
 30 31  1  0  0  0
 31 32  2  0  0  0
 32 33  1  0  0  0
 33 37  1  0  0  0
 37 38  1  0  0  0
 33 34  2  0  0  0
 34 35  1  0  0  0
 35 39  1  0  0  0
 39 40  1  0  0  0
 35 36  2  0  0  0
 25 26  1  0  0  0
 26 27  1  0  0  0
  5  6  2  0  0  0
  6  7  1  0  0  0
  7  8  2  0  0  0
  8  9  1  0  0  0
  9 10  2  0  0  0
 16 11  1  0  0  0
 10  1  1  0  0  0
  9  4  1  0  0  0
 27 23  2  0  0  0
 36 31  1  0  0  0
 21 22  1  0  0  0
 26 28  1  0  0  0
M  END
> <minimizedAffinity>
-8.32779

> <CNNscore>
0.3830072582

> <CNNaffinity>
7.2557554245

> <CNN_VS>
2.7790069580

> <CNNaffinity_variance>
0.0941243917

$$$$
[H]c1nc(N([H])c2nn([H])c(C([H])([H])C([H])([H])c3c([H])c(OC([H])([H])[H])c([H])c(OC([H])([H])[H])c3[H])c2[H])c2c([H])c([H])c(N3C([H])([H])C([H])([H])N(C([H])([H])C([H])([H])OC([H])([H])[H])C([H])([H])C3([H])[H])c([H])c2n1


 40 44  0  0  0  0  0  0  0  0999 V2000
   -6.7516   24.7922  -24.3701 C   0  0  0  0  0  0  0  0  0  0  0  0
   -6.0159   23.6307  -24.3996 C   0  0  0  0  0  0  0  0  0  0  0  0
   -5.1954   23.2916  -25.4842 C   0  0  0  0  0  0  0  0  0  0  0  0
   -5.0928   24.1091  -26.5659 C   0  0  0  0  0  0  0  0  0  0  0  0
   -4.3010   23.8011  -27.6339 C   0  0  0  0  0  0  0  0  0  0  0  0
   -4.2635   24.6805  -28.6682 N   0  0  0  0  0  0  0  0  0  0  0  0
   -4.9763   25.8131  -28.6475 C   0  0  0  0  0  0  0  0  0  0  0  0
   -5.7486   26.1077  -27.5995 N   0  0  0  0  0  0  0  0  0  0  0  0
   -5.8366   25.2948  -26.5488 C   0  0  0  0  0  0  0  0  0  0  0  0
   -6.6459   25.6169  -25.4649 C   0  0  0  0  0  0  0  0  0  0  0  0
   -9.1896   25.4639  -20.9071 N   0  0  0  0  0  0  0  0  0  0  0  0
   -7.9483   26.1488  -21.0891 C   0  0  0  0  0  0  0  0  0  0  0  0
   -6.9784   25.3219  -21.9350 C   0  0  0  0  0  0  0  0  0  0  0  0
   -7.5814   25.1197  -23.2514 N   0  0  0  0  0  0  0  0  0  0  0  0
   -9.0156   25.2619  -23.3618 C   0  0  0  0  0  0  0  0  0  0  0  0
   -9.6460   24.7612  -22.0631 C   0  0  0  0  0  0  0  0  0  0  0  0
  -10.1518   26.3096  -20.2724 C   0  0  0  0  0  0  0  0  0  0  0  0
  -10.1893   27.7170  -20.7617 C   0  0  0  0  0  0  0  0  0  0  0  0
  -10.3398   29.8943  -19.9414 C   0  0  0  0  0  0  0  0  0  0  0  0
   -9.8696   28.6185  -19.7909 O   0  0  0  0  0  0  0  0  0  0  0  0
   -3.5417   22.6117  -27.6770 N   0  0  0  0  0  0  0  0  0  0  0  0
   -3.8695   21.6913  -28.0063 H   0  0  0  0  0  0  0  0  0  0  0  0
   -2.1644   22.6401  -27.2245 C   0  0  0  0  0  0  0  0  0  0  0  0
   -1.6947   22.3016  -25.9773 C   0  0  0  0  0  0  0  0  0  0  0  0
   -0.3138   22.4633  -25.9388 C   0  0  0  0  0  0  0  0  0  0  0  0
    0.0107   22.8953  -27.1649 N   0  0  0  0  0  0  0  0  0  0  0  0
   -1.0794   23.0022  -27.9310 N   0  0  0  0  0  0  0  0  0  0  0  0
    0.9960   23.1092  -27.4461 H   0  0  0  0  0  0  0  0  0  0  0  0
    0.5976   22.2124  -24.7966 C   0  0  0  0  0  0  0  0  0  0  0  0
   -0.1285   21.7023  -23.5728 C   0  0  0  0  0  0  0  0  0  0  0  0
    0.9178   21.1828  -22.6374 C   0  0  0  0  0  0  0  0  0  0  0  0
    0.6043   21.1682  -21.2955 C   0  0  0  0  0  0  0  0  0  0  0  0
    1.5400   20.6994  -20.4196 C   0  0  0  0  0  0  0  0  0  0  0  0
    2.7547   20.2576  -20.8714 C   0  0  0  0  0  0  0  0  0  0  0  0
    3.0576   20.2757  -22.2085 C   0  0  0  0  0  0  0  0  0  0  0  0
    2.1408   20.7400  -23.1124 C   0  0  0  0  0  0  0  0  0  0  0  0
    1.2156   20.6886  -19.0727 O   0  0  0  0  0  0  0  0  0  0  0  0
   -0.0542   21.1534  -18.6812 C   0  0  0  0  0  0  0  0  0  0  0  0
    4.3138   19.8098  -22.5918 O   0  0  0  0  0  0  0  0  0  0  0  0
    5.0905   18.9678  -21.7935 C   0  0  0  0  0  0  0  0  0  0  0  0
 19 20  1  0  0  0
 20 18  1  0  0  0
 18 17  1  0  0  0
 17 11  1  0  0  0
 11 12  1  0  0  0
 12 13  1  0  0  0
 13 14  1  0  0  0
 14 15  1  0  0  0
 15 16  1  0  0  0
 14  1  1  0  0  0
  1  2  2  0  0  0
  2  3  1  0  0  0
  3  4  2  0  0  0
  4  5  1  0  0  0
  5 21  1  0  0  0
 21 23  1  0  0  0
 23 24  1  0  0  0
 24 25  2  0  0  0
 25 29  1  0  0  0
 29 30  1  0  0  0
 30 31  1  0  0  0
 31 32  2  0  0  0
 32 33  1  0  0  0
 33 37  1  0  0  0
 37 38  1  0  0  0
 33 34  2  0  0  0
 34 35  1  0  0  0
 35 39  1  0  0  0
 39 40  1  0  0  0
 35 36  2  0  0  0
 25 26  1  0  0  0
 26 27  1  0  0  0
  5  6  2  0  0  0
  6  7  1  0  0  0
  7  8  2  0  0  0
  8  9  1  0  0  0
  9 10  2  0  0  0
 16 11  1  0  0  0
 10  1  1  0  0  0
  9  4  1  0  0  0
 27 23  2  0  0  0
 36 31  1  0  0  0
 21 22  1  0  0  0
 26 28  1  0  0  0
M  END
> <minimizedAffinity>
-7.99787

> <CNNscore>
0.3786320090

> <CNNaffinity>
7.1397385597

> <CNN_VS>
2.7033336163

> <CNNaffinity_variance>
0.0887019634

$$$$
[H]c1nc(N([H])c2nn([H])c(C([H])([H])C([H])([H])c3c([H])c(OC([H])([H])[H])c([H])c(OC([H])([H])[H])c3[H])c2[H])c2c([H])c([H])c(N3C([H])([H])C([H])([H])N(C([H])([H])C([H])([H])OC([H])([H])[H])C([H])([H])C3([H])[H])c([H])c2n1


 40 44  0  0  0  0  0  0  0  0999 V2000
   -0.3856   21.6166  -24.1832 C   0  0  0  0  0  0  0  0  0  0  0  0
   -1.7471   21.5442  -24.3633 C   0  0  0  0  0  0  0  0  0  0  0  0
   -2.3665   21.9410  -25.5564 C   0  0  0  0  0  0  0  0  0  0  0  0
   -1.6356   22.4202  -26.5980 C   0  0  0  0  0  0  0  0  0  0  0  0
   -2.2154   22.8129  -27.7694 C   0  0  0  0  0  0  0  0  0  0  0  0
   -1.4025   23.2781  -28.7529 N   0  0  0  0  0  0  0  0  0  0  0  0
   -0.0765   23.3518  -28.5859 C   0  0  0  0  0  0  0  0  0  0  0  0
    0.4834   22.9660  -27.4373 N   0  0  0  0  0  0  0  0  0  0  0  0
   -0.2485   22.4991  -26.4279 C   0  0  0  0  0  0  0  0  0  0  0  0
    0.3509   22.1013  -25.2379 C   0  0  0  0  0  0  0  0  0  0  0  0
    1.5017   20.0844  -20.6508 N   0  0  0  0  0  0  0  0  0  0  0  0
    2.0935   21.1373  -21.4153 C   0  0  0  0  0  0  0  0  0  0  0  0
    1.6787   21.0548  -22.8853 C   0  0  0  0  0  0  0  0  0  0  0  0
    0.2262   21.2041  -22.9573 N   0  0  0  0  0  0  0  0  0  0  0  0
   -0.5377   20.9210  -21.7632 C   0  0  0  0  0  0  0  0  0  0  0  0
    0.1539   19.7836  -21.0130 C   0  0  0  0  0  0  0  0  0  0  0  0
    1.7449   20.2679  -19.2539 C   0  0  0  0  0  0  0  0  0  0  0  0
    1.8089   21.6848  -18.7957 C   0  0  0  0  0  0  0  0  0  0  0  0
    0.0318   23.1890  -18.9213 C   0  0  0  0  0  0  0  0  0  0  0  0
    0.6222   22.1273  -18.2922 O   0  0  0  0  0  0  0  0  0  0  0  0
   -3.6116   22.7445  -27.9666 N   0  0  0  0  0  0  0  0  0  0  0  0
   -4.1147   22.0349  -28.5202 H   0  0  0  0  0  0  0  0  0  0  0  0
   -4.4586   23.7475  -27.3508 C   0  0  0  0  0  0  0  0  0  0  0  0
   -5.6314   23.5345  -26.6656 C   0  0  0  0  0  0  0  0  0  0  0  0
   -6.1451   24.7513  -26.2296 C   0  0  0  0  0  0  0  0  0  0  0  0
   -5.2667   25.6648  -26.6648 N   0  0  0  0  0  0  0  0  0  0  0  0
   -4.2662   25.0780  -27.3290 N   0  0  0  0  0  0  0  0  0  0  0  0
   -5.3836   26.6899  -26.4881 H   0  0  0  0  0  0  0  0  0  0  0  0
   -7.3870   24.9866  -25.4546 C   0  0  0  0  0  0  0  0  0  0  0  0
   -7.1263   25.6609  -24.1269 C   0  0  0  0  0  0  0  0  0  0  0  0
   -6.5499   24.6183  -23.2211 C   0  0  0  0  0  0  0  0  0  0  0  0
   -7.3584   23.5471  -22.9078 C   0  0  0  0  0  0  0  0  0  0  0  0
   -6.8584   22.5810  -22.0836 C   0  0  0  0  0  0  0  0  0  0  0  0
   -5.5867   22.6822  -21.5862 C   0  0  0  0  0  0  0  0  0  0  0  0
   -4.7896   23.7518  -21.9037 C   0  0  0  0  0  0  0  0  0  0  0  0
   -5.2616   24.7373  -22.7277 C   0  0  0  0  0  0  0  0  0  0  0  0
   -7.6785   21.5080  -21.7745 O   0  0  0  0  0  0  0  0  0  0  0  0
   -8.6030   21.6471  -20.7221 C   0  0  0  0  0  0  0  0  0  0  0  0
   -3.5071   23.7847  -21.3592 O   0  0  0  0  0  0  0  0  0  0  0  0
   -2.3690   24.0906  -22.1079 C   0  0  0  0  0  0  0  0  0  0  0  0
 19 20  1  0  0  0
 20 18  1  0  0  0
 18 17  1  0  0  0
 17 11  1  0  0  0
 11 12  1  0  0  0
 12 13  1  0  0  0
 13 14  1  0  0  0
 14 15  1  0  0  0
 15 16  1  0  0  0
 14  1  1  0  0  0
  1  2  2  0  0  0
  2  3  1  0  0  0
  3  4  2  0  0  0
  4  5  1  0  0  0
  5 21  1  0  0  0
 21 23  1  0  0  0
 23 24  1  0  0  0
 24 25  2  0  0  0
 25 29  1  0  0  0
 29 30  1  0  0  0
 30 31  1  0  0  0
 31 32  2  0  0  0
 32 33  1  0  0  0
 33 37  1  0  0  0
 37 38  1  0  0  0
 33 34  2  0  0  0
 34 35  1  0  0  0
 35 39  1  0  0  0
 39 40  1  0  0  0
 35 36  2  0  0  0
 25 26  1  0  0  0
 26 27  1  0  0  0
  5  6  2  0  0  0
  6  7  1  0  0  0
  7  8  2  0  0  0
  8  9  1  0  0  0
  9 10  2  0  0  0
 16 11  1  0  0  0
 10  1  1  0  0  0
  9  4  1  0  0  0
 27 23  2  0  0  0
 36 31  1  0  0  0
 21 22  1  0  0  0
 26 28  1  0  0  0
M  END
> <minimizedAffinity>
-8.36637

> <CNNscore>
0.3178045452

> <CNNaffinity>
7.1725821495

> <CNN_VS>
2.2794792652

> <CNNaffinity_variance>
0.1070024148

$$$$
[H]c1nc(N([H])c2nn([H])c(C([H])([H])C([H])([H])c3c([H])c(OC([H])([H])[H])c([H])c(OC([H])([H])[H])c3[H])c2[H])c2c([H])c([H])c(N3C([H])([H])C([H])([H])N(C([H])([H])C([H])([H])OC([H])([H])[H])C([H])([H])C3([H])[H])c([H])c2n1


 40 44  0  0  0  0  0  0  0  0999 V2000
    0.0075   21.6382  -23.5829 C   0  0  0  0  0  0  0  0  0  0  0  0
   -1.3666   21.5932  -23.6146 C   0  0  0  0  0  0  0  0  0  0  0  0
   -2.1001   21.9239  -24.7622 C   0  0  0  0  0  0  0  0  0  0  0  0
   -1.4734   22.3080  -25.9062 C   0  0  0  0  0  0  0  0  0  0  0  0
   -2.1653   22.6350  -27.0362 C   0  0  0  0  0  0  0  0  0  0  0  0
   -1.4512   23.0068  -28.1299 N   0  0  0  0  0  0  0  0  0  0  0  0
   -0.1138   23.0533  -28.1076 C   0  0  0  0  0  0  0  0  0  0  0  0
    0.5561   22.7321  -26.9987 N   0  0  0  0  0  0  0  0  0  0  0  0
   -0.0747   22.3582  -25.8875 C   0  0  0  0  0  0  0  0  0  0  0  0
    0.6386   22.0268  -24.7408 C   0  0  0  0  0  0  0  0  0  0  0  0
    2.1656   20.2893  -20.1317 N   0  0  0  0  0  0  0  0  0  0  0  0
    2.7989   21.0674  -21.1499 C   0  0  0  0  0  0  0  0  0  0  0  0
    2.1270   20.8551  -22.5075 C   0  0  0  0  0  0  0  0  0  0  0  0
    0.7366   21.2944  -22.4008 N   0  0  0  0  0  0  0  0  0  0  0  0
    0.1531   21.3605  -21.0799 C   0  0  0  0  0  0  0  0  0  0  0  0
    0.7433   20.2284  -20.2405 C   0  0  0  0  0  0  0  0  0  0  0  0
    2.6774   20.6244  -18.8395 C   0  0  0  0  0  0  0  0  0  0  0  0
    1.7460   20.3871  -17.7004 C   0  0  0  0  0  0  0  0  0  0  0  0
    1.6034   21.2361  -15.5335 C   0  0  0  0  0  0  0  0  0  0  0  0
    1.6327   21.4703  -16.8810 O   0  0  0  0  0  0  0  0  0  0  0  0
   -3.5757   22.5938  -27.0815 N   0  0  0  0  0  0  0  0  0  0  0  0
   -4.1500   21.8557  -27.5156 H   0  0  0  0  0  0  0  0  0  0  0  0
   -4.3305   23.6716  -26.4724 C   0  0  0  0  0  0  0  0  0  0  0  0
   -5.1512   23.5901  -25.3722 C   0  0  0  0  0  0  0  0  0  0  0  0
   -5.6946   24.8414  -25.1013 C   0  0  0  0  0  0  0  0  0  0  0  0
   -5.1861   25.6432  -26.0468 N   0  0  0  0  0  0  0  0  0  0  0  0
   -4.3780   24.9577  -26.8616 N   0  0  0  0  0  0  0  0  0  0  0  0
   -5.4149   26.6629  -26.1058 H   0  0  0  0  0  0  0  0  0  0  0  0
   -6.6277   25.2083  -24.0091 C   0  0  0  0  0  0  0  0  0  0  0  0
   -7.0874   24.0112  -23.2087 C   0  0  0  0  0  0  0  0  0  0  0  0
   -8.2541   24.4647  -22.3884 C   0  0  0  0  0  0  0  0  0  0  0  0
   -8.8283   25.6695  -22.7317 C   0  0  0  0  0  0  0  0  0  0  0  0
   -9.8941   26.1077  -22.0005 C   0  0  0  0  0  0  0  0  0  0  0  0
  -10.3729   25.3632  -20.9558 C   0  0  0  0  0  0  0  0  0  0  0  0
   -9.7951   24.1655  -20.6217 C   0  0  0  0  0  0  0  0  0  0  0  0
   -8.7247   23.6985  -21.3354 C   0  0  0  0  0  0  0  0  0  0  0  0
  -10.4646   27.3199  -22.3533 O   0  0  0  0  0  0  0  0  0  0  0  0
  -11.8449   27.3614  -22.6266 C   0  0  0  0  0  0  0  0  0  0  0  0
  -10.3382   23.4649  -19.5464 O   0  0  0  0  0  0  0  0  0  0  0  0
  -11.5836   23.7661  -18.9916 C   0  0  0  0  0  0  0  0  0  0  0  0
 19 20  1  0  0  0
 20 18  1  0  0  0
 18 17  1  0  0  0
 17 11  1  0  0  0
 11 12  1  0  0  0
 12 13  1  0  0  0
 13 14  1  0  0  0
 14 15  1  0  0  0
 15 16  1  0  0  0
 14  1  1  0  0  0
  1  2  2  0  0  0
  2  3  1  0  0  0
  3  4  2  0  0  0
  4  5  1  0  0  0
  5 21  1  0  0  0
 21 23  1  0  0  0
 23 24  1  0  0  0
 24 25  2  0  0  0
 25 29  1  0  0  0
 29 30  1  0  0  0
 30 31  1  0  0  0
 31 32  2  0  0  0
 32 33  1  0  0  0
 33 37  1  0  0  0
 37 38  1  0  0  0
 33 34  2  0  0  0
 34 35  1  0  0  0
 35 39  1  0  0  0
 39 40  1  0  0  0
 35 36  2  0  0  0
 25 26  1  0  0  0
 26 27  1  0  0  0
  5  6  2  0  0  0
  6  7  1  0  0  0
  7  8  2  0  0  0
  8  9  1  0  0  0
  9 10  2  0  0  0
 16 11  1  0  0  0
 10  1  1  0  0  0
  9  4  1  0  0  0
 27 23  2  0  0  0
 36 31  1  0  0  0
 21 22  1  0  0  0
 26 28  1  0  0  0
M  END
> <minimizedAffinity>
-7.77665

> <CNNscore>
0.3125439882

> <CNNaffinity>
6.9933571815

> <CNN_VS>
2.1857316494

> <CNNaffinity_variance>
0.2902216315

$$$$
[H]c1nc(N([H])c2nn([H])c(C([H])([H])C([H])([H])c3c([H])c(OC([H])([H])[H])c([H])c(OC([H])([H])[H])c3[H])c2[H])c2c([H])c([H])c(N3C([H])([H])C([H])([H])N(C([H])([H])C([H])([H])OC([H])([H])[H])C([H])([H])C3([H])[H])c([H])c2n1


 40 44  0  0  0  0  0  0  0  0999 V2000
    0.0834   21.5355  -23.3971 C   0  0  0  0  0  0  0  0  0  0  0  0
   -1.2917   21.5520  -23.3911 C   0  0  0  0  0  0  0  0  0  0  0  0
   -2.0410   21.9082  -24.5208 C   0  0  0  0  0  0  0  0  0  0  0  0
   -1.4294   22.2566  -25.6842 C   0  0  0  0  0  0  0  0  0  0  0  0
   -2.1368   22.6073  -26.7974 C   0  0  0  0  0  0  0  0  0  0  0  0
   -1.4371   22.9399  -27.9129 N   0  0  0  0  0  0  0  0  0  0  0  0
   -0.0988   22.9264  -27.9272 C   0  0  0  0  0  0  0  0  0  0  0  0
    0.5863   22.5824  -26.8346 N   0  0  0  0  0  0  0  0  0  0  0  0
   -0.0298   22.2441  -25.7039 C   0  0  0  0  0  0  0  0  0  0  0  0
    0.6991   21.8881  -24.5745 C   0  0  0  0  0  0  0  0  0  0  0  0
    2.3491   20.7544  -19.8413 N   0  0  0  0  0  0  0  0  0  0  0  0
    0.9726   20.3836  -19.9446 C   0  0  0  0  0  0  0  0  0  0  0  0
    0.2223   21.3034  -20.9094 C   0  0  0  0  0  0  0  0  0  0  0  0
    0.8286   21.1667  -22.2327 N   0  0  0  0  0  0  0  0  0  0  0  0
    2.1793   20.6565  -22.3026 C   0  0  0  0  0  0  0  0  0  0  0  0
    2.9420   21.1560  -21.0764 C   0  0  0  0  0  0  0  0  0  0  0  0
    3.0829   19.7896  -19.0831 C   0  0  0  0  0  0  0  0  0  0  0  0
    3.9344   18.8616  -19.8802 C   0  0  0  0  0  0  0  0  0  0  0  0
    4.0333   16.5803  -20.3514 C   0  0  0  0  0  0  0  0  0  0  0  0
    3.2814   17.7161  -20.2250 O   0  0  0  0  0  0  0  0  0  0  0  0
   -3.5483   22.6291  -26.8041 N   0  0  0  0  0  0  0  0  0  0  0  0
   -4.1683   21.8523  -27.0782 H   0  0  0  0  0  0  0  0  0  0  0  0
   -4.2347   23.8388  -26.3942 C   0  0  0  0  0  0  0  0  0  0  0  0
   -5.2809   23.9381  -25.5076 C   0  0  0  0  0  0  0  0  0  0  0  0
   -5.6610   25.2701  -25.3812 C   0  0  0  0  0  0  0  0  0  0  0  0
   -4.8326   25.9372  -26.1961 N   0  0  0  0  0  0  0  0  0  0  0  0
   -3.9859   25.0967  -26.7988 N   0  0  0  0  0  0  0  0  0  0  0  0
   -4.8745   26.9761  -26.3171 H   0  0  0  0  0  0  0  0  0  0  0  0
   -6.7410   25.8290  -24.5330 C   0  0  0  0  0  0  0  0  0  0  0  0
   -7.9542   24.9296  -24.4667 C   0  0  0  0  0  0  0  0  0  0  0  0
   -8.3368   24.8293  -23.0233 C   0  0  0  0  0  0  0  0  0  0  0  0
   -9.5335   25.4036  -22.6530 C   0  0  0  0  0  0  0  0  0  0  0  0
   -9.9075   25.3271  -21.3427 C   0  0  0  0  0  0  0  0  0  0  0  0
   -9.1085   24.6947  -20.4280 C   0  0  0  0  0  0  0  0  0  0  0  0
   -7.9194   24.1261  -20.8060 C   0  0  0  0  0  0  0  0  0  0  0  0
   -7.5160   24.1858  -22.1124 C   0  0  0  0  0  0  0  0  0  0  0  0
  -11.1123   25.9072  -20.9801 O   0  0  0  0  0  0  0  0  0  0  0  0
  -11.7168   25.5077  -19.7733 C   0  0  0  0  0  0  0  0  0  0  0  0
   -7.1610   23.5001  -19.8184 O   0  0  0  0  0  0  0  0  0  0  0  0
   -5.7770   23.3391  -19.9080 C   0  0  0  0  0  0  0  0  0  0  0  0
 19 20  1  0  0  0
 20 18  1  0  0  0
 18 17  1  0  0  0
 17 11  1  0  0  0
 11 12  1  0  0  0
 12 13  1  0  0  0
 13 14  1  0  0  0
 14 15  1  0  0  0
 15 16  1  0  0  0
 14  1  1  0  0  0
  1  2  2  0  0  0
  2  3  1  0  0  0
  3  4  2  0  0  0
  4  5  1  0  0  0
  5 21  1  0  0  0
 21 23  1  0  0  0
 23 24  1  0  0  0
 24 25  2  0  0  0
 25 29  1  0  0  0
 29 30  1  0  0  0
 30 31  1  0  0  0
 31 32  2  0  0  0
 32 33  1  0  0  0
 33 37  1  0  0  0
 37 38  1  0  0  0
 33 34  2  0  0  0
 34 35  1  0  0  0
 35 39  1  0  0  0
 39 40  1  0  0  0
 35 36  2  0  0  0
 25 26  1  0  0  0
 26 27  1  0  0  0
  5  6  2  0  0  0
  6  7  1  0  0  0
  7  8  2  0  0  0
  8  9  1  0  0  0
  9 10  2  0  0  0
 16 11  1  0  0  0
 10  1  1  0  0  0
  9  4  1  0  0  0
 27 23  2  0  0  0
 36 31  1  0  0  0
 21 22  1  0  0  0
 26 28  1  0  0  0
M  END
> <minimizedAffinity>
-7.63851

> <CNNscore>
0.2613817453

> <CNNaffinity>
6.9430990219

> <CNN_VS>
1.8147993088

> <CNNaffinity_variance>
0.1804876029

$$$$
[H]c1nc(N([H])c2nn([H])c(C([H])([H])C([H])([H])c3c([H])c(OC([H])([H])[H])c([H])c(OC([H])([H])[H])c3[H])c2[H])c2c([H])c([H])c(N3C([H])([H])C([H])([H])N(C([H])([H])C([H])([H])OC([H])([H])[H])C([H])([H])C3([H])[H])c([H])c2n1


 40 44  0  0  0  0  0  0  0  0999 V2000
   -0.0232   21.5501  -23.6309 C   0  0  0  0  0  0  0  0  0  0  0  0
   -1.3983   21.5337  -23.6408 C   0  0  0  0  0  0  0  0  0  0  0  0
   -2.1434   21.9097  -24.7668 C   0  0  0  0  0  0  0  0  0  0  0  0
   -1.5276   22.3114  -25.9106 C   0  0  0  0  0  0  0  0  0  0  0  0
   -2.2308   22.6823  -27.0198 C   0  0  0  0  0  0  0  0  0  0  0  0
   -1.5271   23.0687  -28.1152 N   0  0  0  0  0  0  0  0  0  0  0  0
   -0.1888   23.0876  -28.1141 C   0  0  0  0  0  0  0  0  0  0  0  0
    0.4923   22.7234  -27.0255 N   0  0  0  0  0  0  0  0  0  0  0  0
   -0.1280   22.3328  -25.9141 C   0  0  0  0  0  0  0  0  0  0  0  0
    0.5968   21.9565  -24.7886 C   0  0  0  0  0  0  0  0  0  0  0  0
    2.2179   20.7038  -20.0745 N   0  0  0  0  0  0  0  0  0  0  0  0
    0.8561   20.2922  -20.2131 C   0  0  0  0  0  0  0  0  0  0  0  0
    0.0889   21.2242  -21.1524 C   0  0  0  0  0  0  0  0  0  0  0  0
    0.7177   21.1602  -22.4707 N   0  0  0  0  0  0  0  0  0  0  0  0
    2.0856   20.6979  -22.5401 C   0  0  0  0  0  0  0  0  0  0  0  0
    2.8141   21.1734  -21.2838 C   0  0  0  0  0  0  0  0  0  0  0  0
    2.9731   19.7344  -19.3436 C   0  0  0  0  0  0  0  0  0  0  0  0
    2.6027   18.3126  -19.5938 C   0  0  0  0  0  0  0  0  0  0  0  0
    2.7609   16.5999  -21.1680 C   0  0  0  0  0  0  0  0  0  0  0  0
    3.2287   17.7919  -20.6868 O   0  0  0  0  0  0  0  0  0  0  0  0
   -3.6423   22.6709  -27.0426 N   0  0  0  0  0  0  0  0  0  0  0  0
   -4.2407   21.8787  -27.3209 H   0  0  0  0  0  0  0  0  0  0  0  0
   -4.3616   23.8654  -26.6448 C   0  0  0  0  0  0  0  0  0  0  0  0
   -5.2210   23.9993  -25.5799 C   0  0  0  0  0  0  0  0  0  0  0  0
   -5.7095   25.3008  -25.5349 C   0  0  0  0  0  0  0  0  0  0  0  0
   -5.1306   25.9158  -26.5751 N   0  0  0  0  0  0  0  0  0  0  0  0
   -4.3317   25.0725  -27.2364 N   0  0  0  0  0  0  0  0  0  0  0  0
   -5.3058   26.9217  -26.8057 H   0  0  0  0  0  0  0  0  0  0  0  0
   -6.6584   25.8805  -24.5541 C   0  0  0  0  0  0  0  0  0  0  0  0
   -7.8518   24.9881  -24.3004 C   0  0  0  0  0  0  0  0  0  0  0  0
   -8.0786   24.9836  -22.8211 C   0  0  0  0  0  0  0  0  0  0  0  0
   -7.2824   24.1465  -22.0697 C   0  0  0  0  0  0  0  0  0  0  0  0
   -7.4674   24.1222  -20.7178 C   0  0  0  0  0  0  0  0  0  0  0  0
   -8.4209   24.9119  -20.1328 C   0  0  0  0  0  0  0  0  0  0  0  0
   -9.2083   25.7418  -20.8887 C   0  0  0  0  0  0  0  0  0  0  0  0
   -9.0476   25.7891  -22.2470 C   0  0  0  0  0  0  0  0  0  0  0  0
   -6.6622   23.2776  -19.9709 O   0  0  0  0  0  0  0  0  0  0  0  0
   -6.0130   23.7956  -18.8344 C   0  0  0  0  0  0  0  0  0  0  0  0
  -10.1566   26.5152  -20.2219 O   0  0  0  0  0  0  0  0  0  0  0  0
  -10.5236   27.7966  -20.6374 C   0  0  0  0  0  0  0  0  0  0  0  0
 19 20  1  0  0  0
 20 18  1  0  0  0
 18 17  1  0  0  0
 17 11  1  0  0  0
 11 12  1  0  0  0
 12 13  1  0  0  0
 13 14  1  0  0  0
 14 15  1  0  0  0
 15 16  1  0  0  0
 14  1  1  0  0  0
  1  2  2  0  0  0
  2  3  1  0  0  0
  3  4  2  0  0  0
  4  5  1  0  0  0
  5 21  1  0  0  0
 21 23  1  0  0  0
 23 24  1  0  0  0
 24 25  2  0  0  0
 25 29  1  0  0  0
 29 30  1  0  0  0
 30 31  1  0  0  0
 31 32  2  0  0  0
 32 33  1  0  0  0
 33 37  1  0  0  0
 37 38  1  0  0  0
 33 34  2  0  0  0
 34 35  1  0  0  0
 35 39  1  0  0  0
 39 40  1  0  0  0
 35 36  2  0  0  0
 25 26  1  0  0  0
 26 27  1  0  0  0
  5  6  2  0  0  0
  6  7  1  0  0  0
  7  8  2  0  0  0
  8  9  1  0  0  0
  9 10  2  0  0  0
 16 11  1  0  0  0
 10  1  1  0  0  0
  9  4  1  0  0  0
 27 23  2  0  0  0
 36 31  1  0  0  0
 21 22  1  0  0  0
 26 28  1  0  0  0
M  END
> <minimizedAffinity>
-7.72337

> <CNNscore>
0.2170690596

> <CNNaffinity>
7.0019621849

> <CNN_VS>
1.5199093819

> <CNNaffinity_variance>
0.1123583168

$$$$
[H]c1nc(N([H])c2nn([H])c(C([H])([H])C([H])([H])c3c([H])c(OC([H])([H])[H])c([H])c(OC([H])([H])[H])c3[H])c2[H])c2c([H])c([H])c(N3C([H])([H])C([H])([H])N(C([H])([H])C([H])([H])OC([H])([H])[H])C([H])([H])C3([H])[H])c([H])c2n1


 40 44  0  0  0  0  0  0  0  0999 V2000
   -0.3339   21.7645  -23.7031 C   0  0  0  0  0  0  0  0  0  0  0  0
   -1.6928   21.6994  -23.9043 C   0  0  0  0  0  0  0  0  0  0  0  0
   -2.2822   22.0044  -25.1388 C   0  0  0  0  0  0  0  0  0  0  0  0
   -1.5232   22.3821  -26.2018 C   0  0  0  0  0  0  0  0  0  0  0  0
   -2.0734   22.6842  -27.4137 C   0  0  0  0  0  0  0  0  0  0  0  0
   -1.2337   23.0516  -28.4159 N   0  0  0  0  0  0  0  0  0  0  0  0
    0.0899   23.1175  -28.2285 C   0  0  0  0  0  0  0  0  0  0  0  0
    0.6209   22.8207  -27.0405 N   0  0  0  0  0  0  0  0  0  0  0  0
   -0.1383   22.4525  -26.0106 C   0  0  0  0  0  0  0  0  0  0  0  0
    0.4311   22.1466  -24.7795 C   0  0  0  0  0  0  0  0  0  0  0  0
    1.3453   20.4926  -19.9682 N   0  0  0  0  0  0  0  0  0  0  0  0
    2.1550   21.0846  -20.9864 C   0  0  0  0  0  0  0  0  0  0  0  0
    1.5708   20.8292  -22.3768 C   0  0  0  0  0  0  0  0  0  0  0  0
    0.2469   21.4468  -22.4347 N   0  0  0  0  0  0  0  0  0  0  0  0
   -0.4257   21.7112  -21.1828 C   0  0  0  0  0  0  0  0  0  0  0  0
   -0.0593   20.5996  -20.2004 C   0  0  0  0  0  0  0  0  0  0  0  0
    1.7928   20.8831  -18.6676 C   0  0  0  0  0  0  0  0  0  0  0  0
    0.9796   21.9394  -18.0009 C   0  0  0  0  0  0  0  0  0  0  0  0
    2.7308   23.4756  -18.1012 C   0  0  0  0  0  0  0  0  0  0  0  0
    1.4063   23.1982  -18.3022 O   0  0  0  0  0  0  0  0  0  0  0  0
   -3.4666   22.6222  -27.6330 N   0  0  0  0  0  0  0  0  0  0  0  0
   -3.9935   21.8054  -27.9770 H   0  0  0  0  0  0  0  0  0  0  0  0
   -4.2738   23.7959  -27.3623 C   0  0  0  0  0  0  0  0  0  0  0  0
   -4.9778   24.0707  -26.2136 C   0  0  0  0  0  0  0  0  0  0  0  0
   -5.6250   25.2949  -26.3441 C   0  0  0  0  0  0  0  0  0  0  0  0
   -5.2930   25.7243  -27.5692 N   0  0  0  0  0  0  0  0  0  0  0  0
   -4.4936   24.8424  -28.1774 N   0  0  0  0  0  0  0  0  0  0  0  0
   -5.6338   26.6332  -27.9609 H   0  0  0  0  0  0  0  0  0  0  0  0
   -6.4889   25.9752  -25.3496 C   0  0  0  0  0  0  0  0  0  0  0  0
   -7.4182   25.0206  -24.6352 C   0  0  0  0  0  0  0  0  0  0  0  0
   -7.1588   25.1836  -23.1703 C   0  0  0  0  0  0  0  0  0  0  0  0
   -6.0020   24.6222  -22.6747 C   0  0  0  0  0  0  0  0  0  0  0  0
   -5.7399   24.7555  -21.3420 C   0  0  0  0  0  0  0  0  0  0  0  0
   -6.6091   25.4306  -20.5273 C   0  0  0  0  0  0  0  0  0  0  0  0
   -7.7577   25.9860  -21.0296 C   0  0  0  0  0  0  0  0  0  0  0  0
   -8.0492   25.8697  -22.3618 C   0  0  0  0  0  0  0  0  0  0  0  0
   -4.5745   24.1879  -20.8530 O   0  0  0  0  0  0  0  0  0  0  0  0
   -4.1823   22.9271  -21.3408 C   0  0  0  0  0  0  0  0  0  0  0  0
   -8.5926   26.6579  -20.1387 O   0  0  0  0  0  0  0  0  0  0  0  0
   -9.8813   27.0790  -20.4721 C   0  0  0  0  0  0  0  0  0  0  0  0
 19 20  1  0  0  0
 20 18  1  0  0  0
 18 17  1  0  0  0
 17 11  1  0  0  0
 11 12  1  0  0  0
 12 13  1  0  0  0
 13 14  1  0  0  0
 14 15  1  0  0  0
 15 16  1  0  0  0
 14  1  1  0  0  0
  1  2  2  0  0  0
  2  3  1  0  0  0
  3  4  2  0  0  0
  4  5  1  0  0  0
  5 21  1  0  0  0
 21 23  1  0  0  0
 23 24  1  0  0  0
 24 25  2  0  0  0
 25 29  1  0  0  0
 29 30  1  0  0  0
 30 31  1  0  0  0
 31 32  2  0  0  0
 32 33  1  0  0  0
 33 37  1  0  0  0
 37 38  1  0  0  0
 33 34  2  0  0  0
 34 35  1  0  0  0
 35 39  1  0  0  0
 39 40  1  0  0  0
 35 36  2  0  0  0
 25 26  1  0  0  0
 26 27  1  0  0  0
  5  6  2  0  0  0
  6  7  1  0  0  0
  7  8  2  0  0  0
  8  9  1  0  0  0
  9 10  2  0  0  0
 16 11  1  0  0  0
 10  1  1  0  0  0
  9  4  1  0  0  0
 27 23  2  0  0  0
 36 31  1  0  0  0
 21 22  1  0  0  0
 26 28  1  0  0  0
M  END
> <minimizedAffinity>
-8.19775

> <CNNscore>
0.1749663055

> <CNNaffinity>
6.9653687477

> <CNN_VS>
1.2187048197

> <CNNaffinity_variance>
0.1988976300

$$$$
[H]C([H])=C([H])C(=O)N1C([H])([H])C([H])(N2C([H])([H])C([H])([H])C([H])([H])[C@@]2([H])C([H])([H])n2c(=O)c(-c3c(Cl)c(OC([H])([H])[H])c([H])c(OC([H])([H])[H])c3Cl)c([H])c3c([H])nc(N([H])C([H])([H])[H])nc32)C1([H])[H]


 40 44  0  0  0  0  0  0  0  0999 V2000
   -0.0849   22.2701  -25.1110 C   0  0  0  0  0  0  0  0  0  0  0  0
    0.9116   21.4638  -24.6745 N   0  0  0  0  0  0  0  0  0  0  0  0
    1.0564   21.1716  -23.3625 C   0  0  0  0  0  0  0  0  0  0  0  0
    0.1976   21.6803  -22.4103 C   0  0  0  0  0  0  0  0  0  0  0  0
    0.3485   21.4017  -21.0715 C   0  0  0  0  0  0  0  0  0  0  0  0
   -0.5483   21.9716  -20.1995 C   0  0  0  0  0  0  0  0  0  0  0  0
   -1.5607   22.7880  -20.6274 C   0  0  0  0  0  0  0  0  0  0  0  0
   -2.4024   23.3236  -19.8146 O   0  0  0  0  0  0  0  0  0  0  0  0
   -1.6744   23.0357  -21.9515 N   0  0  0  0  0  0  0  0  0  0  0  0
   -0.8222   22.5067  -22.8716 C   0  0  0  0  0  0  0  0  0  0  0  0
   -0.9197   22.7645  -24.1875 N   0  0  0  0  0  0  0  0  0  0  0  0
   -0.4126   21.6974  -18.7845 C   0  0  0  0  0  0  0  0  0  0  0  0
    0.6105   22.3069  -18.0877 C   0  0  0  0  0  0  0  0  0  0  0  0
    1.7513   23.4089  -18.8827 Cl  0  0  0  0  0  0  0  0  0  0  0  0
    0.7255   22.0346  -16.7409 C   0  0  0  0  0  0  0  0  0  0  0  0
   -0.1734   21.1657  -16.1119 C   0  0  0  0  0  0  0  0  0  0  0  0
   -1.1825   20.5761  -16.8429 C   0  0  0  0  0  0  0  0  0  0  0  0
   -1.3112   20.8374  -18.1884 C   0  0  0  0  0  0  0  0  0  0  0  0
   -2.6148   20.0713  -19.1158 Cl  0  0  0  0  0  0  0  0  0  0  0  0
    1.7620   22.6554  -16.0472 O   0  0  0  0  0  0  0  0  0  0  0  0
    1.7168   22.5969  -14.6333 C   0  0  0  0  0  0  0  0  0  0  0  0
   -2.0809   19.7147  -16.2408 O   0  0  0  0  0  0  0  0  0  0  0  0
   -2.8383   20.0460  -15.0944 C   0  0  0  0  0  0  0  0  0  0  0  0
   -1.4528   22.1912  -27.1603 C   0  0  0  0  0  0  0  0  0  0  0  0
   -0.2265   22.5733  -26.5027 N   0  0  0  0  0  0  0  0  0  0  0  0
    0.5041   23.0515  -27.0604 H   0  0  0  0  0  0  0  0  0  0  0  0
   -2.7349   23.9316  -22.3458 C   0  0  0  0  0  0  0  0  0  0  0  0
   -4.0885   23.3520  -22.4507 C   0  0  0  0  0  0  0  0  0  0  0  0
   -4.2754   21.9177  -22.1200 C   0  0  0  0  0  0  0  0  0  0  0  0
   -4.0492   21.1612  -23.4225 C   0  0  0  0  0  0  0  0  0  0  0  0
   -4.1794   22.2456  -24.4825 C   0  0  0  0  0  0  0  0  0  0  0  0
   -4.6292   23.4184  -23.8010 N   0  0  0  0  0  0  0  0  0  0  0  0
   -4.4050   24.6589  -24.4712 C   0  0  0  0  0  0  0  0  0  0  0  0
   -5.5865   25.1220  -25.2386 C   0  0  0  0  0  0  0  0  0  0  0  0
   -4.8554   25.0403  -26.4895 N   0  0  0  0  0  0  0  0  0  0  0  0
   -3.7248   24.5396  -25.7873 C   0  0  0  0  0  0  0  0  0  0  0  0
   -5.1747   25.3549  -27.8433 C   0  0  0  0  0  0  0  0  0  0  0  0
   -6.3548   25.8376  -28.0815 O   0  0  0  0  0  0  0  0  0  0  0  0
   -4.2665   25.1663  -28.9434 C   0  0  0  0  0  0  0  0  0  0  0  0
   -4.1256   25.8838  -30.0169 C   0  0  0  0  0  0  0  0  0  0  0  0
 24 25  1  0  0  0
 25  1  1  0  0  0
  1  2  2  0  0  0
  2  3  1  0  0  0
  3  4  2  0  0  0
  4  5  1  0  0  0
  5  6  2  0  0  0
  6 12  1  0  0  0
 12 13  2  0  0  0
 13 14  1  0  0  0
 13 15  1  0  0  0
 15 20  1  0  0  0
 20 21  1  0  0  0
 15 16  2  0  0  0
 16 17  1  0  0  0
 17 22  1  0  0  0
 22 23  1  0  0  0
 17 18  2  0  0  0
 18 19  1  0  0  0
  6  7  1  0  0  0
  7  8  2  0  0  0
  7  9  1  0  0  0
  9 27  1  0  0  0
 27 28  1  0  0  0
 28 29  1  0  0  0
 29 30  1  0  0  0
 30 31  1  0  0  0
 31 32  1  0  0  0
 32 33  1  0  0  0
 33 34  1  0  0  0
 34 35  1  0  0  0
 35 36  1  0  0  0
 35 37  1  0  0  0
 37 38  2  0  0  0
 37 39  1  0  0  0
 39 40  2  0  0  0
  9 10  1  0  0  0
 10 11  2  0  0  0
 11  1  1  0  0  0
 10  4  1  0  0  0
 18 12  1  0  0  0
 32 28  1  0  0  0
 36 33  1  0  0  0
 25 26  1  0  0  0
M  END
> <minimizedAffinity>
-7.50443

> <CNNscore>
0.2620553672

> <CNNaffinity>
7.3737516403

> <CNN_VS>
1.9323312044

> <CNNaffinity_variance>
0.1982371360

$$$$
[H]C([H])=C([H])C(=O)N1C([H])([H])C([H])(N2C([H])([H])C([H])([H])C([H])([H])[C@@]2([H])C([H])([H])n2c(=O)c(-c3c(Cl)c(OC([H])([H])[H])c([H])c(OC([H])([H])[H])c3Cl)c([H])c3c([H])nc(N([H])C([H])([H])[H])nc32)C1([H])[H]


 40 44  0  0  0  0  0  0  0  0999 V2000
   -0.1701   22.3286  -25.1119 C   0  0  0  0  0  0  0  0  0  0  0  0
    0.8382   21.5348  -24.6795 N   0  0  0  0  0  0  0  0  0  0  0  0
    0.9831   21.2322  -23.3699 C   0  0  0  0  0  0  0  0  0  0  0  0
    0.1125   21.7169  -22.4161 C   0  0  0  0  0  0  0  0  0  0  0  0
    0.2632   21.4276  -21.0795 C   0  0  0  0  0  0  0  0  0  0  0  0
   -0.6463   21.9737  -20.2054 C   0  0  0  0  0  0  0  0  0  0  0  0
   -1.6707   22.7772  -20.6290 C   0  0  0  0  0  0  0  0  0  0  0  0
   -2.5243   23.2905  -19.8142 O   0  0  0  0  0  0  0  0  0  0  0  0
   -1.7837   23.0360  -21.9510 N   0  0  0  0  0  0  0  0  0  0  0  0
   -0.9195   22.5306  -22.8730 C   0  0  0  0  0  0  0  0  0  0  0  0
   -1.0165   22.7997  -24.1867 N   0  0  0  0  0  0  0  0  0  0  0  0
   -0.5111   21.6878  -18.7926 C   0  0  0  0  0  0  0  0  0  0  0  0
   -1.4041   20.8148  -18.2060 C   0  0  0  0  0  0  0  0  0  0  0  0
   -2.7013   20.0432  -19.1385 Cl  0  0  0  0  0  0  0  0  0  0  0  0
   -1.2611   20.5538  -16.8596 C   0  0  0  0  0  0  0  0  0  0  0  0
   -0.2385   21.1614  -16.1222 C   0  0  0  0  0  0  0  0  0  0  0  0
    0.6339   22.0282  -16.7449 C   0  0  0  0  0  0  0  0  0  0  0  0
    0.5050   22.2995  -18.0885 C   0  0  0  0  0  0  0  0  0  0  0  0
    1.6352   23.4170  -18.8758 Cl  0  0  0  0  0  0  0  0  0  0  0  0
   -2.1682   19.6709  -16.2775 O   0  0  0  0  0  0  0  0  0  0  0  0
   -3.2048   20.2348  -15.4952 C   0  0  0  0  0  0  0  0  0  0  0  0
    1.6508   22.6390  -16.0347 O   0  0  0  0  0  0  0  0  0  0  0  0
    1.8690   22.4444  -14.6519 C   0  0  0  0  0  0  0  0  0  0  0  0
   -1.4764   22.1483  -27.1948 C   0  0  0  0  0  0  0  0  0  0  0  0
   -0.3118   22.6431  -26.5010 N   0  0  0  0  0  0  0  0  0  0  0  0
    0.3768   23.2061  -27.0324 H   0  0  0  0  0  0  0  0  0  0  0  0
   -2.8578   23.9178  -22.3405 C   0  0  0  0  0  0  0  0  0  0  0  0
   -4.1922   23.3074  -22.5016 C   0  0  0  0  0  0  0  0  0  0  0  0
   -4.3482   21.8571  -22.2295 C   0  0  0  0  0  0  0  0  0  0  0  0
   -4.0694   21.1568  -23.5531 C   0  0  0  0  0  0  0  0  0  0  0  0
   -4.2029   22.2768  -24.5749 C   0  0  0  0  0  0  0  0  0  0  0  0
   -4.7010   23.4108  -23.8620 N   0  0  0  0  0  0  0  0  0  0  0  0
   -4.4941   24.6812  -24.4795 C   0  0  0  0  0  0  0  0  0  0  0  0
   -5.6606   25.1324  -25.2763 C   0  0  0  0  0  0  0  0  0  0  0  0
   -4.8799   25.1198  -26.4996 N   0  0  0  0  0  0  0  0  0  0  0  0
   -3.7605   24.6317  -25.7711 C   0  0  0  0  0  0  0  0  0  0  0  0
   -5.1580   25.4721  -27.8532 C   0  0  0  0  0  0  0  0  0  0  0  0
   -6.3440   25.9240  -28.1208 O   0  0  0  0  0  0  0  0  0  0  0  0
   -4.2025   25.3532  -28.9226 C   0  0  0  0  0  0  0  0  0  0  0  0
   -4.3663   25.5778  -30.1913 C   0  0  0  0  0  0  0  0  0  0  0  0
 24 25  1  0  0  0
 25  1  1  0  0  0
  1  2  2  0  0  0
  2  3  1  0  0  0
  3  4  2  0  0  0
  4  5  1  0  0  0
  5  6  2  0  0  0
  6 12  1  0  0  0
 12 13  2  0  0  0
 13 14  1  0  0  0
 13 15  1  0  0  0
 15 20  1  0  0  0
 20 21  1  0  0  0
 15 16  2  0  0  0
 16 17  1  0  0  0
 17 22  1  0  0  0
 22 23  1  0  0  0
 17 18  2  0  0  0
 18 19  1  0  0  0
  6  7  1  0  0  0
  7  8  2  0  0  0
  7  9  1  0  0  0
  9 27  1  0  0  0
 27 28  1  0  0  0
 28 29  1  0  0  0
 29 30  1  0  0  0
 30 31  1  0  0  0
 31 32  1  0  0  0
 32 33  1  0  0  0
 33 34  1  0  0  0
 34 35  1  0  0  0
 35 36  1  0  0  0
 35 37  1  0  0  0
 37 38  2  0  0  0
 37 39  1  0  0  0
 39 40  2  0  0  0
  9 10  1  0  0  0
 10 11  2  0  0  0
 11  1  1  0  0  0
 10  4  1  0  0  0
 18 12  1  0  0  0
 32 28  1  0  0  0
 36 33  1  0  0  0
 25 26  1  0  0  0
M  END
> <minimizedAffinity>
-7.48698

> <CNNscore>
0.2611389756

> <CNNaffinity>
7.3744521141

> <CNN_VS>
1.9257568121

> <CNNaffinity_variance>
0.1979166269

$$$$
[H]C([H])=C([H])C(=O)N1C([H])([H])C([H])(N2C([H])([H])C([H])([H])C([H])([H])[C@@]2([H])C([H])([H])n2c(=O)c(-c3c(Cl)c(OC([H])([H])[H])c([H])c(OC([H])([H])[H])c3Cl)c([H])c3c([H])nc(N([H])C([H])([H])[H])nc32)C1([H])[H]


 40 44  0  0  0  0  0  0  0  0999 V2000
   -0.5891   22.1694  -25.7515 C   0  0  0  0  0  0  0  0  0  0  0  0
    0.7252   21.9948  -25.4761 N   0  0  0  0  0  0  0  0  0  0  0  0
    1.1447   21.6502  -24.2379 C   0  0  0  0  0  0  0  0  0  0  0  0
    0.2553   21.4611  -23.2007 C   0  0  0  0  0  0  0  0  0  0  0  0
    0.6755   21.1272  -21.9339 C   0  0  0  0  0  0  0  0  0  0  0  0
   -0.2874   20.9787  -20.9642 C   0  0  0  0  0  0  0  0  0  0  0  0
   -1.6195   21.1516  -21.2292 C   0  0  0  0  0  0  0  0  0  0  0  0
   -2.5242   21.0136  -20.3245 O   0  0  0  0  0  0  0  0  0  0  0  0
   -1.9903   21.4785  -22.4873 N   0  0  0  0  0  0  0  0  0  0  0  0
   -1.0920   21.6428  -23.4966 C   0  0  0  0  0  0  0  0  0  0  0  0
   -1.4539   21.9858  -24.7451 N   0  0  0  0  0  0  0  0  0  0  0  0
    0.1259   20.6294  -19.6214 C   0  0  0  0  0  0  0  0  0  0  0  0
    0.3017   21.6407  -18.6993 C   0  0  0  0  0  0  0  0  0  0  0  0
    0.0340   23.3429  -19.1216 Cl  0  0  0  0  0  0  0  0  0  0  0  0
    0.6957   21.2905  -17.4252 C   0  0  0  0  0  0  0  0  0  0  0  0
    0.9074   19.9483  -17.0901 C   0  0  0  0  0  0  0  0  0  0  0  0
    0.7213   18.9668  -18.0399 C   0  0  0  0  0  0  0  0  0  0  0  0
    0.3280   19.2995  -19.3166 C   0  0  0  0  0  0  0  0  0  0  0  0
    0.0924   18.0255  -20.5280 Cl  0  0  0  0  0  0  0  0  0  0  0  0
    0.8702   22.3194  -16.5022 O   0  0  0  0  0  0  0  0  0  0  0  0
    1.0961   21.9456  -15.1554 C   0  0  0  0  0  0  0  0  0  0  0  0
    0.9251   17.6350  -17.7295 O   0  0  0  0  0  0  0  0  0  0  0  0
    1.9727   17.1738  -16.9004 C   0  0  0  0  0  0  0  0  0  0  0  0
   -0.0131   22.8696  -28.0439 C   0  0  0  0  0  0  0  0  0  0  0  0
   -1.0205   22.5359  -27.0661 N   0  0  0  0  0  0  0  0  0  0  0  0
   -2.0160   22.5738  -27.3508 H   0  0  0  0  0  0  0  0  0  0  0  0
   -3.4019   21.6855  -22.7047 C   0  0  0  0  0  0  0  0  0  0  0  0
   -3.9234   23.0398  -22.4343 C   0  0  0  0  0  0  0  0  0  0  0  0
   -4.9798   23.2028  -21.4053 C   0  0  0  0  0  0  0  0  0  0  0  0
   -6.3025   23.0391  -22.1426 C   0  0  0  0  0  0  0  0  0  0  0  0
   -5.9138   23.2282  -23.6019 C   0  0  0  0  0  0  0  0  0  0  0  0
   -4.5480   23.6486  -23.6003 N   0  0  0  0  0  0  0  0  0  0  0  0
   -3.8330   23.4648  -24.8222 C   0  0  0  0  0  0  0  0  0  0  0  0
   -3.7712   24.6965  -25.6457 C   0  0  0  0  0  0  0  0  0  0  0  0
   -4.5116   24.0623  -26.7207 N   0  0  0  0  0  0  0  0  0  0  0  0
   -4.6365   22.8865  -25.9308 C   0  0  0  0  0  0  0  0  0  0  0  0
   -4.9154   24.4799  -28.0231 C   0  0  0  0  0  0  0  0  0  0  0  0
   -4.5675   25.6703  -28.4029 O   0  0  0  0  0  0  0  0  0  0  0  0
   -5.6790   23.6587  -28.9249 C   0  0  0  0  0  0  0  0  0  0  0  0
   -5.6837   23.6602  -30.2237 C   0  0  0  0  0  0  0  0  0  0  0  0
 24 25  1  0  0  0
 25  1  1  0  0  0
  1  2  2  0  0  0
  2  3  1  0  0  0
  3  4  2  0  0  0
  4  5  1  0  0  0
  5  6  2  0  0  0
  6 12  1  0  0  0
 12 13  2  0  0  0
 13 14  1  0  0  0
 13 15  1  0  0  0
 15 20  1  0  0  0
 20 21  1  0  0  0
 15 16  2  0  0  0
 16 17  1  0  0  0
 17 22  1  0  0  0
 22 23  1  0  0  0
 17 18  2  0  0  0
 18 19  1  0  0  0
  6  7  1  0  0  0
  7  8  2  0  0  0
  7  9  1  0  0  0
  9 27  1  0  0  0
 27 28  1  0  0  0
 28 29  1  0  0  0
 29 30  1  0  0  0
 30 31  1  0  0  0
 31 32  1  0  0  0
 32 33  1  0  0  0
 33 34  1  0  0  0
 34 35  1  0  0  0
 35 36  1  0  0  0
 35 37  1  0  0  0
 37 38  2  0  0  0
 37 39  1  0  0  0
 39 40  2  0  0  0
  9 10  1  0  0  0
 10 11  2  0  0  0
 11  1  1  0  0  0
 10  4  1  0  0  0
 18 12  1  0  0  0
 32 28  1  0  0  0
 36 33  1  0  0  0
 25 26  1  0  0  0
M  END
> <minimizedAffinity>
-7.42878

> <CNNscore>
0.2294825912

> <CNNaffinity>
7.3610429764

> <CNN_VS>
1.6892311573

> <CNNaffinity_variance>
0.1779837161

$$$$
[H]C([H])=C([H])C(=O)N1C([H])([H])C([H])(N2C([H])([H])C([H])([H])C([H])([H])[C@@]2([H])C([H])([H])n2c(=O)c(-c3c(Cl)c(OC([H])([H])[H])c([H])c(OC([H])([H])[H])c3Cl)c([H])c3c([H])nc(N([H])C([H])([H])[H])nc32)C1([H])[H]


 40 44  0  0  0  0  0  0  0  0999 V2000
   -0.5937   22.2545  -25.6339 C   0  0  0  0  0  0  0  0  0  0  0  0
    0.7203   22.0604  -25.3704 N   0  0  0  0  0  0  0  0  0  0  0  0
    1.1443   21.6928  -24.1404 C   0  0  0  0  0  0  0  0  0  0  0  0
    0.2599   21.4991  -23.0997 C   0  0  0  0  0  0  0  0  0  0  0  0
    0.6848   21.1418  -21.8409 C   0  0  0  0  0  0  0  0  0  0  0  0
   -0.2731   20.9905  -20.8667 C   0  0  0  0  0  0  0  0  0  0  0  0
   -1.6048   21.1831  -21.1197 C   0  0  0  0  0  0  0  0  0  0  0  0
   -2.5048   21.0426  -20.2108 O   0  0  0  0  0  0  0  0  0  0  0  0
   -1.9804   21.5326  -22.3703 N   0  0  0  0  0  0  0  0  0  0  0  0
   -1.0872   21.7010  -23.3834 C   0  0  0  0  0  0  0  0  0  0  0  0
   -1.4536   22.0664  -24.6243 N   0  0  0  0  0  0  0  0  0  0  0  0
    0.1453   20.6168  -19.5321 C   0  0  0  0  0  0  0  0  0  0  0  0
    0.3164   19.2786  -19.2429 C   0  0  0  0  0  0  0  0  0  0  0  0
    0.0372   18.0195  -20.4612 Cl  0  0  0  0  0  0  0  0  0  0  0  0
    0.7151   18.9402  -17.9671 C   0  0  0  0  0  0  0  0  0  0  0  0
    0.9359   19.9319  -17.0046 C   0  0  0  0  0  0  0  0  0  0  0  0
    0.7539   21.2584  -17.3326 C   0  0  0  0  0  0  0  0  0  0  0  0
    0.3563   21.6132  -18.6020 C   0  0  0  0  0  0  0  0  0  0  0  0
    0.1264   23.3242  -19.0092 Cl  0  0  0  0  0  0  0  0  0  0  0  0
    0.8847   17.5862  -17.6860 O   0  0  0  0  0  0  0  0  0  0  0  0
   -0.1302   16.9532  -16.9286 C   0  0  0  0  0  0  0  0  0  0  0  0
    0.9667   22.2535  -16.3966 O   0  0  0  0  0  0  0  0  0  0  0  0
    2.2477   22.6506  -15.9505 C   0  0  0  0  0  0  0  0  0  0  0  0
   -0.0249   22.9153  -27.9398 C   0  0  0  0  0  0  0  0  0  0  0  0
   -1.0298   22.6453  -26.9400 N   0  0  0  0  0  0  0  0  0  0  0  0
   -2.0269   22.7438  -27.2036 H   0  0  0  0  0  0  0  0  0  0  0  0
   -3.3910   21.7595  -22.5746 C   0  0  0  0  0  0  0  0  0  0  0  0
   -3.9005   23.1061  -22.2490 C   0  0  0  0  0  0  0  0  0  0  0  0
   -4.9347   23.2390  -21.1934 C   0  0  0  0  0  0  0  0  0  0  0  0
   -6.2731   23.1050  -21.9081 C   0  0  0  0  0  0  0  0  0  0  0  0
   -5.9137   23.3408  -23.3681 C   0  0  0  0  0  0  0  0  0  0  0  0
   -4.5462   23.7556  -23.3810 N   0  0  0  0  0  0  0  0  0  0  0  0
   -3.8574   23.6095  -24.6229 C   0  0  0  0  0  0  0  0  0  0  0  0
   -3.8978   24.8375  -25.4532 C   0  0  0  0  0  0  0  0  0  0  0  0
   -4.6281   24.1513  -26.5029 N   0  0  0  0  0  0  0  0  0  0  0  0
   -4.6551   22.9749  -25.7045 C   0  0  0  0  0  0  0  0  0  0  0  0
   -5.0957   24.5344  -27.7945 C   0  0  0  0  0  0  0  0  0  0  0  0
   -4.8351   25.7420  -28.1897 O   0  0  0  0  0  0  0  0  0  0  0  0
   -5.8322   23.6611  -28.6695 C   0  0  0  0  0  0  0  0  0  0  0  0
   -5.3857   22.8756  -29.6026 C   0  0  0  0  0  0  0  0  0  0  0  0
 24 25  1  0  0  0
 25  1  1  0  0  0
  1  2  2  0  0  0
  2  3  1  0  0  0
  3  4  2  0  0  0
  4  5  1  0  0  0
  5  6  2  0  0  0
  6 12  1  0  0  0
 12 13  2  0  0  0
 13 14  1  0  0  0
 13 15  1  0  0  0
 15 20  1  0  0  0
 20 21  1  0  0  0
 15 16  2  0  0  0
 16 17  1  0  0  0
 17 22  1  0  0  0
 22 23  1  0  0  0
 17 18  2  0  0  0
 18 19  1  0  0  0
  6  7  1  0  0  0
  7  8  2  0  0  0
  7  9  1  0  0  0
  9 27  1  0  0  0
 27 28  1  0  0  0
 28 29  1  0  0  0
 29 30  1  0  0  0
 30 31  1  0  0  0
 31 32  1  0  0  0
 32 33  1  0  0  0
 33 34  1  0  0  0
 34 35  1  0  0  0
 35 36  1  0  0  0
 35 37  1  0  0  0
 37 38  2  0  0  0
 37 39  1  0  0  0
 39 40  2  0  0  0
  9 10  1  0  0  0
 10 11  2  0  0  0
 11  1  1  0  0  0
 10  4  1  0  0  0
 18 12  1  0  0  0
 32 28  1  0  0  0
 36 33  1  0  0  0
 25 26  1  0  0  0
M  END
> <minimizedAffinity>
-7.54826

> <CNNscore>
0.2094373107

> <CNNaffinity>
7.2904272079

> <CNN_VS>
1.5268874168

> <CNNaffinity_variance>
0.2483272105

$$$$
[H]C([H])=C([H])C(=O)N1C([H])([H])C([H])(N2C([H])([H])C([H])([H])C([H])([H])[C@@]2([H])C([H])([H])n2c(=O)c(-c3c(Cl)c(OC([H])([H])[H])c([H])c(OC([H])([H])[H])c3Cl)c([H])c3c([H])nc(N([H])C([H])([H])[H])nc32)C1([H])[H]


 40 44  0  0  0  0  0  0  0  0999 V2000
   -0.5578   22.4194  -25.6193 C   0  0  0  0  0  0  0  0  0  0  0  0
    0.7160   22.0141  -25.4030 N   0  0  0  0  0  0  0  0  0  0  0  0
    1.1201   21.5829  -24.1870 C   0  0  0  0  0  0  0  0  0  0  0  0
    0.2554   21.5360  -23.1134 C   0  0  0  0  0  0  0  0  0  0  0  0
    0.6632   21.1148  -21.8688 C   0  0  0  0  0  0  0  0  0  0  0  0
   -0.2695   21.1216  -20.8591 C   0  0  0  0  0  0  0  0  0  0  0  0
   -1.5607   21.5281  -21.0642 C   0  0  0  0  0  0  0  0  0  0  0  0
   -2.4371   21.5361  -20.1219 O   0  0  0  0  0  0  0  0  0  0  0  0
   -1.9209   21.9337  -22.3024 N   0  0  0  0  0  0  0  0  0  0  0  0
   -1.0505   21.9542  -23.3487 C   0  0  0  0  0  0  0  0  0  0  0  0
   -1.3987   22.3740  -24.5775 N   0  0  0  0  0  0  0  0  0  0  0  0
    0.1321   20.6853  -19.5384 C   0  0  0  0  0  0  0  0  0  0  0  0
    0.2361   19.3316  -19.2921 C   0  0  0  0  0  0  0  0  0  0  0  0
   -0.1085   18.1273  -20.5485 Cl  0  0  0  0  0  0  0  0  0  0  0  0
    0.6196   18.9334  -18.0289 C   0  0  0  0  0  0  0  0  0  0  0  0
    0.8919   19.8818  -17.0365 C   0  0  0  0  0  0  0  0  0  0  0  0
    0.7763   21.2255  -17.3219 C   0  0  0  0  0  0  0  0  0  0  0  0
    0.3947   21.6398  -18.5781 C   0  0  0  0  0  0  0  0  0  0  0  0
    0.2505   23.3722  -18.9303 Cl  0  0  0  0  0  0  0  0  0  0  0  0
    0.7214   17.5644  -17.7913 O   0  0  0  0  0  0  0  0  0  0  0  0
   -0.3275   16.9577  -17.0590 C   0  0  0  0  0  0  0  0  0  0  0  0
    1.0407   22.1785  -16.3557 O   0  0  0  0  0  0  0  0  0  0  0  0
    2.3438   22.5892  -15.9941 C   0  0  0  0  0  0  0  0  0  0  0  0
   -2.3357   22.6255  -27.3145 C   0  0  0  0  0  0  0  0  0  0  0  0
   -0.9730   22.8754  -26.9109 N   0  0  0  0  0  0  0  0  0  0  0  0
   -0.3472   23.3742  -27.5690 H   0  0  0  0  0  0  0  0  0  0  0  0
   -3.2824   22.3869  -22.4562 C   0  0  0  0  0  0  0  0  0  0  0  0
   -4.2559   21.4017  -22.9670 C   0  0  0  0  0  0  0  0  0  0  0  0
   -4.3041   21.1408  -24.4269 C   0  0  0  0  0  0  0  0  0  0  0  0
   -5.2997   22.1452  -24.9927 C   0  0  0  0  0  0  0  0  0  0  0  0
   -6.0647   22.6090  -23.7615 C   0  0  0  0  0  0  0  0  0  0  0  0
   -5.6358   21.7718  -22.6856 N   0  0  0  0  0  0  0  0  0  0  0  0
   -5.8597   22.2769  -21.3693 C   0  0  0  0  0  0  0  0  0  0  0  0
   -6.7835   21.4308  -20.5758 C   0  0  0  0  0  0  0  0  0  0  0  0
   -7.7459   22.5119  -20.4699 N   0  0  0  0  0  0  0  0  0  0  0  0
   -6.9065   23.3279  -21.2771 C   0  0  0  0  0  0  0  0  0  0  0  0
   -9.0004   22.6570  -19.8076 C   0  0  0  0  0  0  0  0  0  0  0  0
   -9.4317   21.6465  -19.1180 O   0  0  0  0  0  0  0  0  0  0  0  0
   -9.8012   23.8511  -19.8649 C   0  0  0  0  0  0  0  0  0  0  0  0
  -10.5425   24.2902  -20.8369 C   0  0  0  0  0  0  0  0  0  0  0  0
 24 25  1  0  0  0
 25  1  1  0  0  0
  1  2  2  0  0  0
  2  3  1  0  0  0
  3  4  2  0  0  0
  4  5  1  0  0  0
  5  6  2  0  0  0
  6 12  1  0  0  0
 12 13  2  0  0  0
 13 14  1  0  0  0
 13 15  1  0  0  0
 15 20  1  0  0  0
 20 21  1  0  0  0
 15 16  2  0  0  0
 16 17  1  0  0  0
 17 22  1  0  0  0
 22 23  1  0  0  0
 17 18  2  0  0  0
 18 19  1  0  0  0
  6  7  1  0  0  0
  7  8  2  0  0  0
  7  9  1  0  0  0
  9 27  1  0  0  0
 27 28  1  0  0  0
 28 29  1  0  0  0
 29 30  1  0  0  0
 30 31  1  0  0  0
 31 32  1  0  0  0
 32 33  1  0  0  0
 33 34  1  0  0  0
 34 35  1  0  0  0
 35 36  1  0  0  0
 35 37  1  0  0  0
 37 38  2  0  0  0
 37 39  1  0  0  0
 39 40  2  0  0  0
  9 10  1  0  0  0
 10 11  2  0  0  0
 11  1  1  0  0  0
 10  4  1  0  0  0
 18 12  1  0  0  0
 32 28  1  0  0  0
 36 33  1  0  0  0
 25 26  1  0  0  0
M  END
> <minimizedAffinity>
-6.92325

> <CNNscore>
0.1113593206

> <CNNaffinity>
6.7349576950

> <CNN_VS>
0.7500002980

> <CNNaffinity_variance>
0.0705325305

$$$$
[H]C([H])=C([H])C(=O)N1C([H])([H])C([H])(N2C([H])([H])C([H])([H])C([H])([H])[C@@]2([H])C([H])([H])n2c(=O)c(-c3c(Cl)c(OC([H])([H])[H])c([H])c(OC([H])([H])[H])c3Cl)c([H])c3c([H])nc(N([H])C([H])([H])[H])nc32)C1([H])[H]


 40 44  0  0  0  0  0  0  0  0999 V2000
   -0.5369   22.3958  -25.7141 C   0  0  0  0  0  0  0  0  0  0  0  0
    0.7122   21.9034  -25.5379 N   0  0  0  0  0  0  0  0  0  0  0  0
    1.1262   21.4500  -24.3334 C   0  0  0  0  0  0  0  0  0  0  0  0
    0.2971   21.4680  -23.2311 C   0  0  0  0  0  0  0  0  0  0  0  0
    0.7164   21.0243  -21.9982 C   0  0  0  0  0  0  0  0  0  0  0  0
   -0.1790   21.1004  -20.9580 C   0  0  0  0  0  0  0  0  0  0  0  0
   -1.4449   21.5953  -21.1224 C   0  0  0  0  0  0  0  0  0  0  0  0
   -2.2863   21.6684  -20.1515 O   0  0  0  0  0  0  0  0  0  0  0  0
   -1.8176   22.0200  -22.3505 N   0  0  0  0  0  0  0  0  0  0  0  0
   -0.9838   21.9754  -23.4253 C   0  0  0  0  0  0  0  0  0  0  0  0
   -1.3432   22.4135  -24.6445 N   0  0  0  0  0  0  0  0  0  0  0  0
    0.2356   20.6424  -19.6487 C   0  0  0  0  0  0  0  0  0  0  0  0
    0.5267   21.5818  -18.6809 C   0  0  0  0  0  0  0  0  0  0  0  0
    0.4042   23.3218  -19.0052 Cl  0  0  0  0  0  0  0  0  0  0  0  0
    0.9202   21.1285  -17.4395 C   0  0  0  0  0  0  0  0  0  0  0  0
    1.0174   19.7563  -17.1817 C   0  0  0  0  0  0  0  0  0  0  0  0
    0.7179   18.8490  -18.1753 C   0  0  0  0  0  0  0  0  0  0  0  0
    0.3235   19.2851  -19.4201 C   0  0  0  0  0  0  0  0  0  0  0  0
   -0.0586   18.1056  -20.6886 Cl  0  0  0  0  0  0  0  0  0  0  0  0
    1.2116   22.0854  -16.4699 O   0  0  0  0  0  0  0  0  0  0  0  0
    2.5787   22.3688  -16.2346 C   0  0  0  0  0  0  0  0  0  0  0  0
    0.8076   17.4893  -17.9413 O   0  0  0  0  0  0  0  0  0  0  0  0
   -0.2156   16.7287  -17.3314 C   0  0  0  0  0  0  0  0  0  0  0  0
    0.0216   22.9736  -28.0447 C   0  0  0  0  0  0  0  0  0  0  0  0
   -0.9627   22.8744  -26.9940 N   0  0  0  0  0  0  0  0  0  0  0  0
   -1.9384   23.1525  -27.2042 H   0  0  0  0  0  0  0  0  0  0  0  0
   -3.1486   22.5666  -22.4616 C   0  0  0  0  0  0  0  0  0  0  0  0
   -4.2492   21.6005  -22.6479 C   0  0  0  0  0  0  0  0  0  0  0  0
   -4.4559   21.0088  -23.9928 C   0  0  0  0  0  0  0  0  0  0  0  0
   -5.4063   21.9532  -24.7172 C   0  0  0  0  0  0  0  0  0  0  0  0
   -6.0094   22.7752  -23.5872 C   0  0  0  0  0  0  0  0  0  0  0  0
   -5.5585   22.1744  -22.3714 N   0  0  0  0  0  0  0  0  0  0  0  0
   -5.6132   22.9976  -21.2063 C   0  0  0  0  0  0  0  0  0  0  0  0
   -6.8621   22.8140  -20.4280 C   0  0  0  0  0  0  0  0  0  0  0  0
   -7.2495   24.1950  -20.6487 N   0  0  0  0  0  0  0  0  0  0  0  0
   -6.0887   24.3849  -21.4479 C   0  0  0  0  0  0  0  0  0  0  0  0
   -8.3465   24.9954  -20.2136 C   0  0  0  0  0  0  0  0  0  0  0  0
   -9.2216   24.4367  -19.4360 O   0  0  0  0  0  0  0  0  0  0  0  0
   -8.5295   26.3726  -20.5884 C   0  0  0  0  0  0  0  0  0  0  0  0
   -9.6149   27.0857  -20.5695 C   0  0  0  0  0  0  0  0  0  0  0  0
 24 25  1  0  0  0
 25  1  1  0  0  0
  1  2  2  0  0  0
  2  3  1  0  0  0
  3  4  2  0  0  0
  4  5  1  0  0  0
  5  6  2  0  0  0
  6 12  1  0  0  0
 12 13  2  0  0  0
 13 14  1  0  0  0
 13 15  1  0  0  0
 15 20  1  0  0  0
 20 21  1  0  0  0
 15 16  2  0  0  0
 16 17  1  0  0  0
 17 22  1  0  0  0
 22 23  1  0  0  0
 17 18  2  0  0  0
 18 19  1  0  0  0
  6  7  1  0  0  0
  7  8  2  0  0  0
  7  9  1  0  0  0
  9 27  1  0  0  0
 27 28  1  0  0  0
 28 29  1  0  0  0
 29 30  1  0  0  0
 30 31  1  0  0  0
 31 32  1  0  0  0
 32 33  1  0  0  0
 33 34  1  0  0  0
 34 35  1  0  0  0
 35 36  1  0  0  0
 35 37  1  0  0  0
 37 38  2  0  0  0
 37 39  1  0  0  0
 39 40  2  0  0  0
  9 10  1  0  0  0
 10 11  2  0  0  0
 11  1  1  0  0  0
 10  4  1  0  0  0
 18 12  1  0  0  0
 32 28  1  0  0  0
 36 33  1  0  0  0
 25 26  1  0  0  0
M  END
> <minimizedAffinity>
-7.19437

> <CNNscore>
0.0972465500

> <CNNaffinity>
6.6891150475

> <CNN_VS>
0.6504933834

> <CNNaffinity_variance>
0.1085093766

$$$$
[H]C([H])=C([H])C(=O)N1C([H])([H])C([H])(N2C([H])([H])C([H])([H])C([H])([H])[C@@]2([H])C([H])([H])n2c(=O)c(-c3c(Cl)c(OC([H])([H])[H])c([H])c(OC([H])([H])[H])c3Cl)c([H])c3c([H])nc(N([H])C([H])([H])[H])nc32)C1([H])[H]


 40 44  0  0  0  0  0  0  0  0999 V2000
   -4.8342   23.9178  -21.8612 C   0  0  0  0  0  0  0  0  0  0  0  0
   -3.8415   24.3357  -22.6821 N   0  0  0  0  0  0  0  0  0  0  0  0
   -2.5608   23.9469  -22.4917 C   0  0  0  0  0  0  0  0  0  0  0  0
   -2.2071   23.1085  -21.4550 C   0  0  0  0  0  0  0  0  0  0  0  0
   -0.9037   22.7221  -21.2442 C   0  0  0  0  0  0  0  0  0  0  0  0
   -0.6509   21.8990  -20.1728 C   0  0  0  0  0  0  0  0  0  0  0  0
   -1.6450   21.4686  -19.3355 C   0  0  0  0  0  0  0  0  0  0  0  0
   -1.4129   20.6980  -18.3313 O   0  0  0  0  0  0  0  0  0  0  0  0
   -2.9126   21.8707  -19.5782 N   0  0  0  0  0  0  0  0  0  0  0  0
   -3.2360   22.6857  -20.6193 C   0  0  0  0  0  0  0  0  0  0  0  0
   -4.4921   23.1033  -20.8542 N   0  0  0  0  0  0  0  0  0  0  0  0
    0.7120   21.4778  -19.9256 C   0  0  0  0  0  0  0  0  0  0  0  0
    1.5414   22.3114  -19.2038 C   0  0  0  0  0  0  0  0  0  0  0  0
    0.9770   23.8729  -18.5785 Cl  0  0  0  0  0  0  0  0  0  0  0  0
    2.8363   21.8950  -18.9777 C   0  0  0  0  0  0  0  0  0  0  0  0
    3.2834   20.6636  -19.4701 C   0  0  0  0  0  0  0  0  0  0  0  0
    2.4240   19.8590  -20.1872 C   0  0  0  0  0  0  0  0  0  0  0  0
    1.1280   20.2599  -20.4217 C   0  0  0  0  0  0  0  0  0  0  0  0
    0.0339   19.2137  -21.3460 Cl  0  0  0  0  0  0  0  0  0  0  0  0
    3.6650   22.7444  -18.2478 O   0  0  0  0  0  0  0  0  0  0  0  0
    3.8985   22.4087  -16.8923 C   0  0  0  0  0  0  0  0  0  0  0  0
    2.8458   18.6390  -20.6824 O   0  0  0  0  0  0  0  0  0  0  0  0
    3.6815   18.4975  -21.8135 C   0  0  0  0  0  0  0  0  0  0  0  0
   -6.6959   25.4195  -21.2646 C   0  0  0  0  0  0  0  0  0  0  0  0
   -6.1861   24.3379  -22.0724 N   0  0  0  0  0  0  0  0  0  0  0  0
   -6.8154   23.9066  -22.7734 H   0  0  0  0  0  0  0  0  0  0  0  0
   -3.9166   21.4193  -18.6449 C   0  0  0  0  0  0  0  0  0  0  0  0
   -4.3852   22.4016  -17.6477 C   0  0  0  0  0  0  0  0  0  0  0  0
   -3.7103   22.4518  -16.3273 C   0  0  0  0  0  0  0  0  0  0  0  0
   -4.4630   21.4673  -15.4417 C   0  0  0  0  0  0  0  0  0  0  0  0
   -5.7713   21.2554  -16.1898 C   0  0  0  0  0  0  0  0  0  0  0  0
   -5.7750   22.1986  -17.2635 N   0  0  0  0  0  0  0  0  0  0  0  0
   -6.6564   21.9109  -18.3490 C   0  0  0  0  0  0  0  0  0  0  0  0
   -7.6379   22.9943  -18.5982 C   0  0  0  0  0  0  0  0  0  0  0  0
   -8.7488   22.1120  -18.2923 N   0  0  0  0  0  0  0  0  0  0  0  0
   -7.8288   21.0705  -17.9910 C   0  0  0  0  0  0  0  0  0  0  0  0
  -10.1665   22.2649  -18.3110 C   0  0  0  0  0  0  0  0  0  0  0  0
  -10.6381   23.4132  -18.6874 O   0  0  0  0  0  0  0  0  0  0  0  0
  -11.0878   21.2242  -17.9384 C   0  0  0  0  0  0  0  0  0  0  0  0
  -11.3797   20.7791  -16.7537 C   0  0  0  0  0  0  0  0  0  0  0  0
 24 25  1  0  0  0
 25  1  1  0  0  0
  1  2  2  0  0  0
  2  3  1  0  0  0
  3  4  2  0  0  0
  4  5  1  0  0  0
  5  6  2  0  0  0
  6 12  1  0  0  0
 12 13  2  0  0  0
 13 14  1  0  0  0
 13 15  1  0  0  0
 15 20  1  0  0  0
 20 21  1  0  0  0
 15 16  2  0  0  0
 16 17  1  0  0  0
 17 22  1  0  0  0
 22 23  1  0  0  0
 17 18  2  0  0  0
 18 19  1  0  0  0
  6  7  1  0  0  0
  7  8  2  0  0  0
  7  9  1  0  0  0
  9 27  1  0  0  0
 27 28  1  0  0  0
 28 29  1  0  0  0
 29 30  1  0  0  0
 30 31  1  0  0  0
 31 32  1  0  0  0
 32 33  1  0  0  0
 33 34  1  0  0  0
 34 35  1  0  0  0
 35 36  1  0  0  0
 35 37  1  0  0  0
 37 38  2  0  0  0
 37 39  1  0  0  0
 39 40  2  0  0  0
  9 10  1  0  0  0
 10 11  2  0  0  0
 11  1  1  0  0  0
 10  4  1  0  0  0
 18 12  1  0  0  0
 32 28  1  0  0  0
 36 33  1  0  0  0
 25 26  1  0  0  0
M  END
> <minimizedAffinity>
-5.57991

> <CNNscore>
0.0869626254

> <CNNaffinity>
6.0448880196

> <CNN_VS>
0.5256793499

> <CNNaffinity_variance>
0.1094689742

$$$$
[H]C([H])=C([H])C(=O)N1C([H])([H])C([H])(N2C([H])([H])C([H])([H])C([H])([H])[C@@]2([H])C([H])([H])n2c(=O)c(-c3c(Cl)c(OC([H])([H])[H])c([H])c(OC([H])([H])[H])c3Cl)c([H])c3c([H])nc(N([H])C([H])([H])[H])nc32)C1([H])[H]


 40 44  0  0  0  0  0  0  0  0999 V2000
   -4.8796   23.8018  -21.8089 C   0  0  0  0  0  0  0  0  0  0  0  0
   -3.9035   24.2462  -22.6357 N   0  0  0  0  0  0  0  0  0  0  0  0
   -2.6123   23.8882  -22.4557 C   0  0  0  0  0  0  0  0  0  0  0  0
   -2.2307   23.0559  -21.4240 C   0  0  0  0  0  0  0  0  0  0  0  0
   -0.9166   22.7009  -21.2239 C   0  0  0  0  0  0  0  0  0  0  0  0
   -0.6360   21.8812  -20.1568 C   0  0  0  0  0  0  0  0  0  0  0  0
   -1.6131   21.4243  -19.3136 C   0  0  0  0  0  0  0  0  0  0  0  0
   -1.3549   20.6569  -18.3134 O   0  0  0  0  0  0  0  0  0  0  0  0
   -2.8919   21.7960  -19.5459 N   0  0  0  0  0  0  0  0  0  0  0  0
   -3.2427   22.6057  -20.5822 C   0  0  0  0  0  0  0  0  0  0  0  0
   -4.5104   22.9932  -20.8068 N   0  0  0  0  0  0  0  0  0  0  0  0
    0.7386   21.4928  -19.9208 C   0  0  0  0  0  0  0  0  0  0  0  0
    1.1766   20.2796  -20.4106 C   0  0  0  0  0  0  0  0  0  0  0  0
    0.1004   19.1970  -21.3148 Cl  0  0  0  0  0  0  0  0  0  0  0  0
    2.4885   19.9252  -20.1768 C   0  0  0  0  0  0  0  0  0  0  0  0
    3.3390   20.7777  -19.4638 C   0  0  0  0  0  0  0  0  0  0  0  0
    2.8635   21.9819  -18.9905 C   0  0  0  0  0  0  0  0  0  0  0  0
    1.5563   22.3508  -19.2154 C   0  0  0  0  0  0  0  0  0  0  0  0
    0.9589   23.9035  -18.6003 Cl  0  0  0  0  0  0  0  0  0  0  0  0
    2.9201   18.6981  -20.6758 O   0  0  0  0  0  0  0  0  0  0  0  0
    3.7059   18.7217  -21.8533 C   0  0  0  0  0  0  0  0  0  0  0  0
    3.6872   22.8385  -18.2839 O   0  0  0  0  0  0  0  0  0  0  0  0
    4.0969   22.6114  -16.9504 C   0  0  0  0  0  0  0  0  0  0  0  0
   -6.7275   25.3559  -21.3113 C   0  0  0  0  0  0  0  0  0  0  0  0
   -6.2428   24.1893  -22.0090 N   0  0  0  0  0  0  0  0  0  0  0  0
   -6.8975   23.6768  -22.6272 H   0  0  0  0  0  0  0  0  0  0  0  0
   -3.8777   21.3175  -18.6067 C   0  0  0  0  0  0  0  0  0  0  0  0
   -4.3347   22.2740  -17.5794 C   0  0  0  0  0  0  0  0  0  0  0  0
   -3.6690   22.2652  -16.2533 C   0  0  0  0  0  0  0  0  0  0  0  0
   -4.4475   21.2658  -15.4076 C   0  0  0  0  0  0  0  0  0  0  0  0
   -5.7540   21.1059  -16.1718 C   0  0  0  0  0  0  0  0  0  0  0  0
   -5.7310   22.0854  -17.2121 N   0  0  0  0  0  0  0  0  0  0  0  0
   -6.6095   21.8529  -18.3131 C   0  0  0  0  0  0  0  0  0  0  0  0
   -7.5718   22.9606  -18.5276 C   0  0  0  0  0  0  0  0  0  0  0  0
   -8.6988   22.0858  -18.2618 N   0  0  0  0  0  0  0  0  0  0  0  0
   -7.7976   21.0189  -17.9941 C   0  0  0  0  0  0  0  0  0  0  0  0
  -10.1137   22.2624  -18.2835 C   0  0  0  0  0  0  0  0  0  0  0  0
  -10.5642   23.4314  -18.6196 O   0  0  0  0  0  0  0  0  0  0  0  0
  -11.0540   21.2236  -17.9559 C   0  0  0  0  0  0  0  0  0  0  0  0
  -11.3602   20.7384  -16.7906 C   0  0  0  0  0  0  0  0  0  0  0  0
 24 25  1  0  0  0
 25  1  1  0  0  0
  1  2  2  0  0  0
  2  3  1  0  0  0
  3  4  2  0  0  0
  4  5  1  0  0  0
  5  6  2  0  0  0
  6 12  1  0  0  0
 12 13  2  0  0  0
 13 14  1  0  0  0
 13 15  1  0  0  0
 15 20  1  0  0  0
 20 21  1  0  0  0
 15 16  2  0  0  0
 16 17  1  0  0  0
 17 22  1  0  0  0
 22 23  1  0  0  0
 17 18  2  0  0  0
 18 19  1  0  0  0
  6  7  1  0  0  0
  7  8  2  0  0  0
  7  9  1  0  0  0
  9 27  1  0  0  0
 27 28  1  0  0  0
 28 29  1  0  0  0
 29 30  1  0  0  0
 30 31  1  0  0  0
 31 32  1  0  0  0
 32 33  1  0  0  0
 33 34  1  0  0  0
 34 35  1  0  0  0
 35 36  1  0  0  0
 35 37  1  0  0  0
 37 38  2  0  0  0
 37 39  1  0  0  0
 39 40  2  0  0  0
  9 10  1  0  0  0
 10 11  2  0  0  0
 11  1  1  0  0  0
 10  4  1  0  0  0
 18 12  1  0  0  0
 32 28  1  0  0  0
 36 33  1  0  0  0
 25 26  1  0  0  0
M  END
> <minimizedAffinity>
-5.56869

> <CNNscore>
0.0797486082

> <CNNaffinity>
6.0216374397

> <CNN_VS>
0.4802172184

> <CNNaffinity_variance>
0.1077733412

$$$$
[H]C([H])=C([H])C(=O)N1C([H])([H])C([H])(N2C([H])([H])C([H])([H])C([H])([H])[C@@]2([H])C([H])([H])n2c(=O)c(-c3c(Cl)c(OC([H])([H])[H])c([H])c(OC([H])([H])[H])c3Cl)c([H])c3c([H])nc(N([H])C([H])([H])[H])nc32)C1([H])[H]


 40 44  0  0  0  0  0  0  0  0999 V2000
   -0.2369   22.2226  -24.9059 C   0  0  0  0  0  0  0  0  0  0  0  0
    0.7904   21.4047  -24.5747 N   0  0  0  0  0  0  0  0  0  0  0  0
    1.0761   21.1216  -23.2840 C   0  0  0  0  0  0  0  0  0  0  0  0
    0.3361   21.6516  -22.2475 C   0  0  0  0  0  0  0  0  0  0  0  0
    0.6311   21.3821  -20.9310 C   0  0  0  0  0  0  0  0  0  0  0  0
   -0.1547   21.9732  -19.9705 C   0  0  0  0  0  0  0  0  0  0  0  0
   -1.1967   22.8015  -20.2915 C   0  0  0  0  0  0  0  0  0  0  0  0
   -1.9348   23.3569  -19.3957 O   0  0  0  0  0  0  0  0  0  0  0  0
   -1.4535   23.0395  -21.5972 N   0  0  0  0  0  0  0  0  0  0  0  0
   -0.7168   22.4896  -22.6009 C   0  0  0  0  0  0  0  0  0  0  0  0
   -0.9565   22.7376  -23.9003 N   0  0  0  0  0  0  0  0  0  0  0  0
    0.1338   21.7091  -18.5766 C   0  0  0  0  0  0  0  0  0  0  0  0
    1.0999   22.4660  -17.9462 C   0  0  0  0  0  0  0  0  0  0  0  0
    1.9865   23.7435  -18.8003 Cl  0  0  0  0  0  0  0  0  0  0  0  0
    1.3622   22.2012  -16.6186 C   0  0  0  0  0  0  0  0  0  0  0  0
    0.6639   21.1938  -15.9430 C   0  0  0  0  0  0  0  0  0  0  0  0
   -0.2942   20.4592  -16.6083 C   0  0  0  0  0  0  0  0  0  0  0  0
   -0.5683   20.7111  -17.9337 C   0  0  0  0  0  0  0  0  0  0  0  0
   -1.8041   19.7575  -18.7762 Cl  0  0  0  0  0  0  0  0  0  0  0  0
    2.3395   22.9713  -15.9919 O   0  0  0  0  0  0  0  0  0  0  0  0
    2.2249   23.1426  -14.5911 C   0  0  0  0  0  0  0  0  0  0  0  0
   -0.9953   19.4598  -15.9593 O   0  0  0  0  0  0  0  0  0  0  0  0
   -0.4800   18.1647  -15.7249 C   0  0  0  0  0  0  0  0  0  0  0  0
   -1.9104   22.5243  -26.6907 C   0  0  0  0  0  0  0  0  0  0  0  0
   -0.5282   22.5159  -26.2762 N   0  0  0  0  0  0  0  0  0  0  0  0
    0.2002   22.7220  -26.9836 H   0  0  0  0  0  0  0  0  0  0  0  0
   -2.5383   23.9482  -21.8802 C   0  0  0  0  0  0  0  0  0  0  0  0
   -3.5725   23.4744  -22.8211 C   0  0  0  0  0  0  0  0  0  0  0  0
   -3.8291   24.2627  -24.0517 C   0  0  0  0  0  0  0  0  0  0  0  0
   -4.8983   25.2798  -23.6744 C   0  0  0  0  0  0  0  0  0  0  0  0
   -5.4799   24.7129  -22.3872 C   0  0  0  0  0  0  0  0  0  0  0  0
   -4.8987   23.4178  -22.2225 N   0  0  0  0  0  0  0  0  0  0  0  0
   -4.9325   22.8778  -20.9014 C   0  0  0  0  0  0  0  0  0  0  0  0
   -5.4941   21.5062  -20.8528 C   0  0  0  0  0  0  0  0  0  0  0  0
   -6.5983   21.9453  -20.0197 N   0  0  0  0  0  0  0  0  0  0  0  0
   -6.1149   23.2804  -20.0961 C   0  0  0  0  0  0  0  0  0  0  0  0
   -7.6907   21.2762  -19.3932 C   0  0  0  0  0  0  0  0  0  0  0  0
   -7.7706   19.9907  -19.5469 O   0  0  0  0  0  0  0  0  0  0  0  0
   -8.6952   21.9457  -18.6101 C   0  0  0  0  0  0  0  0  0  0  0  0
   -9.9839   21.7847  -18.6269 C   0  0  0  0  0  0  0  0  0  0  0  0
 24 25  1  0  0  0
 25  1  1  0  0  0
  1  2  2  0  0  0
  2  3  1  0  0  0
  3  4  2  0  0  0
  4  5  1  0  0  0
  5  6  2  0  0  0
  6 12  1  0  0  0
 12 13  2  0  0  0
 13 14  1  0  0  0
 13 15  1  0  0  0
 15 20  1  0  0  0
 20 21  1  0  0  0
 15 16  2  0  0  0
 16 17  1  0  0  0
 17 22  1  0  0  0
 22 23  1  0  0  0
 17 18  2  0  0  0
 18 19  1  0  0  0
  6  7  1  0  0  0
  7  8  2  0  0  0
  7  9  1  0  0  0
  9 27  1  0  0  0
 27 28  1  0  0  0
 28 29  1  0  0  0
 29 30  1  0  0  0
 30 31  1  0  0  0
 31 32  1  0  0  0
 32 33  1  0  0  0
 33 34  1  0  0  0
 34 35  1  0  0  0
 35 36  1  0  0  0
 35 37  1  0  0  0
 37 38  2  0  0  0
 37 39  1  0  0  0
 39 40  2  0  0  0
  9 10  1  0  0  0
 10 11  2  0  0  0
 11  1  1  0  0  0
 10  4  1  0  0  0
 18 12  1  0  0  0
 32 28  1  0  0  0
 36 33  1  0  0  0
 25 26  1  0  0  0
M  END
> <minimizedAffinity>
-6.54386

> <CNNscore>
0.0738041475

> <CNNaffinity>
6.6527175903

> <CNN_VS>
0.4909981489

> <CNNaffinity_variance>
0.0708179027

$$$$
[H]c1nc2c([H])c([H])c(N(c3c(F)c(OC([H])([H])[H])c([H])c(OC([H])([H])[H])c3F)C([H])([H])C3([H])N([H])C(=O)C([H])([H])C3([H])[H])nc2c([H])c1-c1c([H])nn(C([H])([H])[H])c1[H]


 37 41  0  0  0  0  0  0  0  0999 V2000
   -1.9538   21.6473  -22.3245 N   0  0  0  0  0  0  0  0  0  0  0  0
   -1.5179   21.9225  -23.6640 C   0  0  0  0  0  0  0  0  0  0  0  0
   -0.2563   21.7412  -24.1579 C   0  0  0  0  0  0  0  0  0  0  0  0
    0.0830   21.9996  -25.4764 C   0  0  0  0  0  0  0  0  0  0  0  0
   -0.8985   22.4581  -26.3165 C   0  0  0  0  0  0  0  0  0  0  0  0
   -0.6572   22.7360  -27.6199 N   0  0  0  0  0  0  0  0  0  0  0  0
   -1.6410   23.1830  -28.4145 C   0  0  0  0  0  0  0  0  0  0  0  0
   -2.9296   23.3863  -27.9776 C   0  0  0  0  0  0  0  0  0  0  0  0
   -3.2140   23.1154  -26.6609 C   0  0  0  0  0  0  0  0  0  0  0  0
   -2.1739   22.6477  -25.8396 C   0  0  0  0  0  0  0  0  0  0  0  0
   -2.4365   22.3759  -24.5424 N   0  0  0  0  0  0  0  0  0  0  0  0
   -3.9891   23.8784  -28.8803 C   0  0  0  0  0  0  0  0  0  0  0  0
   -5.2084   23.2755  -29.1495 C   0  0  0  0  0  0  0  0  0  0  0  0
   -5.8986   24.0156  -30.0130 N   0  0  0  0  0  0  0  0  0  0  0  0
   -5.1638   25.0765  -30.3095 N   0  0  0  0  0  0  0  0  0  0  0  0
   -5.6284   26.0993  -31.2360 C   0  0  0  0  0  0  0  0  0  0  0  0
   -3.9848   25.0290  -29.6348 C   0  0  0  0  0  0  0  0  0  0  0  0
    0.3383   22.6402  -19.5285 C   0  0  0  0  0  0  0  0  0  0  0  0
    1.0355   21.4871  -19.3007 C   0  0  0  0  0  0  0  0  0  0  0  0
    0.7493   20.3927  -20.0457 C   0  0  0  0  0  0  0  0  0  0  0  0
   -0.2433   20.4323  -21.0340 C   0  0  0  0  0  0  0  0  0  0  0  0
   -0.4075   19.2879  -21.6908 F   0  0  0  0  0  0  0  0  0  0  0  0
   -0.9804   21.5875  -21.2991 C   0  0  0  0  0  0  0  0  0  0  0  0
   -0.6440   22.6615  -20.5154 C   0  0  0  0  0  0  0  0  0  0  0  0
   -1.2298   23.8501  -20.7047 F   0  0  0  0  0  0  0  0  0  0  0  0
    1.8956   24.0902  -18.4059 C   0  0  0  0  0  0  0  0  0  0  0  0
    0.5721   23.7973  -18.8108 O   0  0  0  0  0  0  0  0  0  0  0  0
    1.4662   19.2339  -19.8018 O   0  0  0  0  0  0  0  0  0  0  0  0
    1.6480   18.7126  -18.5236 C   0  0  0  0  0  0  0  0  0  0  0  0
   -3.3548   21.5209  -22.1636 C   0  0  0  0  0  0  0  0  0  0  0  0
   -4.1540   22.7307  -21.7871 C   0  0  0  0  0  0  0  0  0  0  0  0
   -5.5875   22.5996  -22.3567 C   0  0  0  0  0  0  0  0  0  0  0  0
   -6.1994   23.8500  -21.7248 C   0  0  0  0  0  0  0  0  0  0  0  0
   -5.5706   23.7942  -20.3689 C   0  0  0  0  0  0  0  0  0  0  0  0
   -5.8936   24.5475  -19.4225 O   0  0  0  0  0  0  0  0  0  0  0  0
   -4.5655   22.7485  -20.3681 N   0  0  0  0  0  0  0  0  0  0  0  0
   -4.3165   22.2433  -19.5426 H   0  0  0  0  0  0  0  0  0  0  0  0
 26 27  1  0  0  0
 27 18  1  0  0  0
 18 19  2  0  0  0
 19 20  1  0  0  0
 20 28  1  0  0  0
 28 29  1  0  0  0
 20 21  2  0  0  0
 21 22  1  0  0  0
 21 23  1  0  0  0
 23  1  1  0  0  0
  1 30  1  0  0  0
 30 31  1  0  0  0
 31 32  1  0  0  0
 32 33  1  0  0  0
 33 34  1  0  0  0
 34 35  2  0  0  0
 34 36  1  0  0  0
  1  2  1  0  0  0
  2  3  2  0  0  0
  3  4  1  0  0  0
  4  5  2  0  0  0
  5  6  1  0  0  0
  6  7  2  0  0  0
  7  8  1  0  0  0
  8  9  2  0  0  0
  9 10  1  0  0  0
 10 11  2  0  0  0
  8 12  1  0  0  0
 12 13  1  0  0  0
 13 14  2  0  0  0
 14 15  1  0  0  0
 15 16  1  0  0  0
 15 17  1  0  0  0
 23 24  2  0  0  0
 24 25  1  0  0  0
 24 18  1  0  0  0
 36 31  1  0  0  0
 11  2  1  0  0  0
 17 12  2  0  0  0
 10  5  1  0  0  0
 36 37  1  0  0  0
M  END
> <minimizedAffinity>
-8.57720

> <CNNscore>
0.6888901591

> <CNNaffinity>
7.9174995422

> <CNN_VS>
5.4542875290

> <CNNaffinity_variance>
0.2183049172

$$$$
[H]c1nc2c([H])c([H])c(N(c3c(F)c(OC([H])([H])[H])c([H])c(OC([H])([H])[H])c3F)C([H])([H])C3([H])N([H])C(=O)C([H])([H])C3([H])[H])nc2c([H])c1-c1c([H])nn(C([H])([H])[H])c1[H]


 37 41  0  0  0  0  0  0  0  0999 V2000
   -5.2810   23.3430  -26.5775 N   0  0  0  0  0  0  0  0  0  0  0  0
   -3.8790   23.0519  -26.6758 C   0  0  0  0  0  0  0  0  0  0  0  0
   -3.1125   23.1337  -27.8047 C   0  0  0  0  0  0  0  0  0  0  0  0
   -1.7527   22.8672  -27.8153 C   0  0  0  0  0  0  0  0  0  0  0  0
   -1.1576   22.5054  -26.6346 C   0  0  0  0  0  0  0  0  0  0  0  0
    0.1654   22.2274  -26.5518 N   0  0  0  0  0  0  0  0  0  0  0  0
    0.7156   21.8766  -25.3800 C   0  0  0  0  0  0  0  0  0  0  0  0
   -0.0014   21.7759  -24.2102 C   0  0  0  0  0  0  0  0  0  0  0  0
   -1.3471   22.0503  -24.2535 C   0  0  0  0  0  0  0  0  0  0  0  0
   -1.9106   22.4167  -25.4877 C   0  0  0  0  0  0  0  0  0  0  0  0
   -3.2323   22.6904  -25.5478 N   0  0  0  0  0  0  0  0  0  0  0  0
    0.6369   21.3880  -22.9367 C   0  0  0  0  0  0  0  0  0  0  0  0
    0.0378   21.3070  -21.6889 C   0  0  0  0  0  0  0  0  0  0  0  0
    0.9317   20.9229  -20.7816 N   0  0  0  0  0  0  0  0  0  0  0  0
    2.0882   20.7536  -21.4039 N   0  0  0  0  0  0  0  0  0  0  0  0
    3.2882   20.3312  -20.6955 C   0  0  0  0  0  0  0  0  0  0  0  0
    1.9486   21.0293  -22.7276 C   0  0  0  0  0  0  0  0  0  0  0  0
   -6.6613   22.6725  -23.1567 C   0  0  0  0  0  0  0  0  0  0  0  0
   -7.0409   23.9197  -22.7467 C   0  0  0  0  0  0  0  0  0  0  0  0
   -6.8353   24.9707  -23.5762 C   0  0  0  0  0  0  0  0  0  0  0  0
   -6.2434   24.7921  -24.8337 C   0  0  0  0  0  0  0  0  0  0  0  0
   -6.1140   25.9104  -25.5413 F   0  0  0  0  0  0  0  0  0  0  0  0
   -5.8394   23.5371  -25.2918 C   0  0  0  0  0  0  0  0  0  0  0  0
   -6.0755   22.5137  -24.4100 C   0  0  0  0  0  0  0  0  0  0  0  0
   -5.7928   21.2493  -24.7460 F   0  0  0  0  0  0  0  0  0  0  0  0
   -7.2658   21.7220  -21.0308 C   0  0  0  0  0  0  0  0  0  0  0  0
   -6.8377   21.5517  -22.3684 O   0  0  0  0  0  0  0  0  0  0  0  0
   -7.2270   26.2264  -23.1447 O   0  0  0  0  0  0  0  0  0  0  0  0
   -7.9292   26.4335  -21.9604 C   0  0  0  0  0  0  0  0  0  0  0  0
   -5.9565   23.4651  -27.8158 C   0  0  0  0  0  0  0  0  0  0  0  0
   -5.3887   24.3699  -28.8660 C   0  0  0  0  0  0  0  0  0  0  0  0
   -5.6795   23.7798  -30.2673 C   0  0  0  0  0  0  0  0  0  0  0  0
   -5.1396   24.9310  -31.1162 C   0  0  0  0  0  0  0  0  0  0  0  0
   -5.6266   26.0979  -30.3174 C   0  0  0  0  0  0  0  0  0  0  0  0
   -5.5534   27.2852  -30.7078 O   0  0  0  0  0  0  0  0  0  0  0  0
   -6.1722   25.6065  -29.0666 N   0  0  0  0  0  0  0  0  0  0  0  0
   -6.8990   26.0830  -28.5735 H   0  0  0  0  0  0  0  0  0  0  0  0
 26 27  1  0  0  0
 27 18  1  0  0  0
 18 19  2  0  0  0
 19 20  1  0  0  0
 20 28  1  0  0  0
 28 29  1  0  0  0
 20 21  2  0  0  0
 21 22  1  0  0  0
 21 23  1  0  0  0
 23  1  1  0  0  0
  1 30  1  0  0  0
 30 31  1  0  0  0
 31 32  1  0  0  0
 32 33  1  0  0  0
 33 34  1  0  0  0
 34 35  2  0  0  0
 34 36  1  0  0  0
  1  2  1  0  0  0
  2  3  2  0  0  0
  3  4  1  0  0  0
  4  5  2  0  0  0
  5  6  1  0  0  0
  6  7  2  0  0  0
  7  8  1  0  0  0
  8  9  2  0  0  0
  9 10  1  0  0  0
 10 11  2  0  0  0
  8 12  1  0  0  0
 12 13  1  0  0  0
 13 14  2  0  0  0
 14 15  1  0  0  0
 15 16  1  0  0  0
 15 17  1  0  0  0
 23 24  2  0  0  0
 24 25  1  0  0  0
 24 18  1  0  0  0
 36 31  1  0  0  0
 11  2  1  0  0  0
 17 12  2  0  0  0
 10  5  1  0  0  0
 36 37  1  0  0  0
M  END
> <minimizedAffinity>
-9.54108

> <CNNscore>
0.6803427935

> <CNNaffinity>
8.0730619431

> <CNN_VS>
5.4924492836

> <CNNaffinity_variance>
0.1347093284

$$$$
[H]c1nc2c([H])c([H])c(N(c3c(F)c(OC([H])([H])[H])c([H])c(OC([H])([H])[H])c3F)C([H])([H])C3([H])N([H])C(=O)C([H])([H])C3([H])[H])nc2c([H])c1-c1c([H])nn(C([H])([H])[H])c1[H]


 37 41  0  0  0  0  0  0  0  0999 V2000
   -1.7987   21.5922  -22.3033 N   0  0  0  0  0  0  0  0  0  0  0  0
   -1.3777   21.8841  -23.6441 C   0  0  0  0  0  0  0  0  0  0  0  0
   -0.1186   21.7209  -24.1506 C   0  0  0  0  0  0  0  0  0  0  0  0
    0.2062   21.9947  -25.4696 C   0  0  0  0  0  0  0  0  0  0  0  0
   -0.7875   22.4498  -26.2970 C   0  0  0  0  0  0  0  0  0  0  0  0
   -0.5608   22.7420  -27.5999 N   0  0  0  0  0  0  0  0  0  0  0  0
   -1.5563   23.1852  -28.3818 C   0  0  0  0  0  0  0  0  0  0  0  0
   -2.8432   23.3705  -27.9319 C   0  0  0  0  0  0  0  0  0  0  0  0
   -3.1131   23.0849  -26.6152 C   0  0  0  0  0  0  0  0  0  0  0  0
   -2.0607   22.6213  -25.8073 C   0  0  0  0  0  0  0  0  0  0  0  0
   -2.3089   22.3352  -24.5103 N   0  0  0  0  0  0  0  0  0  0  0  0
   -3.9159   23.8591  -28.8208 C   0  0  0  0  0  0  0  0  0  0  0  0
   -5.1490   23.2679  -29.0505 C   0  0  0  0  0  0  0  0  0  0  0  0
   -5.8483   24.0000  -29.9135 N   0  0  0  0  0  0  0  0  0  0  0  0
   -5.1060   25.0443  -30.2481 N   0  0  0  0  0  0  0  0  0  0  0  0
   -5.5774   26.0544  -31.1849 C   0  0  0  0  0  0  0  0  0  0  0  0
   -3.9129   24.9939  -29.5988 C   0  0  0  0  0  0  0  0  0  0  0  0
    0.8149   20.1549  -20.0317 C   0  0  0  0  0  0  0  0  0  0  0  0
    1.1120   21.2155  -19.2227 C   0  0  0  0  0  0  0  0  0  0  0  0
    0.4729   22.3921  -19.4270 C   0  0  0  0  0  0  0  0  0  0  0  0
   -0.4767   22.5293  -20.4482 C   0  0  0  0  0  0  0  0  0  0  0  0
   -1.0285   23.7368  -20.5238 F   0  0  0  0  0  0  0  0  0  0  0  0
   -0.8096   21.4735  -21.2983 C   0  0  0  0  0  0  0  0  0  0  0  0
   -0.1322   20.3092  -21.0409 C   0  0  0  0  0  0  0  0  0  0  0  0
   -0.3982   19.2000  -21.7413 F   0  0  0  0  0  0  0  0  0  0  0  0
    2.6933   18.7188  -20.4756 C   0  0  0  0  0  0  0  0  0  0  0  0
    1.4235   18.9233  -19.8863 O   0  0  0  0  0  0  0  0  0  0  0  0
    0.7858   23.4552  -18.5973 O   0  0  0  0  0  0  0  0  0  0  0  0
    2.0941   23.8669  -18.3573 C   0  0  0  0  0  0  0  0  0  0  0  0
   -3.2002   21.5114  -22.1189 C   0  0  0  0  0  0  0  0  0  0  0  0
   -3.9436   22.7297  -21.6637 C   0  0  0  0  0  0  0  0  0  0  0  0
   -5.3158   22.7932  -22.3776 C   0  0  0  0  0  0  0  0  0  0  0  0
   -5.8970   24.0041  -21.6474 C   0  0  0  0  0  0  0  0  0  0  0  0
   -5.4185   23.7280  -20.2575 C   0  0  0  0  0  0  0  0  0  0  0  0
   -5.7822   24.3840  -19.2552 O   0  0  0  0  0  0  0  0  0  0  0  0
   -4.4981   22.6078  -20.2996 N   0  0  0  0  0  0  0  0  0  0  0  0
   -4.3739   21.9853  -19.5278 H   0  0  0  0  0  0  0  0  0  0  0  0
 26 27  1  0  0  0
 27 18  1  0  0  0
 18 19  2  0  0  0
 19 20  1  0  0  0
 20 28  1  0  0  0
 28 29  1  0  0  0
 20 21  2  0  0  0
 21 22  1  0  0  0
 21 23  1  0  0  0
 23  1  1  0  0  0
  1 30  1  0  0  0
 30 31  1  0  0  0
 31 32  1  0  0  0
 32 33  1  0  0  0
 33 34  1  0  0  0
 34 35  2  0  0  0
 34 36  1  0  0  0
  1  2  1  0  0  0
  2  3  2  0  0  0
  3  4  1  0  0  0
  4  5  2  0  0  0
  5  6  1  0  0  0
  6  7  2  0  0  0
  7  8  1  0  0  0
  8  9  2  0  0  0
  9 10  1  0  0  0
 10 11  2  0  0  0
  8 12  1  0  0  0
 12 13  1  0  0  0
 13 14  2  0  0  0
 14 15  1  0  0  0
 15 16  1  0  0  0
 15 17  1  0  0  0
 23 24  2  0  0  0
 24 25  1  0  0  0
 24 18  1  0  0  0
 36 31  1  0  0  0
 11  2  1  0  0  0
 17 12  2  0  0  0
 10  5  1  0  0  0
 36 37  1  0  0  0
M  END
> <minimizedAffinity>
-8.52750

> <CNNscore>
0.6759918332

> <CNNaffinity>
7.8812332153

> <CNN_VS>
5.3276491165

> <CNNaffinity_variance>
0.1868271828

$$$$
[H]c1nc2c([H])c([H])c(N(c3c(F)c(OC([H])([H])[H])c([H])c(OC([H])([H])[H])c3F)C([H])([H])C3([H])N([H])C(=O)C([H])([H])C3([H])[H])nc2c([H])c1-c1c([H])nn(C([H])([H])[H])c1[H]


 37 41  0  0  0  0  0  0  0  0999 V2000
   -1.7245   21.7281  -22.0028 N   0  0  0  0  0  0  0  0  0  0  0  0
   -1.3143   21.9509  -23.3601 C   0  0  0  0  0  0  0  0  0  0  0  0
   -0.0647   21.7406  -23.8728 C   0  0  0  0  0  0  0  0  0  0  0  0
    0.2492   21.9481  -25.2065 C   0  0  0  0  0  0  0  0  0  0  0  0
   -0.7457   22.3847  -26.0424 C   0  0  0  0  0  0  0  0  0  0  0  0
   -0.5293   22.6132  -27.3597 N   0  0  0  0  0  0  0  0  0  0  0  0
   -1.5257   23.0400  -28.1496 C   0  0  0  0  0  0  0  0  0  0  0  0
   -2.8032   23.2705  -27.6942 C   0  0  0  0  0  0  0  0  0  0  0  0
   -3.0625   23.0499  -26.3630 C   0  0  0  0  0  0  0  0  0  0  0  0
   -2.0093   22.6029  -25.5467 C   0  0  0  0  0  0  0  0  0  0  0  0
   -2.2472   22.3805  -24.2354 N   0  0  0  0  0  0  0  0  0  0  0  0
   -3.8773   23.7392  -28.5922 C   0  0  0  0  0  0  0  0  0  0  0  0
   -5.1150   23.1492  -28.7986 C   0  0  0  0  0  0  0  0  0  0  0  0
   -5.8139   23.8597  -29.6797 N   0  0  0  0  0  0  0  0  0  0  0  0
   -5.0669   24.8890  -30.0484 N   0  0  0  0  0  0  0  0  0  0  0  0
   -5.5366   25.8739  -31.0126 C   0  0  0  0  0  0  0  0  0  0  0  0
   -3.8711   24.8504  -29.4034 C   0  0  0  0  0  0  0  0  0  0  0  0
    0.7442   22.2553  -19.2307 C   0  0  0  0  0  0  0  0  0  0  0  0
    1.3394   21.0288  -19.1343 C   0  0  0  0  0  0  0  0  0  0  0  0
    0.9279   20.0364  -19.9591 C   0  0  0  0  0  0  0  0  0  0  0  0
   -0.0902   20.2537  -20.8971 C   0  0  0  0  0  0  0  0  0  0  0  0
   -0.3819   19.1928  -21.6438 F   0  0  0  0  0  0  0  0  0  0  0  0
   -0.7261   21.4892  -21.0288 C   0  0  0  0  0  0  0  0  0  0  0  0
   -0.2652   22.4534  -20.1694 C   0  0  0  0  0  0  0  0  0  0  0  0
   -0.7449   23.7016  -20.2291 F   0  0  0  0  0  0  0  0  0  0  0  0
    2.3864   23.3028  -17.8186 C   0  0  0  0  0  0  0  0  0  0  0  0
    1.1084   23.3171  -18.4253 O   0  0  0  0  0  0  0  0  0  0  0  0
    1.5427   18.8011  -19.8480 O   0  0  0  0  0  0  0  0  0  0  0  0
    1.2065   17.8755  -18.8636 C   0  0  0  0  0  0  0  0  0  0  0  0
   -3.1174   21.8335  -21.7722 C   0  0  0  0  0  0  0  0  0  0  0  0
   -3.6150   21.9186  -20.3617 C   0  0  0  0  0  0  0  0  0  0  0  0
   -4.9100   22.7659  -20.3221 C   0  0  0  0  0  0  0  0  0  0  0  0
   -5.2633   22.5735  -18.8471 C   0  0  0  0  0  0  0  0  0  0  0  0
   -4.9171   21.1281  -18.6799 C   0  0  0  0  0  0  0  0  0  0  0  0
   -5.1845   20.4648  -17.6523 O   0  0  0  0  0  0  0  0  0  0  0  0
   -4.2456   20.6716  -19.8817 N   0  0  0  0  0  0  0  0  0  0  0  0
   -4.2881   19.7232  -20.1935 H   0  0  0  0  0  0  0  0  0  0  0  0
 26 27  1  0  0  0
 27 18  1  0  0  0
 18 19  2  0  0  0
 19 20  1  0  0  0
 20 28  1  0  0  0
 28 29  1  0  0  0
 20 21  2  0  0  0
 21 22  1  0  0  0
 21 23  1  0  0  0
 23  1  1  0  0  0
  1 30  1  0  0  0
 30 31  1  0  0  0
 31 32  1  0  0  0
 32 33  1  0  0  0
 33 34  1  0  0  0
 34 35  2  0  0  0
 34 36  1  0  0  0
  1  2  1  0  0  0
  2  3  2  0  0  0
  3  4  1  0  0  0
  4  5  2  0  0  0
  5  6  1  0  0  0
  6  7  2  0  0  0
  7  8  1  0  0  0
  8  9  2  0  0  0
  9 10  1  0  0  0
 10 11  2  0  0  0
  8 12  1  0  0  0
 12 13  1  0  0  0
 13 14  2  0  0  0
 14 15  1  0  0  0
 15 16  1  0  0  0
 15 17  1  0  0  0
 23 24  2  0  0  0
 24 25  1  0  0  0
 24 18  1  0  0  0
 36 31  1  0  0  0
 11  2  1  0  0  0
 17 12  2  0  0  0
 10  5  1  0  0  0
 36 37  1  0  0  0
M  END
> <minimizedAffinity>
-8.24255

> <CNNscore>
0.5105560422

> <CNNaffinity>
7.5950126648

> <CNN_VS>
3.8776795864

> <CNNaffinity_variance>
0.2816608846

$$$$
[H]c1nc2c([H])c([H])c(N(c3c(F)c(OC([H])([H])[H])c([H])c(OC([H])([H])[H])c3F)C([H])([H])C3([H])N([H])C(=O)C([H])([H])C3([H])[H])nc2c([H])c1-c1c([H])nn(C([H])([H])[H])c1[H]


 37 41  0  0  0  0  0  0  0  0999 V2000
   -0.1334   21.4825  -21.1546 N   0  0  0  0  0  0  0  0  0  0  0  0
    0.0342   21.6459  -22.5707 C   0  0  0  0  0  0  0  0  0  0  0  0
    1.1925   21.4684  -23.2745 C   0  0  0  0  0  0  0  0  0  0  0  0
    1.2700   21.6132  -24.6504 C   0  0  0  0  0  0  0  0  0  0  0  0
    0.1273   21.9504  -25.3284 C   0  0  0  0  0  0  0  0  0  0  0  0
    0.1103   22.1122  -26.6730 N   0  0  0  0  0  0  0  0  0  0  0  0
   -1.0258   22.4421  -27.3050 C   0  0  0  0  0  0  0  0  0  0  0  0
   -2.2223   22.6350  -26.6539 C   0  0  0  0  0  0  0  0  0  0  0  0
   -2.2456   22.4798  -25.2889 C   0  0  0  0  0  0  0  0  0  0  0  0
   -1.0482   22.1340  -24.6394 C   0  0  0  0  0  0  0  0  0  0  0  0
   -1.0536   21.9768  -23.2975 N   0  0  0  0  0  0  0  0  0  0  0  0
   -3.4551   22.9967  -27.3814 C   0  0  0  0  0  0  0  0  0  0  0  0
   -4.6959   23.2884  -26.8357 C   0  0  0  0  0  0  0  0  0  0  0  0
   -5.5623   23.5690  -27.8054 N   0  0  0  0  0  0  0  0  0  0  0  0
   -4.9204   23.4676  -28.9591 N   0  0  0  0  0  0  0  0  0  0  0  0
   -5.5834   23.7122  -30.2322 C   0  0  0  0  0  0  0  0  0  0  0  0
   -3.6250   23.1181  -28.7413 C   0  0  0  0  0  0  0  0  0  0  0  0
    1.5502   18.4075  -19.8255 C   0  0  0  0  0  0  0  0  0  0  0  0
    2.5120   18.9325  -19.0087 C   0  0  0  0  0  0  0  0  0  0  0  0
    2.6165   20.2790  -18.9044 C   0  0  0  0  0  0  0  0  0  0  0  0
    1.7588   21.1265  -19.6183 C   0  0  0  0  0  0  0  0  0  0  0  0
    1.9719   22.4224  -19.4100 F   0  0  0  0  0  0  0  0  0  0  0  0
    0.7642   20.6336  -20.4644 C   0  0  0  0  0  0  0  0  0  0  0  0
    0.7061   19.2649  -20.5266 C   0  0  0  0  0  0  0  0  0  0  0  0
   -0.2403   18.6578  -21.2528 F   0  0  0  0  0  0  0  0  0  0  0  0
    2.1743   16.3691  -20.9407 C   0  0  0  0  0  0  0  0  0  0  0  0
    1.3809   17.0456  -19.9845 O   0  0  0  0  0  0  0  0  0  0  0  0
    3.5957   20.7930  -18.0717 O   0  0  0  0  0  0  0  0  0  0  0  0
    4.9012   21.0271  -18.4952 C   0  0  0  0  0  0  0  0  0  0  0  0
   -1.1705   22.2563  -20.5801 C   0  0  0  0  0  0  0  0  0  0  0  0
   -2.5452   21.6691  -20.4825 C   0  0  0  0  0  0  0  0  0  0  0  0
   -3.2242   22.1593  -19.1805 C   0  0  0  0  0  0  0  0  0  0  0  0
   -4.6084   21.5489  -19.4014 C   0  0  0  0  0  0  0  0  0  0  0  0
   -4.7778   21.8035  -20.8654 C   0  0  0  0  0  0  0  0  0  0  0  0
   -5.8483   21.6083  -21.4845 O   0  0  0  0  0  0  0  0  0  0  0  0
   -3.5215   22.2961  -21.3973 N   0  0  0  0  0  0  0  0  0  0  0  0
   -3.4750   22.9063  -22.1873 H   0  0  0  0  0  0  0  0  0  0  0  0
 26 27  1  0  0  0
 27 18  1  0  0  0
 18 19  2  0  0  0
 19 20  1  0  0  0
 20 28  1  0  0  0
 28 29  1  0  0  0
 20 21  2  0  0  0
 21 22  1  0  0  0
 21 23  1  0  0  0
 23  1  1  0  0  0
  1 30  1  0  0  0
 30 31  1  0  0  0
 31 32  1  0  0  0
 32 33  1  0  0  0
 33 34  1  0  0  0
 34 35  2  0  0  0
 34 36  1  0  0  0
  1  2  1  0  0  0
  2  3  2  0  0  0
  3  4  1  0  0  0
  4  5  2  0  0  0
  5  6  1  0  0  0
  6  7  2  0  0  0
  7  8  1  0  0  0
  8  9  2  0  0  0
  9 10  1  0  0  0
 10 11  2  0  0  0
  8 12  1  0  0  0
 12 13  1  0  0  0
 13 14  2  0  0  0
 14 15  1  0  0  0
 15 16  1  0  0  0
 15 17  1  0  0  0
 23 24  2  0  0  0
 24 25  1  0  0  0
 24 18  1  0  0  0
 36 31  1  0  0  0
 11  2  1  0  0  0
 17 12  2  0  0  0
 10  5  1  0  0  0
 36 37  1  0  0  0
M  END
> <minimizedAffinity>
-7.48989

> <CNNscore>
0.3759719729

> <CNNaffinity>
7.3322143555

> <CNN_VS>
2.7567071915

> <CNNaffinity_variance>
0.1098281592

$$$$
[H]c1nc2c([H])c([H])c(N(c3c(F)c(OC([H])([H])[H])c([H])c(OC([H])([H])[H])c3F)C([H])([H])C3([H])N([H])C(=O)C([H])([H])C3([H])[H])nc2c([H])c1-c1c([H])nn(C([H])([H])[H])c1[H]


 37 41  0  0  0  0  0  0  0  0999 V2000
   -0.2887   21.3552  -20.6589 N   0  0  0  0  0  0  0  0  0  0  0  0
   -0.0624   21.5351  -22.0647 C   0  0  0  0  0  0  0  0  0  0  0  0
    1.1267   21.3764  -22.7199 C   0  0  0  0  0  0  0  0  0  0  0  0
    1.2616   21.5365  -24.0897 C   0  0  0  0  0  0  0  0  0  0  0  0
    0.1455   21.8696  -24.8126 C   0  0  0  0  0  0  0  0  0  0  0  0
    0.1843   22.0455  -26.1550 N   0  0  0  0  0  0  0  0  0  0  0  0
   -0.9269   22.3710  -26.8318 C   0  0  0  0  0  0  0  0  0  0  0  0
   -2.1521   22.5452  -26.2307 C   0  0  0  0  0  0  0  0  0  0  0  0
   -2.2323   22.3754  -24.8695 C   0  0  0  0  0  0  0  0  0  0  0  0
   -1.0602   22.0344  -24.1729 C   0  0  0  0  0  0  0  0  0  0  0  0
   -1.1214   21.8631  -22.8341 N   0  0  0  0  0  0  0  0  0  0  0  0
   -3.3562   22.9025  -27.0067 C   0  0  0  0  0  0  0  0  0  0  0  0
   -4.6159   23.2010  -26.5101 C   0  0  0  0  0  0  0  0  0  0  0  0
   -5.4451   23.4745  -27.5138 N   0  0  0  0  0  0  0  0  0  0  0  0
   -4.7609   23.3618  -28.6419 N   0  0  0  0  0  0  0  0  0  0  0  0
   -5.3756   23.5964  -29.9409 C   0  0  0  0  0  0  0  0  0  0  0  0
   -3.4752   23.0122  -28.3730 C   0  0  0  0  0  0  0  0  0  0  0  0
    2.3650   22.4213  -18.2344 C   0  0  0  0  0  0  0  0  0  0  0  0
    3.1325   21.2954  -18.1297 C   0  0  0  0  0  0  0  0  0  0  0  0
    2.7776   20.1950  -18.8352 C   0  0  0  0  0  0  0  0  0  0  0  0
    1.6444   20.2012  -19.6596 C   0  0  0  0  0  0  0  0  0  0  0  0
    1.4254   19.0551  -20.2973 F   0  0  0  0  0  0  0  0  0  0  0  0
    0.8318   21.3279  -19.7950 C   0  0  0  0  0  0  0  0  0  0  0  0
    1.2431   22.4096  -19.0592 C   0  0  0  0  0  0  0  0  0  0  0  0
    0.5902   23.5751  -19.1425 F   0  0  0  0  0  0  0  0  0  0  0  0
    3.9035   23.6767  -16.8760 C   0  0  0  0  0  0  0  0  0  0  0  0
    2.6616   23.5825  -17.5471 O   0  0  0  0  0  0  0  0  0  0  0  0
    3.5671   19.0640  -18.7176 O   0  0  0  0  0  0  0  0  0  0  0  0
    3.4840   18.1936  -17.6341 C   0  0  0  0  0  0  0  0  0  0  0  0
   -1.6495   21.2818  -20.2749 C   0  0  0  0  0  0  0  0  0  0  0  0
   -2.0015   20.6356  -18.9700 C   0  0  0  0  0  0  0  0  0  0  0  0
   -2.3686   21.7278  -17.9362 C   0  0  0  0  0  0  0  0  0  0  0  0
   -2.8071   20.8175  -16.7888 C   0  0  0  0  0  0  0  0  0  0  0  0
   -3.5476   19.7674  -17.5542 C   0  0  0  0  0  0  0  0  0  0  0  0
   -4.2303   18.8672  -17.0147 O   0  0  0  0  0  0  0  0  0  0  0  0
   -3.3295   19.9880  -18.9710 N   0  0  0  0  0  0  0  0  0  0  0  0
   -3.9981   19.7235  -19.6650 H   0  0  0  0  0  0  0  0  0  0  0  0
 26 27  1  0  0  0
 27 18  1  0  0  0
 18 19  2  0  0  0
 19 20  1  0  0  0
 20 28  1  0  0  0
 28 29  1  0  0  0
 20 21  2  0  0  0
 21 22  1  0  0  0
 21 23  1  0  0  0
 23  1  1  0  0  0
  1 30  1  0  0  0
 30 31  1  0  0  0
 31 32  1  0  0  0
 32 33  1  0  0  0
 33 34  1  0  0  0
 34 35  2  0  0  0
 34 36  1  0  0  0
  1  2  1  0  0  0
  2  3  2  0  0  0
  3  4  1  0  0  0
  4  5  2  0  0  0
  5  6  1  0  0  0
  6  7  2  0  0  0
  7  8  1  0  0  0
  8  9  2  0  0  0
  9 10  1  0  0  0
 10 11  2  0  0  0
  8 12  1  0  0  0
 12 13  1  0  0  0
 13 14  2  0  0  0
 14 15  1  0  0  0
 15 16  1  0  0  0
 15 17  1  0  0  0
 23 24  2  0  0  0
 24 25  1  0  0  0
 24 18  1  0  0  0
 36 31  1  0  0  0
 11  2  1  0  0  0
 17 12  2  0  0  0
 10  5  1  0  0  0
 36 37  1  0  0  0
M  END
> <minimizedAffinity>
-7.30839

> <CNNscore>
0.2676893473

> <CNNaffinity>
7.0977888107

> <CNN_VS>
1.9000024796

> <CNNaffinity_variance>
0.1627372056

$$$$
[H]c1nc2c([H])c([H])c(N(c3c(F)c(OC([H])([H])[H])c([H])c(OC([H])([H])[H])c3F)C([H])([H])C3([H])N([H])C(=O)C([H])([H])C3([H])[H])nc2c([H])c1-c1c([H])nn(C([H])([H])[H])c1[H]


 37 41  0  0  0  0  0  0  0  0999 V2000
    0.8237   20.7714  -20.7190 N   0  0  0  0  0  0  0  0  0  0  0  0
    0.8116   21.1221  -22.1108 C   0  0  0  0  0  0  0  0  0  0  0  0
    1.8865   21.1199  -22.9553 C   0  0  0  0  0  0  0  0  0  0  0  0
    1.7910   21.4405  -24.3001 C   0  0  0  0  0  0  0  0  0  0  0  0
    0.5578   21.7740  -24.7972 C   0  0  0  0  0  0  0  0  0  0  0  0
    0.3714   22.1005  -26.0983 N   0  0  0  0  0  0  0  0  0  0  0  0
   -0.8493   22.4216  -26.5519 C   0  0  0  0  0  0  0  0  0  0  0  0
   -1.9692   22.4427  -25.7530 C   0  0  0  0  0  0  0  0  0  0  0  0
   -1.8207   22.1172  -24.4263 C   0  0  0  0  0  0  0  0  0  0  0  0
   -0.5361   21.7827  -23.9645 C   0  0  0  0  0  0  0  0  0  0  0  0
   -0.3726   21.4596  -22.6629 N   0  0  0  0  0  0  0  0  0  0  0  0
   -3.2989   22.7999  -26.2857 C   0  0  0  0  0  0  0  0  0  0  0  0
   -3.6478   22.9848  -27.6149 C   0  0  0  0  0  0  0  0  0  0  0  0
   -4.9376   23.2981  -27.7050 N   0  0  0  0  0  0  0  0  0  0  0  0
   -5.4319   23.3213  -26.4768 N   0  0  0  0  0  0  0  0  0  0  0  0
   -6.8301   23.6337  -26.2162 C   0  0  0  0  0  0  0  0  0  0  0  0
   -4.4577   23.0210  -25.5777 C   0  0  0  0  0  0  0  0  0  0  0  0
   -0.0283   17.3676  -19.3980 C   0  0  0  0  0  0  0  0  0  0  0  0
    1.1366   16.6801  -19.5930 C   0  0  0  0  0  0  0  0  0  0  0  0
    2.1854   17.3204  -20.1627 C   0  0  0  0  0  0  0  0  0  0  0  0
    2.0868   18.6635  -20.5497 C   0  0  0  0  0  0  0  0  0  0  0  0
    3.1972   19.1616  -21.0855 F   0  0  0  0  0  0  0  0  0  0  0  0
    0.9167   19.4030  -20.3707 C   0  0  0  0  0  0  0  0  0  0  0  0
   -0.1079   18.7022  -19.7878 C   0  0  0  0  0  0  0  0  0  0  0  0
   -1.2676   19.3066  -19.5021 F   0  0  0  0  0  0  0  0  0  0  0  0
   -1.7624   15.7025  -19.4903 C   0  0  0  0  0  0  0  0  0  0  0  0
   -1.1413   16.7847  -18.8235 O   0  0  0  0  0  0  0  0  0  0  0  0
    3.3576   16.6085  -20.3517 O   0  0  0  0  0  0  0  0  0  0  0  0
    3.5822   15.8046  -21.4660 C   0  0  0  0  0  0  0  0  0  0  0  0
    0.7999   21.8681  -19.8239 C   0  0  0  0  0  0  0  0  0  0  0  0
    1.8952   22.0017  -18.8107 C   0  0  0  0  0  0  0  0  0  0  0  0
    3.2629   22.0558  -19.5339 C   0  0  0  0  0  0  0  0  0  0  0  0
    4.1519   22.3285  -18.3203 C   0  0  0  0  0  0  0  0  0  0  0  0
    3.2896   23.2966  -17.5745 C   0  0  0  0  0  0  0  0  0  0  0  0
    3.6708   23.9301  -16.5643 O   0  0  0  0  0  0  0  0  0  0  0  0
    1.9923   23.3529  -18.2207 N   0  0  0  0  0  0  0  0  0  0  0  0
    1.4157   24.1688  -18.1978 H   0  0  0  0  0  0  0  0  0  0  0  0
 26 27  1  0  0  0
 27 18  1  0  0  0
 18 19  2  0  0  0
 19 20  1  0  0  0
 20 28  1  0  0  0
 28 29  1  0  0  0
 20 21  2  0  0  0
 21 22  1  0  0  0
 21 23  1  0  0  0
 23  1  1  0  0  0
  1 30  1  0  0  0
 30 31  1  0  0  0
 31 32  1  0  0  0
 32 33  1  0  0  0
 33 34  1  0  0  0
 34 35  2  0  0  0
 34 36  1  0  0  0
  1  2  1  0  0  0
  2  3  2  0  0  0
  3  4  1  0  0  0
  4  5  2  0  0  0
  5  6  1  0  0  0
  6  7  2  0  0  0
  7  8  1  0  0  0
  8  9  2  0  0  0
  9 10  1  0  0  0
 10 11  2  0  0  0
  8 12  1  0  0  0
 12 13  1  0  0  0
 13 14  2  0  0  0
 14 15  1  0  0  0
 15 16  1  0  0  0
 15 17  1  0  0  0
 23 24  2  0  0  0
 24 25  1  0  0  0
 24 18  1  0  0  0
 36 31  1  0  0  0
 11  2  1  0  0  0
 17 12  2  0  0  0
 10  5  1  0  0  0
 36 37  1  0  0  0
M  END
> <minimizedAffinity>
-7.16534

> <CNNscore>
0.2190241963

> <CNNaffinity>
6.7599806786

> <CNN_VS>
1.4805992842

> <CNNaffinity_variance>
0.1005806923

$$$$
[H]c1nc2c([H])c([H])c(N(c3c(F)c(OC([H])([H])[H])c([H])c(OC([H])([H])[H])c3F)C([H])([H])C3([H])N([H])C(=O)C([H])([H])C3([H])[H])nc2c([H])c1-c1c([H])nn(C([H])([H])[H])c1[H]


 37 41  0  0  0  0  0  0  0  0999 V2000
   -3.4298   22.5375  -25.3229 N   0  0  0  0  0  0  0  0  0  0  0  0
   -2.0394   22.2549  -25.1059 C   0  0  0  0  0  0  0  0  0  0  0  0
   -1.0329   22.3941  -26.0203 C   0  0  0  0  0  0  0  0  0  0  0  0
    0.2957   22.1316  -25.7270 C   0  0  0  0  0  0  0  0  0  0  0  0
    0.6052   21.7133  -24.4587 C   0  0  0  0  0  0  0  0  0  0  0  0
    1.8764   21.4346  -24.0837 N   0  0  0  0  0  0  0  0  0  0  0  0
    2.1443   21.0277  -22.8341 C   0  0  0  0  0  0  0  0  0  0  0  0
    1.1766   20.8677  -21.8693 C   0  0  0  0  0  0  0  0  0  0  0  0
   -0.1259   21.1408  -22.2114 C   0  0  0  0  0  0  0  0  0  0  0  0
   -0.3923   21.5664  -23.5241 C   0  0  0  0  0  0  0  0  0  0  0  0
   -1.6675   21.8397  -23.8770 N   0  0  0  0  0  0  0  0  0  0  0  0
    1.5070   20.4189  -20.5022 C   0  0  0  0  0  0  0  0  0  0  0  0
    1.8891   19.1460  -20.1068 C   0  0  0  0  0  0  0  0  0  0  0  0
    2.1040   19.1252  -18.7941 N   0  0  0  0  0  0  0  0  0  0  0  0
    1.8727   20.3436  -18.3300 N   0  0  0  0  0  0  0  0  0  0  0  0
    2.0164   20.6688  -16.9179 C   0  0  0  0  0  0  0  0  0  0  0  0
    1.5039   21.1664  -19.3471 C   0  0  0  0  0  0  0  0  0  0  0  0
   -4.4337   25.9570  -26.4876 C   0  0  0  0  0  0  0  0  0  0  0  0
   -4.5452   25.7829  -27.8386 C   0  0  0  0  0  0  0  0  0  0  0  0
   -4.2820   24.5624  -28.3638 C   0  0  0  0  0  0  0  0  0  0  0  0
   -3.9002   23.4916  -27.5445 C   0  0  0  0  0  0  0  0  0  0  0  0
   -3.6842   22.3534  -28.1970 F   0  0  0  0  0  0  0  0  0  0  0  0
   -3.7725   23.6250  -26.1611 C   0  0  0  0  0  0  0  0  0  0  0  0
   -4.0541   24.8813  -25.6888 C   0  0  0  0  0  0  0  0  0  0  0  0
   -4.0302   25.1337  -24.3745 F   0  0  0  0  0  0  0  0  0  0  0  0
   -5.8871   27.3282  -25.1477 C   0  0  0  0  0  0  0  0  0  0  0  0
   -4.6853   27.1706  -25.8773 O   0  0  0  0  0  0  0  0  0  0  0  0
   -4.4011   24.4043  -29.7339 O   0  0  0  0  0  0  0  0  0  0  0  0
   -5.6112   24.1155  -30.3590 C   0  0  0  0  0  0  0  0  0  0  0  0
   -4.3289   21.6358  -24.7041 C   0  0  0  0  0  0  0  0  0  0  0  0
   -5.1238   22.1000  -23.5222 C   0  0  0  0  0  0  0  0  0  0  0  0
   -6.4905   21.3733  -23.5024 C   0  0  0  0  0  0  0  0  0  0  0  0
   -7.0133   21.9069  -22.1685 C   0  0  0  0  0  0  0  0  0  0  0  0
   -5.7580   21.8612  -21.3566 C   0  0  0  0  0  0  0  0  0  0  0  0
   -5.7219   22.0676  -20.1223 O   0  0  0  0  0  0  0  0  0  0  0  0
   -4.6493   21.5464  -22.2371 N   0  0  0  0  0  0  0  0  0  0  0  0
   -3.8322   21.0654  -21.9212 H   0  0  0  0  0  0  0  0  0  0  0  0
 26 27  1  0  0  0
 27 18  1  0  0  0
 18 19  2  0  0  0
 19 20  1  0  0  0
 20 28  1  0  0  0
 28 29  1  0  0  0
 20 21  2  0  0  0
 21 22  1  0  0  0
 21 23  1  0  0  0
 23  1  1  0  0  0
  1 30  1  0  0  0
 30 31  1  0  0  0
 31 32  1  0  0  0
 32 33  1  0  0  0
 33 34  1  0  0  0
 34 35  2  0  0  0
 34 36  1  0  0  0
  1  2  1  0  0  0
  2  3  2  0  0  0
  3  4  1  0  0  0
  4  5  2  0  0  0
  5  6  1  0  0  0
  6  7  2  0  0  0
  7  8  1  0  0  0
  8  9  2  0  0  0
  9 10  1  0  0  0
 10 11  2  0  0  0
  8 12  1  0  0  0
 12 13  1  0  0  0
 13 14  2  0  0  0
 14 15  1  0  0  0
 15 16  1  0  0  0
 15 17  1  0  0  0
 23 24  2  0  0  0
 24 25  1  0  0  0
 24 18  1  0  0  0
 36 31  1  0  0  0
 11  2  1  0  0  0
 17 12  2  0  0  0
 10  5  1  0  0  0
 36 37  1  0  0  0
M  END
> <minimizedAffinity>
-8.42055

> <CNNscore>
0.2184960693

> <CNNaffinity>
7.2818517685

> <CNN_VS>
1.5910559893

> <CNNaffinity_variance>
0.0413500816

$$$$
[H]c1nc2c([H])c([H])c(N(c3c(F)c(OC([H])([H])[H])c([H])c(OC([H])([H])[H])c3F)C([H])([H])C3([H])N([H])C(=O)C([H])([H])C3([H])[H])nc2c([H])c1-c1c([H])nn(C([H])([H])[H])c1[H]


 37 41  0  0  0  0  0  0  0  0999 V2000
   -4.5029   23.0005  -26.1003 N   0  0  0  0  0  0  0  0  0  0  0  0
   -3.1287   22.6690  -25.8518 C   0  0  0  0  0  0  0  0  0  0  0  0
   -2.1186   22.6615  -26.7728 C   0  0  0  0  0  0  0  0  0  0  0  0
   -0.8049   22.3610  -26.4505 C   0  0  0  0  0  0  0  0  0  0  0  0
   -0.5144   22.0584  -25.1454 C   0  0  0  0  0  0  0  0  0  0  0  0
    0.7414   21.7532  -24.7405 N   0  0  0  0  0  0  0  0  0  0  0  0
    0.9908   21.4621  -23.4552 C   0  0  0  0  0  0  0  0  0  0  0  0
    0.0185   21.4521  -22.4818 C   0  0  0  0  0  0  0  0  0  0  0  0
   -1.2687   21.7568  -22.8535 C   0  0  0  0  0  0  0  0  0  0  0  0
   -1.5159   22.0598  -24.2035 C   0  0  0  0  0  0  0  0  0  0  0  0
   -2.7760   22.3622  -24.5859 N   0  0  0  0  0  0  0  0  0  0  0  0
    0.3284   21.1282  -21.0752 C   0  0  0  0  0  0  0  0  0  0  0  0
    1.0475   20.0404  -20.6039 C   0  0  0  0  0  0  0  0  0  0  0  0
    1.1197   20.0861  -19.2764 N   0  0  0  0  0  0  0  0  0  0  0  0
    0.4702   21.1683  -18.8760 N   0  0  0  0  0  0  0  0  0  0  0  0
    0.3561   21.5199  -17.4676 C   0  0  0  0  0  0  0  0  0  0  0  0
   -0.0300   21.8344  -19.9501 C   0  0  0  0  0  0  0  0  0  0  0  0
   -6.7538   22.4625  -23.1505 C   0  0  0  0  0  0  0  0  0  0  0  0
   -7.1105   23.7398  -22.8201 C   0  0  0  0  0  0  0  0  0  0  0  0
   -6.6091   24.7667  -23.5472 C   0  0  0  0  0  0  0  0  0  0  0  0
   -5.7385   24.5335  -24.6202 C   0  0  0  0  0  0  0  0  0  0  0  0
   -5.3351   25.6346  -25.2469 F   0  0  0  0  0  0  0  0  0  0  0  0
   -5.3469   23.2462  -24.9913 C   0  0  0  0  0  0  0  0  0  0  0  0
   -5.8884   22.2495  -24.2205 C   0  0  0  0  0  0  0  0  0  0  0  0
   -5.6453   20.9641  -24.5040 F   0  0  0  0  0  0  0  0  0  0  0  0
   -7.8188   21.5624  -21.1900 C   0  0  0  0  0  0  0  0  0  0  0  0
   -7.2229   21.3632  -22.4576 O   0  0  0  0  0  0  0  0  0  0  0  0
   -6.9820   26.0536  -23.1988 O   0  0  0  0  0  0  0  0  0  0  0  0
   -7.7789   26.3361  -22.0926 C   0  0  0  0  0  0  0  0  0  0  0  0
   -4.8570   23.1054  -27.4671 C   0  0  0  0  0  0  0  0  0  0  0  0
   -4.7035   24.4263  -28.1571 C   0  0  0  0  0  0  0  0  0  0  0  0
   -3.6183   24.3115  -29.2551 C   0  0  0  0  0  0  0  0  0  0  0  0
   -3.7666   25.7038  -29.8688 C   0  0  0  0  0  0  0  0  0  0  0  0
   -5.2549   25.8481  -29.8373 C   0  0  0  0  0  0  0  0  0  0  0  0
   -5.8729   26.7880  -30.3871 O   0  0  0  0  0  0  0  0  0  0  0  0
   -5.8109   24.7408  -29.0834 N   0  0  0  0  0  0  0  0  0  0  0  0
   -6.7258   24.3784  -29.2569 H   0  0  0  0  0  0  0  0  0  0  0  0
 26 27  1  0  0  0
 27 18  1  0  0  0
 18 19  2  0  0  0
 19 20  1  0  0  0
 20 28  1  0  0  0
 28 29  1  0  0  0
 20 21  2  0  0  0
 21 22  1  0  0  0
 21 23  1  0  0  0
 23  1  1  0  0  0
  1 30  1  0  0  0
 30 31  1  0  0  0
 31 32  1  0  0  0
 32 33  1  0  0  0
 33 34  1  0  0  0
 34 35  2  0  0  0
 34 36  1  0  0  0
  1  2  1  0  0  0
  2  3  2  0  0  0
  3  4  1  0  0  0
  4  5  2  0  0  0
  5  6  1  0  0  0
  6  7  2  0  0  0
  7  8  1  0  0  0
  8  9  2  0  0  0
  9 10  1  0  0  0
 10 11  2  0  0  0
  8 12  1  0  0  0
 12 13  1  0  0  0
 13 14  2  0  0  0
 14 15  1  0  0  0
 15 16  1  0  0  0
 15 17  1  0  0  0
 23 24  2  0  0  0
 24 25  1  0  0  0
 24 18  1  0  0  0
 36 31  1  0  0  0
 11  2  1  0  0  0
 17 12  2  0  0  0
 10  5  1  0  0  0
 36 37  1  0  0  0
M  END
> <minimizedAffinity>
-9.06881

> <CNNscore>
0.2098153234

> <CNNaffinity>
7.4044785500

> <CNN_VS>
1.5535730124

> <CNNaffinity_variance>
0.1125017628

$$$$
[H]OC([H])([H])C([H])([H])Oc1c(Oc2c([H])c([H])nc(N([H])C(=O)c3c([H])c([H])c(C4([H])C([H])([H])C([H])([H])N(C([H])([H])C([H])([H])O[H])C([H])([H])C4([H])[H])c([H])c3[H])c2[H])c([H])c2c([H])c([H])n(C(=O)N([H])C([H])([H])[H])c2c1[H]


 46 50  0  0  0  0  0  0  0  0999 V2000
   -2.3008   22.7878  -27.8791 C   0  0  0  0  0  0  0  0  0  0  0  0
   -1.6013   23.4549  -28.8618 C   0  0  0  0  0  0  0  0  0  0  0  0
   -0.2324   23.5679  -28.8557 C   0  0  0  0  0  0  0  0  0  0  0  0
    0.4588   23.0052  -27.8505 N   0  0  0  0  0  0  0  0  0  0  0  0
   -0.1660   22.3357  -26.8529 C   0  0  0  0  0  0  0  0  0  0  0  0
   -1.5578   22.2246  -26.8643 C   0  0  0  0  0  0  0  0  0  0  0  0
    0.6050   21.7379  -25.8201 N   0  0  0  0  0  0  0  0  0  0  0  0
    0.3658   22.0200  -24.4507 C   0  0  0  0  0  0  0  0  0  0  0  0
   -0.5449   22.8126  -24.1120 O   0  0  0  0  0  0  0  0  0  0  0  0
    1.3637   21.0773  -26.0855 H   0  0  0  0  0  0  0  0  0  0  0  0
    1.1798   21.3953  -23.3981 C   0  0  0  0  0  0  0  0  0  0  0  0
    2.4977   21.0602  -23.6198 C   0  0  0  0  0  0  0  0  0  0  0  0
    3.2681   20.5003  -22.6201 C   0  0  0  0  0  0  0  0  0  0  0  0
    2.7437   20.2549  -21.3603 C   0  0  0  0  0  0  0  0  0  0  0  0
    1.4357   20.5881  -21.1475 C   0  0  0  0  0  0  0  0  0  0  0  0
    0.6439   21.1546  -22.1458 C   0  0  0  0  0  0  0  0  0  0  0  0
    3.6291   19.6621  -20.3463 C   0  0  0  0  0  0  0  0  0  0  0  0
    3.8916   18.1876  -20.6181 C   0  0  0  0  0  0  0  0  0  0  0  0
    4.4649   17.6157  -19.3574 C   0  0  0  0  0  0  0  0  0  0  0  0
    5.4789   18.4157  -18.7643 N   0  0  0  0  0  0  0  0  0  0  0  0
    5.9875   19.4761  -19.5624 C   0  0  0  0  0  0  0  0  0  0  0  0
    4.9624   20.3213  -20.2547 C   0  0  0  0  0  0  0  0  0  0  0  0
    5.2151   18.7634  -17.3884 C   0  0  0  0  0  0  0  0  0  0  0  0
    6.3087   19.6714  -16.8638 C   0  0  0  0  0  0  0  0  0  0  0  0
    7.0351   19.0070  -15.8783 O   0  0  0  0  0  0  0  0  0  0  0  0
    6.5558   18.1902  -15.5713 H   0  0  0  0  0  0  0  0  0  0  0  0
   -3.6960   22.6615  -27.8715 O   0  0  0  0  0  0  0  0  0  0  0  0
   -8.2446   26.4153  -20.9226 C   0  0  0  0  0  0  0  0  0  0  0  0
   -7.5402   25.2722  -21.4615 N   0  0  0  0  0  0  0  0  0  0  0  0
   -6.9658   25.3016  -22.7626 C   0  0  0  0  0  0  0  0  0  0  0  0
   -7.0905   26.3555  -23.4231 O   0  0  0  0  0  0  0  0  0  0  0  0
   -6.2839   24.1645  -23.2662 N   0  0  0  0  0  0  0  0  0  0  0  0
   -6.1351   23.0047  -22.5566 C   0  0  0  0  0  0  0  0  0  0  0  0
   -5.4443   22.0831  -23.3063 C   0  0  0  0  0  0  0  0  0  0  0  0
   -5.1839   22.7462  -24.5056 C   0  0  0  0  0  0  0  0  0  0  0  0
   -4.5283   22.3318  -25.6433 C   0  0  0  0  0  0  0  0  0  0  0  0
   -4.3765   23.1454  -26.7368 C   0  0  0  0  0  0  0  0  0  0  0  0
   -4.8906   24.4449  -26.7335 C   0  0  0  0  0  0  0  0  0  0  0  0
   -5.5444   24.8528  -25.5919 C   0  0  0  0  0  0  0  0  0  0  0  0
   -5.6995   24.0230  -24.4775 C   0  0  0  0  0  0  0  0  0  0  0  0
   -7.4839   24.4387  -20.8360 H   0  0  0  0  0  0  0  0  0  0  0  0
   -4.7229   25.2157  -27.8272 O   0  0  0  0  0  0  0  0  0  0  0  0
   -5.4833   25.4707  -28.9384 C   0  0  0  0  0  0  0  0  0  0  0  0
   -5.1182   24.7555  -30.2001 C   0  0  0  0  0  0  0  0  0  0  0  0
   -5.4752   23.4079  -30.1089 O   0  0  0  0  0  0  0  0  0  0  0  0
   -5.5278   23.0295  -31.0322 H   0  0  0  0  0  0  0  0  0  0  0  0
 28 29  1  0  0  0
 29 30  1  0  0  0
 30 31  2  0  0  0
 30 32  1  0  0  0
 32 33  1  0  0  0
 33 34  2  0  0  0
 34 35  1  0  0  0
 35 36  2  0  0  0
 36 37  1  0  0  0
 37 27  1  0  0  0
 27  1  1  0  0  0
  1  2  2  0  0  0
  2  3  1  0  0  0
  3  4  2  0  0  0
  4  5  1  0  0  0
  5  7  1  0  0  0
  7  8  1  0  0  0
  8  9  2  0  0  0
  8 11  1  0  0  0
 11 12  2  0  0  0
 12 13  1  0  0  0
 13 14  2  0  0  0
 14 15  1  0  0  0
 15 16  2  0  0  0
 14 17  1  0  0  0
 17 18  1  0  0  0
 18 19  1  0  0  0
 19 20  1  0  0  0
 20 23  1  0  0  0
 23 24  1  0  0  0
 24 25  1  0  0  0
 20 21  1  0  0  0
 21 22  1  0  0  0
  5  6  2  0  0  0
 37 38  2  0  0  0
 38 42  1  0  0  0
 42 43  1  0  0  0
 43 44  1  0  0  0
 44 45  1  0  0  0
 38 39  1  0  0  0
 39 40  2  0  0  0
 40 32  1  0  0  0
 40 35  1  0  0  0
  6  1  1  0  0  0
 16 11  1  0  0  0
 22 17  1  0  0  0
 29 41  1  0  0  0
  7 10  1  0  0  0
 25 26  1  0  0  0
 45 46  1  0  0  0
M  END
> <minimizedAffinity>
-8.45684

> <CNNscore>
0.9180604815

> <CNNaffinity>
7.5936698914

> <CNN_VS>
6.9714484215

> <CNNaffinity_variance>
0.0909909680

$$$$
[H]OC([H])([H])C([H])([H])Oc1c(Oc2c([H])c([H])nc(N([H])C(=O)c3c([H])c([H])c(C4([H])C([H])([H])C([H])([H])N(C([H])([H])C([H])([H])O[H])C([H])([H])C4([H])[H])c([H])c3[H])c2[H])c([H])c2c([H])c([H])n(C(=O)N([H])C([H])([H])[H])c2c1[H]


 46 50  0  0  0  0  0  0  0  0999 V2000
   -2.1292   22.7457  -27.6193 C   0  0  0  0  0  0  0  0  0  0  0  0
   -1.4369   23.4559  -28.5765 C   0  0  0  0  0  0  0  0  0  0  0  0
   -0.0686   23.5756  -28.5709 C   0  0  0  0  0  0  0  0  0  0  0  0
    0.6294   22.9759  -27.5922 N   0  0  0  0  0  0  0  0  0  0  0  0
    0.0119   22.2631  -26.6205 C   0  0  0  0  0  0  0  0  0  0  0  0
   -1.3794   22.1454  -26.6311 C   0  0  0  0  0  0  0  0  0  0  0  0
    0.7900   21.6276  -25.6158 N   0  0  0  0  0  0  0  0  0  0  0  0
    0.6376   21.9438  -24.2414 C   0  0  0  0  0  0  0  0  0  0  0  0
   -0.1994   22.8016  -23.8729 O   0  0  0  0  0  0  0  0  0  0  0  0
    1.4881   20.9129  -25.9061 H   0  0  0  0  0  0  0  0  0  0  0  0
    1.4577   21.2788  -23.2187 C   0  0  0  0  0  0  0  0  0  0  0  0
    2.7627   20.9180  -23.4741 C   0  0  0  0  0  0  0  0  0  0  0  0
    3.5396   20.3199  -22.5020 C   0  0  0  0  0  0  0  0  0  0  0  0
    3.0350   20.0606  -21.2369 C   0  0  0  0  0  0  0  0  0  0  0  0
    1.7396   20.4194  -20.9906 C   0  0  0  0  0  0  0  0  0  0  0  0
    0.9415   21.0246  -21.9607 C   0  0  0  0  0  0  0  0  0  0  0  0
    3.9263   19.4266  -20.2535 C   0  0  0  0  0  0  0  0  0  0  0  0
    3.9746   20.2083  -18.9483 C   0  0  0  0  0  0  0  0  0  0  0  0
    5.1660   19.7048  -18.1920 C   0  0  0  0  0  0  0  0  0  0  0  0
    5.2864   18.2889  -18.1718 N   0  0  0  0  0  0  0  0  0  0  0  0
    4.1537   17.5572  -18.6212 C   0  0  0  0  0  0  0  0  0  0  0  0
    3.5351   18.0329  -19.9000 C   0  0  0  0  0  0  0  0  0  0  0  0
    6.5553   17.8058  -18.6618 C   0  0  0  0  0  0  0  0  0  0  0  0
    7.6027   17.8999  -17.5710 C   0  0  0  0  0  0  0  0  0  0  0  0
    7.1393   17.2633  -16.4220 O   0  0  0  0  0  0  0  0  0  0  0  0
    6.1606   17.0897  -16.4802 H   0  0  0  0  0  0  0  0  0  0  0  0
   -3.5237   22.6119  -27.6116 O   0  0  0  0  0  0  0  0  0  0  0  0
   -8.0447   26.4913  -20.7138 C   0  0  0  0  0  0  0  0  0  0  0  0
   -7.4411   26.6234  -22.0220 N   0  0  0  0  0  0  0  0  0  0  0  0
   -6.8245   25.5166  -22.6689 C   0  0  0  0  0  0  0  0  0  0  0  0
   -6.8262   24.4226  -22.0644 O   0  0  0  0  0  0  0  0  0  0  0  0
   -6.2376   25.6769  -23.9501 N   0  0  0  0  0  0  0  0  0  0  0  0
   -6.2293   26.8651  -24.6274 C   0  0  0  0  0  0  0  0  0  0  0  0
   -5.5816   26.7135  -25.8299 C   0  0  0  0  0  0  0  0  0  0  0  0
   -5.1988   25.3722  -25.8437 C   0  0  0  0  0  0  0  0  0  0  0  0
   -4.5148   24.6375  -26.7862 C   0  0  0  0  0  0  0  0  0  0  0  0
   -4.2281   23.3080  -26.6096 C   0  0  0  0  0  0  0  0  0  0  0  0
   -4.6275   22.6424  -25.4475 C   0  0  0  0  0  0  0  0  0  0  0  0
   -5.3118   23.3835  -24.5096 C   0  0  0  0  0  0  0  0  0  0  0  0
   -5.6034   24.7389  -24.6896 C   0  0  0  0  0  0  0  0  0  0  0  0
   -7.4914   27.5739  -22.4501 H   0  0  0  0  0  0  0  0  0  0  0  0
   -4.3271   21.3352  -25.3084 O   0  0  0  0  0  0  0  0  0  0  0  0
   -3.7019   20.5999  -24.3356 C   0  0  0  0  0  0  0  0  0  0  0  0
   -3.1197   21.3459  -23.1775 C   0  0  0  0  0  0  0  0  0  0  0  0
   -3.9634   21.2457  -22.0685 O   0  0  0  0  0  0  0  0  0  0  0  0
   -3.4354   21.4566  -21.2468 H   0  0  0  0  0  0  0  0  0  0  0  0
 28 29  1  0  0  0
 29 30  1  0  0  0
 30 31  2  0  0  0
 30 32  1  0  0  0
 32 33  1  0  0  0
 33 34  2  0  0  0
 34 35  1  0  0  0
 35 36  2  0  0  0
 36 37  1  0  0  0
 37 27  1  0  0  0
 27  1  1  0  0  0
  1  2  2  0  0  0
  2  3  1  0  0  0
  3  4  2  0  0  0
  4  5  1  0  0  0
  5  7  1  0  0  0
  7  8  1  0  0  0
  8  9  2  0  0  0
  8 11  1  0  0  0
 11 12  2  0  0  0
 12 13  1  0  0  0
 13 14  2  0  0  0
 14 15  1  0  0  0
 15 16  2  0  0  0
 14 17  1  0  0  0
 17 18  1  0  0  0
 18 19  1  0  0  0
 19 20  1  0  0  0
 20 23  1  0  0  0
 23 24  1  0  0  0
 24 25  1  0  0  0
 20 21  1  0  0  0
 21 22  1  0  0  0
  5  6  2  0  0  0
 37 38  2  0  0  0
 38 42  1  0  0  0
 42 43  1  0  0  0
 43 44  1  0  0  0
 44 45  1  0  0  0
 38 39  1  0  0  0
 39 40  2  0  0  0
 40 32  1  0  0  0
 40 35  1  0  0  0
  6  1  1  0  0  0
 16 11  1  0  0  0
 22 17  1  0  0  0
 29 41  1  0  0  0
  7 10  1  0  0  0
 25 26  1  0  0  0
 45 46  1  0  0  0
M  END
> <minimizedAffinity>
-7.54770

> <CNNscore>
0.8108887672

> <CNNaffinity>
7.2474975586

> <CNN_VS>
5.8769145012

> <CNNaffinity_variance>
0.1425221413

$$$$
[H]OC([H])([H])C([H])([H])Oc1c(Oc2c([H])c([H])nc(N([H])C(=O)c3c([H])c([H])c(C4([H])C([H])([H])C([H])([H])N(C([H])([H])C([H])([H])O[H])C([H])([H])C4([H])[H])c([H])c3[H])c2[H])c([H])c2c([H])c([H])n(C(=O)N([H])C([H])([H])[H])c2c1[H]


 46 50  0  0  0  0  0  0  0  0999 V2000
   -1.8039   21.5696  -23.5877 C   0  0  0  0  0  0  0  0  0  0  0  0
   -0.7468   21.6731  -24.4663 C   0  0  0  0  0  0  0  0  0  0  0  0
    0.5648   21.6605  -24.0587 C   0  0  0  0  0  0  0  0  0  0  0  0
    0.8338   21.5422  -22.7478 N   0  0  0  0  0  0  0  0  0  0  0  0
   -0.1572   21.4368  -21.8311 C   0  0  0  0  0  0  0  0  0  0  0  0
   -1.4887   21.4507  -22.2514 C   0  0  0  0  0  0  0  0  0  0  0  0
    0.1722   21.2926  -20.4565 N   0  0  0  0  0  0  0  0  0  0  0  0
   -0.0057   22.3523  -19.5305 C   0  0  0  0  0  0  0  0  0  0  0  0
   -0.4658   23.4568  -19.9054 O   0  0  0  0  0  0  0  0  0  0  0  0
    0.5542   20.3815  -20.1303 H   0  0  0  0  0  0  0  0  0  0  0  0
    0.3478   22.1837  -18.1137 C   0  0  0  0  0  0  0  0  0  0  0  0
    1.5601   22.6183  -17.6242 C   0  0  0  0  0  0  0  0  0  0  0  0
    1.8775   22.4849  -16.2870 C   0  0  0  0  0  0  0  0  0  0  0  0
    0.9896   21.9093  -15.3912 C   0  0  0  0  0  0  0  0  0  0  0  0
   -0.2104   21.4790  -15.8834 C   0  0  0  0  0  0  0  0  0  0  0  0
   -0.5468   21.6064  -17.2306 C   0  0  0  0  0  0  0  0  0  0  0  0
    1.3975   21.8083  -13.9817 C   0  0  0  0  0  0  0  0  0  0  0  0
    2.3853   22.9017  -13.5997 C   0  0  0  0  0  0  0  0  0  0  0  0
    3.0060   22.4830  -12.3018 C   0  0  0  0  0  0  0  0  0  0  0  0
    2.0757   22.0045  -11.3398 N   0  0  0  0  0  0  0  0  0  0  0  0
    0.7029   22.2353  -11.6266 C   0  0  0  0  0  0  0  0  0  0  0  0
    0.2632   21.9056  -13.0203 C   0  0  0  0  0  0  0  0  0  0  0  0
    2.3791   20.6830  -10.8444 C   0  0  0  0  0  0  0  0  0  0  0  0
    1.2906   20.2216   -9.8967 C   0  0  0  0  0  0  0  0  0  0  0  0
    0.7675   19.0094  -10.3405 O   0  0  0  0  0  0  0  0  0  0  0  0
    1.0451   18.8228  -11.2782 H   0  0  0  0  0  0  0  0  0  0  0  0
   -3.1467   21.5785  -23.9869 O   0  0  0  0  0  0  0  0  0  0  0  0
   -5.8117   26.5991  -31.1115 C   0  0  0  0  0  0  0  0  0  0  0  0
   -4.8261   25.7183  -30.5232 N   0  0  0  0  0  0  0  0  0  0  0  0
   -5.0008   25.1761  -29.2197 C   0  0  0  0  0  0  0  0  0  0  0  0
   -6.0416   25.4877  -28.6015 O   0  0  0  0  0  0  0  0  0  0  0  0
   -4.0159   24.3180  -28.6672 N   0  0  0  0  0  0  0  0  0  0  0  0
   -2.8733   23.9639  -29.3302 C   0  0  0  0  0  0  0  0  0  0  0  0
   -2.1112   23.1372  -28.5400 C   0  0  0  0  0  0  0  0  0  0  0  0
   -2.8526   23.0106  -27.3653 C   0  0  0  0  0  0  0  0  0  0  0  0
   -2.5982   22.3105  -26.2072 C   0  0  0  0  0  0  0  0  0  0  0  0
   -3.4654   22.3150  -25.1448 C   0  0  0  0  0  0  0  0  0  0  0  0
   -4.6572   23.0426  -25.2025 C   0  0  0  0  0  0  0  0  0  0  0  0
   -4.9054   23.7398  -26.3641 C   0  0  0  0  0  0  0  0  0  0  0  0
   -4.0209   23.7355  -27.4468 C   0  0  0  0  0  0  0  0  0  0  0  0
   -3.9919   25.5121  -31.1155 H   0  0  0  0  0  0  0  0  0  0  0  0
   -5.4850   23.0241  -24.1381 O   0  0  0  0  0  0  0  0  0  0  0  0
   -5.6668   23.8484  -23.0585 C   0  0  0  0  0  0  0  0  0  0  0  0
   -4.4967   24.6669  -22.6138 C   0  0  0  0  0  0  0  0  0  0  0  0
   -4.8645   25.4908  -21.5472 O   0  0  0  0  0  0  0  0  0  0  0  0
   -4.0369   25.7766  -21.0657 H   0  0  0  0  0  0  0  0  0  0  0  0
 28 29  1  0  0  0
 29 30  1  0  0  0
 30 31  2  0  0  0
 30 32  1  0  0  0
 32 33  1  0  0  0
 33 34  2  0  0  0
 34 35  1  0  0  0
 35 36  2  0  0  0
 36 37  1  0  0  0
 37 27  1  0  0  0
 27  1  1  0  0  0
  1  2  2  0  0  0
  2  3  1  0  0  0
  3  4  2  0  0  0
  4  5  1  0  0  0
  5  7  1  0  0  0
  7  8  1  0  0  0
  8  9  2  0  0  0
  8 11  1  0  0  0
 11 12  2  0  0  0
 12 13  1  0  0  0
 13 14  2  0  0  0
 14 15  1  0  0  0
 15 16  2  0  0  0
 14 17  1  0  0  0
 17 18  1  0  0  0
 18 19  1  0  0  0
 19 20  1  0  0  0
 20 23  1  0  0  0
 23 24  1  0  0  0
 24 25  1  0  0  0
 20 21  1  0  0  0
 21 22  1  0  0  0
  5  6  2  0  0  0
 37 38  2  0  0  0
 38 42  1  0  0  0
 42 43  1  0  0  0
 43 44  1  0  0  0
 44 45  1  0  0  0
 38 39  1  0  0  0
 39 40  2  0  0  0
 40 32  1  0  0  0
 40 35  1  0  0  0
  6  1  1  0  0  0
 16 11  1  0  0  0
 22 17  1  0  0  0
 29 41  1  0  0  0
  7 10  1  0  0  0
 25 26  1  0  0  0
 45 46  1  0  0  0
M  END
> <minimizedAffinity>
-8.15857

> <CNNscore>
0.2654930055

> <CNNaffinity>
6.2796592712

> <CNN_VS>
1.6672055721

> <CNNaffinity_variance>
0.1047461852

$$$$
[H]OC([H])([H])C([H])([H])Oc1c(Oc2c([H])c([H])nc(N([H])C(=O)c3c([H])c([H])c(C4([H])C([H])([H])C([H])([H])N(C([H])([H])C([H])([H])O[H])C([H])([H])C4([H])[H])c([H])c3[H])c2[H])c([H])c2c([H])c([H])n(C(=O)N([H])C([H])([H])[H])c2c1[H]


 46 50  0  0  0  0  0  0  0  0999 V2000
   -4.1485   21.9692  -22.9611 C   0  0  0  0  0  0  0  0  0  0  0  0
   -3.4864   23.1526  -22.7138 C   0  0  0  0  0  0  0  0  0  0  0  0
   -3.4461   23.7383  -21.4720 C   0  0  0  0  0  0  0  0  0  0  0  0
   -4.0779   23.1352  -20.4513 N   0  0  0  0  0  0  0  0  0  0  0  0
   -4.7475   21.9711  -20.6253 C   0  0  0  0  0  0  0  0  0  0  0  0
   -4.7853   21.3807  -21.8900 C   0  0  0  0  0  0  0  0  0  0  0  0
   -5.3844   21.3562  -19.5140 N   0  0  0  0  0  0  0  0  0  0  0  0
   -6.7379   20.9352  -19.5676 C   0  0  0  0  0  0  0  0  0  0  0  0
   -7.4150   21.0950  -20.6108 O   0  0  0  0  0  0  0  0  0  0  0  0
   -4.8350   21.2161  -18.6417 H   0  0  0  0  0  0  0  0  0  0  0  0
   -7.3794   20.3069  -18.4038 C   0  0  0  0  0  0  0  0  0  0  0  0
   -7.4326   18.9364  -18.2719 C   0  0  0  0  0  0  0  0  0  0  0  0
   -8.0099   18.3494  -17.1635 C   0  0  0  0  0  0  0  0  0  0  0  0
   -8.5564   19.1167  -16.1461 C   0  0  0  0  0  0  0  0  0  0  0  0
   -8.5018   20.4751  -16.2839 C   0  0  0  0  0  0  0  0  0  0  0  0
   -7.9221   21.0840  -17.3964 C   0  0  0  0  0  0  0  0  0  0  0  0
   -9.1477   18.4181  -14.9947 C   0  0  0  0  0  0  0  0  0  0  0  0
   -8.1073   18.1052  -13.9285 C   0  0  0  0  0  0  0  0  0  0  0  0
   -8.7225   17.0887  -13.0158 C   0  0  0  0  0  0  0  0  0  0  0  0
  -10.0589   17.3839  -12.6329 N   0  0  0  0  0  0  0  0  0  0  0  0
  -10.5225   18.6933  -12.9342 C   0  0  0  0  0  0  0  0  0  0  0  0
  -10.2312   19.1860  -14.3188 C   0  0  0  0  0  0  0  0  0  0  0  0
  -10.9955   16.3254  -12.9263 C   0  0  0  0  0  0  0  0  0  0  0  0
  -12.3028   16.5736  -12.2015 C   0  0  0  0  0  0  0  0  0  0  0  0
  -13.3670   16.3888  -13.0810 O   0  0  0  0  0  0  0  0  0  0  0  0
  -13.0500   16.3621  -14.0243 H   0  0  0  0  0  0  0  0  0  0  0  0
   -4.1974   21.3576  -24.2205 O   0  0  0  0  0  0  0  0  0  0  0  0
   -5.7665   27.0811  -31.1378 C   0  0  0  0  0  0  0  0  0  0  0  0
   -4.8942   26.1094  -30.5147 N   0  0  0  0  0  0  0  0  0  0  0  0
   -5.2507   25.4671  -29.2965 C   0  0  0  0  0  0  0  0  0  0  0  0
   -6.3496   25.7724  -28.7850 O   0  0  0  0  0  0  0  0  0  0  0  0
   -4.3737   24.5211  -28.7068 N   0  0  0  0  0  0  0  0  0  0  0  0
   -3.1696   24.1727  -29.2538 C   0  0  0  0  0  0  0  0  0  0  0  0
   -2.5425   23.2480  -28.4537 C   0  0  0  0  0  0  0  0  0  0  0  0
   -3.4301   23.0563  -27.3949 C   0  0  0  0  0  0  0  0  0  0  0  0
   -3.3482   22.2495  -26.2820 C   0  0  0  0  0  0  0  0  0  0  0  0
   -4.3418   22.2035  -25.3378 C   0  0  0  0  0  0  0  0  0  0  0  0
   -5.4908   22.9870  -25.4756 C   0  0  0  0  0  0  0  0  0  0  0  0
   -5.5661   23.7909  -26.5914 C   0  0  0  0  0  0  0  0  0  0  0  0
   -4.5528   23.8380  -27.5535 C   0  0  0  0  0  0  0  0  0  0  0  0
   -3.9997   25.9163  -31.0164 H   0  0  0  0  0  0  0  0  0  0  0  0
   -6.4463   22.9161  -24.5267 O   0  0  0  0  0  0  0  0  0  0  0  0
   -6.9732   23.8151  -23.6366 C   0  0  0  0  0  0  0  0  0  0  0  0
   -7.9950   24.7767  -24.1542 C   0  0  0  0  0  0  0  0  0  0  0  0
   -7.3788   25.9679  -24.5454 O   0  0  0  0  0  0  0  0  0  0  0  0
   -7.9925   26.4548  -25.1657 H   0  0  0  0  0  0  0  0  0  0  0  0
 28 29  1  0  0  0
 29 30  1  0  0  0
 30 31  2  0  0  0
 30 32  1  0  0  0
 32 33  1  0  0  0
 33 34  2  0  0  0
 34 35  1  0  0  0
 35 36  2  0  0  0
 36 37  1  0  0  0
 37 27  1  0  0  0
 27  1  1  0  0  0
  1  2  2  0  0  0
  2  3  1  0  0  0
  3  4  2  0  0  0
  4  5  1  0  0  0
  5  7  1  0  0  0
  7  8  1  0  0  0
  8  9  2  0  0  0
  8 11  1  0  0  0
 11 12  2  0  0  0
 12 13  1  0  0  0
 13 14  2  0  0  0
 14 15  1  0  0  0
 15 16  2  0  0  0
 14 17  1  0  0  0
 17 18  1  0  0  0
 18 19  1  0  0  0
 19 20  1  0  0  0
 20 23  1  0  0  0
 23 24  1  0  0  0
 24 25  1  0  0  0
 20 21  1  0  0  0
 21 22  1  0  0  0
  5  6  2  0  0  0
 37 38  2  0  0  0
 38 42  1  0  0  0
 42 43  1  0  0  0
 43 44  1  0  0  0
 44 45  1  0  0  0
 38 39  1  0  0  0
 39 40  2  0  0  0
 40 32  1  0  0  0
 40 35  1  0  0  0
  6  1  1  0  0  0
 16 11  1  0  0  0
 22 17  1  0  0  0
 29 41  1  0  0  0
  7 10  1  0  0  0
 25 26  1  0  0  0
 45 46  1  0  0  0
M  END
> <minimizedAffinity>
-7.64766

> <CNNscore>
0.2367351651

> <CNNaffinity>
5.9251317978

> <CNN_VS>
1.4026870728

> <CNNaffinity_variance>
0.1811331213

$$$$
[H]OC([H])([H])C([H])([H])Oc1c(Oc2c([H])c([H])nc(N([H])C(=O)c3c([H])c([H])c(C4([H])C([H])([H])C([H])([H])N(C([H])([H])C([H])([H])O[H])C([H])([H])C4([H])[H])c([H])c3[H])c2[H])c([H])c2c([H])c([H])n(C(=O)N([H])C([H])([H])[H])c2c1[H]


 46 50  0  0  0  0  0  0  0  0999 V2000
   -2.7564   21.4027  -23.6601 C   0  0  0  0  0  0  0  0  0  0  0  0
   -2.0410   21.9523  -24.7022 C   0  0  0  0  0  0  0  0  0  0  0  0
   -0.7560   22.4163  -24.5607 C   0  0  0  0  0  0  0  0  0  0  0  0
   -0.1667   22.3326  -23.3563 N   0  0  0  0  0  0  0  0  0  0  0  0
   -0.8130   21.8040  -22.2902 C   0  0  0  0  0  0  0  0  0  0  0  0
   -2.1194   21.3345  -22.4400 C   0  0  0  0  0  0  0  0  0  0  0  0
   -0.1451   21.7156  -21.0392 N   0  0  0  0  0  0  0  0  0  0  0  0
   -0.3193   22.6955  -20.0285 C   0  0  0  0  0  0  0  0  0  0  0  0
   -1.0782   23.6762  -20.2145 O   0  0  0  0  0  0  0  0  0  0  0  0
    0.4872   20.9069  -20.8699 H   0  0  0  0  0  0  0  0  0  0  0  0
    0.3865   22.5880  -18.7436 C   0  0  0  0  0  0  0  0  0  0  0  0
   -0.1544   21.8854  -17.6890 C   0  0  0  0  0  0  0  0  0  0  0  0
    0.5241   21.7616  -16.4929 C   0  0  0  0  0  0  0  0  0  0  0  0
    1.7711   22.3395  -16.3104 C   0  0  0  0  0  0  0  0  0  0  0  0
    2.3012   23.0362  -17.3597 C   0  0  0  0  0  0  0  0  0  0  0  0
    1.6296   23.1705  -18.5743 C   0  0  0  0  0  0  0  0  0  0  0  0
    2.4337   22.1579  -15.0099 C   0  0  0  0  0  0  0  0  0  0  0  0
    2.8029   20.7021  -14.7623 C   0  0  0  0  0  0  0  0  0  0  0  0
    3.1064   20.5805  -13.3001 C   0  0  0  0  0  0  0  0  0  0  0  0
    3.9359   21.6157  -12.7901 N   0  0  0  0  0  0  0  0  0  0  0  0
    4.5681   22.4452  -13.7557 C   0  0  0  0  0  0  0  0  0  0  0  0
    3.6895   22.9461  -14.8610 C   0  0  0  0  0  0  0  0  0  0  0  0
    3.3644   22.3186  -11.6662 C   0  0  0  0  0  0  0  0  0  0  0  0
    4.4123   23.2008  -11.0187 C   0  0  0  0  0  0  0  0  0  0  0  0
    5.3132   22.4115  -10.3076 O   0  0  0  0  0  0  0  0  0  0  0  0
    4.9597   21.4889  -10.1847 H   0  0  0  0  0  0  0  0  0  0  0  0
   -4.0665   20.9229  -23.7879 O   0  0  0  0  0  0  0  0  0  0  0  0
  -10.7923   26.8252  -22.0574 C   0  0  0  0  0  0  0  0  0  0  0  0
   -9.8878   26.2336  -23.0192 N   0  0  0  0  0  0  0  0  0  0  0  0
   -8.9628   25.2210  -22.6413 C   0  0  0  0  0  0  0  0  0  0  0  0
   -8.9629   24.8588  -21.4449 O   0  0  0  0  0  0  0  0  0  0  0  0
   -8.0856   24.6617  -23.6053 N   0  0  0  0  0  0  0  0  0  0  0  0
   -8.0739   25.0433  -24.9186 C   0  0  0  0  0  0  0  0  0  0  0  0
   -7.1133   24.3373  -25.6022 C   0  0  0  0  0  0  0  0  0  0  0  0
   -6.5452   23.5097  -24.6336 C   0  0  0  0  0  0  0  0  0  0  0  0
   -5.5326   22.5807  -24.7200 C   0  0  0  0  0  0  0  0  0  0  0  0
   -5.1086   21.8583  -23.6341 C   0  0  0  0  0  0  0  0  0  0  0  0
   -5.7002   22.0436  -22.3816 C   0  0  0  0  0  0  0  0  0  0  0  0
   -6.7128   22.9739  -22.3028 C   0  0  0  0  0  0  0  0  0  0  0  0
   -7.1444   23.7106  -23.4099 C   0  0  0  0  0  0  0  0  0  0  0  0
   -9.9629   26.5969  -23.9946 H   0  0  0  0  0  0  0  0  0  0  0  0
   -5.2565   21.3161  -21.3365 O   0  0  0  0  0  0  0  0  0  0  0  0
   -5.3728   21.4339  -19.9761 C   0  0  0  0  0  0  0  0  0  0  0  0
   -4.1936   21.9710  -19.2293 C   0  0  0  0  0  0  0  0  0  0  0  0
   -3.8234   23.2149  -19.7465 O   0  0  0  0  0  0  0  0  0  0  0  0
   -3.2726   23.6925  -19.0631 H   0  0  0  0  0  0  0  0  0  0  0  0
 28 29  1  0  0  0
 29 30  1  0  0  0
 30 31  2  0  0  0
 30 32  1  0  0  0
 32 33  1  0  0  0
 33 34  2  0  0  0
 34 35  1  0  0  0
 35 36  2  0  0  0
 36 37  1  0  0  0
 37 27  1  0  0  0
 27  1  1  0  0  0
  1  2  2  0  0  0
  2  3  1  0  0  0
  3  4  2  0  0  0
  4  5  1  0  0  0
  5  7  1  0  0  0
  7  8  1  0  0  0
  8  9  2  0  0  0
  8 11  1  0  0  0
 11 12  2  0  0  0
 12 13  1  0  0  0
 13 14  2  0  0  0
 14 15  1  0  0  0
 15 16  2  0  0  0
 14 17  1  0  0  0
 17 18  1  0  0  0
 18 19  1  0  0  0
 19 20  1  0  0  0
 20 23  1  0  0  0
 23 24  1  0  0  0
 24 25  1  0  0  0
 20 21  1  0  0  0
 21 22  1  0  0  0
  5  6  2  0  0  0
 37 38  2  0  0  0
 38 42  1  0  0  0
 42 43  1  0  0  0
 43 44  1  0  0  0
 44 45  1  0  0  0
 38 39  1  0  0  0
 39 40  2  0  0  0
 40 32  1  0  0  0
 40 35  1  0  0  0
  6  1  1  0  0  0
 16 11  1  0  0  0
 22 17  1  0  0  0
 29 41  1  0  0  0
  7 10  1  0  0  0
 25 26  1  0  0  0
 45 46  1  0  0  0
M  END
> <minimizedAffinity>
-7.47150

> <CNNscore>
0.1814225614

> <CNNaffinity>
5.6676607132

> <CNN_VS>
1.0282415152

> <CNNaffinity_variance>
0.3308048844

$$$$
[H]OC([H])([H])C([H])([H])Oc1c(Oc2c([H])c([H])nc(N([H])C(=O)c3c([H])c([H])c(C4([H])C([H])([H])C([H])([H])N(C([H])([H])C([H])([H])O[H])C([H])([H])C4([H])[H])c([H])c3[H])c2[H])c([H])c2c([H])c([H])n(C(=O)N([H])C([H])([H])[H])c2c1[H]


 46 50  0  0  0  0  0  0  0  0999 V2000
    1.4333   20.6920  -21.7649 C   0  0  0  0  0  0  0  0  0  0  0  0
    2.0846   21.0147  -22.9361 C   0  0  0  0  0  0  0  0  0  0  0  0
    1.4642   21.6537  -23.9818 C   0  0  0  0  0  0  0  0  0  0  0  0
    0.1666   21.9803  -23.8623 N   0  0  0  0  0  0  0  0  0  0  0  0
   -0.5327   21.6921  -22.7391 C   0  0  0  0  0  0  0  0  0  0  0  0
    0.1033   21.0421  -21.6796 C   0  0  0  0  0  0  0  0  0  0  0  0
   -1.8981   22.0741  -22.6464 N   0  0  0  0  0  0  0  0  0  0  0  0
   -2.3093   23.1979  -21.8848 C   0  0  0  0  0  0  0  0  0  0  0  0
   -1.4677   23.8931  -21.2677 O   0  0  0  0  0  0  0  0  0  0  0  0
   -2.6079   21.5075  -23.1538 H   0  0  0  0  0  0  0  0  0  0  0  0
   -3.7282   23.5718  -21.7971 C   0  0  0  0  0  0  0  0  0  0  0  0
   -4.5813   22.9343  -20.9230 C   0  0  0  0  0  0  0  0  0  0  0  0
   -5.9069   23.3073  -20.8220 C   0  0  0  0  0  0  0  0  0  0  0  0
   -6.4258   24.3341  -21.5956 C   0  0  0  0  0  0  0  0  0  0  0  0
   -5.5748   24.9613  -22.4615 C   0  0  0  0  0  0  0  0  0  0  0  0
   -4.2336   24.5973  -22.5757 C   0  0  0  0  0  0  0  0  0  0  0  0
   -7.8460   24.6775  -21.4263 C   0  0  0  0  0  0  0  0  0  0  0  0
   -8.5577   24.8139  -22.7649 C   0  0  0  0  0  0  0  0  0  0  0  0
   -9.8506   25.5202  -22.4919 C   0  0  0  0  0  0  0  0  0  0  0  0
  -10.5579   25.0234  -21.3637 N   0  0  0  0  0  0  0  0  0  0  0  0
  -10.0968   23.7902  -20.8282 C   0  0  0  0  0  0  0  0  0  0  0  0
   -8.6155   23.6755  -20.6360 C   0  0  0  0  0  0  0  0  0  0  0  0
  -10.8692   26.0340  -20.3810 C   0  0  0  0  0  0  0  0  0  0  0  0
  -12.2059   25.7340  -19.7338 C   0  0  0  0  0  0  0  0  0  0  0  0
  -12.0114   25.3864  -18.3990 O   0  0  0  0  0  0  0  0  0  0  0  0
  -11.0527   25.1880  -18.2180 H   0  0  0  0  0  0  0  0  0  0  0  0
    2.0517   20.0428  -20.6884 O   0  0  0  0  0  0  0  0  0  0  0  0
    2.1130   24.1232  -12.5388 C   0  0  0  0  0  0  0  0  0  0  0  0
    2.6128   24.0708  -13.8956 N   0  0  0  0  0  0  0  0  0  0  0  0
    2.1537   23.0891  -14.8171 C   0  0  0  0  0  0  0  0  0  0  0  0
    1.2983   22.2734  -14.4104 O   0  0  0  0  0  0  0  0  0  0  0  0
    2.6642   23.0598  -16.1400 N   0  0  0  0  0  0  0  0  0  0  0  0
    3.5975   23.9459  -16.6029 C   0  0  0  0  0  0  0  0  0  0  0  0
    3.9042   23.6609  -17.9118 C   0  0  0  0  0  0  0  0  0  0  0  0
    3.1081   22.5565  -18.2153 C   0  0  0  0  0  0  0  0  0  0  0  0
    2.9831   21.8239  -19.3746 C   0  0  0  0  0  0  0  0  0  0  0  0
    2.1330   20.7524  -19.4740 C   0  0  0  0  0  0  0  0  0  0  0  0
    1.3513   20.3610  -18.3838 C   0  0  0  0  0  0  0  0  0  0  0  0
    1.4809   21.0987  -17.2280 C   0  0  0  0  0  0  0  0  0  0  0  0
    2.3480   22.1907  -17.1267 C   0  0  0  0  0  0  0  0  0  0  0  0
    3.3220   24.7945  -14.1453 H   0  0  0  0  0  0  0  0  0  0  0  0
    0.5275   19.3019  -18.5185 O   0  0  0  0  0  0  0  0  0  0  0  0
   -0.7606   19.0416  -18.1299 C   0  0  0  0  0  0  0  0  0  0  0  0
   -1.2607   17.6425  -18.3003 C   0  0  0  0  0  0  0  0  0  0  0  0
   -2.5710   17.6564  -18.7849 O   0  0  0  0  0  0  0  0  0  0  0  0
   -2.7703   16.7646  -19.1890 H   0  0  0  0  0  0  0  0  0  0  0  0
 28 29  1  0  0  0
 29 30  1  0  0  0
 30 31  2  0  0  0
 30 32  1  0  0  0
 32 33  1  0  0  0
 33 34  2  0  0  0
 34 35  1  0  0  0
 35 36  2  0  0  0
 36 37  1  0  0  0
 37 27  1  0  0  0
 27  1  1  0  0  0
  1  2  2  0  0  0
  2  3  1  0  0  0
  3  4  2  0  0  0
  4  5  1  0  0  0
  5  7  1  0  0  0
  7  8  1  0  0  0
  8  9  2  0  0  0
  8 11  1  0  0  0
 11 12  2  0  0  0
 12 13  1  0  0  0
 13 14  2  0  0  0
 14 15  1  0  0  0
 15 16  2  0  0  0
 14 17  1  0  0  0
 17 18  1  0  0  0
 18 19  1  0  0  0
 19 20  1  0  0  0
 20 23  1  0  0  0
 23 24  1  0  0  0
 24 25  1  0  0  0
 20 21  1  0  0  0
 21 22  1  0  0  0
  5  6  2  0  0  0
 37 38  2  0  0  0
 38 42  1  0  0  0
 42 43  1  0  0  0
 43 44  1  0  0  0
 44 45  1  0  0  0
 38 39  1  0  0  0
 39 40  2  0  0  0
 40 32  1  0  0  0
 40 35  1  0  0  0
  6  1  1  0  0  0
 16 11  1  0  0  0
 22 17  1  0  0  0
 29 41  1  0  0  0
  7 10  1  0  0  0
 25 26  1  0  0  0
 45 46  1  0  0  0
M  END
> <minimizedAffinity>
-7.73248

> <CNNscore>
0.1470734477

> <CNNaffinity>
5.6567506790

> <CNN_VS>
0.8319578171

> <CNNaffinity_variance>
0.4533118606

$$$$
[H]OC([H])([H])C([H])([H])Oc1c(Oc2c([H])c([H])nc(N([H])C(=O)c3c([H])c([H])c(C4([H])C([H])([H])C([H])([H])N(C([H])([H])C([H])([H])O[H])C([H])([H])C4([H])[H])c([H])c3[H])c2[H])c([H])c2c([H])c([H])n(C(=O)N([H])C([H])([H])[H])c2c1[H]


 46 50  0  0  0  0  0  0  0  0999 V2000
   -2.7354   21.8608  -25.0221 C   0  0  0  0  0  0  0  0  0  0  0  0
   -1.7415   22.2007  -25.9147 C   0  0  0  0  0  0  0  0  0  0  0  0
   -0.4280   22.3546  -25.5439 C   0  0  0  0  0  0  0  0  0  0  0  0
   -0.0927   22.1665  -24.2567 N   0  0  0  0  0  0  0  0  0  0  0  0
   -1.0196   21.8316  -23.3281 C   0  0  0  0  0  0  0  0  0  0  0  0
   -2.3535   21.6770  -23.7109 C   0  0  0  0  0  0  0  0  0  0  0  0
   -0.6183   21.6217  -21.9814 N   0  0  0  0  0  0  0  0  0  0  0  0
   -0.8658   22.5845  -20.9695 C   0  0  0  0  0  0  0  0  0  0  0  0
   -1.4543   23.6580  -21.2403 O   0  0  0  0  0  0  0  0  0  0  0  0
   -0.1297   20.7351  -21.7412 H   0  0  0  0  0  0  0  0  0  0  0  0
   -0.4362   22.3498  -19.5834 C   0  0  0  0  0  0  0  0  0  0  0  0
   -1.2017   21.6012  -18.7162 C   0  0  0  0  0  0  0  0  0  0  0  0
   -0.7816   21.3581  -17.4236 C   0  0  0  0  0  0  0  0  0  0  0  0
    0.4227   21.8584  -16.9529 C   0  0  0  0  0  0  0  0  0  0  0  0
    1.1763   22.6013  -17.8174 C   0  0  0  0  0  0  0  0  0  0  0  0
    0.7671   22.8559  -19.1259 C   0  0  0  0  0  0  0  0  0  0  0  0
    0.8043   21.5510  -15.5660 C   0  0  0  0  0  0  0  0  0  0  0  0
    1.9141   22.4667  -15.0692 C   0  0  0  0  0  0  0  0  0  0  0  0
    2.4692   21.8328  -13.8303 C   0  0  0  0  0  0  0  0  0  0  0  0
    1.4803   21.3655  -12.9228 N   0  0  0  0  0  0  0  0  0  0  0  0
    0.1478   21.7918  -13.1738 C   0  0  0  0  0  0  0  0  0  0  0  0
   -0.3176   21.6765  -14.5932 C   0  0  0  0  0  0  0  0  0  0  0  0
    1.6175   19.9698  -12.5809 C   0  0  0  0  0  0  0  0  0  0  0  0
    2.9068   19.4191  -13.1554 C   0  0  0  0  0  0  0  0  0  0  0  0
    3.7063   18.9301  -12.1249 O   0  0  0  0  0  0  0  0  0  0  0  0
    3.3784   19.2445  -11.2390 H   0  0  0  0  0  0  0  0  0  0  0  0
   -4.0790   21.6977  -25.3841 O   0  0  0  0  0  0  0  0  0  0  0  0
  -10.1813   26.5961  -20.7111 C   0  0  0  0  0  0  0  0  0  0  0  0
   -9.5253   25.3248  -20.9272 N   0  0  0  0  0  0  0  0  0  0  0  0
   -8.5169   25.1702  -21.9186 C   0  0  0  0  0  0  0  0  0  0  0  0
   -8.2162   26.1770  -22.5957 O   0  0  0  0  0  0  0  0  0  0  0  0
   -7.8936   23.9107  -22.1104 N   0  0  0  0  0  0  0  0  0  0  0  0
   -8.2074   22.7998  -21.3770 C   0  0  0  0  0  0  0  0  0  0  0  0
   -7.4503   21.7327  -21.7973 C   0  0  0  0  0  0  0  0  0  0  0  0
   -6.6632   22.2566  -22.8228 C   0  0  0  0  0  0  0  0  0  0  0  0
   -5.7130   21.6650  -23.6248 C   0  0  0  0  0  0  0  0  0  0  0  0
   -5.0395   22.3613  -24.5955 C   0  0  0  0  0  0  0  0  0  0  0  0
   -5.2990   23.7181  -24.8073 C   0  0  0  0  0  0  0  0  0  0  0  0
   -6.2500   24.3032  -24.0011 C   0  0  0  0  0  0  0  0  0  0  0  0
   -6.9369   23.5931  -23.0119 C   0  0  0  0  0  0  0  0  0  0  0  0
   -9.8396   24.5426  -20.3120 H   0  0  0  0  0  0  0  0  0  0  0  0
   -4.6179   24.3698  -25.7715 O   0  0  0  0  0  0  0  0  0  0  0  0
   -4.9793   24.9958  -26.9358 C   0  0  0  0  0  0  0  0  0  0  0  0
   -5.2313   24.1327  -28.1308 C   0  0  0  0  0  0  0  0  0  0  0  0
   -4.4146   23.0001  -28.0861 O   0  0  0  0  0  0  0  0  0  0  0  0
   -4.8056   22.3020  -28.6846 H   0  0  0  0  0  0  0  0  0  0  0  0
 28 29  1  0  0  0
 29 30  1  0  0  0
 30 31  2  0  0  0
 30 32  1  0  0  0
 32 33  1  0  0  0
 33 34  2  0  0  0
 34 35  1  0  0  0
 35 36  2  0  0  0
 36 37  1  0  0  0
 37 27  1  0  0  0
 27  1  1  0  0  0
  1  2  2  0  0  0
  2  3  1  0  0  0
  3  4  2  0  0  0
  4  5  1  0  0  0
  5  7  1  0  0  0
  7  8  1  0  0  0
  8  9  2  0  0  0
  8 11  1  0  0  0
 11 12  2  0  0  0
 12 13  1  0  0  0
 13 14  2  0  0  0
 14 15  1  0  0  0
 15 16  2  0  0  0
 14 17  1  0  0  0
 17 18  1  0  0  0
 18 19  1  0  0  0
 19 20  1  0  0  0
 20 23  1  0  0  0
 23 24  1  0  0  0
 24 25  1  0  0  0
 20 21  1  0  0  0
 21 22  1  0  0  0
  5  6  2  0  0  0
 37 38  2  0  0  0
 38 42  1  0  0  0
 42 43  1  0  0  0
 43 44  1  0  0  0
 44 45  1  0  0  0
 38 39  1  0  0  0
 39 40  2  0  0  0
 40 32  1  0  0  0
 40 35  1  0  0  0
  6  1  1  0  0  0
 16 11  1  0  0  0
 22 17  1  0  0  0
 29 41  1  0  0  0
  7 10  1  0  0  0
 25 26  1  0  0  0
 45 46  1  0  0  0
M  END
> <minimizedAffinity>
-7.63045

> <CNNscore>
0.1250466853

> <CNNaffinity>
5.8707580566

> <CNN_VS>
0.7341188192

> <CNNaffinity_variance>
0.3826130927

$$$$
[H]OC([H])([H])C([H])([H])Oc1c(Oc2c([H])c([H])nc(N([H])C(=O)c3c([H])c([H])c(C4([H])C([H])([H])C([H])([H])N(C([H])([H])C([H])([H])O[H])C([H])([H])C4([H])[H])c([H])c3[H])c2[H])c([H])c2c([H])c([H])n(C(=O)N([H])C([H])([H])[H])c2c1[H]


 46 50  0  0  0  0  0  0  0  0999 V2000
   -1.3894   20.6830  -17.9714 C   0  0  0  0  0  0  0  0  0  0  0  0
   -0.0170   20.5807  -17.8944 C   0  0  0  0  0  0  0  0  0  0  0  0
    0.8060   20.7687  -18.9780 C   0  0  0  0  0  0  0  0  0  0  0  0
    0.2538   21.0654  -20.1662 N   0  0  0  0  0  0  0  0  0  0  0  0
   -1.0876   21.1803  -20.3116 C   0  0  0  0  0  0  0  0  0  0  0  0
   -1.9191   20.9877  -19.2066 C   0  0  0  0  0  0  0  0  0  0  0  0
   -1.6285   21.5160  -21.5817 N   0  0  0  0  0  0  0  0  0  0  0  0
   -1.8468   22.8633  -21.9683 C   0  0  0  0  0  0  0  0  0  0  0  0
   -1.5626   23.8045  -21.1901 O   0  0  0  0  0  0  0  0  0  0  0  0
   -1.8684   20.7458  -22.2387 H   0  0  0  0  0  0  0  0  0  0  0  0
   -2.4136   23.1881  -23.2851 C   0  0  0  0  0  0  0  0  0  0  0  0
   -3.3842   24.1560  -23.4250 C   0  0  0  0  0  0  0  0  0  0  0  0
   -3.8938   24.4794  -24.6668 C   0  0  0  0  0  0  0  0  0  0  0  0
   -3.4485   23.8424  -25.8149 C   0  0  0  0  0  0  0  0  0  0  0  0
   -2.4869   22.8825  -25.6691 C   0  0  0  0  0  0  0  0  0  0  0  0
   -1.9614   22.5440  -24.4226 C   0  0  0  0  0  0  0  0  0  0  0  0
   -4.0351   24.2467  -27.1017 C   0  0  0  0  0  0  0  0  0  0  0  0
   -4.9456   23.1680  -27.6713 C   0  0  0  0  0  0  0  0  0  0  0  0
   -5.1694   23.5140  -29.1119 C   0  0  0  0  0  0  0  0  0  0  0  0
   -5.4690   24.8842  -29.3412 N   0  0  0  0  0  0  0  0  0  0  0  0
   -5.7756   25.6599  -28.1903 C   0  0  0  0  0  0  0  0  0  0  0  0
   -4.8488   25.4927  -27.0251 C   0  0  0  0  0  0  0  0  0  0  0  0
   -4.5844   25.5229  -30.2864 C   0  0  0  0  0  0  0  0  0  0  0  0
   -5.3673   25.9876  -31.4975 C   0  0  0  0  0  0  0  0  0  0  0  0
   -6.3884   25.0804  -31.7703 O   0  0  0  0  0  0  0  0  0  0  0  0
   -6.2508   24.2284  -31.2739 H   0  0  0  0  0  0  0  0  0  0  0  0
   -2.2427   20.4966  -16.8760 O   0  0  0  0  0  0  0  0  0  0  0  0
    1.6269   18.0571   -8.9929 C   0  0  0  0  0  0  0  0  0  0  0  0
    1.2042   19.1161   -9.8835 N   0  0  0  0  0  0  0  0  0  0  0  0
    0.5610   18.8318  -11.1201 C   0  0  0  0  0  0  0  0  0  0  0  0
    0.3718   17.6301  -11.4075 O   0  0  0  0  0  0  0  0  0  0  0  0
    0.1607   19.8905  -11.9748 N   0  0  0  0  0  0  0  0  0  0  0  0
    0.3566   21.2105  -11.6751 C   0  0  0  0  0  0  0  0  0  0  0  0
   -0.1226   21.9976  -12.6946 C   0  0  0  0  0  0  0  0  0  0  0  0
   -0.6176   21.0846  -13.6257 C   0  0  0  0  0  0  0  0  0  0  0  0
   -1.2161   21.2780  -14.8507 C   0  0  0  0  0  0  0  0  0  0  0  0
   -1.6381   20.2323  -15.6313 C   0  0  0  0  0  0  0  0  0  0  0  0
   -1.4724   18.9125  -15.2026 C   0  0  0  0  0  0  0  0  0  0  0  0
   -0.8737   18.7268  -13.9762 C   0  0  0  0  0  0  0  0  0  0  0  0
   -0.4431   19.7930  -13.1809 C   0  0  0  0  0  0  0  0  0  0  0  0
    1.4011   20.0877   -9.5575 H   0  0  0  0  0  0  0  0  0  0  0  0
   -1.8988   17.9101  -15.9974 O   0  0  0  0  0  0  0  0  0  0  0  0
   -1.2779   17.0613  -16.8761 C   0  0  0  0  0  0  0  0  0  0  0  0
   -2.0202   16.6991  -18.1228 C   0  0  0  0  0  0  0  0  0  0  0  0
   -2.9299   17.7076  -18.4504 O   0  0  0  0  0  0  0  0  0  0  0  0
   -3.1725   17.6161  -19.4154 H   0  0  0  0  0  0  0  0  0  0  0  0
 28 29  1  0  0  0
 29 30  1  0  0  0
 30 31  2  0  0  0
 30 32  1  0  0  0
 32 33  1  0  0  0
 33 34  2  0  0  0
 34 35  1  0  0  0
 35 36  2  0  0  0
 36 37  1  0  0  0
 37 27  1  0  0  0
 27  1  1  0  0  0
  1  2  2  0  0  0
  2  3  1  0  0  0
  3  4  2  0  0  0
  4  5  1  0  0  0
  5  7  1  0  0  0
  7  8  1  0  0  0
  8  9  2  0  0  0
  8 11  1  0  0  0
 11 12  2  0  0  0
 12 13  1  0  0  0
 13 14  2  0  0  0
 14 15  1  0  0  0
 15 16  2  0  0  0
 14 17  1  0  0  0
 17 18  1  0  0  0
 18 19  1  0  0  0
 19 20  1  0  0  0
 20 23  1  0  0  0
 23 24  1  0  0  0
 24 25  1  0  0  0
 20 21  1  0  0  0
 21 22  1  0  0  0
  5  6  2  0  0  0
 37 38  2  0  0  0
 38 42  1  0  0  0
 42 43  1  0  0  0
 43 44  1  0  0  0
 44 45  1  0  0  0
 38 39  1  0  0  0
 39 40  2  0  0  0
 40 32  1  0  0  0
 40 35  1  0  0  0
  6  1  1  0  0  0
 16 11  1  0  0  0
 22 17  1  0  0  0
 29 41  1  0  0  0
  7 10  1  0  0  0
 25 26  1  0  0  0
 45 46  1  0  0  0
M  END
> <minimizedAffinity>
-6.70418

> <CNNscore>
0.1198301688

> <CNNaffinity>
5.8053703308

> <CNN_VS>
0.6956585050

> <CNNaffinity_variance>
0.4025954306

$$$$
[H]OC([H])([H])C([H])([H])Oc1c(Oc2c([H])c([H])nc(N([H])C(=O)c3c([H])c([H])c(C4([H])C([H])([H])C([H])([H])N(C([H])([H])C([H])([H])O[H])C([H])([H])C4([H])[H])c([H])c3[H])c2[H])c([H])c2c([H])c([H])n(C(=O)N([H])C([H])([H])[H])c2c1[H]


 46 50  0  0  0  0  0  0  0  0999 V2000
   -2.4846   22.3464  -26.3321 C   0  0  0  0  0  0  0  0  0  0  0  0
   -1.4298   22.3759  -27.2190 C   0  0  0  0  0  0  0  0  0  0  0  0
   -0.1223   22.2234  -26.8269 C   0  0  0  0  0  0  0  0  0  0  0  0
    0.1449   22.0370  -25.5236 N   0  0  0  0  0  0  0  0  0  0  0  0
   -0.8441   21.9981  -24.5994 C   0  0  0  0  0  0  0  0  0  0  0  0
   -2.1714   22.1542  -25.0040 C   0  0  0  0  0  0  0  0  0  0  0  0
   -0.5189   21.7779  -23.2340 N   0  0  0  0  0  0  0  0  0  0  0  0
   -0.8500   22.7195  -22.2261 C   0  0  0  0  0  0  0  0  0  0  0  0
   -1.4475   23.7827  -22.5175 O   0  0  0  0  0  0  0  0  0  0  0  0
   -0.0239   20.8998  -22.9767 H   0  0  0  0  0  0  0  0  0  0  0  0
   -0.4984   22.4748  -20.8199 C   0  0  0  0  0  0  0  0  0  0  0  0
    0.5055   21.5951  -20.4782 C   0  0  0  0  0  0  0  0  0  0  0  0
    0.8532   21.3891  -19.1579 C   0  0  0  0  0  0  0  0  0  0  0  0
    0.2053   22.0583  -18.1310 C   0  0  0  0  0  0  0  0  0  0  0  0
   -0.7903   22.9282  -18.4766 C   0  0  0  0  0  0  0  0  0  0  0  0
   -1.1536   23.1481  -19.8047 C   0  0  0  0  0  0  0  0  0  0  0  0
    0.6370   21.7904  -16.7506 C   0  0  0  0  0  0  0  0  0  0  0  0
   -0.5258   21.3569  -15.8692 C   0  0  0  0  0  0  0  0  0  0  0  0
   -0.0583   21.4839  -14.4513 C   0  0  0  0  0  0  0  0  0  0  0  0
    1.2401   20.9554  -14.2175 N   0  0  0  0  0  0  0  0  0  0  0  0
    1.7901   20.1602  -15.2593 C   0  0  0  0  0  0  0  0  0  0  0  0
    1.6728   20.7246  -16.6421 C   0  0  0  0  0  0  0  0  0  0  0  0
    2.1562   21.9024  -13.6279 C   0  0  0  0  0  0  0  0  0  0  0  0
    1.3866   22.9730  -12.8814 C   0  0  0  0  0  0  0  0  0  0  0  0
    1.7752   24.2309  -13.3362 O   0  0  0  0  0  0  0  0  0  0  0  0
    2.6134   24.1740  -13.8704 H   0  0  0  0  0  0  0  0  0  0  0  0
   -3.8235   22.4980  -26.7156 O   0  0  0  0  0  0  0  0  0  0  0  0
   -9.5967   26.2651  -20.7534 C   0  0  0  0  0  0  0  0  0  0  0  0
   -8.8919   25.0878  -21.2123 N   0  0  0  0  0  0  0  0  0  0  0  0
   -8.0079   25.1403  -22.3256 C   0  0  0  0  0  0  0  0  0  0  0  0
   -7.8604   26.2449  -22.8919 O   0  0  0  0  0  0  0  0  0  0  0  0
   -7.3331   23.9691  -22.7553 N   0  0  0  0  0  0  0  0  0  0  0  0
   -7.4798   22.7535  -22.1459 C   0  0  0  0  0  0  0  0  0  0  0  0
   -6.7138   21.8119  -22.7903 C   0  0  0  0  0  0  0  0  0  0  0  0
   -6.0971   22.5218  -23.8206 C   0  0  0  0  0  0  0  0  0  0  0  0
   -5.2185   22.1137  -24.7992 C   0  0  0  0  0  0  0  0  0  0  0  0
   -4.7186   22.9781  -25.7393 C   0  0  0  0  0  0  0  0  0  0  0  0
   -5.0901   24.3253  -25.7359 C   0  0  0  0  0  0  0  0  0  0  0  0
   -5.9685   24.7264  -24.7539 C   0  0  0  0  0  0  0  0  0  0  0  0
   -6.4784   23.8449  -23.7959 C   0  0  0  0  0  0  0  0  0  0  0  0
   -9.0752   24.2120  -20.6752 H   0  0  0  0  0  0  0  0  0  0  0  0
   -4.5789   25.1453  -26.6765 O   0  0  0  0  0  0  0  0  0  0  0  0
   -5.1098   25.8102  -27.7509 C   0  0  0  0  0  0  0  0  0  0  0  0
   -4.5654   25.4763  -29.1032 C   0  0  0  0  0  0  0  0  0  0  0  0
   -3.7423   24.3502  -29.0251 O   0  0  0  0  0  0  0  0  0  0  0  0
   -3.6529   23.9572  -29.9395 H   0  0  0  0  0  0  0  0  0  0  0  0
 28 29  1  0  0  0
 29 30  1  0  0  0
 30 31  2  0  0  0
 30 32  1  0  0  0
 32 33  1  0  0  0
 33 34  2  0  0  0
 34 35  1  0  0  0
 35 36  2  0  0  0
 36 37  1  0  0  0
 37 27  1  0  0  0
 27  1  1  0  0  0
  1  2  2  0  0  0
  2  3  1  0  0  0
  3  4  2  0  0  0
  4  5  1  0  0  0
  5  7  1  0  0  0
  7  8  1  0  0  0
  8  9  2  0  0  0
  8 11  1  0  0  0
 11 12  2  0  0  0
 12 13  1  0  0  0
 13 14  2  0  0  0
 14 15  1  0  0  0
 15 16  2  0  0  0
 14 17  1  0  0  0
 17 18  1  0  0  0
 18 19  1  0  0  0
 19 20  1  0  0  0
 20 23  1  0  0  0
 23 24  1  0  0  0
 24 25  1  0  0  0
 20 21  1  0  0  0
 21 22  1  0  0  0
  5  6  2  0  0  0
 37 38  2  0  0  0
 38 42  1  0  0  0
 42 43  1  0  0  0
 43 44  1  0  0  0
 44 45  1  0  0  0
 38 39  1  0  0  0
 39 40  2  0  0  0
 40 32  1  0  0  0
 40 35  1  0  0  0
  6  1  1  0  0  0
 16 11  1  0  0  0
 22 17  1  0  0  0
 29 41  1  0  0  0
  7 10  1  0  0  0
 25 26  1  0  0  0
 45 46  1  0  0  0
M  END
> <minimizedAffinity>
-8.59708

> <CNNscore>
0.1155333295

> <CNNaffinity>
6.3306045532

> <CNN_VS>
0.7313958406

> <CNNaffinity_variance>
0.2428134382

$$$$
[H]c1c([H])c(OC([H])([H])[H])c(F)c(-c2c([H])c([H])c3c(N([H])C(=O)c4c([H])c([H])c(N5C([H])([H])C([H])([H])N(C([H])([H])C([H])([H])[H])C([H])([H])C5([H])[H])c([H])c4[H])nn([H])c3c2[H])c1[H]


 37 41  0  0  0  0  0  0  0  0999 V2000
   -2.1730   22.9231  -28.4377 C   0  0  0  0  0  0  0  0  0  0  0  0
   -1.0430   23.5840  -28.7166 N   0  0  0  0  0  0  0  0  0  0  0  0
   -0.2107   23.5550  -27.6932 N   0  0  0  0  0  0  0  0  0  0  0  0
   -0.7489   22.8667  -26.6704 C   0  0  0  0  0  0  0  0  0  0  0  0
   -0.3280   22.5365  -25.4006 C   0  0  0  0  0  0  0  0  0  0  0  0
   -1.1328   21.7882  -24.5399 C   0  0  0  0  0  0  0  0  0  0  0  0
   -2.3751   21.3801  -24.9914 C   0  0  0  0  0  0  0  0  0  0  0  0
   -2.7631   21.7271  -26.2635 C   0  0  0  0  0  0  0  0  0  0  0  0
   -1.9879   22.4630  -27.1290 C   0  0  0  0  0  0  0  0  0  0  0  0
    0.7268   24.0024  -27.6845 H   0  0  0  0  0  0  0  0  0  0  0  0
   -0.6575   21.4593  -23.2026 C   0  0  0  0  0  0  0  0  0  0  0  0
   -1.5196   21.3929  -22.1290 C   0  0  0  0  0  0  0  0  0  0  0  0
   -1.0411   21.0732  -20.8583 C   0  0  0  0  0  0  0  0  0  0  0  0
    0.2924   20.8152  -20.6306 C   0  0  0  0  0  0  0  0  0  0  0  0
    1.1597   20.8795  -21.6974 C   0  0  0  0  0  0  0  0  0  0  0  0
    0.6728   21.1987  -22.9579 C   0  0  0  0  0  0  0  0  0  0  0  0
    1.5689   21.2528  -23.9823 F   0  0  0  0  0  0  0  0  0  0  0  0
    2.5232   20.6318  -21.5487 O   0  0  0  0  0  0  0  0  0  0  0  0
    2.9623   19.2943  -21.5851 C   0  0  0  0  0  0  0  0  0  0  0  0
   -4.6206   23.0096  -28.7510 C   0  0  0  0  0  0  0  0  0  0  0  0
   -5.6137   22.7881  -29.5047 O   0  0  0  0  0  0  0  0  0  0  0  0
   -3.3248   22.6999  -29.2274 N   0  0  0  0  0  0  0  0  0  0  0  0
   -3.1968   22.2892  -30.2016 H   0  0  0  0  0  0  0  0  0  0  0  0
   -5.3270   24.5901  -24.8423 C   0  0  0  0  0  0  0  0  0  0  0  0
   -5.8707   23.3834  -25.2644 C   0  0  0  0  0  0  0  0  0  0  0  0
   -5.6500   22.8704  -26.5210 C   0  0  0  0  0  0  0  0  0  0  0  0
   -4.8501   23.5716  -27.4295 C   0  0  0  0  0  0  0  0  0  0  0  0
   -4.2978   24.7694  -27.0413 C   0  0  0  0  0  0  0  0  0  0  0  0
   -4.5487   25.2508  -25.7576 C   0  0  0  0  0  0  0  0  0  0  0  0
   -6.4932   25.1842  -20.8333 N   0  0  0  0  0  0  0  0  0  0  0  0
   -6.9196   26.1155  -21.8487 C   0  0  0  0  0  0  0  0  0  0  0  0
   -6.9475   25.5323  -23.2196 C   0  0  0  0  0  0  0  0  0  0  0  0
   -5.5999   25.0508  -23.5333 N   0  0  0  0  0  0  0  0  0  0  0  0
   -4.6539   25.0923  -22.4487 C   0  0  0  0  0  0  0  0  0  0  0  0
   -5.2344   24.5674  -21.1527 C   0  0  0  0  0  0  0  0  0  0  0  0
   -7.3545   23.6565  -19.1164 C   0  0  0  0  0  0  0  0  0  0  0  0
   -7.5231   24.2469  -20.4709 C   0  0  0  0  0  0  0  0  0  0  0  0
 36 37  1  0  0  0
 37 30  1  0  0  0
 30 31  1  0  0  0
 31 32  1  0  0  0
 32 33  1  0  0  0
 33 34  1  0  0  0
 34 35  1  0  0  0
 33 24  1  0  0  0
 24 25  2  0  0  0
 25 26  1  0  0  0
 26 27  2  0  0  0
 27 28  1  0  0  0
 28 29  2  0  0  0
 27 20  1  0  0  0
 20 21  2  0  0  0
 20 22  1  0  0  0
 22  1  1  0  0  0
  1  2  2  0  0  0
  2  3  1  0  0  0
  3  4  1  0  0  0
  4  5  2  0  0  0
  5  6  1  0  0  0
  6  7  2  0  0  0
  7  8  1  0  0  0
  8  9  2  0  0  0
  6 11  1  0  0  0
 11 12  2  0  0  0
 12 13  1  0  0  0
 13 14  2  0  0  0
 14 15  1  0  0  0
 15 18  1  0  0  0
 18 19  1  0  0  0
 15 16  2  0  0  0
 16 17  1  0  0  0
 35 30  1  0  0  0
 29 24  1  0  0  0
  9  1  1  0  0  0
 16 11  1  0  0  0
  9  4  1  0  0  0
 22 23  1  0  0  0
  3 10  1  0  0  0
M  END
> <minimizedAffinity>
-8.47394

> <CNNscore>
0.5166800022

> <CNNaffinity>
7.2701883316

> <CNN_VS>
3.7563610077

> <CNNaffinity_variance>
0.2956461608

$$$$
[H]c1c([H])c(OC([H])([H])[H])c(F)c(-c2c([H])c([H])c3c(N([H])C(=O)c4c([H])c([H])c(N5C([H])([H])C([H])([H])N(C([H])([H])C([H])([H])[H])C([H])([H])C5([H])[H])c([H])c4[H])nn([H])c3c2[H])c1[H]


 37 41  0  0  0  0  0  0  0  0999 V2000
   -1.2009   22.8014  -27.4053 C   0  0  0  0  0  0  0  0  0  0  0  0
   -0.0187   23.4279  -27.3675 N   0  0  0  0  0  0  0  0  0  0  0  0
    0.5310   23.3335  -26.1718 N   0  0  0  0  0  0  0  0  0  0  0  0
   -0.2645   22.6327  -25.3439 C   0  0  0  0  0  0  0  0  0  0  0  0
   -0.1830   22.2449  -24.0242 C   0  0  0  0  0  0  0  0  0  0  0  0
   -1.1979   21.4995  -23.4219 C   0  0  0  0  0  0  0  0  0  0  0  0
   -2.2995   21.1538  -24.1839 C   0  0  0  0  0  0  0  0  0  0  0  0
   -2.3481   21.5571  -25.4969 C   0  0  0  0  0  0  0  0  0  0  0  0
   -1.3610   22.2915  -26.1118 C   0  0  0  0  0  0  0  0  0  0  0  0
    1.4491   23.7447  -25.9122 H   0  0  0  0  0  0  0  0  0  0  0  0
   -1.0805   21.1087  -22.0233 C   0  0  0  0  0  0  0  0  0  0  0  0
   -0.0751   20.2693  -21.5930 C   0  0  0  0  0  0  0  0  0  0  0  0
    0.0183   19.9115  -20.2481 C   0  0  0  0  0  0  0  0  0  0  0  0
   -0.8776   20.3764  -19.3112 C   0  0  0  0  0  0  0  0  0  0  0  0
   -1.8845   21.2149  -19.7328 C   0  0  0  0  0  0  0  0  0  0  0  0
   -1.9682   21.5647  -21.0739 C   0  0  0  0  0  0  0  0  0  0  0  0
   -2.9826   22.3947  -21.4443 F   0  0  0  0  0  0  0  0  0  0  0  0
   -2.8300   21.7275  -18.8462 O   0  0  0  0  0  0  0  0  0  0  0  0
   -2.4055   22.6832  -17.9032 C   0  0  0  0  0  0  0  0  0  0  0  0
   -3.4880   22.9981  -28.3145 C   0  0  0  0  0  0  0  0  0  0  0  0
   -4.2678   22.8390  -29.2994 O   0  0  0  0  0  0  0  0  0  0  0  0
   -2.1252   22.6482  -28.4646 N   0  0  0  0  0  0  0  0  0  0  0  0
   -1.7714   22.2595  -29.3907 H   0  0  0  0  0  0  0  0  0  0  0  0
   -5.0877   24.4948  -24.6436 C   0  0  0  0  0  0  0  0  0  0  0  0
   -5.4386   23.2513  -25.1539 C   0  0  0  0  0  0  0  0  0  0  0  0
   -4.9302   22.7647  -26.3353 C   0  0  0  0  0  0  0  0  0  0  0  0
   -4.0219   23.5324  -27.0718 C   0  0  0  0  0  0  0  0  0  0  0  0
   -3.6550   24.7679  -26.5929 C   0  0  0  0  0  0  0  0  0  0  0  0
   -4.1958   25.2204  -25.3907 C   0  0  0  0  0  0  0  0  0  0  0  0
   -7.1472   24.9993  -20.9982 N   0  0  0  0  0  0  0  0  0  0  0  0
   -7.3206   25.9621  -22.0579 C   0  0  0  0  0  0  0  0  0  0  0  0
   -7.0339   25.4152  -23.4140 C   0  0  0  0  0  0  0  0  0  0  0  0
   -5.6535   24.9248  -23.4208 N   0  0  0  0  0  0  0  0  0  0  0  0
   -4.9843   24.9258  -22.1459 C   0  0  0  0  0  0  0  0  0  0  0  0
   -5.8526   24.3749  -21.0349 C   0  0  0  0  0  0  0  0  0  0  0  0
   -7.8222   22.6399  -20.9691 C   0  0  0  0  0  0  0  0  0  0  0  0
   -8.2390   24.0662  -20.9106 C   0  0  0  0  0  0  0  0  0  0  0  0
 36 37  1  0  0  0
 37 30  1  0  0  0
 30 31  1  0  0  0
 31 32  1  0  0  0
 32 33  1  0  0  0
 33 34  1  0  0  0
 34 35  1  0  0  0
 33 24  1  0  0  0
 24 25  2  0  0  0
 25 26  1  0  0  0
 26 27  2  0  0  0
 27 28  1  0  0  0
 28 29  2  0  0  0
 27 20  1  0  0  0
 20 21  2  0  0  0
 20 22  1  0  0  0
 22  1  1  0  0  0
  1  2  2  0  0  0
  2  3  1  0  0  0
  3  4  1  0  0  0
  4  5  2  0  0  0
  5  6  1  0  0  0
  6  7  2  0  0  0
  7  8  1  0  0  0
  8  9  2  0  0  0
  6 11  1  0  0  0
 11 12  2  0  0  0
 12 13  1  0  0  0
 13 14  2  0  0  0
 14 15  1  0  0  0
 15 18  1  0  0  0
 18 19  1  0  0  0
 15 16  2  0  0  0
 16 17  1  0  0  0
 35 30  1  0  0  0
 29 24  1  0  0  0
  9  1  1  0  0  0
 16 11  1  0  0  0
  9  4  1  0  0  0
 22 23  1  0  0  0
  3 10  1  0  0  0
M  END
> <minimizedAffinity>
-8.46860

> <CNNscore>
0.4738681614

> <CNNaffinity>
7.0387773514

> <CNN_VS>
3.3354525566

> <CNNaffinity_variance>
0.2294791490

$$$$
[H]c1c([H])c(OC([H])([H])[H])c(F)c(-c2c([H])c([H])c3c(N([H])C(=O)c4c([H])c([H])c(N5C([H])([H])C([H])([H])N(C([H])([H])C([H])([H])[H])C([H])([H])C5([H])[H])c([H])c4[H])nn([H])c3c2[H])c1[H]


 37 41  0  0  0  0  0  0  0  0999 V2000
    0.6121   21.7496  -23.8041 C   0  0  0  0  0  0  0  0  0  0  0  0
   -0.0571   21.9549  -22.6633 N   0  0  0  0  0  0  0  0  0  0  0  0
   -1.2800   22.3893  -22.9015 N   0  0  0  0  0  0  0  0  0  0  0  0
   -1.4898   22.4967  -24.2258 C   0  0  0  0  0  0  0  0  0  0  0  0
   -2.5551   22.8900  -25.0063 C   0  0  0  0  0  0  0  0  0  0  0  0
   -2.4716   22.8966  -26.3997 C   0  0  0  0  0  0  0  0  0  0  0  0
   -1.2855   22.4963  -26.9884 C   0  0  0  0  0  0  0  0  0  0  0  0
   -0.2433   22.1103  -26.1798 C   0  0  0  0  0  0  0  0  0  0  0  0
   -0.3020   22.0954  -24.8058 C   0  0  0  0  0  0  0  0  0  0  0  0
   -1.9778   22.6149  -22.1658 H   0  0  0  0  0  0  0  0  0  0  0  0
   -3.6166   23.3211  -27.1944 C   0  0  0  0  0  0  0  0  0  0  0  0
   -4.9076   23.1616  -26.7382 C   0  0  0  0  0  0  0  0  0  0  0  0
   -5.9877   23.5785  -27.5162 C   0  0  0  0  0  0  0  0  0  0  0  0
   -5.8085   24.1575  -28.7527 C   0  0  0  0  0  0  0  0  0  0  0  0
   -4.5224   24.3203  -29.2155 C   0  0  0  0  0  0  0  0  0  0  0  0
   -3.4546   23.9017  -28.4329 C   0  0  0  0  0  0  0  0  0  0  0  0
   -2.2006   24.0812  -28.9336 F   0  0  0  0  0  0  0  0  0  0  0  0
   -4.2582   24.8976  -30.4563 O   0  0  0  0  0  0  0  0  0  0  0  0
   -5.3306   25.4799  -31.1590 C   0  0  0  0  0  0  0  0  0  0  0  0
    2.6811   20.6696  -22.9983 C   0  0  0  0  0  0  0  0  0  0  0  0
    3.8582   20.2805  -23.2562 O   0  0  0  0  0  0  0  0  0  0  0  0
    1.9322   21.2924  -24.0246 N   0  0  0  0  0  0  0  0  0  0  0  0
    2.3579   21.4271  -24.9913 H   0  0  0  0  0  0  0  0  0  0  0  0
    1.0883   19.9833  -19.0910 C   0  0  0  0  0  0  0  0  0  0  0  0
    0.8324   19.1304  -20.1572 C   0  0  0  0  0  0  0  0  0  0  0  0
    1.3390   19.3465  -21.4173 C   0  0  0  0  0  0  0  0  0  0  0  0
    2.1470   20.4619  -21.6617 C   0  0  0  0  0  0  0  0  0  0  0  0
    2.4185   21.3251  -20.6265 C   0  0  0  0  0  0  0  0  0  0  0  0
    1.8833   21.0662  -19.3659 C   0  0  0  0  0  0  0  0  0  0  0  0
   -1.1708   19.6935  -15.5417 N   0  0  0  0  0  0  0  0  0  0  0  0
    0.2377   19.9959  -15.4715 C   0  0  0  0  0  0  0  0  0  0  0  0
    0.7776   20.6162  -16.7141 C   0  0  0  0  0  0  0  0  0  0  0  0
    0.5312   19.6924  -17.8240 N   0  0  0  0  0  0  0  0  0  0  0  0
   -0.2785   18.5435  -17.5120 C   0  0  0  0  0  0  0  0  0  0  0  0
   -1.5016   18.9009  -16.6947 C   0  0  0  0  0  0  0  0  0  0  0  0
   -1.7218   21.6331  -14.1426 C   0  0  0  0  0  0  0  0  0  0  0  0
   -1.9984   20.8596  -15.3823 C   0  0  0  0  0  0  0  0  0  0  0  0
 36 37  1  0  0  0
 37 30  1  0  0  0
 30 31  1  0  0  0
 31 32  1  0  0  0
 32 33  1  0  0  0
 33 34  1  0  0  0
 34 35  1  0  0  0
 33 24  1  0  0  0
 24 25  2  0  0  0
 25 26  1  0  0  0
 26 27  2  0  0  0
 27 28  1  0  0  0
 28 29  2  0  0  0
 27 20  1  0  0  0
 20 21  2  0  0  0
 20 22  1  0  0  0
 22  1  1  0  0  0
  1  2  2  0  0  0
  2  3  1  0  0  0
  3  4  1  0  0  0
  4  5  2  0  0  0
  5  6  1  0  0  0
  6  7  2  0  0  0
  7  8  1  0  0  0
  8  9  2  0  0  0
  6 11  1  0  0  0
 11 12  2  0  0  0
 12 13  1  0  0  0
 13 14  2  0  0  0
 14 15  1  0  0  0
 15 18  1  0  0  0
 18 19  1  0  0  0
 15 16  2  0  0  0
 16 17  1  0  0  0
 35 30  1  0  0  0
 29 24  1  0  0  0
  9  1  1  0  0  0
 16 11  1  0  0  0
  9  4  1  0  0  0
 22 23  1  0  0  0
  3 10  1  0  0  0
M  END
> <minimizedAffinity>
-8.26261

> <CNNscore>
0.2690497637

> <CNNaffinity>
6.3677611351

> <CNN_VS>
1.7132446766

> <CNNaffinity_variance>
0.0300435685

$$$$
[H]c1c([H])c(OC([H])([H])[H])c(F)c(-c2c([H])c([H])c3c(N([H])C(=O)c4c([H])c([H])c(N5C([H])([H])C([H])([H])N(C([H])([H])C([H])([H])[H])C([H])([H])C5([H])[H])c([H])c4[H])nn([H])c3c2[H])c1[H]


 37 41  0  0  0  0  0  0  0  0999 V2000
   -3.9383   23.8171  -22.3002 C   0  0  0  0  0  0  0  0  0  0  0  0
   -3.7754   25.1375  -22.1537 N   0  0  0  0  0  0  0  0  0  0  0  0
   -3.9512   25.7679  -23.2995 N   0  0  0  0  0  0  0  0  0  0  0  0
   -4.2428   24.8911  -24.2771 C   0  0  0  0  0  0  0  0  0  0  0  0
   -4.5125   25.0004  -25.6239 C   0  0  0  0  0  0  0  0  0  0  0  0
   -4.7875   23.8757  -26.4035 C   0  0  0  0  0  0  0  0  0  0  0  0
   -4.7840   22.6353  -25.7911 C   0  0  0  0  0  0  0  0  0  0  0  0
   -4.5110   22.5628  -24.4460 C   0  0  0  0  0  0  0  0  0  0  0  0
   -4.2374   23.6562  -23.6578 C   0  0  0  0  0  0  0  0  0  0  0  0
   -3.8739   26.7964  -23.4230 H   0  0  0  0  0  0  0  0  0  0  0  0
   -5.0657   24.0274  -27.8256 C   0  0  0  0  0  0  0  0  0  0  0  0
   -5.0142   22.9525  -28.6872 C   0  0  0  0  0  0  0  0  0  0  0  0
   -5.2873   23.1222  -30.0445 C   0  0  0  0  0  0  0  0  0  0  0  0
   -5.6144   24.3529  -30.5688 C   0  0  0  0  0  0  0  0  0  0  0  0
   -5.6679   25.4313  -29.7151 C   0  0  0  0  0  0  0  0  0  0  0  0
   -5.3942   25.2511  -28.3659 C   0  0  0  0  0  0  0  0  0  0  0  0
   -5.4572   26.3477  -27.5603 F   0  0  0  0  0  0  0  0  0  0  0  0
   -5.9914   26.7090  -30.1686 O   0  0  0  0  0  0  0  0  0  0  0  0
   -5.8082   26.9939  -31.5354 C   0  0  0  0  0  0  0  0  0  0  0  0
   -4.9138   22.4707  -20.4748 C   0  0  0  0  0  0  0  0  0  0  0  0
   -4.7726   21.5209  -19.6494 O   0  0  0  0  0  0  0  0  0  0  0  0
   -3.8462   22.7702  -21.3537 N   0  0  0  0  0  0  0  0  0  0  0  0
   -2.9458   22.2031  -21.3148 H   0  0  0  0  0  0  0  0  0  0  0  0
   -8.5527   24.7143  -20.4652 C   0  0  0  0  0  0  0  0  0  0  0  0
   -7.4880   25.0232  -19.6279 C   0  0  0  0  0  0  0  0  0  0  0  0
   -6.3158   24.3042  -19.6236 C   0  0  0  0  0  0  0  0  0  0  0  0
   -6.1637   23.2141  -20.4869 C   0  0  0  0  0  0  0  0  0  0  0  0
   -7.1999   22.8832  -21.3279 C   0  0  0  0  0  0  0  0  0  0  0  0
   -8.3697   23.6403  -21.2977 C   0  0  0  0  0  0  0  0  0  0  0  0
  -12.1005   26.8901  -21.1465 N   0  0  0  0  0  0  0  0  0  0  0  0
  -10.9666   27.5414  -20.5381 C   0  0  0  0  0  0  0  0  0  0  0  0
   -9.6632   26.8954  -20.8608 C   0  0  0  0  0  0  0  0  0  0  0  0
   -9.7257   25.5026  -20.4110 N   0  0  0  0  0  0  0  0  0  0  0  0
  -11.0118   25.0545  -19.9440 C   0  0  0  0  0  0  0  0  0  0  0  0
  -12.1413   25.4825  -20.8565 C   0  0  0  0  0  0  0  0  0  0  0  0
  -12.3115   26.0009  -23.4242 C   0  0  0  0  0  0  0  0  0  0  0  0
  -12.2339   27.1983  -22.5456 C   0  0  0  0  0  0  0  0  0  0  0  0
 36 37  1  0  0  0
 37 30  1  0  0  0
 30 31  1  0  0  0
 31 32  1  0  0  0
 32 33  1  0  0  0
 33 34  1  0  0  0
 34 35  1  0  0  0
 33 24  1  0  0  0
 24 25  2  0  0  0
 25 26  1  0  0  0
 26 27  2  0  0  0
 27 28  1  0  0  0
 28 29  2  0  0  0
 27 20  1  0  0  0
 20 21  2  0  0  0
 20 22  1  0  0  0
 22  1  1  0  0  0
  1  2  2  0  0  0
  2  3  1  0  0  0
  3  4  1  0  0  0
  4  5  2  0  0  0
  5  6  1  0  0  0
  6  7  2  0  0  0
  7  8  1  0  0  0
  8  9  2  0  0  0
  6 11  1  0  0  0
 11 12  2  0  0  0
 12 13  1  0  0  0
 13 14  2  0  0  0
 14 15  1  0  0  0
 15 18  1  0  0  0
 18 19  1  0  0  0
 15 16  2  0  0  0
 16 17  1  0  0  0
 35 30  1  0  0  0
 29 24  1  0  0  0
  9  1  1  0  0  0
 16 11  1  0  0  0
  9  4  1  0  0  0
 22 23  1  0  0  0
  3 10  1  0  0  0
M  END
> <minimizedAffinity>
-9.37299

> <CNNscore>
0.1298381090

> <CNNaffinity>
6.2661514282

> <CNN_VS>
0.8135852814

> <CNNaffinity_variance>
0.3276062608

$$$$
[H]c1c([H])c(OC([H])([H])[H])c(F)c(-c2c([H])c([H])c3c(N([H])C(=O)c4c([H])c([H])c(N5C([H])([H])C([H])([H])N(C([H])([H])C([H])([H])[H])C([H])([H])C5([H])[H])c([H])c4[H])nn([H])c3c2[H])c1[H]


 37 41  0  0  0  0  0  0  0  0999 V2000
    1.6598   21.0158  -22.5460 C   0  0  0  0  0  0  0  0  0  0  0  0
    0.9868   21.0067  -21.3892 N   0  0  0  0  0  0  0  0  0  0  0  0
   -0.2497   21.4362  -21.5554 N   0  0  0  0  0  0  0  0  0  0  0  0
   -0.4655   21.7565  -22.8440 C   0  0  0  0  0  0  0  0  0  0  0  0
   -1.5441   22.2409  -23.5514 C   0  0  0  0  0  0  0  0  0  0  0  0
   -1.4638   22.4826  -24.9238 C   0  0  0  0  0  0  0  0  0  0  0  0
   -0.2668   22.2237  -25.5672 C   0  0  0  0  0  0  0  0  0  0  0  0
    0.7886   21.7410  -24.8310 C   0  0  0  0  0  0  0  0  0  0  0  0
    0.7333   21.4951  -23.4789 C   0  0  0  0  0  0  0  0  0  0  0  0
   -0.9528   21.5138  -20.7947 H   0  0  0  0  0  0  0  0  0  0  0  0
   -2.6231   22.9978  -25.6402 C   0  0  0  0  0  0  0  0  0  0  0  0
   -3.5635   23.7871  -25.0134 C   0  0  0  0  0  0  0  0  0  0  0  0
   -4.6639   24.2708  -25.7213 C   0  0  0  0  0  0  0  0  0  0  0  0
   -4.8505   23.9826  -27.0549 C   0  0  0  0  0  0  0  0  0  0  0  0
   -3.9159   23.1950  -27.6881 C   0  0  0  0  0  0  0  0  0  0  0  0
   -2.8245   22.7188  -26.9740 C   0  0  0  0  0  0  0  0  0  0  0  0
   -1.9275   21.9414  -27.6421 F   0  0  0  0  0  0  0  0  0  0  0  0
   -4.0336   22.8587  -29.0356 O   0  0  0  0  0  0  0  0  0  0  0  0
   -5.3100   22.9246  -29.6267 C   0  0  0  0  0  0  0  0  0  0  0  0
    3.6229   19.5670  -22.1671 C   0  0  0  0  0  0  0  0  0  0  0  0
    4.8186   19.2804  -22.4699 O   0  0  0  0  0  0  0  0  0  0  0  0
    2.9932   20.6435  -22.8354 N   0  0  0  0  0  0  0  0  0  0  0  0
    3.5217   21.1959  -23.5766 H   0  0  0  0  0  0  0  0  0  0  0  0
    1.6189   17.1986  -19.2260 C   0  0  0  0  0  0  0  0  0  0  0  0
    1.5544   16.9079  -20.5830 C   0  0  0  0  0  0  0  0  0  0  0  0
    2.1941   17.6669  -21.5347 C   0  0  0  0  0  0  0  0  0  0  0  0
    2.9461   18.7811  -21.1477 C   0  0  0  0  0  0  0  0  0  0  0  0
    3.0291   19.0949  -19.8116 C   0  0  0  0  0  0  0  0  0  0  0  0
    2.3641   18.2971  -18.8821 C   0  0  0  0  0  0  0  0  0  0  0  0
   -0.6844   14.3068  -17.1969 N   0  0  0  0  0  0  0  0  0  0  0  0
   -0.9329   15.7091  -16.9690 C   0  0  0  0  0  0  0  0  0  0  0  0
   -0.5000   16.5828  -18.0958 C   0  0  0  0  0  0  0  0  0  0  0  0
    0.9336   16.3690  -18.3082 N   0  0  0  0  0  0  0  0  0  0  0  0
    1.5263   15.3041  -17.5417 C   0  0  0  0  0  0  0  0  0  0  0  0
    0.6846   14.0458  -17.5501 C   0  0  0  0  0  0  0  0  0  0  0  0
   -1.0263   13.0550  -19.2800 C   0  0  0  0  0  0  0  0  0  0  0  0
   -1.6386   13.7118  -18.0945 C   0  0  0  0  0  0  0  0  0  0  0  0
 36 37  1  0  0  0
 37 30  1  0  0  0
 30 31  1  0  0  0
 31 32  1  0  0  0
 32 33  1  0  0  0
 33 34  1  0  0  0
 34 35  1  0  0  0
 33 24  1  0  0  0
 24 25  2  0  0  0
 25 26  1  0  0  0
 26 27  2  0  0  0
 27 28  1  0  0  0
 28 29  2  0  0  0
 27 20  1  0  0  0
 20 21  2  0  0  0
 20 22  1  0  0  0
 22  1  1  0  0  0
  1  2  2  0  0  0
  2  3  1  0  0  0
  3  4  1  0  0  0
  4  5  2  0  0  0
  5  6  1  0  0  0
  6  7  2  0  0  0
  7  8  1  0  0  0
  8  9  2  0  0  0
  6 11  1  0  0  0
 11 12  2  0  0  0
 12 13  1  0  0  0
 13 14  2  0  0  0
 14 15  1  0  0  0
 15 18  1  0  0  0
 18 19  1  0  0  0
 15 16  2  0  0  0
 16 17  1  0  0  0
 35 30  1  0  0  0
 29 24  1  0  0  0
  9  1  1  0  0  0
 16 11  1  0  0  0
  9  4  1  0  0  0
 22 23  1  0  0  0
  3 10  1  0  0  0
M  END
> <minimizedAffinity>
-7.87771

> <CNNscore>
0.1066363156

> <CNNaffinity>
5.6551909447

> <CNN_VS>
0.6030487418

> <CNNaffinity_variance>
0.0990865305

$$$$
[H]c1c([H])c(OC([H])([H])[H])c(F)c(-c2c([H])c([H])c3c(N([H])C(=O)c4c([H])c([H])c(N5C([H])([H])C([H])([H])N(C([H])([H])C([H])([H])[H])C([H])([H])C5([H])[H])c([H])c4[H])nn([H])c3c2[H])c1[H]


 37 41  0  0  0  0  0  0  0  0999 V2000
   -4.2366   24.1108  -25.6105 C   0  0  0  0  0  0  0  0  0  0  0  0
   -3.8976   25.2450  -24.9859 N   0  0  0  0  0  0  0  0  0  0  0  0
   -4.3840   25.2758  -23.7597 N   0  0  0  0  0  0  0  0  0  0  0  0
   -5.0786   24.1529  -23.5025 C   0  0  0  0  0  0  0  0  0  0  0  0
   -5.7753   23.6761  -22.4136 C   0  0  0  0  0  0  0  0  0  0  0  0
   -6.4134   22.4350  -22.4458 C   0  0  0  0  0  0  0  0  0  0  0  0
   -6.3320   21.6847  -23.6051 C   0  0  0  0  0  0  0  0  0  0  0  0
   -5.6289   22.1907  -24.6722 C   0  0  0  0  0  0  0  0  0  0  0  0
   -4.9924   23.4099  -24.6639 C   0  0  0  0  0  0  0  0  0  0  0  0
   -4.2466   26.0595  -23.0918 H   0  0  0  0  0  0  0  0  0  0  0  0
   -7.1438   21.9627  -21.2770 C   0  0  0  0  0  0  0  0  0  0  0  0
   -8.4948   22.1952  -21.1308 C   0  0  0  0  0  0  0  0  0  0  0  0
   -9.1730   21.7305  -20.0040 C   0  0  0  0  0  0  0  0  0  0  0  0
   -8.5282   21.0314  -19.0080 C   0  0  0  0  0  0  0  0  0  0  0  0
   -7.1793   20.7952  -19.1464 C   0  0  0  0  0  0  0  0  0  0  0  0
   -6.5140   21.2622  -20.2721 C   0  0  0  0  0  0  0  0  0  0  0  0
   -5.1793   21.0066  -20.3640 F   0  0  0  0  0  0  0  0  0  0  0  0
   -6.4556   20.0955  -18.1824 O   0  0  0  0  0  0  0  0  0  0  0  0
   -6.3509   20.6561  -16.8949 C   0  0  0  0  0  0  0  0  0  0  0  0
   -2.8006   22.8597  -27.1818 C   0  0  0  0  0  0  0  0  0  0  0  0
   -2.5866   22.4837  -28.3719 O   0  0  0  0  0  0  0  0  0  0  0  0
   -3.9385   23.6577  -26.9166 N   0  0  0  0  0  0  0  0  0  0  0  0
   -4.5962   23.9317  -27.7081 H   0  0  0  0  0  0  0  0  0  0  0  0
   -0.0122   21.7278  -24.1456 C   0  0  0  0  0  0  0  0  0  0  0  0
    0.3722   22.4261  -25.2834 C   0  0  0  0  0  0  0  0  0  0  0  0
   -0.5187   22.7909  -26.2653 C   0  0  0  0  0  0  0  0  0  0  0  0
   -1.8713   22.4581  -26.1377 C   0  0  0  0  0  0  0  0  0  0  0  0
   -2.2829   21.7669  -25.0227 C   0  0  0  0  0  0  0  0  0  0  0  0
   -1.3446   21.4179  -24.0530 C   0  0  0  0  0  0  0  0  0  0  0  0
    2.6354   19.9105  -21.4119 N   0  0  0  0  0  0  0  0  0  0  0  0
    1.7550   20.9619  -20.9652 C   0  0  0  0  0  0  0  0  0  0  0  0
    0.5346   21.1160  -21.8060 C   0  0  0  0  0  0  0  0  0  0  0  0
    0.9640   21.3893  -23.1798 N   0  0  0  0  0  0  0  0  0  0  0  0
    2.3789   21.2836  -23.4243 C   0  0  0  0  0  0  0  0  0  0  0  0
    2.9840   20.0441  -22.8003 C   0  0  0  0  0  0  0  0  0  0  0  0
    2.9930   17.4891  -21.5914 C   0  0  0  0  0  0  0  0  0  0  0  0
    2.1607   18.5995  -21.0566 C   0  0  0  0  0  0  0  0  0  0  0  0
 36 37  1  0  0  0
 37 30  1  0  0  0
 30 31  1  0  0  0
 31 32  1  0  0  0
 32 33  1  0  0  0
 33 34  1  0  0  0
 34 35  1  0  0  0
 33 24  1  0  0  0
 24 25  2  0  0  0
 25 26  1  0  0  0
 26 27  2  0  0  0
 27 28  1  0  0  0
 28 29  2  0  0  0
 27 20  1  0  0  0
 20 21  2  0  0  0
 20 22  1  0  0  0
 22  1  1  0  0  0
  1  2  2  0  0  0
  2  3  1  0  0  0
  3  4  1  0  0  0
  4  5  2  0  0  0
  5  6  1  0  0  0
  6  7  2  0  0  0
  7  8  1  0  0  0
  8  9  2  0  0  0
  6 11  1  0  0  0
 11 12  2  0  0  0
 12 13  1  0  0  0
 13 14  2  0  0  0
 14 15  1  0  0  0
 15 18  1  0  0  0
 18 19  1  0  0  0
 15 16  2  0  0  0
 16 17  1  0  0  0
 35 30  1  0  0  0
 29 24  1  0  0  0
  9  1  1  0  0  0
 16 11  1  0  0  0
  9  4  1  0  0  0
 22 23  1  0  0  0
  3 10  1  0  0  0
M  END
> <minimizedAffinity>
-8.59700

> <CNNscore>
0.0924146771

> <CNNaffinity>
6.1477675438

> <CNN_VS>
0.5681439638

> <CNNaffinity_variance>
0.1750736535

$$$$
[H]c1c([H])c(OC([H])([H])[H])c(F)c(-c2c([H])c([H])c3c(N([H])C(=O)c4c([H])c([H])c(N5C([H])([H])C([H])([H])N(C([H])([H])C([H])([H])[H])C([H])([H])C5([H])[H])c([H])c4[H])nn([H])c3c2[H])c1[H]


 37 41  0  0  0  0  0  0  0  0999 V2000
   -5.2236   22.9929  -19.0102 C   0  0  0  0  0  0  0  0  0  0  0  0
   -4.8275   21.7145  -19.0291 N   0  0  0  0  0  0  0  0  0  0  0  0
   -4.7127   21.2710  -20.2665 N   0  0  0  0  0  0  0  0  0  0  0  0
   -5.0296   22.2405  -21.1434 C   0  0  0  0  0  0  0  0  0  0  0  0
   -5.0802   22.3210  -22.5180 C   0  0  0  0  0  0  0  0  0  0  0  0
   -5.4578   23.4996  -23.1636 C   0  0  0  0  0  0  0  0  0  0  0  0
   -5.7842   24.5976  -22.3879 C   0  0  0  0  0  0  0  0  0  0  0  0
   -5.7229   24.4822  -21.0197 C   0  0  0  0  0  0  0  0  0  0  0  0
   -5.3538   23.3323  -20.3616 C   0  0  0  0  0  0  0  0  0  0  0  0
   -4.4187   20.3078  -20.5213 H   0  0  0  0  0  0  0  0  0  0  0  0
   -5.5031   23.5488  -24.6190 C   0  0  0  0  0  0  0  0  0  0  0  0
   -6.6962   23.4667  -25.3046 C   0  0  0  0  0  0  0  0  0  0  0  0
   -6.7143   23.5189  -26.6984 C   0  0  0  0  0  0  0  0  0  0  0  0
   -5.5571   23.6525  -27.4330 C   0  0  0  0  0  0  0  0  0  0  0  0
   -4.3616   23.7350  -26.7558 C   0  0  0  0  0  0  0  0  0  0  0  0
   -4.3551   23.6820  -25.3684 C   0  0  0  0  0  0  0  0  0  0  0  0
   -3.1482   23.7651  -24.7424 F   0  0  0  0  0  0  0  0  0  0  0  0
   -3.1477   23.8714  -27.4271 O   0  0  0  0  0  0  0  0  0  0  0  0
   -2.5475   22.7120  -27.9547 C   0  0  0  0  0  0  0  0  0  0  0  0
   -6.4394   23.5535  -16.9357 C   0  0  0  0  0  0  0  0  0  0  0  0
   -6.6169   24.3698  -15.9839 O   0  0  0  0  0  0  0  0  0  0  0  0
   -5.4723   23.8608  -17.9217 N   0  0  0  0  0  0  0  0  0  0  0  0
   -4.9096   24.7626  -17.8567 H   0  0  0  0  0  0  0  0  0  0  0  0
   -8.7406   19.9512  -16.9895 C   0  0  0  0  0  0  0  0  0  0  0  0
   -7.6688   20.1345  -16.1249 C   0  0  0  0  0  0  0  0  0  0  0  0
   -6.9225   21.2893  -16.1040 C   0  0  0  0  0  0  0  0  0  0  0  0
   -7.2341   22.3363  -16.9778 C   0  0  0  0  0  0  0  0  0  0  0  0
   -8.2895   22.1851  -17.8460 C   0  0  0  0  0  0  0  0  0  0  0  0
   -9.0180   20.9969  -17.8319 C   0  0  0  0  0  0  0  0  0  0  0  0
  -10.5097   16.2273  -16.1020 N   0  0  0  0  0  0  0  0  0  0  0  0
   -9.7721   16.3953  -17.3300 C   0  0  0  0  0  0  0  0  0  0  0  0
   -8.7611   17.4884  -17.2741 C   0  0  0  0  0  0  0  0  0  0  0  0
   -9.4602   18.7343  -16.9500 N   0  0  0  0  0  0  0  0  0  0  0  0
  -10.8530   18.5987  -16.6113 C   0  0  0  0  0  0  0  0  0  0  0  0
  -11.1078   17.4550  -15.6527 C   0  0  0  0  0  0  0  0  0  0  0  0
  -10.5751   15.0248  -13.9635 C   0  0  0  0  0  0  0  0  0  0  0  0
   -9.7513   15.5458  -15.0867 C   0  0  0  0  0  0  0  0  0  0  0  0
 36 37  1  0  0  0
 37 30  1  0  0  0
 30 31  1  0  0  0
 31 32  1  0  0  0
 32 33  1  0  0  0
 33 34  1  0  0  0
 34 35  1  0  0  0
 33 24  1  0  0  0
 24 25  2  0  0  0
 25 26  1  0  0  0
 26 27  2  0  0  0
 27 28  1  0  0  0
 28 29  2  0  0  0
 27 20  1  0  0  0
 20 21  2  0  0  0
 20 22  1  0  0  0
 22  1  1  0  0  0
  1  2  2  0  0  0
  2  3  1  0  0  0
  3  4  1  0  0  0
  4  5  2  0  0  0
  5  6  1  0  0  0
  6  7  2  0  0  0
  7  8  1  0  0  0
  8  9  2  0  0  0
  6 11  1  0  0  0
 11 12  2  0  0  0
 12 13  1  0  0  0
 13 14  2  0  0  0
 14 15  1  0  0  0
 15 18  1  0  0  0
 18 19  1  0  0  0
 15 16  2  0  0  0
 16 17  1  0  0  0
 35 30  1  0  0  0
 29 24  1  0  0  0
  9  1  1  0  0  0
 16 11  1  0  0  0
  9  4  1  0  0  0
 22 23  1  0  0  0
  3 10  1  0  0  0
M  END
> <minimizedAffinity>
-6.69573

> <CNNscore>
0.0896167085

> <CNNaffinity>
5.6126756668

> <CNN_VS>
0.5029895306

> <CNNaffinity_variance>
0.1426594704

$$$$
[H]c1c([H])c(OC([H])([H])[H])c(F)c(-c2c([H])c([H])c3c(N([H])C(=O)c4c([H])c([H])c(N5C([H])([H])C([H])([H])N(C([H])([H])C([H])([H])[H])C([H])([H])C5([H])[H])c([H])c4[H])nn([H])c3c2[H])c1[H]


 37 41  0  0  0  0  0  0  0  0999 V2000
   -1.9382   21.9300  -24.4550 C   0  0  0  0  0  0  0  0  0  0  0  0
   -2.7688   21.5507  -23.4764 N   0  0  0  0  0  0  0  0  0  0  0  0
   -2.0994   21.0873  -22.4380 N   0  0  0  0  0  0  0  0  0  0  0  0
   -0.7760   21.1345  -22.6743 C   0  0  0  0  0  0  0  0  0  0  0  0
    0.3467   20.7872  -21.9549 C   0  0  0  0  0  0  0  0  0  0  0  0
    1.6284   20.9578  -22.4809 C   0  0  0  0  0  0  0  0  0  0  0  0
    1.7510   21.4882  -23.7526 C   0  0  0  0  0  0  0  0  0  0  0  0
    0.6102   21.8236  -24.4420 C   0  0  0  0  0  0  0  0  0  0  0  0
   -0.6623   21.6648  -23.9448 C   0  0  0  0  0  0  0  0  0  0  0  0
   -2.5382   20.7367  -21.5641 H   0  0  0  0  0  0  0  0  0  0  0  0
    2.7937   20.5772  -21.6937 C   0  0  0  0  0  0  0  0  0  0  0  0
    3.6391   19.5678  -22.1022 C   0  0  0  0  0  0  0  0  0  0  0  0
    4.7503   19.2232  -21.3327 C   0  0  0  0  0  0  0  0  0  0  0  0
    5.0416   19.8690  -20.1517 C   0  0  0  0  0  0  0  0  0  0  0  0
    4.2023   20.8780  -19.7368 C   0  0  0  0  0  0  0  0  0  0  0  0
    3.0991   21.2128  -20.5105 C   0  0  0  0  0  0  0  0  0  0  0  0
    2.2961   22.2159  -20.0584 F   0  0  0  0  0  0  0  0  0  0  0  0
    4.4290   21.5791  -18.5537 O   0  0  0  0  0  0  0  0  0  0  0  0
    5.2955   22.6882  -18.5955 C   0  0  0  0  0  0  0  0  0  0  0  0
   -3.2892   23.3706  -25.9368 C   0  0  0  0  0  0  0  0  0  0  0  0
   -3.4831   23.8290  -27.1012 O   0  0  0  0  0  0  0  0  0  0  0  0
   -2.2112   22.4778  -25.7299 N   0  0  0  0  0  0  0  0  0  0  0  0
   -1.5809   22.2024  -26.5429 H   0  0  0  0  0  0  0  0  0  0  0  0
   -5.9528   24.5048  -22.7913 C   0  0  0  0  0  0  0  0  0  0  0  0
   -6.2807   23.5316  -23.7269 C   0  0  0  0  0  0  0  0  0  0  0  0
   -5.4301   23.1638  -24.7429 C   0  0  0  0  0  0  0  0  0  0  0  0
   -4.1791   23.7785  -24.8613 C   0  0  0  0  0  0  0  0  0  0  0  0
   -3.8255   24.7459  -23.9505 C   0  0  0  0  0  0  0  0  0  0  0  0
   -4.7197   25.0866  -22.9372 C   0  0  0  0  0  0  0  0  0  0  0  0
   -8.7921   24.6109  -19.6749 N   0  0  0  0  0  0  0  0  0  0  0  0
   -9.0572   25.3081  -20.9094 C   0  0  0  0  0  0  0  0  0  0  0  0
   -8.3135   24.7576  -22.0773 C   0  0  0  0  0  0  0  0  0  0  0  0
   -6.8818   24.8272  -21.7749 N   0  0  0  0  0  0  0  0  0  0  0  0
   -6.5459   25.2276  -20.4333 C   0  0  0  0  0  0  0  0  0  0  0  0
   -7.3857   24.5216  -19.3901 C   0  0  0  0  0  0  0  0  0  0  0  0
  -10.9649   23.4733  -19.5849 C   0  0  0  0  0  0  0  0  0  0  0  0
   -9.4827   23.3516  -19.5883 C   0  0  0  0  0  0  0  0  0  0  0  0
 36 37  1  0  0  0
 37 30  1  0  0  0
 30 31  1  0  0  0
 31 32  1  0  0  0
 32 33  1  0  0  0
 33 34  1  0  0  0
 34 35  1  0  0  0
 33 24  1  0  0  0
 24 25  2  0  0  0
 25 26  1  0  0  0
 26 27  2  0  0  0
 27 28  1  0  0  0
 28 29  2  0  0  0
 27 20  1  0  0  0
 20 21  2  0  0  0
 20 22  1  0  0  0
 22  1  1  0  0  0
  1  2  2  0  0  0
  2  3  1  0  0  0
  3  4  1  0  0  0
  4  5  2  0  0  0
  5  6  1  0  0  0
  6  7  2  0  0  0
  7  8  1  0  0  0
  8  9  2  0  0  0
  6 11  1  0  0  0
 11 12  2  0  0  0
 12 13  1  0  0  0
 13 14  2  0  0  0
 14 15  1  0  0  0
 15 18  1  0  0  0
 18 19  1  0  0  0
 15 16  2  0  0  0
 16 17  1  0  0  0
 35 30  1  0  0  0
 29 24  1  0  0  0
  9  1  1  0  0  0
 16 11  1  0  0  0
  9  4  1  0  0  0
 22 23  1  0  0  0
  3 10  1  0  0  0
M  END
> <minimizedAffinity>
-8.31399

> <CNNscore>
0.0839646757

> <CNNaffinity>
5.9946646690

> <CNN_VS>
0.5033400655

> <CNNaffinity_variance>
0.0343764387

$$$$
[H]c1c([H])c(OC([H])([H])[H])c(F)c(-c2c([H])c([H])c3c(N([H])C(=O)c4c([H])c([H])c(N5C([H])([H])C([H])([H])N(C([H])([H])C([H])([H])[H])C([H])([H])C5([H])[H])c([H])c4[H])nn([H])c3c2[H])c1[H]


 37 41  0  0  0  0  0  0  0  0999 V2000
   -3.9132   22.4692  -25.9529 C   0  0  0  0  0  0  0  0  0  0  0  0
   -4.7169   21.8367  -25.0895 N   0  0  0  0  0  0  0  0  0  0  0  0
   -4.0272   21.3156  -24.0927 N   0  0  0  0  0  0  0  0  0  0  0  0
   -2.7161   21.5768  -24.2426 C   0  0  0  0  0  0  0  0  0  0  0  0
   -1.5828   21.2792  -23.5177 C   0  0  0  0  0  0  0  0  0  0  0  0
   -0.3199   21.6997  -23.9382 C   0  0  0  0  0  0  0  0  0  0  0  0
   -0.2272   22.4290  -25.1101 C   0  0  0  0  0  0  0  0  0  0  0  0
   -1.3778   22.7079  -25.8081 C   0  0  0  0  0  0  0  0  0  0  0  0
   -2.6322   22.3046  -25.4138 C   0  0  0  0  0  0  0  0  0  0  0  0
   -4.4435   20.7800  -23.3059 H   0  0  0  0  0  0  0  0  0  0  0  0
    0.8579   21.3650  -23.1487 C   0  0  0  0  0  0  0  0  0  0  0  0
    2.0793   21.1304  -23.7431 C   0  0  0  0  0  0  0  0  0  0  0  0
    3.1935   20.8142  -22.9657 C   0  0  0  0  0  0  0  0  0  0  0  0
    3.1173   20.7255  -21.5936 C   0  0  0  0  0  0  0  0  0  0  0  0
    1.9012   20.9583  -20.9923 C   0  0  0  0  0  0  0  0  0  0  0  0
    0.7987   21.2723  -21.7757 C   0  0  0  0  0  0  0  0  0  0  0  0
   -0.3839   21.4919  -21.1365 F   0  0  0  0  0  0  0  0  0  0  0  0
    1.7425   20.8878  -19.6094 O   0  0  0  0  0  0  0  0  0  0  0  0
    2.4977   21.7667  -18.8093 C   0  0  0  0  0  0  0  0  0  0  0  0
   -5.1654   24.2096  -27.1774 C   0  0  0  0  0  0  0  0  0  0  0  0
   -5.3918   24.7938  -28.2778 O   0  0  0  0  0  0  0  0  0  0  0  0
   -4.2141   23.1626  -27.1482 N   0  0  0  0  0  0  0  0  0  0  0  0
   -3.7037   22.8783  -28.0385 H   0  0  0  0  0  0  0  0  0  0  0  0
   -7.3554   25.4128  -23.7088 C   0  0  0  0  0  0  0  0  0  0  0  0
   -7.9313   24.6642  -24.7276 C   0  0  0  0  0  0  0  0  0  0  0  0
   -7.2337   24.2761  -25.8473 C   0  0  0  0  0  0  0  0  0  0  0  0
   -5.8897   24.6362  -25.9907 C   0  0  0  0  0  0  0  0  0  0  0  0
   -5.2912   25.3773  -24.9992 C   0  0  0  0  0  0  0  0  0  0  0  0
   -6.0372   25.7483  -23.8819 C   0  0  0  0  0  0  0  0  0  0  0  0
   -9.7689   25.6337  -20.2575 N   0  0  0  0  0  0  0  0  0  0  0  0
  -10.1742   26.3191  -21.4600 C   0  0  0  0  0  0  0  0  0  0  0  0
   -9.5989   25.7337  -22.7036 C   0  0  0  0  0  0  0  0  0  0  0  0
   -8.1390   25.7725  -22.5877 N   0  0  0  0  0  0  0  0  0  0  0  0
   -7.6250   26.1840  -21.3073 C   0  0  0  0  0  0  0  0  0  0  0  0
   -8.3399   25.5140  -20.1532 C   0  0  0  0  0  0  0  0  0  0  0  0
   -9.5932   23.1925  -20.0756 C   0  0  0  0  0  0  0  0  0  0  0  0
  -10.4708   24.3931  -20.0613 C   0  0  0  0  0  0  0  0  0  0  0  0
 36 37  1  0  0  0
 37 30  1  0  0  0
 30 31  1  0  0  0
 31 32  1  0  0  0
 32 33  1  0  0  0
 33 34  1  0  0  0
 34 35  1  0  0  0
 33 24  1  0  0  0
 24 25  2  0  0  0
 25 26  1  0  0  0
 26 27  2  0  0  0
 27 28  1  0  0  0
 28 29  2  0  0  0
 27 20  1  0  0  0
 20 21  2  0  0  0
 20 22  1  0  0  0
 22  1  1  0  0  0
  1  2  2  0  0  0
  2  3  1  0  0  0
  3  4  1  0  0  0
  4  5  2  0  0  0
  5  6  1  0  0  0
  6  7  2  0  0  0
  7  8  1  0  0  0
  8  9  2  0  0  0
  6 11  1  0  0  0
 11 12  2  0  0  0
 12 13  1  0  0  0
 13 14  2  0  0  0
 14 15  1  0  0  0
 15 18  1  0  0  0
 18 19  1  0  0  0
 15 16  2  0  0  0
 16 17  1  0  0  0
 35 30  1  0  0  0
 29 24  1  0  0  0
  9  1  1  0  0  0
 16 11  1  0  0  0
  9  4  1  0  0  0
 22 23  1  0  0  0
  3 10  1  0  0  0
M  END
> <minimizedAffinity>
-8.73644

> <CNNscore>
0.0789474770

> <CNNaffinity>
6.1700954437

> <CNN_VS>
0.4871134758

> <CNNaffinity_variance>
0.1332172453

$$$$
[H]C([H])=C([H])C(=O)N1C([H])([H])C([H])([H])N(C([H])([H])C([H])([H])C([H])([H])n2c(=O)c(-c3c([H])c(OC([H])([H])[H])c([H])c(OC([H])([H])[H])c3Cl)c([H])c3c([H])nc(N([H])C([H])([H])C([H])([H])N4C([H])([H])C([H])([H])OC([H])([H])C4([H])[H])nc32)C([H])([H])C1([H])[H]


 45 49  0  0  0  0  0  0  0  0999 V2000
   -4.1874   22.6169  -24.3541 C   0  0  0  0  0  0  0  0  0  0  0  0
   -5.4535   22.1321  -24.1224 C   0  0  0  0  0  0  0  0  0  0  0  0
   -5.9434   21.9725  -22.8286 C   0  0  0  0  0  0  0  0  0  0  0  0
   -7.2025   21.5082  -22.5691 C   0  0  0  0  0  0  0  0  0  0  0  0
   -7.6494   21.3811  -21.3078 N   0  0  0  0  0  0  0  0  0  0  0  0
   -6.8844   21.7033  -20.2412 C   0  0  0  0  0  0  0  0  0  0  0  0
   -5.6490   22.1578  -20.5005 N   0  0  0  0  0  0  0  0  0  0  0  0
   -5.1439   22.3069  -21.7371 C   0  0  0  0  0  0  0  0  0  0  0  0
   -3.9153   22.7758  -21.9865 N   0  0  0  0  0  0  0  0  0  0  0  0
   -3.4283   22.9357  -23.2546 C   0  0  0  0  0  0  0  0  0  0  0  0
   -2.2439   23.3920  -23.3866 O   0  0  0  0  0  0  0  0  0  0  0  0
   -1.9594   22.4732  -27.3864 C   0  0  0  0  0  0  0  0  0  0  0  0
   -2.8069   23.0804  -28.2973 C   0  0  0  0  0  0  0  0  0  0  0  0
   -4.0644   23.5264  -27.9416 C   0  0  0  0  0  0  0  0  0  0  0  0
   -4.5253   23.3764  -26.6338 C   0  0  0  0  0  0  0  0  0  0  0  0
   -6.1108   23.9291  -26.1398 Cl  0  0  0  0  0  0  0  0  0  0  0  0
   -3.7008   22.7762  -25.7129 C   0  0  0  0  0  0  0  0  0  0  0  0
   -2.4285   22.3307  -26.0944 C   0  0  0  0  0  0  0  0  0  0  0  0
    0.4585   22.3336  -26.9630 C   0  0  0  0  0  0  0  0  0  0  0  0
   -0.7029   22.0173  -27.7051 O   0  0  0  0  0  0  0  0  0  0  0  0
   -4.9464   24.1370  -28.8110 O   0  0  0  0  0  0  0  0  0  0  0  0
   -5.4954   23.5315  -29.9354 C   0  0  0  0  0  0  0  0  0  0  0  0
   -7.3836   21.5666  -18.9101 N   0  0  0  0  0  0  0  0  0  0  0  0
   -8.1577   22.1635  -18.5562 H   0  0  0  0  0  0  0  0  0  0  0  0
   -6.8127   20.5887  -18.0277 C   0  0  0  0  0  0  0  0  0  0  0  0
   -7.5062   20.6066  -16.6838 C   0  0  0  0  0  0  0  0  0  0  0  0
   -8.8325   20.0598  -16.7370 N   0  0  0  0  0  0  0  0  0  0  0  0
   -9.4534   20.2354  -15.4445 C   0  0  0  0  0  0  0  0  0  0  0  0
  -10.5119   19.1830  -15.1845 C   0  0  0  0  0  0  0  0  0  0  0  0
   -9.9980   17.8907  -15.2061 O   0  0  0  0  0  0  0  0  0  0  0  0
   -8.7822   17.8021  -15.8726 C   0  0  0  0  0  0  0  0  0  0  0  0
   -8.9002   18.6757  -17.1066 C   0  0  0  0  0  0  0  0  0  0  0  0
   -3.0334   23.0950  -20.8910 C   0  0  0  0  0  0  0  0  0  0  0  0
   -2.1477   21.9454  -20.4687 C   0  0  0  0  0  0  0  0  0  0  0  0
   -0.7486   22.3184  -20.1046 C   0  0  0  0  0  0  0  0  0  0  0  0
    0.0477   21.1124  -20.0156 N   0  0  0  0  0  0  0  0  0  0  0  0
   -0.3917   20.0247  -20.8131 C   0  0  0  0  0  0  0  0  0  0  0  0
    0.5191   18.8422  -20.7965 C   0  0  0  0  0  0  0  0  0  0  0  0
    1.8476   19.2450  -21.1735 N   0  0  0  0  0  0  0  0  0  0  0  0
    2.1175   20.6804  -21.2549 C   0  0  0  0  0  0  0  0  0  0  0  0
    1.4595   21.4132  -20.1032 C   0  0  0  0  0  0  0  0  0  0  0  0
    2.8867   18.3212  -21.4602 C   0  0  0  0  0  0  0  0  0  0  0  0
    4.0223   18.7339  -21.7845 O   0  0  0  0  0  0  0  0  0  0  0  0
    2.6414   16.9044  -21.3797 C   0  0  0  0  0  0  0  0  0  0  0  0
    2.9579   16.0481  -22.3341 C   0  0  0  0  0  0  0  0  0  0  0  0
 19 20  1  0  0  0
 20 12  1  0  0  0
 12 13  2  0  0  0
 13 14  1  0  0  0
 14 21  1  0  0  0
 21 22  1  0  0  0
 14 15  2  0  0  0
 15 16  1  0  0  0
 15 17  1  0  0  0
 17 18  2  0  0  0
 17  1  1  0  0  0
  1  2  2  0  0  0
  2  3  1  0  0  0
  3  4  2  0  0  0
  4  5  1  0  0  0
  5  6  2  0  0  0
  6 23  1  0  0  0
 23 25  1  0  0  0
 25 26  1  0  0  0
 26 27  1  0  0  0
 27 28  1  0  0  0
 28 29  1  0  0  0
 29 30  1  0  0  0
 30 31  1  0  0  0
 31 32  1  0  0  0
  6  7  1  0  0  0
  7  8  2  0  0  0
  8  9  1  0  0  0
  9 33  1  0  0  0
 33 34  1  0  0  0
 34 35  1  0  0  0
 35 36  1  0  0  0
 36 37  1  0  0  0
 37 38  1  0  0  0
 38 39  1  0  0  0
 39 40  1  0  0  0
 40 41  1  0  0  0
 39 42  1  0  0  0
 42 43  2  0  0  0
 42 44  1  0  0  0
 44 45  2  0  0  0
  9 10  1  0  0  0
 10 11  2  0  0  0
 18 12  1  0  0  0
 10  1  1  0  0  0
  8  3  1  0  0  0
 41 36  1  0  0  0
 32 27  1  0  0  0
 23 24  1  0  0  0
M  END
> <minimizedAffinity>
-7.20616

> <CNNscore>
0.1332762539

> <CNNaffinity>
6.7281441689

> <CNN_VS>
0.8967018723

> <CNNaffinity_variance>
0.1644994766

$$$$
[H]C([H])=C([H])C(=O)N1C([H])([H])C([H])([H])N(C([H])([H])C([H])([H])C([H])([H])n2c(=O)c(-c3c([H])c(OC([H])([H])[H])c([H])c(OC([H])([H])[H])c3Cl)c([H])c3c([H])nc(N([H])C([H])([H])C([H])([H])N4C([H])([H])C([H])([H])OC([H])([H])C4([H])[H])nc32)C([H])([H])C1([H])[H]


 45 49  0  0  0  0  0  0  0  0999 V2000
    1.8674   20.8635  -21.8164 C   0  0  0  0  0  0  0  0  0  0  0  0
    1.8870   21.1453  -23.1625 C   0  0  0  0  0  0  0  0  0  0  0  0
    0.7220   21.4716  -23.8522 C   0  0  0  0  0  0  0  0  0  0  0  0
    0.7142   21.7716  -25.1856 C   0  0  0  0  0  0  0  0  0  0  0  0
   -0.4267   22.0978  -25.8172 N   0  0  0  0  0  0  0  0  0  0  0  0
   -1.6135   22.1461  -25.1724 C   0  0  0  0  0  0  0  0  0  0  0  0
   -1.6013   21.8501  -23.8639 N   0  0  0  0  0  0  0  0  0  0  0  0
   -0.4959   21.5164  -23.1760 C   0  0  0  0  0  0  0  0  0  0  0  0
   -0.4910   21.2376  -21.8668 N   0  0  0  0  0  0  0  0  0  0  0  0
    0.6496   20.9173  -21.1833 C   0  0  0  0  0  0  0  0  0  0  0  0
    0.5487   20.6696  -19.9356 O   0  0  0  0  0  0  0  0  0  0  0  0
    5.0860   21.2066  -19.8922 C   0  0  0  0  0  0  0  0  0  0  0  0
    5.4152   19.8654  -19.7949 C   0  0  0  0  0  0  0  0  0  0  0  0
    4.6198   18.8758  -20.3379 C   0  0  0  0  0  0  0  0  0  0  0  0
    3.4430   19.2030  -21.0112 C   0  0  0  0  0  0  0  0  0  0  0  0
    2.4071   17.9810  -21.7162 Cl  0  0  0  0  0  0  0  0  0  0  0  0
    3.0965   20.5282  -21.1197 C   0  0  0  0  0  0  0  0  0  0  0  0
    3.9175   21.5168  -20.5616 C   0  0  0  0  0  0  0  0  0  0  0  0
    6.0458   22.4133  -17.9771 C   0  0  0  0  0  0  0  0  0  0  0  0
    5.8530   22.2171  -19.3641 O   0  0  0  0  0  0  0  0  0  0  0  0
    4.9032   17.5262  -20.2680 O   0  0  0  0  0  0  0  0  0  0  0  0
    6.0454   16.9300  -20.7897 C   0  0  0  0  0  0  0  0  0  0  0  0
   -2.8117   22.5024  -25.8631 N   0  0  0  0  0  0  0  0  0  0  0  0
   -3.7314   22.0940  -25.6018 H   0  0  0  0  0  0  0  0  0  0  0  0
   -2.7615   23.4430  -26.9464 C   0  0  0  0  0  0  0  0  0  0  0  0
   -3.5373   22.9315  -28.1396 C   0  0  0  0  0  0  0  0  0  0  0  0
   -4.6319   23.7885  -28.4980 N   0  0  0  0  0  0  0  0  0  0  0  0
   -5.1701   23.3412  -29.7617 C   0  0  0  0  0  0  0  0  0  0  0  0
   -5.8304   24.4738  -30.5212 C   0  0  0  0  0  0  0  0  0  0  0  0
   -4.9486   25.5102  -30.8094 O   0  0  0  0  0  0  0  0  0  0  0  0
   -3.8222   25.5052  -29.9960 C   0  0  0  0  0  0  0  0  0  0  0  0
   -4.3016   25.1808  -28.5943 C   0  0  0  0  0  0  0  0  0  0  0  0
   -1.7314   21.2278  -21.1311 C   0  0  0  0  0  0  0  0  0  0  0  0
   -2.0813   22.5613  -20.5116 C   0  0  0  0  0  0  0  0  0  0  0  0
   -3.4564   22.6570  -19.9381 C   0  0  0  0  0  0  0  0  0  0  0  0
   -4.3316   23.2592  -20.9221 N   0  0  0  0  0  0  0  0  0  0  0  0
   -3.7019   24.1086  -21.8676 C   0  0  0  0  0  0  0  0  0  0  0  0
   -4.6080   24.6118  -22.9419 C   0  0  0  0  0  0  0  0  0  0  0  0
   -5.2463   23.5033  -23.6000 N   0  0  0  0  0  0  0  0  0  0  0  0
   -5.1059   22.1840  -22.9838 C   0  0  0  0  0  0  0  0  0  0  0  0
   -5.2408   22.2814  -21.4776 C   0  0  0  0  0  0  0  0  0  0  0  0
   -5.9951   23.6388  -24.7984 C   0  0  0  0  0  0  0  0  0  0  0  0
   -6.5258   22.6354  -25.3242 O   0  0  0  0  0  0  0  0  0  0  0  0
   -6.1490   24.9304  -25.4164 C   0  0  0  0  0  0  0  0  0  0  0  0
   -7.1825   25.2683  -26.1661 C   0  0  0  0  0  0  0  0  0  0  0  0
 19 20  1  0  0  0
 20 12  1  0  0  0
 12 13  2  0  0  0
 13 14  1  0  0  0
 14 21  1  0  0  0
 21 22  1  0  0  0
 14 15  2  0  0  0
 15 16  1  0  0  0
 15 17  1  0  0  0
 17 18  2  0  0  0
 17  1  1  0  0  0
  1  2  2  0  0  0
  2  3  1  0  0  0
  3  4  2  0  0  0
  4  5  1  0  0  0
  5  6  2  0  0  0
  6 23  1  0  0  0
 23 25  1  0  0  0
 25 26  1  0  0  0
 26 27  1  0  0  0
 27 28  1  0  0  0
 28 29  1  0  0  0
 29 30  1  0  0  0
 30 31  1  0  0  0
 31 32  1  0  0  0
  6  7  1  0  0  0
  7  8  2  0  0  0
  8  9  1  0  0  0
  9 33  1  0  0  0
 33 34  1  0  0  0
 34 35  1  0  0  0
 35 36  1  0  0  0
 36 37  1  0  0  0
 37 38  1  0  0  0
 38 39  1  0  0  0
 39 40  1  0  0  0
 40 41  1  0  0  0
 39 42  1  0  0  0
 42 43  2  0  0  0
 42 44  1  0  0  0
 44 45  2  0  0  0
  9 10  1  0  0  0
 10 11  2  0  0  0
 18 12  1  0  0  0
 10  1  1  0  0  0
  8  3  1  0  0  0
 41 36  1  0  0  0
 32 27  1  0  0  0
 23 24  1  0  0  0
M  END
> <minimizedAffinity>
-7.44823

> <CNNscore>
0.1010977104

> <CNNaffinity>
7.2132844925

> <CNN_VS>
0.7292465568

> <CNNaffinity_variance>
0.3336820006

$$$$
[H]C([H])=C([H])C(=O)N1C([H])([H])C([H])([H])N(C([H])([H])C([H])([H])C([H])([H])n2c(=O)c(-c3c([H])c(OC([H])([H])[H])c([H])c(OC([H])([H])[H])c3Cl)c([H])c3c([H])nc(N([H])C([H])([H])C([H])([H])N4C([H])([H])C([H])([H])OC([H])([H])C4([H])[H])nc32)C([H])([H])C1([H])[H]


 45 49  0  0  0  0  0  0  0  0999 V2000
   -0.5326   21.0582  -20.9784 C   0  0  0  0  0  0  0  0  0  0  0  0
    0.3906   21.1707  -21.9916 C   0  0  0  0  0  0  0  0  0  0  0  0
    0.0159   21.5651  -23.2737 C   0  0  0  0  0  0  0  0  0  0  0  0
    0.9139   21.7007  -24.2952 C   0  0  0  0  0  0  0  0  0  0  0  0
    0.5202   22.0989  -25.5173 N   0  0  0  0  0  0  0  0  0  0  0  0
   -0.7712   22.3834  -25.7962 C   0  0  0  0  0  0  0  0  0  0  0  0
   -1.6492   22.2482  -24.7908 N   0  0  0  0  0  0  0  0  0  0  0  0
   -1.3194   21.8542  -23.5489 C   0  0  0  0  0  0  0  0  0  0  0  0
   -2.2002   21.7370  -22.5478 N   0  0  0  0  0  0  0  0  0  0  0  0
   -1.8388   21.3510  -21.2864 C   0  0  0  0  0  0  0  0  0  0  0  0
   -2.7542   21.2711  -20.4009 O   0  0  0  0  0  0  0  0  0  0  0  0
    0.3605   18.8951  -18.0283 C   0  0  0  0  0  0  0  0  0  0  0  0
    0.6871   19.8946  -17.1277 C   0  0  0  0  0  0  0  0  0  0  0  0
    0.6190   21.2323  -17.4633 C   0  0  0  0  0  0  0  0  0  0  0  0
    0.2128   21.6226  -18.7392 C   0  0  0  0  0  0  0  0  0  0  0  0
    0.1102   23.3064  -19.2057 Cl  0  0  0  0  0  0  0  0  0  0  0  0
   -0.1160   20.6472  -19.6495 C   0  0  0  0  0  0  0  0  0  0  0  0
   -0.0401   19.2955  -19.2888 C   0  0  0  0  0  0  0  0  0  0  0  0
   -0.6282   16.6442  -18.0070 C   0  0  0  0  0  0  0  0  0  0  0  0
    0.4170   17.5551  -17.7292 O   0  0  0  0  0  0  0  0  0  0  0  0
    0.9336   22.2656  -16.6032 O   0  0  0  0  0  0  0  0  0  0  0  0
    2.2229   22.5959  -16.2019 C   0  0  0  0  0  0  0  0  0  0  0  0
   -1.1646   22.8117  -27.1006 N   0  0  0  0  0  0  0  0  0  0  0  0
   -0.5310   23.3762  -27.7013 H   0  0  0  0  0  0  0  0  0  0  0  0
   -2.4620   22.4649  -27.6076 C   0  0  0  0  0  0  0  0  0  0  0  0
   -2.9050   23.4466  -28.6694 C   0  0  0  0  0  0  0  0  0  0  0  0
   -4.3024   23.7640  -28.5825 N   0  0  0  0  0  0  0  0  0  0  0  0
   -4.5888   24.8325  -29.5116 C   0  0  0  0  0  0  0  0  0  0  0  0
   -5.7808   25.6557  -29.0677 C   0  0  0  0  0  0  0  0  0  0  0  0
   -5.5872   26.2506  -27.8253 O   0  0  0  0  0  0  0  0  0  0  0  0
   -4.5862   25.6384  -27.0815 C   0  0  0  0  0  0  0  0  0  0  0  0
   -4.7548   24.1439  -27.2756 C   0  0  0  0  0  0  0  0  0  0  0  0
   -3.6002   21.9826  -22.7920 C   0  0  0  0  0  0  0  0  0  0  0  0
   -3.9051   23.4043  -23.2043 C   0  0  0  0  0  0  0  0  0  0  0  0
   -3.9306   24.3996  -22.0916 C   0  0  0  0  0  0  0  0  0  0  0  0
   -5.2515   24.9888  -22.0227 N   0  0  0  0  0  0  0  0  0  0  0  0
   -5.9968   24.9713  -23.2295 C   0  0  0  0  0  0  0  0  0  0  0  0
   -7.3974   25.4696  -23.0950 C   0  0  0  0  0  0  0  0  0  0  0  0
   -8.0800   24.7329  -22.0651 N   0  0  0  0  0  0  0  0  0  0  0  0
   -7.2712   23.8606  -21.2137 C   0  0  0  0  0  0  0  0  0  0  0  0
   -5.9636   24.5340  -20.8490 C   0  0  0  0  0  0  0  0  0  0  0  0
   -9.4798   24.8212  -21.8457 C   0  0  0  0  0  0  0  0  0  0  0  0
  -10.0159   24.1535  -20.9338 O   0  0  0  0  0  0  0  0  0  0  0  0
  -10.2913   25.6790  -22.6701 C   0  0  0  0  0  0  0  0  0  0  0  0
  -10.9004   26.7635  -22.2262 C   0  0  0  0  0  0  0  0  0  0  0  0
 19 20  1  0  0  0
 20 12  1  0  0  0
 12 13  2  0  0  0
 13 14  1  0  0  0
 14 21  1  0  0  0
 21 22  1  0  0  0
 14 15  2  0  0  0
 15 16  1  0  0  0
 15 17  1  0  0  0
 17 18  2  0  0  0
 17  1  1  0  0  0
  1  2  2  0  0  0
  2  3  1  0  0  0
  3  4  2  0  0  0
  4  5  1  0  0  0
  5  6  2  0  0  0
  6 23  1  0  0  0
 23 25  1  0  0  0
 25 26  1  0  0  0
 26 27  1  0  0  0
 27 28  1  0  0  0
 28 29  1  0  0  0
 29 30  1  0  0  0
 30 31  1  0  0  0
 31 32  1  0  0  0
  6  7  1  0  0  0
  7  8  2  0  0  0
  8  9  1  0  0  0
  9 33  1  0  0  0
 33 34  1  0  0  0
 34 35  1  0  0  0
 35 36  1  0  0  0
 36 37  1  0  0  0
 37 38  1  0  0  0
 38 39  1  0  0  0
 39 40  1  0  0  0
 40 41  1  0  0  0
 39 42  1  0  0  0
 42 43  2  0  0  0
 42 44  1  0  0  0
 44 45  2  0  0  0
  9 10  1  0  0  0
 10 11  2  0  0  0
 18 12  1  0  0  0
 10  1  1  0  0  0
  8  3  1  0  0  0
 41 36  1  0  0  0
 32 27  1  0  0  0
 23 24  1  0  0  0
M  END
> <minimizedAffinity>
-7.43891

> <CNNscore>
0.0991327390

> <CNNaffinity>
7.1960649490

> <CNN_VS>
0.7133656144

> <CNNaffinity_variance>
0.4472491741

$$$$
[H]C([H])=C([H])C(=O)N1C([H])([H])C([H])([H])N(C([H])([H])C([H])([H])C([H])([H])n2c(=O)c(-c3c([H])c(OC([H])([H])[H])c([H])c(OC([H])([H])[H])c3Cl)c([H])c3c([H])nc(N([H])C([H])([H])C([H])([H])N4C([H])([H])C([H])([H])OC([H])([H])C4([H])[H])nc32)C([H])([H])C1([H])[H]


 45 49  0  0  0  0  0  0  0  0999 V2000
   -1.8651   21.8075  -21.6487 C   0  0  0  0  0  0  0  0  0  0  0  0
   -0.6966   22.0668  -22.3262 C   0  0  0  0  0  0  0  0  0  0  0  0
   -0.6615   22.1209  -23.7173 C   0  0  0  0  0  0  0  0  0  0  0  0
    0.4815   22.3922  -24.4160 C   0  0  0  0  0  0  0  0  0  0  0  0
    0.4766   22.4523  -25.7589 N   0  0  0  0  0  0  0  0  0  0  0  0
   -0.6480   22.2501  -26.4806 C   0  0  0  0  0  0  0  0  0  0  0  0
   -1.7674   21.9833  -25.7908 N   0  0  0  0  0  0  0  0  0  0  0  0
   -1.8279   21.9089  -24.4502 C   0  0  0  0  0  0  0  0  0  0  0  0
   -2.9528   21.6574  -23.7698 N   0  0  0  0  0  0  0  0  0  0  0  0
   -2.9943   21.6037  -22.4037 C   0  0  0  0  0  0  0  0  0  0  0  0
   -4.1172   21.3585  -21.8493 O   0  0  0  0  0  0  0  0  0  0  0  0
   -2.6311   22.6352  -18.0560 C   0  0  0  0  0  0  0  0  0  0  0  0
   -1.8874   21.6378  -17.4486 C   0  0  0  0  0  0  0  0  0  0  0  0
   -1.1561   20.7227  -18.1798 C   0  0  0  0  0  0  0  0  0  0  0  0
   -1.1444   20.7769  -19.5734 C   0  0  0  0  0  0  0  0  0  0  0  0
   -0.2297   19.6388  -20.5385 Cl  0  0  0  0  0  0  0  0  0  0  0  0
   -1.8756   21.7588  -20.1975 C   0  0  0  0  0  0  0  0  0  0  0  0
   -2.6109   22.6774  -19.4371 C   0  0  0  0  0  0  0  0  0  0  0  0
   -4.3605   23.2222  -16.4099 C   0  0  0  0  0  0  0  0  0  0  0  0
   -3.3703   23.5616  -17.3606 O   0  0  0  0  0  0  0  0  0  0  0  0
   -0.3996   19.7107  -17.6230 O   0  0  0  0  0  0  0  0  0  0  0  0
    0.8811   19.8728  -17.1073 C   0  0  0  0  0  0  0  0  0  0  0  0
   -0.6302   22.3262  -27.9066 N   0  0  0  0  0  0  0  0  0  0  0  0
   -0.3061   21.5284  -28.4893 H   0  0  0  0  0  0  0  0  0  0  0  0
   -1.0646   23.5252  -28.5656 C   0  0  0  0  0  0  0  0  0  0  0  0
   -2.4199   23.3262  -29.2067 C   0  0  0  0  0  0  0  0  0  0  0  0
   -3.4640   24.0417  -28.5294 N   0  0  0  0  0  0  0  0  0  0  0  0
   -4.5030   23.1049  -28.1690 C   0  0  0  0  0  0  0  0  0  0  0  0
   -5.8549   23.7811  -28.0654 C   0  0  0  0  0  0  0  0  0  0  0  0
   -6.2502   24.3725  -29.2607 O   0  0  0  0  0  0  0  0  0  0  0  0
   -5.1893   24.6046  -30.1273 C   0  0  0  0  0  0  0  0  0  0  0  0
   -4.0420   25.1189  -29.2794 C   0  0  0  0  0  0  0  0  0  0  0  0
   -4.1772   21.3882  -24.4828 C   0  0  0  0  0  0  0  0  0  0  0  0
   -5.0804   22.5927  -24.6162 C   0  0  0  0  0  0  0  0  0  0  0  0
   -4.3896   23.9157  -24.5749 C   0  0  0  0  0  0  0  0  0  0  0  0
   -5.1613   24.8194  -23.7475 N   0  0  0  0  0  0  0  0  0  0  0  0
   -6.5697   24.6653  -23.8160 C   0  0  0  0  0  0  0  0  0  0  0  0
   -7.3297   25.5232  -22.8597 C   0  0  0  0  0  0  0  0  0  0  0  0
   -6.8579   25.2955  -21.5199 N   0  0  0  0  0  0  0  0  0  0  0  0
   -5.6331   24.5112  -21.3624 C   0  0  0  0  0  0  0  0  0  0  0  0
   -4.6118   24.9000  -22.4123 C   0  0  0  0  0  0  0  0  0  0  0  0
   -7.5202   25.7960  -20.3683 C   0  0  0  0  0  0  0  0  0  0  0  0
   -7.0607   25.5627  -19.2284 O   0  0  0  0  0  0  0  0  0  0  0  0
   -8.7239   26.5748  -20.5040 C   0  0  0  0  0  0  0  0  0  0  0  0
   -9.9406   26.0649  -20.4406 C   0  0  0  0  0  0  0  0  0  0  0  0
 19 20  1  0  0  0
 20 12  1  0  0  0
 12 13  2  0  0  0
 13 14  1  0  0  0
 14 21  1  0  0  0
 21 22  1  0  0  0
 14 15  2  0  0  0
 15 16  1  0  0  0
 15 17  1  0  0  0
 17 18  2  0  0  0
 17  1  1  0  0  0
  1  2  2  0  0  0
  2  3  1  0  0  0
  3  4  2  0  0  0
  4  5  1  0  0  0
  5  6  2  0  0  0
  6 23  1  0  0  0
 23 25  1  0  0  0
 25 26  1  0  0  0
 26 27  1  0  0  0
 27 28  1  0  0  0
 28 29  1  0  0  0
 29 30  1  0  0  0
 30 31  1  0  0  0
 31 32  1  0  0  0
  6  7  1  0  0  0
  7  8  2  0  0  0
  8  9  1  0  0  0
  9 33  1  0  0  0
 33 34  1  0  0  0
 34 35  1  0  0  0
 35 36  1  0  0  0
 36 37  1  0  0  0
 37 38  1  0  0  0
 38 39  1  0  0  0
 39 40  1  0  0  0
 40 41  1  0  0  0
 39 42  1  0  0  0
 42 43  2  0  0  0
 42 44  1  0  0  0
 44 45  2  0  0  0
  9 10  1  0  0  0
 10 11  2  0  0  0
 18 12  1  0  0  0
 10  1  1  0  0  0
  8  3  1  0  0  0
 41 36  1  0  0  0
 32 27  1  0  0  0
 23 24  1  0  0  0
M  END
> <minimizedAffinity>
-7.76254

> <CNNscore>
0.0924254507

> <CNNaffinity>
7.2518553734

> <CNN_VS>
0.6702560186

> <CNNaffinity_variance>
0.1747778654

$$$$
[H]C([H])=C([H])C(=O)N1C([H])([H])C([H])([H])N(C([H])([H])C([H])([H])C([H])([H])n2c(=O)c(-c3c([H])c(OC([H])([H])[H])c([H])c(OC([H])([H])[H])c3Cl)c([H])c3c([H])nc(N([H])C([H])([H])C([H])([H])N4C([H])([H])C([H])([H])OC([H])([H])C4([H])[H])nc32)C([H])([H])C1([H])[H]


 45 49  0  0  0  0  0  0  0  0999 V2000
    0.2923   21.3729  -21.6239 C   0  0  0  0  0  0  0  0  0  0  0  0
    0.8779   21.3327  -22.8678 C   0  0  0  0  0  0  0  0  0  0  0  0
    0.1831   21.7239  -24.0095 C   0  0  0  0  0  0  0  0  0  0  0  0
    0.7447   21.7094  -25.2555 C   0  0  0  0  0  0  0  0  0  0  0  0
    0.0502   22.1088  -26.3349 N   0  0  0  0  0  0  0  0  0  0  0  0
   -1.2270   22.5417  -26.2447 C   0  0  0  0  0  0  0  0  0  0  0  0
   -1.7745   22.5534  -25.0199 N   0  0  0  0  0  0  0  0  0  0  0  0
   -1.1341   22.1669  -23.9032 C   0  0  0  0  0  0  0  0  0  0  0  0
   -1.6837   22.1967  -22.6831 N   0  0  0  0  0  0  0  0  0  0  0  0
   -1.0067   21.8147  -21.5577 C   0  0  0  0  0  0  0  0  0  0  0  0
   -1.6194   21.8817  -20.4403 O   0  0  0  0  0  0  0  0  0  0  0  0
    2.4972   21.4955  -18.5739 C   0  0  0  0  0  0  0  0  0  0  0  0
    2.4367   20.1587  -18.2185 C   0  0  0  0  0  0  0  0  0  0  0  0
    1.7046   19.2411  -18.9457 C   0  0  0  0  0  0  0  0  0  0  0  0
    0.9934   19.6395  -20.0774 C   0  0  0  0  0  0  0  0  0  0  0  0
    0.0548   18.5094  -21.0289 Cl  0  0  0  0  0  0  0  0  0  0  0  0
    1.0391   20.9618  -20.4485 C   0  0  0  0  0  0  0  0  0  0  0  0
    1.7879   21.8768  -19.6969 C   0  0  0  0  0  0  0  0  0  0  0  0
    2.8655   23.8045  -17.8140 C   0  0  0  0  0  0  0  0  0  0  0  0
    3.2146   22.4356  -17.8741 O   0  0  0  0  0  0  0  0  0  0  0  0
    1.6119   17.8993  -18.6335 O   0  0  0  0  0  0  0  0  0  0  0  0
    0.9385   17.3888  -17.5298 C   0  0  0  0  0  0  0  0  0  0  0  0
   -1.9426   22.9679  -27.4047 N   0  0  0  0  0  0  0  0  0  0  0  0
   -1.4494   23.3371  -28.2422 H   0  0  0  0  0  0  0  0  0  0  0  0
   -3.3759   22.8932  -27.4300 C   0  0  0  0  0  0  0  0  0  0  0  0
   -3.9883   24.2741  -27.3554 C   0  0  0  0  0  0  0  0  0  0  0  0
   -5.1121   24.4304  -28.2349 N   0  0  0  0  0  0  0  0  0  0  0  0
   -4.9978   23.4630  -29.3017 C   0  0  0  0  0  0  0  0  0  0  0  0
   -5.6953   23.9341  -30.5616 C   0  0  0  0  0  0  0  0  0  0  0  0
   -5.1713   25.1269  -31.0489 O   0  0  0  0  0  0  0  0  0  0  0  0
   -4.4628   25.8396  -30.0895 C   0  0  0  0  0  0  0  0  0  0  0  0
   -5.2573   25.7399  -28.8016 C   0  0  0  0  0  0  0  0  0  0  0  0
   -3.0576   22.6057  -22.5252 C   0  0  0  0  0  0  0  0  0  0  0  0
   -4.0415   21.4590  -22.5632 C   0  0  0  0  0  0  0  0  0  0  0  0
   -4.9006   21.3957  -23.7827 C   0  0  0  0  0  0  0  0  0  0  0  0
   -6.1794   22.0060  -23.4848 N   0  0  0  0  0  0  0  0  0  0  0  0
   -6.5327   22.0553  -22.1119 C   0  0  0  0  0  0  0  0  0  0  0  0
   -7.7941   22.8012  -21.8277 C   0  0  0  0  0  0  0  0  0  0  0  0
   -7.7110   24.1272  -22.3793 N   0  0  0  0  0  0  0  0  0  0  0  0
   -6.5927   24.4128  -23.2781 C   0  0  0  0  0  0  0  0  0  0  0  0
   -6.3469   23.2448  -24.2118 C   0  0  0  0  0  0  0  0  0  0  0  0
   -8.6558   25.1474  -22.0933 C   0  0  0  0  0  0  0  0  0  0  0  0
   -8.5283   26.2825  -22.6033 O   0  0  0  0  0  0  0  0  0  0  0  0
   -9.7664   24.8831  -21.2153 C   0  0  0  0  0  0  0  0  0  0  0  0
  -11.0313   24.9493  -21.5895 C   0  0  0  0  0  0  0  0  0  0  0  0
 19 20  1  0  0  0
 20 12  1  0  0  0
 12 13  2  0  0  0
 13 14  1  0  0  0
 14 21  1  0  0  0
 21 22  1  0  0  0
 14 15  2  0  0  0
 15 16  1  0  0  0
 15 17  1  0  0  0
 17 18  2  0  0  0
 17  1  1  0  0  0
  1  2  2  0  0  0
  2  3  1  0  0  0
  3  4  2  0  0  0
  4  5  1  0  0  0
  5  6  2  0  0  0
  6 23  1  0  0  0
 23 25  1  0  0  0
 25 26  1  0  0  0
 26 27  1  0  0  0
 27 28  1  0  0  0
 28 29  1  0  0  0
 29 30  1  0  0  0
 30 31  1  0  0  0
 31 32  1  0  0  0
  6  7  1  0  0  0
  7  8  2  0  0  0
  8  9  1  0  0  0
  9 33  1  0  0  0
 33 34  1  0  0  0
 34 35  1  0  0  0
 35 36  1  0  0  0
 36 37  1  0  0  0
 37 38  1  0  0  0
 38 39  1  0  0  0
 39 40  1  0  0  0
 40 41  1  0  0  0
 39 42  1  0  0  0
 42 43  2  0  0  0
 42 44  1  0  0  0
 44 45  2  0  0  0
  9 10  1  0  0  0
 10 11  2  0  0  0
 18 12  1  0  0  0
 10  1  1  0  0  0
  8  3  1  0  0  0
 41 36  1  0  0  0
 32 27  1  0  0  0
 23 24  1  0  0  0
M  END
> <minimizedAffinity>
-7.89163

> <CNNscore>
0.0706088468

> <CNNaffinity>
7.3722624779

> <CNN_VS>
0.5205469728

> <CNNaffinity_variance>
0.1468279511

$$$$
[H]C([H])=C([H])C(=O)N1C([H])([H])C([H])([H])N(C([H])([H])C([H])([H])C([H])([H])n2c(=O)c(-c3c([H])c(OC([H])([H])[H])c([H])c(OC([H])([H])[H])c3Cl)c([H])c3c([H])nc(N([H])C([H])([H])C([H])([H])N4C([H])([H])C([H])([H])OC([H])([H])C4([H])[H])nc32)C([H])([H])C1([H])[H]


 45 49  0  0  0  0  0  0  0  0999 V2000
    0.2011   21.4299  -21.2732 C   0  0  0  0  0  0  0  0  0  0  0  0
    0.5610   21.3583  -22.5987 C   0  0  0  0  0  0  0  0  0  0  0  0
   -0.3081   21.7626  -23.6091 C   0  0  0  0  0  0  0  0  0  0  0  0
    0.0286   21.7174  -24.9330 C   0  0  0  0  0  0  0  0  0  0  0  0
   -0.8291   22.1304  -25.8820 N   0  0  0  0  0  0  0  0  0  0  0  0
   -2.0568   22.6076  -25.5791 C   0  0  0  0  0  0  0  0  0  0  0  0
   -2.3833   22.6493  -24.2784 N   0  0  0  0  0  0  0  0  0  0  0  0
   -1.5721   22.2513  -23.2835 C   0  0  0  0  0  0  0  0  0  0  0  0
   -1.9009   22.3111  -21.9874 N   0  0  0  0  0  0  0  0  0  0  0  0
   -1.0519   21.9166  -20.9902 C   0  0  0  0  0  0  0  0  0  0  0  0
   -1.4594   22.0147  -19.7850 O   0  0  0  0  0  0  0  0  0  0  0  0
    2.8296   21.5230  -18.5784 C   0  0  0  0  0  0  0  0  0  0  0  0
    2.8639   20.1730  -18.2734 C   0  0  0  0  0  0  0  0  0  0  0  0
    2.0607   19.2560  -18.9220 C   0  0  0  0  0  0  0  0  0  0  0  0
    1.1774   19.6687  -19.9194 C   0  0  0  0  0  0  0  0  0  0  0  0
    0.1434   18.5400  -20.7681 Cl  0  0  0  0  0  0  0  0  0  0  0  0
    1.1265   21.0043  -20.2384 C   0  0  0  0  0  0  0  0  0  0  0  0
    1.9499   21.9183  -19.5682 C   0  0  0  0  0  0  0  0  0  0  0  0
    3.0985   23.6101  -17.3070 C   0  0  0  0  0  0  0  0  0  0  0  0
    3.6135   22.4629  -17.9537 O   0  0  0  0  0  0  0  0  0  0  0  0
    2.0570   17.9012  -18.6552 O   0  0  0  0  0  0  0  0  0  0  0  0
    3.0358   17.0092  -19.0779 C   0  0  0  0  0  0  0  0  0  0  0  0
   -2.9484   23.0475  -26.6043 N   0  0  0  0  0  0  0  0  0  0  0  0
   -2.5954   23.4099  -27.5126 H   0  0  0  0  0  0  0  0  0  0  0  0
   -4.3669   22.9963  -26.3906 C   0  0  0  0  0  0  0  0  0  0  0  0
   -5.0913   23.8937  -27.3691 C   0  0  0  0  0  0  0  0  0  0  0  0
   -4.3455   24.1142  -28.5758 N   0  0  0  0  0  0  0  0  0  0  0  0
   -4.3808   25.5247  -28.8856 C   0  0  0  0  0  0  0  0  0  0  0  0
   -4.2237   25.7755  -30.3716 C   0  0  0  0  0  0  0  0  0  0  0  0
   -5.2295   25.1781  -31.1241 O   0  0  0  0  0  0  0  0  0  0  0  0
   -5.8783   24.1540  -30.4455 C   0  0  0  0  0  0  0  0  0  0  0  0
   -4.8052   23.3716  -29.7135 C   0  0  0  0  0  0  0  0  0  0  0  0
   -3.2129   22.7684  -21.6007 C   0  0  0  0  0  0  0  0  0  0  0  0
   -4.2446   21.6661  -21.5306 C   0  0  0  0  0  0  0  0  0  0  0  0
   -5.5481   22.0509  -20.9126 C   0  0  0  0  0  0  0  0  0  0  0  0
   -5.2922   22.6552  -19.6218 N   0  0  0  0  0  0  0  0  0  0  0  0
   -6.1461   23.7304  -19.2657 C   0  0  0  0  0  0  0  0  0  0  0  0
   -5.9395   24.2475  -17.8808 C   0  0  0  0  0  0  0  0  0  0  0  0
   -6.0578   23.1697  -16.9354 N   0  0  0  0  0  0  0  0  0  0  0  0
   -6.1032   21.8086  -17.4696 C   0  0  0  0  0  0  0  0  0  0  0  0
   -5.1093   21.6464  -18.6019 C   0  0  0  0  0  0  0  0  0  0  0  0
   -6.1272   23.3724  -15.5320 C   0  0  0  0  0  0  0  0  0  0  0  0
   -6.2311   22.3933  -14.7604 O   0  0  0  0  0  0  0  0  0  0  0  0
   -6.0781   24.7047  -14.9875 C   0  0  0  0  0  0  0  0  0  0  0  0
   -6.1452   24.9740  -13.6963 C   0  0  0  0  0  0  0  0  0  0  0  0
 19 20  1  0  0  0
 20 12  1  0  0  0
 12 13  2  0  0  0
 13 14  1  0  0  0
 14 21  1  0  0  0
 21 22  1  0  0  0
 14 15  2  0  0  0
 15 16  1  0  0  0
 15 17  1  0  0  0
 17 18  2  0  0  0
 17  1  1  0  0  0
  1  2  2  0  0  0
  2  3  1  0  0  0
  3  4  2  0  0  0
  4  5  1  0  0  0
  5  6  2  0  0  0
  6 23  1  0  0  0
 23 25  1  0  0  0
 25 26  1  0  0  0
 26 27  1  0  0  0
 27 28  1  0  0  0
 28 29  1  0  0  0
 29 30  1  0  0  0
 30 31  1  0  0  0
 31 32  1  0  0  0
  6  7  1  0  0  0
  7  8  2  0  0  0
  8  9  1  0  0  0
  9 33  1  0  0  0
 33 34  1  0  0  0
 34 35  1  0  0  0
 35 36  1  0  0  0
 36 37  1  0  0  0
 37 38  1  0  0  0
 38 39  1  0  0  0
 39 40  1  0  0  0
 40 41  1  0  0  0
 39 42  1  0  0  0
 42 43  2  0  0  0
 42 44  1  0  0  0
 44 45  2  0  0  0
  9 10  1  0  0  0
 10 11  2  0  0  0
 18 12  1  0  0  0
 10  1  1  0  0  0
  8  3  1  0  0  0
 41 36  1  0  0  0
 32 27  1  0  0  0
 23 24  1  0  0  0
M  END
> <minimizedAffinity>
-6.75260

> <CNNscore>
0.0652863681

> <CNNaffinity>
6.9284386635

> <CNN_VS>
0.4523325861

> <CNNaffinity_variance>
0.2145813704

$$$$
[H]C([H])=C([H])C(=O)N1C([H])([H])C([H])([H])N(C([H])([H])C([H])([H])C([H])([H])n2c(=O)c(-c3c([H])c(OC([H])([H])[H])c([H])c(OC([H])([H])[H])c3Cl)c([H])c3c([H])nc(N([H])C([H])([H])C([H])([H])N4C([H])([H])C([H])([H])OC([H])([H])C4([H])[H])nc32)C([H])([H])C1([H])[H]


 45 49  0  0  0  0  0  0  0  0999 V2000
    0.9548   21.1610  -20.0548 C   0  0  0  0  0  0  0  0  0  0  0  0
    1.5683   20.9449  -21.2666 C   0  0  0  0  0  0  0  0  0  0  0  0
    0.9759   21.3464  -22.4613 C   0  0  0  0  0  0  0  0  0  0  0  0
    1.5695   21.1589  -23.6781 C   0  0  0  0  0  0  0  0  0  0  0  0
    0.9765   21.5731  -24.8111 N   0  0  0  0  0  0  0  0  0  0  0  0
   -0.2256   22.1908  -24.8057 C   0  0  0  0  0  0  0  0  0  0  0  0
   -0.8050   22.3720  -23.6092 N   0  0  0  0  0  0  0  0  0  0  0  0
   -0.2649   21.9810  -22.4423 C   0  0  0  0  0  0  0  0  0  0  0  0
   -0.8435   22.1800  -21.2518 N   0  0  0  0  0  0  0  0  0  0  0  0
   -0.2667   21.7890  -20.0748 C   0  0  0  0  0  0  0  0  0  0  0  0
   -0.8990   22.0260  -18.9920 O   0  0  0  0  0  0  0  0  0  0  0  0
    2.0481   19.0184  -17.1576 C   0  0  0  0  0  0  0  0  0  0  0  0
    2.8270   19.9493  -16.4916 C   0  0  0  0  0  0  0  0  0  0  0  0
    2.9937   21.2359  -16.9645 C   0  0  0  0  0  0  0  0  0  0  0  0
    2.3725   21.6425  -18.1452 C   0  0  0  0  0  0  0  0  0  0  0  0
    2.5549   23.2638  -18.7788 Cl  0  0  0  0  0  0  0  0  0  0  0  0
    1.5946   20.7349  -18.8229 C   0  0  0  0  0  0  0  0  0  0  0  0
    1.4386   19.4343  -18.3261 C   0  0  0  0  0  0  0  0  0  0  0  0
    1.5226   16.6516  -17.5662 C   0  0  0  0  0  0  0  0  0  0  0  0
    1.8605   17.7305  -16.7169 O   0  0  0  0  0  0  0  0  0  0  0  0
    3.7589   22.2000  -16.3389 O   0  0  0  0  0  0  0  0  0  0  0  0
    3.3519   22.9383  -15.2335 C   0  0  0  0  0  0  0  0  0  0  0  0
   -0.8329   22.6286  -26.0219 N   0  0  0  0  0  0  0  0  0  0  0  0
   -0.2652   23.0008  -26.8094 H   0  0  0  0  0  0  0  0  0  0  0  0
   -2.2585   22.5615  -26.1755 C   0  0  0  0  0  0  0  0  0  0  0  0
   -2.6689   22.9665  -27.5737 C   0  0  0  0  0  0  0  0  0  0  0  0
   -4.0705   23.2593  -27.6772 N   0  0  0  0  0  0  0  0  0  0  0  0
   -4.2812   24.0887  -28.8410 C   0  0  0  0  0  0  0  0  0  0  0  0
   -5.5128   24.9587  -28.6927 C   0  0  0  0  0  0  0  0  0  0  0  0
   -5.4326   25.8178  -27.6018 O   0  0  0  0  0  0  0  0  0  0  0  0
   -4.4966   25.4108  -26.6592 C   0  0  0  0  0  0  0  0  0  0  0  0
   -4.6381   23.9064  -26.5300 C   0  0  0  0  0  0  0  0  0  0  0  0
   -2.1469   22.7931  -21.1815 C   0  0  0  0  0  0  0  0  0  0  0  0
   -3.2879   21.8174  -21.3559 C   0  0  0  0  0  0  0  0  0  0  0  0
   -4.2839   21.7952  -20.2439 C   0  0  0  0  0  0  0  0  0  0  0  0
   -5.5226   22.3786  -20.7151 N   0  0  0  0  0  0  0  0  0  0  0  0
   -5.7370   23.7356  -20.3620 C   0  0  0  0  0  0  0  0  0  0  0  0
   -6.9586   24.3432  -20.9674 C   0  0  0  0  0  0  0  0  0  0  0  0
   -6.9219   24.1896  -22.3972 N   0  0  0  0  0  0  0  0  0  0  0  0
   -5.8968   23.3060  -22.9525 C   0  0  0  0  0  0  0  0  0  0  0  0
   -5.7532   22.0573  -22.1061 C   0  0  0  0  0  0  0  0  0  0  0  0
   -7.8266   24.8468  -23.2718 C   0  0  0  0  0  0  0  0  0  0  0  0
   -7.7428   24.6737  -24.5079 O   0  0  0  0  0  0  0  0  0  0  0  0
   -8.8459   25.7159  -22.7431 C   0  0  0  0  0  0  0  0  0  0  0  0
  -10.1147   25.3707  -22.6194 C   0  0  0  0  0  0  0  0  0  0  0  0
 19 20  1  0  0  0
 20 12  1  0  0  0
 12 13  2  0  0  0
 13 14  1  0  0  0
 14 21  1  0  0  0
 21 22  1  0  0  0
 14 15  2  0  0  0
 15 16  1  0  0  0
 15 17  1  0  0  0
 17 18  2  0  0  0
 17  1  1  0  0  0
  1  2  2  0  0  0
  2  3  1  0  0  0
  3  4  2  0  0  0
  4  5  1  0  0  0
  5  6  2  0  0  0
  6 23  1  0  0  0
 23 25  1  0  0  0
 25 26  1  0  0  0
 26 27  1  0  0  0
 27 28  1  0  0  0
 28 29  1  0  0  0
 29 30  1  0  0  0
 30 31  1  0  0  0
 31 32  1  0  0  0
  6  7  1  0  0  0
  7  8  2  0  0  0
  8  9  1  0  0  0
  9 33  1  0  0  0
 33 34  1  0  0  0
 34 35  1  0  0  0
 35 36  1  0  0  0
 36 37  1  0  0  0
 37 38  1  0  0  0
 38 39  1  0  0  0
 39 40  1  0  0  0
 40 41  1  0  0  0
 39 42  1  0  0  0
 42 43  2  0  0  0
 42 44  1  0  0  0
 44 45  2  0  0  0
  9 10  1  0  0  0
 10 11  2  0  0  0
 18 12  1  0  0  0
 10  1  1  0  0  0
  8  3  1  0  0  0
 41 36  1  0  0  0
 32 27  1  0  0  0
 23 24  1  0  0  0
M  END
> <minimizedAffinity>
-6.65614

> <CNNscore>
0.0602598414

> <CNNaffinity>
6.9674997330

> <CNN_VS>
0.4198604226

> <CNNaffinity_variance>
0.0899671987

$$$$
[H]C([H])=C([H])C(=O)N1C([H])([H])C([H])([H])N(C([H])([H])C([H])([H])C([H])([H])n2c(=O)c(-c3c([H])c(OC([H])([H])[H])c([H])c(OC([H])([H])[H])c3Cl)c([H])c3c([H])nc(N([H])C([H])([H])C([H])([H])N4C([H])([H])C([H])([H])OC([H])([H])C4([H])[H])nc32)C([H])([H])C1([H])[H]


 45 49  0  0  0  0  0  0  0  0999 V2000
   -0.4783   21.8660  -20.1284 C   0  0  0  0  0  0  0  0  0  0  0  0
    0.3350   21.3334  -21.1012 C   0  0  0  0  0  0  0  0  0  0  0  0
    0.1802   21.6744  -22.4426 C   0  0  0  0  0  0  0  0  0  0  0  0
    0.9837   21.1732  -23.4282 C   0  0  0  0  0  0  0  0  0  0  0  0
    0.8166   21.5358  -24.7117 N   0  0  0  0  0  0  0  0  0  0  0  0
   -0.1450   22.4067  -25.0904 C   0  0  0  0  0  0  0  0  0  0  0  0
   -0.9319   22.8955  -24.1198 N   0  0  0  0  0  0  0  0  0  0  0  0
   -0.8164   22.5725  -22.8203 C   0  0  0  0  0  0  0  0  0  0  0  0
   -1.5964   23.0773  -21.8568 N   0  0  0  0  0  0  0  0  0  0  0  0
   -1.4492   22.7473  -20.5376 C   0  0  0  0  0  0  0  0  0  0  0  0
   -2.2429   23.2848  -19.6952 O   0  0  0  0  0  0  0  0  0  0  0  0
   -0.8365   20.0763  -16.8347 C   0  0  0  0  0  0  0  0  0  0  0  0
    0.0795   20.8083  -16.0985 C   0  0  0  0  0  0  0  0  0  0  0  0
    0.7930   21.8538  -16.6504 C   0  0  0  0  0  0  0  0  0  0  0  0
    0.6093   22.2092  -17.9866 C   0  0  0  0  0  0  0  0  0  0  0  0
    1.4908   23.5285  -18.7253 Cl  0  0  0  0  0  0  0  0  0  0  0  0
   -0.2949   21.4961  -18.7363 C   0  0  0  0  0  0  0  0  0  0  0  0
   -1.0086   20.4388  -18.1571 C   0  0  0  0  0  0  0  0  0  0  0  0
   -1.0600   18.1238  -15.3573 C   0  0  0  0  0  0  0  0  0  0  0  0
   -1.5632   19.0304  -16.3188 O   0  0  0  0  0  0  0  0  0  0  0  0
    1.7166   22.6134  -15.9601 O   0  0  0  0  0  0  0  0  0  0  0  0
    1.8178   22.6689  -14.5748 C   0  0  0  0  0  0  0  0  0  0  0  0
   -0.2989   22.7827  -26.4595 N   0  0  0  0  0  0  0  0  0  0  0  0
    0.3952   23.3920  -26.9370 H   0  0  0  0  0  0  0  0  0  0  0  0
   -1.4333   22.3186  -27.2068 C   0  0  0  0  0  0  0  0  0  0  0  0
   -2.5152   23.3744  -27.2539 C   0  0  0  0  0  0  0  0  0  0  0  0
   -3.8095   22.8290  -27.5510 N   0  0  0  0  0  0  0  0  0  0  0  0
   -4.1207   23.1129  -28.9328 C   0  0  0  0  0  0  0  0  0  0  0  0
   -5.6161   23.1848  -29.1663 C   0  0  0  0  0  0  0  0  0  0  0  0
   -6.2286   24.1776  -28.4089 O   0  0  0  0  0  0  0  0  0  0  0  0
   -5.4657   24.5753  -27.3180 C   0  0  0  0  0  0  0  0  0  0  0  0
   -4.8736   23.3134  -26.7205 C   0  0  0  0  0  0  0  0  0  0  0  0
   -2.6698   23.9769  -22.2009 C   0  0  0  0  0  0  0  0  0  0  0  0
   -3.9258   23.2756  -22.6643 C   0  0  0  0  0  0  0  0  0  0  0  0
   -5.0296   24.1749  -23.1139 C   0  0  0  0  0  0  0  0  0  0  0  0
   -6.2337   23.8367  -22.3842 N   0  0  0  0  0  0  0  0  0  0  0  0
   -6.4899   22.4502  -22.2287 C   0  0  0  0  0  0  0  0  0  0  0  0
   -7.6667   22.1350  -21.3662 C   0  0  0  0  0  0  0  0  0  0  0  0
   -7.5161   22.7710  -20.0848 N   0  0  0  0  0  0  0  0  0  0  0  0
   -6.4411   23.7530  -19.9436 C   0  0  0  0  0  0  0  0  0  0  0  0
   -6.3508   24.6266  -21.1785 C   0  0  0  0  0  0  0  0  0  0  0  0
   -8.3564   22.4904  -18.9755 C   0  0  0  0  0  0  0  0  0  0  0  0
   -8.1739   23.0761  -17.8853 O   0  0  0  0  0  0  0  0  0  0  0  0
   -9.4235   21.5310  -19.0973 C   0  0  0  0  0  0  0  0  0  0  0  0
  -10.4964   21.5231  -18.3271 C   0  0  0  0  0  0  0  0  0  0  0  0
 19 20  1  0  0  0
 20 12  1  0  0  0
 12 13  2  0  0  0
 13 14  1  0  0  0
 14 21  1  0  0  0
 21 22  1  0  0  0
 14 15  2  0  0  0
 15 16  1  0  0  0
 15 17  1  0  0  0
 17 18  2  0  0  0
 17  1  1  0  0  0
  1  2  2  0  0  0
  2  3  1  0  0  0
  3  4  2  0  0  0
  4  5  1  0  0  0
  5  6  2  0  0  0
  6 23  1  0  0  0
 23 25  1  0  0  0
 25 26  1  0  0  0
 26 27  1  0  0  0
 27 28  1  0  0  0
 28 29  1  0  0  0
 29 30  1  0  0  0
 30 31  1  0  0  0
 31 32  1  0  0  0
  6  7  1  0  0  0
  7  8  2  0  0  0
  8  9  1  0  0  0
  9 33  1  0  0  0
 33 34  1  0  0  0
 34 35  1  0  0  0
 35 36  1  0  0  0
 36 37  1  0  0  0
 37 38  1  0  0  0
 38 39  1  0  0  0
 39 40  1  0  0  0
 40 41  1  0  0  0
 39 42  1  0  0  0
 42 43  2  0  0  0
 42 44  1  0  0  0
 44 45  2  0  0  0
  9 10  1  0  0  0
 10 11  2  0  0  0
 18 12  1  0  0  0
 10  1  1  0  0  0
  8  3  1  0  0  0
 41 36  1  0  0  0
 32 27  1  0  0  0
 23 24  1  0  0  0
M  END
> <minimizedAffinity>
-7.19253

> <CNNscore>
0.0476730838

> <CNNaffinity>
6.9994711876

> <CNN_VS>
0.3336863816

> <CNNaffinity_variance>
0.2669587135

$$$$
[H]C([H])=C([H])C(=O)N1C([H])([H])C([H])([H])N(C([H])([H])C([H])([H])C([H])([H])n2c(=O)c(-c3c([H])c(OC([H])([H])[H])c([H])c(OC([H])([H])[H])c3Cl)c([H])c3c([H])nc(N([H])C([H])([H])C([H])([H])N4C([H])([H])C([H])([H])OC([H])([H])C4([H])[H])nc32)C([H])([H])C1([H])[H]


 45 49  0  0  0  0  0  0  0  0999 V2000
   -4.1660   22.7155  -24.2881 C   0  0  0  0  0  0  0  0  0  0  0  0
   -5.4371   22.2182  -24.1183 C   0  0  0  0  0  0  0  0  0  0  0  0
   -5.9607   21.9839  -22.8493 C   0  0  0  0  0  0  0  0  0  0  0  0
   -7.2255   21.5055  -22.6504 C   0  0  0  0  0  0  0  0  0  0  0  0
   -7.7053   21.3055  -21.4108 N   0  0  0  0  0  0  0  0  0  0  0  0
   -6.9691   21.5652  -20.3075 C   0  0  0  0  0  0  0  0  0  0  0  0
   -5.7279   22.0338  -20.5074 N   0  0  0  0  0  0  0  0  0  0  0  0
   -5.1907   22.2543  -21.7195 C   0  0  0  0  0  0  0  0  0  0  0  0
   -3.9566   22.7368  -21.9089 N   0  0  0  0  0  0  0  0  0  0  0  0
   -3.4366   22.9700  -23.1523 C   0  0  0  0  0  0  0  0  0  0  0  0
   -2.2498   23.4330  -23.2263 O   0  0  0  0  0  0  0  0  0  0  0  0
   -1.9368   22.5999  -27.3207 C   0  0  0  0  0  0  0  0  0  0  0  0
   -2.6825   23.4110  -28.1591 C   0  0  0  0  0  0  0  0  0  0  0  0
   -3.8732   23.9820  -27.7554 C   0  0  0  0  0  0  0  0  0  0  0  0
   -4.3678   23.7554  -26.4712 C   0  0  0  0  0  0  0  0  0  0  0  0
   -5.8709   24.4610  -25.9180 Cl  0  0  0  0  0  0  0  0  0  0  0  0
   -3.6441   22.9533  -25.6220 C   0  0  0  0  0  0  0  0  0  0  0  0
   -2.4383   22.3835  -26.0512 C   0  0  0  0  0  0  0  0  0  0  0  0
    0.4604   22.1782  -26.9742 C   0  0  0  0  0  0  0  0  0  0  0  0
   -0.7490   22.0153  -27.6886 O   0  0  0  0  0  0  0  0  0  0  0  0
   -4.6530   24.7967  -28.5521 O   0  0  0  0  0  0  0  0  0  0  0  0
   -4.1737   25.5631  -29.6081 C   0  0  0  0  0  0  0  0  0  0  0  0
   -7.5029   21.3516  -19.0002 N   0  0  0  0  0  0  0  0  0  0  0  0
   -7.7859   20.4048  -18.6769 H   0  0  0  0  0  0  0  0  0  0  0  0
   -7.6604   22.4593  -18.1009 C   0  0  0  0  0  0  0  0  0  0  0  0
   -7.3822   22.0386  -16.6750 C   0  0  0  0  0  0  0  0  0  0  0  0
   -6.3262   22.7991  -16.0687 N   0  0  0  0  0  0  0  0  0  0  0  0
   -6.1331   24.0081  -16.8353 C   0  0  0  0  0  0  0  0  0  0  0  0
   -4.7146   24.5269  -16.7145 C   0  0  0  0  0  0  0  0  0  0  0  0
   -3.7702   23.6127  -17.1695 O   0  0  0  0  0  0  0  0  0  0  0  0
   -4.2541   22.3112  -17.2154 C   0  0  0  0  0  0  0  0  0  0  0  0
   -5.0740   22.1092  -15.9557 C   0  0  0  0  0  0  0  0  0  0  0  0
   -3.1043   22.9918  -20.7738 C   0  0  0  0  0  0  0  0  0  0  0  0
   -2.1988   21.8342  -20.4212 C   0  0  0  0  0  0  0  0  0  0  0  0
   -0.8598   22.2134  -19.8805 C   0  0  0  0  0  0  0  0  0  0  0  0
   -0.0178   21.0357  -19.8510 N   0  0  0  0  0  0  0  0  0  0  0  0
   -0.4775   19.9316  -20.6137 C   0  0  0  0  0  0  0  0  0  0  0  0
    0.4724   18.7812  -20.6649 C   0  0  0  0  0  0  0  0  0  0  0  0
    1.7545   19.2286  -21.1396 N   0  0  0  0  0  0  0  0  0  0  0  0
    1.9678   20.6723  -21.2407 C   0  0  0  0  0  0  0  0  0  0  0  0
    1.3723   21.3849  -20.0433 C   0  0  0  0  0  0  0  0  0  0  0  0
    2.8007   18.3404  -21.5028 C   0  0  0  0  0  0  0  0  0  0  0  0
    3.8941   18.7912  -21.9105 O   0  0  0  0  0  0  0  0  0  0  0  0
    2.6111   16.9162  -21.4044 C   0  0  0  0  0  0  0  0  0  0  0  0
    3.0462   16.0527  -22.3041 C   0  0  0  0  0  0  0  0  0  0  0  0
 19 20  1  0  0  0
 20 12  1  0  0  0
 12 13  2  0  0  0
 13 14  1  0  0  0
 14 21  1  0  0  0
 21 22  1  0  0  0
 14 15  2  0  0  0
 15 16  1  0  0  0
 15 17  1  0  0  0
 17 18  2  0  0  0
 17  1  1  0  0  0
  1  2  2  0  0  0
  2  3  1  0  0  0
  3  4  2  0  0  0
  4  5  1  0  0  0
  5  6  2  0  0  0
  6 23  1  0  0  0
 23 25  1  0  0  0
 25 26  1  0  0  0
 26 27  1  0  0  0
 27 28  1  0  0  0
 28 29  1  0  0  0
 29 30  1  0  0  0
 30 31  1  0  0  0
 31 32  1  0  0  0
  6  7  1  0  0  0
  7  8  2  0  0  0
  8  9  1  0  0  0
  9 33  1  0  0  0
 33 34  1  0  0  0
 34 35  1  0  0  0
 35 36  1  0  0  0
 36 37  1  0  0  0
 37 38  1  0  0  0
 38 39  1  0  0  0
 39 40  1  0  0  0
 40 41  1  0  0  0
 39 42  1  0  0  0
 42 43  2  0  0  0
 42 44  1  0  0  0
 44 45  2  0  0  0
  9 10  1  0  0  0
 10 11  2  0  0  0
 18 12  1  0  0  0
 10  1  1  0  0  0
  8  3  1  0  0  0
 41 36  1  0  0  0
 32 27  1  0  0  0
 23 24  1  0  0  0
M  END
> <minimizedAffinity>
-7.25252

> <CNNscore>
0.0459210463

> <CNNaffinity>
6.3933124542

> <CNN_VS>
0.2935875952

> <CNNaffinity_variance>
0.7246471643

$$$$
[H]c1nc([H])c(C([H])([H])n2nc(C([H])([H])[H])c(-c3nc([H])c4c(c3[H])N(C([H])([H])C([H])([H])[H])C(=O)N(c3c(F)c(OC([H])([H])[H])c([H])c(OC([H])([H])[H])c3F)C4([H])[H])c2[H])c([H])c1[H]


 38 42  0  0  0  0  0  0  0  0999 V2000
   -3.3479   21.6632  -24.1111 N   0  0  0  0  0  0  0  0  0  0  0  0
   -4.1167   22.2291  -25.1890 C   0  0  0  0  0  0  0  0  0  0  0  0
   -5.3670   22.2388  -25.1489 O   0  0  0  0  0  0  0  0  0  0  0  0
   -3.4186   22.7810  -26.3109 N   0  0  0  0  0  0  0  0  0  0  0  0
   -2.1000   22.3902  -26.6492 C   0  0  0  0  0  0  0  0  0  0  0  0
   -1.3065   22.1768  -25.4089 C   0  0  0  0  0  0  0  0  0  0  0  0
    0.0759   22.3313  -25.3943 C   0  0  0  0  0  0  0  0  0  0  0  0
    0.8260   22.0182  -24.3231 N   0  0  0  0  0  0  0  0  0  0  0  0
    0.2343   21.5370  -23.2182 C   0  0  0  0  0  0  0  0  0  0  0  0
   -1.1243   21.3797  -23.2130 C   0  0  0  0  0  0  0  0  0  0  0  0
   -1.9452   21.6900  -24.2890 C   0  0  0  0  0  0  0  0  0  0  0  0
   -4.1467   23.8268  -27.0031 C   0  0  0  0  0  0  0  0  0  0  0  0
   -4.5678   23.5458  -28.2759 C   0  0  0  0  0  0  0  0  0  0  0  0
   -4.3684   22.3489  -28.8533 F   0  0  0  0  0  0  0  0  0  0  0  0
   -5.2439   24.5290  -29.0423 C   0  0  0  0  0  0  0  0  0  0  0  0
   -5.4632   25.7848  -28.4530 C   0  0  0  0  0  0  0  0  0  0  0  0
   -5.0337   26.0652  -27.1534 C   0  0  0  0  0  0  0  0  0  0  0  0
   -4.3863   25.0595  -26.4809 C   0  0  0  0  0  0  0  0  0  0  0  0
   -3.9351   25.2550  -25.1992 F   0  0  0  0  0  0  0  0  0  0  0  0
   -5.6239   24.2222  -30.2519 O   0  0  0  0  0  0  0  0  0  0  0  0
   -6.0034   23.9191  -31.4364 C   0  0  0  0  0  0  0  0  0  0  0  0
   -5.2444   27.2987  -26.5683 O   0  0  0  0  0  0  0  0  0  0  0  0
   -5.6176   27.5151  -25.2409 C   0  0  0  0  0  0  0  0  0  0  0  0
    1.0208   21.2197  -22.0031 C   0  0  0  0  0  0  0  0  0  0  0  0
    0.5746   21.3835  -20.7137 C   0  0  0  0  0  0  0  0  0  0  0  0
    1.5425   21.0122  -19.8383 N   0  0  0  0  0  0  0  0  0  0  0  0
    2.5764   20.6240  -20.5599 N   0  0  0  0  0  0  0  0  0  0  0  0
    2.2964   20.7365  -21.8871 C   0  0  0  0  0  0  0  0  0  0  0  0
    3.2250   20.3802  -22.9850 C   0  0  0  0  0  0  0  0  0  0  0  0
    1.4731   21.0604  -18.3711 C   0  0  0  0  0  0  0  0  0  0  0  0
    2.2702   22.2207  -17.9587 C   0  0  0  0  0  0  0  0  0  0  0  0
    3.3475   22.0653  -17.1327 C   0  0  0  0  0  0  0  0  0  0  0  0
    4.1345   23.1261  -16.7154 C   0  0  0  0  0  0  0  0  0  0  0  0
    3.7714   24.3618  -17.1864 C   0  0  0  0  0  0  0  0  0  0  0  0
    2.7080   24.5299  -18.0060 N   0  0  0  0  0  0  0  0  0  0  0  0
    1.9558   23.4770  -18.3948 C   0  0  0  0  0  0  0  0  0  0  0  0
   -4.3000   22.2677  -22.0053 C   0  0  0  0  0  0  0  0  0  0  0  0
   -3.9953   21.1076  -22.9524 C   0  0  0  0  0  0  0  0  0  0  0  0
 37 38  1  0  0  0
 38  1  1  0  0  0
  1  2  1  0  0  0
  2  3  2  0  0  0
  2  4  1  0  0  0
  4  5  1  0  0  0
  5  6  1  0  0  0
  6  7  2  0  0  0
  7  8  1  0  0  0
  8  9  2  0  0  0
  9 10  1  0  0  0
 10 11  2  0  0  0
  9 24  1  0  0  0
 24 25  2  0  0  0
 25 26  1  0  0  0
 26 30  1  0  0  0
 30 31  1  0  0  0
 31 32  2  0  0  0
 32 33  1  0  0  0
 33 34  2  0  0  0
 34 35  1  0  0  0
 35 36  2  0  0  0
 26 27  1  0  0  0
 27 28  2  0  0  0
 28 29  1  0  0  0
  4 12  1  0  0  0
 12 13  2  0  0  0
 13 14  1  0  0  0
 13 15  1  0  0  0
 15 20  1  0  0  0
 20 21  1  0  0  0
 15 16  2  0  0  0
 16 17  1  0  0  0
 17 22  1  0  0  0
 22 23  1  0  0  0
 17 18  2  0  0  0
 18 19  1  0  0  0
 11  1  1  0  0  0
 28 24  1  0  0  0
 18 12  1  0  0  0
 11  6  1  0  0  0
 36 31  1  0  0  0
M  END
> <minimizedAffinity>
-8.85388

> <CNNscore>
0.3868550658

> <CNNaffinity>
7.4420852661

> <CNN_VS>
2.8790082932

> <CNNaffinity_variance>
0.0676450878

$$$$
[H]c1nc([H])c(C([H])([H])n2nc(C([H])([H])[H])c(-c3nc([H])c4c(c3[H])N(C([H])([H])C([H])([H])[H])C(=O)N(c3c(F)c(OC([H])([H])[H])c([H])c(OC([H])([H])[H])c3F)C4([H])[H])c2[H])c([H])c1[H]


 38 42  0  0  0  0  0  0  0  0999 V2000
   -3.1266   21.6148  -24.0704 N   0  0  0  0  0  0  0  0  0  0  0  0
   -3.8394   22.1465  -25.2029 C   0  0  0  0  0  0  0  0  0  0  0  0
   -5.0901   22.1644  -25.2227 O   0  0  0  0  0  0  0  0  0  0  0  0
   -3.0850   22.6546  -26.3089 N   0  0  0  0  0  0  0  0  0  0  0  0
   -1.7547   22.2450  -26.5702 C   0  0  0  0  0  0  0  0  0  0  0  0
   -1.0224   22.0712  -25.2868 C   0  0  0  0  0  0  0  0  0  0  0  0
    0.3588   22.2185  -25.2118 C   0  0  0  0  0  0  0  0  0  0  0  0
    1.0551   21.9393  -24.0959 N   0  0  0  0  0  0  0  0  0  0  0  0
    0.4083   21.5007  -23.0042 C   0  0  0  0  0  0  0  0  0  0  0  0
   -0.9501   21.3511  -23.0582 C   0  0  0  0  0  0  0  0  0  0  0  0
   -1.7169   21.6277  -24.1822 C   0  0  0  0  0  0  0  0  0  0  0  0
   -3.7720   23.6793  -27.0712 C   0  0  0  0  0  0  0  0  0  0  0  0
   -4.1539   24.8036  -26.3882 C   0  0  0  0  0  0  0  0  0  0  0  0
   -3.8715   24.9874  -25.0874 F   0  0  0  0  0  0  0  0  0  0  0  0
   -4.8739   25.8334  -27.0455 C   0  0  0  0  0  0  0  0  0  0  0  0
   -5.1751   25.6588  -28.4061 C   0  0  0  0  0  0  0  0  0  0  0  0
   -4.7809   24.5112  -29.0985 C   0  0  0  0  0  0  0  0  0  0  0  0
   -4.0891   23.5623  -28.3885 C   0  0  0  0  0  0  0  0  0  0  0  0
   -3.6648   22.4073  -28.9971 F   0  0  0  0  0  0  0  0  0  0  0  0
   -5.2228   26.8854  -26.3574 O   0  0  0  0  0  0  0  0  0  0  0  0
   -5.5582   27.9199  -25.6821 C   0  0  0  0  0  0  0  0  0  0  0  0
   -5.0753   24.3320  -30.4362 O   0  0  0  0  0  0  0  0  0  0  0  0
   -5.5864   25.3077  -31.2934 C   0  0  0  0  0  0  0  0  0  0  0  0
    1.1341   21.2222  -21.7427 C   0  0  0  0  0  0  0  0  0  0  0  0
    0.6636   21.5144  -20.4849 C   0  0  0  0  0  0  0  0  0  0  0  0
    1.5762   21.1436  -19.5517 N   0  0  0  0  0  0  0  0  0  0  0  0
    2.5998   20.6302  -20.2068 N   0  0  0  0  0  0  0  0  0  0  0  0
    2.3674   20.6610  -21.5475 C   0  0  0  0  0  0  0  0  0  0  0  0
    3.2992   20.1581  -22.5835 C   0  0  0  0  0  0  0  0  0  0  0  0
    1.4678   21.3078  -18.0954 C   0  0  0  0  0  0  0  0  0  0  0  0
    2.3501   22.4245  -17.7398 C   0  0  0  0  0  0  0  0  0  0  0  0
    3.4294   22.2250  -16.9258 C   0  0  0  0  0  0  0  0  0  0  0  0
    4.2950   23.2433  -16.5614 C   0  0  0  0  0  0  0  0  0  0  0  0
    4.0087   24.4832  -17.0727 C   0  0  0  0  0  0  0  0  0  0  0  0
    2.9444   24.6946  -17.8809 N   0  0  0  0  0  0  0  0  0  0  0  0
    2.1146   23.6827  -18.2178 C   0  0  0  0  0  0  0  0  0  0  0  0
   -4.1735   22.2985  -22.0351 C   0  0  0  0  0  0  0  0  0  0  0  0
   -3.8321   21.1040  -22.9251 C   0  0  0  0  0  0  0  0  0  0  0  0
 37 38  1  0  0  0
 38  1  1  0  0  0
  1  2  1  0  0  0
  2  3  2  0  0  0
  2  4  1  0  0  0
  4  5  1  0  0  0
  5  6  1  0  0  0
  6  7  2  0  0  0
  7  8  1  0  0  0
  8  9  2  0  0  0
  9 10  1  0  0  0
 10 11  2  0  0  0
  9 24  1  0  0  0
 24 25  2  0  0  0
 25 26  1  0  0  0
 26 30  1  0  0  0
 30 31  1  0  0  0
 31 32  2  0  0  0
 32 33  1  0  0  0
 33 34  2  0  0  0
 34 35  1  0  0  0
 35 36  2  0  0  0
 26 27  1  0  0  0
 27 28  2  0  0  0
 28 29  1  0  0  0
  4 12  1  0  0  0
 12 13  2  0  0  0
 13 14  1  0  0  0
 13 15  1  0  0  0
 15 20  1  0  0  0
 20 21  1  0  0  0
 15 16  2  0  0  0
 16 17  1  0  0  0
 17 22  1  0  0  0
 22 23  1  0  0  0
 17 18  2  0  0  0
 18 19  1  0  0  0
 11  1  1  0  0  0
 28 24  1  0  0  0
 18 12  1  0  0  0
 11  6  1  0  0  0
 36 31  1  0  0  0
M  END
> <minimizedAffinity>
-8.64451

> <CNNscore>
0.3429710865

> <CNNaffinity>
7.4061117172

> <CNN_VS>
2.5400822163

> <CNNaffinity_variance>
0.1088895574

$$$$
[H]c1nc([H])c(C([H])([H])n2nc(C([H])([H])[H])c(-c3nc([H])c4c(c3[H])N(C([H])([H])C([H])([H])[H])C(=O)N(c3c(F)c(OC([H])([H])[H])c([H])c(OC([H])([H])[H])c3F)C4([H])[H])c2[H])c([H])c1[H]


 38 42  0  0  0  0  0  0  0  0999 V2000
   -3.3959   21.6793  -24.1196 N   0  0  0  0  0  0  0  0  0  0  0  0
   -4.1557   22.2545  -25.1990 C   0  0  0  0  0  0  0  0  0  0  0  0
   -5.4057   22.2846  -25.1587 O   0  0  0  0  0  0  0  0  0  0  0  0
   -3.4490   22.7918  -26.3227 N   0  0  0  0  0  0  0  0  0  0  0  0
   -2.1370   22.3787  -26.6601 C   0  0  0  0  0  0  0  0  0  0  0  0
   -1.3468   22.1559  -25.4193 C   0  0  0  0  0  0  0  0  0  0  0  0
    0.0380   22.2880  -25.4055 C   0  0  0  0  0  0  0  0  0  0  0  0
    0.7832   21.9657  -24.3336 N   0  0  0  0  0  0  0  0  0  0  0  0
    0.1840   21.4975  -23.2271 C   0  0  0  0  0  0  0  0  0  0  0  0
   -1.1769   21.3623  -23.2212 C   0  0  0  0  0  0  0  0  0  0  0  0
   -1.9930   21.6828  -24.2979 C   0  0  0  0  0  0  0  0  0  0  0  0
   -4.1602   23.8473  -27.0177 C   0  0  0  0  0  0  0  0  0  0  0  0
   -4.5837   23.5705  -28.2906 C   0  0  0  0  0  0  0  0  0  0  0  0
   -4.4018   22.3697  -28.8656 F   0  0  0  0  0  0  0  0  0  0  0  0
   -5.2438   24.5625  -29.0597 C   0  0  0  0  0  0  0  0  0  0  0  0
   -5.4448   25.8225  -28.4728 C   0  0  0  0  0  0  0  0  0  0  0  0
   -5.0129   26.0986  -27.1732 C   0  0  0  0  0  0  0  0  0  0  0  0
   -4.3817   25.0844  -26.4980 C   0  0  0  0  0  0  0  0  0  0  0  0
   -3.9295   25.2753  -25.2160 F   0  0  0  0  0  0  0  0  0  0  0  0
   -5.6268   24.2593  -30.2693 O   0  0  0  0  0  0  0  0  0  0  0  0
   -6.0093   23.9604  -31.4538 C   0  0  0  0  0  0  0  0  0  0  0  0
   -5.2056   27.3362  -26.5905 O   0  0  0  0  0  0  0  0  0  0  0  0
   -5.5992   27.5601  -25.2703 C   0  0  0  0  0  0  0  0  0  0  0  0
    0.9656   21.1709  -22.0113 C   0  0  0  0  0  0  0  0  0  0  0  0
    2.1258   20.4344  -21.9978 C   0  0  0  0  0  0  0  0  0  0  0  0
    2.5795   20.3089  -20.7252 N   0  0  0  0  0  0  0  0  0  0  0  0
    1.7235   20.9509  -19.9535 N   0  0  0  0  0  0  0  0  0  0  0  0
    0.7235   21.4907  -20.7024 C   0  0  0  0  0  0  0  0  0  0  0  0
   -0.4050   22.2869  -20.1666 C   0  0  0  0  0  0  0  0  0  0  0  0
    3.7727   19.5752  -20.2806 C   0  0  0  0  0  0  0  0  0  0  0  0
    3.7091   18.2575  -20.9222 C   0  0  0  0  0  0  0  0  0  0  0  0
    4.5195   17.9610  -21.9817 C   0  0  0  0  0  0  0  0  0  0  0  0
    4.5015   16.7325  -22.6216 C   0  0  0  0  0  0  0  0  0  0  0  0
    3.6147   15.8122  -22.1245 C   0  0  0  0  0  0  0  0  0  0  0  0
    2.8075   16.0919  -21.0752 N   0  0  0  0  0  0  0  0  0  0  0  0
    2.8443   17.3003  -20.4718 C   0  0  0  0  0  0  0  0  0  0  0  0
   -4.3093   22.3005  -22.0016 C   0  0  0  0  0  0  0  0  0  0  0  0
   -4.0520   21.1376  -22.9592 C   0  0  0  0  0  0  0  0  0  0  0  0
 37 38  1  0  0  0
 38  1  1  0  0  0
  1  2  1  0  0  0
  2  3  2  0  0  0
  2  4  1  0  0  0
  4  5  1  0  0  0
  5  6  1  0  0  0
  6  7  2  0  0  0
  7  8  1  0  0  0
  8  9  2  0  0  0
  9 10  1  0  0  0
 10 11  2  0  0  0
  9 24  1  0  0  0
 24 25  2  0  0  0
 25 26  1  0  0  0
 26 30  1  0  0  0
 30 31  1  0  0  0
 31 32  2  0  0  0
 32 33  1  0  0  0
 33 34  2  0  0  0
 34 35  1  0  0  0
 35 36  2  0  0  0
 26 27  1  0  0  0
 27 28  2  0  0  0
 28 29  1  0  0  0
  4 12  1  0  0  0
 12 13  2  0  0  0
 13 14  1  0  0  0
 13 15  1  0  0  0
 15 20  1  0  0  0
 20 21  1  0  0  0
 15 16  2  0  0  0
 16 17  1  0  0  0
 17 22  1  0  0  0
 22 23  1  0  0  0
 17 18  2  0  0  0
 18 19  1  0  0  0
 11  1  1  0  0  0
 28 24  1  0  0  0
 18 12  1  0  0  0
 11  6  1  0  0  0
 36 31  1  0  0  0
M  END
> <minimizedAffinity>
-8.29251

> <CNNscore>
0.3397617340

> <CNNaffinity>
7.4099121094

> <CNN_VS>
2.5176045895

> <CNNaffinity_variance>
0.0926628709

$$$$
[H]c1nc([H])c(C([H])([H])n2nc(C([H])([H])[H])c(-c3nc([H])c4c(c3[H])N(C([H])([H])C([H])([H])[H])C(=O)N(c3c(F)c(OC([H])([H])[H])c([H])c(OC([H])([H])[H])c3F)C4([H])[H])c2[H])c([H])c1[H]


 38 42  0  0  0  0  0  0  0  0999 V2000
   -3.3808   21.6934  -24.1713 N   0  0  0  0  0  0  0  0  0  0  0  0
   -4.1519   22.2664  -25.2439 C   0  0  0  0  0  0  0  0  0  0  0  0
   -5.4017   22.2883  -25.1947 O   0  0  0  0  0  0  0  0  0  0  0  0
   -3.4566   22.8109  -26.3712 N   0  0  0  0  0  0  0  0  0  0  0  0
   -2.1444   22.4070  -26.7189 C   0  0  0  0  0  0  0  0  0  0  0  0
   -1.3440   22.1864  -25.4843 C   0  0  0  0  0  0  0  0  0  0  0  0
    0.0399   22.3274  -25.4798 C   0  0  0  0  0  0  0  0  0  0  0  0
    0.7947   22.0074  -24.4141 N   0  0  0  0  0  0  0  0  0  0  0  0
    0.2064   21.5326  -23.3045 C   0  0  0  0  0  0  0  0  0  0  0  0
   -1.1535   21.3886  -23.2894 C   0  0  0  0  0  0  0  0  0  0  0  0
   -1.9792   21.7064  -24.3595 C   0  0  0  0  0  0  0  0  0  0  0  0
   -4.1794   23.8635  -27.0586 C   0  0  0  0  0  0  0  0  0  0  0  0
   -4.6005   23.5910  -28.3333 C   0  0  0  0  0  0  0  0  0  0  0  0
   -4.4057   22.3963  -28.9167 F   0  0  0  0  0  0  0  0  0  0  0  0
   -5.2715   24.5811  -29.0952 C   0  0  0  0  0  0  0  0  0  0  0  0
   -5.4860   25.8347  -28.4994 C   0  0  0  0  0  0  0  0  0  0  0  0
   -5.0566   26.1064  -27.1980 C   0  0  0  0  0  0  0  0  0  0  0  0
   -4.4142   25.0944  -26.5302 C   0  0  0  0  0  0  0  0  0  0  0  0
   -3.9635   25.2812  -25.2470 F   0  0  0  0  0  0  0  0  0  0  0  0
   -5.6517   24.2822  -30.3067 O   0  0  0  0  0  0  0  0  0  0  0  0
   -6.0179   23.9895  -31.4980 C   0  0  0  0  0  0  0  0  0  0  0  0
   -5.2625   27.3377  -26.6066 O   0  0  0  0  0  0  0  0  0  0  0  0
   -5.6418   27.5487  -25.2802 C   0  0  0  0  0  0  0  0  0  0  0  0
    0.9987   21.2081  -22.0951 C   0  0  0  0  0  0  0  0  0  0  0  0
    0.5368   21.3047  -20.8044 C   0  0  0  0  0  0  0  0  0  0  0  0
    1.5150   20.9469  -19.9348 N   0  0  0  0  0  0  0  0  0  0  0  0
    2.5705   20.6328  -20.6612 N   0  0  0  0  0  0  0  0  0  0  0  0
    2.2944   20.7801  -21.9858 C   0  0  0  0  0  0  0  0  0  0  0  0
    3.2457   20.5065  -23.0879 C   0  0  0  0  0  0  0  0  0  0  0  0
    1.4336   20.9390  -18.4675 C   0  0  0  0  0  0  0  0  0  0  0  0
    0.4578   19.9021  -18.1144 C   0  0  0  0  0  0  0  0  0  0  0  0
    0.7451   18.5812  -18.3134 C   0  0  0  0  0  0  0  0  0  0  0  0
   -0.1388   17.5631  -17.9954 C   0  0  0  0  0  0  0  0  0  0  0  0
   -1.3370   17.9576  -17.4573 C   0  0  0  0  0  0  0  0  0  0  0  0
   -1.6339   19.2618  -17.2535 N   0  0  0  0  0  0  0  0  0  0  0  0
   -0.7533   20.2346  -17.5760 C   0  0  0  0  0  0  0  0  0  0  0  0
   -4.3094   22.3079  -22.0580 C   0  0  0  0  0  0  0  0  0  0  0  0
   -4.0251   21.1447  -23.0076 C   0  0  0  0  0  0  0  0  0  0  0  0
 37 38  1  0  0  0
 38  1  1  0  0  0
  1  2  1  0  0  0
  2  3  2  0  0  0
  2  4  1  0  0  0
  4  5  1  0  0  0
  5  6  1  0  0  0
  6  7  2  0  0  0
  7  8  1  0  0  0
  8  9  2  0  0  0
  9 10  1  0  0  0
 10 11  2  0  0  0
  9 24  1  0  0  0
 24 25  2  0  0  0
 25 26  1  0  0  0
 26 30  1  0  0  0
 30 31  1  0  0  0
 31 32  2  0  0  0
 32 33  1  0  0  0
 33 34  2  0  0  0
 34 35  1  0  0  0
 35 36  2  0  0  0
 26 27  1  0  0  0
 27 28  2  0  0  0
 28 29  1  0  0  0
  4 12  1  0  0  0
 12 13  2  0  0  0
 13 14  1  0  0  0
 13 15  1  0  0  0
 15 20  1  0  0  0
 20 21  1  0  0  0
 15 16  2  0  0  0
 16 17  1  0  0  0
 17 22  1  0  0  0
 22 23  1  0  0  0
 17 18  2  0  0  0
 18 19  1  0  0  0
 11  1  1  0  0  0
 28 24  1  0  0  0
 18 12  1  0  0  0
 11  6  1  0  0  0
 36 31  1  0  0  0
M  END
> <minimizedAffinity>
-8.08533

> <CNNscore>
0.3172726929

> <CNNaffinity>
7.4941511154

> <CNN_VS>
2.3776896000

> <CNNaffinity_variance>
0.1762166023

$$$$
[H]c1nc([H])c(C([H])([H])n2nc(C([H])([H])[H])c(-c3nc([H])c4c(c3[H])N(C([H])([H])C([H])([H])[H])C(=O)N(c3c(F)c(OC([H])([H])[H])c([H])c(OC([H])([H])[H])c3F)C4([H])[H])c2[H])c([H])c1[H]


 38 42  0  0  0  0  0  0  0  0999 V2000
   -0.7313   22.1681  -21.4842 N   0  0  0  0  0  0  0  0  0  0  0  0
    0.0905   21.5314  -20.4880 C   0  0  0  0  0  0  0  0  0  0  0  0
   -0.2164   21.5807  -19.2762 O   0  0  0  0  0  0  0  0  0  0  0  0
    1.2698   20.8398  -20.9142 N   0  0  0  0  0  0  0  0  0  0  0  0
    1.9217   21.1364  -22.1360 C   0  0  0  0  0  0  0  0  0  0  0  0
    0.9097   21.4380  -23.1840 C   0  0  0  0  0  0  0  0  0  0  0  0
    1.1740   21.2252  -24.5331 C   0  0  0  0  0  0  0  0  0  0  0  0
    0.3277   21.6108  -25.5042 N   0  0  0  0  0  0  0  0  0  0  0  0
   -0.8200   22.2257  -25.1766 C   0  0  0  0  0  0  0  0  0  0  0  0
   -1.0982   22.4423  -23.8552 C   0  0  0  0  0  0  0  0  0  0  0  0
   -0.2620   22.0621  -22.8140 C   0  0  0  0  0  0  0  0  0  0  0  0
    1.6743   19.7629  -20.0312 C   0  0  0  0  0  0  0  0  0  0  0  0
    1.0175   18.5693  -20.1739 C   0  0  0  0  0  0  0  0  0  0  0  0
    0.0764   18.3722  -21.1126 F   0  0  0  0  0  0  0  0  0  0  0  0
    1.3162   17.4783  -19.3185 C   0  0  0  0  0  0  0  0  0  0  0  0
    2.2995   17.6663  -18.3335 C   0  0  0  0  0  0  0  0  0  0  0  0
    2.9681   18.8851  -18.1941 C   0  0  0  0  0  0  0  0  0  0  0  0
    2.6186   19.8898  -19.0609 C   0  0  0  0  0  0  0  0  0  0  0  0
    3.2307   21.1165  -18.9902 F   0  0  0  0  0  0  0  0  0  0  0  0
    0.6644   16.3607  -19.4848 O   0  0  0  0  0  0  0  0  0  0  0  0
    0.0186   15.2671  -19.6458 C   0  0  0  0  0  0  0  0  0  0  0  0
    3.9348   19.0775  -17.2263 O   0  0  0  0  0  0  0  0  0  0  0  0
    3.7428   19.7207  -16.0026 C   0  0  0  0  0  0  0  0  0  0  0  0
   -1.7978   22.6284  -26.2146 C   0  0  0  0  0  0  0  0  0  0  0  0
   -3.1541   22.7308  -26.0183 C   0  0  0  0  0  0  0  0  0  0  0  0
   -3.7614   23.1089  -27.1713 N   0  0  0  0  0  0  0  0  0  0  0  0
   -2.8091   23.2407  -28.0746 N   0  0  0  0  0  0  0  0  0  0  0  0
   -1.5956   22.9553  -27.5285 C   0  0  0  0  0  0  0  0  0  0  0  0
   -0.3039   23.0097  -28.2517 C   0  0  0  0  0  0  0  0  0  0  0  0
   -5.2016   23.3042  -27.3888 C   0  0  0  0  0  0  0  0  0  0  0  0
   -5.3278   24.1397  -28.5879 C   0  0  0  0  0  0  0  0  0  0  0  0
   -5.5357   23.5702  -29.8125 C   0  0  0  0  0  0  0  0  0  0  0  0
   -5.6644   24.3125  -30.9750 C   0  0  0  0  0  0  0  0  0  0  0  0
   -5.5742   25.6731  -30.8289 C   0  0  0  0  0  0  0  0  0  0  0  0
   -5.3700   26.2503  -29.6223 N   0  0  0  0  0  0  0  0  0  0  0  0
   -5.2452   25.5010  -28.5048 C   0  0  0  0  0  0  0  0  0  0  0  0
   -3.0519   21.8249  -21.0331 C   0  0  0  0  0  0  0  0  0  0  0  0
   -1.9351   22.8649  -21.1155 C   0  0  0  0  0  0  0  0  0  0  0  0
 37 38  1  0  0  0
 38  1  1  0  0  0
  1  2  1  0  0  0
  2  3  2  0  0  0
  2  4  1  0  0  0
  4  5  1  0  0  0
  5  6  1  0  0  0
  6  7  2  0  0  0
  7  8  1  0  0  0
  8  9  2  0  0  0
  9 10  1  0  0  0
 10 11  2  0  0  0
  9 24  1  0  0  0
 24 25  2  0  0  0
 25 26  1  0  0  0
 26 30  1  0  0  0
 30 31  1  0  0  0
 31 32  2  0  0  0
 32 33  1  0  0  0
 33 34  2  0  0  0
 34 35  1  0  0  0
 35 36  2  0  0  0
 26 27  1  0  0  0
 27 28  2  0  0  0
 28 29  1  0  0  0
  4 12  1  0  0  0
 12 13  2  0  0  0
 13 14  1  0  0  0
 13 15  1  0  0  0
 15 20  1  0  0  0
 20 21  1  0  0  0
 15 16  2  0  0  0
 16 17  1  0  0  0
 17 22  1  0  0  0
 22 23  1  0  0  0
 17 18  2  0  0  0
 18 19  1  0  0  0
 11  1  1  0  0  0
 28 24  1  0  0  0
 18 12  1  0  0  0
 11  6  1  0  0  0
 36 31  1  0  0  0
M  END
> <minimizedAffinity>
-8.10656

> <CNNscore>
0.2710417211

> <CNNaffinity>
7.1200919151

> <CNN_VS>
1.9298419952

> <CNNaffinity_variance>
0.0516303964

$$$$
[H]c1nc([H])c(C([H])([H])n2nc(C([H])([H])[H])c(-c3nc([H])c4c(c3[H])N(C([H])([H])C([H])([H])[H])C(=O)N(c3c(F)c(OC([H])([H])[H])c([H])c(OC([H])([H])[H])c3F)C4([H])[H])c2[H])c([H])c1[H]


 38 42  0  0  0  0  0  0  0  0999 V2000
   -1.3549   22.3143  -21.7630 N   0  0  0  0  0  0  0  0  0  0  0  0
   -0.5988   21.7245  -20.6889 C   0  0  0  0  0  0  0  0  0  0  0  0
   -1.0159   21.7701  -19.5104 O   0  0  0  0  0  0  0  0  0  0  0  0
    0.6440   21.0840  -20.9986 N   0  0  0  0  0  0  0  0  0  0  0  0
    1.3898   21.3996  -22.1604 C   0  0  0  0  0  0  0  0  0  0  0  0
    0.4641   21.6454  -23.2990 C   0  0  0  0  0  0  0  0  0  0  0  0
    0.8587   21.4334  -24.6160 C   0  0  0  0  0  0  0  0  0  0  0  0
    0.0872   21.7715  -25.6641 N   0  0  0  0  0  0  0  0  0  0  0  0
   -1.1118   22.3360  -25.4489 C   0  0  0  0  0  0  0  0  0  0  0  0
   -1.5178   22.5509  -24.1607 C   0  0  0  0  0  0  0  0  0  0  0  0
   -0.7629   22.2184  -23.0438 C   0  0  0  0  0  0  0  0  0  0  0  0
    1.0149   20.0343  -20.0692 C   0  0  0  0  0  0  0  0  0  0  0  0
    1.8288   20.3929  -19.0274 C   0  0  0  0  0  0  0  0  0  0  0  0
    2.2337   21.6591  -18.8319 F   0  0  0  0  0  0  0  0  0  0  0  0
    2.2793   19.4193  -18.0999 C   0  0  0  0  0  0  0  0  0  0  0  0
    1.8631   18.0912  -18.2877 C   0  0  0  0  0  0  0  0  0  0  0  0
    1.0309   17.7315  -19.3507 C   0  0  0  0  0  0  0  0  0  0  0  0
    0.6413   18.7336  -20.2033 C   0  0  0  0  0  0  0  0  0  0  0  0
   -0.1778   18.4622  -21.2709 F   0  0  0  0  0  0  0  0  0  0  0  0
    3.0570   19.8018  -17.1249 O   0  0  0  0  0  0  0  0  0  0  0  0
    3.8252   20.1793  -16.1729 C   0  0  0  0  0  0  0  0  0  0  0  0
    0.6192   16.4269  -19.5425 O   0  0  0  0  0  0  0  0  0  0  0  0
    0.6759   15.4086  -18.5897 C   0  0  0  0  0  0  0  0  0  0  0  0
   -2.0089   22.6844  -26.5756 C   0  0  0  0  0  0  0  0  0  0  0  0
   -3.3799   22.7412  -26.4994 C   0  0  0  0  0  0  0  0  0  0  0  0
   -3.8972   23.0765  -27.7082 N   0  0  0  0  0  0  0  0  0  0  0  0
   -2.8749   23.2266  -28.5285 N   0  0  0  0  0  0  0  0  0  0  0  0
   -1.7045   22.9951  -27.8737 C   0  0  0  0  0  0  0  0  0  0  0  0
   -0.3573   23.0832  -28.4836 C   0  0  0  0  0  0  0  0  0  0  0  0
   -5.3188   23.2157  -28.0533 C   0  0  0  0  0  0  0  0  0  0  0  0
   -5.3911   24.2461  -29.0949 C   0  0  0  0  0  0  0  0  0  0  0  0
   -5.6120   23.9017  -30.3986 C   0  0  0  0  0  0  0  0  0  0  0  0
   -5.6917   24.8345  -31.4197 C   0  0  0  0  0  0  0  0  0  0  0  0
   -5.5383   26.1450  -31.0460 C   0  0  0  0  0  0  0  0  0  0  0  0
   -5.3205   26.5002  -29.7587 N   0  0  0  0  0  0  0  0  0  0  0  0
   -5.2445   25.5684  -28.7831 C   0  0  0  0  0  0  0  0  0  0  0  0
   -3.6733   21.8585  -21.4116 C   0  0  0  0  0  0  0  0  0  0  0  0
   -2.6171   22.9584  -21.5130 C   0  0  0  0  0  0  0  0  0  0  0  0
 37 38  1  0  0  0
 38  1  1  0  0  0
  1  2  1  0  0  0
  2  3  2  0  0  0
  2  4  1  0  0  0
  4  5  1  0  0  0
  5  6  1  0  0  0
  6  7  2  0  0  0
  7  8  1  0  0  0
  8  9  2  0  0  0
  9 10  1  0  0  0
 10 11  2  0  0  0
  9 24  1  0  0  0
 24 25  2  0  0  0
 25 26  1  0  0  0
 26 30  1  0  0  0
 30 31  1  0  0  0
 31 32  2  0  0  0
 32 33  1  0  0  0
 33 34  2  0  0  0
 34 35  1  0  0  0
 35 36  2  0  0  0
 26 27  1  0  0  0
 27 28  2  0  0  0
 28 29  1  0  0  0
  4 12  1  0  0  0
 12 13  2  0  0  0
 13 14  1  0  0  0
 13 15  1  0  0  0
 15 20  1  0  0  0
 20 21  1  0  0  0
 15 16  2  0  0  0
 16 17  1  0  0  0
 17 22  1  0  0  0
 22 23  1  0  0  0
 17 18  2  0  0  0
 18 19  1  0  0  0
 11  1  1  0  0  0
 28 24  1  0  0  0
 18 12  1  0  0  0
 11  6  1  0  0  0
 36 31  1  0  0  0
M  END
> <minimizedAffinity>
-8.19094

> <CNNscore>
0.2446572185

> <CNNaffinity>
7.1036505699

> <CNN_VS>
1.7379593849

> <CNNaffinity_variance>
0.0401664786

$$$$
[H]c1nc([H])c(C([H])([H])n2nc(C([H])([H])[H])c(-c3nc([H])c4c(c3[H])N(C([H])([H])C([H])([H])[H])C(=O)N(c3c(F)c(OC([H])([H])[H])c([H])c(OC([H])([H])[H])c3F)C4([H])[H])c2[H])c([H])c1[H]


 38 42  0  0  0  0  0  0  0  0999 V2000
   -5.4851   24.5363  -24.9463 N   0  0  0  0  0  0  0  0  0  0  0  0
   -4.3085   23.9450  -25.5287 C   0  0  0  0  0  0  0  0  0  0  0  0
   -3.6105   24.5807  -26.3496 O   0  0  0  0  0  0  0  0  0  0  0  0
   -3.9537   22.6108  -25.1485 N   0  0  0  0  0  0  0  0  0  0  0  0
   -4.9020   21.6916  -24.6371 C   0  0  0  0  0  0  0  0  0  0  0  0
   -5.8642   22.4035  -23.7534 C   0  0  0  0  0  0  0  0  0  0  0  0
   -6.5241   21.7478  -22.7191 C   0  0  0  0  0  0  0  0  0  0  0  0
   -7.4917   22.3350  -21.9932 N   0  0  0  0  0  0  0  0  0  0  0  0
   -7.8464   23.6013  -22.2639 C   0  0  0  0  0  0  0  0  0  0  0  0
   -7.2077   24.2630  -23.2761 C   0  0  0  0  0  0  0  0  0  0  0  0
   -6.2012   23.7056  -24.0535 C   0  0  0  0  0  0  0  0  0  0  0  0
   -2.5358   22.3247  -25.2520 C   0  0  0  0  0  0  0  0  0  0  0  0
   -1.8781   22.0378  -24.0852 C   0  0  0  0  0  0  0  0  0  0  0  0
   -2.5083   21.9717  -22.9002 F   0  0  0  0  0  0  0  0  0  0  0  0
   -0.4811   21.7942  -24.0892 C   0  0  0  0  0  0  0  0  0  0  0  0
    0.1928   21.8565  -25.3198 C   0  0  0  0  0  0  0  0  0  0  0  0
   -0.4834   22.1472  -26.5073 C   0  0  0  0  0  0  0  0  0  0  0  0
   -1.8340   22.3713  -26.4161 C   0  0  0  0  0  0  0  0  0  0  0  0
   -2.5706   22.6609  -27.5377 F   0  0  0  0  0  0  0  0  0  0  0  0
    0.1075   21.5293  -22.9556 O   0  0  0  0  0  0  0  0  0  0  0  0
    0.6898   21.2648  -21.8466 C   0  0  0  0  0  0  0  0  0  0  0  0
    0.1734   22.2119  -27.7209 O   0  0  0  0  0  0  0  0  0  0  0  0
   -0.0931   23.1261  -28.7412 C   0  0  0  0  0  0  0  0  0  0  0  0
   -8.8784   24.2974  -21.4600 C   0  0  0  0  0  0  0  0  0  0  0  0
   -9.7361   25.2561  -21.9435 C   0  0  0  0  0  0  0  0  0  0  0  0
  -10.5445   25.6987  -20.9476 N   0  0  0  0  0  0  0  0  0  0  0  0
  -10.2030   25.0345  -19.8601 N   0  0  0  0  0  0  0  0  0  0  0  0
   -9.1884   24.1692  -20.1328 C   0  0  0  0  0  0  0  0  0  0  0  0
   -8.5616   23.2568  -19.1483 C   0  0  0  0  0  0  0  0  0  0  0  0
  -11.5789   26.7379  -21.0449 C   0  0  0  0  0  0  0  0  0  0  0  0
  -10.9116   28.0120  -20.7564 C   0  0  0  0  0  0  0  0  0  0  0  0
  -11.5786   29.1951  -20.9067 C   0  0  0  0  0  0  0  0  0  0  0  0
  -10.9967   30.4249  -20.6458 C   0  0  0  0  0  0  0  0  0  0  0  0
   -9.6943   30.3915  -20.2176 C   0  0  0  0  0  0  0  0  0  0  0  0
   -9.0225   29.2273  -20.0630 N   0  0  0  0  0  0  0  0  0  0  0  0
   -9.6145   28.0418  -20.3278 C   0  0  0  0  0  0  0  0  0  0  0  0
   -4.8498   26.8215  -24.6625 C   0  0  0  0  0  0  0  0  0  0  0  0
   -5.8817   25.8785  -25.2803 C   0  0  0  0  0  0  0  0  0  0  0  0
 37 38  1  0  0  0
 38  1  1  0  0  0
  1  2  1  0  0  0
  2  3  2  0  0  0
  2  4  1  0  0  0
  4  5  1  0  0  0
  5  6  1  0  0  0
  6  7  2  0  0  0
  7  8  1  0  0  0
  8  9  2  0  0  0
  9 10  1  0  0  0
 10 11  2  0  0  0
  9 24  1  0  0  0
 24 25  2  0  0  0
 25 26  1  0  0  0
 26 30  1  0  0  0
 30 31  1  0  0  0
 31 32  2  0  0  0
 32 33  1  0  0  0
 33 34  2  0  0  0
 34 35  1  0  0  0
 35 36  2  0  0  0
 26 27  1  0  0  0
 27 28  2  0  0  0
 28 29  1  0  0  0
  4 12  1  0  0  0
 12 13  2  0  0  0
 13 14  1  0  0  0
 13 15  1  0  0  0
 15 20  1  0  0  0
 20 21  1  0  0  0
 15 16  2  0  0  0
 16 17  1  0  0  0
 17 22  1  0  0  0
 22 23  1  0  0  0
 17 18  2  0  0  0
 18 19  1  0  0  0
 11  1  1  0  0  0
 28 24  1  0  0  0
 18 12  1  0  0  0
 11  6  1  0  0  0
 36 31  1  0  0  0
M  END
> <minimizedAffinity>
-8.79603

> <CNNscore>
0.2264787108

> <CNNaffinity>
6.9696617126

> <CNN_VS>
1.5784800053

> <CNNaffinity_variance>
0.0395996347

$$$$
[H]c1nc([H])c(C([H])([H])n2nc(C([H])([H])[H])c(-c3nc([H])c4c(c3[H])N(C([H])([H])C([H])([H])[H])C(=O)N(c3c(F)c(OC([H])([H])[H])c([H])c(OC([H])([H])[H])c3F)C4([H])[H])c2[H])c([H])c1[H]


 38 42  0  0  0  0  0  0  0  0999 V2000
   -1.4599   21.3277  -21.4097 N   0  0  0  0  0  0  0  0  0  0  0  0
   -0.7583   20.6894  -20.3264 C   0  0  0  0  0  0  0  0  0  0  0  0
   -1.3350   20.4475  -19.2430 O   0  0  0  0  0  0  0  0  0  0  0  0
    0.6169   20.3374  -20.5154 N   0  0  0  0  0  0  0  0  0  0  0  0
    1.4391   20.9821  -21.4713 C   0  0  0  0  0  0  0  0  0  0  0  0
    0.6495   21.2702  -22.6990 C   0  0  0  0  0  0  0  0  0  0  0  0
    1.2562   21.3724  -23.9467 C   0  0  0  0  0  0  0  0  0  0  0  0
    0.5855   21.7596  -25.0459 N   0  0  0  0  0  0  0  0  0  0  0  0
   -0.7191   22.0626  -24.9532 C   0  0  0  0  0  0  0  0  0  0  0  0
   -1.3334   21.9665  -23.7351 C   0  0  0  0  0  0  0  0  0  0  0  0
   -0.6896   21.5694  -22.5708 C   0  0  0  0  0  0  0  0  0  0  0  0
    1.0551   19.2146  -19.7089 C   0  0  0  0  0  0  0  0  0  0  0  0
    1.7887   19.5085  -18.5900 C   0  0  0  0  0  0  0  0  0  0  0  0
    2.0572   20.7707  -18.2153 F   0  0  0  0  0  0  0  0  0  0  0  0
    2.2985   18.4685  -17.7718 C   0  0  0  0  0  0  0  0  0  0  0  0
    2.0247   17.1433  -18.1474 C   0  0  0  0  0  0  0  0  0  0  0  0
    1.2738   16.8493  -19.2882 C   0  0  0  0  0  0  0  0  0  0  0  0
    0.8188   17.9133  -20.0256 C   0  0  0  0  0  0  0  0  0  0  0  0
    0.0723   17.7083  -21.1593 F   0  0  0  0  0  0  0  0  0  0  0  0
    2.9963   18.7915  -16.7179 O   0  0  0  0  0  0  0  0  0  0  0  0
    3.6749   19.1084  -15.6797 C   0  0  0  0  0  0  0  0  0  0  0  0
    1.0023   15.5482  -19.6646 O   0  0  0  0  0  0  0  0  0  0  0  0
   -0.1703   14.8475  -19.3781 C   0  0  0  0  0  0  0  0  0  0  0  0
   -1.5028   22.4528  -26.1487 C   0  0  0  0  0  0  0  0  0  0  0  0
   -2.8666   22.6202  -26.1735 C   0  0  0  0  0  0  0  0  0  0  0  0
   -3.2680   22.9650  -27.4230 N   0  0  0  0  0  0  0  0  0  0  0  0
   -2.1813   23.0126  -28.1696 N   0  0  0  0  0  0  0  0  0  0  0  0
   -1.0829   22.7054  -27.4270 C   0  0  0  0  0  0  0  0  0  0  0  0
    0.3068   22.6708  -27.9390 C   0  0  0  0  0  0  0  0  0  0  0  0
   -4.6456   23.2080  -27.8732 C   0  0  0  0  0  0  0  0  0  0  0  0
   -5.1868   24.2535  -26.9981 C   0  0  0  0  0  0  0  0  0  0  0  0
   -4.6294   25.5009  -26.9793 C   0  0  0  0  0  0  0  0  0  0  0  0
   -5.1028   26.5242  -26.1744 C   0  0  0  0  0  0  0  0  0  0  0  0
   -6.1817   26.2149  -25.3864 C   0  0  0  0  0  0  0  0  0  0  0  0
   -6.7443   24.9844  -25.3961 N   0  0  0  0  0  0  0  0  0  0  0  0
   -6.2598   24.0039  -26.1896 C   0  0  0  0  0  0  0  0  0  0  0  0
   -2.8913   23.1434  -20.8091 C   0  0  0  0  0  0  0  0  0  0  0  0
   -2.8464   21.6907  -21.2816 C   0  0  0  0  0  0  0  0  0  0  0  0
 37 38  1  0  0  0
 38  1  1  0  0  0
  1  2  1  0  0  0
  2  3  2  0  0  0
  2  4  1  0  0  0
  4  5  1  0  0  0
  5  6  1  0  0  0
  6  7  2  0  0  0
  7  8  1  0  0  0
  8  9  2  0  0  0
  9 10  1  0  0  0
 10 11  2  0  0  0
  9 24  1  0  0  0
 24 25  2  0  0  0
 25 26  1  0  0  0
 26 30  1  0  0  0
 30 31  1  0  0  0
 31 32  2  0  0  0
 32 33  1  0  0  0
 33 34  2  0  0  0
 34 35  1  0  0  0
 35 36  2  0  0  0
 26 27  1  0  0  0
 27 28  2  0  0  0
 28 29  1  0  0  0
  4 12  1  0  0  0
 12 13  2  0  0  0
 13 14  1  0  0  0
 13 15  1  0  0  0
 15 20  1  0  0  0
 20 21  1  0  0  0
 15 16  2  0  0  0
 16 17  1  0  0  0
 17 22  1  0  0  0
 22 23  1  0  0  0
 17 18  2  0  0  0
 18 19  1  0  0  0
 11  1  1  0  0  0
 28 24  1  0  0  0
 18 12  1  0  0  0
 11  6  1  0  0  0
 36 31  1  0  0  0
M  END
> <minimizedAffinity>
-7.72208

> <CNNscore>
0.1769544184

> <CNNaffinity>
6.9400405884

> <CNN_VS>
1.2280708551

> <CNNaffinity_variance>
0.0452026799

$$$$
[H]c1nc([H])c(C([H])([H])n2nc(C([H])([H])[H])c(-c3nc([H])c4c(c3[H])N(C([H])([H])C([H])([H])[H])C(=O)N(c3c(F)c(OC([H])([H])[H])c([H])c(OC([H])([H])[H])c3F)C4([H])[H])c2[H])c([H])c1[H]


 38 42  0  0  0  0  0  0  0  0999 V2000
   -2.2329   21.7374  -21.4950 N   0  0  0  0  0  0  0  0  0  0  0  0
   -1.6741   21.2035  -20.2801 C   0  0  0  0  0  0  0  0  0  0  0  0
   -2.3861   21.0387  -19.2648 O   0  0  0  0  0  0  0  0  0  0  0  0
   -0.2827   20.8654  -20.2579 N   0  0  0  0  0  0  0  0  0  0  0  0
    0.6522   21.4469  -21.1487 C   0  0  0  0  0  0  0  0  0  0  0  0
    0.0285   21.6182  -22.4886 C   0  0  0  0  0  0  0  0  0  0  0  0
    0.7932   21.6310  -23.6506 C   0  0  0  0  0  0  0  0  0  0  0  0
    0.2696   21.9139  -24.8563 N   0  0  0  0  0  0  0  0  0  0  0  0
   -1.0387   22.1970  -24.9602 C   0  0  0  0  0  0  0  0  0  0  0  0
   -1.8072   22.1877  -23.8289 C   0  0  0  0  0  0  0  0  0  0  0  0
   -1.3186   21.8995  -22.5616 C   0  0  0  0  0  0  0  0  0  0  0  0
    0.0560   19.8210  -19.3106 C   0  0  0  0  0  0  0  0  0  0  0  0
    0.0424   18.5344  -19.7807 C   0  0  0  0  0  0  0  0  0  0  0  0
   -0.2214   18.2390  -21.0647 F   0  0  0  0  0  0  0  0  0  0  0  0
    0.3134   17.4486  -18.9097 C   0  0  0  0  0  0  0  0  0  0  0  0
    0.5939   17.7397  -17.5647 C   0  0  0  0  0  0  0  0  0  0  0  0
    0.6090   19.0540  -17.0912 C   0  0  0  0  0  0  0  0  0  0  0  0
    0.3349   20.0461  -17.9987 C   0  0  0  0  0  0  0  0  0  0  0  0
    0.3321   21.3635  -17.6127 F   0  0  0  0  0  0  0  0  0  0  0  0
    0.2856   16.2386  -19.3965 O   0  0  0  0  0  0  0  0  0  0  0  0
    0.2568   15.0486  -19.8677 C   0  0  0  0  0  0  0  0  0  0  0  0
    0.8823   19.3475  -15.7693 O   0  0  0  0  0  0  0  0  0  0  0  0
    2.0933   19.8391  -15.2798 C   0  0  0  0  0  0  0  0  0  0  0  0
   -1.6617   22.4727  -26.2761 C   0  0  0  0  0  0  0  0  0  0  0  0
   -3.0125   22.6015  -26.4939 C   0  0  0  0  0  0  0  0  0  0  0  0
   -3.2487   22.8380  -27.8090 N   0  0  0  0  0  0  0  0  0  0  0  0
   -2.0729   22.8567  -28.4070 N   0  0  0  0  0  0  0  0  0  0  0  0
   -1.0788   22.6370  -27.5038 C   0  0  0  0  0  0  0  0  0  0  0  0
    0.3672   22.6000  -27.8234 C   0  0  0  0  0  0  0  0  0  0  0  0
   -4.5575   23.0089  -28.4551 C   0  0  0  0  0  0  0  0  0  0  0  0
   -5.3205   23.9282  -27.6039 C   0  0  0  0  0  0  0  0  0  0  0  0
   -6.3571   23.4697  -26.8408 C   0  0  0  0  0  0  0  0  0  0  0  0
   -7.1077   24.2940  -26.0185 C   0  0  0  0  0  0  0  0  0  0  0  0
   -6.7467   25.6170  -26.0076 C   0  0  0  0  0  0  0  0  0  0  0  0
   -5.7216   26.0842  -26.7570 N   0  0  0  0  0  0  0  0  0  0  0  0
   -5.0081   25.2575  -27.5527 C   0  0  0  0  0  0  0  0  0  0  0  0
   -3.7364   23.5874  -21.3443 C   0  0  0  0  0  0  0  0  0  0  0  0
   -3.6275   22.0813  -21.5795 C   0  0  0  0  0  0  0  0  0  0  0  0
 37 38  1  0  0  0
 38  1  1  0  0  0
  1  2  1  0  0  0
  2  3  2  0  0  0
  2  4  1  0  0  0
  4  5  1  0  0  0
  5  6  1  0  0  0
  6  7  2  0  0  0
  7  8  1  0  0  0
  8  9  2  0  0  0
  9 10  1  0  0  0
 10 11  2  0  0  0
  9 24  1  0  0  0
 24 25  2  0  0  0
 25 26  1  0  0  0
 26 30  1  0  0  0
 30 31  1  0  0  0
 31 32  2  0  0  0
 32 33  1  0  0  0
 33 34  2  0  0  0
 34 35  1  0  0  0
 35 36  2  0  0  0
 26 27  1  0  0  0
 27 28  2  0  0  0
 28 29  1  0  0  0
  4 12  1  0  0  0
 12 13  2  0  0  0
 13 14  1  0  0  0
 13 15  1  0  0  0
 15 20  1  0  0  0
 20 21  1  0  0  0
 15 16  2  0  0  0
 16 17  1  0  0  0
 17 22  1  0  0  0
 22 23  1  0  0  0
 17 18  2  0  0  0
 18 19  1  0  0  0
 11  1  1  0  0  0
 28 24  1  0  0  0
 18 12  1  0  0  0
 11  6  1  0  0  0
 36 31  1  0  0  0
M  END
> <minimizedAffinity>
-7.52492

> <CNNscore>
0.1401540041

> <CNNaffinity>
6.9977560043

> <CNN_VS>
0.9807634950

> <CNNaffinity_variance>
0.0631103963

$$$$
[H]c1nc([H])c(N2C(=O)N(c3c(F)c(OC([H])([H])[H])c([H])c(OC([H])([H])[H])c3F)C([H])([H])c3c([H])nc(-c4c(C([H])([H])[H])nn(C([H])([H])[H])c4[H])c([H])c32)c([H])c1[H]


 36 40  0  0  0  0  0  0  0  0999 V2000
   -3.8994   23.0125  -22.6388 N   0  0  0  0  0  0  0  0  0  0  0  0
   -5.0477   23.7481  -23.0679 C   0  0  0  0  0  0  0  0  0  0  0  0
   -5.0912   23.9901  -24.5150 C   0  0  0  0  0  0  0  0  0  0  0  0
   -6.2293   24.5909  -25.0892 C   0  0  0  0  0  0  0  0  0  0  0  0
   -6.2926   24.8563  -26.3911 N   0  0  0  0  0  0  0  0  0  0  0  0
   -5.2703   24.5593  -27.2041 C   0  0  0  0  0  0  0  0  0  0  0  0
   -4.1230   23.9701  -26.7168 C   0  0  0  0  0  0  0  0  0  0  0  0
   -4.0452   23.6854  -25.3478 C   0  0  0  0  0  0  0  0  0  0  0  0
   -2.8442   23.0304  -24.8854 N   0  0  0  0  0  0  0  0  0  0  0  0
   -2.8091   22.7083  -23.5028 C   0  0  0  0  0  0  0  0  0  0  0  0
   -1.7833   22.1414  -23.0465 O   0  0  0  0  0  0  0  0  0  0  0  0
   -2.6946   22.4876  -19.1341 C   0  0  0  0  0  0  0  0  0  0  0  0
   -3.5541   21.5267  -18.6736 C   0  0  0  0  0  0  0  0  0  0  0  0
   -4.5445   21.0472  -19.5396 C   0  0  0  0  0  0  0  0  0  0  0  0
   -4.6416   21.5399  -20.8251 C   0  0  0  0  0  0  0  0  0  0  0  0
   -5.6224   21.0396  -21.6128 F   0  0  0  0  0  0  0  0  0  0  0  0
   -3.7781   22.5123  -21.3041 C   0  0  0  0  0  0  0  0  0  0  0  0
   -2.8154   22.9711  -20.4468 C   0  0  0  0  0  0  0  0  0  0  0  0
   -1.9445   23.9146  -20.8612 F   0  0  0  0  0  0  0  0  0  0  0  0
   -0.4081   22.4940  -18.3396 C   0  0  0  0  0  0  0  0  0  0  0  0
   -1.7062   23.0031  -18.3469 O   0  0  0  0  0  0  0  0  0  0  0  0
   -5.4305   20.0771  -19.1109 O   0  0  0  0  0  0  0  0  0  0  0  0
   -4.9240   18.9450  -18.4404 C   0  0  0  0  0  0  0  0  0  0  0  0
   -5.3906   24.8711  -28.6206 C   0  0  0  0  0  0  0  0  0  0  0  0
   -5.5937   26.1331  -29.1875 C   0  0  0  0  0  0  0  0  0  0  0  0
   -5.6454   25.9673  -30.5003 N   0  0  0  0  0  0  0  0  0  0  0  0
   -5.8443   27.0266  -31.4803 C   0  0  0  0  0  0  0  0  0  0  0  0
   -5.4882   24.6847  -30.8007 N   0  0  0  0  0  0  0  0  0  0  0  0
   -5.3269   23.9746  -29.6513 C   0  0  0  0  0  0  0  0  0  0  0  0
   -5.1228   22.5140  -29.5349 C   0  0  0  0  0  0  0  0  0  0  0  0
   -1.7823   22.7346  -25.7697 C   0  0  0  0  0  0  0  0  0  0  0  0
   -1.9305   22.9194  -27.1269 C   0  0  0  0  0  0  0  0  0  0  0  0
   -0.8723   22.6246  -27.9982 C   0  0  0  0  0  0  0  0  0  0  0  0
    0.3170   22.1505  -27.5057 C   0  0  0  0  0  0  0  0  0  0  0  0
    0.4425   21.9768  -26.1789 N   0  0  0  0  0  0  0  0  0  0  0  0
   -0.5801   22.2597  -25.3173 C   0  0  0  0  0  0  0  0  0  0  0  0
 20 21  1  0  0  0
 21 12  1  0  0  0
 12 13  2  0  0  0
 13 14  1  0  0  0
 14 22  1  0  0  0
 22 23  1  0  0  0
 14 15  2  0  0  0
 15 16  1  0  0  0
 15 17  1  0  0  0
 17  1  1  0  0  0
  1  2  1  0  0  0
  2  3  1  0  0  0
  3  4  2  0  0  0
  4  5  1  0  0  0
  5  6  2  0  0  0
  6  7  1  0  0  0
  7  8  2  0  0  0
  8  9  1  0  0  0
  9 10  1  0  0  0
 10 11  2  0  0  0
  9 31  1  0  0  0
 31 32  2  0  0  0
 32 33  1  0  0  0
 33 34  2  0  0  0
 34 35  1  0  0  0
 35 36  2  0  0  0
  6 24  1  0  0  0
 24 25  2  0  0  0
 25 26  1  0  0  0
 26 27  1  0  0  0
 26 28  1  0  0  0
 28 29  2  0  0  0
 29 30  1  0  0  0
 17 18  2  0  0  0
 18 19  1  0  0  0
 18 12  1  0  0  0
 10  1  1  0  0  0
 36 31  1  0  0  0
 29 24  1  0  0  0
  8  3  1  0  0  0
M  END
> <minimizedAffinity>
-8.65209

> <CNNscore>
0.3298486173

> <CNNaffinity>
7.4525551796

> <CNN_VS>
2.4582149982

> <CNNaffinity_variance>
0.3978233635

$$$$
[H]c1nc([H])c(N2C(=O)N(c3c(F)c(OC([H])([H])[H])c([H])c(OC([H])([H])[H])c3F)C([H])([H])c3c([H])nc(-c4c(C([H])([H])[H])nn(C([H])([H])[H])c4[H])c([H])c32)c([H])c1[H]


 36 40  0  0  0  0  0  0  0  0999 V2000
   -6.5754   23.0375  -20.6252 N   0  0  0  0  0  0  0  0  0  0  0  0
   -6.0609   24.1208  -19.8470 C   0  0  0  0  0  0  0  0  0  0  0  0
   -6.2072   23.9336  -18.3986 C   0  0  0  0  0  0  0  0  0  0  0  0
   -5.6292   24.8638  -17.5117 C   0  0  0  0  0  0  0  0  0  0  0  0
   -5.7680   24.7462  -16.1940 N   0  0  0  0  0  0  0  0  0  0  0  0
   -6.4662   23.7336  -15.6636 C   0  0  0  0  0  0  0  0  0  0  0  0
   -7.0611   22.7835  -16.4663 C   0  0  0  0  0  0  0  0  0  0  0  0
   -6.9212   22.8966  -17.8552 C   0  0  0  0  0  0  0  0  0  0  0  0
   -7.5238   21.8583  -18.6577 N   0  0  0  0  0  0  0  0  0  0  0  0
   -7.3270   21.9684  -20.0598 C   0  0  0  0  0  0  0  0  0  0  0  0
   -7.8356   21.0927  -20.8058 O   0  0  0  0  0  0  0  0  0  0  0  0
   -5.1805   22.0127  -23.9440 C   0  0  0  0  0  0  0  0  0  0  0  0
   -5.9206   22.7670  -24.8143 C   0  0  0  0  0  0  0  0  0  0  0  0
   -6.8937   23.6272  -24.2905 C   0  0  0  0  0  0  0  0  0  0  0  0
   -7.0922   23.7037  -22.9270 C   0  0  0  0  0  0  0  0  0  0  0  0
   -8.0503   24.5506  -22.4824 F   0  0  0  0  0  0  0  0  0  0  0  0
   -6.3500   22.9462  -22.0349 C   0  0  0  0  0  0  0  0  0  0  0  0
   -5.4029   22.1104  -22.5610 C   0  0  0  0  0  0  0  0  0  0  0  0
   -4.6478   21.3525  -21.7389 F   0  0  0  0  0  0  0  0  0  0  0  0
   -3.1704   21.5527  -25.2115 C   0  0  0  0  0  0  0  0  0  0  0  0
   -4.2164   21.1516  -24.3815 O   0  0  0  0  0  0  0  0  0  0  0  0
   -7.6605   24.4047  -25.1375 O   0  0  0  0  0  0  0  0  0  0  0  0
   -7.0136   25.1563  -26.1396 C   0  0  0  0  0  0  0  0  0  0  0  0
   -6.5880   23.6517  -14.2156 C   0  0  0  0  0  0  0  0  0  0  0  0
   -7.7036   23.9972  -13.4467 C   0  0  0  0  0  0  0  0  0  0  0  0
   -7.3895   23.7721  -12.1802 N   0  0  0  0  0  0  0  0  0  0  0  0
   -8.2649   23.9968  -11.0378 C   0  0  0  0  0  0  0  0  0  0  0  0
   -6.1497   23.3071  -12.0975 N   0  0  0  0  0  0  0  0  0  0  0  0
   -5.6223   23.2201  -13.3489 C   0  0  0  0  0  0  0  0  0  0  0  0
   -4.2658   22.7507  -13.7066 C   0  0  0  0  0  0  0  0  0  0  0  0
   -8.2574   20.8054  -18.0659 C   0  0  0  0  0  0  0  0  0  0  0  0
   -7.6475   19.6041  -17.7775 C   0  0  0  0  0  0  0  0  0  0  0  0
   -8.3813   18.5641  -17.1895 C   0  0  0  0  0  0  0  0  0  0  0  0
   -9.7107   18.7354  -16.8975 C   0  0  0  0  0  0  0  0  0  0  0  0
  -10.2880   19.9142  -17.1861 N   0  0  0  0  0  0  0  0  0  0  0  0
   -9.5856   20.9370  -17.7593 C   0  0  0  0  0  0  0  0  0  0  0  0
 20 21  1  0  0  0
 21 12  1  0  0  0
 12 13  2  0  0  0
 13 14  1  0  0  0
 14 22  1  0  0  0
 22 23  1  0  0  0
 14 15  2  0  0  0
 15 16  1  0  0  0
 15 17  1  0  0  0
 17  1  1  0  0  0
  1  2  1  0  0  0
  2  3  1  0  0  0
  3  4  2  0  0  0
  4  5  1  0  0  0
  5  6  2  0  0  0
  6  7  1  0  0  0
  7  8  2  0  0  0
  8  9  1  0  0  0
  9 10  1  0  0  0
 10 11  2  0  0  0
  9 31  1  0  0  0
 31 32  2  0  0  0
 32 33  1  0  0  0
 33 34  2  0  0  0
 34 35  1  0  0  0
 35 36  2  0  0  0
  6 24  1  0  0  0
 24 25  2  0  0  0
 25 26  1  0  0  0
 26 27  1  0  0  0
 26 28  1  0  0  0
 28 29  2  0  0  0
 29 30  1  0  0  0
 17 18  2  0  0  0
 18 19  1  0  0  0
 18 12  1  0  0  0
 10  1  1  0  0  0
 36 31  1  0  0  0
 29 24  1  0  0  0
  8  3  1  0  0  0
M  END
> <minimizedAffinity>
-6.53953

> <CNNscore>
0.1758393496

> <CNNaffinity>
6.2378396988

> <CNN_VS>
1.0968576670

> <CNNaffinity_variance>
0.0441289358

$$$$
[H]c1nc([H])c(N2C(=O)N(c3c(F)c(OC([H])([H])[H])c([H])c(OC([H])([H])[H])c3F)C([H])([H])c3c([H])nc(-c4c(C([H])([H])[H])nn(C([H])([H])[H])c4[H])c([H])c32)c([H])c1[H]


 36 40  0  0  0  0  0  0  0  0999 V2000
   -6.5247   23.0054  -20.6335 N   0  0  0  0  0  0  0  0  0  0  0  0
   -6.0096   24.0961  -19.8663 C   0  0  0  0  0  0  0  0  0  0  0  0
   -6.1764   23.9340  -18.4171 C   0  0  0  0  0  0  0  0  0  0  0  0
   -5.6006   24.8728  -17.5379 C   0  0  0  0  0  0  0  0  0  0  0  0
   -5.7575   24.7781  -16.2204 N   0  0  0  0  0  0  0  0  0  0  0  0
   -6.4724   23.7810  -15.6828 C   0  0  0  0  0  0  0  0  0  0  0  0
   -7.0663   22.8238  -16.4778 C   0  0  0  0  0  0  0  0  0  0  0  0
   -6.9074   22.9129  -17.8663 C   0  0  0  0  0  0  0  0  0  0  0  0
   -7.5099   21.8675  -18.6597 N   0  0  0  0  0  0  0  0  0  0  0  0
   -7.2940   21.9528  -20.0607 C   0  0  0  0  0  0  0  0  0  0  0  0
   -7.8016   21.0701  -20.7991 O   0  0  0  0  0  0  0  0  0  0  0  0
   -6.7716   23.4909  -24.3367 C   0  0  0  0  0  0  0  0  0  0  0  0
   -5.7897   22.6591  -24.8037 C   0  0  0  0  0  0  0  0  0  0  0  0
   -5.0381   21.9275  -23.8758 C   0  0  0  0  0  0  0  0  0  0  0  0
   -5.2912   22.0509  -22.5247 C   0  0  0  0  0  0  0  0  0  0  0  0
   -4.5283   21.3207  -21.6777 F   0  0  0  0  0  0  0  0  0  0  0  0
   -6.2821   22.8889  -22.0385 C   0  0  0  0  0  0  0  0  0  0  0  0
   -7.0083   23.5972  -22.9568 C   0  0  0  0  0  0  0  0  0  0  0  0
   -7.9889   24.4252  -22.5402 F   0  0  0  0  0  0  0  0  0  0  0  0
   -7.0123   25.2270  -26.0062 C   0  0  0  0  0  0  0  0  0  0  0  0
   -7.5425   24.2358  -25.1811 O   0  0  0  0  0  0  0  0  0  0  0  0
   -4.0385   21.0772  -24.3089 O   0  0  0  0  0  0  0  0  0  0  0  0
   -3.1117   21.5496  -25.2605 C   0  0  0  0  0  0  0  0  0  0  0  0
   -6.6137   23.7239  -14.2354 C   0  0  0  0  0  0  0  0  0  0  0  0
   -7.7365   24.0903  -13.4869 C   0  0  0  0  0  0  0  0  0  0  0  0
   -7.4405   23.8837  -12.2129 N   0  0  0  0  0  0  0  0  0  0  0  0
   -8.3290   24.1337  -11.0859 C   0  0  0  0  0  0  0  0  0  0  0  0
   -6.2055   23.4110  -12.1064 N   0  0  0  0  0  0  0  0  0  0  0  0
   -5.6626   23.2995  -13.3491 C   0  0  0  0  0  0  0  0  0  0  0  0
   -4.3051   22.8143  -13.6813 C   0  0  0  0  0  0  0  0  0  0  0  0
   -8.2614   20.8315  -18.0606 C   0  0  0  0  0  0  0  0  0  0  0  0
   -7.6612   19.6388  -17.7211 C   0  0  0  0  0  0  0  0  0  0  0  0
   -8.4128   18.6156  -17.1261 C   0  0  0  0  0  0  0  0  0  0  0  0
   -9.7500   18.7949  -16.8781 C   0  0  0  0  0  0  0  0  0  0  0  0
  -10.3177   19.9652  -17.2163 N   0  0  0  0  0  0  0  0  0  0  0  0
   -9.5979   20.9717  -17.7969 C   0  0  0  0  0  0  0  0  0  0  0  0
 20 21  1  0  0  0
 21 12  1  0  0  0
 12 13  2  0  0  0
 13 14  1  0  0  0
 14 22  1  0  0  0
 22 23  1  0  0  0
 14 15  2  0  0  0
 15 16  1  0  0  0
 15 17  1  0  0  0
 17  1  1  0  0  0
  1  2  1  0  0  0
  2  3  1  0  0  0
  3  4  2  0  0  0
  4  5  1  0  0  0
  5  6  2  0  0  0
  6  7  1  0  0  0
  7  8  2  0  0  0
  8  9  1  0  0  0
  9 10  1  0  0  0
 10 11  2  0  0  0
  9 31  1  0  0  0
 31 32  2  0  0  0
 32 33  1  0  0  0
 33 34  2  0  0  0
 34 35  1  0  0  0
 35 36  2  0  0  0
  6 24  1  0  0  0
 24 25  2  0  0  0
 25 26  1  0  0  0
 26 27  1  0  0  0
 26 28  1  0  0  0
 28 29  2  0  0  0
 29 30  1  0  0  0
 17 18  2  0  0  0
 18 19  1  0  0  0
 18 12  1  0  0  0
 10  1  1  0  0  0
 36 31  1  0  0  0
 29 24  1  0  0  0
  8  3  1  0  0  0
M  END
> <minimizedAffinity>
-6.49753

> <CNNscore>
0.1754431427

> <CNNaffinity>
6.2256951332

> <CNN_VS>
1.0922554731

> <CNNaffinity_variance>
0.0454058424

$$$$
[H]c1nc([H])c(N2C(=O)N(c3c(F)c(OC([H])([H])[H])c([H])c(OC([H])([H])[H])c3F)C([H])([H])c3c([H])nc(-c4c(C([H])([H])[H])nn(C([H])([H])[H])c4[H])c([H])c32)c([H])c1[H]


 36 40  0  0  0  0  0  0  0  0999 V2000
    0.5837   21.2087  -21.2208 N   0  0  0  0  0  0  0  0  0  0  0  0
   -0.4207   21.8142  -20.4033 C   0  0  0  0  0  0  0  0  0  0  0  0
   -1.4764   22.4929  -21.1645 C   0  0  0  0  0  0  0  0  0  0  0  0
   -2.5949   23.0215  -20.4898 C   0  0  0  0  0  0  0  0  0  0  0  0
   -3.5556   23.6718  -21.1407 N   0  0  0  0  0  0  0  0  0  0  0  0
   -3.4908   23.8467  -22.4672 C   0  0  0  0  0  0  0  0  0  0  0  0
   -2.4279   23.3583  -23.1971 C   0  0  0  0  0  0  0  0  0  0  0  0
   -1.4109   22.6714  -22.5226 C   0  0  0  0  0  0  0  0  0  0  0  0
   -0.3374   22.1399  -23.3292 N   0  0  0  0  0  0  0  0  0  0  0  0
    0.6564   21.4058  -22.6291 C   0  0  0  0  0  0  0  0  0  0  0  0
    1.6172   20.9253  -23.2835 O   0  0  0  0  0  0  0  0  0  0  0  0
    2.4067   18.1231  -20.1410 C   0  0  0  0  0  0  0  0  0  0  0  0
    3.5548   18.6388  -19.6026 C   0  0  0  0  0  0  0  0  0  0  0  0
    3.7233   20.0290  -19.5975 C   0  0  0  0  0  0  0  0  0  0  0  0
    2.7473   20.8492  -20.1261 C   0  0  0  0  0  0  0  0  0  0  0  0
    2.9704   22.1842  -20.0957 F   0  0  0  0  0  0  0  0  0  0  0  0
    1.5805   20.3405  -20.6740 C   0  0  0  0  0  0  0  0  0  0  0  0
    1.4296   18.9805  -20.6717 C   0  0  0  0  0  0  0  0  0  0  0  0
    0.3112   18.4301  -21.1883 F   0  0  0  0  0  0  0  0  0  0  0  0
    3.1486   15.8587  -20.5667 C   0  0  0  0  0  0  0  0  0  0  0  0
    2.1742   16.7789  -20.1822 O   0  0  0  0  0  0  0  0  0  0  0  0
    4.8688   20.5870  -19.0625 O   0  0  0  0  0  0  0  0  0  0  0  0
    6.0459   20.5939  -19.8385 C   0  0  0  0  0  0  0  0  0  0  0  0
   -4.5681   24.5661  -23.1306 C   0  0  0  0  0  0  0  0  0  0  0  0
   -4.4441   25.6886  -23.9551 C   0  0  0  0  0  0  0  0  0  0  0  0
   -5.6646   26.0230  -24.3449 N   0  0  0  0  0  0  0  0  0  0  0  0
   -5.9983   27.1403  -25.2180 C   0  0  0  0  0  0  0  0  0  0  0  0
   -6.5516   25.1866  -23.8218 N   0  0  0  0  0  0  0  0  0  0  0  0
   -5.9004   24.2663  -23.0597 C   0  0  0  0  0  0  0  0  0  0  0  0
   -6.5125   23.1550  -22.2989 C   0  0  0  0  0  0  0  0  0  0  0  0
   -0.2976   22.3460  -24.7267 C   0  0  0  0  0  0  0  0  0  0  0  0
   -1.3014   21.8576  -25.5343 C   0  0  0  0  0  0  0  0  0  0  0  0
   -1.2559   22.0666  -26.9200 C   0  0  0  0  0  0  0  0  0  0  0  0
   -0.2124   22.7583  -27.4807 C   0  0  0  0  0  0  0  0  0  0  0  0
    0.7573   23.2270  -26.6767 N   0  0  0  0  0  0  0  0  0  0  0  0
    0.7265   23.0310  -25.3244 C   0  0  0  0  0  0  0  0  0  0  0  0
 20 21  1  0  0  0
 21 12  1  0  0  0
 12 13  2  0  0  0
 13 14  1  0  0  0
 14 22  1  0  0  0
 22 23  1  0  0  0
 14 15  2  0  0  0
 15 16  1  0  0  0
 15 17  1  0  0  0
 17  1  1  0  0  0
  1  2  1  0  0  0
  2  3  1  0  0  0
  3  4  2  0  0  0
  4  5  1  0  0  0
  5  6  2  0  0  0
  6  7  1  0  0  0
  7  8  2  0  0  0
  8  9  1  0  0  0
  9 10  1  0  0  0
 10 11  2  0  0  0
  9 31  1  0  0  0
 31 32  2  0  0  0
 32 33  1  0  0  0
 33 34  2  0  0  0
 34 35  1  0  0  0
 35 36  2  0  0  0
  6 24  1  0  0  0
 24 25  2  0  0  0
 25 26  1  0  0  0
 26 27  1  0  0  0
 26 28  1  0  0  0
 28 29  2  0  0  0
 29 30  1  0  0  0
 17 18  2  0  0  0
 18 19  1  0  0  0
 18 12  1  0  0  0
 10  1  1  0  0  0
 36 31  1  0  0  0
 29 24  1  0  0  0
  8  3  1  0  0  0
M  END
> <minimizedAffinity>
-7.49890

> <CNNscore>
0.1751377136

> <CNNaffinity>
6.9477338791

> <CNN_VS>
1.2168102264

> <CNNaffinity_variance>
0.0702490360

$$$$
[H]c1nc([H])c(N2C(=O)N(c3c(F)c(OC([H])([H])[H])c([H])c(OC([H])([H])[H])c3F)C([H])([H])c3c([H])nc(-c4c(C([H])([H])[H])nn(C([H])([H])[H])c4[H])c([H])c32)c([H])c1[H]


 36 40  0  0  0  0  0  0  0  0999 V2000
    0.7970   21.0518  -21.4295 N   0  0  0  0  0  0  0  0  0  0  0  0
   -0.1358   21.6571  -20.5309 C   0  0  0  0  0  0  0  0  0  0  0  0
   -1.2200   22.3845  -21.2015 C   0  0  0  0  0  0  0  0  0  0  0  0
   -2.2779   22.9200  -20.4400 C   0  0  0  0  0  0  0  0  0  0  0  0
   -3.2610   23.6134  -21.0076 N   0  0  0  0  0  0  0  0  0  0  0  0
   -3.2777   23.8267  -22.3299 C   0  0  0  0  0  0  0  0  0  0  0  0
   -2.2779   23.3344  -23.1416 C   0  0  0  0  0  0  0  0  0  0  0  0
   -1.2380   22.6023  -22.5553 C   0  0  0  0  0  0  0  0  0  0  0  0
   -0.2337   22.0691  -23.4454 N   0  0  0  0  0  0  0  0  0  0  0  0
    0.7835   21.2896  -22.8334 C   0  0  0  0  0  0  0  0  0  0  0  0
    1.6866   20.8055  -23.5628 O   0  0  0  0  0  0  0  0  0  0  0  0
    4.0460   19.6836  -20.1717 C   0  0  0  0  0  0  0  0  0  0  0  0
    3.7764   18.3453  -20.0699 C   0  0  0  0  0  0  0  0  0  0  0  0
    2.4995   17.8932  -20.4251 C   0  0  0  0  0  0  0  0  0  0  0  0
    1.5440   18.7860  -20.8663 C   0  0  0  0  0  0  0  0  0  0  0  0
    0.3275   18.2884  -21.1908 F   0  0  0  0  0  0  0  0  0  0  0  0
    1.8036   20.1430  -20.9743 C   0  0  0  0  0  0  0  0  0  0  0  0
    3.0555   20.5701  -20.6239 C   0  0  0  0  0  0  0  0  0  0  0  0
    3.3653   21.8802  -20.7136 F   0  0  0  0  0  0  0  0  0  0  0  0
    5.6294   20.4888  -18.5274 C   0  0  0  0  0  0  0  0  0  0  0  0
    5.2668   20.1968  -19.8417 O   0  0  0  0  0  0  0  0  0  0  0  0
    2.1897   16.5494  -20.3359 O   0  0  0  0  0  0  0  0  0  0  0  0
    1.7435   16.0370  -19.1006 C   0  0  0  0  0  0  0  0  0  0  0  0
   -4.3762   24.5924  -22.9003 C   0  0  0  0  0  0  0  0  0  0  0  0
   -4.2847   25.5968  -23.8688 C   0  0  0  0  0  0  0  0  0  0  0  0
   -5.5147   26.0289  -24.1002 N   0  0  0  0  0  0  0  0  0  0  0  0
   -5.8807   27.0769  -25.0434 C   0  0  0  0  0  0  0  0  0  0  0  0
   -6.3776   25.3643  -23.3425 N   0  0  0  0  0  0  0  0  0  0  0  0
   -5.6999   24.4614  -22.5830 C   0  0  0  0  0  0  0  0  0  0  0  0
   -6.2797   23.5188  -21.6012 C   0  0  0  0  0  0  0  0  0  0  0  0
   -0.2791   22.3164  -24.8361 C   0  0  0  0  0  0  0  0  0  0  0  0
   -1.3335   21.8560  -25.5939 C   0  0  0  0  0  0  0  0  0  0  0  0
   -1.3725   22.1058  -26.9731 C   0  0  0  0  0  0  0  0  0  0  0  0
   -0.3617   22.8098  -27.5768 C   0  0  0  0  0  0  0  0  0  0  0  0
    0.6583   23.2508  -26.8209 N   0  0  0  0  0  0  0  0  0  0  0  0
    0.7100   23.0149  -25.4756 C   0  0  0  0  0  0  0  0  0  0  0  0
 20 21  1  0  0  0
 21 12  1  0  0  0
 12 13  2  0  0  0
 13 14  1  0  0  0
 14 22  1  0  0  0
 22 23  1  0  0  0
 14 15  2  0  0  0
 15 16  1  0  0  0
 15 17  1  0  0  0
 17  1  1  0  0  0
  1  2  1  0  0  0
  2  3  1  0  0  0
  3  4  2  0  0  0
  4  5  1  0  0  0
  5  6  2  0  0  0
  6  7  1  0  0  0
  7  8  2  0  0  0
  8  9  1  0  0  0
  9 10  1  0  0  0
 10 11  2  0  0  0
  9 31  1  0  0  0
 31 32  2  0  0  0
 32 33  1  0  0  0
 33 34  2  0  0  0
 34 35  1  0  0  0
 35 36  2  0  0  0
  6 24  1  0  0  0
 24 25  2  0  0  0
 25 26  1  0  0  0
 26 27  1  0  0  0
 26 28  1  0  0  0
 28 29  2  0  0  0
 29 30  1  0  0  0
 17 18  2  0  0  0
 18 19  1  0  0  0
 18 12  1  0  0  0
 10  1  1  0  0  0
 36 31  1  0  0  0
 29 24  1  0  0  0
  8  3  1  0  0  0
M  END
> <minimizedAffinity>
-7.67142

> <CNNscore>
0.1683680713

> <CNNaffinity>
6.8402657509

> <CNN_VS>
1.1516823769

> <CNNaffinity_variance>
0.0458632782

$$$$
[H]c1nc([H])c(N2C(=O)N(c3c(F)c(OC([H])([H])[H])c([H])c(OC([H])([H])[H])c3F)C([H])([H])c3c([H])nc(-c4c(C([H])([H])[H])nn(C([H])([H])[H])c4[H])c([H])c32)c([H])c1[H]


 36 40  0  0  0  0  0  0  0  0999 V2000
   -2.4312   22.7212  -21.0055 N   0  0  0  0  0  0  0  0  0  0  0  0
   -3.5995   23.5429  -21.0650 C   0  0  0  0  0  0  0  0  0  0  0  0
   -4.0233   23.8748  -22.4305 C   0  0  0  0  0  0  0  0  0  0  0  0
   -5.2311   24.5705  -22.6379 C   0  0  0  0  0  0  0  0  0  0  0  0
   -5.6322   24.9178  -23.8577 N   0  0  0  0  0  0  0  0  0  0  0  0
   -4.8965   24.6159  -24.9356 C   0  0  0  0  0  0  0  0  0  0  0  0
   -3.7030   23.9365  -24.8136 C   0  0  0  0  0  0  0  0  0  0  0  0
   -3.2709   23.5651  -23.5344 C   0  0  0  0  0  0  0  0  0  0  0  0
   -2.0372   22.8187  -23.4542 N   0  0  0  0  0  0  0  0  0  0  0  0
   -1.6450   22.4114  -22.1516 C   0  0  0  0  0  0  0  0  0  0  0  0
   -0.5748   21.7628  -22.0245 O   0  0  0  0  0  0  0  0  0  0  0  0
   -0.4274   22.0243  -17.9218 C   0  0  0  0  0  0  0  0  0  0  0  0
   -1.1106   20.9778  -17.3631 C   0  0  0  0  0  0  0  0  0  0  0  0
   -2.2499   20.4978  -18.0209 C   0  0  0  0  0  0  0  0  0  0  0  0
   -2.6640   21.0750  -19.2041 C   0  0  0  0  0  0  0  0  0  0  0  0
   -3.7749   20.5693  -19.7898 F   0  0  0  0  0  0  0  0  0  0  0  0
   -1.9818   22.1346  -19.7806 C   0  0  0  0  0  0  0  0  0  0  0  0
   -0.8705   22.5927  -19.1268 C   0  0  0  0  0  0  0  0  0  0  0  0
   -0.1647   23.6194  -19.6447 F   0  0  0  0  0  0  0  0  0  0  0  0
    1.8598   21.8080  -17.1594 C   0  0  0  0  0  0  0  0  0  0  0  0
    0.6900   22.5457  -17.3369 O   0  0  0  0  0  0  0  0  0  0  0  0
   -2.9657   19.4426  -17.4880 O   0  0  0  0  0  0  0  0  0  0  0  0
   -4.0875   19.7230  -16.6815 C   0  0  0  0  0  0  0  0  0  0  0  0
   -5.3806   25.0197  -26.2475 C   0  0  0  0  0  0  0  0  0  0  0  0
   -4.6070   25.4316  -27.3369 C   0  0  0  0  0  0  0  0  0  0  0  0
   -5.4424   25.7077  -28.3265 N   0  0  0  0  0  0  0  0  0  0  0  0
   -5.0597   26.1735  -29.6526 C   0  0  0  0  0  0  0  0  0  0  0  0
   -6.6925   25.4975  -27.9350 N   0  0  0  0  0  0  0  0  0  0  0  0
   -6.6885   25.0678  -26.6439 C   0  0  0  0  0  0  0  0  0  0  0  0
   -7.8695   24.7200  -25.8236 C   0  0  0  0  0  0  0  0  0  0  0  0
   -1.2831   22.5201  -24.6115 C   0  0  0  0  0  0  0  0  0  0  0  0
   -1.9092   22.1011  -25.7650 C   0  0  0  0  0  0  0  0  0  0  0  0
   -1.1548   21.8074  -26.9098 C   0  0  0  0  0  0  0  0  0  0  0  0
    0.2109   21.9351  -26.8891 C   0  0  0  0  0  0  0  0  0  0  0  0
    0.8035   22.3452  -25.7546 N   0  0  0  0  0  0  0  0  0  0  0  0
    0.0813   22.6351  -24.6310 C   0  0  0  0  0  0  0  0  0  0  0  0
 20 21  1  0  0  0
 21 12  1  0  0  0
 12 13  2  0  0  0
 13 14  1  0  0  0
 14 22  1  0  0  0
 22 23  1  0  0  0
 14 15  2  0  0  0
 15 16  1  0  0  0
 15 17  1  0  0  0
 17  1  1  0  0  0
  1  2  1  0  0  0
  2  3  1  0  0  0
  3  4  2  0  0  0
  4  5  1  0  0  0
  5  6  2  0  0  0
  6  7  1  0  0  0
  7  8  2  0  0  0
  8  9  1  0  0  0
  9 10  1  0  0  0
 10 11  2  0  0  0
  9 31  1  0  0  0
 31 32  2  0  0  0
 32 33  1  0  0  0
 33 34  2  0  0  0
 34 35  1  0  0  0
 35 36  2  0  0  0
  6 24  1  0  0  0
 24 25  2  0  0  0
 25 26  1  0  0  0
 26 27  1  0  0  0
 26 28  1  0  0  0
 28 29  2  0  0  0
 29 30  1  0  0  0
 17 18  2  0  0  0
 18 19  1  0  0  0
 18 12  1  0  0  0
 10  1  1  0  0  0
 36 31  1  0  0  0
 29 24  1  0  0  0
  8  3  1  0  0  0
M  END
> <minimizedAffinity>
-7.78748

> <CNNscore>
0.1673660129

> <CNNaffinity>
7.1052255630

> <CNN_VS>
1.1891732216

> <CNNaffinity_variance>
0.2157685310

$$$$
[H]c1nc([H])c(N2C(=O)N(c3c(F)c(OC([H])([H])[H])c([H])c(OC([H])([H])[H])c3F)C([H])([H])c3c([H])nc(-c4c(C([H])([H])[H])nn(C([H])([H])[H])c4[H])c([H])c32)c([H])c1[H]


 36 40  0  0  0  0  0  0  0  0999 V2000
   -1.4912   22.0088  -24.0823 N   0  0  0  0  0  0  0  0  0  0  0  0
   -1.1986   21.7107  -25.4495 C   0  0  0  0  0  0  0  0  0  0  0  0
   -2.0436   22.4321  -26.4087 C   0  0  0  0  0  0  0  0  0  0  0  0
   -1.7781   22.3299  -27.7889 C   0  0  0  0  0  0  0  0  0  0  0  0
   -2.5412   22.9420  -28.6903 N   0  0  0  0  0  0  0  0  0  0  0  0
   -3.5934   23.6801  -28.3133 C   0  0  0  0  0  0  0  0  0  0  0  0
   -3.9170   23.8278  -26.9812 C   0  0  0  0  0  0  0  0  0  0  0  0
   -3.1204   23.1885  -26.0231 C   0  0  0  0  0  0  0  0  0  0  0  0
   -3.4683   23.4030  -24.6381 N   0  0  0  0  0  0  0  0  0  0  0  0
   -2.6172   22.7844  -23.6843 C   0  0  0  0  0  0  0  0  0  0  0  0
   -2.8783   22.9347  -22.4631 O   0  0  0  0  0  0  0  0  0  0  0  0
   -0.3524   20.5795  -20.8158 C   0  0  0  0  0  0  0  0  0  0  0  0
    1.0098   20.6660  -20.9213 C   0  0  0  0  0  0  0  0  0  0  0  0
    1.5551   21.2074  -22.0920 C   0  0  0  0  0  0  0  0  0  0  0  0
    0.7279   21.6401  -23.1084 C   0  0  0  0  0  0  0  0  0  0  0  0
    1.3152   22.1500  -24.2165 F   0  0  0  0  0  0  0  0  0  0  0  0
   -0.6523   21.5586  -23.0147 C   0  0  0  0  0  0  0  0  0  0  0  0
   -1.1708   21.0276  -21.8650 C   0  0  0  0  0  0  0  0  0  0  0  0
   -2.5083   20.9281  -21.7173 F   0  0  0  0  0  0  0  0  0  0  0  0
   -0.3298   19.1323  -18.8757 C   0  0  0  0  0  0  0  0  0  0  0  0
   -0.9547   20.0619  -19.7060 O   0  0  0  0  0  0  0  0  0  0  0  0
    2.9257   21.3113  -22.2352 O   0  0  0  0  0  0  0  0  0  0  0  0
    3.6959   20.1308  -22.2636 C   0  0  0  0  0  0  0  0  0  0  0  0
   -4.3961   24.3283  -29.3399 C   0  0  0  0  0  0  0  0  0  0  0  0
   -4.5173   25.7027  -29.5668 C   0  0  0  0  0  0  0  0  0  0  0  0
   -5.3427   25.8579  -30.5905 N   0  0  0  0  0  0  0  0  0  0  0  0
   -5.7502   27.1335  -31.1638 C   0  0  0  0  0  0  0  0  0  0  0  0
   -5.7511   24.6731  -31.0258 N   0  0  0  0  0  0  0  0  0  0  0  0
   -5.1791   23.6987  -30.2676 C   0  0  0  0  0  0  0  0  0  0  0  0
   -5.3666   22.2386  -30.4146 C   0  0  0  0  0  0  0  0  0  0  0  0
   -4.5880   24.1848  -24.2747 C   0  0  0  0  0  0  0  0  0  0  0  0
   -5.7956   23.5863  -23.9892 C   0  0  0  0  0  0  0  0  0  0  0  0
   -6.9021   24.3683  -23.6285 C   0  0  0  0  0  0  0  0  0  0  0  0
   -6.7899   25.7336  -23.5574 C   0  0  0  0  0  0  0  0  0  0  0  0
   -5.6038   26.2991  -23.8394 N   0  0  0  0  0  0  0  0  0  0  0  0
   -4.5165   25.5499  -24.1925 C   0  0  0  0  0  0  0  0  0  0  0  0
 20 21  1  0  0  0
 21 12  1  0  0  0
 12 13  2  0  0  0
 13 14  1  0  0  0
 14 22  1  0  0  0
 22 23  1  0  0  0
 14 15  2  0  0  0
 15 16  1  0  0  0
 15 17  1  0  0  0
 17  1  1  0  0  0
  1  2  1  0  0  0
  2  3  1  0  0  0
  3  4  2  0  0  0
  4  5  1  0  0  0
  5  6  2  0  0  0
  6  7  1  0  0  0
  7  8  2  0  0  0
  8  9  1  0  0  0
  9 10  1  0  0  0
 10 11  2  0  0  0
  9 31  1  0  0  0
 31 32  2  0  0  0
 32 33  1  0  0  0
 33 34  2  0  0  0
 34 35  1  0  0  0
 35 36  2  0  0  0
  6 24  1  0  0  0
 24 25  2  0  0  0
 25 26  1  0  0  0
 26 27  1  0  0  0
 26 28  1  0  0  0
 28 29  2  0  0  0
 29 30  1  0  0  0
 17 18  2  0  0  0
 18 19  1  0  0  0
 18 12  1  0  0  0
 10  1  1  0  0  0
 36 31  1  0  0  0
 29 24  1  0  0  0
  8  3  1  0  0  0
M  END
> <minimizedAffinity>
-8.60055

> <CNNscore>
0.1659268886

> <CNNaffinity>
7.3172440529

> <CNN_VS>
1.2141275406

> <CNNaffinity_variance>
0.2999845147

$$$$
[H]c1nc([H])c(N2C(=O)N(c3c(F)c(OC([H])([H])[H])c([H])c(OC([H])([H])[H])c3F)C([H])([H])c3c([H])nc(-c4c(C([H])([H])[H])nn(C([H])([H])[H])c4[H])c([H])c32)c([H])c1[H]


 36 40  0  0  0  0  0  0  0  0999 V2000
   -0.0838   21.2824  -20.7253 N   0  0  0  0  0  0  0  0  0  0  0  0
    0.6326   21.1054  -21.9497 C   0  0  0  0  0  0  0  0  0  0  0  0
   -0.1015   21.5565  -23.1380 C   0  0  0  0  0  0  0  0  0  0  0  0
    0.5363   21.5586  -24.3946 C   0  0  0  0  0  0  0  0  0  0  0  0
   -0.1059   21.9289  -25.4990 N   0  0  0  0  0  0  0  0  0  0  0  0
   -1.3879   22.3144  -25.4527 C   0  0  0  0  0  0  0  0  0  0  0  0
   -2.0797   22.3392  -24.2603 C   0  0  0  0  0  0  0  0  0  0  0  0
   -1.4137   21.9520  -23.0908 C   0  0  0  0  0  0  0  0  0  0  0  0
   -2.1613   22.0324  -21.8579 N   0  0  0  0  0  0  0  0  0  0  0  0
   -1.4500   21.6814  -20.6800 C   0  0  0  0  0  0  0  0  0  0  0  0
   -2.0559   21.7289  -19.5788 O   0  0  0  0  0  0  0  0  0  0  0  0
    1.6390   21.9480  -17.4697 C   0  0  0  0  0  0  0  0  0  0  0  0
    1.7504   20.6910  -16.9390 C   0  0  0  0  0  0  0  0  0  0  0  0
    1.2477   19.6098  -17.6736 C   0  0  0  0  0  0  0  0  0  0  0  0
    0.6562   19.8198  -18.9026 C   0  0  0  0  0  0  0  0  0  0  0  0
    0.1861   18.7351  -19.5624 F   0  0  0  0  0  0  0  0  0  0  0  0
    0.5372   21.0867  -19.4516 C   0  0  0  0  0  0  0  0  0  0  0  0
    1.0329   22.1332  -18.7226 C   0  0  0  0  0  0  0  0  0  0  0  0
    0.9483   23.3884  -19.2104 F   0  0  0  0  0  0  0  0  0  0  0  0
    3.4018   23.5315  -16.9756 C   0  0  0  0  0  0  0  0  0  0  0  0
    2.1041   23.0489  -16.8108 O   0  0  0  0  0  0  0  0  0  0  0  0
    1.3419   18.3260  -17.1709 O   0  0  0  0  0  0  0  0  0  0  0  0
    0.2576   17.8042  -16.4363 C   0  0  0  0  0  0  0  0  0  0  0  0
   -2.0441   22.7093  -26.6904 C   0  0  0  0  0  0  0  0  0  0  0  0
   -3.4189   22.8499  -26.9032 C   0  0  0  0  0  0  0  0  0  0  0  0
   -3.5826   23.2208  -28.1638 N   0  0  0  0  0  0  0  0  0  0  0  0
   -4.8616   23.4804  -28.8108 C   0  0  0  0  0  0  0  0  0  0  0  0
   -2.4027   23.3242  -28.7617 N   0  0  0  0  0  0  0  0  0  0  0  0
   -1.4230   23.0121  -27.8705 C   0  0  0  0  0  0  0  0  0  0  0  0
    0.0342   23.0004  -28.1257 C   0  0  0  0  0  0  0  0  0  0  0  0
   -3.5144   22.4398  -21.8449 C   0  0  0  0  0  0  0  0  0  0  0  0
   -3.8415   23.7763  -21.7750 C   0  0  0  0  0  0  0  0  0  0  0  0
   -5.1862   24.1733  -21.7633 C   0  0  0  0  0  0  0  0  0  0  0  0
   -6.1846   23.2343  -21.8215 C   0  0  0  0  0  0  0  0  0  0  0  0
   -5.8458   21.9355  -21.8893 N   0  0  0  0  0  0  0  0  0  0  0  0
   -4.5395   21.5335  -21.9015 C   0  0  0  0  0  0  0  0  0  0  0  0
 20 21  1  0  0  0
 21 12  1  0  0  0
 12 13  2  0  0  0
 13 14  1  0  0  0
 14 22  1  0  0  0
 22 23  1  0  0  0
 14 15  2  0  0  0
 15 16  1  0  0  0
 15 17  1  0  0  0
 17  1  1  0  0  0
  1  2  1  0  0  0
  2  3  1  0  0  0
  3  4  2  0  0  0
  4  5  1  0  0  0
  5  6  2  0  0  0
  6  7  1  0  0  0
  7  8  2  0  0  0
  8  9  1  0  0  0
  9 10  1  0  0  0
 10 11  2  0  0  0
  9 31  1  0  0  0
 31 32  2  0  0  0
 32 33  1  0  0  0
 33 34  2  0  0  0
 34 35  1  0  0  0
 35 36  2  0  0  0
  6 24  1  0  0  0
 24 25  2  0  0  0
 25 26  1  0  0  0
 26 27  1  0  0  0
 26 28  1  0  0  0
 28 29  2  0  0  0
 29 30  1  0  0  0
 17 18  2  0  0  0
 18 19  1  0  0  0
 18 12  1  0  0  0
 10  1  1  0  0  0
 36 31  1  0  0  0
 29 24  1  0  0  0
  8  3  1  0  0  0
M  END
> <minimizedAffinity>
-7.75629

> <CNNscore>
0.1458553970

> <CNNaffinity>
6.8365454674

> <CNN_VS>
0.9971470237

> <CNNaffinity_variance>
0.0381821990

$$$$
[H]c1nc([H])c(N2C(=O)N(c3c(F)c(OC([H])([H])[H])c([H])c(OC([H])([H])[H])c3F)C([H])([H])c3c([H])nc(-c4c(C([H])([H])[H])nn(C([H])([H])[H])c4[H])c([H])c32)c([H])c1[H]


 36 40  0  0  0  0  0  0  0  0999 V2000
   -0.2738   21.2956  -20.5291 N   0  0  0  0  0  0  0  0  0  0  0  0
    0.4799   21.0983  -21.7278 C   0  0  0  0  0  0  0  0  0  0  0  0
   -0.2128   21.5395  -22.9443 C   0  0  0  0  0  0  0  0  0  0  0  0
    0.4646   21.5215  -24.1799 C   0  0  0  0  0  0  0  0  0  0  0  0
   -0.1394   21.8824  -25.3087 N   0  0  0  0  0  0  0  0  0  0  0  0
   -1.4194   22.2772  -25.3080 C   0  0  0  0  0  0  0  0  0  0  0  0
   -2.1486   22.3217  -24.1387 C   0  0  0  0  0  0  0  0  0  0  0  0
   -1.5229   21.9447  -22.9439 C   0  0  0  0  0  0  0  0  0  0  0  0
   -2.3087   22.0457  -21.7366 N   0  0  0  0  0  0  0  0  0  0  0  0
   -1.6378   21.7045  -20.5323 C   0  0  0  0  0  0  0  0  0  0  0  0
   -2.2781   21.7700  -19.4516 O   0  0  0  0  0  0  0  0  0  0  0  0
    0.8617   19.7092  -17.3348 C   0  0  0  0  0  0  0  0  0  0  0  0
    1.4564   20.7579  -16.6863 C   0  0  0  0  0  0  0  0  0  0  0  0
    1.4783   22.0072  -17.3186 C   0  0  0  0  0  0  0  0  0  0  0  0
    0.9102   22.1645  -18.5664 C   0  0  0  0  0  0  0  0  0  0  0  0
    0.9670   23.3954  -19.1273 F   0  0  0  0  0  0  0  0  0  0  0  0
    0.3049   21.1116  -19.2340 C   0  0  0  0  0  0  0  0  0  0  0  0
    0.2910   19.8971  -18.6038 C   0  0  0  0  0  0  0  0  0  0  0  0
   -0.2890   18.8375  -19.2051 F   0  0  0  0  0  0  0  0  0  0  0  0
    1.9110   17.8468  -16.1992 C   0  0  0  0  0  0  0  0  0  0  0  0
    0.8040   18.4630  -16.7814 O   0  0  0  0  0  0  0  0  0  0  0  0
    2.0694   23.0898  -16.6954 O   0  0  0  0  0  0  0  0  0  0  0  0
    3.4453   23.3209  -16.8981 C   0  0  0  0  0  0  0  0  0  0  0  0
   -2.0330   22.6610  -26.5708 C   0  0  0  0  0  0  0  0  0  0  0  0
   -3.3987   22.8182  -26.8264 C   0  0  0  0  0  0  0  0  0  0  0  0
   -3.5197   23.1705  -28.0971 N   0  0  0  0  0  0  0  0  0  0  0  0
   -4.7752   23.4380  -28.7857 C   0  0  0  0  0  0  0  0  0  0  0  0
   -2.3215   23.2467  -28.6615 N   0  0  0  0  0  0  0  0  0  0  0  0
   -1.3731   22.9351  -27.7368 C   0  0  0  0  0  0  0  0  0  0  0  0
    0.0906   22.8979  -27.9485 C   0  0  0  0  0  0  0  0  0  0  0  0
   -3.6585   22.4625  -21.7717 C   0  0  0  0  0  0  0  0  0  0  0  0
   -3.9777   23.8022  -21.7348 C   0  0  0  0  0  0  0  0  0  0  0  0
   -5.3192   24.2086  -21.7709 C   0  0  0  0  0  0  0  0  0  0  0  0
   -6.3223   23.2757  -21.8431 C   0  0  0  0  0  0  0  0  0  0  0  0
   -5.9911   21.9736  -21.8783 N   0  0  0  0  0  0  0  0  0  0  0  0
   -4.6881   21.5624  -21.8438 C   0  0  0  0  0  0  0  0  0  0  0  0
 20 21  1  0  0  0
 21 12  1  0  0  0
 12 13  2  0  0  0
 13 14  1  0  0  0
 14 22  1  0  0  0
 22 23  1  0  0  0
 14 15  2  0  0  0
 15 16  1  0  0  0
 15 17  1  0  0  0
 17  1  1  0  0  0
  1  2  1  0  0  0
  2  3  1  0  0  0
  3  4  2  0  0  0
  4  5  1  0  0  0
  5  6  2  0  0  0
  6  7  1  0  0  0
  7  8  2  0  0  0
  8  9  1  0  0  0
  9 10  1  0  0  0
 10 11  2  0  0  0
  9 31  1  0  0  0
 31 32  2  0  0  0
 32 33  1  0  0  0
 33 34  2  0  0  0
 34 35  1  0  0  0
 35 36  2  0  0  0
  6 24  1  0  0  0
 24 25  2  0  0  0
 25 26  1  0  0  0
 26 27  1  0  0  0
 26 28  1  0  0  0
 28 29  2  0  0  0
 29 30  1  0  0  0
 17 18  2  0  0  0
 18 19  1  0  0  0
 18 12  1  0  0  0
 10  1  1  0  0  0
 36 31  1  0  0  0
 29 24  1  0  0  0
  8  3  1  0  0  0
M  END
> <minimizedAffinity>
-7.70067

> <CNNscore>
0.1243527904

> <CNNaffinity>
6.7483339310

> <CNN_VS>
0.8391741514

> <CNNaffinity_variance>
0.0460176766

$$$$
[H]c1nc(N([H])[H])c(-c2nn(-c3c(Cl)c(OC([H])([H])[H])c([H])c(OC([H])([H])[H])c3Cl)c(=O)c([H])c2[H])nc1-c1c(C(F)(F)F)nn(C([H])([H])[H])c1[H]


 38 41  0  0  0  0  0  0  0  0999 V2000
   -5.6491   23.6290  -25.3854 N   0  0  0  0  0  0  0  0  0  0  0  0
   -4.3767   23.3330  -25.4195 N   0  0  0  0  0  0  0  0  0  0  0  0
   -3.6448   23.1671  -26.5262 C   0  0  0  0  0  0  0  0  0  0  0  0
   -4.2986   23.3244  -27.7298 C   0  0  0  0  0  0  0  0  0  0  0  0
   -5.6616   23.6419  -27.7755 C   0  0  0  0  0  0  0  0  0  0  0  0
   -6.2979   23.7850  -26.5647 C   0  0  0  0  0  0  0  0  0  0  0  0
   -7.5417   24.0744  -26.5263 O   0  0  0  0  0  0  0  0  0  0  0  0
   -2.2156   22.8356  -26.4680 C   0  0  0  0  0  0  0  0  0  0  0  0
   -1.6174   22.4448  -25.3372 N   0  0  0  0  0  0  0  0  0  0  0  0
   -0.3123   22.1356  -25.2690 C   0  0  0  0  0  0  0  0  0  0  0  0
    0.4264   22.2375  -26.4534 C   0  0  0  0  0  0  0  0  0  0  0  0
   -0.1395   22.6302  -27.6248 N   0  0  0  0  0  0  0  0  0  0  0  0
   -1.4495   22.9211  -27.6068 C   0  0  0  0  0  0  0  0  0  0  0  0
   -2.1075   23.3416  -28.8106 N   0  0  0  0  0  0  0  0  0  0  0  0
   -2.5642   22.6571  -29.4517 H   0  0  0  0  0  0  0  0  0  0  0  0
   -2.1295   24.3546  -29.0496 H   0  0  0  0  0  0  0  0  0  0  0  0
    0.3701   21.7102  -24.0608 C   0  0  0  0  0  0  0  0  0  0  0  0
    1.6965   21.3665  -23.9387 C   0  0  0  0  0  0  0  0  0  0  0  0
    1.9622   21.0253  -22.6540 N   0  0  0  0  0  0  0  0  0  0  0  0
    3.2573   20.6110  -22.1729 C   0  0  0  0  0  0  0  0  0  0  0  0
    0.8461   21.1515  -22.0020 N   0  0  0  0  0  0  0  0  0  0  0  0
   -0.1666   21.5675  -22.8058 C   0  0  0  0  0  0  0  0  0  0  0  0
   -1.5243   21.7891  -22.3096 C   0  0  0  0  0  0  0  0  0  0  0  0
   -1.6459   21.3782  -20.9684 F   0  0  0  0  0  0  0  0  0  0  0  0
   -2.4292   21.0060  -22.9956 F   0  0  0  0  0  0  0  0  0  0  0  0
   -1.9160   23.1128  -22.3149 F   0  0  0  0  0  0  0  0  0  0  0  0
   -7.4298   25.1683  -22.4831 C   0  0  0  0  0  0  0  0  0  0  0  0
   -7.7901   24.0283  -21.8033 C   0  0  0  0  0  0  0  0  0  0  0  0
   -7.4704   22.7624  -22.2607 C   0  0  0  0  0  0  0  0  0  0  0  0
   -6.7718   22.6743  -23.4321 C   0  0  0  0  0  0  0  0  0  0  0  0
   -6.3333   21.1082  -24.0702 Cl  0  0  0  0  0  0  0  0  0  0  0  0
   -6.3770   23.7926  -24.1686 C   0  0  0  0  0  0  0  0  0  0  0  0
   -6.7202   25.0322  -23.6699 C   0  0  0  0  0  0  0  0  0  0  0  0
   -6.2587   26.4851  -24.5405 Cl  0  0  0  0  0  0  0  0  0  0  0  0
   -8.3543   26.4781  -20.6862 C   0  0  0  0  0  0  0  0  0  0  0  0
   -7.7791   26.4038  -21.9732 O   0  0  0  0  0  0  0  0  0  0  0  0
   -7.8561   21.6208  -21.5376 O   0  0  0  0  0  0  0  0  0  0  0  0
   -8.7714   21.7300  -20.4541 C   0  0  0  0  0  0  0  0  0  0  0  0
 35 36  1  0  0  0
 36 27  1  0  0  0
 27 28  2  0  0  0
 28 29  1  0  0  0
 29 37  1  0  0  0
 37 38  1  0  0  0
 29 30  2  0  0  0
 30 31  1  0  0  0
 30 32  1  0  0  0
 32 33  2  0  0  0
 33 34  1  0  0  0
 32  1  1  0  0  0
  1  2  1  0  0  0
  2  3  2  0  0  0
  3  4  1  0  0  0
  4  5  2  0  0  0
  5  6  1  0  0  0
  6  7  2  0  0  0
  3  8  1  0  0  0
  8  9  2  0  0  0
  9 10  1  0  0  0
 10 11  2  0  0  0
 11 12  1  0  0  0
 12 13  2  0  0  0
 13 14  1  0  0  0
 10 17  1  0  0  0
 17 18  2  0  0  0
 18 19  1  0  0  0
 19 20  1  0  0  0
 19 21  1  0  0  0
 21 22  2  0  0  0
 22 23  1  0  0  0
 23 24  1  0  0  0
 23 25  1  0  0  0
 23 26  1  0  0  0
 33 27  1  0  0  0
  6  1  1  0  0  0
 13  8  1  0  0  0
 22 17  1  0  0  0
 14 15  1  0  0  0
 14 16  1  0  0  0
M  END
> <minimizedAffinity>
-9.86020

> <CNNscore>
0.8870855570

> <CNNaffinity>
8.2615718842

> <CNN_VS>
7.3287210464

> <CNNaffinity_variance>
0.0735352412

$$$$
[H]c1nc(N([H])[H])c(-c2nn(-c3c(Cl)c(OC([H])([H])[H])c([H])c(OC([H])([H])[H])c3Cl)c(=O)c([H])c2[H])nc1-c1c(C(F)(F)F)nn(C([H])([H])[H])c1[H]


 38 41  0  0  0  0  0  0  0  0999 V2000
    0.4690   21.3109  -20.5926 N   0  0  0  0  0  0  0  0  0  0  0  0
    0.3747   21.5616  -21.8717 N   0  0  0  0  0  0  0  0  0  0  0  0
   -0.7654   21.6894  -22.5586 C   0  0  0  0  0  0  0  0  0  0  0  0
   -1.9367   21.5424  -21.8463 C   0  0  0  0  0  0  0  0  0  0  0  0
   -1.9178   21.2726  -20.4724 C   0  0  0  0  0  0  0  0  0  0  0  0
   -0.6781   21.1651  -19.8865 C   0  0  0  0  0  0  0  0  0  0  0  0
   -0.5809   20.9201  -18.6364 O   0  0  0  0  0  0  0  0  0  0  0  0
   -0.7750   21.9738  -23.9990 C   0  0  0  0  0  0  0  0  0  0  0  0
   -1.8923   22.3069  -24.6549 N   0  0  0  0  0  0  0  0  0  0  0  0
   -1.9163   22.5726  -25.9711 C   0  0  0  0  0  0  0  0  0  0  0  0
   -0.6996   22.4880  -26.6576 C   0  0  0  0  0  0  0  0  0  0  0  0
    0.4596   22.1533  -26.0323 N   0  0  0  0  0  0  0  0  0  0  0  0
    0.3967   21.9032  -24.7153 C   0  0  0  0  0  0  0  0  0  0  0  0
    1.5853   21.5447  -23.9958 N   0  0  0  0  0  0  0  0  0  0  0  0
    2.1841   22.2647  -23.5362 H   0  0  0  0  0  0  0  0  0  0  0  0
    1.8562   20.5417  -23.9310 H   0  0  0  0  0  0  0  0  0  0  0  0
   -3.1085   22.9350  -26.7153 C   0  0  0  0  0  0  0  0  0  0  0  0
   -3.1630   23.4319  -27.9969 C   0  0  0  0  0  0  0  0  0  0  0  0
   -4.4547   23.6478  -28.3471 N   0  0  0  0  0  0  0  0  0  0  0  0
   -4.8758   24.1667  -29.6253 C   0  0  0  0  0  0  0  0  0  0  0  0
   -5.1757   23.2993  -27.3246 N   0  0  0  0  0  0  0  0  0  0  0  0
   -4.4119   22.8543  -26.2934 C   0  0  0  0  0  0  0  0  0  0  0  0
   -4.9868   22.3991  -25.0282 C   0  0  0  0  0  0  0  0  0  0  0  0
   -6.3939   22.4055  -25.0806 F   0  0  0  0  0  0  0  0  0  0  0  0
   -4.6739   23.2721  -24.0071 F   0  0  0  0  0  0  0  0  0  0  0  0
   -4.6476   21.1045  -24.6897 F   0  0  0  0  0  0  0  0  0  0  0  0
    3.4503   22.0371  -18.4600 C   0  0  0  0  0  0  0  0  0  0  0  0
    4.1488   20.8651  -18.6341 C   0  0  0  0  0  0  0  0  0  0  0  0
    3.6789   19.8356  -19.4298 C   0  0  0  0  0  0  0  0  0  0  0  0
    2.4756   20.0194  -20.0513 C   0  0  0  0  0  0  0  0  0  0  0  0
    1.8202   18.7619  -21.0717 Cl  0  0  0  0  0  0  0  0  0  0  0  0
    1.7190   21.1846  -19.9152 C   0  0  0  0  0  0  0  0  0  0  0  0
    2.2312   22.1814  -19.1108 C   0  0  0  0  0  0  0  0  0  0  0  0
    1.3368   23.6759  -18.8909 Cl  0  0  0  0  0  0  0  0  0  0  0  0
    3.7557   22.9651  -16.2590 C   0  0  0  0  0  0  0  0  0  0  0  0
    3.9741   23.0279  -17.6522 O   0  0  0  0  0  0  0  0  0  0  0  0
    4.4218   18.6525  -19.5833 O   0  0  0  0  0  0  0  0  0  0  0  0
    5.8405   18.7000  -19.6757 C   0  0  0  0  0  0  0  0  0  0  0  0
 35 36  1  0  0  0
 36 27  1  0  0  0
 27 28  2  0  0  0
 28 29  1  0  0  0
 29 37  1  0  0  0
 37 38  1  0  0  0
 29 30  2  0  0  0
 30 31  1  0  0  0
 30 32  1  0  0  0
 32 33  2  0  0  0
 33 34  1  0  0  0
 32  1  1  0  0  0
  1  2  1  0  0  0
  2  3  2  0  0  0
  3  4  1  0  0  0
  4  5  2  0  0  0
  5  6  1  0  0  0
  6  7  2  0  0  0
  3  8  1  0  0  0
  8  9  2  0  0  0
  9 10  1  0  0  0
 10 11  2  0  0  0
 11 12  1  0  0  0
 12 13  2  0  0  0
 13 14  1  0  0  0
 10 17  1  0  0  0
 17 18  2  0  0  0
 18 19  1  0  0  0
 19 20  1  0  0  0
 19 21  1  0  0  0
 21 22  2  0  0  0
 22 23  1  0  0  0
 23 24  1  0  0  0
 23 25  1  0  0  0
 23 26  1  0  0  0
 33 27  1  0  0  0
  6  1  1  0  0  0
 13  8  1  0  0  0
 22 17  1  0  0  0
 14 15  1  0  0  0
 14 16  1  0  0  0
M  END
> <minimizedAffinity>
-7.81521

> <CNNscore>
0.3942174017

> <CNNaffinity>
7.5293817520

> <CNN_VS>
2.9682133198

> <CNNaffinity_variance>
0.1479768306

$$$$
[H]c1nc(N([H])[H])c(-c2nn(-c3c(Cl)c(OC([H])([H])[H])c([H])c(OC([H])([H])[H])c3Cl)c(=O)c([H])c2[H])nc1-c1c(C(F)(F)F)nn(C([H])([H])[H])c1[H]


 38 41  0  0  0  0  0  0  0  0999 V2000
    1.3144   21.0918  -20.6148 N   0  0  0  0  0  0  0  0  0  0  0  0
    1.0128   21.4896  -21.8226 N   0  0  0  0  0  0  0  0  0  0  0  0
   -0.2144   21.5076  -22.3532 C   0  0  0  0  0  0  0  0  0  0  0  0
   -1.2431   21.0666  -21.5482 C   0  0  0  0  0  0  0  0  0  0  0  0
   -0.9998   20.6246  -20.2420 C   0  0  0  0  0  0  0  0  0  0  0  0
    0.3082   20.6570  -19.8183 C   0  0  0  0  0  0  0  0  0  0  0  0
    0.6079   20.2691  -18.6385 O   0  0  0  0  0  0  0  0  0  0  0  0
   -0.4598   21.9743  -23.7235 C   0  0  0  0  0  0  0  0  0  0  0  0
   -1.6324   22.4944  -24.1028 N   0  0  0  0  0  0  0  0  0  0  0  0
   -1.8708   22.9280  -25.3513 C   0  0  0  0  0  0  0  0  0  0  0  0
   -0.8231   22.8162  -26.2726 C   0  0  0  0  0  0  0  0  0  0  0  0
    0.3845   22.2945  -25.9315 N   0  0  0  0  0  0  0  0  0  0  0  0
    0.5402   21.8844  -24.6632 C   0  0  0  0  0  0  0  0  0  0  0  0
    1.7913   21.3243  -24.2389 N   0  0  0  0  0  0  0  0  0  0  0  0
    2.5469   21.9186  -23.8339 H   0  0  0  0  0  0  0  0  0  0  0  0
    1.9483   20.3000  -24.3377 H   0  0  0  0  0  0  0  0  0  0  0  0
   -3.1296   23.4955  -25.7985 C   0  0  0  0  0  0  0  0  0  0  0  0
   -4.0440   24.1822  -25.0339 C   0  0  0  0  0  0  0  0  0  0  0  0
   -5.0938   24.5561  -25.8059 N   0  0  0  0  0  0  0  0  0  0  0  0
   -6.2358   25.2942  -25.3250 C   0  0  0  0  0  0  0  0  0  0  0  0
   -4.8432   24.1197  -27.0032 N   0  0  0  0  0  0  0  0  0  0  0  0
   -3.6564   23.4621  -27.0653 C   0  0  0  0  0  0  0  0  0  0  0  0
   -3.1446   22.8783  -28.3046 C   0  0  0  0  0  0  0  0  0  0  0  0
   -4.1868   22.6465  -29.2226 F   0  0  0  0  0  0  0  0  0  0  0  0
   -2.6047   21.6308  -28.0706 F   0  0  0  0  0  0  0  0  0  0  0  0
   -2.2480   23.6839  -28.9775 F   0  0  0  0  0  0  0  0  0  0  0  0
    4.4182   22.0639  -18.7750 C   0  0  0  0  0  0  0  0  0  0  0  0
    5.2449   21.0336  -19.1580 C   0  0  0  0  0  0  0  0  0  0  0  0
    4.8236   20.0227  -20.0032 C   0  0  0  0  0  0  0  0  0  0  0  0
    3.5355   20.0773  -20.4566 C   0  0  0  0  0  0  0  0  0  0  0  0
    2.9345   18.8346  -21.5274 Cl  0  0  0  0  0  0  0  0  0  0  0  0
    2.6476   21.0956  -20.1052 C   0  0  0  0  0  0  0  0  0  0  0  0
    3.1162   22.0800  -19.2599 C   0  0  0  0  0  0  0  0  0  0  0  0
    2.0581   23.3935  -18.7732 Cl  0  0  0  0  0  0  0  0  0  0  0  0
    6.0453   23.7763  -18.3067 C   0  0  0  0  0  0  0  0  0  0  0  0
    4.8995   23.0438  -17.9284 O   0  0  0  0  0  0  0  0  0  0  0  0
    5.6982   18.9863  -20.3722 O   0  0  0  0  0  0  0  0  0  0  0  0
    5.8602   17.8483  -19.5341 C   0  0  0  0  0  0  0  0  0  0  0  0
 35 36  1  0  0  0
 36 27  1  0  0  0
 27 28  2  0  0  0
 28 29  1  0  0  0
 29 37  1  0  0  0
 37 38  1  0  0  0
 29 30  2  0  0  0
 30 31  1  0  0  0
 30 32  1  0  0  0
 32 33  2  0  0  0
 33 34  1  0  0  0
 32  1  1  0  0  0
  1  2  1  0  0  0
  2  3  2  0  0  0
  3  4  1  0  0  0
  4  5  2  0  0  0
  5  6  1  0  0  0
  6  7  2  0  0  0
  3  8  1  0  0  0
  8  9  2  0  0  0
  9 10  1  0  0  0
 10 11  2  0  0  0
 11 12  1  0  0  0
 12 13  2  0  0  0
 13 14  1  0  0  0
 10 17  1  0  0  0
 17 18  2  0  0  0
 18 19  1  0  0  0
 19 20  1  0  0  0
 19 21  1  0  0  0
 21 22  2  0  0  0
 22 23  1  0  0  0
 23 24  1  0  0  0
 23 25  1  0  0  0
 23 26  1  0  0  0
 33 27  1  0  0  0
  6  1  1  0  0  0
 13  8  1  0  0  0
 22 17  1  0  0  0
 14 15  1  0  0  0
 14 16  1  0  0  0
M  END
> <minimizedAffinity>
-7.56436

> <CNNscore>
0.3692222238

> <CNNaffinity>
7.4095778465

> <CNN_VS>
2.7357807159

> <CNNaffinity_variance>
0.2701663971

$$$$
[H]c1nc(N([H])[H])c(-c2nn(-c3c(Cl)c(OC([H])([H])[H])c([H])c(OC([H])([H])[H])c3Cl)c(=O)c([H])c2[H])nc1-c1c(C(F)(F)F)nn(C([H])([H])[H])c1[H]


 38 41  0  0  0  0  0  0  0  0999 V2000
    0.3941   20.5628  -20.7164 N   0  0  0  0  0  0  0  0  0  0  0  0
    0.3084   20.8818  -21.9808 N   0  0  0  0  0  0  0  0  0  0  0  0
   -0.7013   21.5492  -22.5492 C   0  0  0  0  0  0  0  0  0  0  0  0
   -1.7359   21.9290  -21.7209 C   0  0  0  0  0  0  0  0  0  0  0  0
   -1.7167   21.6239  -20.3545 C   0  0  0  0  0  0  0  0  0  0  0  0
   -0.6193   20.9329  -19.8967 C   0  0  0  0  0  0  0  0  0  0  0  0
   -0.5311   20.6189  -18.6615 O   0  0  0  0  0  0  0  0  0  0  0  0
   -0.7117   21.8657  -23.9829 C   0  0  0  0  0  0  0  0  0  0  0  0
   -1.8345   22.1828  -24.6373 N   0  0  0  0  0  0  0  0  0  0  0  0
   -1.8594   22.4774  -25.9473 C   0  0  0  0  0  0  0  0  0  0  0  0
   -0.6375   22.4417  -26.6289 C   0  0  0  0  0  0  0  0  0  0  0  0
    0.5274   22.1248  -26.0049 N   0  0  0  0  0  0  0  0  0  0  0  0
    0.4651   21.8434  -24.6941 C   0  0  0  0  0  0  0  0  0  0  0  0
    1.6595   21.5014  -23.9764 N   0  0  0  0  0  0  0  0  0  0  0  0
    2.2361   22.2270  -23.4974 H   0  0  0  0  0  0  0  0  0  0  0  0
    1.9577   20.5050  -23.9326 H   0  0  0  0  0  0  0  0  0  0  0  0
   -3.0574   22.8236  -26.6898 C   0  0  0  0  0  0  0  0  0  0  0  0
   -3.1221   23.2922  -27.9816 C   0  0  0  0  0  0  0  0  0  0  0  0
   -4.4165   23.5007  -28.3261 N   0  0  0  0  0  0  0  0  0  0  0  0
   -4.8477   23.9916  -29.6119 C   0  0  0  0  0  0  0  0  0  0  0  0
   -5.1294   23.1752  -27.2904 N   0  0  0  0  0  0  0  0  0  0  0  0
   -4.3574   22.7528  -26.2558 C   0  0  0  0  0  0  0  0  0  0  0  0
   -4.9222   22.3258  -24.9763 C   0  0  0  0  0  0  0  0  0  0  0  0
   -6.3297   22.3377  -25.0155 F   0  0  0  0  0  0  0  0  0  0  0  0
   -4.5956   23.2176  -23.9760 F   0  0  0  0  0  0  0  0  0  0  0  0
   -4.5857   21.0366  -24.6150 F   0  0  0  0  0  0  0  0  0  0  0  0
    2.6647   17.7923  -19.6522 C   0  0  0  0  0  0  0  0  0  0  0  0
    3.6785   18.5300  -19.0868 C   0  0  0  0  0  0  0  0  0  0  0  0
    3.6490   19.9122  -19.0387 C   0  0  0  0  0  0  0  0  0  0  0  0
    2.5613   20.5378  -19.5805 C   0  0  0  0  0  0  0  0  0  0  0  0
    2.4559   22.2814  -19.5555 Cl  0  0  0  0  0  0  0  0  0  0  0  0
    1.5005   19.8466  -20.1685 C   0  0  0  0  0  0  0  0  0  0  0  0
    1.5776   18.4694  -20.1912 C   0  0  0  0  0  0  0  0  0  0  0  0
    0.2818   17.5312  -20.9139 Cl  0  0  0  0  0  0  0  0  0  0  0  0
    3.3785   15.7787  -20.7635 C   0  0  0  0  0  0  0  0  0  0  0  0
    2.7536   16.4137  -19.6686 O   0  0  0  0  0  0  0  0  0  0  0  0
    4.7044   20.6313  -18.4522 O   0  0  0  0  0  0  0  0  0  0  0  0
    5.8310   21.0190  -19.2294 C   0  0  0  0  0  0  0  0  0  0  0  0
 35 36  1  0  0  0
 36 27  1  0  0  0
 27 28  2  0  0  0
 28 29  1  0  0  0
 29 37  1  0  0  0
 37 38  1  0  0  0
 29 30  2  0  0  0
 30 31  1  0  0  0
 30 32  1  0  0  0
 32 33  2  0  0  0
 33 34  1  0  0  0
 32  1  1  0  0  0
  1  2  1  0  0  0
  2  3  2  0  0  0
  3  4  1  0  0  0
  4  5  2  0  0  0
  5  6  1  0  0  0
  6  7  2  0  0  0
  3  8  1  0  0  0
  8  9  2  0  0  0
  9 10  1  0  0  0
 10 11  2  0  0  0
 11 12  1  0  0  0
 12 13  2  0  0  0
 13 14  1  0  0  0
 10 17  1  0  0  0
 17 18  2  0  0  0
 18 19  1  0  0  0
 19 20  1  0  0  0
 19 21  1  0  0  0
 21 22  2  0  0  0
 22 23  1  0  0  0
 23 24  1  0  0  0
 23 25  1  0  0  0
 23 26  1  0  0  0
 33 27  1  0  0  0
  6  1  1  0  0  0
 13  8  1  0  0  0
 22 17  1  0  0  0
 14 15  1  0  0  0
 14 16  1  0  0  0
M  END
> <minimizedAffinity>
-7.67808

> <CNNscore>
0.3553681970

> <CNNaffinity>
7.3515229225

> <CNN_VS>
2.6124973297

> <CNNaffinity_variance>
0.1186449379

$$$$
[H]c1nc(N([H])[H])c(-c2nn(-c3c(Cl)c(OC([H])([H])[H])c([H])c(OC([H])([H])[H])c3Cl)c(=O)c([H])c2[H])nc1-c1c(C(F)(F)F)nn(C([H])([H])[H])c1[H]


 38 41  0  0  0  0  0  0  0  0999 V2000
    1.0141   20.6091  -20.7730 N   0  0  0  0  0  0  0  0  0  0  0  0
    0.7061   20.8777  -22.0144 N   0  0  0  0  0  0  0  0  0  0  0  0
   -0.2105   21.7648  -22.4153 C   0  0  0  0  0  0  0  0  0  0  0  0
   -0.8827   22.4500  -21.4256 C   0  0  0  0  0  0  0  0  0  0  0  0
   -0.6087   22.2178  -20.0722 C   0  0  0  0  0  0  0  0  0  0  0  0
    0.3573   21.2789  -19.7954 C   0  0  0  0  0  0  0  0  0  0  0  0
    0.6617   21.0130  -18.5834 O   0  0  0  0  0  0  0  0  0  0  0  0
   -0.4898   22.0023  -23.8370 C   0  0  0  0  0  0  0  0  0  0  0  0
   -1.7077   22.3318  -24.2814 N   0  0  0  0  0  0  0  0  0  0  0  0
   -1.9779   22.5549  -25.5778 C   0  0  0  0  0  0  0  0  0  0  0  0
   -0.9139   22.4285  -26.4784 C   0  0  0  0  0  0  0  0  0  0  0  0
    0.3394   22.0959  -26.0718 N   0  0  0  0  0  0  0  0  0  0  0  0
    0.5245   21.8897  -24.7587 C   0  0  0  0  0  0  0  0  0  0  0  0
    1.8243   21.5358  -24.2645 N   0  0  0  0  0  0  0  0  0  0  0  0
    2.5061   22.2607  -23.9516 H   0  0  0  0  0  0  0  0  0  0  0  0
    2.0930   20.5313  -24.2170 H   0  0  0  0  0  0  0  0  0  0  0  0
   -3.2858   22.9119  -26.0958 C   0  0  0  0  0  0  0  0  0  0  0  0
   -3.5534   23.6808  -27.2047 C   0  0  0  0  0  0  0  0  0  0  0  0
   -4.8943   23.7914  -27.3694 N   0  0  0  0  0  0  0  0  0  0  0  0
   -5.5254   24.5300  -28.4355 C   0  0  0  0  0  0  0  0  0  0  0  0
   -5.4401   23.1184  -26.4019 N   0  0  0  0  0  0  0  0  0  0  0  0
   -4.5099   22.5559  -25.5877 C   0  0  0  0  0  0  0  0  0  0  0  0
   -4.8696   21.7439  -24.4259 C   0  0  0  0  0  0  0  0  0  0  0  0
   -4.2292   20.4905  -24.4669 F   0  0  0  0  0  0  0  0  0  0  0  0
   -6.2163   21.4457  -24.4361 F   0  0  0  0  0  0  0  0  0  0  0  0
   -4.4973   22.2960  -23.2167 F   0  0  0  0  0  0  0  0  0  0  0  0
    4.2699   19.0357  -19.8308 C   0  0  0  0  0  0  0  0  0  0  0  0
    3.8647   17.7276  -19.7024 C   0  0  0  0  0  0  0  0  0  0  0  0
    2.5551   17.3351  -19.9142 C   0  0  0  0  0  0  0  0  0  0  0  0
    1.6560   18.3039  -20.2617 C   0  0  0  0  0  0  0  0  0  0  0  0
   -0.0153   17.8814  -20.5449 Cl  0  0  0  0  0  0  0  0  0  0  0  0
    2.0041   19.6479  -20.4080 C   0  0  0  0  0  0  0  0  0  0  0  0
    3.3224   19.9880  -20.1859 C   0  0  0  0  0  0  0  0  0  0  0  0
    3.8359   21.6586  -20.3506 Cl  0  0  0  0  0  0  0  0  0  0  0  0
    6.0390   19.5481  -18.2794 C   0  0  0  0  0  0  0  0  0  0  0  0
    5.5930   19.3634  -19.6059 O   0  0  0  0  0  0  0  0  0  0  0  0
    2.1793   15.9882  -19.7734 O   0  0  0  0  0  0  0  0  0  0  0  0
    1.8282   15.4684  -18.4966 C   0  0  0  0  0  0  0  0  0  0  0  0
 35 36  1  0  0  0
 36 27  1  0  0  0
 27 28  2  0  0  0
 28 29  1  0  0  0
 29 37  1  0  0  0
 37 38  1  0  0  0
 29 30  2  0  0  0
 30 31  1  0  0  0
 30 32  1  0  0  0
 32 33  2  0  0  0
 33 34  1  0  0  0
 32  1  1  0  0  0
  1  2  1  0  0  0
  2  3  2  0  0  0
  3  4  1  0  0  0
  4  5  2  0  0  0
  5  6  1  0  0  0
  6  7  2  0  0  0
  3  8  1  0  0  0
  8  9  2  0  0  0
  9 10  1  0  0  0
 10 11  2  0  0  0
 11 12  1  0  0  0
 12 13  2  0  0  0
 13 14  1  0  0  0
 10 17  1  0  0  0
 17 18  2  0  0  0
 18 19  1  0  0  0
 19 20  1  0  0  0
 19 21  1  0  0  0
 21 22  2  0  0  0
 22 23  1  0  0  0
 23 24  1  0  0  0
 23 25  1  0  0  0
 23 26  1  0  0  0
 33 27  1  0  0  0
  6  1  1  0  0  0
 13  8  1  0  0  0
 22 17  1  0  0  0
 14 15  1  0  0  0
 14 16  1  0  0  0
M  END
> <minimizedAffinity>
-7.58836

> <CNNscore>
0.3300927877

> <CNNaffinity>
7.1200523376

> <CNN_VS>
2.3502779007

> <CNNaffinity_variance>
0.0233085118

$$$$
[H]c1nc(N([H])[H])c(-c2nn(-c3c(Cl)c(OC([H])([H])[H])c([H])c(OC([H])([H])[H])c3Cl)c(=O)c([H])c2[H])nc1-c1c(C(F)(F)F)nn(C([H])([H])[H])c1[H]


 38 41  0  0  0  0  0  0  0  0999 V2000
   -5.7179   22.0188  -19.9790 N   0  0  0  0  0  0  0  0  0  0  0  0
   -4.7665   22.0402  -20.8747 N   0  0  0  0  0  0  0  0  0  0  0  0
   -4.9353   21.9030  -22.1940 C   0  0  0  0  0  0  0  0  0  0  0  0
   -6.2286   21.7243  -22.6370 C   0  0  0  0  0  0  0  0  0  0  0  0
   -7.3019   21.6901  -21.7384 C   0  0  0  0  0  0  0  0  0  0  0  0
   -6.9913   21.8434  -20.4074 C   0  0  0  0  0  0  0  0  0  0  0  0
   -7.9180   21.8232  -19.5282 O   0  0  0  0  0  0  0  0  0  0  0  0
   -3.8036   21.9417  -23.1286 C   0  0  0  0  0  0  0  0  0  0  0  0
   -3.9414   22.3228  -24.4034 N   0  0  0  0  0  0  0  0  0  0  0  0
   -2.9156   22.3661  -25.2690 C   0  0  0  0  0  0  0  0  0  0  0  0
   -1.6586   21.9889  -24.7824 C   0  0  0  0  0  0  0  0  0  0  0  0
   -1.4721   21.5950  -23.4953 N   0  0  0  0  0  0  0  0  0  0  0  0
   -2.5496   21.5799  -22.6954 C   0  0  0  0  0  0  0  0  0  0  0  0
   -2.4201   21.1741  -21.3252 N   0  0  0  0  0  0  0  0  0  0  0  0
   -2.2266   21.8638  -20.5668 H   0  0  0  0  0  0  0  0  0  0  0  0
   -2.5220   20.1670  -21.0823 H   0  0  0  0  0  0  0  0  0  0  0  0
   -3.0280   22.7720  -26.6579 C   0  0  0  0  0  0  0  0  0  0  0  0
   -4.1851   23.0650  -27.3418 C   0  0  0  0  0  0  0  0  0  0  0  0
   -3.8854   23.4053  -28.6193 N   0  0  0  0  0  0  0  0  0  0  0  0
   -4.8626   23.7720  -29.6147 C   0  0  0  0  0  0  0  0  0  0  0  0
   -2.5934   23.3275  -28.7267 N   0  0  0  0  0  0  0  0  0  0  0  0
   -2.0097   22.9450  -27.5615 C   0  0  0  0  0  0  0  0  0  0  0  0
   -0.5626   22.7872  -27.4215 C   0  0  0  0  0  0  0  0  0  0  0  0
    0.1059   23.1909  -28.5931 F   0  0  0  0  0  0  0  0  0  0  0  0
   -0.2282   21.4574  -27.2721 F   0  0  0  0  0  0  0  0  0  0  0  0
   -0.0086   23.5500  -26.4130 F   0  0  0  0  0  0  0  0  0  0  0  0
   -5.4020   23.4955  -16.5609 C   0  0  0  0  0  0  0  0  0  0  0  0
   -4.9793   22.3848  -15.8686 C   0  0  0  0  0  0  0  0  0  0  0  0
   -4.7910   21.1589  -16.4814 C   0  0  0  0  0  0  0  0  0  0  0  0
   -5.0424   21.0804  -17.8225 C   0  0  0  0  0  0  0  0  0  0  0  0
   -4.8261   19.5642  -18.6629 Cl  0  0  0  0  0  0  0  0  0  0  0  0
   -5.4732   22.1703  -18.5810 C   0  0  0  0  0  0  0  0  0  0  0  0
   -5.6458   23.3705  -17.9231 C   0  0  0  0  0  0  0  0  0  0  0  0
   -6.1856   24.7860  -18.8101 Cl  0  0  0  0  0  0  0  0  0  0  0  0
   -6.3375   24.7129  -14.7057 C   0  0  0  0  0  0  0  0  0  0  0  0
   -5.5708   24.6917  -15.8907 O   0  0  0  0  0  0  0  0  0  0  0  0
   -4.3578   20.0464  -15.7400 O   0  0  0  0  0  0  0  0  0  0  0  0
   -3.0246   19.9841  -15.2476 C   0  0  0  0  0  0  0  0  0  0  0  0
 35 36  1  0  0  0
 36 27  1  0  0  0
 27 28  2  0  0  0
 28 29  1  0  0  0
 29 37  1  0  0  0
 37 38  1  0  0  0
 29 30  2  0  0  0
 30 31  1  0  0  0
 30 32  1  0  0  0
 32 33  2  0  0  0
 33 34  1  0  0  0
 32  1  1  0  0  0
  1  2  1  0  0  0
  2  3  2  0  0  0
  3  4  1  0  0  0
  4  5  2  0  0  0
  5  6  1  0  0  0
  6  7  2  0  0  0
  3  8  1  0  0  0
  8  9  2  0  0  0
  9 10  1  0  0  0
 10 11  2  0  0  0
 11 12  1  0  0  0
 12 13  2  0  0  0
 13 14  1  0  0  0
 10 17  1  0  0  0
 17 18  2  0  0  0
 18 19  1  0  0  0
 19 20  1  0  0  0
 19 21  1  0  0  0
 21 22  2  0  0  0
 22 23  1  0  0  0
 23 24  1  0  0  0
 23 25  1  0  0  0
 23 26  1  0  0  0
 33 27  1  0  0  0
  6  1  1  0  0  0
 13  8  1  0  0  0
 22 17  1  0  0  0
 14 15  1  0  0  0
 14 16  1  0  0  0
M  END
> <minimizedAffinity>
-7.75473

> <CNNscore>
0.1328539699

> <CNNaffinity>
6.4243545532

> <CNN_VS>
0.8535010219

> <CNNaffinity_variance>
0.2543869317

$$$$
[H]c1nc(N([H])[H])c(-c2nn(-c3c(Cl)c(OC([H])([H])[H])c([H])c(OC([H])([H])[H])c3Cl)c(=O)c([H])c2[H])nc1-c1c(C(F)(F)F)nn(C([H])([H])[H])c1[H]


 38 41  0  0  0  0  0  0  0  0999 V2000
   -6.1508   22.3288  -20.1873 N   0  0  0  0  0  0  0  0  0  0  0  0
   -5.3330   22.6719  -21.1472 N   0  0  0  0  0  0  0  0  0  0  0  0
   -5.5545   22.5076  -22.4555 C   0  0  0  0  0  0  0  0  0  0  0  0
   -6.7523   21.9251  -22.8118 C   0  0  0  0  0  0  0  0  0  0  0  0
   -7.6807   21.5302  -21.8409 C   0  0  0  0  0  0  0  0  0  0  0  0
   -7.3297   21.7557  -20.5304 C   0  0  0  0  0  0  0  0  0  0  0  0
   -8.1259   21.4219  -19.5888 O   0  0  0  0  0  0  0  0  0  0  0  0
   -4.5753   22.9263  -23.4663 C   0  0  0  0  0  0  0  0  0  0  0  0
   -3.3295   22.4405  -23.4996 N   0  0  0  0  0  0  0  0  0  0  0  0
   -2.4239   22.8115  -24.4193 C   0  0  0  0  0  0  0  0  0  0  0  0
   -2.8353   23.7510  -25.3717 C   0  0  0  0  0  0  0  0  0  0  0  0
   -4.0908   24.2712  -25.3761 N   0  0  0  0  0  0  0  0  0  0  0  0
   -4.9344   23.8473  -24.4223 C   0  0  0  0  0  0  0  0  0  0  0  0
   -6.2745   24.3575  -24.3717 N   0  0  0  0  0  0  0  0  0  0  0  0
   -7.0591   23.8837  -24.8699 H   0  0  0  0  0  0  0  0  0  0  0  0
   -6.4683   25.2215  -23.8243 H   0  0  0  0  0  0  0  0  0  0  0  0
   -1.0644   22.3076  -24.4849 C   0  0  0  0  0  0  0  0  0  0  0  0
   -0.2557   21.9720  -23.4239 C   0  0  0  0  0  0  0  0  0  0  0  0
    0.9436   21.5395  -23.8843 N   0  0  0  0  0  0  0  0  0  0  0  0
    2.0314   21.1072  -23.0415 C   0  0  0  0  0  0  0  0  0  0  0  0
    0.8844   21.6031  -25.1802 N   0  0  0  0  0  0  0  0  0  0  0  0
   -0.3180   22.0653  -25.6108 C   0  0  0  0  0  0  0  0  0  0  0  0
   -0.6369   22.2256  -27.0289 C   0  0  0  0  0  0  0  0  0  0  0  0
    0.3298   21.5991  -27.8387 F   0  0  0  0  0  0  0  0  0  0  0  0
   -0.5862   23.5549  -27.3940 F   0  0  0  0  0  0  0  0  0  0  0  0
   -1.8385   21.6584  -27.4029 F   0  0  0  0  0  0  0  0  0  0  0  0
   -5.8590   23.8790  -16.7998 C   0  0  0  0  0  0  0  0  0  0  0  0
   -5.2541   22.8446  -16.1248 C   0  0  0  0  0  0  0  0  0  0  0  0
   -4.9339   21.6474  -16.7396 C   0  0  0  0  0  0  0  0  0  0  0  0
   -5.2423   21.5183  -18.0648 C   0  0  0  0  0  0  0  0  0  0  0  0
   -4.8670   20.0343  -18.9068 Cl  0  0  0  0  0  0  0  0  0  0  0  0
   -5.8559   22.5301  -18.8054 C   0  0  0  0  0  0  0  0  0  0  0  0
   -6.1547   23.7045  -18.1462 C   0  0  0  0  0  0  0  0  0  0  0  0
   -6.9270   25.0225  -19.0111 Cl  0  0  0  0  0  0  0  0  0  0  0  0
   -6.1662   25.0479  -14.7170 C   0  0  0  0  0  0  0  0  0  0  0  0
   -6.1529   25.0501  -16.1285 O   0  0  0  0  0  0  0  0  0  0  0  0
   -4.3157   20.6133  -16.0161 O   0  0  0  0  0  0  0  0  0  0  0  0
   -5.0867   19.5347  -15.5004 C   0  0  0  0  0  0  0  0  0  0  0  0
 35 36  1  0  0  0
 36 27  1  0  0  0
 27 28  2  0  0  0
 28 29  1  0  0  0
 29 37  1  0  0  0
 37 38  1  0  0  0
 29 30  2  0  0  0
 30 31  1  0  0  0
 30 32  1  0  0  0
 32 33  2  0  0  0
 33 34  1  0  0  0
 32  1  1  0  0  0
  1  2  1  0  0  0
  2  3  2  0  0  0
  3  4  1  0  0  0
  4  5  2  0  0  0
  5  6  1  0  0  0
  6  7  2  0  0  0
  3  8  1  0  0  0
  8  9  2  0  0  0
  9 10  1  0  0  0
 10 11  2  0  0  0
 11 12  1  0  0  0
 12 13  2  0  0  0
 13 14  1  0  0  0
 10 17  1  0  0  0
 17 18  2  0  0  0
 18 19  1  0  0  0
 19 20  1  0  0  0
 19 21  1  0  0  0
 21 22  2  0  0  0
 22 23  1  0  0  0
 23 24  1  0  0  0
 23 25  1  0  0  0
 23 26  1  0  0  0
 33 27  1  0  0  0
  6  1  1  0  0  0
 13  8  1  0  0  0
 22 17  1  0  0  0
 14 15  1  0  0  0
 14 16  1  0  0  0
M  END
> <minimizedAffinity>
-7.60612

> <CNNscore>
0.0800089315

> <CNNaffinity>
6.5256133080

> <CNN_VS>
0.5221073627

> <CNNaffinity_variance>
0.1078246385

$$$$
[H]c1nc(N([H])[H])c(-c2nn(-c3c(Cl)c(OC([H])([H])[H])c([H])c(OC([H])([H])[H])c3Cl)c(=O)c([H])c2[H])nc1-c1c(C(F)(F)F)nn(C([H])([H])[H])c1[H]


 38 41  0  0  0  0  0  0  0  0999 V2000
   -3.2910   22.3167  -21.0959 N   0  0  0  0  0  0  0  0  0  0  0  0
   -4.1532   21.4328  -20.6679 N   0  0  0  0  0  0  0  0  0  0  0  0
   -4.2546   20.9883  -19.4109 C   0  0  0  0  0  0  0  0  0  0  0  0
   -3.3683   21.5145  -18.4953 C   0  0  0  0  0  0  0  0  0  0  0  0
   -2.4148   22.4661  -18.8772 C   0  0  0  0  0  0  0  0  0  0  0  0
   -2.4169   22.8378  -20.2013 C   0  0  0  0  0  0  0  0  0  0  0  0
   -1.5758   23.7015  -20.6243 O   0  0  0  0  0  0  0  0  0  0  0  0
   -5.2588   19.9912  -19.0198 C   0  0  0  0  0  0  0  0  0  0  0  0
   -4.9262   18.8218  -18.4619 N   0  0  0  0  0  0  0  0  0  0  0  0
   -5.8332   17.9014  -18.0963 C   0  0  0  0  0  0  0  0  0  0  0  0
   -7.1789   18.2117  -18.3233 C   0  0  0  0  0  0  0  0  0  0  0  0
   -7.5628   19.3871  -18.8871 N   0  0  0  0  0  0  0  0  0  0  0  0
   -6.5935   20.2522  -19.2235 C   0  0  0  0  0  0  0  0  0  0  0  0
   -6.9322   21.5113  -19.8227 N   0  0  0  0  0  0  0  0  0  0  0  0
   -7.0942   22.3652  -19.2458 H   0  0  0  0  0  0  0  0  0  0  0  0
   -7.0180   21.5738  -20.8582 H   0  0  0  0  0  0  0  0  0  0  0  0
   -5.5092   16.6227  -17.4909 C   0  0  0  0  0  0  0  0  0  0  0  0
   -5.4044   16.3479  -16.1470 C   0  0  0  0  0  0  0  0  0  0  0  0
   -5.0874   15.0416  -15.9726 N   0  0  0  0  0  0  0  0  0  0  0  0
   -4.8995   14.4139  -14.6876 C   0  0  0  0  0  0  0  0  0  0  0  0
   -4.9983   14.5234  -17.1602 N   0  0  0  0  0  0  0  0  0  0  0  0
   -5.2453   15.4388  -18.1328 C   0  0  0  0  0  0  0  0  0  0  0  0
   -5.2107   15.1032  -19.5557 C   0  0  0  0  0  0  0  0  0  0  0  0
   -6.3371   15.6194  -20.2246 F   0  0  0  0  0  0  0  0  0  0  0  0
   -5.2943   13.7385  -19.7382 F   0  0  0  0  0  0  0  0  0  0  0  0
   -4.1247   15.6239  -20.2302 F   0  0  0  0  0  0  0  0  0  0  0  0
   -2.3102   22.6496  -24.6863 C   0  0  0  0  0  0  0  0  0  0  0  0
   -3.1780   23.6451  -25.0705 C   0  0  0  0  0  0  0  0  0  0  0  0
   -4.0807   24.2185  -24.1929 C   0  0  0  0  0  0  0  0  0  0  0  0
   -4.0866   23.7581  -22.9060 C   0  0  0  0  0  0  0  0  0  0  0  0
   -5.1997   24.4358  -21.7426 Cl  0  0  0  0  0  0  0  0  0  0  0  0
   -3.2319   22.7511  -22.4542 C   0  0  0  0  0  0  0  0  0  0  0  0
   -2.3504   22.2119  -23.3681 C   0  0  0  0  0  0  0  0  0  0  0  0
   -1.2444   20.9413  -22.8742 Cl  0  0  0  0  0  0  0  0  0  0  0  0
   -1.5488   22.4965  -26.9657 C   0  0  0  0  0  0  0  0  0  0  0  0
   -1.4321   22.1180  -25.6108 O   0  0  0  0  0  0  0  0  0  0  0  0
   -4.9517   25.2340  -24.6230 O   0  0  0  0  0  0  0  0  0  0  0  0
   -6.1759   24.9067  -25.2694 C   0  0  0  0  0  0  0  0  0  0  0  0
 35 36  1  0  0  0
 36 27  1  0  0  0
 27 28  2  0  0  0
 28 29  1  0  0  0
 29 37  1  0  0  0
 37 38  1  0  0  0
 29 30  2  0  0  0
 30 31  1  0  0  0
 30 32  1  0  0  0
 32 33  2  0  0  0
 33 34  1  0  0  0
 32  1  1  0  0  0
  1  2  1  0  0  0
  2  3  2  0  0  0
  3  4  1  0  0  0
  4  5  2  0  0  0
  5  6  1  0  0  0
  6  7  2  0  0  0
  3  8  1  0  0  0
  8  9  2  0  0  0
  9 10  1  0  0  0
 10 11  2  0  0  0
 11 12  1  0  0  0
 12 13  2  0  0  0
 13 14  1  0  0  0
 10 17  1  0  0  0
 17 18  2  0  0  0
 18 19  1  0  0  0
 19 20  1  0  0  0
 19 21  1  0  0  0
 21 22  2  0  0  0
 22 23  1  0  0  0
 23 24  1  0  0  0
 23 25  1  0  0  0
 23 26  1  0  0  0
 33 27  1  0  0  0
  6  1  1  0  0  0
 13  8  1  0  0  0
 22 17  1  0  0  0
 14 15  1  0  0  0
 14 16  1  0  0  0
M  END
> <minimizedAffinity>
-6.50304

> <CNNscore>
0.0649314374

> <CNNaffinity>
6.2444067001

> <CNN_VS>
0.4054583013

> <CNNaffinity_variance>
0.0298075471

$$$$
[H]c1nc(N([H])[H])c(-c2nn(-c3c(Cl)c(OC([H])([H])[H])c([H])c(OC([H])([H])[H])c3Cl)c(=O)c([H])c2[H])nc1-c1c(C(F)(F)F)nn(C([H])([H])[H])c1[H]


 38 41  0  0  0  0  0  0  0  0999 V2000
   -3.1536   22.2588  -20.9483 N   0  0  0  0  0  0  0  0  0  0  0  0
   -4.0264   21.3684  -20.5568 N   0  0  0  0  0  0  0  0  0  0  0  0
   -4.1837   20.9304  -19.3033 C   0  0  0  0  0  0  0  0  0  0  0  0
   -3.3482   21.4714  -18.3494 C   0  0  0  0  0  0  0  0  0  0  0  0
   -2.3872   22.4308  -18.6910 C   0  0  0  0  0  0  0  0  0  0  0  0
   -2.3293   22.7946  -20.0160 C   0  0  0  0  0  0  0  0  0  0  0  0
   -1.4777   23.6646  -20.4035 O   0  0  0  0  0  0  0  0  0  0  0  0
   -5.1953   19.9249  -18.9546 C   0  0  0  0  0  0  0  0  0  0  0  0
   -4.8713   18.7307  -18.4465 N   0  0  0  0  0  0  0  0  0  0  0  0
   -5.7850   17.8022  -18.1200 C   0  0  0  0  0  0  0  0  0  0  0  0
   -7.1284   18.1316  -18.3339 C   0  0  0  0  0  0  0  0  0  0  0  0
   -7.5036   19.3324  -18.8477 N   0  0  0  0  0  0  0  0  0  0  0  0
   -6.5280   20.2039  -19.1473 C   0  0  0  0  0  0  0  0  0  0  0  0
   -6.8573   21.4895  -19.6929 N   0  0  0  0  0  0  0  0  0  0  0  0
   -7.0134   22.3195  -19.0805 H   0  0  0  0  0  0  0  0  0  0  0  0
   -6.9423   21.5962  -20.7248 H   0  0  0  0  0  0  0  0  0  0  0  0
   -5.4705   16.4968  -17.5690 C   0  0  0  0  0  0  0  0  0  0  0  0
   -5.3579   16.1674  -16.2381 C   0  0  0  0  0  0  0  0  0  0  0  0
   -5.0542   14.8517  -16.1188 N   0  0  0  0  0  0  0  0  0  0  0  0
   -4.8630   14.1711  -14.8616 C   0  0  0  0  0  0  0  0  0  0  0  0
   -4.9806   14.3805  -17.3269 N   0  0  0  0  0  0  0  0  0  0  0  0
   -5.2252   15.3368  -18.2599 C   0  0  0  0  0  0  0  0  0  0  0  0
   -5.2059   15.0582  -19.6954 C   0  0  0  0  0  0  0  0  0  0  0  0
   -5.1955   13.6718  -19.9414 F   0  0  0  0  0  0  0  0  0  0  0  0
   -4.0390   15.5206  -20.2673 F   0  0  0  0  0  0  0  0  0  0  0  0
   -6.3090   15.5337  -20.3755 F   0  0  0  0  0  0  0  0  0  0  0  0
   -3.6759   24.0945  -24.1610 C   0  0  0  0  0  0  0  0  0  0  0  0
   -2.7415   23.4579  -24.9442 C   0  0  0  0  0  0  0  0  0  0  0  0
   -1.9388   22.4412  -24.4588 C   0  0  0  0  0  0  0  0  0  0  0  0
   -2.1035   22.0792  -23.1512 C   0  0  0  0  0  0  0  0  0  0  0  0
   -1.1246   20.8027  -22.4698 Cl  0  0  0  0  0  0  0  0  0  0  0  0
   -3.0336   22.6857  -22.3050 C   0  0  0  0  0  0  0  0  0  0  0  0
   -3.8098   23.6943  -22.8372 C   0  0  0  0  0  0  0  0  0  0  0  0
   -5.0013   24.5046  -21.8344 Cl  0  0  0  0  0  0  0  0  0  0  0  0
   -4.3874   25.3386  -26.0962 C   0  0  0  0  0  0  0  0  0  0  0  0
   -4.4473   25.1028  -24.7058 O   0  0  0  0  0  0  0  0  0  0  0  0
   -0.9950   21.8145  -25.2903 O   0  0  0  0  0  0  0  0  0  0  0  0
    0.3170   22.3486  -25.4206 C   0  0  0  0  0  0  0  0  0  0  0  0
 35 36  1  0  0  0
 36 27  1  0  0  0
 27 28  2  0  0  0
 28 29  1  0  0  0
 29 37  1  0  0  0
 37 38  1  0  0  0
 29 30  2  0  0  0
 30 31  1  0  0  0
 30 32  1  0  0  0
 32 33  2  0  0  0
 33 34  1  0  0  0
 32  1  1  0  0  0
  1  2  1  0  0  0
  2  3  2  0  0  0
  3  4  1  0  0  0
  4  5  2  0  0  0
  5  6  1  0  0  0
  6  7  2  0  0  0
  3  8  1  0  0  0
  8  9  2  0  0  0
  9 10  1  0  0  0
 10 11  2  0  0  0
 11 12  1  0  0  0
 12 13  2  0  0  0
 13 14  1  0  0  0
 10 17  1  0  0  0
 17 18  2  0  0  0
 18 19  1  0  0  0
 19 20  1  0  0  0
 19 21  1  0  0  0
 21 22  2  0  0  0
 22 23  1  0  0  0
 23 24  1  0  0  0
 23 25  1  0  0  0
 23 26  1  0  0  0
 33 27  1  0  0  0
  6  1  1  0  0  0
 13  8  1  0  0  0
 22 17  1  0  0  0
 14 15  1  0  0  0
 14 16  1  0  0  0
M  END
> <minimizedAffinity>
-6.60268

> <CNNscore>
0.0643909201

> <CNNaffinity>
6.2330408096

> <CNN_VS>
0.4013512433

> <CNNaffinity_variance>
0.0191000365

$$$$
[H]c1nc(-c2c(C([H])([H])[H])nn(C([H])([H])[H])c2[H])c([H])c2c1C([H])([H])N(c1c(F)c(OC([H])([H])[H])c([H])c(OC([H])([H])[H])c1F)C(=O)N2C([H])([H])C([H])([H])c1c([H])nn(C([H])([H])[H])c1[H]


 38 42  0  0  0  0  0  0  0  0999 V2000
   -4.9941   21.9128  -19.8635 N   0  0  0  0  0  0  0  0  0  0  0  0
   -3.5570   22.0337  -19.7689 C   0  0  0  0  0  0  0  0  0  0  0  0
   -2.9080   22.0914  -21.0905 C   0  0  0  0  0  0  0  0  0  0  0  0
   -1.5253   22.1990  -21.1549 C   0  0  0  0  0  0  0  0  0  0  0  0
   -0.8826   22.2582  -22.3443 N   0  0  0  0  0  0  0  0  0  0  0  0
   -1.5386   22.2171  -23.5156 C   0  0  0  0  0  0  0  0  0  0  0  0
   -2.9117   22.1109  -23.4823 C   0  0  0  0  0  0  0  0  0  0  0  0
   -3.5962   22.0478  -22.2604 C   0  0  0  0  0  0  0  0  0  0  0  0
   -5.0009   21.9372  -22.3271 N   0  0  0  0  0  0  0  0  0  0  0  0
   -5.7030   21.8694  -21.0932 C   0  0  0  0  0  0  0  0  0  0  0  0
   -6.9496   21.7714  -21.0573 O   0  0  0  0  0  0  0  0  0  0  0  0
   -6.6952   20.4241  -16.9100 C   0  0  0  0  0  0  0  0  0  0  0  0
   -7.0359   21.5777  -16.2206 C   0  0  0  0  0  0  0  0  0  0  0  0
   -6.7367   22.8309  -16.6741 C   0  0  0  0  0  0  0  0  0  0  0  0
   -6.0604   22.9453  -17.8814 C   0  0  0  0  0  0  0  0  0  0  0  0
   -5.7193   24.1484  -18.4139 F   0  0  0  0  0  0  0  0  0  0  0  0
   -5.6990   21.8304  -18.6053 C   0  0  0  0  0  0  0  0  0  0  0  0
   -6.0254   20.5890  -18.1024 C   0  0  0  0  0  0  0  0  0  0  0  0
   -5.6882   19.4763  -18.7815 F   0  0  0  0  0  0  0  0  0  0  0  0
   -8.1983   18.5529  -16.9035 C   0  0  0  0  0  0  0  0  0  0  0  0
   -6.9963   19.1492  -16.4538 O   0  0  0  0  0  0  0  0  0  0  0  0
   -7.0570   24.0076  -16.0197 O   0  0  0  0  0  0  0  0  0  0  0  0
   -6.0529   24.5331  -15.1511 C   0  0  0  0  0  0  0  0  0  0  0  0
   -0.8613   22.2789  -24.8021 C   0  0  0  0  0  0  0  0  0  0  0  0
   -1.3329   22.6906  -26.0259 C   0  0  0  0  0  0  0  0  0  0  0  0
   -0.3687   22.5855  -26.9633 N   0  0  0  0  0  0  0  0  0  0  0  0
   -0.4555   22.9177  -28.3878 C   0  0  0  0  0  0  0  0  0  0  0  0
    0.7039   22.1135  -26.3490 N   0  0  0  0  0  0  0  0  0  0  0  0
    0.4582   21.9095  -25.0328 C   0  0  0  0  0  0  0  0  0  0  0  0
    1.4118   21.3902  -24.0259 C   0  0  0  0  0  0  0  0  0  0  0  0
   -5.7431   21.8895  -23.5595 C   0  0  0  0  0  0  0  0  0  0  0  0
   -6.3611   23.2204  -23.9305 C   0  0  0  0  0  0  0  0  0  0  0  0
   -6.1700   23.4047  -25.3891 C   0  0  0  0  0  0  0  0  0  0  0  0
   -7.0639   23.9004  -26.3031 C   0  0  0  0  0  0  0  0  0  0  0  0
   -6.4648   23.8852  -27.5092 N   0  0  0  0  0  0  0  0  0  0  0  0
   -5.2370   23.4055  -27.4094 N   0  0  0  0  0  0  0  0  0  0  0  0
   -4.2271   23.2016  -28.4221 C   0  0  0  0  0  0  0  0  0  0  0  0
   -5.0343   23.1013  -26.1008 C   0  0  0  0  0  0  0  0  0  0  0  0
 20 21  1  0  0  0
 21 12  1  0  0  0
 12 13  2  0  0  0
 13 14  1  0  0  0
 14 22  1  0  0  0
 22 23  1  0  0  0
 14 15  2  0  0  0
 15 16  1  0  0  0
 15 17  1  0  0  0
 17  1  1  0  0  0
  1  2  1  0  0  0
  2  3  1  0  0  0
  3  4  2  0  0  0
  4  5  1  0  0  0
  5  6  2  0  0  0
  6  7  1  0  0  0
  7  8  2  0  0  0
  8  9  1  0  0  0
  9 31  1  0  0  0
 31 32  1  0  0  0
 32 33  1  0  0  0
 33 34  1  0  0  0
 34 35  2  0  0  0
 35 36  1  0  0  0
 36 37  1  0  0  0
 36 38  1  0  0  0
  9 10  1  0  0  0
 10 11  2  0  0  0
  6 24  1  0  0  0
 24 25  2  0  0  0
 25 26  1  0  0  0
 26 27  1  0  0  0
 26 28  1  0  0  0
 28 29  2  0  0  0
 29 30  1  0  0  0
 17 18  2  0  0  0
 18 19  1  0  0  0
 18 12  1  0  0  0
 10  1  1  0  0  0
 29 24  1  0  0  0
  8  3  1  0  0  0
 38 33  2  0  0  0
M  END
> <minimizedAffinity>
-7.81176

> <CNNscore>
0.4234144986

> <CNNaffinity>
7.3746514320

> <CNN_VS>
3.1225342751

> <CNNaffinity_variance>
0.0103560602

$$$$
[H]c1nc(-c2c(C([H])([H])[H])nn(C([H])([H])[H])c2[H])c([H])c2c1C([H])([H])N(c1c(F)c(OC([H])([H])[H])c([H])c(OC([H])([H])[H])c1F)C(=O)N2C([H])([H])C([H])([H])c1c([H])nn(C([H])([H])[H])c1[H]


 38 42  0  0  0  0  0  0  0  0999 V2000
   -5.8329   22.9491  -21.0280 N   0  0  0  0  0  0  0  0  0  0  0  0
   -4.7420   22.0037  -21.0997 C   0  0  0  0  0  0  0  0  0  0  0  0
   -3.9073   22.1962  -22.2986 C   0  0  0  0  0  0  0  0  0  0  0  0
   -2.8246   21.3519  -22.5051 C   0  0  0  0  0  0  0  0  0  0  0  0
   -2.0265   21.4898  -23.5891 N   0  0  0  0  0  0  0  0  0  0  0  0
   -2.2341   22.4402  -24.5151 C   0  0  0  0  0  0  0  0  0  0  0  0
   -3.3011   23.2929  -24.3360 C   0  0  0  0  0  0  0  0  0  0  0  0
   -4.1401   23.1665  -23.2199 C   0  0  0  0  0  0  0  0  0  0  0  0
   -5.2079   24.0832  -23.1239 N   0  0  0  0  0  0  0  0  0  0  0  0
   -6.0655   23.9605  -21.9972 C   0  0  0  0  0  0  0  0  0  0  0  0
   -7.0367   24.7311  -21.8305 O   0  0  0  0  0  0  0  0  0  0  0  0
   -7.1606   23.3655  -17.5787 C   0  0  0  0  0  0  0  0  0  0  0  0
   -8.3131   22.6003  -17.6695 C   0  0  0  0  0  0  0  0  0  0  0  0
   -8.6843   21.9472  -18.8104 C   0  0  0  0  0  0  0  0  0  0  0  0
   -7.8642   22.0606  -19.9251 C   0  0  0  0  0  0  0  0  0  0  0  0
   -8.1493   21.4480  -21.1043 F   0  0  0  0  0  0  0  0  0  0  0  0
   -6.7081   22.8088  -19.8873 C   0  0  0  0  0  0  0  0  0  0  0  0
   -6.3797   23.4476  -18.7106 C   0  0  0  0  0  0  0  0  0  0  0  0
   -5.2578   24.1883  -18.6357 F   0  0  0  0  0  0  0  0  0  0  0  0
   -6.7202   23.2868  -15.2207 C   0  0  0  0  0  0  0  0  0  0  0  0
   -6.7792   24.0309  -16.4229 O   0  0  0  0  0  0  0  0  0  0  0  0
   -9.8242   21.1740  -18.9453 O   0  0  0  0  0  0  0  0  0  0  0  0
  -10.4143   20.7129  -17.7296 C   0  0  0  0  0  0  0  0  0  0  0  0
   -1.3850   22.6001  -25.6862 C   0  0  0  0  0  0  0  0  0  0  0  0
   -1.7173   22.9533  -26.9724 C   0  0  0  0  0  0  0  0  0  0  0  0
   -0.6177   22.9837  -27.7529 N   0  0  0  0  0  0  0  0  0  0  0  0
   -0.5323   23.3106  -29.1787 C   0  0  0  0  0  0  0  0  0  0  0  0
    0.4032   22.6548  -26.9782 N   0  0  0  0  0  0  0  0  0  0  0  0
   -0.0086   22.4113  -25.7111 C   0  0  0  0  0  0  0  0  0  0  0  0
    0.8428   22.0172  -24.5654 C   0  0  0  0  0  0  0  0  0  0  0  0
   -5.4666   25.1158  -24.0927 C   0  0  0  0  0  0  0  0  0  0  0  0
   -6.5890   24.7658  -25.0459 C   0  0  0  0  0  0  0  0  0  0  0  0
   -6.0103   24.7159  -26.4100 C   0  0  0  0  0  0  0  0  0  0  0  0
   -5.3247   25.7003  -27.0743 C   0  0  0  0  0  0  0  0  0  0  0  0
   -4.9889   25.2171  -28.2856 N   0  0  0  0  0  0  0  0  0  0  0  0
   -5.4254   23.9773  -28.4260 N   0  0  0  0  0  0  0  0  0  0  0  0
   -5.3058   23.0637  -29.5387 C   0  0  0  0  0  0  0  0  0  0  0  0
   -6.0623   23.6471  -27.2721 C   0  0  0  0  0  0  0  0  0  0  0  0
 20 21  1  0  0  0
 21 12  1  0  0  0
 12 13  2  0  0  0
 13 14  1  0  0  0
 14 22  1  0  0  0
 22 23  1  0  0  0
 14 15  2  0  0  0
 15 16  1  0  0  0
 15 17  1  0  0  0
 17  1  1  0  0  0
  1  2  1  0  0  0
  2  3  1  0  0  0
  3  4  2  0  0  0
  4  5  1  0  0  0
  5  6  2  0  0  0
  6  7  1  0  0  0
  7  8  2  0  0  0
  8  9  1  0  0  0
  9 31  1  0  0  0
 31 32  1  0  0  0
 32 33  1  0  0  0
 33 34  1  0  0  0
 34 35  2  0  0  0
 35 36  1  0  0  0
 36 37  1  0  0  0
 36 38  1  0  0  0
  9 10  1  0  0  0
 10 11  2  0  0  0
  6 24  1  0  0  0
 24 25  2  0  0  0
 25 26  1  0  0  0
 26 27  1  0  0  0
 26 28  1  0  0  0
 28 29  2  0  0  0
 29 30  1  0  0  0
 17 18  2  0  0  0
 18 19  1  0  0  0
 18 12  1  0  0  0
 10  1  1  0  0  0
 29 24  1  0  0  0
  8  3  1  0  0  0
 38 33  2  0  0  0
M  END
> <minimizedAffinity>
-7.70159

> <CNNscore>
0.3256243169

> <CNNaffinity>
7.4520020485

> <CNN_VS>
2.4265530109

> <CNNaffinity_variance>
0.0498686060

$$$$
[H]c1nc(-c2c(C([H])([H])[H])nn(C([H])([H])[H])c2[H])c([H])c2c1C([H])([H])N(c1c(F)c(OC([H])([H])[H])c([H])c(OC([H])([H])[H])c1F)C(=O)N2C([H])([H])C([H])([H])c1c([H])nn(C([H])([H])[H])c1[H]


 38 42  0  0  0  0  0  0  0  0999 V2000
   -5.8619   23.4507  -21.9183 N   0  0  0  0  0  0  0  0  0  0  0  0
   -7.0111   23.7555  -22.7400 C   0  0  0  0  0  0  0  0  0  0  0  0
   -6.6450   24.0345  -24.1398 C   0  0  0  0  0  0  0  0  0  0  0  0
   -7.6484   24.3525  -25.0452 C   0  0  0  0  0  0  0  0  0  0  0  0
   -7.3636   24.6142  -26.3419 N   0  0  0  0  0  0  0  0  0  0  0  0
   -6.1091   24.5810  -26.8205 C   0  0  0  0  0  0  0  0  0  0  0  0
   -5.0929   24.2679  -25.9447 C   0  0  0  0  0  0  0  0  0  0  0  0
   -5.3670   23.9939  -24.5974 C   0  0  0  0  0  0  0  0  0  0  0  0
   -4.2618   23.6861  -23.7767 N   0  0  0  0  0  0  0  0  0  0  0  0
   -4.5298   23.4100  -22.4085 C   0  0  0  0  0  0  0  0  0  0  0  0
   -3.6107   23.1266  -21.6086 O   0  0  0  0  0  0  0  0  0  0  0  0
   -6.7286   21.5617  -18.8338 C   0  0  0  0  0  0  0  0  0  0  0  0
   -6.6842   22.5873  -17.9020 C   0  0  0  0  0  0  0  0  0  0  0  0
   -6.3832   23.8785  -18.2308 C   0  0  0  0  0  0  0  0  0  0  0  0
   -6.1106   24.1679  -19.5612 C   0  0  0  0  0  0  0  0  0  0  0  0
   -5.8015   25.4217  -19.9851 F   0  0  0  0  0  0  0  0  0  0  0  0
   -6.1413   23.1852  -20.5261 C   0  0  0  0  0  0  0  0  0  0  0  0
   -6.4508   21.8983  -20.1404 C   0  0  0  0  0  0  0  0  0  0  0  0
   -6.4900   20.9111  -21.0552 F   0  0  0  0  0  0  0  0  0  0  0  0
   -8.3915   19.9222  -18.2799 C   0  0  0  0  0  0  0  0  0  0  0  0
   -7.0332   20.2490  -18.5052 O   0  0  0  0  0  0  0  0  0  0  0  0
   -6.3277   24.9318  -17.3347 O   0  0  0  0  0  0  0  0  0  0  0  0
   -5.7988   24.6271  -16.0439 C   0  0  0  0  0  0  0  0  0  0  0  0
   -5.7874   24.8609  -28.2119 C   0  0  0  0  0  0  0  0  0  0  0  0
   -5.9919   26.0024  -28.9499 C   0  0  0  0  0  0  0  0  0  0  0  0
   -5.5432   25.8362  -30.2110 N   0  0  0  0  0  0  0  0  0  0  0  0
   -5.5705   26.8019  -31.3128 C   0  0  0  0  0  0  0  0  0  0  0  0
   -5.0589   24.6069  -30.2794 N   0  0  0  0  0  0  0  0  0  0  0  0
   -5.1828   23.9702  -29.0905 C   0  0  0  0  0  0  0  0  0  0  0  0
   -4.7571   22.5862  -28.7805 C   0  0  0  0  0  0  0  0  0  0  0  0
   -2.9025   23.6398  -24.2479 C   0  0  0  0  0  0  0  0  0  0  0  0
   -2.4846   22.2626  -24.7165 C   0  0  0  0  0  0  0  0  0  0  0  0
   -1.4137   22.4455  -25.7254 C   0  0  0  0  0  0  0  0  0  0  0  0
   -0.0676   22.2294  -25.5784 C   0  0  0  0  0  0  0  0  0  0  0  0
    0.5236   22.5267  -26.7513 N   0  0  0  0  0  0  0  0  0  0  0  0
   -0.3762   22.9206  -27.6358 N   0  0  0  0  0  0  0  0  0  0  0  0
   -0.2175   23.3365  -29.0102 C   0  0  0  0  0  0  0  0  0  0  0  0
   -1.5859   22.8771  -27.0186 C   0  0  0  0  0  0  0  0  0  0  0  0
 20 21  1  0  0  0
 21 12  1  0  0  0
 12 13  2  0  0  0
 13 14  1  0  0  0
 14 22  1  0  0  0
 22 23  1  0  0  0
 14 15  2  0  0  0
 15 16  1  0  0  0
 15 17  1  0  0  0
 17  1  1  0  0  0
  1  2  1  0  0  0
  2  3  1  0  0  0
  3  4  2  0  0  0
  4  5  1  0  0  0
  5  6  2  0  0  0
  6  7  1  0  0  0
  7  8  2  0  0  0
  8  9  1  0  0  0
  9 31  1  0  0  0
 31 32  1  0  0  0
 32 33  1  0  0  0
 33 34  1  0  0  0
 34 35  2  0  0  0
 35 36  1  0  0  0
 36 37  1  0  0  0
 36 38  1  0  0  0
  9 10  1  0  0  0
 10 11  2  0  0  0
  6 24  1  0  0  0
 24 25  2  0  0  0
 25 26  1  0  0  0
 26 27  1  0  0  0
 26 28  1  0  0  0
 28 29  2  0  0  0
 29 30  1  0  0  0
 17 18  2  0  0  0
 18 19  1  0  0  0
 18 12  1  0  0  0
 10  1  1  0  0  0
 29 24  1  0  0  0
  8  3  1  0  0  0
 38 33  2  0  0  0
M  END
> <minimizedAffinity>
-8.22485

> <CNNscore>
0.3176239431

> <CNNaffinity>
7.6760787964

> <CNN_VS>
2.4381062984

> <CNNaffinity_variance>
0.0484511964

$$$$
[H]c1nc(-c2c(C([H])([H])[H])nn(C([H])([H])[H])c2[H])c([H])c2c1C([H])([H])N(c1c(F)c(OC([H])([H])[H])c([H])c(OC([H])([H])[H])c1F)C(=O)N2C([H])([H])C([H])([H])c1c([H])nn(C([H])([H])[H])c1[H]


 38 42  0  0  0  0  0  0  0  0999 V2000
   -6.2572   23.4411  -21.9511 N   0  0  0  0  0  0  0  0  0  0  0  0
   -7.3435   23.8419  -22.8162 C   0  0  0  0  0  0  0  0  0  0  0  0
   -6.8947   24.1227  -24.1913 C   0  0  0  0  0  0  0  0  0  0  0  0
   -7.8308   24.5282  -25.1331 C   0  0  0  0  0  0  0  0  0  0  0  0
   -7.4690   24.7953  -26.4094 N   0  0  0  0  0  0  0  0  0  0  0  0
   -6.1989   24.6840  -26.8320 C   0  0  0  0  0  0  0  0  0  0  0  0
   -5.2484   24.2831  -25.9191 C   0  0  0  0  0  0  0  0  0  0  0  0
   -5.6027   24.0020  -24.5921 C   0  0  0  0  0  0  0  0  0  0  0  0
   -4.5604   23.6012  -23.7302 N   0  0  0  0  0  0  0  0  0  0  0  0
   -4.9099   23.3172  -22.3822 C   0  0  0  0  0  0  0  0  0  0  0  0
   -4.0504   22.9542  -21.5487 O   0  0  0  0  0  0  0  0  0  0  0  0
   -6.6568   23.9314  -18.2860 C   0  0  0  0  0  0  0  0  0  0  0  0
   -7.2711   22.7355  -17.9478 C   0  0  0  0  0  0  0  0  0  0  0  0
   -7.5652   21.7655  -18.8635 C   0  0  0  0  0  0  0  0  0  0  0  0
   -7.2301   21.9962  -20.1911 C   0  0  0  0  0  0  0  0  0  0  0  0
   -7.4820   21.0915  -21.1736 F   0  0  0  0  0  0  0  0  0  0  0  0
   -6.6184   23.1679  -20.5794 C   0  0  0  0  0  0  0  0  0  0  0  0
   -6.3437   24.1140  -19.6150 C   0  0  0  0  0  0  0  0  0  0  0  0
   -5.7471   25.2717  -19.9566 F   0  0  0  0  0  0  0  0  0  0  0  0
   -5.5617   24.5617  -16.2454 C   0  0  0  0  0  0  0  0  0  0  0  0
   -6.3563   24.9198  -17.3603 O   0  0  0  0  0  0  0  0  0  0  0  0
   -8.1768   20.5590  -18.5707 O   0  0  0  0  0  0  0  0  0  0  0  0
   -7.8243   19.9667  -17.3202 C   0  0  0  0  0  0  0  0  0  0  0  0
   -5.7948   24.9685  -28.2007 C   0  0  0  0  0  0  0  0  0  0  0  0
   -6.0144   26.0874  -28.9685 C   0  0  0  0  0  0  0  0  0  0  0  0
   -5.4660   25.9360  -30.1915 N   0  0  0  0  0  0  0  0  0  0  0  0
   -5.4720   26.8864  -31.3068 C   0  0  0  0  0  0  0  0  0  0  0  0
   -4.9039   24.7384  -30.2065 N   0  0  0  0  0  0  0  0  0  0  0  0
   -5.0748   24.1078  -29.0202 C   0  0  0  0  0  0  0  0  0  0  0  0
   -4.5891   22.7561  -28.6596 C   0  0  0  0  0  0  0  0  0  0  0  0
   -3.1872   23.4694  -24.1410 C   0  0  0  0  0  0  0  0  0  0  0  0
   -2.8400   22.0720  -24.6073 C   0  0  0  0  0  0  0  0  0  0  0  0
   -1.6079   22.1729  -25.4257 C   0  0  0  0  0  0  0  0  0  0  0  0
   -0.3282   21.8288  -25.0735 C   0  0  0  0  0  0  0  0  0  0  0  0
    0.4693   22.0917  -26.1263 N   0  0  0  0  0  0  0  0  0  0  0  0
   -0.2366   22.5850  -27.1291 N   0  0  0  0  0  0  0  0  0  0  0  0
    0.1791   23.0105  -28.4457 C   0  0  0  0  0  0  0  0  0  0  0  0
   -1.5292   22.6434  -26.7144 C   0  0  0  0  0  0  0  0  0  0  0  0
 20 21  1  0  0  0
 21 12  1  0  0  0
 12 13  2  0  0  0
 13 14  1  0  0  0
 14 22  1  0  0  0
 22 23  1  0  0  0
 14 15  2  0  0  0
 15 16  1  0  0  0
 15 17  1  0  0  0
 17  1  1  0  0  0
  1  2  1  0  0  0
  2  3  1  0  0  0
  3  4  2  0  0  0
  4  5  1  0  0  0
  5  6  2  0  0  0
  6  7  1  0  0  0
  7  8  2  0  0  0
  8  9  1  0  0  0
  9 31  1  0  0  0
 31 32  1  0  0  0
 32 33  1  0  0  0
 33 34  1  0  0  0
 34 35  2  0  0  0
 35 36  1  0  0  0
 36 37  1  0  0  0
 36 38  1  0  0  0
  9 10  1  0  0  0
 10 11  2  0  0  0
  6 24  1  0  0  0
 24 25  2  0  0  0
 25 26  1  0  0  0
 26 27  1  0  0  0
 26 28  1  0  0  0
 28 29  2  0  0  0
 29 30  1  0  0  0
 17 18  2  0  0  0
 18 19  1  0  0  0
 18 12  1  0  0  0
 10  1  1  0  0  0
 29 24  1  0  0  0
  8  3  1  0  0  0
 38 33  2  0  0  0
M  END
> <minimizedAffinity>
-8.51966

> <CNNscore>
0.2714578509

> <CNNaffinity>
7.5676522255

> <CNN_VS>
2.0542986393

> <CNNaffinity_variance>
0.1138420478

$$$$
[H]c1nc(-c2c(C([H])([H])[H])nn(C([H])([H])[H])c2[H])c([H])c2c1C([H])([H])N(c1c(F)c(OC([H])([H])[H])c([H])c(OC([H])([H])[H])c1F)C(=O)N2C([H])([H])C([H])([H])c1c([H])nn(C([H])([H])[H])c1[H]


 38 42  0  0  0  0  0  0  0  0999 V2000
   -0.1875   21.1938  -20.8879 N   0  0  0  0  0  0  0  0  0  0  0  0
    0.6331   21.3166  -22.0713 C   0  0  0  0  0  0  0  0  0  0  0  0
   -0.1529   21.6625  -23.2687 C   0  0  0  0  0  0  0  0  0  0  0  0
    0.5031   21.8049  -24.4840 C   0  0  0  0  0  0  0  0  0  0  0  0
   -0.1736   22.1242  -25.6114 N   0  0  0  0  0  0  0  0  0  0  0  0
   -1.5025   22.3195  -25.6181 C   0  0  0  0  0  0  0  0  0  0  0  0
   -2.1799   22.1852  -24.4261 C   0  0  0  0  0  0  0  0  0  0  0  0
   -1.4972   21.8546  -23.2471 C   0  0  0  0  0  0  0  0  0  0  0  0
   -2.2760   21.7365  -22.0768 N   0  0  0  0  0  0  0  0  0  0  0  0
   -1.5927   21.3984  -20.8774 C   0  0  0  0  0  0  0  0  0  0  0  0
   -2.2032   21.2737  -19.7926 O   0  0  0  0  0  0  0  0  0  0  0  0
    1.5982   21.5808  -17.6483 C   0  0  0  0  0  0  0  0  0  0  0  0
    1.8472   20.2501  -17.3493 C   0  0  0  0  0  0  0  0  0  0  0  0
    1.4588   19.2206  -18.1588 C   0  0  0  0  0  0  0  0  0  0  0  0
    0.7846   19.5302  -19.3325 C   0  0  0  0  0  0  0  0  0  0  0  0
    0.3589   18.5756  -20.2012 F   0  0  0  0  0  0  0  0  0  0  0  0
    0.5124   20.8362  -19.6759 C   0  0  0  0  0  0  0  0  0  0  0  0
    0.9266   21.8374  -18.8234 C   0  0  0  0  0  0  0  0  0  0  0  0
    0.6781   23.1258  -19.1251 F   0  0  0  0  0  0  0  0  0  0  0  0
    3.2785   23.1793  -17.0305 C   0  0  0  0  0  0  0  0  0  0  0  0
    1.9900   22.6298  -16.8297 O   0  0  0  0  0  0  0  0  0  0  0  0
    1.6860   17.8802  -17.8997 O   0  0  0  0  0  0  0  0  0  0  0  0
    0.6559   17.1987  -17.1833 C   0  0  0  0  0  0  0  0  0  0  0  0
   -2.2438   22.6625  -26.8224 C   0  0  0  0  0  0  0  0  0  0  0  0
   -3.6008   22.7366  -27.0293 C   0  0  0  0  0  0  0  0  0  0  0  0
   -3.8656   23.0917  -28.3033 N   0  0  0  0  0  0  0  0  0  0  0  0
   -5.1749   23.2816  -28.9332 C   0  0  0  0  0  0  0  0  0  0  0  0
   -2.6960   23.2425  -28.9031 N   0  0  0  0  0  0  0  0  0  0  0  0
   -1.6765   22.9933  -28.0470 C   0  0  0  0  0  0  0  0  0  0  0  0
   -0.2292   23.0587  -28.3532 C   0  0  0  0  0  0  0  0  0  0  0  0
   -3.7009   21.9367  -22.0393 C   0  0  0  0  0  0  0  0  0  0  0  0
   -4.0922   23.3210  -21.5687 C   0  0  0  0  0  0  0  0  0  0  0  0
   -4.5353   24.0837  -22.7604 C   0  0  0  0  0  0  0  0  0  0  0  0
   -5.5538   23.7814  -23.6273 C   0  0  0  0  0  0  0  0  0  0  0  0
   -5.5958   24.7508  -24.5611 N   0  0  0  0  0  0  0  0  0  0  0  0
   -4.6573   25.6533  -24.3331 N   0  0  0  0  0  0  0  0  0  0  0  0
   -4.3213   26.8572  -25.0575 C   0  0  0  0  0  0  0  0  0  0  0  0
   -3.9876   25.2576  -23.2190 C   0  0  0  0  0  0  0  0  0  0  0  0
 20 21  1  0  0  0
 21 12  1  0  0  0
 12 13  2  0  0  0
 13 14  1  0  0  0
 14 22  1  0  0  0
 22 23  1  0  0  0
 14 15  2  0  0  0
 15 16  1  0  0  0
 15 17  1  0  0  0
 17  1  1  0  0  0
  1  2  1  0  0  0
  2  3  1  0  0  0
  3  4  2  0  0  0
  4  5  1  0  0  0
  5  6  2  0  0  0
  6  7  1  0  0  0
  7  8  2  0  0  0
  8  9  1  0  0  0
  9 31  1  0  0  0
 31 32  1  0  0  0
 32 33  1  0  0  0
 33 34  1  0  0  0
 34 35  2  0  0  0
 35 36  1  0  0  0
 36 37  1  0  0  0
 36 38  1  0  0  0
  9 10  1  0  0  0
 10 11  2  0  0  0
  6 24  1  0  0  0
 24 25  2  0  0  0
 25 26  1  0  0  0
 26 27  1  0  0  0
 26 28  1  0  0  0
 28 29  2  0  0  0
 29 30  1  0  0  0
 17 18  2  0  0  0
 18 19  1  0  0  0
 18 12  1  0  0  0
 10  1  1  0  0  0
 29 24  1  0  0  0
  8  3  1  0  0  0
 38 33  2  0  0  0
M  END
> <minimizedAffinity>
-8.00458

> <CNNscore>
0.2170703411

> <CNNaffinity>
7.2959198952

> <CNN_VS>
1.5837278366

> <CNNaffinity_variance>
0.1049970761

$$$$
[H]c1nc(-c2c(C([H])([H])[H])nn(C([H])([H])[H])c2[H])c([H])c2c1C([H])([H])N(c1c(F)c(OC([H])([H])[H])c([H])c(OC([H])([H])[H])c1F)C(=O)N2C([H])([H])C([H])([H])c1c([H])nn(C([H])([H])[H])c1[H]


 38 42  0  0  0  0  0  0  0  0999 V2000
   -0.3930   22.0523  -20.2352 N   0  0  0  0  0  0  0  0  0  0  0  0
    0.3312   21.5314  -21.3724 C   0  0  0  0  0  0  0  0  0  0  0  0
   -0.3278   21.8456  -22.6523 C   0  0  0  0  0  0  0  0  0  0  0  0
    0.2515   21.3996  -23.8326 C   0  0  0  0  0  0  0  0  0  0  0  0
   -0.3135   21.6646  -25.0333 N   0  0  0  0  0  0  0  0  0  0  0  0
   -1.4529   22.3663  -25.1494 C   0  0  0  0  0  0  0  0  0  0  0  0
   -2.0500   22.8220  -23.9946 C   0  0  0  0  0  0  0  0  0  0  0  0
   -1.4808   22.5577  -22.7410 C   0  0  0  0  0  0  0  0  0  0  0  0
   -2.1656   23.0627  -21.6159 N   0  0  0  0  0  0  0  0  0  0  0  0
   -1.5975   22.7969  -20.3406 C   0  0  0  0  0  0  0  0  0  0  0  0
   -2.1364   23.2071  -19.2887 O   0  0  0  0  0  0  0  0  0  0  0  0
    1.6749   22.4607  -17.1708 C   0  0  0  0  0  0  0  0  0  0  0  0
    1.3272   21.3047  -16.4890 C   0  0  0  0  0  0  0  0  0  0  0  0
    0.4433   20.3875  -16.9824 C   0  0  0  0  0  0  0  0  0  0  0  0
   -0.1282   20.6323  -18.2239 C   0  0  0  0  0  0  0  0  0  0  0  0
   -1.0174   19.7791  -18.7972 F   0  0  0  0  0  0  0  0  0  0  0  0
    0.1835   21.7658  -18.9420 C   0  0  0  0  0  0  0  0  0  0  0  0
    1.0817   22.6591  -18.3982 C   0  0  0  0  0  0  0  0  0  0  0  0
    1.4106   23.7785  -19.0704 F   0  0  0  0  0  0  0  0  0  0  0  0
    3.5330   22.9546  -15.7342 C   0  0  0  0  0  0  0  0  0  0  0  0
    2.5715   23.3953  -16.6743 O   0  0  0  0  0  0  0  0  0  0  0  0
    0.0681   19.2222  -16.3369 O   0  0  0  0  0  0  0  0  0  0  0  0
    1.1112   18.2774  -16.0960 C   0  0  0  0  0  0  0  0  0  0  0  0
   -2.0726   22.6584  -26.4333 C   0  0  0  0  0  0  0  0  0  0  0  0
   -3.4024   22.7690  -26.7636 C   0  0  0  0  0  0  0  0  0  0  0  0
   -3.5412   23.0512  -28.0753 N   0  0  0  0  0  0  0  0  0  0  0  0
   -4.7822   23.2484  -28.8291 C   0  0  0  0  0  0  0  0  0  0  0  0
   -2.3190   23.1201  -28.5771 N   0  0  0  0  0  0  0  0  0  0  0  0
   -1.3885   22.8889  -27.6205 C   0  0  0  0  0  0  0  0  0  0  0  0
    0.0813   22.8812  -27.8008 C   0  0  0  0  0  0  0  0  0  0  0  0
   -3.3882   23.8184  -21.6950 C   0  0  0  0  0  0  0  0  0  0  0  0
   -4.6221   22.9754  -21.4547 C   0  0  0  0  0  0  0  0  0  0  0  0
   -5.2995   22.8014  -22.7620 C   0  0  0  0  0  0  0  0  0  0  0  0
   -5.6362   21.6303  -23.3907 C   0  0  0  0  0  0  0  0  0  0  0  0
   -6.2325   21.9494  -24.5553 N   0  0  0  0  0  0  0  0  0  0  0  0
   -6.2922   23.2620  -24.6996 N   0  0  0  0  0  0  0  0  0  0  0  0
   -6.8360   24.0615  -25.7730 C   0  0  0  0  0  0  0  0  0  0  0  0
   -5.7182   23.8097  -23.5965 C   0  0  0  0  0  0  0  0  0  0  0  0
 20 21  1  0  0  0
 21 12  1  0  0  0
 12 13  2  0  0  0
 13 14  1  0  0  0
 14 22  1  0  0  0
 22 23  1  0  0  0
 14 15  2  0  0  0
 15 16  1  0  0  0
 15 17  1  0  0  0
 17  1  1  0  0  0
  1  2  1  0  0  0
  2  3  1  0  0  0
  3  4  2  0  0  0
  4  5  1  0  0  0
  5  6  2  0  0  0
  6  7  1  0  0  0
  7  8  2  0  0  0
  8  9  1  0  0  0
  9 31  1  0  0  0
 31 32  1  0  0  0
 32 33  1  0  0  0
 33 34  1  0  0  0
 34 35  2  0  0  0
 35 36  1  0  0  0
 36 37  1  0  0  0
 36 38  1  0  0  0
  9 10  1  0  0  0
 10 11  2  0  0  0
  6 24  1  0  0  0
 24 25  2  0  0  0
 25 26  1  0  0  0
 26 27  1  0  0  0
 26 28  1  0  0  0
 28 29  2  0  0  0
 29 30  1  0  0  0
 17 18  2  0  0  0
 18 19  1  0  0  0
 18 12  1  0  0  0
 10  1  1  0  0  0
 29 24  1  0  0  0
  8  3  1  0  0  0
 38 33  2  0  0  0
M  END
> <minimizedAffinity>
-7.82060

> <CNNscore>
0.1869816780

> <CNNaffinity>
7.0783910751

> <CNN_VS>
1.3235294819

> <CNNaffinity_variance>
0.0660622716

$$$$
[H]c1nc(-c2c(C([H])([H])[H])nn(C([H])([H])[H])c2[H])c([H])c2c1C([H])([H])N(c1c(F)c(OC([H])([H])[H])c([H])c(OC([H])([H])[H])c1F)C(=O)N2C([H])([H])C([H])([H])c1c([H])nn(C([H])([H])[H])c1[H]


 38 42  0  0  0  0  0  0  0  0999 V2000
   -0.3708   21.2116  -20.8083 N   0  0  0  0  0  0  0  0  0  0  0  0
    0.4498   21.3007  -21.9946 C   0  0  0  0  0  0  0  0  0  0  0  0
   -0.3298   21.6541  -23.1940 C   0  0  0  0  0  0  0  0  0  0  0  0
    0.3267   21.7666  -24.4121 C   0  0  0  0  0  0  0  0  0  0  0  0
   -0.3442   22.0915  -25.5414 N   0  0  0  0  0  0  0  0  0  0  0  0
   -1.6676   22.3210  -25.5473 C   0  0  0  0  0  0  0  0  0  0  0  0
   -2.3454   22.2168  -24.3525 C   0  0  0  0  0  0  0  0  0  0  0  0
   -1.6686   21.8810  -23.1715 C   0  0  0  0  0  0  0  0  0  0  0  0
   -2.4474   21.7954  -21.9984 N   0  0  0  0  0  0  0  0  0  0  0  0
   -1.7702   21.4524  -20.7969 C   0  0  0  0  0  0  0  0  0  0  0  0
   -2.3810   21.3550  -19.7095 O   0  0  0  0  0  0  0  0  0  0  0  0
    1.1596   19.0848  -18.1685 C   0  0  0  0  0  0  0  0  0  0  0  0
    1.6310   20.0666  -17.3105 C   0  0  0  0  0  0  0  0  0  0  0  0
    1.4737   21.4021  -17.5504 C   0  0  0  0  0  0  0  0  0  0  0  0
    0.8104   21.7847  -18.7087 C   0  0  0  0  0  0  0  0  0  0  0  0
    0.6052   23.0885  -19.0334 F   0  0  0  0  0  0  0  0  0  0  0  0
    0.3227   20.8488  -19.5940 C   0  0  0  0  0  0  0  0  0  0  0  0
    0.5083   19.5139  -19.3040 C   0  0  0  0  0  0  0  0  0  0  0  0
    0.0461   18.5702  -20.1458 F   0  0  0  0  0  0  0  0  0  0  0  0
    0.3499   17.0817  -17.1235 C   0  0  0  0  0  0  0  0  0  0  0  0
    1.3169   17.7275  -17.9298 O   0  0  0  0  0  0  0  0  0  0  0  0
    1.9275   22.4144  -16.7229 O   0  0  0  0  0  0  0  0  0  0  0  0
    3.2465   22.8935  -16.9868 C   0  0  0  0  0  0  0  0  0  0  0  0
   -2.4028   22.6702  -26.7536 C   0  0  0  0  0  0  0  0  0  0  0  0
   -3.7584   22.7611  -26.9626 C   0  0  0  0  0  0  0  0  0  0  0  0
   -4.0168   23.1163  -28.2380 N   0  0  0  0  0  0  0  0  0  0  0  0
   -5.3227   23.3213  -28.8703 C   0  0  0  0  0  0  0  0  0  0  0  0
   -2.8445   23.2507  -28.8364 N   0  0  0  0  0  0  0  0  0  0  0  0
   -1.8295   22.9907  -27.9782 C   0  0  0  0  0  0  0  0  0  0  0  0
   -0.3810   23.0368  -28.2824 C   0  0  0  0  0  0  0  0  0  0  0  0
   -3.8665   22.0328  -21.9600 C   0  0  0  0  0  0  0  0  0  0  0  0
   -4.2204   23.4372  -21.5203 C   0  0  0  0  0  0  0  0  0  0  0  0
   -4.5752   24.2049  -22.7380 C   0  0  0  0  0  0  0  0  0  0  0  0
   -3.9283   25.2895  -23.2722 C   0  0  0  0  0  0  0  0  0  0  0  0
   -4.6015   25.6624  -24.3774 N   0  0  0  0  0  0  0  0  0  0  0  0
   -5.6425   24.8716  -24.5733 N   0  0  0  0  0  0  0  0  0  0  0  0
   -6.6433   24.8832  -25.6151 C   0  0  0  0  0  0  0  0  0  0  0  0
   -5.6439   23.9595  -23.5661 C   0  0  0  0  0  0  0  0  0  0  0  0
 20 21  1  0  0  0
 21 12  1  0  0  0
 12 13  2  0  0  0
 13 14  1  0  0  0
 14 22  1  0  0  0
 22 23  1  0  0  0
 14 15  2  0  0  0
 15 16  1  0  0  0
 15 17  1  0  0  0
 17  1  1  0  0  0
  1  2  1  0  0  0
  2  3  1  0  0  0
  3  4  2  0  0  0
  4  5  1  0  0  0
  5  6  2  0  0  0
  6  7  1  0  0  0
  7  8  2  0  0  0
  8  9  1  0  0  0
  9 31  1  0  0  0
 31 32  1  0  0  0
 32 33  1  0  0  0
 33 34  1  0  0  0
 34 35  2  0  0  0
 35 36  1  0  0  0
 36 37  1  0  0  0
 36 38  1  0  0  0
  9 10  1  0  0  0
 10 11  2  0  0  0
  6 24  1  0  0  0
 24 25  2  0  0  0
 25 26  1  0  0  0
 26 27  1  0  0  0
 26 28  1  0  0  0
 28 29  2  0  0  0
 29 30  1  0  0  0
 17 18  2  0  0  0
 18 19  1  0  0  0
 18 12  1  0  0  0
 10  1  1  0  0  0
 29 24  1  0  0  0
  8  3  1  0  0  0
 38 33  2  0  0  0
M  END
> <minimizedAffinity>
-7.78394

> <CNNscore>
0.1628740579

> <CNNaffinity>
7.2109251022

> <CNN_VS>
1.1744726896

> <CNNaffinity_variance>
0.1221146211

$$$$
[H]c1nc(-c2c(C([H])([H])[H])nn(C([H])([H])[H])c2[H])c([H])c2c1C([H])([H])N(c1c(F)c(OC([H])([H])[H])c([H])c(OC([H])([H])[H])c1F)C(=O)N2C([H])([H])C([H])([H])c1c([H])nn(C([H])([H])[H])c1[H]


 38 42  0  0  0  0  0  0  0  0999 V2000
    1.2173   20.8434  -21.4214 N   0  0  0  0  0  0  0  0  0  0  0  0
   -0.0280   20.8748  -20.6884 C   0  0  0  0  0  0  0  0  0  0  0  0
   -1.0965   21.5753  -21.4223 C   0  0  0  0  0  0  0  0  0  0  0  0
   -2.3492   21.6915  -20.8349 C   0  0  0  0  0  0  0  0  0  0  0  0
   -3.3638   22.3231  -21.4695 N   0  0  0  0  0  0  0  0  0  0  0  0
   -3.2179   22.8665  -22.6891 C   0  0  0  0  0  0  0  0  0  0  0  0
   -1.9856   22.7660  -23.2966 C   0  0  0  0  0  0  0  0  0  0  0  0
   -0.9215   22.1160  -22.6558 C   0  0  0  0  0  0  0  0  0  0  0  0
    0.3026   22.0658  -23.3550 N   0  0  0  0  0  0  0  0  0  0  0  0
    1.3878   21.4114  -22.7116 C   0  0  0  0  0  0  0  0  0  0  0  0
    2.5094   21.3187  -23.2581 O   0  0  0  0  0  0  0  0  0  0  0  0
    4.2750   20.4031  -19.3502 C   0  0  0  0  0  0  0  0  0  0  0  0
    4.4402   19.0303  -19.4522 C   0  0  0  0  0  0  0  0  0  0  0  0
    3.5967   18.2310  -20.1701 C   0  0  0  0  0  0  0  0  0  0  0  0
    2.5278   18.8290  -20.8242 C   0  0  0  0  0  0  0  0  0  0  0  0
    1.6356   18.1175  -21.5625 F   0  0  0  0  0  0  0  0  0  0  0  0
    2.3191   20.1889  -20.7547 C   0  0  0  0  0  0  0  0  0  0  0  0
    3.2003   20.9498  -20.0165 C   0  0  0  0  0  0  0  0  0  0  0  0
    3.0284   22.2821  -19.9250 F   0  0  0  0  0  0  0  0  0  0  0  0
    6.0458   22.0231  -19.3396 C   0  0  0  0  0  0  0  0  0  0  0  0
    5.1283   21.2192  -18.6224 O   0  0  0  0  0  0  0  0  0  0  0  0
    3.7237   16.8589  -20.2987 O   0  0  0  0  0  0  0  0  0  0  0  0
    5.0536   16.3445  -20.2249 C   0  0  0  0  0  0  0  0  0  0  0  0
   -4.2993   23.5494  -23.3834 C   0  0  0  0  0  0  0  0  0  0  0  0
   -4.5196   24.8944  -23.5616 C   0  0  0  0  0  0  0  0  0  0  0  0
   -5.6493   25.0982  -24.2699 N   0  0  0  0  0  0  0  0  0  0  0  0
   -6.2410   26.3756  -24.6765 C   0  0  0  0  0  0  0  0  0  0  0  0
   -6.1447   23.9018  -24.5411 N   0  0  0  0  0  0  0  0  0  0  0  0
   -5.3620   22.9246  -24.0246 C   0  0  0  0  0  0  0  0  0  0  0  0
   -5.5915   21.4648  -24.1211 C   0  0  0  0  0  0  0  0  0  0  0  0
    0.5024   22.6346  -24.6620 C   0  0  0  0  0  0  0  0  0  0  0  0
    0.3875   21.6157  -25.7753 C   0  0  0  0  0  0  0  0  0  0  0  0
   -0.3871   22.2449  -26.8717 C   0  0  0  0  0  0  0  0  0  0  0  0
    0.0905   22.9288  -27.9600 C   0  0  0  0  0  0  0  0  0  0  0  0
   -0.9696   23.3245  -28.6903 N   0  0  0  0  0  0  0  0  0  0  0  0
   -2.0957   22.9281  -28.1230 N   0  0  0  0  0  0  0  0  0  0  0  0
   -3.4676   23.1161  -28.5348 C   0  0  0  0  0  0  0  0  0  0  0  0
   -1.7559   22.2556  -26.9923 C   0  0  0  0  0  0  0  0  0  0  0  0
 20 21  1  0  0  0
 21 12  1  0  0  0
 12 13  2  0  0  0
 13 14  1  0  0  0
 14 22  1  0  0  0
 22 23  1  0  0  0
 14 15  2  0  0  0
 15 16  1  0  0  0
 15 17  1  0  0  0
 17  1  1  0  0  0
  1  2  1  0  0  0
  2  3  1  0  0  0
  3  4  2  0  0  0
  4  5  1  0  0  0
  5  6  2  0  0  0
  6  7  1  0  0  0
  7  8  2  0  0  0
  8  9  1  0  0  0
  9 31  1  0  0  0
 31 32  1  0  0  0
 32 33  1  0  0  0
 33 34  1  0  0  0
 34 35  2  0  0  0
 35 36  1  0  0  0
 36 37  1  0  0  0
 36 38  1  0  0  0
  9 10  1  0  0  0
 10 11  2  0  0  0
  6 24  1  0  0  0
 24 25  2  0  0  0
 25 26  1  0  0  0
 26 27  1  0  0  0
 26 28  1  0  0  0
 28 29  2  0  0  0
 29 30  1  0  0  0
 17 18  2  0  0  0
 18 19  1  0  0  0
 18 12  1  0  0  0
 10  1  1  0  0  0
 29 24  1  0  0  0
  8  3  1  0  0  0
 38 33  2  0  0  0
M  END
> <minimizedAffinity>
-7.57351

> <CNNscore>
0.1595725417

> <CNNaffinity>
7.0208654404

> <CNN_VS>
1.1203373671

> <CNNaffinity_variance>
0.2415367365

$$$$
[H]c1nc(-c2c(C([H])([H])[H])nn(C([H])([H])[H])c2[H])c([H])c2c1C([H])([H])N(c1c(F)c(OC([H])([H])[H])c([H])c(OC([H])([H])[H])c1F)C(=O)N2C([H])([H])C([H])([H])c1c([H])nn(C([H])([H])[H])c1[H]


 38 42  0  0  0  0  0  0  0  0999 V2000
   -5.9520   23.4326  -22.1686 N   0  0  0  0  0  0  0  0  0  0  0  0
   -4.9671   23.3943  -21.1116 C   0  0  0  0  0  0  0  0  0  0  0  0
   -3.6513   22.9288  -21.5838 C   0  0  0  0  0  0  0  0  0  0  0  0
   -2.6073   22.8323  -20.6737 C   0  0  0  0  0  0  0  0  0  0  0  0
   -1.3798   22.4127  -21.0587 N   0  0  0  0  0  0  0  0  0  0  0  0
   -1.1054   22.0704  -22.3281 C   0  0  0  0  0  0  0  0  0  0  0  0
   -2.1223   22.1566  -23.2534 C   0  0  0  0  0  0  0  0  0  0  0  0
   -3.4012   22.5887  -22.8746 C   0  0  0  0  0  0  0  0  0  0  0  0
   -4.3780   22.6417  -23.8910 N   0  0  0  0  0  0  0  0  0  0  0  0
   -5.6782   23.0756  -23.5155 C   0  0  0  0  0  0  0  0  0  0  0  0
   -6.6057   23.1543  -24.3513 O   0  0  0  0  0  0  0  0  0  0  0  0
   -9.3610   23.3105  -20.6864 C   0  0  0  0  0  0  0  0  0  0  0  0
   -9.8017   24.5898  -20.9884 C   0  0  0  0  0  0  0  0  0  0  0  0
   -9.0363   25.5012  -21.6586 C   0  0  0  0  0  0  0  0  0  0  0  0
   -7.7600   25.1206  -22.0515 C   0  0  0  0  0  0  0  0  0  0  0  0
   -6.9249   25.9569  -22.7226 F   0  0  0  0  0  0  0  0  0  0  0  0
   -7.2745   23.8612  -21.7760 C   0  0  0  0  0  0  0  0  0  0  0  0
   -8.0883   22.9797  -21.0969 C   0  0  0  0  0  0  0  0  0  0  0  0
   -7.6482   21.7402  -20.8092 F   0  0  0  0  0  0  0  0  0  0  0  0
  -10.7660   22.7963  -18.8096 C   0  0  0  0  0  0  0  0  0  0  0  0
  -10.1340   22.3813  -20.0058 O   0  0  0  0  0  0  0  0  0  0  0  0
   -9.4353   26.7868  -21.9805 O   0  0  0  0  0  0  0  0  0  0  0  0
  -10.8321   26.9676  -22.2148 C   0  0  0  0  0  0  0  0  0  0  0  0
    0.2092   21.6167  -22.7568 C   0  0  0  0  0  0  0  0  0  0  0  0
    1.1823   20.9484  -22.0524 C   0  0  0  0  0  0  0  0  0  0  0  0
    2.2575   20.7190  -22.8339 N   0  0  0  0  0  0  0  0  0  0  0  0
    3.5053   20.0400  -22.4746 C   0  0  0  0  0  0  0  0  0  0  0  0
    1.9771   21.2326  -24.0205 N   0  0  0  0  0  0  0  0  0  0  0  0
    0.7432   21.7909  -24.0277 C   0  0  0  0  0  0  0  0  0  0  0  0
    0.0836   22.4623  -25.1709 C   0  0  0  0  0  0  0  0  0  0  0  0
   -4.1271   22.2840  -25.2625 C   0  0  0  0  0  0  0  0  0  0  0  0
   -3.4812   23.3988  -26.0567 C   0  0  0  0  0  0  0  0  0  0  0  0
   -4.3596   23.6804  -27.2174 C   0  0  0  0  0  0  0  0  0  0  0  0
   -5.6633   23.2985  -27.4035 C   0  0  0  0  0  0  0  0  0  0  0  0
   -6.0605   23.7728  -28.5997 N   0  0  0  0  0  0  0  0  0  0  0  0
   -5.0772   24.4360  -29.1836 N   0  0  0  0  0  0  0  0  0  0  0  0
   -5.0334   25.1129  -30.4591 C   0  0  0  0  0  0  0  0  0  0  0  0
   -4.0120   24.3905  -28.3413 C   0  0  0  0  0  0  0  0  0  0  0  0
 20 21  1  0  0  0
 21 12  1  0  0  0
 12 13  2  0  0  0
 13 14  1  0  0  0
 14 22  1  0  0  0
 22 23  1  0  0  0
 14 15  2  0  0  0
 15 16  1  0  0  0
 15 17  1  0  0  0
 17  1  1  0  0  0
  1  2  1  0  0  0
  2  3  1  0  0  0
  3  4  2  0  0  0
  4  5  1  0  0  0
  5  6  2  0  0  0
  6  7  1  0  0  0
  7  8  2  0  0  0
  8  9  1  0  0  0
  9 31  1  0  0  0
 31 32  1  0  0  0
 32 33  1  0  0  0
 33 34  1  0  0  0
 34 35  2  0  0  0
 35 36  1  0  0  0
 36 37  1  0  0  0
 36 38  1  0  0  0
  9 10  1  0  0  0
 10 11  2  0  0  0
  6 24  1  0  0  0
 24 25  2  0  0  0
 25 26  1  0  0  0
 26 27  1  0  0  0
 26 28  1  0  0  0
 28 29  2  0  0  0
 29 30  1  0  0  0
 17 18  2  0  0  0
 18 19  1  0  0  0
 18 12  1  0  0  0
 10  1  1  0  0  0
 29 24  1  0  0  0
  8  3  1  0  0  0
 38 33  2  0  0  0
M  END
> <minimizedAffinity>
-8.34681

> <CNNscore>
0.1216391027

> <CNNaffinity>
6.9955110550

> <CNN_VS>
0.8509277105

> <CNNaffinity_variance>
0.2697865367

$$$$
[H]c1nc([H])c(-c2nc([H])c3c(c2[H])C2(C(=O)N(c4c(F)c(OC([H])([H])[H])c([H])c(OC([H])([H])[H])c4F)C3([H])[H])C([H])([H])C2([H])[H])c([H])c1OC([H])([H])[H]


 33 37  0  0  0  0  0  0  0  0999 V2000
   -0.1069   21.9462  -23.8908 C   0  0  0  0  0  0  0  0  0  0  0  0
   -1.0222   22.2216  -22.9080 C   0  0  0  0  0  0  0  0  0  0  0  0
   -0.7623   21.9444  -21.5597 C   0  0  0  0  0  0  0  0  0  0  0  0
    0.4489   21.3829  -21.2569 C   0  0  0  0  0  0  0  0  0  0  0  0
    0.7897   21.0373  -19.8695 C   0  0  0  0  0  0  0  0  0  0  0  0
    0.3032   22.0438  -18.9648 N   0  0  0  0  0  0  0  0  0  0  0  0
   -0.9472   22.6590  -19.2384 C   0  0  0  0  0  0  0  0  0  0  0  0
   -1.3868   23.5185  -18.4665 O   0  0  0  0  0  0  0  0  0  0  0  0
   -1.7168   22.2443  -20.4780 C   0  0  0  0  0  0  0  0  0  0  0  0
   -3.0027   22.9359  -20.7065 C   0  0  0  0  0  0  0  0  0  0  0  0
   -2.9673   21.4891  -20.2863 C   0  0  0  0  0  0  0  0  0  0  0  0
    1.3622   21.1140  -22.2799 C   0  0  0  0  0  0  0  0  0  0  0  0
    1.0917   21.3881  -23.5603 N   0  0  0  0  0  0  0  0  0  0  0  0
    1.0746   22.3872  -17.8153 C   0  0  0  0  0  0  0  0  0  0  0  0
    2.0721   23.3308  -17.9596 C   0  0  0  0  0  0  0  0  0  0  0  0
    2.3279   23.9233  -19.1720 F   0  0  0  0  0  0  0  0  0  0  0  0
    2.8753   23.7390  -16.8949 C   0  0  0  0  0  0  0  0  0  0  0  0
    2.6711   23.1833  -15.6486 C   0  0  0  0  0  0  0  0  0  0  0  0
    1.6796   22.2381  -15.4816 C   0  0  0  0  0  0  0  0  0  0  0  0
    0.8987   21.8545  -16.5613 C   0  0  0  0  0  0  0  0  0  0  0  0
   -0.0715   20.9273  -16.3901 F   0  0  0  0  0  0  0  0  0  0  0  0
    3.8629   24.6983  -17.1206 O   0  0  0  0  0  0  0  0  0  0  0  0
    5.1922   24.2644  -17.2322 C   0  0  0  0  0  0  0  0  0  0  0  0
    1.4831   21.6811  -14.2076 O   0  0  0  0  0  0  0  0  0  0  0  0
    0.5084   22.1957  -13.3464 C   0  0  0  0  0  0  0  0  0  0  0  0
   -1.9373   22.5870  -27.0994 C   0  0  0  0  0  0  0  0  0  0  0  0
   -0.8458   22.8007  -27.9074 C   0  0  0  0  0  0  0  0  0  0  0  0
    0.4210   22.7390  -27.4262 N   0  0  0  0  0  0  0  0  0  0  0  0
    0.6606   22.4683  -26.1471 C   0  0  0  0  0  0  0  0  0  0  0  0
   -0.4013   22.2438  -25.2835 C   0  0  0  0  0  0  0  0  0  0  0  0
   -1.6805   22.3009  -25.7468 C   0  0  0  0  0  0  0  0  0  0  0  0
   -4.0479   23.7648  -27.6210 C   0  0  0  0  0  0  0  0  0  0  0  0
   -3.2084   22.6532  -27.6026 O   0  0  0  0  0  0  0  0  0  0  0  0
 32 33  1  0  0  0
 33 26  1  0  0  0
 26 27  2  0  0  0
 27 28  1  0  0  0
 28 29  2  0  0  0
 29 30  1  0  0  0
 30 31  2  0  0  0
 30  1  1  0  0  0
  1  2  2  0  0  0
  2  3  1  0  0  0
  3  4  2  0  0  0
  4  5  1  0  0  0
  5  6  1  0  0  0
  6  7  1  0  0  0
  7  8  2  0  0  0
  7  9  1  0  0  0
  9 10  1  0  0  0
 10 11  1  0  0  0
  6 14  1  0  0  0
 14 15  2  0  0  0
 15 16  1  0  0  0
 15 17  1  0  0  0
 17 22  1  0  0  0
 22 23  1  0  0  0
 17 18  2  0  0  0
 18 19  1  0  0  0
 19 24  1  0  0  0
 24 25  1  0  0  0
 19 20  2  0  0  0
 20 21  1  0  0  0
  4 12  1  0  0  0
 12 13  2  0  0  0
 31 26  1  0  0  0
 13  1  1  0  0  0
  9  3  1  0  0  0
 11  9  1  0  0  0
 20 14  1  0  0  0
M  END
> <minimizedAffinity>
-7.58266

> <CNNscore>
0.8163256645

> <CNNaffinity>
7.1190452576

> <CNN_VS>
5.8114595413

> <CNNaffinity_variance>
0.1147362962

$$$$
[H]c1nc([H])c(-c2nc([H])c3c(c2[H])C2(C(=O)N(c4c(F)c(OC([H])([H])[H])c([H])c(OC([H])([H])[H])c4F)C3([H])[H])C([H])([H])C2([H])[H])c([H])c1OC([H])([H])[H]


 33 37  0  0  0  0  0  0  0  0999 V2000
   -0.1473   21.9886  -24.1495 C   0  0  0  0  0  0  0  0  0  0  0  0
   -1.0603   22.2913  -23.1726 C   0  0  0  0  0  0  0  0  0  0  0  0
   -0.8256   21.9892  -21.8250 C   0  0  0  0  0  0  0  0  0  0  0  0
    0.3581   21.3747  -21.5167 C   0  0  0  0  0  0  0  0  0  0  0  0
    0.6703   21.0005  -20.1301 C   0  0  0  0  0  0  0  0  0  0  0  0
    0.2169   22.0167  -19.2190 N   0  0  0  0  0  0  0  0  0  0  0  0
   -1.0041   22.6863  -19.4978 C   0  0  0  0  0  0  0  0  0  0  0  0
   -1.4153   23.5551  -18.7207 O   0  0  0  0  0  0  0  0  0  0  0  0
   -1.7777   22.3172  -20.7493 C   0  0  0  0  0  0  0  0  0  0  0  0
   -3.0314   23.0640  -20.9825 C   0  0  0  0  0  0  0  0  0  0  0  0
   -3.0603   21.6127  -20.5780 C   0  0  0  0  0  0  0  0  0  0  0  0
    1.2697   21.0788  -22.5338 C   0  0  0  0  0  0  0  0  0  0  0  0
    1.0237   21.3776  -23.8137 N   0  0  0  0  0  0  0  0  0  0  0  0
    0.9902   22.3155  -18.0585 C   0  0  0  0  0  0  0  0  0  0  0  0
    0.6748   21.6657  -16.8817 C   0  0  0  0  0  0  0  0  0  0  0  0
   -0.3565   20.7610  -16.8171 F   0  0  0  0  0  0  0  0  0  0  0  0
    1.3758   21.8837  -15.6959 C   0  0  0  0  0  0  0  0  0  0  0  0
    2.4243   22.7806  -15.6911 C   0  0  0  0  0  0  0  0  0  0  0  0
    2.7569   23.4414  -16.8561 C   0  0  0  0  0  0  0  0  0  0  0  0
    2.0393   23.2016  -18.0180 C   0  0  0  0  0  0  0  0  0  0  0  0
    2.3710   23.8529  -19.1564 F   0  0  0  0  0  0  0  0  0  0  0  0
    0.9966   21.1881  -14.5474 O   0  0  0  0  0  0  0  0  0  0  0  0
    0.1582   21.8368  -13.6287 C   0  0  0  0  0  0  0  0  0  0  0  0
    3.8263   24.3513  -16.8364 O   0  0  0  0  0  0  0  0  0  0  0  0
    5.1259   23.9317  -17.1386 C   0  0  0  0  0  0  0  0  0  0  0  0
   -1.9146   22.6635  -27.3864 C   0  0  0  0  0  0  0  0  0  0  0  0
   -0.8094   22.9229  -28.1617 C   0  0  0  0  0  0  0  0  0  0  0  0
    0.4465   22.8797  -27.6508 N   0  0  0  0  0  0  0  0  0  0  0  0
    0.6616   22.5837  -26.3731 C   0  0  0  0  0  0  0  0  0  0  0  0
   -0.4151   22.3129  -25.5416 C   0  0  0  0  0  0  0  0  0  0  0  0
   -1.6837   22.3507  -26.0350 C   0  0  0  0  0  0  0  0  0  0  0  0
   -4.2804   23.3822  -27.4018 C   0  0  0  0  0  0  0  0  0  0  0  0
   -3.1744   22.7116  -27.9193 O   0  0  0  0  0  0  0  0  0  0  0  0
 32 33  1  0  0  0
 33 26  1  0  0  0
 26 27  2  0  0  0
 27 28  1  0  0  0
 28 29  2  0  0  0
 29 30  1  0  0  0
 30 31  2  0  0  0
 30  1  1  0  0  0
  1  2  2  0  0  0
  2  3  1  0  0  0
  3  4  2  0  0  0
  4  5  1  0  0  0
  5  6  1  0  0  0
  6  7  1  0  0  0
  7  8  2  0  0  0
  7  9  1  0  0  0
  9 10  1  0  0  0
 10 11  1  0  0  0
  6 14  1  0  0  0
 14 15  2  0  0  0
 15 16  1  0  0  0
 15 17  1  0  0  0
 17 22  1  0  0  0
 22 23  1  0  0  0
 17 18  2  0  0  0
 18 19  1  0  0  0
 19 24  1  0  0  0
 24 25  1  0  0  0
 19 20  2  0  0  0
 20 21  1  0  0  0
  4 12  1  0  0  0
 12 13  2  0  0  0
 31 26  1  0  0  0
 13  1  1  0  0  0
  9  3  1  0  0  0
 11  9  1  0  0  0
 20 14  1  0  0  0
M  END
> <minimizedAffinity>
-7.65985

> <CNNscore>
0.7995104194

> <CNNaffinity>
7.1137533188

> <CNN_VS>
5.6875200272

> <CNNaffinity_variance>
0.0970791429

$$$$
[H]c1nc([H])c(-c2nc([H])c3c(c2[H])C2(C(=O)N(c4c(F)c(OC([H])([H])[H])c([H])c(OC([H])([H])[H])c4F)C3([H])[H])C([H])([H])C2([H])[H])c([H])c1OC([H])([H])[H]


 33 37  0  0  0  0  0  0  0  0999 V2000
   -0.4446   21.7698  -24.2548 C   0  0  0  0  0  0  0  0  0  0  0  0
    0.7553   21.3357  -23.7534 C   0  0  0  0  0  0  0  0  0  0  0  0
    0.8819   20.8796  -22.4350 C   0  0  0  0  0  0  0  0  0  0  0  0
   -0.2456   20.8840  -21.6587 C   0  0  0  0  0  0  0  0  0  0  0  0
   -0.1929   20.4457  -20.2568 C   0  0  0  0  0  0  0  0  0  0  0  0
    0.6811   19.3123  -20.1150 N   0  0  0  0  0  0  0  0  0  0  0  0
    1.8619   19.2598  -20.9023 C   0  0  0  0  0  0  0  0  0  0  0  0
    2.6308   18.2989  -20.7865 O   0  0  0  0  0  0  0  0  0  0  0  0
    2.1522   20.3900  -21.8714 C   0  0  0  0  0  0  0  0  0  0  0  0
    3.3909   20.2619  -22.6672 C   0  0  0  0  0  0  0  0  0  0  0  0
    3.2837   21.2820  -21.5632 C   0  0  0  0  0  0  0  0  0  0  0  0
   -1.4550   21.3316  -22.1973 C   0  0  0  0  0  0  0  0  0  0  0  0
   -1.5514   21.7621  -23.4595 N   0  0  0  0  0  0  0  0  0  0  0  0
    0.3517   18.2833  -19.1840 C   0  0  0  0  0  0  0  0  0  0  0  0
   -0.1665   17.1021  -19.6765 C   0  0  0  0  0  0  0  0  0  0  0  0
   -0.3700   16.9149  -21.0219 F   0  0  0  0  0  0  0  0  0  0  0  0
   -0.5127   16.0344  -18.8486 C   0  0  0  0  0  0  0  0  0  0  0  0
   -0.3335   16.1562  -17.4860 C   0  0  0  0  0  0  0  0  0  0  0  0
    0.1830   17.3281  -16.9719 C   0  0  0  0  0  0  0  0  0  0  0  0
    0.5168   18.3706  -17.8230 C   0  0  0  0  0  0  0  0  0  0  0  0
    1.0227   19.5165  -17.3120 F   0  0  0  0  0  0  0  0  0  0  0  0
   -1.0307   14.8729  -19.4222 O   0  0  0  0  0  0  0  0  0  0  0  0
   -2.4233   14.7048  -19.4314 C   0  0  0  0  0  0  0  0  0  0  0  0
    0.3600   17.4380  -15.5831 O   0  0  0  0  0  0  0  0  0  0  0  0
    1.3989   16.7571  -14.9401 C   0  0  0  0  0  0  0  0  0  0  0  0
   -1.8198   22.7507  -27.6018 C   0  0  0  0  0  0  0  0  0  0  0  0
   -0.6379   23.1230  -28.1969 C   0  0  0  0  0  0  0  0  0  0  0  0
    0.5452   23.0569  -27.5364 N   0  0  0  0  0  0  0  0  0  0  0  0
    0.6109   22.6276  -26.2803 C   0  0  0  0  0  0  0  0  0  0  0  0
   -0.5494   22.2385  -25.6274 C   0  0  0  0  0  0  0  0  0  0  0  0
   -1.7471   22.2970  -26.2728 C   0  0  0  0  0  0  0  0  0  0  0  0
   -3.6004   23.9672  -28.8117 C   0  0  0  0  0  0  0  0  0  0  0  0
   -3.0042   22.8240  -28.2839 O   0  0  0  0  0  0  0  0  0  0  0  0
 32 33  1  0  0  0
 33 26  1  0  0  0
 26 27  2  0  0  0
 27 28  1  0  0  0
 28 29  2  0  0  0
 29 30  1  0  0  0
 30 31  2  0  0  0
 30  1  1  0  0  0
  1  2  2  0  0  0
  2  3  1  0  0  0
  3  4  2  0  0  0
  4  5  1  0  0  0
  5  6  1  0  0  0
  6  7  1  0  0  0
  7  8  2  0  0  0
  7  9  1  0  0  0
  9 10  1  0  0  0
 10 11  1  0  0  0
  6 14  1  0  0  0
 14 15  2  0  0  0
 15 16  1  0  0  0
 15 17  1  0  0  0
 17 22  1  0  0  0
 22 23  1  0  0  0
 17 18  2  0  0  0
 18 19  1  0  0  0
 19 24  1  0  0  0
 24 25  1  0  0  0
 19 20  2  0  0  0
 20 21  1  0  0  0
  4 12  1  0  0  0
 12 13  2  0  0  0
 31 26  1  0  0  0
 13  1  1  0  0  0
  9  3  1  0  0  0
 11  9  1  0  0  0
 20 14  1  0  0  0
M  END
> <minimizedAffinity>
-6.80788

> <CNNscore>
0.6611359119

> <CNNaffinity>
6.8404502869

> <CNN_VS>
4.5224671364

> <CNNaffinity_variance>
0.1529680043

$$$$
[H]c1nc([H])c(-c2nc([H])c3c(c2[H])C2(C(=O)N(c4c(F)c(OC([H])([H])[H])c([H])c(OC([H])([H])[H])c4F)C3([H])[H])C([H])([H])C2([H])[H])c([H])c1OC([H])([H])[H]


 33 37  0  0  0  0  0  0  0  0999 V2000
   -0.4930   21.8070  -24.3815 C   0  0  0  0  0  0  0  0  0  0  0  0
    0.6980   21.3738  -23.8584 C   0  0  0  0  0  0  0  0  0  0  0  0
    0.8008   20.9173  -22.5381 C   0  0  0  0  0  0  0  0  0  0  0  0
   -0.3406   20.9206  -21.7824 C   0  0  0  0  0  0  0  0  0  0  0  0
   -0.3132   20.4818  -20.3800 C   0  0  0  0  0  0  0  0  0  0  0  0
    0.5590   19.3491  -20.2227 N   0  0  0  0  0  0  0  0  0  0  0  0
    1.7541   19.2978  -20.9883 C   0  0  0  0  0  0  0  0  0  0  0  0
    2.5215   18.3375  -20.8588 O   0  0  0  0  0  0  0  0  0  0  0  0
    2.0611   20.4287  -21.9516 C   0  0  0  0  0  0  0  0  0  0  0  0
    3.3141   20.3018  -22.7247 C   0  0  0  0  0  0  0  0  0  0  0  0
    3.1860   21.3214  -21.6225 C   0  0  0  0  0  0  0  0  0  0  0  0
   -1.5404   21.3674  -22.3429 C   0  0  0  0  0  0  0  0  0  0  0  0
   -1.6140   21.7981  -23.6065 N   0  0  0  0  0  0  0  0  0  0  0  0
    0.2136   18.3195  -19.2982 C   0  0  0  0  0  0  0  0  0  0  0  0
    0.3441   18.5857  -17.9497 C   0  0  0  0  0  0  0  0  0  0  0  0
    0.7991   19.8011  -17.5000 F   0  0  0  0  0  0  0  0  0  0  0  0
    0.0252   17.6478  -16.9679 C   0  0  0  0  0  0  0  0  0  0  0  0
   -0.4381   16.4059  -17.3511 C   0  0  0  0  0  0  0  0  0  0  0  0
   -0.5761   16.1183  -18.6937 C   0  0  0  0  0  0  0  0  0  0  0  0
   -0.2500   17.0736  -19.6444 C   0  0  0  0  0  0  0  0  0  0  0  0
   -0.3879   16.7845  -20.9588 F   0  0  0  0  0  0  0  0  0  0  0  0
    0.1839   17.9923  -15.6252 O   0  0  0  0  0  0  0  0  0  0  0  0
   -0.9590   18.0277  -14.8127 C   0  0  0  0  0  0  0  0  0  0  0  0
   -1.0488   14.8503  -19.0692 O   0  0  0  0  0  0  0  0  0  0  0  0
   -2.3883   14.6652  -19.4266 C   0  0  0  0  0  0  0  0  0  0  0  0
   -1.8022   22.7553  -27.7642 C   0  0  0  0  0  0  0  0  0  0  0  0
   -0.6157   23.1646  -28.3249 C   0  0  0  0  0  0  0  0  0  0  0  0
    0.5498   23.1323  -27.6314 N   0  0  0  0  0  0  0  0  0  0  0  0
    0.5929   22.7017  -26.3747 C   0  0  0  0  0  0  0  0  0  0  0  0
   -0.5731   22.2761  -25.7557 C   0  0  0  0  0  0  0  0  0  0  0  0
   -1.7533   22.3004  -26.4345 C   0  0  0  0  0  0  0  0  0  0  0  0
   -3.7077   23.9257  -28.8193 C   0  0  0  0  0  0  0  0  0  0  0  0
   -2.9685   22.7948  -28.4793 O   0  0  0  0  0  0  0  0  0  0  0  0
 32 33  1  0  0  0
 33 26  1  0  0  0
 26 27  2  0  0  0
 27 28  1  0  0  0
 28 29  2  0  0  0
 29 30  1  0  0  0
 30 31  2  0  0  0
 30  1  1  0  0  0
  1  2  2  0  0  0
  2  3  1  0  0  0
  3  4  2  0  0  0
  4  5  1  0  0  0
  5  6  1  0  0  0
  6  7  1  0  0  0
  7  8  2  0  0  0
  7  9  1  0  0  0
  9 10  1  0  0  0
 10 11  1  0  0  0
  6 14  1  0  0  0
 14 15  2  0  0  0
 15 16  1  0  0  0
 15 17  1  0  0  0
 17 22  1  0  0  0
 22 23  1  0  0  0
 17 18  2  0  0  0
 18 19  1  0  0  0
 19 24  1  0  0  0
 24 25  1  0  0  0
 19 20  2  0  0  0
 20 21  1  0  0  0
  4 12  1  0  0  0
 12 13  2  0  0  0
 31 26  1  0  0  0
 13  1  1  0  0  0
  9  3  1  0  0  0
 11  9  1  0  0  0
 20 14  1  0  0  0
M  END
> <minimizedAffinity>
-6.83260

> <CNNscore>
0.6274164319

> <CNNaffinity>
6.8610429764

> <CNN_VS>
4.3047308922

> <CNNaffinity_variance>
0.1551056653

$$$$
[H]c1nc([H])c(-c2nc([H])c3c(c2[H])C2(C(=O)N(c4c(F)c(OC([H])([H])[H])c([H])c(OC([H])([H])[H])c4F)C3([H])[H])C([H])([H])C2([H])[H])c([H])c1OC([H])([H])[H]


 33 37  0  0  0  0  0  0  0  0999 V2000
   -0.6851   21.7432  -23.5611 C   0  0  0  0  0  0  0  0  0  0  0  0
   -1.5069   21.9862  -22.4909 C   0  0  0  0  0  0  0  0  0  0  0  0
   -1.0905   21.7536  -21.1738 C   0  0  0  0  0  0  0  0  0  0  0  0
    0.1772   21.2698  -20.9927 C   0  0  0  0  0  0  0  0  0  0  0  0
    0.6821   20.9745  -19.6444 C   0  0  0  0  0  0  0  0  0  0  0  0
    0.2339   21.9704  -18.7085 N   0  0  0  0  0  0  0  0  0  0  0  0
   -1.0730   22.5060  -18.8572 C   0  0  0  0  0  0  0  0  0  0  0  0
   -1.4797   23.3550  -18.0561 O   0  0  0  0  0  0  0  0  0  0  0  0
   -1.9423   22.0209  -20.0016 C   0  0  0  0  0  0  0  0  0  0  0  0
   -3.2842   22.6317  -20.1028 C   0  0  0  0  0  0  0  0  0  0  0  0
   -3.1182   21.1988  -19.6667 C   0  0  0  0  0  0  0  0  0  0  0  0
    0.9925   21.0324  -22.1027 C   0  0  0  0  0  0  0  0  0  0  0  0
    0.5729   21.2628  -23.3512 N   0  0  0  0  0  0  0  0  0  0  0  0
    1.0998   22.3825  -17.6528 C   0  0  0  0  0  0  0  0  0  0  0  0
    0.8988   21.8421  -16.3983 C   0  0  0  0  0  0  0  0  0  0  0  0
   -0.1075   20.9380  -16.1605 F   0  0  0  0  0  0  0  0  0  0  0  0
    1.6962   22.1755  -15.3037 C   0  0  0  0  0  0  0  0  0  0  0  0
    2.7257   23.0782  -15.4734 C   0  0  0  0  0  0  0  0  0  0  0  0
    2.9447   23.6309  -16.7188 C   0  0  0  0  0  0  0  0  0  0  0  0
    2.1331   23.2778  -17.7862 C   0  0  0  0  0  0  0  0  0  0  0  0
    2.3537   23.8236  -19.0043 F   0  0  0  0  0  0  0  0  0  0  0  0
    1.4300   21.5862  -14.0673 O   0  0  0  0  0  0  0  0  0  0  0  0
    1.0421   22.4199  -13.0080 C   0  0  0  0  0  0  0  0  0  0  0  0
    3.9961   24.5482  -16.8769 O   0  0  0  0  0  0  0  0  0  0  0  0
    5.2468   24.3066  -16.2993 C   0  0  0  0  0  0  0  0  0  0  0  0
   -0.7425   22.5682  -27.2178 C   0  0  0  0  0  0  0  0  0  0  0  0
   -2.0963   22.4479  -27.4238 C   0  0  0  0  0  0  0  0  0  0  0  0
   -2.9439   22.1135  -26.4188 N   0  0  0  0  0  0  0  0  0  0  0  0
   -2.4982   21.8871  -25.1873 C   0  0  0  0  0  0  0  0  0  0  0  0
   -1.1415   21.9933  -24.9190 C   0  0  0  0  0  0  0  0  0  0  0  0
   -0.2740   22.3280  -25.9139 C   0  0  0  0  0  0  0  0  0  0  0  0
   -0.2139   23.6675  -29.3688 C   0  0  0  0  0  0  0  0  0  0  0  0
    0.0976   22.9067  -28.2441 O   0  0  0  0  0  0  0  0  0  0  0  0
 32 33  1  0  0  0
 33 26  1  0  0  0
 26 27  2  0  0  0
 27 28  1  0  0  0
 28 29  2  0  0  0
 29 30  1  0  0  0
 30 31  2  0  0  0
 30  1  1  0  0  0
  1  2  2  0  0  0
  2  3  1  0  0  0
  3  4  2  0  0  0
  4  5  1  0  0  0
  5  6  1  0  0  0
  6  7  1  0  0  0
  7  8  2  0  0  0
  7  9  1  0  0  0
  9 10  1  0  0  0
 10 11  1  0  0  0
  6 14  1  0  0  0
 14 15  2  0  0  0
 15 16  1  0  0  0
 15 17  1  0  0  0
 17 22  1  0  0  0
 22 23  1  0  0  0
 17 18  2  0  0  0
 18 19  1  0  0  0
 19 24  1  0  0  0
 24 25  1  0  0  0
 19 20  2  0  0  0
 20 21  1  0  0  0
  4 12  1  0  0  0
 12 13  2  0  0  0
 31 26  1  0  0  0
 13  1  1  0  0  0
  9  3  1  0  0  0
 11  9  1  0  0  0
 20 14  1  0  0  0
M  END
> <minimizedAffinity>
-6.82366

> <CNNscore>
0.4212403595

> <CNNaffinity>
6.5895757675

> <CNN_VS>
2.7757952213

> <CNNaffinity_variance>
0.0420237668

$$$$
[H]c1nc([H])c(-c2nc([H])c3c(c2[H])C2(C(=O)N(c4c(F)c(OC([H])([H])[H])c([H])c(OC([H])([H])[H])c4F)C3([H])[H])C([H])([H])C2([H])[H])c([H])c1OC([H])([H])[H]


 33 37  0  0  0  0  0  0  0  0999 V2000
   -1.0050   22.6025  -23.6854 C   0  0  0  0  0  0  0  0  0  0  0  0
   -0.3717   21.6774  -22.8963 C   0  0  0  0  0  0  0  0  0  0  0  0
   -0.5085   21.6801  -21.5022 C   0  0  0  0  0  0  0  0  0  0  0  0
   -1.3035   22.6490  -20.9517 C   0  0  0  0  0  0  0  0  0  0  0  0
   -1.4791   22.7374  -19.4951 C   0  0  0  0  0  0  0  0  0  0  0  0
   -1.5729   21.4236  -18.9176 N   0  0  0  0  0  0  0  0  0  0  0  0
   -0.7706   20.3832  -19.4570 C   0  0  0  0  0  0  0  0  0  0  0  0
   -0.8297   19.2500  -18.9669 O   0  0  0  0  0  0  0  0  0  0  0  0
    0.1438   20.6897  -20.6278 C   0  0  0  0  0  0  0  0  0  0  0  0
    0.9385   19.5565  -21.1458 C   0  0  0  0  0  0  0  0  0  0  0  0
    1.5966   20.6770  -20.3828 C   0  0  0  0  0  0  0  0  0  0  0  0
   -1.9370   23.5784  -21.7813 C   0  0  0  0  0  0  0  0  0  0  0  0
   -1.7917   23.5554  -23.1102 N   0  0  0  0  0  0  0  0  0  0  0  0
   -2.4513   21.2015  -17.8161 C   0  0  0  0  0  0  0  0  0  0  0  0
   -1.9699   21.4341  -16.5432 C   0  0  0  0  0  0  0  0  0  0  0  0
   -0.6816   21.8604  -16.3312 F   0  0  0  0  0  0  0  0  0  0  0  0
   -2.7524   21.2534  -15.4029 C   0  0  0  0  0  0  0  0  0  0  0  0
   -4.0568   20.8264  -15.5448 C   0  0  0  0  0  0  0  0  0  0  0  0
   -4.5588   20.5878  -16.8079 C   0  0  0  0  0  0  0  0  0  0  0  0
   -3.7537   20.7773  -17.9209 C   0  0  0  0  0  0  0  0  0  0  0  0
   -4.2526   20.5414  -19.1561 F   0  0  0  0  0  0  0  0  0  0  0  0
   -2.1937   21.5097  -14.1504 O   0  0  0  0  0  0  0  0  0  0  0  0
   -3.0077   22.0991  -13.1719 C   0  0  0  0  0  0  0  0  0  0  0  0
   -5.8880   20.1537  -16.9371 O   0  0  0  0  0  0  0  0  0  0  0  0
   -6.9234   21.0737  -17.1316 C   0  0  0  0  0  0  0  0  0  0  0  0
   -1.7396   22.5662  -27.3616 C   0  0  0  0  0  0  0  0  0  0  0  0
   -0.4440   22.5219  -27.8191 C   0  0  0  0  0  0  0  0  0  0  0  0
    0.6127   22.5058  -26.9685 N   0  0  0  0  0  0  0  0  0  0  0  0
    0.4383   22.5326  -25.6512 C   0  0  0  0  0  0  0  0  0  0  0  0
   -0.8466   22.5779  -25.1307 C   0  0  0  0  0  0  0  0  0  0  0  0
   -1.9208   22.5945  -25.9674 C   0  0  0  0  0  0  0  0  0  0  0  0
   -3.6196   23.6623  -28.5356 C   0  0  0  0  0  0  0  0  0  0  0  0
   -2.7935   22.5816  -28.2348 O   0  0  0  0  0  0  0  0  0  0  0  0
 32 33  1  0  0  0
 33 26  1  0  0  0
 26 27  2  0  0  0
 27 28  1  0  0  0
 28 29  2  0  0  0
 29 30  1  0  0  0
 30 31  2  0  0  0
 30  1  1  0  0  0
  1  2  2  0  0  0
  2  3  1  0  0  0
  3  4  2  0  0  0
  4  5  1  0  0  0
  5  6  1  0  0  0
  6  7  1  0  0  0
  7  8  2  0  0  0
  7  9  1  0  0  0
  9 10  1  0  0  0
 10 11  1  0  0  0
  6 14  1  0  0  0
 14 15  2  0  0  0
 15 16  1  0  0  0
 15 17  1  0  0  0
 17 22  1  0  0  0
 22 23  1  0  0  0
 17 18  2  0  0  0
 18 19  1  0  0  0
 19 24  1  0  0  0
 24 25  1  0  0  0
 19 20  2  0  0  0
 20 21  1  0  0  0
  4 12  1  0  0  0
 12 13  2  0  0  0
 31 26  1  0  0  0
 13  1  1  0  0  0
  9  3  1  0  0  0
 11  9  1  0  0  0
 20 14  1  0  0  0
M  END
> <minimizedAffinity>
-6.60995

> <CNNscore>
0.3425361514

> <CNNaffinity>
6.6629128456

> <CNN_VS>
2.2822885513

> <CNNaffinity_variance>
0.1901396513

$$$$
[H]c1nc([H])c(-c2nc([H])c3c(c2[H])C2(C(=O)N(c4c(F)c(OC([H])([H])[H])c([H])c(OC([H])([H])[H])c4F)C3([H])[H])C([H])([H])C2([H])[H])c([H])c1OC([H])([H])[H]


 33 37  0  0  0  0  0  0  0  0999 V2000
   -1.0985   22.5910  -23.6925 C   0  0  0  0  0  0  0  0  0  0  0  0
   -0.4388   21.6947  -22.8917 C   0  0  0  0  0  0  0  0  0  0  0  0
   -0.6161   21.6777  -21.5023 C   0  0  0  0  0  0  0  0  0  0  0  0
   -1.4786   22.5970  -20.9686 C   0  0  0  0  0  0  0  0  0  0  0  0
   -1.7011   22.6630  -19.5172 C   0  0  0  0  0  0  0  0  0  0  0  0
   -1.7397   21.3409  -18.9522 N   0  0  0  0  0  0  0  0  0  0  0  0
   -0.8664   20.3506  -19.4751 C   0  0  0  0  0  0  0  0  0  0  0  0
   -0.8777   19.2116  -18.9951 O   0  0  0  0  0  0  0  0  0  0  0  0
    0.0636   20.7166  -20.6161 C   0  0  0  0  0  0  0  0  0  0  0  0
    0.9338   19.6330  -21.1186 C   0  0  0  0  0  0  0  0  0  0  0  0
    1.5072   20.7809  -20.3284 C   0  0  0  0  0  0  0  0  0  0  0  0
   -2.1375   23.4978  -21.8098 C   0  0  0  0  0  0  0  0  0  0  0  0
   -1.9525   23.4945  -23.1340 N   0  0  0  0  0  0  0  0  0  0  0  0
   -2.6364   21.0617  -17.8788 C   0  0  0  0  0  0  0  0  0  0  0  0
   -3.9216   20.6657  -18.1913 C   0  0  0  0  0  0  0  0  0  0  0  0
   -4.3380   20.5474  -19.4948 F   0  0  0  0  0  0  0  0  0  0  0  0
   -4.8696   20.3632  -17.2140 C   0  0  0  0  0  0  0  0  0  0  0  0
   -4.5168   20.4613  -15.8836 C   0  0  0  0  0  0  0  0  0  0  0  0
   -3.2375   20.8554  -15.5484 C   0  0  0  0  0  0  0  0  0  0  0  0
   -2.3192   21.1490  -16.5450 C   0  0  0  0  0  0  0  0  0  0  0  0
   -1.0667   21.5347  -16.2090 F   0  0  0  0  0  0  0  0  0  0  0  0
   -6.1483   19.9696  -17.6096 O   0  0  0  0  0  0  0  0  0  0  0  0
   -7.2117   20.8563  -17.3842 C   0  0  0  0  0  0  0  0  0  0  0  0
   -2.8925   20.9508  -14.1905 O   0  0  0  0  0  0  0  0  0  0  0  0
   -3.0525   22.1546  -13.4965 C   0  0  0  0  0  0  0  0  0  0  0  0
   -1.7227   22.6154  -27.3892 C   0  0  0  0  0  0  0  0  0  0  0  0
   -0.4143   22.5709  -27.8083 C   0  0  0  0  0  0  0  0  0  0  0  0
    0.6164   22.5358  -26.9269 N   0  0  0  0  0  0  0  0  0  0  0  0
    0.4027   22.5433  -25.6152 C   0  0  0  0  0  0  0  0  0  0  0  0
   -0.8970   22.5878  -25.1327 C   0  0  0  0  0  0  0  0  0  0  0  0
   -1.9455   22.6233  -26.0007 C   0  0  0  0  0  0  0  0  0  0  0  0
   -4.0088   23.2190  -28.1128 C   0  0  0  0  0  0  0  0  0  0  0  0
   -2.7499   22.6502  -28.2931 O   0  0  0  0  0  0  0  0  0  0  0  0
 32 33  1  0  0  0
 33 26  1  0  0  0
 26 27  2  0  0  0
 27 28  1  0  0  0
 28 29  2  0  0  0
 29 30  1  0  0  0
 30 31  2  0  0  0
 30  1  1  0  0  0
  1  2  2  0  0  0
  2  3  1  0  0  0
  3  4  2  0  0  0
  4  5  1  0  0  0
  5  6  1  0  0  0
  6  7  1  0  0  0
  7  8  2  0  0  0
  7  9  1  0  0  0
  9 10  1  0  0  0
 10 11  1  0  0  0
  6 14  1  0  0  0
 14 15  2  0  0  0
 15 16  1  0  0  0
 15 17  1  0  0  0
 17 22  1  0  0  0
 22 23  1  0  0  0
 17 18  2  0  0  0
 18 19  1  0  0  0
 19 24  1  0  0  0
 24 25  1  0  0  0
 19 20  2  0  0  0
 20 21  1  0  0  0
  4 12  1  0  0  0
 12 13  2  0  0  0
 31 26  1  0  0  0
 13  1  1  0  0  0
  9  3  1  0  0  0
 11  9  1  0  0  0
 20 14  1  0  0  0
M  END
> <minimizedAffinity>
-6.56434

> <CNNscore>
0.3202955425

> <CNNaffinity>
6.6391386986

> <CNN_VS>
2.1264865398

> <CNNaffinity_variance>
0.1990562528

$$$$
[H]c1nc([H])c(-c2nc([H])c3c(c2[H])C2(C(=O)N(c4c(F)c(OC([H])([H])[H])c([H])c(OC([H])([H])[H])c4F)C3([H])[H])C([H])([H])C2([H])[H])c([H])c1OC([H])([H])[H]


 33 37  0  0  0  0  0  0  0  0999 V2000
   -4.0456   23.3987  -26.6206 C   0  0  0  0  0  0  0  0  0  0  0  0
   -4.0690   23.9052  -25.3468 C   0  0  0  0  0  0  0  0  0  0  0  0
   -3.5354   23.1974  -24.2620 C   0  0  0  0  0  0  0  0  0  0  0  0
   -2.9861   21.9709  -24.5223 C   0  0  0  0  0  0  0  0  0  0  0  0
   -2.4281   21.1529  -23.4361 C   0  0  0  0  0  0  0  0  0  0  0  0
   -1.7332   21.9806  -22.4872 N   0  0  0  0  0  0  0  0  0  0  0  0
   -2.2618   23.2641  -22.1868 C   0  0  0  0  0  0  0  0  0  0  0  0
   -1.6843   23.9854  -21.3657 O   0  0  0  0  0  0  0  0  0  0  0  0
   -3.5286   23.7210  -22.8848 C   0  0  0  0  0  0  0  0  0  0  0  0
   -4.0130   25.0723  -22.5336 C   0  0  0  0  0  0  0  0  0  0  0  0
   -4.7517   23.8425  -22.0722 C   0  0  0  0  0  0  0  0  0  0  0  0
   -2.9760   21.4807  -25.8310 C   0  0  0  0  0  0  0  0  0  0  0  0
   -3.4912   22.1752  -26.8509 N   0  0  0  0  0  0  0  0  0  0  0  0
   -0.5473   21.4912  -21.8640 C   0  0  0  0  0  0  0  0  0  0  0  0
   -0.6270   21.0768  -20.5494 C   0  0  0  0  0  0  0  0  0  0  0  0
   -1.8074   21.1362  -19.8497 F   0  0  0  0  0  0  0  0  0  0  0  0
    0.4741   20.5762  -19.8549 C   0  0  0  0  0  0  0  0  0  0  0  0
    1.6911   20.4892  -20.4991 C   0  0  0  0  0  0  0  0  0  0  0  0
    1.7936   20.8979  -21.8132 C   0  0  0  0  0  0  0  0  0  0  0  0
    0.6792   21.3910  -22.4747 C   0  0  0  0  0  0  0  0  0  0  0  0
    0.7871   21.7898  -23.7629 F   0  0  0  0  0  0  0  0  0  0  0  0
    0.3134   20.1773  -18.5276 O   0  0  0  0  0  0  0  0  0  0  0  0
    0.9759   19.0165  -18.1018 C   0  0  0  0  0  0  0  0  0  0  0  0
    3.0385   20.8036  -22.4562 O   0  0  0  0  0  0  0  0  0  0  0  0
    3.8991   19.7333  -22.1915 C   0  0  0  0  0  0  0  0  0  0  0  0
   -5.4810   24.3077  -29.9626 C   0  0  0  0  0  0  0  0  0  0  0  0
   -5.6414   25.6557  -29.7460 C   0  0  0  0  0  0  0  0  0  0  0  0
   -5.2985   26.2347  -28.5682 N   0  0  0  0  0  0  0  0  0  0  0  0
   -4.7911   25.5191  -27.5697 C   0  0  0  0  0  0  0  0  0  0  0  0
   -4.6064   24.1538  -27.7298 C   0  0  0  0  0  0  0  0  0  0  0  0
   -4.9439   23.5533  -28.9044 C   0  0  0  0  0  0  0  0  0  0  0  0
   -6.3179   24.3954  -32.2877 C   0  0  0  0  0  0  0  0  0  0  0  0
   -5.8324   23.7408  -31.1579 O   0  0  0  0  0  0  0  0  0  0  0  0
 32 33  1  0  0  0
 33 26  1  0  0  0
 26 27  2  0  0  0
 27 28  1  0  0  0
 28 29  2  0  0  0
 29 30  1  0  0  0
 30 31  2  0  0  0
 30  1  1  0  0  0
  1  2  2  0  0  0
  2  3  1  0  0  0
  3  4  2  0  0  0
  4  5  1  0  0  0
  5  6  1  0  0  0
  6  7  1  0  0  0
  7  8  2  0  0  0
  7  9  1  0  0  0
  9 10  1  0  0  0
 10 11  1  0  0  0
  6 14  1  0  0  0
 14 15  2  0  0  0
 15 16  1  0  0  0
 15 17  1  0  0  0
 17 22  1  0  0  0
 22 23  1  0  0  0
 17 18  2  0  0  0
 18 19  1  0  0  0
 19 24  1  0  0  0
 24 25  1  0  0  0
 19 20  2  0  0  0
 20 21  1  0  0  0
  4 12  1  0  0  0
 12 13  2  0  0  0
 31 26  1  0  0  0
 13  1  1  0  0  0
  9  3  1  0  0  0
 11  9  1  0  0  0
 20 14  1  0  0  0
M  END
> <minimizedAffinity>
-7.90539

> <CNNscore>
0.1185358092

> <CNNaffinity>
6.6948328018

> <CNN_VS>
0.7935774326

> <CNNaffinity_variance>
0.2651883662

$$$$
[H]c1nc([H])c(-c2nc([H])c3c(c2[H])C2(C(=O)N(c4c(F)c(OC([H])([H])[H])c([H])c(OC([H])([H])[H])c4F)C3([H])[H])C([H])([H])C2([H])[H])c([H])c1OC([H])([H])[H]


 33 37  0  0  0  0  0  0  0  0999 V2000
   -4.8169   21.9824  -17.9015 C   0  0  0  0  0  0  0  0  0  0  0  0
   -3.5822   22.2795  -18.4181 C   0  0  0  0  0  0  0  0  0  0  0  0
   -3.3259   22.2241  -19.7942 C   0  0  0  0  0  0  0  0  0  0  0  0
   -4.3618   21.8585  -20.6110 C   0  0  0  0  0  0  0  0  0  0  0  0
   -4.1694   21.7508  -22.0641 C   0  0  0  0  0  0  0  0  0  0  0  0
   -3.3172   22.8073  -22.5398 N   0  0  0  0  0  0  0  0  0  0  0  0
   -2.2308   23.2250  -21.7260 C   0  0  0  0  0  0  0  0  0  0  0  0
   -1.4811   24.1241  -22.1228 O   0  0  0  0  0  0  0  0  0  0  0  0
   -2.0160   22.5542  -20.3826 C   0  0  0  0  0  0  0  0  0  0  0  0
   -0.8753   23.0491  -19.5840 C   0  0  0  0  0  0  0  0  0  0  0  0
   -0.8333   21.6888  -20.2312 C   0  0  0  0  0  0  0  0  0  0  0  0
   -5.6096   21.5620  -20.0558 C   0  0  0  0  0  0  0  0  0  0  0  0
   -5.8304   21.6225  -18.7385 N   0  0  0  0  0  0  0  0  0  0  0  0
   -3.5721   23.3956  -23.8138 C   0  0  0  0  0  0  0  0  0  0  0  0
   -2.9177   22.8758  -24.9129 C   0  0  0  0  0  0  0  0  0  0  0  0
   -2.0391   21.8270  -24.7937 F   0  0  0  0  0  0  0  0  0  0  0  0
   -3.1052   23.3767  -26.2010 C   0  0  0  0  0  0  0  0  0  0  0  0
   -3.9751   24.4307  -26.3913 C   0  0  0  0  0  0  0  0  0  0  0  0
   -4.6397   24.9659  -25.3067 C   0  0  0  0  0  0  0  0  0  0  0  0
   -4.4304   24.4443  -24.0392 C   0  0  0  0  0  0  0  0  0  0  0  0
   -5.0855   24.9739  -22.9806 F   0  0  0  0  0  0  0  0  0  0  0  0
   -2.4073   22.7973  -27.2611 O   0  0  0  0  0  0  0  0  0  0  0  0
   -2.9552   22.9016  -28.5482 C   0  0  0  0  0  0  0  0  0  0  0  0
   -5.5220   26.0382  -25.5154 O   0  0  0  0  0  0  0  0  0  0  0  0
   -5.0363   27.3379  -25.6922 C   0  0  0  0  0  0  0  0  0  0  0  0
   -6.0598   21.2215  -14.4472 C   0  0  0  0  0  0  0  0  0  0  0  0
   -5.4499   22.2615  -13.7868 C   0  0  0  0  0  0  0  0  0  0  0  0
   -4.6728   23.1625  -14.4384 N   0  0  0  0  0  0  0  0  0  0  0  0
   -4.4677   23.0764  -15.7488 C   0  0  0  0  0  0  0  0  0  0  0  0
   -5.0570   22.0476  -16.4687 C   0  0  0  0  0  0  0  0  0  0  0  0
   -5.8408   21.1331  -15.8334 C   0  0  0  0  0  0  0  0  0  0  0  0
   -6.5128   19.6320  -12.6081 C   0  0  0  0  0  0  0  0  0  0  0  0
   -6.8407   20.3219  -13.7731 O   0  0  0  0  0  0  0  0  0  0  0  0
 32 33  1  0  0  0
 33 26  1  0  0  0
 26 27  2  0  0  0
 27 28  1  0  0  0
 28 29  2  0  0  0
 29 30  1  0  0  0
 30 31  2  0  0  0
 30  1  1  0  0  0
  1  2  2  0  0  0
  2  3  1  0  0  0
  3  4  2  0  0  0
  4  5  1  0  0  0
  5  6  1  0  0  0
  6  7  1  0  0  0
  7  8  2  0  0  0
  7  9  1  0  0  0
  9 10  1  0  0  0
 10 11  1  0  0  0
  6 14  1  0  0  0
 14 15  2  0  0  0
 15 16  1  0  0  0
 15 17  1  0  0  0
 17 22  1  0  0  0
 22 23  1  0  0  0
 17 18  2  0  0  0
 18 19  1  0  0  0
 19 24  1  0  0  0
 24 25  1  0  0  0
 19 20  2  0  0  0
 20 21  1  0  0  0
  4 12  1  0  0  0
 12 13  2  0  0  0
 31 26  1  0  0  0
 13  1  1  0  0  0
  9  3  1  0  0  0
 11  9  1  0  0  0
 20 14  1  0  0  0
M  END
> <minimizedAffinity>
-6.87302

> <CNNscore>
0.1169916093

> <CNNaffinity>
6.1262140274

> <CNN_VS>
0.7167156339

> <CNNaffinity_variance>
0.0938011482

$$$$
[H]c1nc(N([H])[H])c(-c2nn(-c3c([H])c(OC([H])([H])[H])c([H])c(OC([H])([H])[H])c3[H])c(=O)c([H])c2[H])c([H])c1-c1c([H])nn(C2([H])C([H])([H])C([H])([H])N(C([H])([H])C([H])([H])OC([H])([H])[H])C([H])([H])C2([H])[H])c1[H]


 41 45  0  0  0  0  0  0  0  0999 V2000
   -0.3196   22.1368  -25.4385 C   0  0  0  0  0  0  0  0  0  0  0  0
    0.3659   22.2654  -26.6222 C   0  0  0  0  0  0  0  0  0  0  0  0
   -0.2896   22.6580  -27.7234 N   0  0  0  0  0  0  0  0  0  0  0  0
   -1.5995   22.9367  -27.7330 C   0  0  0  0  0  0  0  0  0  0  0  0
   -2.2517   23.3479  -28.9163 N   0  0  0  0  0  0  0  0  0  0  0  0
   -2.3570   22.8251  -26.5569 C   0  0  0  0  0  0  0  0  0  0  0  0
   -1.6940   22.4252  -25.4311 C   0  0  0  0  0  0  0  0  0  0  0  0
   -2.6651   22.6063  -29.5548 H   0  0  0  0  0  0  0  0  0  0  0  0
   -2.3648   24.3292  -29.2230 H   0  0  0  0  0  0  0  0  0  0  0  0
   -3.7898   23.1365  -26.5962 C   0  0  0  0  0  0  0  0  0  0  0  0
   -4.4088   23.3046  -27.8023 C   0  0  0  0  0  0  0  0  0  0  0  0
   -5.7757   23.6007  -27.8067 C   0  0  0  0  0  0  0  0  0  0  0  0
   -6.4330   23.7089  -26.6071 C   0  0  0  0  0  0  0  0  0  0  0  0
   -7.6559   23.9725  -26.5715 O   0  0  0  0  0  0  0  0  0  0  0  0
   -5.7634   23.5311  -25.4475 N   0  0  0  0  0  0  0  0  0  0  0  0
   -4.4837   23.2536  -25.4280 N   0  0  0  0  0  0  0  0  0  0  0  0
   -6.4505   23.6457  -24.2199 C   0  0  0  0  0  0  0  0  0  0  0  0
   -6.6743   22.5129  -23.4754 C   0  0  0  0  0  0  0  0  0  0  0  0
   -7.3447   22.5941  -22.2690 C   0  0  0  0  0  0  0  0  0  0  0  0
   -7.7925   23.8069  -21.8046 C   0  0  0  0  0  0  0  0  0  0  0  0
   -7.5784   24.9501  -22.5346 C   0  0  0  0  0  0  0  0  0  0  0  0
   -6.9062   24.8488  -23.7383 C   0  0  0  0  0  0  0  0  0  0  0  0
   -7.5601   21.4374  -21.5327 O   0  0  0  0  0  0  0  0  0  0  0  0
   -8.3726   21.4922  -20.3653 C   0  0  0  0  0  0  0  0  0  0  0  0
   -8.0157   26.1827  -22.0951 O   0  0  0  0  0  0  0  0  0  0  0  0
   -8.1585   26.4182  -20.7102 C   0  0  0  0  0  0  0  0  0  0  0  0
    1.9026   21.1146  -22.7300 N   0  0  0  0  0  0  0  0  0  0  0  0
    1.6926   21.4883  -24.0050 C   0  0  0  0  0  0  0  0  0  0  0  0
    0.3297   21.7147  -24.1981 C   0  0  0  0  0  0  0  0  0  0  0  0
   -0.2464   21.4553  -22.9744 C   0  0  0  0  0  0  0  0  0  0  0  0
    0.7235   21.1007  -22.1259 N   0  0  0  0  0  0  0  0  0  0  0  0
    4.8704   19.4629  -20.2219 N   0  0  0  0  0  0  0  0  0  0  0  0
    4.7291   18.9262  -21.5643 C   0  0  0  0  0  0  0  0  0  0  0  0
    3.4029   19.3141  -22.1809 C   0  0  0  0  0  0  0  0  0  0  0  0
    3.1519   20.7865  -22.1026 C   0  0  0  0  0  0  0  0  0  0  0  0
    3.1828   21.1927  -20.6364 C   0  0  0  0  0  0  0  0  0  0  0  0
    4.5709   20.8528  -20.1450 C   0  0  0  0  0  0  0  0  0  0  0  0
    4.1363   18.6304  -19.2803 C   0  0  0  0  0  0  0  0  0  0  0  0
    4.5967   17.2221  -19.2962 C   0  0  0  0  0  0  0  0  0  0  0  0
    3.6616   15.2938  -18.4914 C   0  0  0  0  0  0  0  0  0  0  0  0
    3.5388   16.3458  -19.3666 O   0  0  0  0  0  0  0  0  0  0  0  0
 40 41  1  0  0  0
 41 39  1  0  0  0
 39 38  1  0  0  0
 38 32  1  0  0  0
 32 33  1  0  0  0
 33 34  1  0  0  0
 34 35  1  0  0  0
 35 36  1  0  0  0
 36 37  1  0  0  0
 35 27  1  0  0  0
 27 28  1  0  0  0
 28 29  2  0  0  0
 29 30  1  0  0  0
 30 31  2  0  0  0
 29  1  1  0  0  0
  1  2  2  0  0  0
  2  3  1  0  0  0
  3  4  2  0  0  0
  4  5  1  0  0  0
  4  6  1  0  0  0
  6  7  2  0  0  0
  6 10  1  0  0  0
 10 11  1  0  0  0
 11 12  2  0  0  0
 12 13  1  0  0  0
 13 14  2  0  0  0
 13 15  1  0  0  0
 15 16  1  0  0  0
 15 17  1  0  0  0
 17 18  2  0  0  0
 18 19  1  0  0  0
 19 23  1  0  0  0
 23 24  1  0  0  0
 19 20  2  0  0  0
 20 21  1  0  0  0
 21 25  1  0  0  0
 25 26  1  0  0  0
 21 22  2  0  0  0
 37 32  1  0  0  0
 31 27  1  0  0  0
  7  1  1  0  0  0
 16 10  2  0  0  0
 22 17  1  0  0  0
  5  8  1  0  0  0
  5  9  1  0  0  0
M  END
> <minimizedAffinity>
-8.88212

> <CNNscore>
0.7157177329

> <CNNaffinity>
7.5408453941

> <CNN_VS>
5.3971166611

> <CNNaffinity_variance>
0.1263923496

$$$$
[H]c1nc(N([H])[H])c(-c2nn(-c3c([H])c(OC([H])([H])[H])c([H])c(OC([H])([H])[H])c3[H])c(=O)c([H])c2[H])c([H])c1-c1c([H])nn(C2([H])C([H])([H])C([H])([H])N(C([H])([H])C([H])([H])OC([H])([H])[H])C([H])([H])C2([H])[H])c1[H]


 41 45  0  0  0  0  0  0  0  0999 V2000
   -0.2846   22.1180  -25.3849 C   0  0  0  0  0  0  0  0  0  0  0  0
    0.3863   22.2299  -26.5786 C   0  0  0  0  0  0  0  0  0  0  0  0
   -0.2802   22.6186  -27.6746 N   0  0  0  0  0  0  0  0  0  0  0  0
   -1.5876   22.9089  -27.6695 C   0  0  0  0  0  0  0  0  0  0  0  0
   -2.2517   23.3153  -28.8478 N   0  0  0  0  0  0  0  0  0  0  0  0
   -2.3305   22.8144  -26.4826 C   0  0  0  0  0  0  0  0  0  0  0  0
   -1.6562   22.4187  -25.3620 C   0  0  0  0  0  0  0  0  0  0  0  0
   -2.6800   22.5719  -29.4741 H   0  0  0  0  0  0  0  0  0  0  0  0
   -2.3602   24.2949  -29.1618 H   0  0  0  0  0  0  0  0  0  0  0  0
   -3.7608   23.1382  -26.5059 C   0  0  0  0  0  0  0  0  0  0  0  0
   -4.3852   23.3409  -27.7038 C   0  0  0  0  0  0  0  0  0  0  0  0
   -5.7497   23.6480  -27.6930 C   0  0  0  0  0  0  0  0  0  0  0  0
   -6.3993   23.7320  -26.4873 C   0  0  0  0  0  0  0  0  0  0  0  0
   -7.6198   24.0045  -26.4381 O   0  0  0  0  0  0  0  0  0  0  0  0
   -5.7247   23.5203  -25.3363 N   0  0  0  0  0  0  0  0  0  0  0  0
   -4.4471   23.2322  -25.3311 N   0  0  0  0  0  0  0  0  0  0  0  0
   -6.4039   23.6102  -24.1023 C   0  0  0  0  0  0  0  0  0  0  0  0
   -6.6999   24.8524  -23.5957 C   0  0  0  0  0  0  0  0  0  0  0  0
   -7.3643   24.9719  -22.3892 C   0  0  0  0  0  0  0  0  0  0  0  0
   -7.7339   23.8504  -21.6869 C   0  0  0  0  0  0  0  0  0  0  0  0
   -7.4468   22.6003  -22.1772 C   0  0  0  0  0  0  0  0  0  0  0  0
   -6.7819   22.5013  -23.3851 C   0  0  0  0  0  0  0  0  0  0  0  0
   -7.6536   26.2364  -21.8955 O   0  0  0  0  0  0  0  0  0  0  0  0
   -8.3342   26.3632  -20.6518 C   0  0  0  0  0  0  0  0  0  0  0  0
   -7.8048   21.4553  -21.4957 O   0  0  0  0  0  0  0  0  0  0  0  0
   -8.5177   21.5613  -20.2814 C   0  0  0  0  0  0  0  0  0  0  0  0
    1.9650   21.1069  -22.6949 N   0  0  0  0  0  0  0  0  0  0  0  0
    1.7420   21.4750  -23.9693 C   0  0  0  0  0  0  0  0  0  0  0  0
    0.3773   21.7011  -24.1494 C   0  0  0  0  0  0  0  0  0  0  0  0
   -0.1863   21.4473  -22.9187 C   0  0  0  0  0  0  0  0  0  0  0  0
    0.7922   21.0961  -22.0787 N   0  0  0  0  0  0  0  0  0  0  0  0
    4.9587   19.4601  -20.2144 N   0  0  0  0  0  0  0  0  0  0  0  0
    4.8064   18.9237  -21.5557 C   0  0  0  0  0  0  0  0  0  0  0  0
    3.4738   19.3092  -22.1602 C   0  0  0  0  0  0  0  0  0  0  0  0
    3.2206   20.7810  -22.0789 C   0  0  0  0  0  0  0  0  0  0  0  0
    3.2639   21.1867  -20.6130 C   0  0  0  0  0  0  0  0  0  0  0  0
    4.6570   20.8495  -20.1342 C   0  0  0  0  0  0  0  0  0  0  0  0
    4.2347   18.6258  -19.2666 C   0  0  0  0  0  0  0  0  0  0  0  0
    4.6713   18.8528  -17.8690 C   0  0  0  0  0  0  0  0  0  0  0  0
    3.3949   20.3274  -16.6703 C   0  0  0  0  0  0  0  0  0  0  0  0
    3.5976   19.0156  -17.0247 O   0  0  0  0  0  0  0  0  0  0  0  0
 40 41  1  0  0  0
 41 39  1  0  0  0
 39 38  1  0  0  0
 38 32  1  0  0  0
 32 33  1  0  0  0
 33 34  1  0  0  0
 34 35  1  0  0  0
 35 36  1  0  0  0
 36 37  1  0  0  0
 35 27  1  0  0  0
 27 28  1  0  0  0
 28 29  2  0  0  0
 29 30  1  0  0  0
 30 31  2  0  0  0
 29  1  1  0  0  0
  1  2  2  0  0  0
  2  3  1  0  0  0
  3  4  2  0  0  0
  4  5  1  0  0  0
  4  6  1  0  0  0
  6  7  2  0  0  0
  6 10  1  0  0  0
 10 11  1  0  0  0
 11 12  2  0  0  0
 12 13  1  0  0  0
 13 14  2  0  0  0
 13 15  1  0  0  0
 15 16  1  0  0  0
 15 17  1  0  0  0
 17 18  2  0  0  0
 18 19  1  0  0  0
 19 23  1  0  0  0
 23 24  1  0  0  0
 19 20  2  0  0  0
 20 21  1  0  0  0
 21 25  1  0  0  0
 25 26  1  0  0  0
 21 22  2  0  0  0
 37 32  1  0  0  0
 31 27  1  0  0  0
  7  1  1  0  0  0
 16 10  2  0  0  0
 22 17  1  0  0  0
  5  8  1  0  0  0
  5  9  1  0  0  0
M  END
> <minimizedAffinity>
-8.79069

> <CNNscore>
0.6783347130

> <CNNaffinity>
7.5143876076

> <CNN_VS>
5.0972700119

> <CNNaffinity_variance>
0.1290366650

$$$$
[H]c1nc(N([H])[H])c(-c2nn(-c3c([H])c(OC([H])([H])[H])c([H])c(OC([H])([H])[H])c3[H])c(=O)c([H])c2[H])c([H])c1-c1c([H])nn(C2([H])C([H])([H])C([H])([H])N(C([H])([H])C([H])([H])OC([H])([H])[H])C([H])([H])C2([H])[H])c1[H]


 41 45  0  0  0  0  0  0  0  0999 V2000
   -0.1784   22.0882  -25.3797 C   0  0  0  0  0  0  0  0  0  0  0  0
    0.5095   22.2221  -26.5614 C   0  0  0  0  0  0  0  0  0  0  0  0
   -0.1441   22.6177  -27.6626 N   0  0  0  0  0  0  0  0  0  0  0  0
   -1.4543   22.8945  -27.6742 C   0  0  0  0  0  0  0  0  0  0  0  0
   -2.1045   23.3089  -28.8575 N   0  0  0  0  0  0  0  0  0  0  0  0
   -2.2144   22.7774  -26.5002 C   0  0  0  0  0  0  0  0  0  0  0  0
   -1.5533   22.3745  -25.3744 C   0  0  0  0  0  0  0  0  0  0  0  0
   -2.5154   22.5690  -29.4996 H   0  0  0  0  0  0  0  0  0  0  0  0
   -2.2184   24.2912  -29.1609 H   0  0  0  0  0  0  0  0  0  0  0  0
   -3.6475   23.0868  -26.5416 C   0  0  0  0  0  0  0  0  0  0  0  0
   -4.2616   23.2696  -27.7481 C   0  0  0  0  0  0  0  0  0  0  0  0
   -5.6291   23.5633  -27.7545 C   0  0  0  0  0  0  0  0  0  0  0  0
   -6.2917   23.6547  -26.5564 C   0  0  0  0  0  0  0  0  0  0  0  0
   -7.5152   23.9157  -26.5227 O   0  0  0  0  0  0  0  0  0  0  0  0
   -5.6268   23.4630  -25.3963 N   0  0  0  0  0  0  0  0  0  0  0  0
   -4.3466   23.1875  -25.3750 N   0  0  0  0  0  0  0  0  0  0  0  0
   -6.3193   23.5603  -24.1704 C   0  0  0  0  0  0  0  0  0  0  0  0
   -6.6293   24.8054  -23.6794 C   0  0  0  0  0  0  0  0  0  0  0  0
   -7.3070   24.9322  -22.4810 C   0  0  0  0  0  0  0  0  0  0  0  0
   -7.6759   23.8152  -21.7713 C   0  0  0  0  0  0  0  0  0  0  0  0
   -7.3748   22.5624  -22.2459 C   0  0  0  0  0  0  0  0  0  0  0  0
   -6.6969   22.4559  -23.4459 C   0  0  0  0  0  0  0  0  0  0  0  0
   -7.6103   26.1995  -22.0031 O   0  0  0  0  0  0  0  0  0  0  0  0
   -8.2869   26.3344  -20.7582 C   0  0  0  0  0  0  0  0  0  0  0  0
   -7.7318   21.4216  -21.5566 O   0  0  0  0  0  0  0  0  0  0  0  0
   -8.2679   21.5331  -20.2550 C   0  0  0  0  0  0  0  0  0  0  0  0
    0.7756   21.0596  -22.0106 N   0  0  0  0  0  0  0  0  0  0  0  0
   -0.1498   21.4434  -22.9083 C   0  0  0  0  0  0  0  0  0  0  0  0
    0.4687   21.6626  -24.1394 C   0  0  0  0  0  0  0  0  0  0  0  0
    1.7999   21.3885  -23.9176 C   0  0  0  0  0  0  0  0  0  0  0  0
    1.9426   21.0326  -22.6371 N   0  0  0  0  0  0  0  0  0  0  0  0
    1.0417   19.2979  -18.1827 N   0  0  0  0  0  0  0  0  0  0  0  0
    1.6860   20.5826  -18.3938 C   0  0  0  0  0  0  0  0  0  0  0  0
    1.8564   20.8832  -19.8670 C   0  0  0  0  0  0  0  0  0  0  0  0
    0.5773   20.7305  -20.6269 C   0  0  0  0  0  0  0  0  0  0  0  0
    0.0857   19.3025  -20.4406 C   0  0  0  0  0  0  0  0  0  0  0  0
   -0.1431   19.1370  -18.9560 C   0  0  0  0  0  0  0  0  0  0  0  0
    2.0168   18.2282  -18.3359 C   0  0  0  0  0  0  0  0  0  0  0  0
    1.5091   16.9283  -17.8379 C   0  0  0  0  0  0  0  0  0  0  0  0
    0.8654   15.6604  -19.6320 C   0  0  0  0  0  0  0  0  0  0  0  0
    1.8363   15.8988  -18.6895 O   0  0  0  0  0  0  0  0  0  0  0  0
 40 41  1  0  0  0
 41 39  1  0  0  0
 39 38  1  0  0  0
 38 32  1  0  0  0
 32 33  1  0  0  0
 33 34  1  0  0  0
 34 35  1  0  0  0
 35 36  1  0  0  0
 36 37  1  0  0  0
 35 27  1  0  0  0
 27 28  1  0  0  0
 28 29  2  0  0  0
 29 30  1  0  0  0
 30 31  2  0  0  0
 29  1  1  0  0  0
  1  2  2  0  0  0
  2  3  1  0  0  0
  3  4  2  0  0  0
  4  5  1  0  0  0
  4  6  1  0  0  0
  6  7  2  0  0  0
  6 10  1  0  0  0
 10 11  1  0  0  0
 11 12  2  0  0  0
 12 13  1  0  0  0
 13 14  2  0  0  0
 13 15  1  0  0  0
 15 16  1  0  0  0
 15 17  1  0  0  0
 17 18  2  0  0  0
 18 19  1  0  0  0
 19 23  1  0  0  0
 23 24  1  0  0  0
 19 20  2  0  0  0
 20 21  1  0  0  0
 21 25  1  0  0  0
 25 26  1  0  0  0
 21 22  2  0  0  0
 37 32  1  0  0  0
 31 27  1  0  0  0
  7  1  1  0  0  0
 16 10  2  0  0  0
 22 17  1  0  0  0
  5  8  1  0  0  0
  5  9  1  0  0  0
M  END
> <minimizedAffinity>
-8.60811

> <CNNscore>
0.5179478526

> <CNNaffinity>
7.4840478897

> <CNN_VS>
3.8763465881

> <CNNaffinity_variance>
0.0675170273

$$$$
[H]c1nc(N([H])[H])c(-c2nn(-c3c([H])c(OC([H])([H])[H])c([H])c(OC([H])([H])[H])c3[H])c(=O)c([H])c2[H])c([H])c1-c1c([H])nn(C2([H])C([H])([H])C([H])([H])N(C([H])([H])C([H])([H])OC([H])([H])[H])C([H])([H])C2([H])[H])c1[H]


 41 45  0  0  0  0  0  0  0  0999 V2000
   -0.3310   22.1067  -25.3008 C   0  0  0  0  0  0  0  0  0  0  0  0
    0.3526   22.1953  -26.4892 C   0  0  0  0  0  0  0  0  0  0  0  0
   -0.3017   22.5645  -27.5993 N   0  0  0  0  0  0  0  0  0  0  0  0
   -1.6085   22.8569  -27.6133 C   0  0  0  0  0  0  0  0  0  0  0  0
   -2.2595   23.2423  -28.8059 N   0  0  0  0  0  0  0  0  0  0  0  0
   -2.3640   22.7857  -26.4328 C   0  0  0  0  0  0  0  0  0  0  0  0
   -1.7023   22.4099  -25.2980 C   0  0  0  0  0  0  0  0  0  0  0  0
   -2.6826   22.4880  -29.4228 H   0  0  0  0  0  0  0  0  0  0  0  0
   -2.3630   24.2160  -29.1392 H   0  0  0  0  0  0  0  0  0  0  0  0
   -3.7935   23.1113  -26.4772 C   0  0  0  0  0  0  0  0  0  0  0  0
   -4.3893   23.3616  -27.6806 C   0  0  0  0  0  0  0  0  0  0  0  0
   -5.7537   23.6691  -27.6901 C   0  0  0  0  0  0  0  0  0  0  0  0
   -6.4317   23.7059  -26.4977 C   0  0  0  0  0  0  0  0  0  0  0  0
   -7.6531   23.9771  -26.4667 O   0  0  0  0  0  0  0  0  0  0  0  0
   -5.7846   23.4484  -25.3403 N   0  0  0  0  0  0  0  0  0  0  0  0
   -4.5075   23.1593  -25.3162 N   0  0  0  0  0  0  0  0  0  0  0  0
   -6.4929   23.4900  -24.1202 C   0  0  0  0  0  0  0  0  0  0  0  0
   -6.5615   22.3527  -23.3526 C   0  0  0  0  0  0  0  0  0  0  0  0
   -7.2483   22.3631  -22.1528 C   0  0  0  0  0  0  0  0  0  0  0  0
   -7.8677   23.5097  -21.7180 C   0  0  0  0  0  0  0  0  0  0  0  0
   -7.8102   24.6562  -22.4715 C   0  0  0  0  0  0  0  0  0  0  0  0
   -7.1188   24.6262  -23.6681 C   0  0  0  0  0  0  0  0  0  0  0  0
   -7.3052   21.2030  -21.3928 O   0  0  0  0  0  0  0  0  0  0  0  0
   -7.4632   21.2983  -19.9814 C   0  0  0  0  0  0  0  0  0  0  0  0
   -8.4216   25.8234  -22.0620 O   0  0  0  0  0  0  0  0  0  0  0  0
   -9.7661   26.0676  -22.4179 C   0  0  0  0  0  0  0  0  0  0  0  0
    0.6436   21.2453  -21.8909 N   0  0  0  0  0  0  0  0  0  0  0  0
   -0.2720   21.6542  -22.7876 C   0  0  0  0  0  0  0  0  0  0  0  0
    0.3171   21.7119  -24.0508 C   0  0  0  0  0  0  0  0  0  0  0  0
    1.6209   21.3171  -23.8489 C   0  0  0  0  0  0  0  0  0  0  0  0
    1.7763   21.0476  -22.5490 N   0  0  0  0  0  0  0  0  0  0  0  0
   -0.3835   19.6543  -18.1173 N   0  0  0  0  0  0  0  0  0  0  0  0
    0.9962   19.5421  -18.5574 C   0  0  0  0  0  0  0  0  0  0  0  0
    1.1247   19.7745  -20.0470 C   0  0  0  0  0  0  0  0  0  0  0  0
    0.4668   21.0461  -20.4798 C   0  0  0  0  0  0  0  0  0  0  0  0
   -1.0021   20.9737  -20.0892 C   0  0  0  0  0  0  0  0  0  0  0  0
   -1.0210   20.8389  -18.5842 C   0  0  0  0  0  0  0  0  0  0  0  0
   -1.0969   18.4218  -18.4182 C   0  0  0  0  0  0  0  0  0  0  0  0
   -1.1633   17.5106  -17.2517 C   0  0  0  0  0  0  0  0  0  0  0  0
   -1.0746   17.3966  -14.9670 C   0  0  0  0  0  0  0  0  0  0  0  0
   -1.2052   18.2090  -16.0673 O   0  0  0  0  0  0  0  0  0  0  0  0
 40 41  1  0  0  0
 41 39  1  0  0  0
 39 38  1  0  0  0
 38 32  1  0  0  0
 32 33  1  0  0  0
 33 34  1  0  0  0
 34 35  1  0  0  0
 35 36  1  0  0  0
 36 37  1  0  0  0
 35 27  1  0  0  0
 27 28  1  0  0  0
 28 29  2  0  0  0
 29 30  1  0  0  0
 30 31  2  0  0  0
 29  1  1  0  0  0
  1  2  2  0  0  0
  2  3  1  0  0  0
  3  4  2  0  0  0
  4  5  1  0  0  0
  4  6  1  0  0  0
  6  7  2  0  0  0
  6 10  1  0  0  0
 10 11  1  0  0  0
 11 12  2  0  0  0
 12 13  1  0  0  0
 13 14  2  0  0  0
 13 15  1  0  0  0
 15 16  1  0  0  0
 15 17  1  0  0  0
 17 18  2  0  0  0
 18 19  1  0  0  0
 19 23  1  0  0  0
 23 24  1  0  0  0
 19 20  2  0  0  0
 20 21  1  0  0  0
 21 25  1  0  0  0
 25 26  1  0  0  0
 21 22  2  0  0  0
 37 32  1  0  0  0
 31 27  1  0  0  0
  7  1  1  0  0  0
 16 10  2  0  0  0
 22 17  1  0  0  0
  5  8  1  0  0  0
  5  9  1  0  0  0
M  END
> <minimizedAffinity>
-8.29044

> <CNNscore>
0.4329890609

> <CNNaffinity>
7.4140577316

> <CNN_VS>
3.2102057934

> <CNNaffinity_variance>
0.0947886556

$$$$
[H]c1nc(N([H])[H])c(-c2nn(-c3c([H])c(OC([H])([H])[H])c([H])c(OC([H])([H])[H])c3[H])c(=O)c([H])c2[H])c([H])c1-c1c([H])nn(C2([H])C([H])([H])C([H])([H])N(C([H])([H])C([H])([H])OC([H])([H])[H])C([H])([H])C2([H])[H])c1[H]


 41 45  0  0  0  0  0  0  0  0999 V2000
   -0.3148   22.1535  -25.4700 C   0  0  0  0  0  0  0  0  0  0  0  0
    0.3448   22.2625  -26.6703 C   0  0  0  0  0  0  0  0  0  0  0  0
   -0.3322   22.6478  -27.7610 N   0  0  0  0  0  0  0  0  0  0  0  0
   -1.6396   22.9375  -27.7445 C   0  0  0  0  0  0  0  0  0  0  0  0
   -2.3150   23.3404  -28.9176 N   0  0  0  0  0  0  0  0  0  0  0  0
   -2.3713   22.8460  -26.5504 C   0  0  0  0  0  0  0  0  0  0  0  0
   -1.6863   22.4536  -25.4352 C   0  0  0  0  0  0  0  0  0  0  0  0
   -2.7487   22.5950  -29.5379 H   0  0  0  0  0  0  0  0  0  0  0  0
   -2.4269   24.3190  -29.2332 H   0  0  0  0  0  0  0  0  0  0  0  0
   -3.8019   23.1690  -26.5612 C   0  0  0  0  0  0  0  0  0  0  0  0
   -4.4407   23.3548  -27.7543 C   0  0  0  0  0  0  0  0  0  0  0  0
   -5.8050   23.6616  -27.7316 C   0  0  0  0  0  0  0  0  0  0  0  0
   -6.4402   23.7623  -26.5194 C   0  0  0  0  0  0  0  0  0  0  0  0
   -7.6602   24.0351  -26.4595 O   0  0  0  0  0  0  0  0  0  0  0  0
   -5.7519   23.5669  -25.3737 N   0  0  0  0  0  0  0  0  0  0  0  0
   -4.4742   23.2792  -25.3797 N   0  0  0  0  0  0  0  0  0  0  0  0
   -6.4164   23.6738  -24.1331 C   0  0  0  0  0  0  0  0  0  0  0  0
   -6.7575   24.9204  -23.6673 C   0  0  0  0  0  0  0  0  0  0  0  0
   -7.4089   25.0565  -22.4555 C   0  0  0  0  0  0  0  0  0  0  0  0
   -7.7204   23.9473  -21.7071 C   0  0  0  0  0  0  0  0  0  0  0  0
   -7.3874   22.6930  -22.1560 C   0  0  0  0  0  0  0  0  0  0  0  0
   -6.7365   22.5773  -23.3700 C   0  0  0  0  0  0  0  0  0  0  0  0
   -7.7445   26.3252  -22.0036 O   0  0  0  0  0  0  0  0  0  0  0  0
   -8.4628   26.4658  -20.7828 C   0  0  0  0  0  0  0  0  0  0  0  0
   -7.6866   21.5600  -21.4277 O   0  0  0  0  0  0  0  0  0  0  0  0
   -8.6980   21.6111  -20.4437 C   0  0  0  0  0  0  0  0  0  0  0  0
    0.7096   21.1477  -22.1147 N   0  0  0  0  0  0  0  0  0  0  0  0
   -0.2359   21.5161  -22.9978 C   0  0  0  0  0  0  0  0  0  0  0  0
    0.3588   21.7404  -24.2396 C   0  0  0  0  0  0  0  0  0  0  0  0
    1.6973   21.4853  -24.0395 C   0  0  0  0  0  0  0  0  0  0  0  0
    1.8662   21.1351  -22.7607 N   0  0  0  0  0  0  0  0  0  0  0  0
    1.0418   21.0193  -17.9076 N   0  0  0  0  0  0  0  0  0  0  0  0
   -0.0867   21.7277  -18.4861 C   0  0  0  0  0  0  0  0  0  0  0  0
    0.1413   22.0344  -19.9502 C   0  0  0  0  0  0  0  0  0  0  0  0
    0.5391   20.8198  -20.7271 C   0  0  0  0  0  0  0  0  0  0  0  0
    1.8116   20.2602  -20.1083 C   0  0  0  0  0  0  0  0  0  0  0  0
    1.4526   19.8995  -18.6854 C   0  0  0  0  0  0  0  0  0  0  0  0
    2.1046   21.9625  -17.5925 C   0  0  0  0  0  0  0  0  0  0  0  0
    2.7392   21.6788  -16.2839 C   0  0  0  0  0  0  0  0  0  0  0  0
    3.4918   23.8081  -15.9092 C   0  0  0  0  0  0  0  0  0  0  0  0
    2.7039   22.7774  -15.4569 O   0  0  0  0  0  0  0  0  0  0  0  0
 40 41  1  0  0  0
 41 39  1  0  0  0
 39 38  1  0  0  0
 38 32  1  0  0  0
 32 33  1  0  0  0
 33 34  1  0  0  0
 34 35  1  0  0  0
 35 36  1  0  0  0
 36 37  1  0  0  0
 35 27  1  0  0  0
 27 28  1  0  0  0
 28 29  2  0  0  0
 29 30  1  0  0  0
 30 31  2  0  0  0
 29  1  1  0  0  0
  1  2  2  0  0  0
  2  3  1  0  0  0
  3  4  2  0  0  0
  4  5  1  0  0  0
  4  6  1  0  0  0
  6  7  2  0  0  0
  6 10  1  0  0  0
 10 11  1  0  0  0
 11 12  2  0  0  0
 12 13  1  0  0  0
 13 14  2  0  0  0
 13 15  1  0  0  0
 15 16  1  0  0  0
 15 17  1  0  0  0
 17 18  2  0  0  0
 18 19  1  0  0  0
 19 23  1  0  0  0
 23 24  1  0  0  0
 19 20  2  0  0  0
 20 21  1  0  0  0
 21 25  1  0  0  0
 25 26  1  0  0  0
 21 22  2  0  0  0
 37 32  1  0  0  0
 31 27  1  0  0  0
  7  1  1  0  0  0
 16 10  2  0  0  0
 22 17  1  0  0  0
  5  8  1  0  0  0
  5  9  1  0  0  0
M  END
> <minimizedAffinity>
-8.90895

> <CNNscore>
0.3718276322

> <CNNaffinity>
7.3260536194

> <CNN_VS>
2.7240290642

> <CNNaffinity_variance>
0.0852791741

$$$$
[H]c1nc(N([H])[H])c(-c2nn(-c3c([H])c(OC([H])([H])[H])c([H])c(OC([H])([H])[H])c3[H])c(=O)c([H])c2[H])c([H])c1-c1c([H])nn(C2([H])C([H])([H])C([H])([H])N(C([H])([H])C([H])([H])OC([H])([H])[H])C([H])([H])C2([H])[H])c1[H]


 41 45  0  0  0  0  0  0  0  0999 V2000
   -0.2799   22.1029  -25.3936 C   0  0  0  0  0  0  0  0  0  0  0  0
    0.3895   22.2067  -26.5889 C   0  0  0  0  0  0  0  0  0  0  0  0
   -0.2775   22.5917  -27.6859 N   0  0  0  0  0  0  0  0  0  0  0  0
   -1.5840   22.8860  -27.6803 C   0  0  0  0  0  0  0  0  0  0  0  0
   -2.2488   23.2883  -28.8597 N   0  0  0  0  0  0  0  0  0  0  0  0
   -2.3254   22.7998  -26.4918 C   0  0  0  0  0  0  0  0  0  0  0  0
   -1.6506   22.4078  -25.3703 C   0  0  0  0  0  0  0  0  0  0  0  0
   -2.6802   22.5429  -29.4815 H   0  0  0  0  0  0  0  0  0  0  0  0
   -2.3548   24.2665  -29.1785 H   0  0  0  0  0  0  0  0  0  0  0  0
   -3.7548   23.1278  -26.5146 C   0  0  0  0  0  0  0  0  0  0  0  0
   -4.3891   23.2883  -27.7138 C   0  0  0  0  0  0  0  0  0  0  0  0
   -5.7524   23.6005  -27.7024 C   0  0  0  0  0  0  0  0  0  0  0  0
   -6.3910   23.7315  -26.4950 C   0  0  0  0  0  0  0  0  0  0  0  0
   -7.6101   24.0101  -26.4453 O   0  0  0  0  0  0  0  0  0  0  0  0
   -5.7069   23.5601  -25.3429 N   0  0  0  0  0  0  0  0  0  0  0  0
   -4.4303   23.2677  -25.3382 N   0  0  0  0  0  0  0  0  0  0  0  0
   -6.3749   23.6981  -24.1072 C   0  0  0  0  0  0  0  0  0  0  0  0
   -6.7488   22.5664  -23.4240 C   0  0  0  0  0  0  0  0  0  0  0  0
   -7.4046   22.6703  -22.2113 C   0  0  0  0  0  0  0  0  0  0  0  0
   -7.6878   23.9049  -21.6794 C   0  0  0  0  0  0  0  0  0  0  0  0
   -7.3221   25.0473  -22.3477 C   0  0  0  0  0  0  0  0  0  0  0  0
   -6.6672   24.9232  -23.5587 C   0  0  0  0  0  0  0  0  0  0  0  0
   -7.7733   21.5142  -21.5376 O   0  0  0  0  0  0  0  0  0  0  0  0
   -8.5318   21.6155  -20.3373 C   0  0  0  0  0  0  0  0  0  0  0  0
   -7.5922   26.3014  -21.8397 O   0  0  0  0  0  0  0  0  0  0  0  0
   -8.4668   26.4338  -20.7390 C   0  0  0  0  0  0  0  0  0  0  0  0
    0.7240   21.1524  -22.0161 N   0  0  0  0  0  0  0  0  0  0  0  0
   -0.2077   21.5509  -22.9007 C   0  0  0  0  0  0  0  0  0  0  0  0
    0.3826   21.6903  -24.1570 C   0  0  0  0  0  0  0  0  0  0  0  0
    1.7040   21.3543  -23.9636 C   0  0  0  0  0  0  0  0  0  0  0  0
    1.8679   21.0398  -22.6749 N   0  0  0  0  0  0  0  0  0  0  0  0
    0.7654   21.4207  -17.8026 N   0  0  0  0  0  0  0  0  0  0  0  0
   -0.4727   21.7263  -18.4981 C   0  0  0  0  0  0  0  0  0  0  0  0
   -0.2342   21.9832  -19.9700 C   0  0  0  0  0  0  0  0  0  0  0  0
    0.5521   20.8867  -20.6153 C   0  0  0  0  0  0  0  0  0  0  0  0
    1.8821   20.7679  -19.8856 C   0  0  0  0  0  0  0  0  0  0  0  0
    1.5370   20.4182  -18.4565 C   0  0  0  0  0  0  0  0  0  0  0  0
    1.4863   22.6528  -17.5184 C   0  0  0  0  0  0  0  0  0  0  0  0
    2.6479   22.4321  -16.6254 C   0  0  0  0  0  0  0  0  0  0  0  0
    3.5490   24.4519  -17.2164 C   0  0  0  0  0  0  0  0  0  0  0  0
    3.1798   23.6220  -16.1855 O   0  0  0  0  0  0  0  0  0  0  0  0
 40 41  1  0  0  0
 41 39  1  0  0  0
 39 38  1  0  0  0
 38 32  1  0  0  0
 32 33  1  0  0  0
 33 34  1  0  0  0
 34 35  1  0  0  0
 35 36  1  0  0  0
 36 37  1  0  0  0
 35 27  1  0  0  0
 27 28  1  0  0  0
 28 29  2  0  0  0
 29 30  1  0  0  0
 30 31  2  0  0  0
 29  1  1  0  0  0
  1  2  2  0  0  0
  2  3  1  0  0  0
  3  4  2  0  0  0
  4  5  1  0  0  0
  4  6  1  0  0  0
  6  7  2  0  0  0
  6 10  1  0  0  0
 10 11  1  0  0  0
 11 12  2  0  0  0
 12 13  1  0  0  0
 13 14  2  0  0  0
 13 15  1  0  0  0
 15 16  1  0  0  0
 15 17  1  0  0  0
 17 18  2  0  0  0
 18 19  1  0  0  0
 19 23  1  0  0  0
 23 24  1  0  0  0
 19 20  2  0  0  0
 20 21  1  0  0  0
 21 25  1  0  0  0
 25 26  1  0  0  0
 21 22  2  0  0  0
 37 32  1  0  0  0
 31 27  1  0  0  0
  7  1  1  0  0  0
 16 10  2  0  0  0
 22 17  1  0  0  0
  5  8  1  0  0  0
  5  9  1  0  0  0
M  END
> <minimizedAffinity>
-9.12824

> <CNNscore>
0.3337079287

> <CNNaffinity>
7.2895622253

> <CNN_VS>
2.4325847626

> <CNNaffinity_variance>
0.0809207410

$$$$
[H]c1nc(N([H])[H])c(-c2nn(-c3c([H])c(OC([H])([H])[H])c([H])c(OC([H])([H])[H])c3[H])c(=O)c([H])c2[H])c([H])c1-c1c([H])nn(C2([H])C([H])([H])C([H])([H])N(C([H])([H])C([H])([H])OC([H])([H])[H])C([H])([H])C2([H])[H])c1[H]


 41 45  0  0  0  0  0  0  0  0999 V2000
   -0.2945   22.1195  -25.4302 C   0  0  0  0  0  0  0  0  0  0  0  0
    0.3828   22.2474  -26.6186 C   0  0  0  0  0  0  0  0  0  0  0  0
   -0.2790   22.6449  -27.7143 N   0  0  0  0  0  0  0  0  0  0  0  0
   -1.5877   22.9292  -27.7137 C   0  0  0  0  0  0  0  0  0  0  0  0
   -2.2469   23.3453  -28.8915 N   0  0  0  0  0  0  0  0  0  0  0  0
   -2.3372   22.8184  -26.5323 C   0  0  0  0  0  0  0  0  0  0  0  0
   -1.6676   22.4136  -25.4122 C   0  0  0  0  0  0  0  0  0  0  0  0
   -2.6681   22.6067  -29.5283 H   0  0  0  0  0  0  0  0  0  0  0  0
   -2.3581   24.3277  -29.1955 H   0  0  0  0  0  0  0  0  0  0  0  0
   -3.7688   23.1360  -26.5606 C   0  0  0  0  0  0  0  0  0  0  0  0
   -4.3945   23.3156  -27.7616 C   0  0  0  0  0  0  0  0  0  0  0  0
   -5.7602   23.6173  -27.7554 C   0  0  0  0  0  0  0  0  0  0  0  0
   -6.4097   23.7192  -26.5510 C   0  0  0  0  0  0  0  0  0  0  0  0
   -7.6312   23.9875  -26.5060 O   0  0  0  0  0  0  0  0  0  0  0  0
   -5.7338   23.5300  -25.3969 N   0  0  0  0  0  0  0  0  0  0  0  0
   -4.4551   23.2472  -25.3873 N   0  0  0  0  0  0  0  0  0  0  0  0
   -6.4129   23.6383  -24.1643 C   0  0  0  0  0  0  0  0  0  0  0  0
   -6.7797   24.8836  -23.7149 C   0  0  0  0  0  0  0  0  0  0  0  0
   -7.4459   25.0209  -22.5112 C   0  0  0  0  0  0  0  0  0  0  0  0
   -7.7466   23.9142  -21.7548 C   0  0  0  0  0  0  0  0  0  0  0  0
   -7.3881   22.6613  -22.1874 C   0  0  0  0  0  0  0  0  0  0  0  0
   -6.7227   22.5443  -23.3934 C   0  0  0  0  0  0  0  0  0  0  0  0
   -7.8073   26.2882  -22.0758 O   0  0  0  0  0  0  0  0  0  0  0  0
   -8.4409   26.4390  -20.8101 C   0  0  0  0  0  0  0  0  0  0  0  0
   -7.6759   21.5307  -21.4507 O   0  0  0  0  0  0  0  0  0  0  0  0
   -8.6186   21.6038  -20.4019 C   0  0  0  0  0  0  0  0  0  0  0  0
    0.6918   21.1228  -22.0608 N   0  0  0  0  0  0  0  0  0  0  0  0
   -0.2364   21.5284  -22.9459 C   0  0  0  0  0  0  0  0  0  0  0  0
    0.3620   21.6922  -24.1954 C   0  0  0  0  0  0  0  0  0  0  0  0
    1.6845   21.3629  -23.9976 C   0  0  0  0  0  0  0  0  0  0  0  0
    1.8413   21.0291  -22.7128 N   0  0  0  0  0  0  0  0  0  0  0  0
   -0.5109   21.2486  -18.0155 N   0  0  0  0  0  0  0  0  0  0  0  0
   -1.1747   20.3072  -18.9004 C   0  0  0  0  0  0  0  0  0  0  0  0
   -0.9399   20.6517  -20.3549 C   0  0  0  0  0  0  0  0  0  0  0  0
    0.5118   20.8336  -20.6657 C   0  0  0  0  0  0  0  0  0  0  0  0
    1.0492   21.9438  -19.7747 C   0  0  0  0  0  0  0  0  0  0  0  0
    0.8554   21.4619  -18.3555 C   0  0  0  0  0  0  0  0  0  0  0  0
   -1.3058   22.4628  -17.9044 C   0  0  0  0  0  0  0  0  0  0  0  0
   -2.6963   22.1877  -17.4728 C   0  0  0  0  0  0  0  0  0  0  0  0
   -4.1766   22.5220  -19.1867 C   0  0  0  0  0  0  0  0  0  0  0  0
   -3.5887   23.0518  -18.0636 O   0  0  0  0  0  0  0  0  0  0  0  0
 40 41  1  0  0  0
 41 39  1  0  0  0
 39 38  1  0  0  0
 38 32  1  0  0  0
 32 33  1  0  0  0
 33 34  1  0  0  0
 34 35  1  0  0  0
 35 36  1  0  0  0
 36 37  1  0  0  0
 35 27  1  0  0  0
 27 28  1  0  0  0
 28 29  2  0  0  0
 29 30  1  0  0  0
 30 31  2  0  0  0
 29  1  1  0  0  0
  1  2  2  0  0  0
  2  3  1  0  0  0
  3  4  2  0  0  0
  4  5  1  0  0  0
  4  6  1  0  0  0
  6  7  2  0  0  0
  6 10  1  0  0  0
 10 11  1  0  0  0
 11 12  2  0  0  0
 12 13  1  0  0  0
 13 14  2  0  0  0
 13 15  1  0  0  0
 15 16  1  0  0  0
 15 17  1  0  0  0
 17 18  2  0  0  0
 18 19  1  0  0  0
 19 23  1  0  0  0
 23 24  1  0  0  0
 19 20  2  0  0  0
 20 21  1  0  0  0
 21 25  1  0  0  0
 25 26  1  0  0  0
 21 22  2  0  0  0
 37 32  1  0  0  0
 31 27  1  0  0  0
  7  1  1  0  0  0
 16 10  2  0  0  0
 22 17  1  0  0  0
  5  8  1  0  0  0
  5  9  1  0  0  0
M  END
> <minimizedAffinity>
-8.91426

> <CNNscore>
0.2640939057

> <CNNaffinity>
7.1691603661

> <CNN_VS>
1.8933315277

> <CNNaffinity_variance>
0.1545833647

$$$$
[H]c1nc(N([H])[H])c(-c2nn(-c3c([H])c(OC([H])([H])[H])c([H])c(OC([H])([H])[H])c3[H])c(=O)c([H])c2[H])c([H])c1-c1c([H])nn(C2([H])C([H])([H])C([H])([H])N(C([H])([H])C([H])([H])OC([H])([H])[H])C([H])([H])C2([H])[H])c1[H]


 41 45  0  0  0  0  0  0  0  0999 V2000
   -0.2083   22.0901  -25.2721 C   0  0  0  0  0  0  0  0  0  0  0  0
    0.4878   22.1785  -26.4533 C   0  0  0  0  0  0  0  0  0  0  0  0
   -0.1554   22.5446  -27.5708 N   0  0  0  0  0  0  0  0  0  0  0  0
   -1.4626   22.8341  -27.5993 C   0  0  0  0  0  0  0  0  0  0  0  0
   -2.1017   23.2163  -28.7994 N   0  0  0  0  0  0  0  0  0  0  0  0
   -2.2306   22.7630  -26.4268 C   0  0  0  0  0  0  0  0  0  0  0  0
   -1.5802   22.3903  -25.2845 C   0  0  0  0  0  0  0  0  0  0  0  0
   -2.5165   22.4601  -29.4196 H   0  0  0  0  0  0  0  0  0  0  0  0
   -2.2038   24.1892  -29.1352 H   0  0  0  0  0  0  0  0  0  0  0  0
   -3.6602   23.0853  -26.4870 C   0  0  0  0  0  0  0  0  0  0  0  0
   -4.2645   23.2390  -27.7024 C   0  0  0  0  0  0  0  0  0  0  0  0
   -5.6289   23.5460  -27.7267 C   0  0  0  0  0  0  0  0  0  0  0  0
   -6.2983   23.6788  -26.5363 C   0  0  0  0  0  0  0  0  0  0  0  0
   -7.5193   23.9528  -26.5185 O   0  0  0  0  0  0  0  0  0  0  0  0
   -5.6430   23.5142  -25.3666 N   0  0  0  0  0  0  0  0  0  0  0  0
   -4.3658   23.2267  -25.3285 N   0  0  0  0  0  0  0  0  0  0  0  0
   -6.3425   23.6540  -24.1487 C   0  0  0  0  0  0  0  0  0  0  0  0
   -6.6985   22.5239  -23.4534 C   0  0  0  0  0  0  0  0  0  0  0  0
   -7.3843   22.6295  -22.2576 C   0  0  0  0  0  0  0  0  0  0  0  0
   -7.7157   23.8643  -21.7548 C   0  0  0  0  0  0  0  0  0  0  0  0
   -7.3685   25.0052  -22.4355 C   0  0  0  0  0  0  0  0  0  0  0  0
   -6.6830   24.8793  -23.6293 C   0  0  0  0  0  0  0  0  0  0  0  0
   -7.7342   21.4749  -21.5713 O   0  0  0  0  0  0  0  0  0  0  0  0
   -8.4946   21.5770  -20.3723 C   0  0  0  0  0  0  0  0  0  0  0  0
   -7.6867   26.2594  -21.9566 O   0  0  0  0  0  0  0  0  0  0  0  0
   -8.2406   26.3920  -20.6644 C   0  0  0  0  0  0  0  0  0  0  0  0
    0.7350   21.2479  -21.8487 N   0  0  0  0  0  0  0  0  0  0  0  0
   -0.1699   21.6603  -22.7545 C   0  0  0  0  0  0  0  0  0  0  0  0
    0.4273   21.6986  -24.0147 C   0  0  0  0  0  0  0  0  0  0  0  0
    1.7247   21.2889  -23.8014 C   0  0  0  0  0  0  0  0  0  0  0  0
    1.8689   21.0296  -22.4981 N   0  0  0  0  0  0  0  0  0  0  0  0
   -0.9589   20.8007  -18.0072 N   0  0  0  0  0  0  0  0  0  0  0  0
   -0.4991   19.6085  -18.6980 C   0  0  0  0  0  0  0  0  0  0  0  0
   -0.3055   19.8634  -20.1769 C   0  0  0  0  0  0  0  0  0  0  0  0
    0.5474   21.0642  -20.4369 C   0  0  0  0  0  0  0  0  0  0  0  0
   -0.1195   22.2664  -19.7846 C   0  0  0  0  0  0  0  0  0  0  0  0
   -0.1777   21.9528  -18.3074 C   0  0  0  0  0  0  0  0  0  0  0  0
   -2.3901   20.9668  -18.2134 C   0  0  0  0  0  0  0  0  0  0  0  0
   -2.9354   22.1256  -17.4681 C   0  0  0  0  0  0  0  0  0  0  0  0
   -4.1361   22.4797  -19.3848 C   0  0  0  0  0  0  0  0  0  0  0  0
   -3.4918   23.0548  -18.3162 O   0  0  0  0  0  0  0  0  0  0  0  0
 40 41  1  0  0  0
 41 39  1  0  0  0
 39 38  1  0  0  0
 38 32  1  0  0  0
 32 33  1  0  0  0
 33 34  1  0  0  0
 34 35  1  0  0  0
 35 36  1  0  0  0
 36 37  1  0  0  0
 35 27  1  0  0  0
 27 28  1  0  0  0
 28 29  2  0  0  0
 29 30  1  0  0  0
 30 31  2  0  0  0
 29  1  1  0  0  0
  1  2  2  0  0  0
  2  3  1  0  0  0
  3  4  2  0  0  0
  4  5  1  0  0  0
  4  6  1  0  0  0
  6  7  2  0  0  0
  6 10  1  0  0  0
 10 11  1  0  0  0
 11 12  2  0  0  0
 12 13  1  0  0  0
 13 14  2  0  0  0
 13 15  1  0  0  0
 15 16  1  0  0  0
 15 17  1  0  0  0
 17 18  2  0  0  0
 18 19  1  0  0  0
 19 23  1  0  0  0
 23 24  1  0  0  0
 19 20  2  0  0  0
 20 21  1  0  0  0
 21 25  1  0  0  0
 25 26  1  0  0  0
 21 22  2  0  0  0
 37 32  1  0  0  0
 31 27  1  0  0  0
  7  1  1  0  0  0
 16 10  2  0  0  0
 22 17  1  0  0  0
  5  8  1  0  0  0
  5  9  1  0  0  0
M  END
> <minimizedAffinity>
-8.98478

> <CNNscore>
0.2569021285

> <CNNaffinity>
7.1176252365

> <CNN_VS>
1.8285330534

> <CNNaffinity_variance>
0.2053753585

$$$$
[H]c1nc(N([H])[H])c(-c2nn(-c3c([H])c(OC([H])([H])[H])c([H])c(OC([H])([H])[H])c3[H])c(=O)c([H])c2[H])c([H])c1-c1c([H])nn(C2([H])C([H])([H])C([H])([H])N(C([H])([H])C([H])([H])OC([H])([H])[H])C([H])([H])C2([H])[H])c1[H]


 41 45  0  0  0  0  0  0  0  0999 V2000
   -1.6380   22.2854  -24.8206 C   0  0  0  0  0  0  0  0  0  0  0  0
   -0.6739   22.4006  -25.7926 C   0  0  0  0  0  0  0  0  0  0  0  0
    0.5875   22.0427  -25.5146 N   0  0  0  0  0  0  0  0  0  0  0  0
    0.9660   21.5705  -24.3199 C   0  0  0  0  0  0  0  0  0  0  0  0
    2.3068   21.2043  -24.0689 N   0  0  0  0  0  0  0  0  0  0  0  0
    0.0297   21.4286  -23.2842 C   0  0  0  0  0  0  0  0  0  0  0  0
   -1.2578   21.7919  -23.5619 C   0  0  0  0  0  0  0  0  0  0  0  0
    2.9775   21.9430  -23.7041 H   0  0  0  0  0  0  0  0  0  0  0  0
    2.7022   20.2594  -24.2123 H   0  0  0  0  0  0  0  0  0  0  0  0
    0.4719   20.9090  -21.9859 C   0  0  0  0  0  0  0  0  0  0  0  0
   -0.2238   19.8922  -21.3959 C   0  0  0  0  0  0  0  0  0  0  0  0
    0.2229   19.4184  -20.1580 C   0  0  0  0  0  0  0  0  0  0  0  0
    1.3340   19.9914  -19.5923 C   0  0  0  0  0  0  0  0  0  0  0  0
    1.7632   19.5938  -18.4860 O   0  0  0  0  0  0  0  0  0  0  0  0
    1.9784   20.9946  -20.2270 N   0  0  0  0  0  0  0  0  0  0  0  0
    1.5716   21.4484  -21.3862 N   0  0  0  0  0  0  0  0  0  0  0  0
    3.1198   21.5763  -19.6345 C   0  0  0  0  0  0  0  0  0  0  0  0
    2.9501   22.5549  -18.6853 C   0  0  0  0  0  0  0  0  0  0  0  0
    4.0493   23.1430  -18.0876 C   0  0  0  0  0  0  0  0  0  0  0  0
    5.3197   22.7544  -18.4374 C   0  0  0  0  0  0  0  0  0  0  0  0
    5.5094   21.7781  -19.3841 C   0  0  0  0  0  0  0  0  0  0  0  0
    4.3981   21.2018  -19.9704 C   0  0  0  0  0  0  0  0  0  0  0  0
    3.8553   24.1297  -17.1309 O   0  0  0  0  0  0  0  0  0  0  0  0
    4.8118   25.1757  -17.0007 C   0  0  0  0  0  0  0  0  0  0  0  0
    6.7724   21.3661  -19.7567 O   0  0  0  0  0  0  0  0  0  0  0  0
    6.9819   20.0241  -20.1431 C   0  0  0  0  0  0  0  0  0  0  0  0
   -5.1780   23.1627  -24.6869 N   0  0  0  0  0  0  0  0  0  0  0  0
   -4.0251   22.8193  -24.0849 C   0  0  0  0  0  0  0  0  0  0  0  0
   -3.0336   22.6553  -25.0525 C   0  0  0  0  0  0  0  0  0  0  0  0
   -3.6628   22.9193  -26.2487 C   0  0  0  0  0  0  0  0  0  0  0  0
   -4.9396   23.2177  -25.9890 N   0  0  0  0  0  0  0  0  0  0  0  0
   -8.3077   24.8617  -22.4187 N   0  0  0  0  0  0  0  0  0  0  0  0
   -8.2873   25.1045  -23.8508 C   0  0  0  0  0  0  0  0  0  0  0  0
   -6.9319   24.7939  -24.4475 C   0  0  0  0  0  0  0  0  0  0  0  0
   -6.4476   23.4297  -24.0714 C   0  0  0  0  0  0  0  0  0  0  0  0
   -6.3769   23.3565  -22.5531 C   0  0  0  0  0  0  0  0  0  0  0  0
   -7.7887   23.5839  -22.0645 C   0  0  0  0  0  0  0  0  0  0  0  0
   -7.6924   25.9817  -21.7218 C   0  0  0  0  0  0  0  0  0  0  0  0
   -8.3865   26.3051  -20.4533 C   0  0  0  0  0  0  0  0  0  0  0  0
  -10.4675   27.2239  -20.7102 C   0  0  0  0  0  0  0  0  0  0  0  0
   -9.1226   27.4621  -20.5613 O   0  0  0  0  0  0  0  0  0  0  0  0
 40 41  1  0  0  0
 41 39  1  0  0  0
 39 38  1  0  0  0
 38 32  1  0  0  0
 32 33  1  0  0  0
 33 34  1  0  0  0
 34 35  1  0  0  0
 35 36  1  0  0  0
 36 37  1  0  0  0
 35 27  1  0  0  0
 27 28  1  0  0  0
 28 29  2  0  0  0
 29 30  1  0  0  0
 30 31  2  0  0  0
 29  1  1  0  0  0
  1  2  2  0  0  0
  2  3  1  0  0  0
  3  4  2  0  0  0
  4  5  1  0  0  0
  4  6  1  0  0  0
  6  7  2  0  0  0
  6 10  1  0  0  0
 10 11  1  0  0  0
 11 12  2  0  0  0
 12 13  1  0  0  0
 13 14  2  0  0  0
 13 15  1  0  0  0
 15 16  1  0  0  0
 15 17  1  0  0  0
 17 18  2  0  0  0
 18 19  1  0  0  0
 19 23  1  0  0  0
 23 24  1  0  0  0
 19 20  2  0  0  0
 20 21  1  0  0  0
 21 25  1  0  0  0
 25 26  1  0  0  0
 21 22  2  0  0  0
 37 32  1  0  0  0
 31 27  1  0  0  0
  7  1  1  0  0  0
 16 10  2  0  0  0
 22 17  1  0  0  0
  5  8  1  0  0  0
  5  9  1  0  0  0
M  END
> <minimizedAffinity>
-7.84855

> <CNNscore>
0.2283108085

> <CNNaffinity>
6.7411589622

> <CNN_VS>
1.5390794277

> <CNNaffinity_variance>
0.0900285393

$$$$
[H]Oc1c([H])c([H])c(C([H])([H])[H])c([H])c1-c1nc([H])c(N([H])[C@]([H])(c2c([H])c([H])c([H])c([H])c2[H])C([H])([H])O[H])c([H])c1-c1c([H])c([H])c2c(c(C([H])([H])[H])nn2[H])c1[H]


 38 42  0  0  0  0  0  0  0  0999 V2000
   -1.9187   22.2478  -24.1295 C   0  0  0  0  0  0  0  0  0  0  0  0
   -1.6070   21.8325  -22.8274 C   0  0  0  0  0  0  0  0  0  0  0  0
   -0.3502   21.3399  -22.5359 C   0  0  0  0  0  0  0  0  0  0  0  0
    0.5420   21.2885  -23.5772 C   0  0  0  0  0  0  0  0  0  0  0  0
    0.2299   21.6910  -24.8272 N   0  0  0  0  0  0  0  0  0  0  0  0
   -1.0042   22.1830  -25.1508 C   0  0  0  0  0  0  0  0  0  0  0  0
   -4.5142   27.1476  -25.1212 C   0  0  0  0  0  0  0  0  0  0  0  0
   -5.2740   25.8840  -25.0988 C   0  0  0  0  0  0  0  0  0  0  0  0
   -6.5999   25.7899  -25.3029 N   0  0  0  0  0  0  0  0  0  0  0  0
   -6.9535   24.5199  -25.2136 N   0  0  0  0  0  0  0  0  0  0  0  0
   -5.8512   23.7822  -24.9497 C   0  0  0  0  0  0  0  0  0  0  0  0
   -5.6196   22.4332  -24.7565 C   0  0  0  0  0  0  0  0  0  0  0  0
   -4.3496   21.9519  -24.4946 C   0  0  0  0  0  0  0  0  0  0  0  0
   -3.2562   22.7810  -24.4122 C   0  0  0  0  0  0  0  0  0  0  0  0
   -3.4983   24.1317  -24.6078 C   0  0  0  0  0  0  0  0  0  0  0  0
   -4.7550   24.6286  -24.8696 C   0  0  0  0  0  0  0  0  0  0  0  0
   -7.9167   24.1402  -25.3258 H   0  0  0  0  0  0  0  0  0  0  0  0
   -1.3078   22.5915  -26.5043 C   0  0  0  0  0  0  0  0  0  0  0  0
   -2.6097   22.5585  -26.9363 C   0  0  0  0  0  0  0  0  0  0  0  0
   -2.9866   22.9376  -28.2082 C   0  0  0  0  0  0  0  0  0  0  0  0
   -4.4205   22.8815  -28.6275 C   0  0  0  0  0  0  0  0  0  0  0  0
   -2.0065   23.3648  -29.0708 C   0  0  0  0  0  0  0  0  0  0  0  0
   -0.6721   23.4185  -28.6856 C   0  0  0  0  0  0  0  0  0  0  0  0
   -0.3461   23.0224  -27.3835 C   0  0  0  0  0  0  0  0  0  0  0  0
    0.9848   23.0870  -27.0280 O   0  0  0  0  0  0  0  0  0  0  0  0
    1.7094   23.3958  -27.6460 H   0  0  0  0  0  0  0  0  0  0  0  0
   -0.0049   20.9265  -21.2204 N   0  0  0  0  0  0  0  0  0  0  0  0
   -0.7446   20.9252  -20.4552 H   0  0  0  0  0  0  0  0  0  0  0  0
    1.3060   20.5059  -20.8619 C   0  0  0  0  0  0  0  0  0  0  0  0
    1.3520   19.0065  -20.9041 C   0  0  0  0  0  0  0  0  0  0  0  0
    2.5395   18.4104  -21.2642 C   0  0  0  0  0  0  0  0  0  0  0  0
    2.6358   17.0179  -21.3379 C   0  0  0  0  0  0  0  0  0  0  0  0
    1.5366   16.2448  -21.0485 C   0  0  0  0  0  0  0  0  0  0  0  0
    0.3642   16.8860  -20.6913 C   0  0  0  0  0  0  0  0  0  0  0  0
    0.2483   18.2574  -20.6126 C   0  0  0  0  0  0  0  0  0  0  0  0
    1.6235   20.8978  -19.4201 C   0  0  0  0  0  0  0  0  0  0  0  0
    2.6811   21.7946  -19.4117 O   0  0  0  0  0  0  0  0  0  0  0  0
    2.4547   22.5929  -18.8884 H   0  0  0  0  0  0  0  0  0  0  0  0
  7  8  1  0  0  0
  8  9  2  0  0  0
  9 10  1  0  0  0
 10 11  1  0  0  0
 11 12  2  0  0  0
 12 13  1  0  0  0
 13 14  2  0  0  0
 14 15  1  0  0  0
 15 16  2  0  0  0
 14  1  1  0  0  0
  1  2  2  0  0  0
  2  3  1  0  0  0
  3 27  1  0  0  0
 27 29  1  0  0  0
 29 36  1  0  0  0
 36 37  1  0  0  0
 29 30  1  0  0  0
 30 31  2  0  0  0
 31 32  1  0  0  0
 32 33  2  0  0  0
 33 34  1  0  0  0
 34 35  2  0  0  0
  3  4  2  0  0  0
  4  5  1  0  0  0
  5  6  2  0  0  0
  6 18  1  0  0  0
 18 19  2  0  0  0
 19 20  1  0  0  0
 20 21  1  0  0  0
 20 22  2  0  0  0
 22 23  1  0  0  0
 23 24  2  0  0  0
 24 25  1  0  0  0
 16  8  1  0  0  0
  6  1  1  0  0  0
 24 18  1  0  0  0
 16 11  1  0  0  0
 35 30  1  0  0  0
 10 17  1  0  0  0
 27 28  1  0  0  0
 37 38  1  0  0  0
 25 26  1  0  0  0
M  END
> <minimizedAffinity>
-9.74493

> <CNNscore>
0.7990890741

> <CNNaffinity>
7.4426498413

> <CNN_VS>
5.9473400116

> <CNNaffinity_variance>
0.0996157974

$$$$
[H]Oc1c([H])c([H])c(C([H])([H])[H])c([H])c1-c1nc([H])c(N([H])[C@]([H])(c2c([H])c([H])c([H])c([H])c2[H])C([H])([H])O[H])c([H])c1-c1c([H])c([H])c2c(c(C([H])([H])[H])nn2[H])c1[H]


 38 42  0  0  0  0  0  0  0  0999 V2000
   -2.2411   22.2150  -24.0837 C   0  0  0  0  0  0  0  0  0  0  0  0
   -2.1237   21.7734  -22.7584 C   0  0  0  0  0  0  0  0  0  0  0  0
   -0.9554   21.1788  -22.3236 C   0  0  0  0  0  0  0  0  0  0  0  0
    0.0488   21.0561  -23.2506 C   0  0  0  0  0  0  0  0  0  0  0  0
   -0.0764   21.4848  -24.5244 N   0  0  0  0  0  0  0  0  0  0  0  0
   -1.2183   22.0769  -24.9884 C   0  0  0  0  0  0  0  0  0  0  0  0
   -4.3223   27.3251  -25.2165 C   0  0  0  0  0  0  0  0  0  0  0  0
   -5.1668   26.1230  -25.3435 C   0  0  0  0  0  0  0  0  0  0  0  0
   -6.4566   26.1362  -25.7240 N   0  0  0  0  0  0  0  0  0  0  0  0
   -6.9090   24.8947  -25.7317 N   0  0  0  0  0  0  0  0  0  0  0  0
   -5.9078   24.0678  -25.3540 C   0  0  0  0  0  0  0  0  0  0  0  0
   -5.8015   22.7000  -25.1847 C   0  0  0  0  0  0  0  0  0  0  0  0
   -4.6160   22.1159  -24.7769 C   0  0  0  0  0  0  0  0  0  0  0  0
   -3.4869   22.8565  -24.5190 C   0  0  0  0  0  0  0  0  0  0  0  0
   -3.6031   24.2269  -24.6919 C   0  0  0  0  0  0  0  0  0  0  0  0
   -4.7745   24.8256  -25.0973 C   0  0  0  0  0  0  0  0  0  0  0  0
   -7.8732   24.5930  -25.9845 H   0  0  0  0  0  0  0  0  0  0  0  0
   -1.3221   22.5111  -26.3637 C   0  0  0  0  0  0  0  0  0  0  0  0
   -2.5453   22.4788  -26.9844 C   0  0  0  0  0  0  0  0  0  0  0  0
   -2.7334   22.8814  -28.2906 C   0  0  0  0  0  0  0  0  0  0  0  0
   -4.0889   22.8249  -28.9185 C   0  0  0  0  0  0  0  0  0  0  0  0
   -1.6404   23.3323  -28.9900 C   0  0  0  0  0  0  0  0  0  0  0  0
   -0.3783   23.3864  -28.4105 C   0  0  0  0  0  0  0  0  0  0  0  0
   -0.2449   22.9658  -27.0823 C   0  0  0  0  0  0  0  0  0  0  0  0
    1.0182   23.0315  -26.5324 O   0  0  0  0  0  0  0  0  0  0  0  0
    1.8233   23.3575  -27.0302 H   0  0  0  0  0  0  0  0  0  0  0  0
   -0.8063   20.7364  -20.9810 N   0  0  0  0  0  0  0  0  0  0  0  0
   -0.6468   19.7037  -20.7791 H   0  0  0  0  0  0  0  0  0  0  0  0
   -0.8612   21.6187  -19.8663 C   0  0  0  0  0  0  0  0  0  0  0  0
    0.5425   21.9746  -19.4726 C   0  0  0  0  0  0  0  0  0  0  0  0
    0.7322   23.1266  -18.7432 C   0  0  0  0  0  0  0  0  0  0  0  0
    2.0197   23.5173  -18.3640 C   0  0  0  0  0  0  0  0  0  0  0  0
    3.0977   22.7439  -18.7237 C   0  0  0  0  0  0  0  0  0  0  0  0
    2.8605   21.5949  -19.4563 C   0  0  0  0  0  0  0  0  0  0  0  0
    1.5992   21.1920  -19.8402 C   0  0  0  0  0  0  0  0  0  0  0  0
   -1.4756   20.9204  -18.6547 C   0  0  0  0  0  0  0  0  0  0  0  0
   -2.0089   19.7027  -19.0496 O   0  0  0  0  0  0  0  0  0  0  0  0
   -1.6778   18.9775  -18.4780 H   0  0  0  0  0  0  0  0  0  0  0  0
  7  8  1  0  0  0
  8  9  2  0  0  0
  9 10  1  0  0  0
 10 11  1  0  0  0
 11 12  2  0  0  0
 12 13  1  0  0  0
 13 14  2  0  0  0
 14 15  1  0  0  0
 15 16  2  0  0  0
 14  1  1  0  0  0
  1  2  2  0  0  0
  2  3  1  0  0  0
  3 27  1  0  0  0
 27 29  1  0  0  0
 29 36  1  0  0  0
 36 37  1  0  0  0
 29 30  1  0  0  0
 30 31  2  0  0  0
 31 32  1  0  0  0
 32 33  2  0  0  0
 33 34  1  0  0  0
 34 35  2  0  0  0
  3  4  2  0  0  0
  4  5  1  0  0  0
  5  6  2  0  0  0
  6 18  1  0  0  0
 18 19  2  0  0  0
 19 20  1  0  0  0
 20 21  1  0  0  0
 20 22  2  0  0  0
 22 23  1  0  0  0
 23 24  2  0  0  0
 24 25  1  0  0  0
 16  8  1  0  0  0
  6  1  1  0  0  0
 24 18  1  0  0  0
 16 11  1  0  0  0
 35 30  1  0  0  0
 10 17  1  0  0  0
 27 28  1  0  0  0
 37 38  1  0  0  0
 25 26  1  0  0  0
M  END
> <minimizedAffinity>
-9.72544

> <CNNscore>
0.6604891419

> <CNNaffinity>
7.3723893166

> <CNN_VS>
4.8693828583

> <CNNaffinity_variance>
0.1000295430

$$$$
[H]Oc1c([H])c([H])c(C([H])([H])[H])c([H])c1-c1nc([H])c(N([H])[C@]([H])(c2c([H])c([H])c([H])c([H])c2[H])C([H])([H])O[H])c([H])c1-c1c([H])c([H])c2c(c(C([H])([H])[H])nn2[H])c1[H]


 38 42  0  0  0  0  0  0  0  0999 V2000
   -5.0596   23.4427  -25.8660 C   0  0  0  0  0  0  0  0  0  0  0  0
   -5.3855   23.0883  -24.5495 C   0  0  0  0  0  0  0  0  0  0  0  0
   -6.6479   23.3451  -24.0516 C   0  0  0  0  0  0  0  0  0  0  0  0
   -7.5309   23.9510  -24.9095 C   0  0  0  0  0  0  0  0  0  0  0  0
   -7.2050   24.2881  -26.1753 N   0  0  0  0  0  0  0  0  0  0  0  0
   -5.9652   24.0492  -26.7001 C   0  0  0  0  0  0  0  0  0  0  0  0
    0.0603   21.9877  -24.0230 C   0  0  0  0  0  0  0  0  0  0  0  0
   -0.1951   22.1805  -25.4625 C   0  0  0  0  0  0  0  0  0  0  0  0
    0.7317   22.0342  -26.4258 N   0  0  0  0  0  0  0  0  0  0  0  0
    0.1693   22.2800  -27.5960 N   0  0  0  0  0  0  0  0  0  0  0  0
   -1.1317   22.5884  -27.3936 C   0  0  0  0  0  0  0  0  0  0  0  0
   -2.1815   22.9264  -28.2270 C   0  0  0  0  0  0  0  0  0  0  0  0
   -3.4408   23.1977  -27.7234 C   0  0  0  0  0  0  0  0  0  0  0  0
   -3.7164   23.1471  -26.3775 C   0  0  0  0  0  0  0  0  0  0  0  0
   -2.6578   22.8070  -25.5500 C   0  0  0  0  0  0  0  0  0  0  0  0
   -1.3982   22.5335  -26.0332 C   0  0  0  0  0  0  0  0  0  0  0  0
    0.6402   22.2451  -28.5242 H   0  0  0  0  0  0  0  0  0  0  0  0
   -5.6469   24.4371  -28.0563 C   0  0  0  0  0  0  0  0  0  0  0  0
   -5.7634   23.5105  -29.0614 C   0  0  0  0  0  0  0  0  0  0  0  0
   -5.4868   23.7990  -30.3819 C   0  0  0  0  0  0  0  0  0  0  0  0
   -5.6300   22.7506  -31.4380 C   0  0  0  0  0  0  0  0  0  0  0  0
   -5.0774   25.0733  -30.6914 C   0  0  0  0  0  0  0  0  0  0  0  0
   -4.9425   26.0512  -29.7130 C   0  0  0  0  0  0  0  0  0  0  0  0
   -5.2367   25.7037  -28.3896 C   0  0  0  0  0  0  0  0  0  0  0  0
   -5.0956   26.6937  -27.4399 O   0  0  0  0  0  0  0  0  0  0  0  0
   -4.7980   27.6260  -27.6509 H   0  0  0  0  0  0  0  0  0  0  0  0
   -7.0075   22.9818  -22.7252 N   0  0  0  0  0  0  0  0  0  0  0  0
   -7.1780   21.9591  -22.4848 H   0  0  0  0  0  0  0  0  0  0  0  0
   -7.1569   23.9324  -21.6774 C   0  0  0  0  0  0  0  0  0  0  0  0
   -8.6220   24.1780  -21.4642 C   0  0  0  0  0  0  0  0  0  0  0  0
   -9.1934   25.2519  -22.1085 C   0  0  0  0  0  0  0  0  0  0  0  0
  -10.5500   25.5396  -21.9328 C   0  0  0  0  0  0  0  0  0  0  0  0
  -11.3123   24.7432  -21.1117 C   0  0  0  0  0  0  0  0  0  0  0  0
  -10.6968   23.6750  -20.4845 C   0  0  0  0  0  0  0  0  0  0  0  0
   -9.3610   23.3742  -20.6443 C   0  0  0  0  0  0  0  0  0  0  0  0
   -6.5571   25.2783  -22.0797 C   0  0  0  0  0  0  0  0  0  0  0  0
   -5.3781   25.4820  -21.3787 O   0  0  0  0  0  0  0  0  0  0  0  0
   -4.6466   25.7129  -21.9902 H   0  0  0  0  0  0  0  0  0  0  0  0
  7  8  1  0  0  0
  8  9  2  0  0  0
  9 10  1  0  0  0
 10 11  1  0  0  0
 11 12  2  0  0  0
 12 13  1  0  0  0
 13 14  2  0  0  0
 14 15  1  0  0  0
 15 16  2  0  0  0
 14  1  1  0  0  0
  1  2  2  0  0  0
  2  3  1  0  0  0
  3 27  1  0  0  0
 27 29  1  0  0  0
 29 36  1  0  0  0
 36 37  1  0  0  0
 29 30  1  0  0  0
 30 31  2  0  0  0
 31 32  1  0  0  0
 32 33  2  0  0  0
 33 34  1  0  0  0
 34 35  2  0  0  0
  3  4  2  0  0  0
  4  5  1  0  0  0
  5  6  2  0  0  0
  6 18  1  0  0  0
 18 19  2  0  0  0
 19 20  1  0  0  0
 20 21  1  0  0  0
 20 22  2  0  0  0
 22 23  1  0  0  0
 23 24  2  0  0  0
 24 25  1  0  0  0
 16  8  1  0  0  0
  6  1  1  0  0  0
 24 18  1  0  0  0
 16 11  1  0  0  0
 35 30  1  0  0  0
 10 17  1  0  0  0
 27 28  1  0  0  0
 37 38  1  0  0  0
 25 26  1  0  0  0
M  END
> <minimizedAffinity>
-10.52508

> <CNNscore>
0.5756527781

> <CNNaffinity>
7.4986853600

> <CNN_VS>
4.3166389465

> <CNNaffinity_variance>
0.1372833103

$$$$
[H]Oc1c([H])c([H])c(C([H])([H])[H])c([H])c1-c1nc([H])c(N([H])[C@]([H])(c2c([H])c([H])c([H])c([H])c2[H])C([H])([H])O[H])c([H])c1-c1c([H])c([H])c2c(c(C([H])([H])[H])nn2[H])c1[H]


 38 42  0  0  0  0  0  0  0  0999 V2000
   -5.4600   23.7739  -25.0974 C   0  0  0  0  0  0  0  0  0  0  0  0
   -5.9606   23.6982  -23.7902 C   0  0  0  0  0  0  0  0  0  0  0  0
   -7.2191   24.1860  -23.4974 C   0  0  0  0  0  0  0  0  0  0  0  0
   -7.9210   24.7310  -24.5428 C   0  0  0  0  0  0  0  0  0  0  0  0
   -7.4279   24.7987  -25.7975 N   0  0  0  0  0  0  0  0  0  0  0  0
   -6.1866   24.3263  -26.1224 C   0  0  0  0  0  0  0  0  0  0  0  0
   -1.5203   23.8841  -29.1216 C   0  0  0  0  0  0  0  0  0  0  0  0
   -1.3119   23.1085  -27.8849 C   0  0  0  0  0  0  0  0  0  0  0  0
   -0.2097   22.3862  -27.6166 N   0  0  0  0  0  0  0  0  0  0  0  0
   -0.3515   21.8213  -26.4305 N   0  0  0  0  0  0  0  0  0  0  0  0
   -1.5533   22.1778  -25.9231 C   0  0  0  0  0  0  0  0  0  0  0  0
   -2.2236   21.8956  -24.7476 C   0  0  0  0  0  0  0  0  0  0  0  0
   -3.4795   22.4163  -24.4932 C   0  0  0  0  0  0  0  0  0  0  0  0
   -4.1258   23.2362  -25.3875 C   0  0  0  0  0  0  0  0  0  0  0  0
   -3.4457   23.5137  -26.5629 C   0  0  0  0  0  0  0  0  0  0  0  0
   -2.1956   23.0048  -26.8331 C   0  0  0  0  0  0  0  0  0  0  0  0
    0.3402   21.2033  -25.9569 H   0  0  0  0  0  0  0  0  0  0  0  0
   -5.6849   24.4286  -27.4747 C   0  0  0  0  0  0  0  0  0  0  0  0
   -5.6499   23.3051  -28.2615 C   0  0  0  0  0  0  0  0  0  0  0  0
   -5.1936   23.3163  -29.5635 C   0  0  0  0  0  0  0  0  0  0  0  0
   -5.1768   22.0619  -30.3767 C   0  0  0  0  0  0  0  0  0  0  0  0
   -4.7576   24.5106  -30.0836 C   0  0  0  0  0  0  0  0  0  0  0  0
   -4.7711   25.6793  -29.3314 C   0  0  0  0  0  0  0  0  0  0  0  0
   -5.2446   25.6103  -28.0162 C   0  0  0  0  0  0  0  0  0  0  0  0
   -5.2480   26.7849  -27.2934 O   0  0  0  0  0  0  0  0  0  0  0  0
   -4.9331   27.6619  -27.6594 H   0  0  0  0  0  0  0  0  0  0  0  0
   -7.7551   24.1074  -22.1832 N   0  0  0  0  0  0  0  0  0  0  0  0
   -8.8092   24.0617  -22.0438 H   0  0  0  0  0  0  0  0  0  0  0  0
   -6.9409   24.0873  -21.0167 C   0  0  0  0  0  0  0  0  0  0  0  0
   -7.5953   23.2034  -19.9957 C   0  0  0  0  0  0  0  0  0  0  0  0
   -8.6222   22.3884  -20.4157 C   0  0  0  0  0  0  0  0  0  0  0  0
   -9.2804   21.5570  -19.5050 C   0  0  0  0  0  0  0  0  0  0  0  0
   -8.8966   21.5572  -18.1851 C   0  0  0  0  0  0  0  0  0  0  0  0
   -7.8602   22.3918  -17.8074 C   0  0  0  0  0  0  0  0  0  0  0  0
   -7.1982   23.2190  -18.6894 C   0  0  0  0  0  0  0  0  0  0  0  0
   -6.8658   25.4767  -20.3866 C   0  0  0  0  0  0  0  0  0  0  0  0
   -5.5695   25.9579  -20.4919 O   0  0  0  0  0  0  0  0  0  0  0  0
   -5.5637   26.8545  -20.8898 H   0  0  0  0  0  0  0  0  0  0  0  0
  7  8  1  0  0  0
  8  9  2  0  0  0
  9 10  1  0  0  0
 10 11  1  0  0  0
 11 12  2  0  0  0
 12 13  1  0  0  0
 13 14  2  0  0  0
 14 15  1  0  0  0
 15 16  2  0  0  0
 14  1  1  0  0  0
  1  2  2  0  0  0
  2  3  1  0  0  0
  3 27  1  0  0  0
 27 29  1  0  0  0
 29 36  1  0  0  0
 36 37  1  0  0  0
 29 30  1  0  0  0
 30 31  2  0  0  0
 31 32  1  0  0  0
 32 33  2  0  0  0
 33 34  1  0  0  0
 34 35  2  0  0  0
  3  4  2  0  0  0
  4  5  1  0  0  0
  5  6  2  0  0  0
  6 18  1  0  0  0
 18 19  2  0  0  0
 19 20  1  0  0  0
 20 21  1  0  0  0
 20 22  2  0  0  0
 22 23  1  0  0  0
 23 24  2  0  0  0
 24 25  1  0  0  0
 16  8  1  0  0  0
  6  1  1  0  0  0
 24 18  1  0  0  0
 16 11  1  0  0  0
 35 30  1  0  0  0
 10 17  1  0  0  0
 27 28  1  0  0  0
 37 38  1  0  0  0
 25 26  1  0  0  0
M  END
> <minimizedAffinity>
-9.41105

> <CNNscore>
0.5470039248

> <CNNaffinity>
7.3609228134

> <CNN_VS>
4.0264534950

> <CNNaffinity_variance>
0.1421781033

$$$$
[H]Oc1c([H])c([H])c(C([H])([H])[H])c([H])c1-c1nc([H])c(N([H])[C@]([H])(c2c([H])c([H])c([H])c([H])c2[H])C([H])([H])O[H])c([H])c1-c1c([H])c([H])c2c(c(C([H])([H])[H])nn2[H])c1[H]


 38 42  0  0  0  0  0  0  0  0999 V2000
   -4.6010   22.6265  -23.2370 C   0  0  0  0  0  0  0  0  0  0  0  0
   -4.9164   21.8959  -22.0829 C   0  0  0  0  0  0  0  0  0  0  0  0
   -6.1873   21.9573  -21.5458 C   0  0  0  0  0  0  0  0  0  0  0  0
   -7.0891   22.7573  -22.2010 C   0  0  0  0  0  0  0  0  0  0  0  0
   -6.7732   23.4567  -23.3115 N   0  0  0  0  0  0  0  0  0  0  0  0
   -5.5255   23.4195  -23.8696 C   0  0  0  0  0  0  0  0  0  0  0  0
   -1.9443   22.7738  -28.2016 C   0  0  0  0  0  0  0  0  0  0  0  0
   -1.1894   22.5861  -26.9489 C   0  0  0  0  0  0  0  0  0  0  0  0
    0.1454   22.4377  -26.8801 N   0  0  0  0  0  0  0  0  0  0  0  0
    0.4910   22.2922  -25.6130 N   0  0  0  0  0  0  0  0  0  0  0  0
   -0.6255   22.3461  -24.8519 C   0  0  0  0  0  0  0  0  0  0  0  0
   -0.8700   22.2558  -23.4943 C   0  0  0  0  0  0  0  0  0  0  0  0
   -2.1534   22.3489  -22.9871 C   0  0  0  0  0  0  0  0  0  0  0  0
   -3.2481   22.5345  -23.7977 C   0  0  0  0  0  0  0  0  0  0  0  0
   -2.9929   22.6242  -25.1571 C   0  0  0  0  0  0  0  0  0  0  0  0
   -1.7227   22.5341  -25.6798 C   0  0  0  0  0  0  0  0  0  0  0  0
    1.4581   22.1578  -25.2508 H   0  0  0  0  0  0  0  0  0  0  0  0
   -5.2188   24.1935  -25.0519 C   0  0  0  0  0  0  0  0  0  0  0  0
   -5.5073   23.6700  -26.2869 C   0  0  0  0  0  0  0  0  0  0  0  0
   -5.2540   24.3439  -27.4639 C   0  0  0  0  0  0  0  0  0  0  0  0
   -5.5881   23.7263  -28.7837 C   0  0  0  0  0  0  0  0  0  0  0  0
   -4.6875   25.5928  -27.3827 C   0  0  0  0  0  0  0  0  0  0  0  0
   -4.3749   26.1710  -26.1581 C   0  0  0  0  0  0  0  0  0  0  0  0
   -4.6537   25.4429  -24.9958 C   0  0  0  0  0  0  0  0  0  0  0  0
   -4.3345   26.0412  -23.7949 O   0  0  0  0  0  0  0  0  0  0  0  0
   -3.9213   26.9500  -23.7208 H   0  0  0  0  0  0  0  0  0  0  0  0
   -6.5360   21.2142  -20.3852 N   0  0  0  0  0  0  0  0  0  0  0  0
   -6.2485   20.1926  -20.3051 H   0  0  0  0  0  0  0  0  0  0  0  0
   -7.2665   21.7737  -19.3003 C   0  0  0  0  0  0  0  0  0  0  0  0
   -6.2963   22.4321  -18.3636 C   0  0  0  0  0  0  0  0  0  0  0  0
   -6.5236   23.7464  -18.0233 C   0  0  0  0  0  0  0  0  0  0  0  0
   -5.6431   24.4162  -17.1688 C   0  0  0  0  0  0  0  0  0  0  0  0
   -4.5468   23.7545  -16.6690 C   0  0  0  0  0  0  0  0  0  0  0  0
   -4.3576   22.4348  -17.0373 C   0  0  0  0  0  0  0  0  0  0  0  0
   -5.2137   21.7563  -17.8783 C   0  0  0  0  0  0  0  0  0  0  0  0
   -7.9568   20.6772  -18.4914 C   0  0  0  0  0  0  0  0  0  0  0  0
   -7.8997   19.4839  -19.1955 O   0  0  0  0  0  0  0  0  0  0  0  0
   -7.5406   18.7657  -18.6321 H   0  0  0  0  0  0  0  0  0  0  0  0
  7  8  1  0  0  0
  8  9  2  0  0  0
  9 10  1  0  0  0
 10 11  1  0  0  0
 11 12  2  0  0  0
 12 13  1  0  0  0
 13 14  2  0  0  0
 14 15  1  0  0  0
 15 16  2  0  0  0
 14  1  1  0  0  0
  1  2  2  0  0  0
  2  3  1  0  0  0
  3 27  1  0  0  0
 27 29  1  0  0  0
 29 36  1  0  0  0
 36 37  1  0  0  0
 29 30  1  0  0  0
 30 31  2  0  0  0
 31 32  1  0  0  0
 32 33  2  0  0  0
 33 34  1  0  0  0
 34 35  2  0  0  0
  3  4  2  0  0  0
  4  5  1  0  0  0
  5  6  2  0  0  0
  6 18  1  0  0  0
 18 19  2  0  0  0
 19 20  1  0  0  0
 20 21  1  0  0  0
 20 22  2  0  0  0
 22 23  1  0  0  0
 23 24  2  0  0  0
 24 25  1  0  0  0
 16  8  1  0  0  0
  6  1  1  0  0  0
 24 18  1  0  0  0
 16 11  1  0  0  0
 35 30  1  0  0  0
 10 17  1  0  0  0
 27 28  1  0  0  0
 37 38  1  0  0  0
 25 26  1  0  0  0
M  END
> <minimizedAffinity>
-9.12093

> <CNNscore>
0.3700248599

> <CNNaffinity>
6.9139099121

> <CNN_VS>
2.5583186150

> <CNNaffinity_variance>
0.0808954984

$$$$
[H]Oc1c([H])c([H])c(C([H])([H])[H])c([H])c1-c1nc([H])c(N([H])[C@]([H])(c2c([H])c([H])c([H])c([H])c2[H])C([H])([H])O[H])c([H])c1-c1c([H])c([H])c2c(c(C([H])([H])[H])nn2[H])c1[H]


 38 42  0  0  0  0  0  0  0  0999 V2000
   -2.5187   22.2910  -23.6152 C   0  0  0  0  0  0  0  0  0  0  0  0
   -2.5893   21.9412  -22.2596 C   0  0  0  0  0  0  0  0  0  0  0  0
   -1.5133   21.3370  -21.6395 C   0  0  0  0  0  0  0  0  0  0  0  0
   -0.4070   21.1117  -22.4193 C   0  0  0  0  0  0  0  0  0  0  0  0
   -0.3511   21.4525  -23.7241 N   0  0  0  0  0  0  0  0  0  0  0  0
   -1.3973   22.0513  -24.3695 C   0  0  0  0  0  0  0  0  0  0  0  0
   -4.2380   27.3926  -25.2719 C   0  0  0  0  0  0  0  0  0  0  0  0
   -5.1007   26.2109  -25.4554 C   0  0  0  0  0  0  0  0  0  0  0  0
   -6.3254   26.2419  -26.0102 N   0  0  0  0  0  0  0  0  0  0  0  0
   -6.8176   25.0157  -26.0197 N   0  0  0  0  0  0  0  0  0  0  0  0
   -5.9081   24.1809  -25.4677 C   0  0  0  0  0  0  0  0  0  0  0  0
   -5.8759   22.8215  -25.2189 C   0  0  0  0  0  0  0  0  0  0  0  0
   -4.7790   22.2252  -24.6235 C   0  0  0  0  0  0  0  0  0  0  0  0
   -3.6693   22.9449  -24.2489 C   0  0  0  0  0  0  0  0  0  0  0  0
   -3.7108   24.3069  -24.5028 C   0  0  0  0  0  0  0  0  0  0  0  0
   -4.7933   24.9175  -25.0944 C   0  0  0  0  0  0  0  0  0  0  0  0
   -7.7488   24.7295  -26.3879 H   0  0  0  0  0  0  0  0  0  0  0  0
   -1.3073   22.3896  -25.7725 C   0  0  0  0  0  0  0  0  0  0  0  0
   -2.4400   22.3428  -26.5454 C   0  0  0  0  0  0  0  0  0  0  0  0
   -2.4435   22.6566  -27.8890 C   0  0  0  0  0  0  0  0  0  0  0  0
   -3.7071   22.5884  -28.6850 C   0  0  0  0  0  0  0  0  0  0  0  0
   -1.2546   23.0306  -28.4668 C   0  0  0  0  0  0  0  0  0  0  0  0
   -0.0773   23.0953  -27.7309 C   0  0  0  0  0  0  0  0  0  0  0  0
   -0.1315   22.7665  -26.3716 C   0  0  0  0  0  0  0  0  0  0  0  0
    1.0509   22.8406  -25.6656 O   0  0  0  0  0  0  0  0  0  0  0  0
    1.9242   23.1111  -26.0736 H   0  0  0  0  0  0  0  0  0  0  0  0
   -1.5547   20.9865  -20.2625 N   0  0  0  0  0  0  0  0  0  0  0  0
   -2.0970   20.1250  -19.9522 H   0  0  0  0  0  0  0  0  0  0  0  0
   -0.8968   21.7425  -19.2529 C   0  0  0  0  0  0  0  0  0  0  0  0
   -1.7848   21.7949  -18.0442 C   0  0  0  0  0  0  0  0  0  0  0  0
   -2.9859   22.4577  -18.1581 C   0  0  0  0  0  0  0  0  0  0  0  0
   -3.8454   22.5539  -17.0599 C   0  0  0  0  0  0  0  0  0  0  0  0
   -3.4846   21.9822  -15.8630 C   0  0  0  0  0  0  0  0  0  0  0  0
   -2.2688   21.3262  -15.7939 C   0  0  0  0  0  0  0  0  0  0  0  0
   -1.4071   21.2200  -16.8647 C   0  0  0  0  0  0  0  0  0  0  0  0
   -0.7064   23.1905  -19.7002 C   0  0  0  0  0  0  0  0  0  0  0  0
    0.3351   23.7585  -18.9820 O   0  0  0  0  0  0  0  0  0  0  0  0
    0.9870   24.1735  -19.5862 H   0  0  0  0  0  0  0  0  0  0  0  0
  7  8  1  0  0  0
  8  9  2  0  0  0
  9 10  1  0  0  0
 10 11  1  0  0  0
 11 12  2  0  0  0
 12 13  1  0  0  0
 13 14  2  0  0  0
 14 15  1  0  0  0
 15 16  2  0  0  0
 14  1  1  0  0  0
  1  2  2  0  0  0
  2  3  1  0  0  0
  3 27  1  0  0  0
 27 29  1  0  0  0
 29 36  1  0  0  0
 36 37  1  0  0  0
 29 30  1  0  0  0
 30 31  2  0  0  0
 31 32  1  0  0  0
 32 33  2  0  0  0
 33 34  1  0  0  0
 34 35  2  0  0  0
  3  4  2  0  0  0
  4  5  1  0  0  0
  5  6  2  0  0  0
  6 18  1  0  0  0
 18 19  2  0  0  0
 19 20  1  0  0  0
 20 21  1  0  0  0
 20 22  2  0  0  0
 22 23  1  0  0  0
 23 24  2  0  0  0
 24 25  1  0  0  0
 16  8  1  0  0  0
  6  1  1  0  0  0
 24 18  1  0  0  0
 16 11  1  0  0  0
 35 30  1  0  0  0
 10 17  1  0  0  0
 27 28  1  0  0  0
 37 38  1  0  0  0
 25 26  1  0  0  0
M  END
> <minimizedAffinity>
-9.38092

> <CNNscore>
0.3036257625

> <CNNaffinity>
6.8921265602

> <CNN_VS>
2.0926272869

> <CNNaffinity_variance>
0.0747940391

$$$$
[H]Oc1c([H])c([H])c(C([H])([H])[H])c([H])c1-c1nc([H])c(N([H])[C@]([H])(c2c([H])c([H])c([H])c([H])c2[H])C([H])([H])O[H])c([H])c1-c1c([H])c([H])c2c(c(C([H])([H])[H])nn2[H])c1[H]


 38 42  0  0  0  0  0  0  0  0999 V2000
   -1.9970   22.0014  -23.8985 C   0  0  0  0  0  0  0  0  0  0  0  0
   -1.0668   21.4324  -23.0175 C   0  0  0  0  0  0  0  0  0  0  0  0
    0.2847   21.4986  -23.2941 C   0  0  0  0  0  0  0  0  0  0  0  0
    0.6398   22.1402  -24.4539 C   0  0  0  0  0  0  0  0  0  0  0  0
   -0.2655   22.6837  -25.2947 N   0  0  0  0  0  0  0  0  0  0  0  0
   -1.6103   22.6361  -25.0523 C   0  0  0  0  0  0  0  0  0  0  0  0
   -5.7575   24.2304  -20.3464 C   0  0  0  0  0  0  0  0  0  0  0  0
   -6.1690   23.2293  -21.3478 C   0  0  0  0  0  0  0  0  0  0  0  0
   -7.4259   22.7752  -21.4974 N   0  0  0  0  0  0  0  0  0  0  0  0
   -7.4432   21.8914  -22.4796 N   0  0  0  0  0  0  0  0  0  0  0  0
   -6.1899   21.7692  -22.9727 C   0  0  0  0  0  0  0  0  0  0  0  0
   -5.6218   21.0121  -23.9802 C   0  0  0  0  0  0  0  0  0  0  0  0
   -4.2718   21.0968  -24.2691 C   0  0  0  0  0  0  0  0  0  0  0  0
   -3.4269   21.9311  -23.5764 C   0  0  0  0  0  0  0  0  0  0  0  0
   -4.0058   22.6865  -22.5687 C   0  0  0  0  0  0  0  0  0  0  0  0
   -5.3470   22.6155  -22.2672 C   0  0  0  0  0  0  0  0  0  0  0  0
   -8.2768   21.3707  -22.8238 H   0  0  0  0  0  0  0  0  0  0  0  0
   -2.5525   23.2169  -25.9829 C   0  0  0  0  0  0  0  0  0  0  0  0
   -3.3608   24.2429  -25.5630 C   0  0  0  0  0  0  0  0  0  0  0  0
   -4.2807   24.8573  -26.3875 C   0  0  0  0  0  0  0  0  0  0  0  0
   -5.1374   25.9715  -25.8779 C   0  0  0  0  0  0  0  0  0  0  0  0
   -4.3828   24.4132  -27.6834 C   0  0  0  0  0  0  0  0  0  0  0  0
   -3.5887   23.3775  -28.1616 C   0  0  0  0  0  0  0  0  0  0  0  0
   -2.6721   22.7905  -27.2819 C   0  0  0  0  0  0  0  0  0  0  0  0
   -1.8964   21.7663  -27.7833 O   0  0  0  0  0  0  0  0  0  0  0  0
   -1.9603   21.4323  -28.7249 H   0  0  0  0  0  0  0  0  0  0  0  0
    1.2485   20.9428  -22.4094 N   0  0  0  0  0  0  0  0  0  0  0  0
    2.1934   20.6295  -22.7858 H   0  0  0  0  0  0  0  0  0  0  0  0
    1.0133   20.7771  -21.0161 C   0  0  0  0  0  0  0  0  0  0  0  0
    2.1797   21.3508  -20.2660 C   0  0  0  0  0  0  0  0  0  0  0  0
    1.9154   22.0839  -19.1312 C   0  0  0  0  0  0  0  0  0  0  0  0
    2.9614   22.6571  -18.4024 C   0  0  0  0  0  0  0  0  0  0  0  0
    4.2580   22.4848  -18.8251 C   0  0  0  0  0  0  0  0  0  0  0  0
    4.4771   21.7408  -19.9704 C   0  0  0  0  0  0  0  0  0  0  0  0
    3.4601   21.1673  -20.7033 C   0  0  0  0  0  0  0  0  0  0  0  0
    0.9627   19.2952  -20.6494 C   0  0  0  0  0  0  0  0  0  0  0  0
   -0.3603   18.9005  -20.5198 O   0  0  0  0  0  0  0  0  0  0  0  0
   -0.5381   18.1012  -21.0598 H   0  0  0  0  0  0  0  0  0  0  0  0
  7  8  1  0  0  0
  8  9  2  0  0  0
  9 10  1  0  0  0
 10 11  1  0  0  0
 11 12  2  0  0  0
 12 13  1  0  0  0
 13 14  2  0  0  0
 14 15  1  0  0  0
 15 16  2  0  0  0
 14  1  1  0  0  0
  1  2  2  0  0  0
  2  3  1  0  0  0
  3 27  1  0  0  0
 27 29  1  0  0  0
 29 36  1  0  0  0
 36 37  1  0  0  0
 29 30  1  0  0  0
 30 31  2  0  0  0
 31 32  1  0  0  0
 32 33  2  0  0  0
 33 34  1  0  0  0
 34 35  2  0  0  0
  3  4  2  0  0  0
  4  5  1  0  0  0
  5  6  2  0  0  0
  6 18  1  0  0  0
 18 19  2  0  0  0
 19 20  1  0  0  0
 20 21  1  0  0  0
 20 22  2  0  0  0
 22 23  1  0  0  0
 23 24  2  0  0  0
 24 25  1  0  0  0
 16  8  1  0  0  0
  6  1  1  0  0  0
 24 18  1  0  0  0
 16 11  1  0  0  0
 35 30  1  0  0  0
 10 17  1  0  0  0
 27 28  1  0  0  0
 37 38  1  0  0  0
 25 26  1  0  0  0
M  END
> <minimizedAffinity>
-8.34887

> <CNNscore>
0.2474347651

> <CNNaffinity>
6.7523193359

> <CNN_VS>
1.6707586050

> <CNNaffinity_variance>
0.2772513926

$$$$
[H]Oc1c([H])c([H])c(C([H])([H])[H])c([H])c1-c1nc([H])c(N([H])[C@]([H])(c2c([H])c([H])c([H])c([H])c2[H])C([H])([H])O[H])c([H])c1-c1c([H])c([H])c2c(c(C([H])([H])[H])nn2[H])c1[H]


 38 42  0  0  0  0  0  0  0  0999 V2000
   -3.3097   22.6972  -23.0137 C   0  0  0  0  0  0  0  0  0  0  0  0
   -2.5454   21.7512  -22.3165 C   0  0  0  0  0  0  0  0  0  0  0  0
   -2.5888   21.7011  -20.9371 C   0  0  0  0  0  0  0  0  0  0  0  0
   -3.4068   22.6127  -20.3185 C   0  0  0  0  0  0  0  0  0  0  0  0
   -4.1378   23.5194  -21.0008 N   0  0  0  0  0  0  0  0  0  0  0  0
   -4.1183   23.5973  -22.3658 C   0  0  0  0  0  0  0  0  0  0  0  0
    0.4220   23.0590  -27.2173 C   0  0  0  0  0  0  0  0  0  0  0  0
   -1.0212   22.9496  -27.4990 C   0  0  0  0  0  0  0  0  0  0  0  0
   -1.5560   22.9285  -28.7327 N   0  0  0  0  0  0  0  0  0  0  0  0
   -2.8687   22.8229  -28.6240 N   0  0  0  0  0  0  0  0  0  0  0  0
   -3.1909   22.7750  -27.3115 C   0  0  0  0  0  0  0  0  0  0  0  0
   -4.3808   22.6690  -26.6159 C   0  0  0  0  0  0  0  0  0  0  0  0
   -4.4056   22.6437  -25.2332 C   0  0  0  0  0  0  0  0  0  0  0  0
   -3.2584   22.7222  -24.4799 C   0  0  0  0  0  0  0  0  0  0  0  0
   -2.0704   22.8277  -25.1862 C   0  0  0  0  0  0  0  0  0  0  0  0
   -2.0263   22.8542  -26.5617 C   0  0  0  0  0  0  0  0  0  0  0  0
   -3.5497   22.7827  -29.4108 H   0  0  0  0  0  0  0  0  0  0  0  0
   -4.9038   24.5914  -23.0630 C   0  0  0  0  0  0  0  0  0  0  0  0
   -4.2644   25.5233  -23.8409 C   0  0  0  0  0  0  0  0  0  0  0  0
   -4.9377   26.5007  -24.5444 C   0  0  0  0  0  0  0  0  0  0  0  0
   -4.1909   27.4926  -25.3772 C   0  0  0  0  0  0  0  0  0  0  0  0
   -6.3081   26.5320  -24.4539 C   0  0  0  0  0  0  0  0  0  0  0  0
   -7.0067   25.6122  -23.6807 C   0  0  0  0  0  0  0  0  0  0  0  0
   -6.2732   24.6421  -22.9883 C   0  0  0  0  0  0  0  0  0  0  0  0
   -6.9919   23.7416  -22.2302 O   0  0  0  0  0  0  0  0  0  0  0  0
   -7.9902   23.7528  -22.1548 H   0  0  0  0  0  0  0  0  0  0  0  0
   -1.8349   20.7415  -20.2081 N   0  0  0  0  0  0  0  0  0  0  0  0
   -1.5720   19.8172  -20.6654 H   0  0  0  0  0  0  0  0  0  0  0  0
   -1.4036   20.9533  -18.8690 C   0  0  0  0  0  0  0  0  0  0  0  0
    0.0054   21.4691  -18.8997 C   0  0  0  0  0  0  0  0  0  0  0  0
    0.8607   20.9449  -19.8423 C   0  0  0  0  0  0  0  0  0  0  0  0
    2.1893   21.3747  -19.9058 C   0  0  0  0  0  0  0  0  0  0  0  0
    2.6386   22.3253  -19.0204 C   0  0  0  0  0  0  0  0  0  0  0  0
    1.7447   22.8245  -18.0903 C   0  0  0  0  0  0  0  0  0  0  0  0
    0.4310   22.4143  -18.0109 C   0  0  0  0  0  0  0  0  0  0  0  0
   -1.3535   19.6330  -18.1026 C   0  0  0  0  0  0  0  0  0  0  0  0
   -2.4217   19.5749  -17.2202 O   0  0  0  0  0  0  0  0  0  0  0  0
   -2.9190   18.7369  -17.3326 H   0  0  0  0  0  0  0  0  0  0  0  0
  7  8  1  0  0  0
  8  9  2  0  0  0
  9 10  1  0  0  0
 10 11  1  0  0  0
 11 12  2  0  0  0
 12 13  1  0  0  0
 13 14  2  0  0  0
 14 15  1  0  0  0
 15 16  2  0  0  0
 14  1  1  0  0  0
  1  2  2  0  0  0
  2  3  1  0  0  0
  3 27  1  0  0  0
 27 29  1  0  0  0
 29 36  1  0  0  0
 36 37  1  0  0  0
 29 30  1  0  0  0
 30 31  2  0  0  0
 31 32  1  0  0  0
 32 33  2  0  0  0
 33 34  1  0  0  0
 34 35  2  0  0  0
  3  4  2  0  0  0
  4  5  1  0  0  0
  5  6  2  0  0  0
  6 18  1  0  0  0
 18 19  2  0  0  0
 19 20  1  0  0  0
 20 21  1  0  0  0
 20 22  2  0  0  0
 22 23  1  0  0  0
 23 24  2  0  0  0
 24 25  1  0  0  0
 16  8  1  0  0  0
  6  1  1  0  0  0
 24 18  1  0  0  0
 16 11  1  0  0  0
 35 30  1  0  0  0
 10 17  1  0  0  0
 27 28  1  0  0  0
 37 38  1  0  0  0
 25 26  1  0  0  0
M  END
> <minimizedAffinity>
-8.43980

> <CNNscore>
0.1962678283

> <CNNaffinity>
6.5769758224

> <CNN_VS>
1.2908487320

> <CNNaffinity_variance>
0.2502920330

$$$$
[H]Oc1c([H])c([H])c(C([H])([H])[H])c([H])c1-c1nc([H])c(N([H])[C@]([H])(c2c([H])c([H])c([H])c([H])c2[H])C([H])([H])O[H])c([H])c1-c1c([H])c([H])c2c(c(C([H])([H])[H])nn2[H])c1[H]


 38 42  0  0  0  0  0  0  0  0999 V2000
   -2.7620   22.5550  -23.2720 C   0  0  0  0  0  0  0  0  0  0  0  0
   -1.9231   21.6385  -22.6229 C   0  0  0  0  0  0  0  0  0  0  0  0
   -1.9368   21.5366  -21.2456 C   0  0  0  0  0  0  0  0  0  0  0  0
   -2.8019   22.3684  -20.5805 C   0  0  0  0  0  0  0  0  0  0  0  0
   -3.6046   23.2475  -21.2168 N   0  0  0  0  0  0  0  0  0  0  0  0
   -3.6164   23.3750  -22.5781 C   0  0  0  0  0  0  0  0  0  0  0  0
   -6.2277   23.4683  -27.6174 C   0  0  0  0  0  0  0  0  0  0  0  0
   -4.7942   23.2037  -27.8401 C   0  0  0  0  0  0  0  0  0  0  0  0
   -4.2084   23.1569  -29.0497 N   0  0  0  0  0  0  0  0  0  0  0  0
   -2.9224   22.8995  -28.8882 N   0  0  0  0  0  0  0  0  0  0  0  0
   -2.6691   22.7780  -27.5653 C   0  0  0  0  0  0  0  0  0  0  0  0
   -1.5323   22.5176  -26.8231 C   0  0  0  0  0  0  0  0  0  0  0  0
   -1.5751   22.4497  -25.4423 C   0  0  0  0  0  0  0  0  0  0  0  0
   -2.7403   22.6355  -24.7370 C   0  0  0  0  0  0  0  0  0  0  0  0
   -3.8745   22.8964  -25.4897 C   0  0  0  0  0  0  0  0  0  0  0  0
   -3.8510   22.9679  -26.8642 C   0  0  0  0  0  0  0  0  0  0  0  0
   -2.2143   22.8041  -29.6458 H   0  0  0  0  0  0  0  0  0  0  0  0
   -4.4795   24.3380  -23.2252 C   0  0  0  0  0  0  0  0  0  0  0  0
   -3.9205   25.4308  -23.8383 C   0  0  0  0  0  0  0  0  0  0  0  0
   -4.6701   26.3924  -24.4840 C   0  0  0  0  0  0  0  0  0  0  0  0
   -4.0093   27.5643  -25.1358 C   0  0  0  0  0  0  0  0  0  0  0  0
   -6.0350   26.2381  -24.5070 C   0  0  0  0  0  0  0  0  0  0  0  0
   -6.6538   25.1504  -23.9022 C   0  0  0  0  0  0  0  0  0  0  0  0
   -5.8449   24.2049  -23.2616 C   0  0  0  0  0  0  0  0  0  0  0  0
   -6.4853   23.1355  -22.6713 O   0  0  0  0  0  0  0  0  0  0  0  0
   -7.4785   23.0105  -22.6800 H   0  0  0  0  0  0  0  0  0  0  0  0
   -1.1068   20.6047  -20.5650 N   0  0  0  0  0  0  0  0  0  0  0  0
   -1.5455   19.7813  -20.0528 H   0  0  0  0  0  0  0  0  0  0  0  0
    0.3110   20.7155  -20.5288 C   0  0  0  0  0  0  0  0  0  0  0  0
    0.8999   19.3536  -20.7540 C   0  0  0  0  0  0  0  0  0  0  0  0
    2.2105   19.2813  -21.1688 C   0  0  0  0  0  0  0  0  0  0  0  0
    2.8061   18.0402  -21.4115 C   0  0  0  0  0  0  0  0  0  0  0  0
    2.0751   16.8898  -21.2336 C   0  0  0  0  0  0  0  0  0  0  0  0
    0.7620   17.0095  -20.8158 C   0  0  0  0  0  0  0  0  0  0  0  0
    0.1560   18.2233  -20.5710 C   0  0  0  0  0  0  0  0  0  0  0  0
    0.7832   21.1562  -19.1447 C   0  0  0  0  0  0  0  0  0  0  0  0
    0.9906   22.5274  -19.1467 O   0  0  0  0  0  0  0  0  0  0  0  0
    0.5154   22.9510  -18.4004 H   0  0  0  0  0  0  0  0  0  0  0  0
  7  8  1  0  0  0
  8  9  2  0  0  0
  9 10  1  0  0  0
 10 11  1  0  0  0
 11 12  2  0  0  0
 12 13  1  0  0  0
 13 14  2  0  0  0
 14 15  1  0  0  0
 15 16  2  0  0  0
 14  1  1  0  0  0
  1  2  2  0  0  0
  2  3  1  0  0  0
  3 27  1  0  0  0
 27 29  1  0  0  0
 29 36  1  0  0  0
 36 37  1  0  0  0
 29 30  1  0  0  0
 30 31  2  0  0  0
 31 32  1  0  0  0
 32 33  2  0  0  0
 33 34  1  0  0  0
 34 35  2  0  0  0
  3  4  2  0  0  0
  4  5  1  0  0  0
  5  6  2  0  0  0
  6 18  1  0  0  0
 18 19  2  0  0  0
 19 20  1  0  0  0
 20 21  1  0  0  0
 20 22  2  0  0  0
 22 23  1  0  0  0
 23 24  2  0  0  0
 24 25  1  0  0  0
 16  8  1  0  0  0
  6  1  1  0  0  0
 24 18  1  0  0  0
 16 11  1  0  0  0
 35 30  1  0  0  0
 10 17  1  0  0  0
 27 28  1  0  0  0
 37 38  1  0  0  0
 25 26  1  0  0  0
M  END
> <minimizedAffinity>
-8.87869

> <CNNscore>
0.1408652961

> <CNNaffinity>
6.3237061501

> <CNN_VS>
0.8907907605

> <CNNaffinity_variance>
0.2012275755

$$$$
[H]c1nc2c([H])c(OC([H])([H])C3(N([H])[H])C([H])([H])C3([H])[H])c(OC([H])([H])[H])c([H])c2c(Oc2c([H])c([H])c3c(C(=O)N([H])C([H])([H])[H])c([H])c([H])c([H])c3c2[H])c1[H]


 36 40  0  0  0  0  0  0  0  0999 V2000
   -2.8477   22.2267  -26.4095 C   0  0  0  0  0  0  0  0  0  0  0  0
   -2.7802   22.7146  -27.7256 C   0  0  0  0  0  0  0  0  0  0  0  0
   -1.5437   23.0905  -28.2217 C   0  0  0  0  0  0  0  0  0  0  0  0
   -0.4139   23.0114  -27.5119 N   0  0  0  0  0  0  0  0  0  0  0  0
   -0.4603   22.5405  -26.2358 C   0  0  0  0  0  0  0  0  0  0  0  0
    0.7063   22.4490  -25.4819 C   0  0  0  0  0  0  0  0  0  0  0  0
    0.7021   21.9718  -24.1750 C   0  0  0  0  0  0  0  0  0  0  0  0
   -0.5038   21.5837  -23.6304 C   0  0  0  0  0  0  0  0  0  0  0  0
   -1.6752   21.6796  -24.3987 C   0  0  0  0  0  0  0  0  0  0  0  0
   -1.6355   22.1540  -25.6825 C   0  0  0  0  0  0  0  0  0  0  0  0
   -0.5020   21.1098  -22.3297 O   0  0  0  0  0  0  0  0  0  0  0  0
   -1.0087   21.9786  -21.3284 C   0  0  0  0  0  0  0  0  0  0  0  0
   -3.9238   21.8271  -25.7702 O   0  0  0  0  0  0  0  0  0  0  0  0
   -7.7566   23.5322  -22.1792 C   0  0  0  0  0  0  0  0  0  0  0  0
   -8.4752   24.7229  -22.4346 C   0  0  0  0  0  0  0  0  0  0  0  0
   -8.1704   25.4231  -23.5607 C   0  0  0  0  0  0  0  0  0  0  0  0
   -7.1881   24.9725  -24.4186 C   0  0  0  0  0  0  0  0  0  0  0  0
   -6.4835   23.8131  -24.1816 C   0  0  0  0  0  0  0  0  0  0  0  0
   -5.5393   23.3627  -25.0467 C   0  0  0  0  0  0  0  0  0  0  0  0
   -4.8165   22.1487  -24.8472 C   0  0  0  0  0  0  0  0  0  0  0  0
   -5.1345   21.4434  -23.7101 C   0  0  0  0  0  0  0  0  0  0  0  0
   -6.0827   21.9037  -22.8459 C   0  0  0  0  0  0  0  0  0  0  0  0
   -6.7813   23.0768  -23.0297 C   0  0  0  0  0  0  0  0  0  0  0  0
   -7.5814   22.6209  -18.4616 C   0  0  0  0  0  0  0  0  0  0  0  0
   -7.3547   23.2716  -19.7360 N   0  0  0  0  0  0  0  0  0  0  0  0
   -8.0049   22.8615  -20.9156 C   0  0  0  0  0  0  0  0  0  0  0  0
   -8.8386   21.8882  -20.8814 O   0  0  0  0  0  0  0  0  0  0  0  0
   -6.7040   24.0784  -19.7539 H   0  0  0  0  0  0  0  0  0  0  0  0
    1.8813   21.8896  -23.4418 O   0  0  0  0  0  0  0  0  0  0  0  0
    2.7575   20.8073  -23.5070 C   0  0  0  0  0  0  0  0  0  0  0  0
    3.2513   20.3509  -22.1720 C   0  0  0  0  0  0  0  0  0  0  0  0
    3.8680   21.3859  -21.3348 N   0  0  0  0  0  0  0  0  0  0  0  0
    2.5808   19.2604  -21.4071 C   0  0  0  0  0  0  0  0  0  0  0  0
    3.9418   19.0213  -22.0523 C   0  0  0  0  0  0  0  0  0  0  0  0
    4.6916   21.8141  -21.8467 H   0  0  0  0  0  0  0  0  0  0  0  0
    3.1685   22.1583  -21.1850 H   0  0  0  0  0  0  0  0  0  0  0  0
 24 25  1  0  0  0
 25 26  1  0  0  0
 26 27  2  0  0  0
 26 14  1  0  0  0
 14 15  2  0  0  0
 15 16  1  0  0  0
 16 17  2  0  0  0
 17 18  1  0  0  0
 18 19  2  0  0  0
 19 20  1  0  0  0
 20 13  1  0  0  0
 13  1  1  0  0  0
  1  2  2  0  0  0
  2  3  1  0  0  0
  3  4  2  0  0  0
  4  5  1  0  0  0
  5  6  2  0  0  0
  6  7  1  0  0  0
  7 29  1  0  0  0
 29 30  1  0  0  0
 30 31  1  0  0  0
 31 32  1  0  0  0
 31 33  1  0  0  0
 33 34  1  0  0  0
  7  8  2  0  0  0
  8 11  1  0  0  0
 11 12  1  0  0  0
  8  9  1  0  0  0
  9 10  2  0  0  0
 20 21  2  0  0  0
 21 22  1  0  0  0
 22 23  2  0  0  0
 23 14  1  0  0  0
 23 18  1  0  0  0
 10  1  1  0  0  0
 10  5  1  0  0  0
 34 31  1  0  0  0
 25 28  1  0  0  0
 32 35  1  0  0  0
 32 36  1  0  0  0
M  END
> <minimizedAffinity>
-8.79445

> <CNNscore>
0.7712611556

> <CNNaffinity>
6.8592901230

> <CNN_VS>
5.2903041840

> <CNNaffinity_variance>
0.0377623551

$$$$
[H]c1nc2c([H])c(OC([H])([H])C3(N([H])[H])C([H])([H])C3([H])[H])c(OC([H])([H])[H])c([H])c2c(Oc2c([H])c([H])c3c(C(=O)N([H])C([H])([H])[H])c([H])c([H])c([H])c3c2[H])c1[H]


 36 40  0  0  0  0  0  0  0  0999 V2000
   -0.7504   22.4209  -25.8076 C   0  0  0  0  0  0  0  0  0  0  0  0
    0.4444   22.4491  -26.5468 C   0  0  0  0  0  0  0  0  0  0  0  0
    0.3686   22.7139  -27.9035 C   0  0  0  0  0  0  0  0  0  0  0  0
   -0.7825   22.9443  -28.5424 N   0  0  0  0  0  0  0  0  0  0  0  0
   -1.9494   22.9218  -27.8423 C   0  0  0  0  0  0  0  0  0  0  0  0
   -3.1578   23.1614  -28.4903 C   0  0  0  0  0  0  0  0  0  0  0  0
   -4.3719   23.1490  -27.8110 C   0  0  0  0  0  0  0  0  0  0  0  0
   -4.3546   22.8896  -26.4567 C   0  0  0  0  0  0  0  0  0  0  0  0
   -3.1306   22.6491  -25.8119 C   0  0  0  0  0  0  0  0  0  0  0  0
   -1.9534   22.6688  -26.5108 C   0  0  0  0  0  0  0  0  0  0  0  0
   -5.5655   22.8783  -25.7860 O   0  0  0  0  0  0  0  0  0  0  0  0
   -5.6204   22.1472  -24.5709 C   0  0  0  0  0  0  0  0  0  0  0  0
   -0.8771   22.1857  -24.5211 O   0  0  0  0  0  0  0  0  0  0  0  0
    1.7875   19.7731  -20.3293 C   0  0  0  0  0  0  0  0  0  0  0  0
    3.1996   19.7013  -20.3456 C   0  0  0  0  0  0  0  0  0  0  0  0
    3.8523   20.2165  -21.4227 C   0  0  0  0  0  0  0  0  0  0  0  0
    3.1447   20.7892  -22.4596 C   0  0  0  0  0  0  0  0  0  0  0  0
    1.7697   20.8671  -22.4534 C   0  0  0  0  0  0  0  0  0  0  0  0
    1.0842   21.4588  -23.4647 C   0  0  0  0  0  0  0  0  0  0  0  0
   -0.3371   21.5858  -23.4721 C   0  0  0  0  0  0  0  0  0  0  0  0
   -0.9892   21.0683  -22.3773 C   0  0  0  0  0  0  0  0  0  0  0  0
   -0.2933   20.4744  -21.3670 C   0  0  0  0  0  0  0  0  0  0  0  0
    1.0782   20.3443  -21.3552 C   0  0  0  0  0  0  0  0  0  0  0  0
    0.0240   17.0752  -18.2573 C   0  0  0  0  0  0  0  0  0  0  0  0
    0.7132   17.7609  -19.3314 N   0  0  0  0  0  0  0  0  0  0  0  0
    1.0988   19.1118  -19.2354 C   0  0  0  0  0  0  0  0  0  0  0  0
    0.8514   19.7733  -18.1656 O   0  0  0  0  0  0  0  0  0  0  0  0
    0.9398   17.2142  -20.1824 H   0  0  0  0  0  0  0  0  0  0  0  0
   -5.5667   23.3916  -28.4807 O   0  0  0  0  0  0  0  0  0  0  0  0
   -5.6407   23.7217  -29.8331 C   0  0  0  0  0  0  0  0  0  0  0  0
   -5.6369   25.1934  -30.0949 C   0  0  0  0  0  0  0  0  0  0  0  0
   -6.6251   25.9751  -29.3433 N   0  0  0  0  0  0  0  0  0  0  0  0
   -4.3884   25.9380  -30.4276 C   0  0  0  0  0  0  0  0  0  0  0  0
   -5.4469   25.6958  -31.4986 C   0  0  0  0  0  0  0  0  0  0  0  0
   -7.5998   25.6186  -29.5588 H   0  0  0  0  0  0  0  0  0  0  0  0
   -6.4651   25.8194  -28.3144 H   0  0  0  0  0  0  0  0  0  0  0  0
 24 25  1  0  0  0
 25 26  1  0  0  0
 26 27  2  0  0  0
 26 14  1  0  0  0
 14 15  2  0  0  0
 15 16  1  0  0  0
 16 17  2  0  0  0
 17 18  1  0  0  0
 18 19  2  0  0  0
 19 20  1  0  0  0
 20 13  1  0  0  0
 13  1  1  0  0  0
  1  2  2  0  0  0
  2  3  1  0  0  0
  3  4  2  0  0  0
  4  5  1  0  0  0
  5  6  2  0  0  0
  6  7  1  0  0  0
  7 29  1  0  0  0
 29 30  1  0  0  0
 30 31  1  0  0  0
 31 32  1  0  0  0
 31 33  1  0  0  0
 33 34  1  0  0  0
  7  8  2  0  0  0
  8 11  1  0  0  0
 11 12  1  0  0  0
  8  9  1  0  0  0
  9 10  2  0  0  0
 20 21  2  0  0  0
 21 22  1  0  0  0
 22 23  2  0  0  0
 23 14  1  0  0  0
 23 18  1  0  0  0
 10  1  1  0  0  0
 10  5  1  0  0  0
 34 31  1  0  0  0
 25 28  1  0  0  0
 32 35  1  0  0  0
 32 36  1  0  0  0
M  END
> <minimizedAffinity>
-9.30048

> <CNNscore>
0.6787534356

> <CNNaffinity>
7.0482339859

> <CNN_VS>
4.7840132713

> <CNNaffinity_variance>
0.0681255907

$$$$
[H]c1nc2c([H])c(OC([H])([H])C3(N([H])[H])C([H])([H])C3([H])[H])c(OC([H])([H])[H])c([H])c2c(Oc2c([H])c([H])c3c(C(=O)N([H])C([H])([H])[H])c([H])c([H])c([H])c3c2[H])c1[H]


 36 40  0  0  0  0  0  0  0  0999 V2000
   -0.8536   22.0325  -25.3993 C   0  0  0  0  0  0  0  0  0  0  0  0
    0.3835   22.0969  -26.0629 C   0  0  0  0  0  0  0  0  0  0  0  0
    0.3957   22.5010  -27.3869 C   0  0  0  0  0  0  0  0  0  0  0  0
   -0.7088   22.8327  -28.0626 N   0  0  0  0  0  0  0  0  0  0  0  0
   -1.9155   22.7769  -27.4356 C   0  0  0  0  0  0  0  0  0  0  0  0
   -3.0764   23.1207  -28.1225 C   0  0  0  0  0  0  0  0  0  0  0  0
   -4.3287   23.0786  -27.5179 C   0  0  0  0  0  0  0  0  0  0  0  0
   -4.3989   22.6820  -26.1990 C   0  0  0  0  0  0  0  0  0  0  0  0
   -3.2224   22.3373  -25.5145 C   0  0  0  0  0  0  0  0  0  0  0  0
   -2.0055   22.3898  -26.1399 C   0  0  0  0  0  0  0  0  0  0  0  0
   -5.6475   22.6419  -25.6026 O   0  0  0  0  0  0  0  0  0  0  0  0
   -5.9607   23.6879  -24.6961 C   0  0  0  0  0  0  0  0  0  0  0  0
   -1.0630   21.6715  -24.1534 O   0  0  0  0  0  0  0  0  0  0  0  0
    0.7168   21.6745  -18.9261 C   0  0  0  0  0  0  0  0  0  0  0  0
   -0.1074   22.2030  -17.9059 C   0  0  0  0  0  0  0  0  0  0  0  0
   -1.3143   22.7193  -18.2640 C   0  0  0  0  0  0  0  0  0  0  0  0
   -1.7090   22.7197  -19.5862 C   0  0  0  0  0  0  0  0  0  0  0  0
   -0.9159   22.2054  -20.5879 C   0  0  0  0  0  0  0  0  0  0  0  0
   -1.3256   22.1837  -21.8819 C   0  0  0  0  0  0  0  0  0  0  0  0
   -0.5425   21.6276  -22.9371 C   0  0  0  0  0  0  0  0  0  0  0  0
    0.6732   21.1021  -22.5665 C   0  0  0  0  0  0  0  0  0  0  0  0
    1.0776   21.1295  -21.2651 C   0  0  0  0  0  0  0  0  0  0  0  0
    0.3289   21.6686  -20.2419 C   0  0  0  0  0  0  0  0  0  0  0  0
    4.4791   21.7275  -18.2021 C   0  0  0  0  0  0  0  0  0  0  0  0
    3.1382   22.1327  -18.5722 N   0  0  0  0  0  0  0  0  0  0  0  0
    2.0497   21.2399  -18.5483 C   0  0  0  0  0  0  0  0  0  0  0  0
    2.2264   20.0251  -18.1789 O   0  0  0  0  0  0  0  0  0  0  0  0
    2.9930   23.1235  -18.8399 H   0  0  0  0  0  0  0  0  0  0  0  0
   -5.4745   23.4271  -28.2253 O   0  0  0  0  0  0  0  0  0  0  0  0
   -5.4880   23.6845  -29.5953 C   0  0  0  0  0  0  0  0  0  0  0  0
   -5.5364   25.1396  -29.9341 C   0  0  0  0  0  0  0  0  0  0  0  0
   -6.5711   25.9185  -29.2448 N   0  0  0  0  0  0  0  0  0  0  0  0
   -4.3113   25.9159  -30.2806 C   0  0  0  0  0  0  0  0  0  0  0  0
   -5.3354   25.5758  -31.3583 C   0  0  0  0  0  0  0  0  0  0  0  0
   -7.5260   25.5120  -29.4607 H   0  0  0  0  0  0  0  0  0  0  0  0
   -6.4279   25.8230  -28.2061 H   0  0  0  0  0  0  0  0  0  0  0  0
 24 25  1  0  0  0
 25 26  1  0  0  0
 26 27  2  0  0  0
 26 14  1  0  0  0
 14 15  2  0  0  0
 15 16  1  0  0  0
 16 17  2  0  0  0
 17 18  1  0  0  0
 18 19  2  0  0  0
 19 20  1  0  0  0
 20 13  1  0  0  0
 13  1  1  0  0  0
  1  2  2  0  0  0
  2  3  1  0  0  0
  3  4  2  0  0  0
  4  5  1  0  0  0
  5  6  2  0  0  0
  6  7  1  0  0  0
  7 29  1  0  0  0
 29 30  1  0  0  0
 30 31  1  0  0  0
 31 32  1  0  0  0
 31 33  1  0  0  0
 33 34  1  0  0  0
  7  8  2  0  0  0
  8 11  1  0  0  0
 11 12  1  0  0  0
  8  9  1  0  0  0
  9 10  2  0  0  0
 20 21  2  0  0  0
 21 22  1  0  0  0
 22 23  2  0  0  0
 23 14  1  0  0  0
 23 18  1  0  0  0
 10  1  1  0  0  0
 10  5  1  0  0  0
 34 31  1  0  0  0
 25 28  1  0  0  0
 32 35  1  0  0  0
 32 36  1  0  0  0
M  END
> <minimizedAffinity>
-9.17047

> <CNNscore>
0.5959484577

> <CNNaffinity>
6.9007315636

> <CNN_VS>
4.1124801636

> <CNNaffinity_variance>
0.0438679717

$$$$
[H]c1nc2c([H])c(OC([H])([H])C3(N([H])[H])C([H])([H])C3([H])[H])c(OC([H])([H])[H])c([H])c2c(Oc2c([H])c([H])c3c(C(=O)N([H])C([H])([H])[H])c([H])c([H])c([H])c3c2[H])c1[H]


 36 40  0  0  0  0  0  0  0  0999 V2000
   -1.0435   21.8242  -25.0153 C   0  0  0  0  0  0  0  0  0  0  0  0
    0.2400   21.9872  -25.5637 C   0  0  0  0  0  0  0  0  0  0  0  0
    0.3482   22.5732  -26.8133 C   0  0  0  0  0  0  0  0  0  0  0  0
   -0.7057   22.9910  -27.5210 N   0  0  0  0  0  0  0  0  0  0  0  0
   -1.9563   22.8419  -27.0051 C   0  0  0  0  0  0  0  0  0  0  0  0
   -3.0659   23.2729  -27.7267 C   0  0  0  0  0  0  0  0  0  0  0  0
   -4.3604   23.1402  -27.2346 C   0  0  0  0  0  0  0  0  0  0  0  0
   -4.5262   22.5621  -25.9936 C   0  0  0  0  0  0  0  0  0  0  0  0
   -3.4008   22.1305  -25.2733 C   0  0  0  0  0  0  0  0  0  0  0  0
   -2.1402   22.2763  -25.7873 C   0  0  0  0  0  0  0  0  0  0  0  0
   -5.8164   22.4325  -25.5090 O   0  0  0  0  0  0  0  0  0  0  0  0
   -6.0096   22.6716  -24.1236 C   0  0  0  0  0  0  0  0  0  0  0  0
   -1.3429   21.2909  -23.8523 O   0  0  0  0  0  0  0  0  0  0  0  0
   -1.4179   22.2289  -18.4111 C   0  0  0  0  0  0  0  0  0  0  0  0
   -0.2064   22.2198  -17.6821 C   0  0  0  0  0  0  0  0  0  0  0  0
    0.9434   21.9519  -18.3585 C   0  0  0  0  0  0  0  0  0  0  0  0
    0.9130   21.6995  -19.7147 C   0  0  0  0  0  0  0  0  0  0  0  0
   -0.2606   21.7082  -20.4356 C   0  0  0  0  0  0  0  0  0  0  0  0
   -0.2766   21.4876  -21.7749 C   0  0  0  0  0  0  0  0  0  0  0  0
   -1.4706   21.5236  -22.5556 C   0  0  0  0  0  0  0  0  0  0  0  0
   -2.6277   21.8011  -21.8659 C   0  0  0  0  0  0  0  0  0  0  0  0
   -2.6028   22.0197  -20.5208 C   0  0  0  0  0  0  0  0  0  0  0  0
   -1.4548   21.9823  -19.7601 C   0  0  0  0  0  0  0  0  0  0  0  0
   -4.5066   21.4270  -16.2901 C   0  0  0  0  0  0  0  0  0  0  0  0
   -3.2782   21.2932  -17.0465 N   0  0  0  0  0  0  0  0  0  0  0  0
   -2.6482   22.3940  -17.6579 C   0  0  0  0  0  0  0  0  0  0  0  0
   -3.1557   23.5657  -17.5447 O   0  0  0  0  0  0  0  0  0  0  0  0
   -2.8537   20.3496  -17.1093 H   0  0  0  0  0  0  0  0  0  0  0  0
   -5.4535   23.5788  -27.9746 O   0  0  0  0  0  0  0  0  0  0  0  0
   -5.4554   23.6774  -29.3651 C   0  0  0  0  0  0  0  0  0  0  0  0
   -5.4985   25.0839  -29.8691 C   0  0  0  0  0  0  0  0  0  0  0  0
   -6.5263   25.9425  -29.2699 N   0  0  0  0  0  0  0  0  0  0  0  0
   -4.2713   25.8088  -30.3077 C   0  0  0  0  0  0  0  0  0  0  0  0
   -5.3019   25.3522  -31.3349 C   0  0  0  0  0  0  0  0  0  0  0  0
   -7.4840   25.5188  -29.4337 H   0  0  0  0  0  0  0  0  0  0  0  0
   -6.3787   25.9664  -28.2277 H   0  0  0  0  0  0  0  0  0  0  0  0
 24 25  1  0  0  0
 25 26  1  0  0  0
 26 27  2  0  0  0
 26 14  1  0  0  0
 14 15  2  0  0  0
 15 16  1  0  0  0
 16 17  2  0  0  0
 17 18  1  0  0  0
 18 19  2  0  0  0
 19 20  1  0  0  0
 20 13  1  0  0  0
 13  1  1  0  0  0
  1  2  2  0  0  0
  2  3  1  0  0  0
  3  4  2  0  0  0
  4  5  1  0  0  0
  5  6  2  0  0  0
  6  7  1  0  0  0
  7 29  1  0  0  0
 29 30  1  0  0  0
 30 31  1  0  0  0
 31 32  1  0  0  0
 31 33  1  0  0  0
 33 34  1  0  0  0
  7  8  2  0  0  0
  8 11  1  0  0  0
 11 12  1  0  0  0
  8  9  1  0  0  0
  9 10  2  0  0  0
 20 21  2  0  0  0
 21 22  1  0  0  0
 22 23  2  0  0  0
 23 14  1  0  0  0
 23 18  1  0  0  0
 10  1  1  0  0  0
 10  5  1  0  0  0
 34 31  1  0  0  0
 25 28  1  0  0  0
 32 35  1  0  0  0
 32 36  1  0  0  0
M  END
> <minimizedAffinity>
-8.89481

> <CNNscore>
0.5927282572

> <CNNaffinity>
6.9667572975

> <CNN_VS>
4.1293940544

> <CNNaffinity_variance>
0.1419170648

$$$$
[H]c1nc2c([H])c(OC([H])([H])C3(N([H])[H])C([H])([H])C3([H])[H])c(OC([H])([H])[H])c([H])c2c(Oc2c([H])c([H])c3c(C(=O)N([H])C([H])([H])[H])c([H])c([H])c([H])c3c2[H])c1[H]


 36 40  0  0  0  0  0  0  0  0999 V2000
   -2.2113   21.7849  -24.2748 C   0  0  0  0  0  0  0  0  0  0  0  0
   -0.8471   21.5857  -24.0022 C   0  0  0  0  0  0  0  0  0  0  0  0
    0.0719   21.9232  -24.9809 C   0  0  0  0  0  0  0  0  0  0  0  0
   -0.2741   22.4286  -26.1688 N   0  0  0  0  0  0  0  0  0  0  0  0
   -1.5907   22.6290  -26.4498 C   0  0  0  0  0  0  0  0  0  0  0  0
   -1.9700   23.1563  -27.6809 C   0  0  0  0  0  0  0  0  0  0  0  0
   -3.3044   23.3779  -28.0066 C   0  0  0  0  0  0  0  0  0  0  0  0
   -4.2626   23.0585  -27.0678 C   0  0  0  0  0  0  0  0  0  0  0  0
   -3.8701   22.5271  -25.8288 C   0  0  0  0  0  0  0  0  0  0  0  0
   -2.5474   22.3217  -25.5405 C   0  0  0  0  0  0  0  0  0  0  0  0
   -5.5886   23.2808  -27.3973 O   0  0  0  0  0  0  0  0  0  0  0  0
   -6.4634   23.6358  -26.3377 C   0  0  0  0  0  0  0  0  0  0  0  0
   -3.2219   21.5237  -23.4767 O   0  0  0  0  0  0  0  0  0  0  0  0
   -6.7272   23.2790  -19.5878 C   0  0  0  0  0  0  0  0  0  0  0  0
   -8.1011   22.9602  -19.6877 C   0  0  0  0  0  0  0  0  0  0  0  0
   -8.5127   22.2430  -20.7684 C   0  0  0  0  0  0  0  0  0  0  0  0
   -7.6057   21.8452  -21.7290 C   0  0  0  0  0  0  0  0  0  0  0  0
   -6.2649   22.1477  -21.6409 C   0  0  0  0  0  0  0  0  0  0  0  0
   -5.3757   21.7266  -22.5762 C   0  0  0  0  0  0  0  0  0  0  0  0
   -3.9764   21.9941  -22.4961 C   0  0  0  0  0  0  0  0  0  0  0  0
   -3.5672   22.7140  -21.3980 C   0  0  0  0  0  0  0  0  0  0  0  0
   -4.4669   23.1343  -20.4644 C   0  0  0  0  0  0  0  0  0  0  0  0
   -5.8196   22.8836  -20.5374 C   0  0  0  0  0  0  0  0  0  0  0  0
   -5.6064   24.4630  -16.1202 C   0  0  0  0  0  0  0  0  0  0  0  0
   -6.0123   23.6217  -17.2277 N   0  0  0  0  0  0  0  0  0  0  0  0
   -6.3218   24.1472  -18.4968 C   0  0  0  0  0  0  0  0  0  0  0  0
   -6.2374   25.4093  -18.7047 O   0  0  0  0  0  0  0  0  0  0  0  0
   -6.0489   22.5986  -17.0649 H   0  0  0  0  0  0  0  0  0  0  0  0
   -3.6586   23.9061  -29.2436 O   0  0  0  0  0  0  0  0  0  0  0  0
   -4.0110   25.2403  -29.4414 C   0  0  0  0  0  0  0  0  0  0  0  0
   -5.3478   25.4209  -30.0854 C   0  0  0  0  0  0  0  0  0  0  0  0
   -6.4394   25.8094  -29.1854 N   0  0  0  0  0  0  0  0  0  0  0  0
   -5.4957   25.9209  -31.4825 C   0  0  0  0  0  0  0  0  0  0  0  0
   -5.7914   24.4613  -31.1537 C   0  0  0  0  0  0  0  0  0  0  0  0
   -6.5512   25.0791  -28.4252 H   0  0  0  0  0  0  0  0  0  0  0  0
   -6.1762   26.7091  -28.7062 H   0  0  0  0  0  0  0  0  0  0  0  0
 24 25  1  0  0  0
 25 26  1  0  0  0
 26 27  2  0  0  0
 26 14  1  0  0  0
 14 15  2  0  0  0
 15 16  1  0  0  0
 16 17  2  0  0  0
 17 18  1  0  0  0
 18 19  2  0  0  0
 19 20  1  0  0  0
 20 13  1  0  0  0
 13  1  1  0  0  0
  1  2  2  0  0  0
  2  3  1  0  0  0
  3  4  2  0  0  0
  4  5  1  0  0  0
  5  6  2  0  0  0
  6  7  1  0  0  0
  7 29  1  0  0  0
 29 30  1  0  0  0
 30 31  1  0  0  0
 31 32  1  0  0  0
 31 33  1  0  0  0
 33 34  1  0  0  0
  7  8  2  0  0  0
  8 11  1  0  0  0
 11 12  1  0  0  0
  8  9  1  0  0  0
  9 10  2  0  0  0
 20 21  2  0  0  0
 21 22  1  0  0  0
 22 23  2  0  0  0
 23 14  1  0  0  0
 23 18  1  0  0  0
 10  1  1  0  0  0
 10  5  1  0  0  0
 34 31  1  0  0  0
 25 28  1  0  0  0
 32 35  1  0  0  0
 32 36  1  0  0  0
M  END
> <minimizedAffinity>
-9.28838

> <CNNscore>
0.4567565024

> <CNNaffinity>
6.9321265221

> <CNN_VS>
3.1662938595

> <CNNaffinity_variance>
0.0386050232

$$$$
[H]c1nc2c([H])c(OC([H])([H])C3(N([H])[H])C([H])([H])C3([H])[H])c(OC([H])([H])[H])c([H])c2c(Oc2c([H])c([H])c3c(C(=O)N([H])C([H])([H])[H])c([H])c([H])c([H])c3c2[H])c1[H]


 36 40  0  0  0  0  0  0  0  0999 V2000
   -3.4769   22.3374  -25.7724 C   0  0  0  0  0  0  0  0  0  0  0  0
   -3.5797   22.6762  -27.1323 C   0  0  0  0  0  0  0  0  0  0  0  0
   -2.4118   22.8987  -27.8415 C   0  0  0  0  0  0  0  0  0  0  0  0
   -1.1946   22.8064  -27.2972 N   0  0  0  0  0  0  0  0  0  0  0  0
   -1.0759   22.4786  -25.9816 C   0  0  0  0  0  0  0  0  0  0  0  0
    0.1836   22.3757  -25.3979 C   0  0  0  0  0  0  0  0  0  0  0  0
    0.3481   22.0415  -24.0575 C   0  0  0  0  0  0  0  0  0  0  0  0
   -0.7830   21.8097  -23.3035 C   0  0  0  0  0  0  0  0  0  0  0  0
   -2.0491   21.9158  -23.9012 C   0  0  0  0  0  0  0  0  0  0  0  0
   -2.1753   22.2468  -25.2238 C   0  0  0  0  0  0  0  0  0  0  0  0
   -0.6133   21.4777  -21.9703 O   0  0  0  0  0  0  0  0  0  0  0  0
   -1.5958   21.9483  -21.0607 C   0  0  0  0  0  0  0  0  0  0  0  0
   -4.4663   22.0940  -24.9427 O   0  0  0  0  0  0  0  0  0  0  0  0
   -8.4151   23.9706  -21.5697 C   0  0  0  0  0  0  0  0  0  0  0  0
   -9.0267   23.0891  -20.6487 C   0  0  0  0  0  0  0  0  0  0  0  0
   -8.6272   21.7884  -20.6487 C   0  0  0  0  0  0  0  0  0  0  0  0
   -7.6533   21.3571  -21.5258 C   0  0  0  0  0  0  0  0  0  0  0  0
   -7.0489   22.2070  -22.4253 C   0  0  0  0  0  0  0  0  0  0  0  0
   -6.0709   21.7796  -23.2642 C   0  0  0  0  0  0  0  0  0  0  0  0
   -5.4017   22.6419  -24.1832 C   0  0  0  0  0  0  0  0  0  0  0  0
   -5.8065   23.9563  -24.1730 C   0  0  0  0  0  0  0  0  0  0  0  0
   -6.7905   24.3767  -23.3286 C   0  0  0  0  0  0  0  0  0  0  0  0
   -7.4438   23.5491  -22.4420 C   0  0  0  0  0  0  0  0  0  0  0  0
   -9.3382   27.5593  -20.5945 C   0  0  0  0  0  0  0  0  0  0  0  0
   -8.8272   26.2043  -20.5502 N   0  0  0  0  0  0  0  0  0  0  0  0
   -8.9357   25.3240  -21.6438 C   0  0  0  0  0  0  0  0  0  0  0  0
   -9.4920   25.7178  -22.7295 O   0  0  0  0  0  0  0  0  0  0  0  0
   -8.3499   25.8995  -19.6821 H   0  0  0  0  0  0  0  0  0  0  0  0
    1.6175   21.9448  -23.4969 O   0  0  0  0  0  0  0  0  0  0  0  0
    2.4221   20.8109  -23.5982 C   0  0  0  0  0  0  0  0  0  0  0  0
    3.0002   20.3643  -22.2941 C   0  0  0  0  0  0  0  0  0  0  0  0
    3.8135   21.3590  -21.5857 N   0  0  0  0  0  0  0  0  0  0  0  0
    2.2970   19.3978  -21.4025 C   0  0  0  0  0  0  0  0  0  0  0  0
    3.5470   18.9704  -22.1645 C   0  0  0  0  0  0  0  0  0  0  0  0
    4.6210   21.6628  -22.2016 H   0  0  0  0  0  0  0  0  0  0  0  0
    3.2242   22.2142  -21.4134 H   0  0  0  0  0  0  0  0  0  0  0  0
 24 25  1  0  0  0
 25 26  1  0  0  0
 26 27  2  0  0  0
 26 14  1  0  0  0
 14 15  2  0  0  0
 15 16  1  0  0  0
 16 17  2  0  0  0
 17 18  1  0  0  0
 18 19  2  0  0  0
 19 20  1  0  0  0
 20 13  1  0  0  0
 13  1  1  0  0  0
  1  2  2  0  0  0
  2  3  1  0  0  0
  3  4  2  0  0  0
  4  5  1  0  0  0
  5  6  2  0  0  0
  6  7  1  0  0  0
  7 29  1  0  0  0
 29 30  1  0  0  0
 30 31  1  0  0  0
 31 32  1  0  0  0
 31 33  1  0  0  0
 33 34  1  0  0  0
  7  8  2  0  0  0
  8 11  1  0  0  0
 11 12  1  0  0  0
  8  9  1  0  0  0
  9 10  2  0  0  0
 20 21  2  0  0  0
 21 22  1  0  0  0
 22 23  2  0  0  0
 23 14  1  0  0  0
 23 18  1  0  0  0
 10  1  1  0  0  0
 10  5  1  0  0  0
 34 31  1  0  0  0
 25 28  1  0  0  0
 32 35  1  0  0  0
 32 36  1  0  0  0
M  END
> <minimizedAffinity>
-8.54384

> <CNNscore>
0.4012588263

> <CNNaffinity>
6.5061240196

> <CNN_VS>
2.6106395721

> <CNNaffinity_variance>
0.0762275606

$$$$
[H]c1nc2c([H])c(OC([H])([H])C3(N([H])[H])C([H])([H])C3([H])[H])c(OC([H])([H])[H])c([H])c2c(Oc2c([H])c([H])c3c(C(=O)N([H])C([H])([H])[H])c([H])c([H])c([H])c3c2[H])c1[H]


 36 40  0  0  0  0  0  0  0  0999 V2000
   -3.0295   23.2387  -24.4557 C   0  0  0  0  0  0  0  0  0  0  0  0
   -1.7240   22.7196  -24.4870 C   0  0  0  0  0  0  0  0  0  0  0  0
   -1.2468   22.2205  -25.6868 C   0  0  0  0  0  0  0  0  0  0  0  0
   -1.9650   22.2091  -26.8139 N   0  0  0  0  0  0  0  0  0  0  0  0
   -3.2311   22.7085  -26.8023 C   0  0  0  0  0  0  0  0  0  0  0  0
   -3.9935   22.7070  -27.9669 C   0  0  0  0  0  0  0  0  0  0  0  0
   -5.2905   23.2094  -27.9977 C   0  0  0  0  0  0  0  0  0  0  0  0
   -5.8164   23.7188  -26.8292 C   0  0  0  0  0  0  0  0  0  0  0  0
   -5.0396   23.7160  -25.6595 C   0  0  0  0  0  0  0  0  0  0  0  0
   -3.7659   23.2137  -25.6641 C   0  0  0  0  0  0  0  0  0  0  0  0
   -7.1074   24.2171  -26.8656 O   0  0  0  0  0  0  0  0  0  0  0  0
   -7.5930   24.8312  -25.6819 C   0  0  0  0  0  0  0  0  0  0  0  0
   -3.6510   23.7494  -23.4168 O   0  0  0  0  0  0  0  0  0  0  0  0
   -8.5943   24.0917  -20.9797 C   0  0  0  0  0  0  0  0  0  0  0  0
   -9.2500   22.9125  -20.5571 C   0  0  0  0  0  0  0  0  0  0  0  0
   -8.6365   21.7213  -20.7942 C   0  0  0  0  0  0  0  0  0  0  0  0
   -7.4116   21.6808  -21.4281 C   0  0  0  0  0  0  0  0  0  0  0  0
   -6.7624   22.8229  -21.8418 C   0  0  0  0  0  0  0  0  0  0  0  0
   -5.5440   22.7745  -22.4384 C   0  0  0  0  0  0  0  0  0  0  0  0
   -4.8306   23.9406  -22.8474 C   0  0  0  0  0  0  0  0  0  0  0  0
   -5.4542   25.1409  -22.5988 C   0  0  0  0  0  0  0  0  0  0  0  0
   -6.6784   25.1804  -22.0008 C   0  0  0  0  0  0  0  0  0  0  0  0
   -7.3748   24.0588  -21.6073 C   0  0  0  0  0  0  0  0  0  0  0  0
  -10.8693   27.0790  -21.7430 C   0  0  0  0  0  0  0  0  0  0  0  0
  -10.1406   25.8325  -21.8616 N   0  0  0  0  0  0  0  0  0  0  0  0
   -9.3137   25.3443  -20.8317 C   0  0  0  0  0  0  0  0  0  0  0  0
   -9.1959   26.0038  -19.7388 O   0  0  0  0  0  0  0  0  0  0  0  0
  -10.2629   25.2861  -22.7339 H   0  0  0  0  0  0  0  0  0  0  0  0
   -6.0327   23.1970  -29.1741 O   0  0  0  0  0  0  0  0  0  0  0  0
   -5.6160   23.8064  -30.3566 C   0  0  0  0  0  0  0  0  0  0  0  0
   -5.4322   25.2852  -30.2398 C   0  0  0  0  0  0  0  0  0  0  0  0
   -6.4933   26.0028  -29.5244 N   0  0  0  0  0  0  0  0  0  0  0  0
   -4.0837   25.9120  -30.1290 C   0  0  0  0  0  0  0  0  0  0  0  0
   -4.8965   26.0602  -31.4108 C   0  0  0  0  0  0  0  0  0  0  0  0
   -7.4227   25.8372  -30.0064 H   0  0  0  0  0  0  0  0  0  0  0  0
   -6.5774   25.6000  -28.5554 H   0  0  0  0  0  0  0  0  0  0  0  0
 24 25  1  0  0  0
 25 26  1  0  0  0
 26 27  2  0  0  0
 26 14  1  0  0  0
 14 15  2  0  0  0
 15 16  1  0  0  0
 16 17  2  0  0  0
 17 18  1  0  0  0
 18 19  2  0  0  0
 19 20  1  0  0  0
 20 13  1  0  0  0
 13  1  1  0  0  0
  1  2  2  0  0  0
  2  3  1  0  0  0
  3  4  2  0  0  0
  4  5  1  0  0  0
  5  6  2  0  0  0
  6  7  1  0  0  0
  7 29  1  0  0  0
 29 30  1  0  0  0
 30 31  1  0  0  0
 31 32  1  0  0  0
 31 33  1  0  0  0
 33 34  1  0  0  0
  7  8  2  0  0  0
  8 11  1  0  0  0
 11 12  1  0  0  0
  8  9  1  0  0  0
  9 10  2  0  0  0
 20 21  2  0  0  0
 21 22  1  0  0  0
 22 23  2  0  0  0
 23 14  1  0  0  0
 23 18  1  0  0  0
 10  1  1  0  0  0
 10  5  1  0  0  0
 34 31  1  0  0  0
 25 28  1  0  0  0
 32 35  1  0  0  0
 32 36  1  0  0  0
M  END
> <minimizedAffinity>
-9.48702

> <CNNscore>
0.3552264273

> <CNNaffinity>
6.8319749832

> <CNN_VS>
2.4268980026

> <CNNaffinity_variance>
0.1724793017

$$$$
[H]c1nc2c([H])c(OC([H])([H])C3(N([H])[H])C([H])([H])C3([H])[H])c(OC([H])([H])[H])c([H])c2c(Oc2c([H])c([H])c3c(C(=O)N([H])C([H])([H])[H])c([H])c([H])c([H])c3c2[H])c1[H]


 36 40  0  0  0  0  0  0  0  0999 V2000
   -1.3955   22.5226  -24.9373 C   0  0  0  0  0  0  0  0  0  0  0  0
   -0.0635   22.3905  -25.3652 C   0  0  0  0  0  0  0  0  0  0  0  0
    0.2021   22.4946  -26.7199 C   0  0  0  0  0  0  0  0  0  0  0  0
   -0.7441   22.7149  -27.6378 N   0  0  0  0  0  0  0  0  0  0  0  0
   -2.0395   22.8462  -27.2414 C   0  0  0  0  0  0  0  0  0  0  0  0
   -3.0382   23.0780  -28.1828 C   0  0  0  0  0  0  0  0  0  0  0  0
   -4.3736   23.2197  -27.8190 C   0  0  0  0  0  0  0  0  0  0  0  0
   -4.6947   23.1241  -26.4813 C   0  0  0  0  0  0  0  0  0  0  0  0
   -3.6803   22.8902  -25.5391 C   0  0  0  0  0  0  0  0  0  0  0  0
   -2.3754   22.7556  -25.9316 C   0  0  0  0  0  0  0  0  0  0  0  0
   -6.0249   23.2657  -26.1251 O   0  0  0  0  0  0  0  0  0  0  0  0
   -6.3573   23.0141  -24.7685 C   0  0  0  0  0  0  0  0  0  0  0  0
   -1.8384   22.4515  -23.7023 O   0  0  0  0  0  0  0  0  0  0  0  0
   -5.8709   23.5605  -20.0965 C   0  0  0  0  0  0  0  0  0  0  0  0
   -6.3801   22.5279  -19.2758 C   0  0  0  0  0  0  0  0  0  0  0  0
   -5.8636   21.2783  -19.4283 C   0  0  0  0  0  0  0  0  0  0  0  0
   -4.8729   21.0410  -20.3590 C   0  0  0  0  0  0  0  0  0  0  0  0
   -4.3675   22.0394  -21.1619 C   0  0  0  0  0  0  0  0  0  0  0  0
   -3.3723   21.8021  -22.0540 C   0  0  0  0  0  0  0  0  0  0  0  0
   -2.8039   22.8209  -22.8756 C   0  0  0  0  0  0  0  0  0  0  0  0
   -3.3267   24.0823  -22.7113 C   0  0  0  0  0  0  0  0  0  0  0  0
   -4.3271   24.3116  -21.8144 C   0  0  0  0  0  0  0  0  0  0  0  0
   -4.8836   23.3322  -21.0212 C   0  0  0  0  0  0  0  0  0  0  0  0
   -8.2667   26.4727  -20.7758 C   0  0  0  0  0  0  0  0  0  0  0  0
   -7.6057   25.1850  -20.8383 N   0  0  0  0  0  0  0  0  0  0  0  0
   -6.5143   24.8593  -20.0104 C   0  0  0  0  0  0  0  0  0  0  0  0
   -6.0814   25.7125  -19.1572 O   0  0  0  0  0  0  0  0  0  0  0  0
   -7.9784   24.4862  -21.5071 H   0  0  0  0  0  0  0  0  0  0  0  0
   -5.3538   23.4510  -28.7784 O   0  0  0  0  0  0  0  0  0  0  0  0
   -5.8428   24.7179  -29.0931 C   0  0  0  0  0  0  0  0  0  0  0  0
   -5.5880   25.1275  -30.5079 C   0  0  0  0  0  0  0  0  0  0  0  0
   -6.1577   24.2494  -31.5361 N   0  0  0  0  0  0  0  0  0  0  0  0
   -5.4784   26.5583  -30.9136 C   0  0  0  0  0  0  0  0  0  0  0  0
   -4.2394   25.6693  -30.8912 C   0  0  0  0  0  0  0  0  0  0  0  0
   -5.7755   23.2678  -31.4177 H   0  0  0  0  0  0  0  0  0  0  0  0
   -7.1984   24.1901  -31.3887 H   0  0  0  0  0  0  0  0  0  0  0  0
 24 25  1  0  0  0
 25 26  1  0  0  0
 26 27  2  0  0  0
 26 14  1  0  0  0
 14 15  2  0  0  0
 15 16  1  0  0  0
 16 17  2  0  0  0
 17 18  1  0  0  0
 18 19  2  0  0  0
 19 20  1  0  0  0
 20 13  1  0  0  0
 13  1  1  0  0  0
  1  2  2  0  0  0
  2  3  1  0  0  0
  3  4  2  0  0  0
  4  5  1  0  0  0
  5  6  2  0  0  0
  6  7  1  0  0  0
  7 29  1  0  0  0
 29 30  1  0  0  0
 30 31  1  0  0  0
 31 32  1  0  0  0
 31 33  1  0  0  0
 33 34  1  0  0  0
  7  8  2  0  0  0
  8 11  1  0  0  0
 11 12  1  0  0  0
  8  9  1  0  0  0
  9 10  2  0  0  0
 20 21  2  0  0  0
 21 22  1  0  0  0
 22 23  2  0  0  0
 23 14  1  0  0  0
 23 18  1  0  0  0
 10  1  1  0  0  0
 10  5  1  0  0  0
 34 31  1  0  0  0
 25 28  1  0  0  0
 32 35  1  0  0  0
 32 36  1  0  0  0
M  END
> <minimizedAffinity>
-9.01667

> <CNNscore>
0.3290384114

> <CNNaffinity>
6.6953706741

> <CNN_VS>
2.2030341625

> <CNNaffinity_variance>
0.2541144192

$$$$
[H]c1nc2c([H])c(OC([H])([H])C3(N([H])[H])C([H])([H])C3([H])[H])c(OC([H])([H])[H])c([H])c2c(Oc2c([H])c([H])c3c(C(=O)N([H])C([H])([H])[H])c([H])c([H])c([H])c3c2[H])c1[H]


 36 40  0  0  0  0  0  0  0  0999 V2000
   -2.6143   22.6328  -23.6174 C   0  0  0  0  0  0  0  0  0  0  0  0
   -1.3208   22.1465  -23.3621 C   0  0  0  0  0  0  0  0  0  0  0  0
   -0.4704   21.9529  -24.4372 C   0  0  0  0  0  0  0  0  0  0  0  0
   -0.8185   22.2063  -25.7025 N   0  0  0  0  0  0  0  0  0  0  0  0
   -2.0669   22.6786  -25.9683 C   0  0  0  0  0  0  0  0  0  0  0  0
   -2.4467   22.9501  -27.2796 C   0  0  0  0  0  0  0  0  0  0  0  0
   -3.7123   23.4352  -27.5935 C   0  0  0  0  0  0  0  0  0  0  0  0
   -4.6007   23.6458  -26.5600 C   0  0  0  0  0  0  0  0  0  0  0  0
   -4.2083   23.3690  -25.2406 C   0  0  0  0  0  0  0  0  0  0  0  0
   -2.9544   22.8923  -24.9666 C   0  0  0  0  0  0  0  0  0  0  0  0
   -5.8585   24.1284  -26.8782 O   0  0  0  0  0  0  0  0  0  0  0  0
   -6.6367   24.6473  -25.8109 C   0  0  0  0  0  0  0  0  0  0  0  0
   -3.5552   22.8750  -22.7329 O   0  0  0  0  0  0  0  0  0  0  0  0
   -7.1564   20.7980  -19.0984 C   0  0  0  0  0  0  0  0  0  0  0  0
   -8.5421   21.0042  -19.2894 C   0  0  0  0  0  0  0  0  0  0  0  0
   -8.9356   21.7386  -20.3652 C   0  0  0  0  0  0  0  0  0  0  0  0
   -7.9997   22.2591  -21.2353 C   0  0  0  0  0  0  0  0  0  0  0  0
   -6.6477   22.0626  -21.0607 C   0  0  0  0  0  0  0  0  0  0  0  0
   -5.7363   22.5541  -21.9385 C   0  0  0  0  0  0  0  0  0  0  0  0
   -4.3320   22.3392  -21.8046 C   0  0  0  0  0  0  0  0  0  0  0  0
   -3.9425   21.5910  -20.7184 C   0  0  0  0  0  0  0  0  0  0  0  0
   -4.8642   21.1026  -19.8410 C   0  0  0  0  0  0  0  0  0  0  0  0
   -6.2209   21.3097  -19.9614 C   0  0  0  0  0  0  0  0  0  0  0  0
   -6.1570   18.0178  -16.6583 C   0  0  0  0  0  0  0  0  0  0  0  0
   -6.5658   18.7226  -17.8563 N   0  0  0  0  0  0  0  0  0  0  0  0
   -6.7446   20.1190  -17.8827 C   0  0  0  0  0  0  0  0  0  0  0  0
   -6.5331   20.8113  -16.8248 O   0  0  0  0  0  0  0  0  0  0  0  0
   -6.7053   18.1636  -18.7180 H   0  0  0  0  0  0  0  0  0  0  0  0
   -4.0684   23.6992  -28.9120 O   0  0  0  0  0  0  0  0  0  0  0  0
   -4.0590   24.9749  -29.4739 C   0  0  0  0  0  0  0  0  0  0  0  0
   -5.3409   25.3458  -30.1475 C   0  0  0  0  0  0  0  0  0  0  0  0
   -6.3979   25.8540  -29.2661 N   0  0  0  0  0  0  0  0  0  0  0  0
   -5.3805   25.8935  -31.5339 C   0  0  0  0  0  0  0  0  0  0  0  0
   -5.8752   24.4785  -31.2526 C   0  0  0  0  0  0  0  0  0  0  0  0
   -6.6271   25.1273  -28.5292 H   0  0  0  0  0  0  0  0  0  0  0  0
   -6.0329   26.6995  -28.7559 H   0  0  0  0  0  0  0  0  0  0  0  0
 24 25  1  0  0  0
 25 26  1  0  0  0
 26 27  2  0  0  0
 26 14  1  0  0  0
 14 15  2  0  0  0
 15 16  1  0  0  0
 16 17  2  0  0  0
 17 18  1  0  0  0
 18 19  2  0  0  0
 19 20  1  0  0  0
 20 13  1  0  0  0
 13  1  1  0  0  0
  1  2  2  0  0  0
  2  3  1  0  0  0
  3  4  2  0  0  0
  4  5  1  0  0  0
  5  6  2  0  0  0
  6  7  1  0  0  0
  7 29  1  0  0  0
 29 30  1  0  0  0
 30 31  1  0  0  0
 31 32  1  0  0  0
 31 33  1  0  0  0
 33 34  1  0  0  0
  7  8  2  0  0  0
  8 11  1  0  0  0
 11 12  1  0  0  0
  8  9  1  0  0  0
  9 10  2  0  0  0
 20 21  2  0  0  0
 21 22  1  0  0  0
 22 23  2  0  0  0
 23 14  1  0  0  0
 23 18  1  0  0  0
 10  1  1  0  0  0
 10  5  1  0  0  0
 34 31  1  0  0  0
 25 28  1  0  0  0
 32 35  1  0  0  0
 32 36  1  0  0  0
M  END
> <minimizedAffinity>
-8.14779

> <CNNscore>
0.3168618381

> <CNNaffinity>
6.8224906921

> <CNN_VS>
2.1617870331

> <CNNaffinity_variance>
0.1737725139

$$$$
[H]c1nc(N([H])c2nn([H])c(C([H])([H])C([H])([H])c3c([H])c(OC([H])([H])[H])c([H])c(OC([H])([H])[H])c3[H])c2[H])c2c([H])c([H])c(N3C([H])([H])[C@]([H])(C([H])([H])[H])N(C([H])([H])[H])[C@]([H])(C([H])([H])[H])C3([H])[H])c([H])c2n1


 39 43  0  0  0  0  0  0  0  0999 V2000
   -3.4650   22.7427  -28.2987 N   0  0  0  0  0  0  0  0  0  0  0  0
   -3.6950   21.8796  -28.8276 H   0  0  0  0  0  0  0  0  0  0  0  0
   -4.3776   23.8004  -28.2803 C   0  0  0  0  0  0  0  0  0  0  0  0
   -4.6119   24.5930  -29.3354 N   0  0  0  0  0  0  0  0  0  0  0  0
   -5.4734   25.6038  -29.3424 C   0  0  0  0  0  0  0  0  0  0  0  0
   -6.1610   25.8595  -28.2270 N   0  0  0  0  0  0  0  0  0  0  0  0
   -6.0003   25.1278  -27.1208 C   0  0  0  0  0  0  0  0  0  0  0  0
   -6.7451   25.4357  -25.9757 C   0  0  0  0  0  0  0  0  0  0  0  0
   -6.6114   24.7097  -24.8169 C   0  0  0  0  0  0  0  0  0  0  0  0
   -5.7156   23.6684  -24.8293 C   0  0  0  0  0  0  0  0  0  0  0  0
   -4.9739   23.3596  -25.9651 C   0  0  0  0  0  0  0  0  0  0  0  0
   -5.1085   24.0823  -27.1151 C   0  0  0  0  0  0  0  0  0  0  0  0
   -7.3667   25.0074  -23.6243 N   0  0  0  0  0  0  0  0  0  0  0  0
   -6.5995   25.2083  -22.4258 C   0  0  0  0  0  0  0  0  0  0  0  0
   -7.3650   25.7137  -21.2540 C   0  0  0  0  0  0  0  0  0  0  0  0
   -6.6747   25.4159  -19.9655 C   0  0  0  0  0  0  0  0  0  0  0  0
   -8.7585   25.2442  -21.2653 N   0  0  0  0  0  0  0  0  0  0  0  0
   -8.7896   23.8050  -21.2151 C   0  0  0  0  0  0  0  0  0  0  0  0
   -9.3316   25.7743  -22.4741 C   0  0  0  0  0  0  0  0  0  0  0  0
  -10.8325   25.8374  -22.4340 C   0  0  0  0  0  0  0  0  0  0  0  0
   -8.8124   25.0837  -23.7046 C   0  0  0  0  0  0  0  0  0  0  0  0
   -0.4802   22.7197  -26.2298 C   0  0  0  0  0  0  0  0  0  0  0  0
   -1.8752   22.5652  -26.3230 C   0  0  0  0  0  0  0  0  0  0  0  0
   -2.2201   22.7697  -27.6293 C   0  0  0  0  0  0  0  0  0  0  0  0
   -1.0595   23.0427  -28.3150 N   0  0  0  0  0  0  0  0  0  0  0  0
   -0.0676   23.0018  -27.4521 N   0  0  0  0  0  0  0  0  0  0  0  0
    0.9517   23.1741  -27.6977 H   0  0  0  0  0  0  0  0  0  0  0  0
    0.3098   22.5768  -24.9588 C   0  0  0  0  0  0  0  0  0  0  0  0
   -0.3090   21.4216  -24.2056 C   0  0  0  0  0  0  0  0  0  0  0  0
   -3.3548   21.9005  -22.0197 C   0  0  0  0  0  0  0  0  0  0  0  0
   -2.5266   21.4849  -23.0675 C   0  0  0  0  0  0  0  0  0  0  0  0
   -1.2014   21.8403  -23.1230 C   0  0  0  0  0  0  0  0  0  0  0  0
   -0.7049   22.6274  -22.1049 C   0  0  0  0  0  0  0  0  0  0  0  0
   -1.5145   23.0542  -21.0481 C   0  0  0  0  0  0  0  0  0  0  0  0
   -2.8474   22.6872  -21.0075 C   0  0  0  0  0  0  0  0  0  0  0  0
   -5.5447   21.9554  -20.9116 C   0  0  0  0  0  0  0  0  0  0  0  0
   -4.6949   21.5425  -21.9615 O   0  0  0  0  0  0  0  0  0  0  0  0
   -0.9550   23.8448  -20.0539 O   0  0  0  0  0  0  0  0  0  0  0  0
   -0.4865   23.2477  -18.8776 C   0  0  0  0  0  0  0  0  0  0  0  0
 36 37  1  0  0  0
 37 30  1  0  0  0
 30 31  2  0  0  0
 31 32  1  0  0  0
 32 29  1  0  0  0
 29 28  1  0  0  0
 28 22  1  0  0  0
 22 23  2  0  0  0
 23 24  1  0  0  0
 24  1  1  0  0  0
  1  3  1  0  0  0
  3  4  2  0  0  0
  4  5  1  0  0  0
  5  6  2  0  0  0
  6  7  1  0  0  0
  7  8  2  0  0  0
  8  9  1  0  0  0
  9 10  2  0  0  0
 10 11  1  0  0  0
 11 12  2  0  0  0
  9 13  1  0  0  0
 13 14  1  0  0  0
 14 15  1  0  0  0
 15 16  1  0  0  0
 15 17  1  0  0  0
 17 18  1  0  0  0
 17 19  1  0  0  0
 19 20  1  0  0  0
 19 21  1  0  0  0
 24 25  2  0  0  0
 25 26  1  0  0  0
 32 33  2  0  0  0
 33 34  1  0  0  0
 34 38  1  0  0  0
 38 39  1  0  0  0
 34 35  2  0  0  0
 35 30  1  0  0  0
 26 22  1  0  0  0
 12  3  1  0  0  0
 21 13  1  0  0  0
 12  7  1  0  0  0
  1  2  1  0  0  0
 26 27  1  0  0  0
M  END
> <minimizedAffinity>
-9.46093

> <CNNscore>
0.5580446720

> <CNNaffinity>
7.6070203781

> <CNN_VS>
4.2450571060

> <CNNaffinity_variance>
0.1692822576

$$$$
[H]c1nc(N([H])c2nn([H])c(C([H])([H])C([H])([H])c3c([H])c(OC([H])([H])[H])c([H])c(OC([H])([H])[H])c3[H])c2[H])c2c([H])c([H])c(N3C([H])([H])[C@]([H])(C([H])([H])[H])N(C([H])([H])[H])[C@]([H])(C([H])([H])[H])C3([H])[H])c([H])c2n1


 39 43  0  0  0  0  0  0  0  0999 V2000
   -3.5993   22.5859  -27.8881 N   0  0  0  0  0  0  0  0  0  0  0  0
   -3.9652   21.7530  -28.3881 H   0  0  0  0  0  0  0  0  0  0  0  0
   -2.2196   22.7440  -27.7353 C   0  0  0  0  0  0  0  0  0  0  0  0
   -1.4186   23.2184  -28.6996 N   0  0  0  0  0  0  0  0  0  0  0  0
   -0.1056   23.3775  -28.5785 C   0  0  0  0  0  0  0  0  0  0  0  0
    0.4699   23.0457  -27.4205 N   0  0  0  0  0  0  0  0  0  0  0  0
   -0.2408   22.5637  -26.3969 C   0  0  0  0  0  0  0  0  0  0  0  0
    0.4091   22.2301  -25.2023 C   0  0  0  0  0  0  0  0  0  0  0  0
   -0.2826   21.7315  -24.1249 C   0  0  0  0  0  0  0  0  0  0  0  0
   -1.6395   21.5740  -24.2695 C   0  0  0  0  0  0  0  0  0  0  0  0
   -2.2886   21.9044  -25.4549 C   0  0  0  0  0  0  0  0  0  0  0  0
   -1.5992   22.3995  -26.5238 C   0  0  0  0  0  0  0  0  0  0  0  0
    0.3639   21.3800  -22.8841 N   0  0  0  0  0  0  0  0  0  0  0  0
    1.7602   21.0510  -22.9717 C   0  0  0  0  0  0  0  0  0  0  0  0
    2.4622   20.8913  -21.6693 C   0  0  0  0  0  0  0  0  0  0  0  0
    3.7042   20.0756  -21.8008 C   0  0  0  0  0  0  0  0  0  0  0  0
    1.5651   20.3821  -20.6214 N   0  0  0  0  0  0  0  0  0  0  0  0
    1.0556   19.0891  -21.0004 C   0  0  0  0  0  0  0  0  0  0  0  0
    0.5308   21.3735  -20.4874 C   0  0  0  0  0  0  0  0  0  0  0  0
   -0.1847   21.3013  -19.1679 C   0  0  0  0  0  0  0  0  0  0  0  0
   -0.4115   21.3797  -21.6590 C   0  0  0  0  0  0  0  0  0  0  0  0
   -6.2311   24.6229  -26.4341 C   0  0  0  0  0  0  0  0  0  0  0  0
   -5.6513   23.3518  -26.5978 C   0  0  0  0  0  0  0  0  0  0  0  0
   -4.5530   23.5062  -27.3959 C   0  0  0  0  0  0  0  0  0  0  0  0
   -4.4674   24.8424  -27.7104 N   0  0  0  0  0  0  0  0  0  0  0  0
   -5.4724   25.4553  -27.1236 N   0  0  0  0  0  0  0  0  0  0  0  0
   -5.6627   26.4986  -27.1892 H   0  0  0  0  0  0  0  0  0  0  0  0
   -7.4660   24.8978  -25.6221 C   0  0  0  0  0  0  0  0  0  0  0  0
   -6.9908   25.5242  -24.3311 C   0  0  0  0  0  0  0  0  0  0  0  0
   -6.8708   22.6224  -21.9128 C   0  0  0  0  0  0  0  0  0  0  0  0
   -7.3353   23.5411  -22.8596 C   0  0  0  0  0  0  0  0  0  0  0  0
   -6.5345   24.5476  -23.3404 C   0  0  0  0  0  0  0  0  0  0  0  0
   -5.2449   24.6276  -22.8576 C   0  0  0  0  0  0  0  0  0  0  0  0
   -4.7598   23.7202  -21.9112 C   0  0  0  0  0  0  0  0  0  0  0  0
   -5.5798   22.7122  -21.4374 C   0  0  0  0  0  0  0  0  0  0  0  0
   -7.6016   21.1487  -20.0905 C   0  0  0  0  0  0  0  0  0  0  0  0
   -7.6787   21.6039  -21.4252 O   0  0  0  0  0  0  0  0  0  0  0  0
   -3.4524   23.8541  -21.4648 O   0  0  0  0  0  0  0  0  0  0  0  0
   -2.4600   24.2875  -22.3519 C   0  0  0  0  0  0  0  0  0  0  0  0
 36 37  1  0  0  0
 37 30  1  0  0  0
 30 31  2  0  0  0
 31 32  1  0  0  0
 32 29  1  0  0  0
 29 28  1  0  0  0
 28 22  1  0  0  0
 22 23  2  0  0  0
 23 24  1  0  0  0
 24  1  1  0  0  0
  1  3  1  0  0  0
  3  4  2  0  0  0
  4  5  1  0  0  0
  5  6  2  0  0  0
  6  7  1  0  0  0
  7  8  2  0  0  0
  8  9  1  0  0  0
  9 10  2  0  0  0
 10 11  1  0  0  0
 11 12  2  0  0  0
  9 13  1  0  0  0
 13 14  1  0  0  0
 14 15  1  0  0  0
 15 16  1  0  0  0
 15 17  1  0  0  0
 17 18  1  0  0  0
 17 19  1  0  0  0
 19 20  1  0  0  0
 19 21  1  0  0  0
 24 25  2  0  0  0
 25 26  1  0  0  0
 32 33  2  0  0  0
 33 34  1  0  0  0
 34 38  1  0  0  0
 38 39  1  0  0  0
 34 35  2  0  0  0
 35 30  1  0  0  0
 26 22  1  0  0  0
 12  3  1  0  0  0
 21 13  1  0  0  0
 12  7  1  0  0  0
  1  2  1  0  0  0
 26 27  1  0  0  0
M  END
> <minimizedAffinity>
-9.02283

> <CNNscore>
0.4061155915

> <CNNaffinity>
7.4053778648

> <CNN_VS>
3.0074393749

> <CNNaffinity_variance>
0.0764228180

$$$$
[H]c1nc(N([H])c2nn([H])c(C([H])([H])C([H])([H])c3c([H])c(OC([H])([H])[H])c([H])c(OC([H])([H])[H])c3[H])c2[H])c2c([H])c([H])c(N3C([H])([H])[C@]([H])(C([H])([H])[H])N(C([H])([H])[H])[C@]([H])(C([H])([H])[H])C3([H])[H])c([H])c2n1


 39 43  0  0  0  0  0  0  0  0999 V2000
   -3.6154   22.5955  -27.1974 N   0  0  0  0  0  0  0  0  0  0  0  0
   -4.0807   21.8489  -27.7484 H   0  0  0  0  0  0  0  0  0  0  0  0
   -2.2204   22.6694  -27.1817 C   0  0  0  0  0  0  0  0  0  0  0  0
   -1.4890   23.0607  -28.2346 N   0  0  0  0  0  0  0  0  0  0  0  0
   -0.1632   23.1389  -28.2442 C   0  0  0  0  0  0  0  0  0  0  0  0
    0.5003   22.8076  -27.1341 N   0  0  0  0  0  0  0  0  0  0  0  0
   -0.1361   22.4049  -26.0305 C   0  0  0  0  0  0  0  0  0  0  0  0
    0.6048   22.0683  -24.8909 C   0  0  0  0  0  0  0  0  0  0  0  0
   -0.0086   21.6496  -23.7350 C   0  0  0  0  0  0  0  0  0  0  0  0
   -1.3802   21.5751  -23.7447 C   0  0  0  0  0  0  0  0  0  0  0  0
   -2.1195   21.9087  -24.8750 C   0  0  0  0  0  0  0  0  0  0  0  0
   -1.5079   22.3244  -26.0222 C   0  0  0  0  0  0  0  0  0  0  0  0
    0.7323   21.2967  -22.5485 N   0  0  0  0  0  0  0  0  0  0  0  0
    2.0975   20.8972  -22.7531 C   0  0  0  0  0  0  0  0  0  0  0  0
    2.9083   20.7346  -21.5158 C   0  0  0  0  0  0  0  0  0  0  0  0
    4.0932   19.8556  -21.7362 C   0  0  0  0  0  0  0  0  0  0  0  0
    2.0885   20.2958  -20.3766 N   0  0  0  0  0  0  0  0  0  0  0  0
    1.4862   19.0208  -20.6706 C   0  0  0  0  0  0  0  0  0  0  0  0
    1.1188   21.3401  -20.1777 C   0  0  0  0  0  0  0  0  0  0  0  0
    0.5253   21.3353  -18.7971 C   0  0  0  0  0  0  0  0  0  0  0  0
    0.0738   21.3644  -21.2585 C   0  0  0  0  0  0  0  0  0  0  0  0
   -6.0299   24.5686  -25.3354 C   0  0  0  0  0  0  0  0  0  0  0  0
   -5.6545   23.3200  -25.8633 C   0  0  0  0  0  0  0  0  0  0  0  0
   -4.4557   23.4908  -26.4966 C   0  0  0  0  0  0  0  0  0  0  0  0
   -4.1103   24.8147  -26.3563 N   0  0  0  0  0  0  0  0  0  0  0  0
   -5.0638   25.4049  -25.6688 N   0  0  0  0  0  0  0  0  0  0  0  0
   -5.0678   26.4343  -25.4059 H   0  0  0  0  0  0  0  0  0  0  0  0
   -7.2924   24.8206  -24.5591 C   0  0  0  0  0  0  0  0  0  0  0  0
   -6.9412   24.6118  -23.1038 C   0  0  0  0  0  0  0  0  0  0  0  0
  -10.2901   24.8614  -21.3700 C   0  0  0  0  0  0  0  0  0  0  0  0
   -9.1957   25.1573  -22.1891 C   0  0  0  0  0  0  0  0  0  0  0  0
   -8.1016   24.3302  -22.2567 C   0  0  0  0  0  0  0  0  0  0  0  0
   -8.1130   23.1868  -21.4852 C   0  0  0  0  0  0  0  0  0  0  0  0
   -9.1960   22.8715  -20.6594 C   0  0  0  0  0  0  0  0  0  0  0  0
  -10.2903   23.7156  -20.6032 C   0  0  0  0  0  0  0  0  0  0  0  0
  -11.4008   26.9980  -21.8478 C   0  0  0  0  0  0  0  0  0  0  0  0
  -11.3974   25.6961  -21.3001 O   0  0  0  0  0  0  0  0  0  0  0  0
   -9.1467   21.7059  -19.9075 O   0  0  0  0  0  0  0  0  0  0  0  0
   -9.9139   21.6027  -18.7410 C   0  0  0  0  0  0  0  0  0  0  0  0
 36 37  1  0  0  0
 37 30  1  0  0  0
 30 31  2  0  0  0
 31 32  1  0  0  0
 32 29  1  0  0  0
 29 28  1  0  0  0
 28 22  1  0  0  0
 22 23  2  0  0  0
 23 24  1  0  0  0
 24  1  1  0  0  0
  1  3  1  0  0  0
  3  4  2  0  0  0
  4  5  1  0  0  0
  5  6  2  0  0  0
  6  7  1  0  0  0
  7  8  2  0  0  0
  8  9  1  0  0  0
  9 10  2  0  0  0
 10 11  1  0  0  0
 11 12  2  0  0  0
  9 13  1  0  0  0
 13 14  1  0  0  0
 14 15  1  0  0  0
 15 16  1  0  0  0
 15 17  1  0  0  0
 17 18  1  0  0  0
 17 19  1  0  0  0
 19 20  1  0  0  0
 19 21  1  0  0  0
 24 25  2  0  0  0
 25 26  1  0  0  0
 32 33  2  0  0  0
 33 34  1  0  0  0
 34 38  1  0  0  0
 38 39  1  0  0  0
 34 35  2  0  0  0
 35 30  1  0  0  0
 26 22  1  0  0  0
 12  3  1  0  0  0
 21 13  1  0  0  0
 12  7  1  0  0  0
  1  2  1  0  0  0
 26 27  1  0  0  0
M  END
> <minimizedAffinity>
-8.88944

> <CNNscore>
0.3667944074

> <CNNaffinity>
7.1807999611

> <CNN_VS>
2.6338772774

> <CNNaffinity_variance>
0.1641680002

$$$$
[H]c1nc(N([H])c2nn([H])c(C([H])([H])C([H])([H])c3c([H])c(OC([H])([H])[H])c([H])c(OC([H])([H])[H])c3[H])c2[H])c2c([H])c([H])c(N3C([H])([H])[C@]([H])(C([H])([H])[H])N(C([H])([H])[H])[C@]([H])(C([H])([H])[H])C3([H])[H])c([H])c2n1


 39 43  0  0  0  0  0  0  0  0999 V2000
   -3.8413   22.7034  -28.1817 N   0  0  0  0  0  0  0  0  0  0  0  0
   -4.1619   21.8388  -28.6582 H   0  0  0  0  0  0  0  0  0  0  0  0
   -4.7314   23.7677  -28.0178 C   0  0  0  0  0  0  0  0  0  0  0  0
   -4.9375   24.7092  -28.9493 N   0  0  0  0  0  0  0  0  0  0  0  0
   -5.7773   25.7295  -28.8169 C   0  0  0  0  0  0  0  0  0  0  0  0
   -6.4714   25.8371  -27.6817 N   0  0  0  0  0  0  0  0  0  0  0  0
   -6.3383   24.9501  -26.6914 C   0  0  0  0  0  0  0  0  0  0  0  0
   -7.0888   25.1065  -25.5196 C   0  0  0  0  0  0  0  0  0  0  0  0
   -6.9830   24.2182  -24.4768 C   0  0  0  0  0  0  0  0  0  0  0  0
   -6.1093   23.1697  -24.6324 C   0  0  0  0  0  0  0  0  0  0  0  0
   -5.3620   23.0113  -25.7952 C   0  0  0  0  0  0  0  0  0  0  0  0
   -5.4688   23.8951  -26.8298 C   0  0  0  0  0  0  0  0  0  0  0  0
   -7.7447   24.3578  -23.2596 N   0  0  0  0  0  0  0  0  0  0  0  0
   -8.7915   25.3423  -23.2801 C   0  0  0  0  0  0  0  0  0  0  0  0
   -9.6982   25.3361  -22.1001 C   0  0  0  0  0  0  0  0  0  0  0  0
  -10.3968   26.6426  -21.9259 C   0  0  0  0  0  0  0  0  0  0  0  0
   -9.0046   24.9036  -20.8777 N   0  0  0  0  0  0  0  0  0  0  0  0
   -7.9201   25.8058  -20.5861 C   0  0  0  0  0  0  0  0  0  0  0  0
   -8.5594   23.5615  -21.1443 C   0  0  0  0  0  0  0  0  0  0  0  0
   -8.2809   22.7758  -19.8939 C   0  0  0  0  0  0  0  0  0  0  0  0
   -7.4178   23.5206  -22.1219 C   0  0  0  0  0  0  0  0  0  0  0  0
   -0.5491   22.6472  -26.6493 C   0  0  0  0  0  0  0  0  0  0  0  0
   -1.9375   22.4670  -26.5136 C   0  0  0  0  0  0  0  0  0  0  0  0
   -2.5014   22.7257  -27.7312 C   0  0  0  0  0  0  0  0  0  0  0  0
   -1.4774   23.0561  -28.5880 N   0  0  0  0  0  0  0  0  0  0  0  0
   -0.3533   22.9960  -27.9078 N   0  0  0  0  0  0  0  0  0  0  0  0
    0.6073   23.2018  -28.3126 H   0  0  0  0  0  0  0  0  0  0  0  0
    0.4467   22.4614  -25.5384 C   0  0  0  0  0  0  0  0  0  0  0  0
   -0.3405   21.9719  -24.3444 C   0  0  0  0  0  0  0  0  0  0  0  0
    0.9217   21.0948  -20.8916 C   0  0  0  0  0  0  0  0  0  0  0  0
    0.0951   21.5430  -21.9271 C   0  0  0  0  0  0  0  0  0  0  0  0
    0.5008   21.5105  -23.2386 C   0  0  0  0  0  0  0  0  0  0  0  0
    1.7606   21.0179  -23.5084 C   0  0  0  0  0  0  0  0  0  0  0  0
    2.6034   20.5647  -22.4892 C   0  0  0  0  0  0  0  0  0  0  0  0
    2.1791   20.6044  -21.1735 C   0  0  0  0  0  0  0  0  0  0  0  0
    0.6389   22.2813  -18.7611 C   0  0  0  0  0  0  0  0  0  0  0  0
    0.5136   21.1267  -19.5650 O   0  0  0  0  0  0  0  0  0  0  0  0
    3.8598   20.0804  -22.8260 O   0  0  0  0  0  0  0  0  0  0  0  0
    4.5654   19.2921  -21.9092 C   0  0  0  0  0  0  0  0  0  0  0  0
 36 37  1  0  0  0
 37 30  1  0  0  0
 30 31  2  0  0  0
 31 32  1  0  0  0
 32 29  1  0  0  0
 29 28  1  0  0  0
 28 22  1  0  0  0
 22 23  2  0  0  0
 23 24  1  0  0  0
 24  1  1  0  0  0
  1  3  1  0  0  0
  3  4  2  0  0  0
  4  5  1  0  0  0
  5  6  2  0  0  0
  6  7  1  0  0  0
  7  8  2  0  0  0
  8  9  1  0  0  0
  9 10  2  0  0  0
 10 11  1  0  0  0
 11 12  2  0  0  0
  9 13  1  0  0  0
 13 14  1  0  0  0
 14 15  1  0  0  0
 15 16  1  0  0  0
 15 17  1  0  0  0
 17 18  1  0  0  0
 17 19  1  0  0  0
 19 20  1  0  0  0
 19 21  1  0  0  0
 24 25  2  0  0  0
 25 26  1  0  0  0
 32 33  2  0  0  0
 33 34  1  0  0  0
 34 38  1  0  0  0
 38 39  1  0  0  0
 34 35  2  0  0  0
 35 30  1  0  0  0
 26 22  1  0  0  0
 12  3  1  0  0  0
 21 13  1  0  0  0
 12  7  1  0  0  0
  1  2  1  0  0  0
 26 27  1  0  0  0
M  END
> <minimizedAffinity>
-8.87455

> <CNNscore>
0.3493938446

> <CNNaffinity>
7.2714591026

> <CNN_VS>
2.5406031609

> <CNNaffinity_variance>
0.0557291992

$$$$
[H]c1nc(N([H])c2nn([H])c(C([H])([H])C([H])([H])c3c([H])c(OC([H])([H])[H])c([H])c(OC([H])([H])[H])c3[H])c2[H])c2c([H])c([H])c(N3C([H])([H])[C@]([H])(C([H])([H])[H])N(C([H])([H])[H])[C@]([H])(C([H])([H])[H])C3([H])[H])c([H])c2n1


 39 43  0  0  0  0  0  0  0  0999 V2000
   -3.5561   22.5454  -27.1316 N   0  0  0  0  0  0  0  0  0  0  0  0
   -4.0205   21.7314  -27.5780 H   0  0  0  0  0  0  0  0  0  0  0  0
   -2.1608   22.6080  -27.1002 C   0  0  0  0  0  0  0  0  0  0  0  0
   -1.4133   22.9714  -28.1517 N   0  0  0  0  0  0  0  0  0  0  0  0
   -0.0869   23.0383  -28.1465 C   0  0  0  0  0  0  0  0  0  0  0  0
    0.5601   22.7244  -27.0218 N   0  0  0  0  0  0  0  0  0  0  0  0
   -0.0931   22.3498  -25.9181 C   0  0  0  0  0  0  0  0  0  0  0  0
    0.6309   22.0305  -24.7628 C   0  0  0  0  0  0  0  0  0  0  0  0
   -0.0001   21.6408  -23.6063 C   0  0  0  0  0  0  0  0  0  0  0  0
   -1.3721   21.5775  -23.6313 C   0  0  0  0  0  0  0  0  0  0  0  0
   -2.0946   21.8941  -24.7773 C   0  0  0  0  0  0  0  0  0  0  0  0
   -1.4655   22.2810  -25.9251 C   0  0  0  0  0  0  0  0  0  0  0  0
    0.7232   21.3062  -22.4037 N   0  0  0  0  0  0  0  0  0  0  0  0
    2.0880   20.8931  -22.5830 C   0  0  0  0  0  0  0  0  0  0  0  0
    2.8819   20.7493  -21.3325 C   0  0  0  0  0  0  0  0  0  0  0  0
    4.0631   19.8578  -21.5205 C   0  0  0  0  0  0  0  0  0  0  0  0
    2.0447   20.3389  -20.1955 N   0  0  0  0  0  0  0  0  0  0  0  0
    1.4368   19.0626  -20.4719 C   0  0  0  0  0  0  0  0  0  0  0  0
    1.0801   21.3937  -20.0295 C   0  0  0  0  0  0  0  0  0  0  0  0
    0.4693   21.4204  -18.6567 C   0  0  0  0  0  0  0  0  0  0  0  0
    0.0491   21.4041  -21.1237 C   0  0  0  0  0  0  0  0  0  0  0  0
   -5.9961   24.7936  -25.6543 C   0  0  0  0  0  0  0  0  0  0  0  0
   -5.6502   23.4856  -26.0390 C   0  0  0  0  0  0  0  0  0  0  0  0
   -4.3979   23.5401  -26.5831 C   0  0  0  0  0  0  0  0  0  0  0  0
   -3.9919   24.8532  -26.5302 N   0  0  0  0  0  0  0  0  0  0  0  0
   -4.9621   25.5486  -25.9779 N   0  0  0  0  0  0  0  0  0  0  0  0
   -4.9298   26.5967  -25.8066 H   0  0  0  0  0  0  0  0  0  0  0  0
   -7.2997   25.1756  -25.0102 C   0  0  0  0  0  0  0  0  0  0  0  0
   -6.9646   25.5950  -23.5972 C   0  0  0  0  0  0  0  0  0  0  0  0
   -4.8380   23.3485  -21.4259 C   0  0  0  0  0  0  0  0  0  0  0  0
   -5.2421   24.4178  -22.2318 C   0  0  0  0  0  0  0  0  0  0  0  0
   -6.5114   24.4896  -22.7509 C   0  0  0  0  0  0  0  0  0  0  0  0
   -7.3859   23.4658  -22.4515 C   0  0  0  0  0  0  0  0  0  0  0  0
   -7.0034   22.3875  -21.6482 C   0  0  0  0  0  0  0  0  0  0  0  0
   -5.7209   22.3307  -21.1334 C   0  0  0  0  0  0  0  0  0  0  0  0
   -3.2257   22.4195  -19.8246 C   0  0  0  0  0  0  0  0  0  0  0  0
   -3.5553   23.2738  -20.9000 O   0  0  0  0  0  0  0  0  0  0  0  0
   -7.9301   21.3886  -21.3837 O   0  0  0  0  0  0  0  0  0  0  0  0
   -8.6413   21.4072  -20.1781 C   0  0  0  0  0  0  0  0  0  0  0  0
 36 37  1  0  0  0
 37 30  1  0  0  0
 30 31  2  0  0  0
 31 32  1  0  0  0
 32 29  1  0  0  0
 29 28  1  0  0  0
 28 22  1  0  0  0
 22 23  2  0  0  0
 23 24  1  0  0  0
 24  1  1  0  0  0
  1  3  1  0  0  0
  3  4  2  0  0  0
  4  5  1  0  0  0
  5  6  2  0  0  0
  6  7  1  0  0  0
  7  8  2  0  0  0
  8  9  1  0  0  0
  9 10  2  0  0  0
 10 11  1  0  0  0
 11 12  2  0  0  0
  9 13  1  0  0  0
 13 14  1  0  0  0
 14 15  1  0  0  0
 15 16  1  0  0  0
 15 17  1  0  0  0
 17 18  1  0  0  0
 17 19  1  0  0  0
 19 20  1  0  0  0
 19 21  1  0  0  0
 24 25  2  0  0  0
 25 26  1  0  0  0
 32 33  2  0  0  0
 33 34  1  0  0  0
 34 38  1  0  0  0
 38 39  1  0  0  0
 34 35  2  0  0  0
 35 30  1  0  0  0
 26 22  1  0  0  0
 12  3  1  0  0  0
 21 13  1  0  0  0
 12  7  1  0  0  0
  1  2  1  0  0  0
 26 27  1  0  0  0
M  END
> <minimizedAffinity>
-9.05603

> <CNNscore>
0.3263306022

> <CNNaffinity>
7.3030800819

> <CNN_VS>
2.3832185268

> <CNNaffinity_variance>
0.0791312009

$$$$
[H]c1nc(N([H])c2nn([H])c(C([H])([H])C([H])([H])c3c([H])c(OC([H])([H])[H])c([H])c(OC([H])([H])[H])c3[H])c2[H])c2c([H])c([H])c(N3C([H])([H])[C@]([H])(C([H])([H])[H])N(C([H])([H])[H])[C@]([H])(C([H])([H])[H])C3([H])[H])c([H])c2n1


 39 43  0  0  0  0  0  0  0  0999 V2000
   -3.4200   22.7691  -27.2753 N   0  0  0  0  0  0  0  0  0  0  0  0
   -3.9240   21.9589  -27.6842 H   0  0  0  0  0  0  0  0  0  0  0  0
   -2.0276   22.7286  -27.1681 C   0  0  0  0  0  0  0  0  0  0  0  0
   -1.1991   23.0858  -28.1594 N   0  0  0  0  0  0  0  0  0  0  0  0
    0.1264   23.0559  -28.0816 C   0  0  0  0  0  0  0  0  0  0  0  0
    0.6862   22.6434  -26.9420 N   0  0  0  0  0  0  0  0  0  0  0  0
   -0.0520   22.2658  -25.8944 C   0  0  0  0  0  0  0  0  0  0  0  0
    0.5825   21.8409  -24.7206 C   0  0  0  0  0  0  0  0  0  0  0  0
   -0.1377   21.4441  -23.6198 C   0  0  0  0  0  0  0  0  0  0  0  0
   -1.5072   21.4819  -23.7196 C   0  0  0  0  0  0  0  0  0  0  0  0
   -2.1409   21.9035  -24.8842 C   0  0  0  0  0  0  0  0  0  0  0  0
   -1.4233   22.2972  -25.9764 C   0  0  0  0  0  0  0  0  0  0  0  0
    0.4924   21.0018  -22.3997 N   0  0  0  0  0  0  0  0  0  0  0  0
   -0.3934   20.6528  -21.3232 C   0  0  0  0  0  0  0  0  0  0  0  0
    0.2521   20.0070  -20.1480 C   0  0  0  0  0  0  0  0  0  0  0  0
   -0.5740   20.1418  -18.9132 C   0  0  0  0  0  0  0  0  0  0  0  0
    1.6321   20.4761  -19.9537 N   0  0  0  0  0  0  0  0  0  0  0  0
    1.6369   21.8981  -19.7236 C   0  0  0  0  0  0  0  0  0  0  0  0
    2.3365   20.1007  -21.1510 C   0  0  0  0  0  0  0  0  0  0  0  0
    3.8257   20.0352  -20.9602 C   0  0  0  0  0  0  0  0  0  0  0  0
    1.9395   20.9379  -22.3351 C   0  0  0  0  0  0  0  0  0  0  0  0
   -5.2197   25.5773  -25.8384 C   0  0  0  0  0  0  0  0  0  0  0  0
   -4.2142   24.6029  -25.7041 C   0  0  0  0  0  0  0  0  0  0  0  0
   -4.2071   23.8655  -26.8545 C   0  0  0  0  0  0  0  0  0  0  0  0
   -5.1873   24.3808  -27.6701 N   0  0  0  0  0  0  0  0  0  0  0  0
   -5.7524   25.3819  -27.0309 N   0  0  0  0  0  0  0  0  0  0  0  0
   -6.5461   25.9725  -27.4183 H   0  0  0  0  0  0  0  0  0  0  0  0
   -5.5599   26.6005  -24.7909 C   0  0  0  0  0  0  0  0  0  0  0  0
   -6.8638   26.1521  -24.1716 C   0  0  0  0  0  0  0  0  0  0  0  0
   -5.3557   24.0856  -21.3897 C   0  0  0  0  0  0  0  0  0  0  0  0
   -5.4887   24.9989  -22.4406 C   0  0  0  0  0  0  0  0  0  0  0  0
   -6.6922   25.2039  -23.0693 C   0  0  0  0  0  0  0  0  0  0  0  0
   -7.7780   24.4754  -22.6299 C   0  0  0  0  0  0  0  0  0  0  0  0
   -7.6678   23.5573  -21.5814 C   0  0  0  0  0  0  0  0  0  0  0  0
   -6.4481   23.3629  -20.9590 C   0  0  0  0  0  0  0  0  0  0  0  0
   -3.6628   22.5858  -20.4351 C   0  0  0  0  0  0  0  0  0  0  0  0
   -4.1399   23.8766  -20.7526 O   0  0  0  0  0  0  0  0  0  0  0  0
   -8.7978   22.8550  -21.1858 O   0  0  0  0  0  0  0  0  0  0  0  0
   -8.6537   21.6369  -20.5113 C   0  0  0  0  0  0  0  0  0  0  0  0
 36 37  1  0  0  0
 37 30  1  0  0  0
 30 31  2  0  0  0
 31 32  1  0  0  0
 32 29  1  0  0  0
 29 28  1  0  0  0
 28 22  1  0  0  0
 22 23  2  0  0  0
 23 24  1  0  0  0
 24  1  1  0  0  0
  1  3  1  0  0  0
  3  4  2  0  0  0
  4  5  1  0  0  0
  5  6  2  0  0  0
  6  7  1  0  0  0
  7  8  2  0  0  0
  8  9  1  0  0  0
  9 10  2  0  0  0
 10 11  1  0  0  0
 11 12  2  0  0  0
  9 13  1  0  0  0
 13 14  1  0  0  0
 14 15  1  0  0  0
 15 16  1  0  0  0
 15 17  1  0  0  0
 17 18  1  0  0  0
 17 19  1  0  0  0
 19 20  1  0  0  0
 19 21  1  0  0  0
 24 25  2  0  0  0
 25 26  1  0  0  0
 32 33  2  0  0  0
 33 34  1  0  0  0
 34 38  1  0  0  0
 38 39  1  0  0  0
 34 35  2  0  0  0
 35 30  1  0  0  0
 26 22  1  0  0  0
 12  3  1  0  0  0
 21 13  1  0  0  0
 12  7  1  0  0  0
  1  2  1  0  0  0
 26 27  1  0  0  0
M  END
> <minimizedAffinity>
-8.72101

> <CNNscore>
0.2918144763

> <CNNaffinity>
7.2272696495

> <CNN_VS>
2.1090219021

> <CNNaffinity_variance>
0.0874609873

$$$$
[H]c1nc(N([H])c2nn([H])c(C([H])([H])C([H])([H])c3c([H])c(OC([H])([H])[H])c([H])c(OC([H])([H])[H])c3[H])c2[H])c2c([H])c([H])c(N3C([H])([H])[C@]([H])(C([H])([H])[H])N(C([H])([H])[H])[C@]([H])(C([H])([H])[H])C3([H])[H])c([H])c2n1


 39 43  0  0  0  0  0  0  0  0999 V2000
   -3.4587   22.9147  -28.0453 N   0  0  0  0  0  0  0  0  0  0  0  0
   -3.9150   22.1189  -28.5312 H   0  0  0  0  0  0  0  0  0  0  0  0
   -2.0794   22.8851  -27.8253 C   0  0  0  0  0  0  0  0  0  0  0  0
   -1.1742   23.1927  -28.7648 N   0  0  0  0  0  0  0  0  0  0  0  0
    0.1408   23.1720  -28.5800 C   0  0  0  0  0  0  0  0  0  0  0  0
    0.6077   22.8221  -27.3793 N   0  0  0  0  0  0  0  0  0  0  0  0
   -0.2120   22.4974  -26.3754 C   0  0  0  0  0  0  0  0  0  0  0  0
    0.3265   22.1371  -25.1340 C   0  0  0  0  0  0  0  0  0  0  0  0
   -0.4795   21.7961  -24.0748 C   0  0  0  0  0  0  0  0  0  0  0  0
   -1.8366   21.8235  -24.2854 C   0  0  0  0  0  0  0  0  0  0  0  0
   -2.3751   22.1808  -25.5174 C   0  0  0  0  0  0  0  0  0  0  0  0
   -1.5724   22.5192  -26.5682 C   0  0  0  0  0  0  0  0  0  0  0  0
    0.0509   21.4210  -22.7867 N   0  0  0  0  0  0  0  0  0  0  0  0
    1.4261   21.0037  -22.7682 C   0  0  0  0  0  0  0  0  0  0  0  0
    2.0194   20.8173  -21.4163 C   0  0  0  0  0  0  0  0  0  0  0  0
    3.2132   19.9234  -21.4488 C   0  0  0  0  0  0  0  0  0  0  0  0
    1.0174   20.3794  -20.4332 N   0  0  0  0  0  0  0  0  0  0  0  0
    0.4556   19.1161  -20.8377 C   0  0  0  0  0  0  0  0  0  0  0  0
    0.0414   21.4356  -20.3843 C   0  0  0  0  0  0  0  0  0  0  0  0
   -0.7718   21.4259  -19.1206 C   0  0  0  0  0  0  0  0  0  0  0  0
   -0.8104   21.4856  -21.6222 C   0  0  0  0  0  0  0  0  0  0  0  0
   -5.6449   25.4521  -26.6411 C   0  0  0  0  0  0  0  0  0  0  0  0
   -4.9677   24.2301  -26.4784 C   0  0  0  0  0  0  0  0  0  0  0  0
   -4.2943   23.9810  -27.6410 C   0  0  0  0  0  0  0  0  0  0  0  0
   -4.5570   25.0293  -28.4918 N   0  0  0  0  0  0  0  0  0  0  0  0
   -5.3526   25.8653  -27.8609 N   0  0  0  0  0  0  0  0  0  0  0  0
   -5.7238   26.7711  -28.2738 H   0  0  0  0  0  0  0  0  0  0  0  0
   -6.5088   26.0938  -25.5914 C   0  0  0  0  0  0  0  0  0  0  0  0
   -7.4634   25.0216  -25.1179 C   0  0  0  0  0  0  0  0  0  0  0  0
   -8.5997   24.7151  -21.5265 C   0  0  0  0  0  0  0  0  0  0  0  0
   -8.6225   24.8852  -22.9146 C   0  0  0  0  0  0  0  0  0  0  0  0
   -7.4727   24.8473  -23.6643 C   0  0  0  0  0  0  0  0  0  0  0  0
   -6.2816   24.6343  -23.0020 C   0  0  0  0  0  0  0  0  0  0  0  0
   -6.2355   24.4618  -21.6155 C   0  0  0  0  0  0  0  0  0  0  0  0
   -7.4031   24.5029  -20.8753 C   0  0  0  0  0  0  0  0  0  0  0  0
  -10.3541   25.9650  -20.3489 C   0  0  0  0  0  0  0  0  0  0  0  0
   -9.7610   24.7531  -20.7664 O   0  0  0  0  0  0  0  0  0  0  0  0
   -5.0053   24.2511  -21.0082 O   0  0  0  0  0  0  0  0  0  0  0  0
   -3.9321   23.7716  -21.7685 C   0  0  0  0  0  0  0  0  0  0  0  0
 36 37  1  0  0  0
 37 30  1  0  0  0
 30 31  2  0  0  0
 31 32  1  0  0  0
 32 29  1  0  0  0
 29 28  1  0  0  0
 28 22  1  0  0  0
 22 23  2  0  0  0
 23 24  1  0  0  0
 24  1  1  0  0  0
  1  3  1  0  0  0
  3  4  2  0  0  0
  4  5  1  0  0  0
  5  6  2  0  0  0
  6  7  1  0  0  0
  7  8  2  0  0  0
  8  9  1  0  0  0
  9 10  2  0  0  0
 10 11  1  0  0  0
 11 12  2  0  0  0
  9 13  1  0  0  0
 13 14  1  0  0  0
 14 15  1  0  0  0
 15 16  1  0  0  0
 15 17  1  0  0  0
 17 18  1  0  0  0
 17 19  1  0  0  0
 19 20  1  0  0  0
 19 21  1  0  0  0
 24 25  2  0  0  0
 25 26  1  0  0  0
 32 33  2  0  0  0
 33 34  1  0  0  0
 34 38  1  0  0  0
 38 39  1  0  0  0
 34 35  2  0  0  0
 35 30  1  0  0  0
 26 22  1  0  0  0
 12  3  1  0  0  0
 21 13  1  0  0  0
 12  7  1  0  0  0
  1  2  1  0  0  0
 26 27  1  0  0  0
M  END
> <minimizedAffinity>
-8.87910

> <CNNscore>
0.2183759958

> <CNNaffinity>
7.1551795006

> <CNN_VS>
1.5625194311

> <CNNaffinity_variance>
0.1917161494

$$$$
[H]c1nc(N([H])c2nn([H])c(C([H])([H])C([H])([H])c3c([H])c(OC([H])([H])[H])c([H])c(OC([H])([H])[H])c3[H])c2[H])c2c([H])c([H])c(N3C([H])([H])[C@]([H])(C([H])([H])[H])N(C([H])([H])[H])[C@]([H])(C([H])([H])[H])C3([H])[H])c([H])c2n1


 39 43  0  0  0  0  0  0  0  0999 V2000
   -3.5575   22.8603  -27.1574 N   0  0  0  0  0  0  0  0  0  0  0  0
   -4.1117   22.0160  -27.3975 H   0  0  0  0  0  0  0  0  0  0  0  0
   -2.1622   22.7974  -27.1875 C   0  0  0  0  0  0  0  0  0  0  0  0
   -1.4325   23.0865  -28.2740 N   0  0  0  0  0  0  0  0  0  0  0  0
   -0.1065   23.0340  -28.3273 C   0  0  0  0  0  0  0  0  0  0  0  0
    0.5590   22.6693  -27.2290 N   0  0  0  0  0  0  0  0  0  0  0  0
   -0.0755   22.3609  -26.0944 C   0  0  0  0  0  0  0  0  0  0  0  0
    0.6674   21.9841  -24.9689 C   0  0  0  0  0  0  0  0  0  0  0  0
    0.0559   21.6588  -23.7823 C   0  0  0  0  0  0  0  0  0  0  0  0
   -1.3160   21.7190  -23.7469 C   0  0  0  0  0  0  0  0  0  0  0  0
   -2.0573   22.0930  -24.8631 C   0  0  0  0  0  0  0  0  0  0  0  0
   -1.4476   22.4156  -26.0409 C   0  0  0  0  0  0  0  0  0  0  0  0
    0.7989   21.2671  -22.6094 N   0  0  0  0  0  0  0  0  0  0  0  0
    2.1584   20.8576  -22.8318 C   0  0  0  0  0  0  0  0  0  0  0  0
    2.9737   20.6540  -21.6036 C   0  0  0  0  0  0  0  0  0  0  0  0
    4.1474   19.7676  -21.8531 C   0  0  0  0  0  0  0  0  0  0  0  0
    2.1551   20.1953  -20.4715 N   0  0  0  0  0  0  0  0  0  0  0  0
    1.5366   18.9352  -20.7948 C   0  0  0  0  0  0  0  0  0  0  0  0
    1.1984   21.2450  -20.2404 C   0  0  0  0  0  0  0  0  0  0  0  0
    0.6121   21.2113  -18.8571 C   0  0  0  0  0  0  0  0  0  0  0  0
    0.1481   21.3090  -21.3144 C   0  0  0  0  0  0  0  0  0  0  0  0
   -5.4634   25.6816  -25.8932 C   0  0  0  0  0  0  0  0  0  0  0  0
   -4.8886   24.4201  -25.6547 C   0  0  0  0  0  0  0  0  0  0  0  0
   -4.2825   24.0244  -26.8137 C   0  0  0  0  0  0  0  0  0  0  0  0
   -4.4848   25.0241  -27.7364 N   0  0  0  0  0  0  0  0  0  0  0  0
   -5.1815   25.9731  -27.1499 N   0  0  0  0  0  0  0  0  0  0  0  0
   -5.4881   26.8744  -27.6218 H   0  0  0  0  0  0  0  0  0  0  0  0
   -6.2294   26.4756  -24.8719 C   0  0  0  0  0  0  0  0  0  0  0  0
   -7.2264   25.5204  -24.2567 C   0  0  0  0  0  0  0  0  0  0  0  0
   -6.0882   24.6183  -20.7676 C   0  0  0  0  0  0  0  0  0  0  0  0
   -6.1597   24.6874  -22.1627 C   0  0  0  0  0  0  0  0  0  0  0  0
   -7.1251   25.4279  -22.7991 C   0  0  0  0  0  0  0  0  0  0  0  0
   -8.0324   26.1091  -22.0145 C   0  0  0  0  0  0  0  0  0  0  0  0
   -7.9797   26.0543  -20.6186 C   0  0  0  0  0  0  0  0  0  0  0  0
   -7.0006   25.3035  -19.9936 C   0  0  0  0  0  0  0  0  0  0  0  0
   -4.2195   23.0271  -20.8189 C   0  0  0  0  0  0  0  0  0  0  0  0
   -5.1129   23.8702  -20.1219 O   0  0  0  0  0  0  0  0  0  0  0  0
   -8.9216   26.7624  -19.8853 O   0  0  0  0  0  0  0  0  0  0  0  0
   -9.8427   27.5806  -20.5501 C   0  0  0  0  0  0  0  0  0  0  0  0
 36 37  1  0  0  0
 37 30  1  0  0  0
 30 31  2  0  0  0
 31 32  1  0  0  0
 32 29  1  0  0  0
 29 28  1  0  0  0
 28 22  1  0  0  0
 22 23  2  0  0  0
 23 24  1  0  0  0
 24  1  1  0  0  0
  1  3  1  0  0  0
  3  4  2  0  0  0
  4  5  1  0  0  0
  5  6  2  0  0  0
  6  7  1  0  0  0
  7  8  2  0  0  0
  8  9  1  0  0  0
  9 10  2  0  0  0
 10 11  1  0  0  0
 11 12  2  0  0  0
  9 13  1  0  0  0
 13 14  1  0  0  0
 14 15  1  0  0  0
 15 16  1  0  0  0
 15 17  1  0  0  0
 17 18  1  0  0  0
 17 19  1  0  0  0
 19 20  1  0  0  0
 19 21  1  0  0  0
 24 25  2  0  0  0
 25 26  1  0  0  0
 32 33  2  0  0  0
 33 34  1  0  0  0
 34 38  1  0  0  0
 38 39  1  0  0  0
 34 35  2  0  0  0
 35 30  1  0  0  0
 26 22  1  0  0  0
 12  3  1  0  0  0
 21 13  1  0  0  0
 12  7  1  0  0  0
  1  2  1  0  0  0
 26 27  1  0  0  0
M  END
> <minimizedAffinity>
-9.25268

> <CNNscore>
0.2092283070

> <CNNaffinity>
7.1112928391

> <CNN_VS>
1.4878838062

> <CNNaffinity_variance>
0.1505484283

$$$$
[H]c1nc(N([H])c2nn([H])c(C([H])([H])C([H])([H])c3c([H])c(OC([H])([H])[H])c([H])c(OC([H])([H])[H])c3[H])c2[H])c2c([H])c([H])c(N3C([H])([H])[C@]([H])(C([H])([H])[H])N(C([H])([H])[H])[C@]([H])(C([H])([H])[H])C3([H])[H])c([H])c2n1


 39 43  0  0  0  0  0  0  0  0999 V2000
   -3.6092   22.0063  -25.8983 N   0  0  0  0  0  0  0  0  0  0  0  0
   -4.0091   21.0997  -26.2077 H   0  0  0  0  0  0  0  0  0  0  0  0
   -2.2291   22.2097  -25.9740 C   0  0  0  0  0  0  0  0  0  0  0  0
   -1.6121   22.6956  -27.0602 N   0  0  0  0  0  0  0  0  0  0  0  0
   -0.3029   22.8976  -27.1563 C   0  0  0  0  0  0  0  0  0  0  0  0
    0.4641   22.6001  -26.1049 N   0  0  0  0  0  0  0  0  0  0  0  0
   -0.0539   22.1104  -24.9750 C   0  0  0  0  0  0  0  0  0  0  0  0
    0.7926   21.8141  -23.8996 C   0  0  0  0  0  0  0  0  0  0  0  0
    0.3024   21.3091  -22.7195 C   0  0  0  0  0  0  0  0  0  0  0  0
   -1.0539   21.1070  -22.6394 C   0  0  0  0  0  0  0  0  0  0  0  0
   -1.8979   21.4003  -23.7058 C   0  0  0  0  0  0  0  0  0  0  0  0
   -1.4087   21.9019  -24.8771 C   0  0  0  0  0  0  0  0  0  0  0  0
    1.1537   20.9953  -21.5979 N   0  0  0  0  0  0  0  0  0  0  0  0
    0.5284   21.0243  -20.3041 C   0  0  0  0  0  0  0  0  0  0  0  0
    1.3558   20.5030  -19.1824 C   0  0  0  0  0  0  0  0  0  0  0  0
    0.8926   21.0174  -17.8610 C   0  0  0  0  0  0  0  0  0  0  0  0
    2.7904   20.7374  -19.4040 N   0  0  0  0  0  0  0  0  0  0  0  0
    3.0439   22.1516  -19.5086 C   0  0  0  0  0  0  0  0  0  0  0  0
    3.1142   20.0205  -20.6089 C   0  0  0  0  0  0  0  0  0  0  0  0
    4.5808   19.7183  -20.7365 C   0  0  0  0  0  0  0  0  0  0  0  0
    2.5484   20.6789  -21.8365 C   0  0  0  0  0  0  0  0  0  0  0  0
   -5.6404   24.6201  -24.4042 C   0  0  0  0  0  0  0  0  0  0  0  0
   -4.4076   23.9451  -24.4609 C   0  0  0  0  0  0  0  0  0  0  0  0
   -4.5192   22.9754  -25.4172 C   0  0  0  0  0  0  0  0  0  0  0  0
   -5.7925   23.0596  -25.9304 N   0  0  0  0  0  0  0  0  0  0  0  0
   -6.4106   24.0379  -25.3052 N   0  0  0  0  0  0  0  0  0  0  0  0
   -7.4131   24.3349  -25.4941 H   0  0  0  0  0  0  0  0  0  0  0  0
   -5.9433   25.7645  -23.4776 C   0  0  0  0  0  0  0  0  0  0  0  0
   -5.9169   25.1924  -22.0787 C   0  0  0  0  0  0  0  0  0  0  0  0
   -9.3533   26.1453  -20.8270 C   0  0  0  0  0  0  0  0  0  0  0  0
   -8.1017   26.2147  -21.4475 C   0  0  0  0  0  0  0  0  0  0  0  0
   -7.2330   25.1512  -21.4387 C   0  0  0  0  0  0  0  0  0  0  0  0
   -7.6344   24.0001  -20.7934 C   0  0  0  0  0  0  0  0  0  0  0  0
   -8.8807   23.9087  -20.1666 C   0  0  0  0  0  0  0  0  0  0  0  0
   -9.7437   24.9893  -20.1849 C   0  0  0  0  0  0  0  0  0  0  0  0
   -9.8978   28.4776  -20.2878 C   0  0  0  0  0  0  0  0  0  0  0  0
  -10.2332   27.2192  -20.8345 O   0  0  0  0  0  0  0  0  0  0  0  0
   -9.2259   22.7224  -19.5341 O   0  0  0  0  0  0  0  0  0  0  0  0
   -8.7528   21.5060  -20.0402 C   0  0  0  0  0  0  0  0  0  0  0  0
 36 37  1  0  0  0
 37 30  1  0  0  0
 30 31  2  0  0  0
 31 32  1  0  0  0
 32 29  1  0  0  0
 29 28  1  0  0  0
 28 22  1  0  0  0
 22 23  2  0  0  0
 23 24  1  0  0  0
 24  1  1  0  0  0
  1  3  1  0  0  0
  3  4  2  0  0  0
  4  5  1  0  0  0
  5  6  2  0  0  0
  6  7  1  0  0  0
  7  8  2  0  0  0
  8  9  1  0  0  0
  9 10  2  0  0  0
 10 11  1  0  0  0
 11 12  2  0  0  0
  9 13  1  0  0  0
 13 14  1  0  0  0
 14 15  1  0  0  0
 15 16  1  0  0  0
 15 17  1  0  0  0
 17 18  1  0  0  0
 17 19  1  0  0  0
 19 20  1  0  0  0
 19 21  1  0  0  0
 24 25  2  0  0  0
 25 26  1  0  0  0
 32 33  2  0  0  0
 33 34  1  0  0  0
 34 38  1  0  0  0
 38 39  1  0  0  0
 34 35  2  0  0  0
 35 30  1  0  0  0
 26 22  1  0  0  0
 12  3  1  0  0  0
 21 13  1  0  0  0
 12  7  1  0  0  0
  1  2  1  0  0  0
 26 27  1  0  0  0
M  END
> <minimizedAffinity>
-7.61717

> <CNNscore>
0.2060315162

> <CNNaffinity>
6.9041318893

> <CNN_VS>
1.4224687815

> <CNNaffinity_variance>
0.3895253539

$$$$
[H]c1nc(C([H])([H])[H])c([H])nc1N1C(=O)N(c2c(F)c(OC([H])([H])[H])c([H])c(OC([H])([H])[H])c2F)C([H])([H])c2c([H])nc(-c3c(C([H])([H])[H])nn(C([H])([H])[H])c3[H])c([H])c21


 37 41  0  0  0  0  0  0  0  0999 V2000
   -7.4206   23.4482  -19.4388 N   0  0  0  0  0  0  0  0  0  0  0  0
   -6.6116   24.1301  -18.4981 C   0  0  0  0  0  0  0  0  0  0  0  0
   -5.7498   23.1270  -17.7528 C   0  0  0  0  0  0  0  0  0  0  0  0
   -4.5681   23.5472  -17.1825 C   0  0  0  0  0  0  0  0  0  0  0  0
   -3.8214   22.7278  -16.4144 N   0  0  0  0  0  0  0  0  0  0  0  0
   -4.2097   21.4660  -16.1796 C   0  0  0  0  0  0  0  0  0  0  0  0
   -5.3831   21.0144  -16.7337 C   0  0  0  0  0  0  0  0  0  0  0  0
   -6.1588   21.8394  -17.5250 C   0  0  0  0  0  0  0  0  0  0  0  0
   -7.2811   21.2988  -18.2379 N   0  0  0  0  0  0  0  0  0  0  0  0
   -7.9131   22.1492  -19.2019 C   0  0  0  0  0  0  0  0  0  0  0  0
   -8.9011   21.7464  -19.8331 O   0  0  0  0  0  0  0  0  0  0  0  0
   -8.8751   25.4419  -22.2551 C   0  0  0  0  0  0  0  0  0  0  0  0
   -8.1520   24.9027  -23.2630 C   0  0  0  0  0  0  0  0  0  0  0  0
   -7.1529   23.8952  -23.1095 C   0  0  0  0  0  0  0  0  0  0  0  0
   -6.9762   23.4944  -21.7829 C   0  0  0  0  0  0  0  0  0  0  0  0
   -6.0542   22.5632  -21.5630 F   0  0  0  0  0  0  0  0  0  0  0  0
   -7.6894   24.0122  -20.7194 C   0  0  0  0  0  0  0  0  0  0  0  0
   -8.6050   24.9577  -20.9684 C   0  0  0  0  0  0  0  0  0  0  0  0
   -9.3391   25.5126  -19.9521 F   0  0  0  0  0  0  0  0  0  0  0  0
  -11.1650   25.9495  -22.7460 C   0  0  0  0  0  0  0  0  0  0  0  0
   -9.8547   26.4380  -22.4467 O   0  0  0  0  0  0  0  0  0  0  0  0
   -6.5042   23.4230  -24.1002 O   0  0  0  0  0  0  0  0  0  0  0  0
   -5.9443   22.9391  -25.1384 C   0  0  0  0  0  0  0  0  0  0  0  0
   -7.7435   19.9832  -18.0077 C   0  0  0  0  0  0  0  0  0  0  0  0
   -8.7026   19.7668  -17.0614 C   0  0  0  0  0  0  0  0  0  0  0  0
   -9.1861   18.5120  -16.8082 N   0  0  0  0  0  0  0  0  0  0  0  0
   -8.6815   17.4957  -17.5254 C   0  0  0  0  0  0  0  0  0  0  0  0
   -9.2096   16.1355  -17.2686 C   0  0  0  0  0  0  0  0  0  0  0  0
   -7.7193   17.6970  -18.4763 C   0  0  0  0  0  0  0  0  0  0  0  0
   -7.2587   18.9579  -18.7050 N   0  0  0  0  0  0  0  0  0  0  0  0
   -3.4092   20.5497  -15.3573 C   0  0  0  0  0  0  0  0  0  0  0  0
   -3.6099   20.2631  -14.0375 C   0  0  0  0  0  0  0  0  0  0  0  0
   -2.6753   19.3901  -13.6637 N   0  0  0  0  0  0  0  0  0  0  0  0
   -2.5415   18.8242  -12.3277 C   0  0  0  0  0  0  0  0  0  0  0  0
   -1.8604   19.0919  -14.6998 N   0  0  0  0  0  0  0  0  0  0  0  0
   -2.3239   19.8153  -15.7468 C   0  0  0  0  0  0  0  0  0  0  0  0
   -1.6959   19.7687  -17.1180 C   0  0  0  0  0  0  0  0  0  0  0  0
 20 21  1  0  0  0
 21 12  1  0  0  0
 12 13  2  0  0  0
 13 14  1  0  0  0
 14 22  1  0  0  0
 22 23  1  0  0  0
 14 15  2  0  0  0
 15 16  1  0  0  0
 15 17  1  0  0  0
 17  1  1  0  0  0
  1  2  1  0  0  0
  2  3  1  0  0  0
  3  4  2  0  0  0
  4  5  1  0  0  0
  5  6  2  0  0  0
  6  7  1  0  0  0
  7  8  2  0  0  0
  8  9  1  0  0  0
  9 10  1  0  0  0
 10 11  2  0  0  0
  9 24  1  0  0  0
 24 25  2  0  0  0
 25 26  1  0  0  0
 26 27  2  0  0  0
 27 28  1  0  0  0
 27 29  1  0  0  0
 29 30  2  0  0  0
  6 31  1  0  0  0
 31 32  2  0  0  0
 32 33  1  0  0  0
 33 34  1  0  0  0
 33 35  1  0  0  0
 35 36  2  0  0  0
 36 37  1  0  0  0
 17 18  2  0  0  0
 18 19  1  0  0  0
 18 12  1  0  0  0
 10  1  1  0  0  0
 30 24  1  0  0  0
 36 31  1  0  0  0
  8  3  1  0  0  0
M  END
> <minimizedAffinity>
-5.60881

> <CNNscore>
0.3257314563

> <CNNaffinity>
6.5839753151

> <CNN_VS>
2.1446077824

> <CNNaffinity_variance>
0.2964198589

$$$$
[H]c1nc(C([H])([H])[H])c([H])nc1N1C(=O)N(c2c(F)c(OC([H])([H])[H])c([H])c(OC([H])([H])[H])c2F)C([H])([H])c2c([H])nc(-c3c(C([H])([H])[H])nn(C([H])([H])[H])c3[H])c([H])c21


 37 41  0  0  0  0  0  0  0  0999 V2000
   -7.2234   23.6587  -19.7662 N   0  0  0  0  0  0  0  0  0  0  0  0
   -6.5733   24.5747  -18.9044 C   0  0  0  0  0  0  0  0  0  0  0  0
   -6.2927   23.9023  -17.5726 C   0  0  0  0  0  0  0  0  0  0  0  0
   -5.2662   24.3735  -16.7836 C   0  0  0  0  0  0  0  0  0  0  0  0
   -5.0455   23.8891  -15.5443 N   0  0  0  0  0  0  0  0  0  0  0  0
   -5.8259   22.9242  -15.0367 C   0  0  0  0  0  0  0  0  0  0  0  0
   -6.8586   22.4312  -15.7973 C   0  0  0  0  0  0  0  0  0  0  0  0
   -7.0972   22.9140  -17.0695 C   0  0  0  0  0  0  0  0  0  0  0  0
   -8.0610   22.2652  -17.9121 N   0  0  0  0  0  0  0  0  0  0  0  0
   -8.1100   22.6753  -19.2837 C   0  0  0  0  0  0  0  0  0  0  0  0
   -8.9368   22.1673  -20.0552 O   0  0  0  0  0  0  0  0  0  0  0  0
   -7.3346   24.1526  -23.4764 C   0  0  0  0  0  0  0  0  0  0  0  0
   -6.2840   23.3664  -23.8044 C   0  0  0  0  0  0  0  0  0  0  0  0
   -5.4705   22.6525  -22.8743 C   0  0  0  0  0  0  0  0  0  0  0  0
   -5.8629   22.8372  -21.5463 C   0  0  0  0  0  0  0  0  0  0  0  0
   -5.1441   22.2079  -20.6229 F   0  0  0  0  0  0  0  0  0  0  0  0
   -6.9279   23.6274  -21.1598 C   0  0  0  0  0  0  0  0  0  0  0  0
   -7.6286   24.2591  -22.1107 C   0  0  0  0  0  0  0  0  0  0  0  0
   -8.6920   25.0613  -21.7866 F   0  0  0  0  0  0  0  0  0  0  0  0
   -7.6415   24.7650  -25.7728 C   0  0  0  0  0  0  0  0  0  0  0  0
   -8.1152   24.8441  -24.4257 O   0  0  0  0  0  0  0  0  0  0  0  0
   -4.4924   21.9235  -23.2446 O   0  0  0  0  0  0  0  0  0  0  0  0
   -3.5210   21.2386  -23.7059 C   0  0  0  0  0  0  0  0  0  0  0  0
   -8.9229   21.2601  -17.4175 C   0  0  0  0  0  0  0  0  0  0  0  0
  -10.1327   21.6135  -16.8947 C   0  0  0  0  0  0  0  0  0  0  0  0
  -11.0033   20.6755  -16.4102 N   0  0  0  0  0  0  0  0  0  0  0  0
  -10.6242   19.3891  -16.4661 C   0  0  0  0  0  0  0  0  0  0  0  0
  -11.5664   18.3650  -15.9576 C   0  0  0  0  0  0  0  0  0  0  0  0
   -9.4144   19.0196  -16.9863 C   0  0  0  0  0  0  0  0  0  0  0  0
   -8.5702   19.9770  -17.4606 N   0  0  0  0  0  0  0  0  0  0  0  0
   -5.5997   22.3709  -13.6953 C   0  0  0  0  0  0  0  0  0  0  0  0
   -4.9778   21.1914  -13.4015 C   0  0  0  0  0  0  0  0  0  0  0  0
   -4.9733   21.0525  -12.0764 N   0  0  0  0  0  0  0  0  0  0  0  0
   -4.3978   19.9266  -11.3523 C   0  0  0  0  0  0  0  0  0  0  0  0
   -5.5765   22.1073  -11.4848 N   0  0  0  0  0  0  0  0  0  0  0  0
   -5.9612   22.9209  -12.4970 C   0  0  0  0  0  0  0  0  0  0  0  0
   -6.6736   24.2316  -12.2703 C   0  0  0  0  0  0  0  0  0  0  0  0
 20 21  1  0  0  0
 21 12  1  0  0  0
 12 13  2  0  0  0
 13 14  1  0  0  0
 14 22  1  0  0  0
 22 23  1  0  0  0
 14 15  2  0  0  0
 15 16  1  0  0  0
 15 17  1  0  0  0
 17  1  1  0  0  0
  1  2  1  0  0  0
  2  3  1  0  0  0
  3  4  2  0  0  0
  4  5  1  0  0  0
  5  6  2  0  0  0
  6  7  1  0  0  0
  7  8  2  0  0  0
  8  9  1  0  0  0
  9 10  1  0  0  0
 10 11  2  0  0  0
  9 24  1  0  0  0
 24 25  2  0  0  0
 25 26  1  0  0  0
 26 27  2  0  0  0
 27 28  1  0  0  0
 27 29  1  0  0  0
 29 30  2  0  0  0
  6 31  1  0  0  0
 31 32  2  0  0  0
 32 33  1  0  0  0
 33 34  1  0  0  0
 33 35  1  0  0  0
 35 36  2  0  0  0
 36 37  1  0  0  0
 17 18  2  0  0  0
 18 19  1  0  0  0
 18 12  1  0  0  0
 10  1  1  0  0  0
 30 24  1  0  0  0
 36 31  1  0  0  0
  8  3  1  0  0  0
M  END
> <minimizedAffinity>
-5.75191

> <CNNscore>
0.2836164236

> <CNNaffinity>
6.3421850204

> <CNN_VS>
1.7987477779

> <CNNaffinity_variance>
0.0744564384

$$$$
[H]c1nc(C([H])([H])[H])c([H])nc1N1C(=O)N(c2c(F)c(OC([H])([H])[H])c([H])c(OC([H])([H])[H])c2F)C([H])([H])c2c([H])nc(-c3c(C([H])([H])[H])nn(C([H])([H])[H])c3[H])c([H])c21


 37 41  0  0  0  0  0  0  0  0999 V2000
   -7.0856   23.0202  -19.8196 N   0  0  0  0  0  0  0  0  0  0  0  0
   -6.1438   23.6633  -18.9808 C   0  0  0  0  0  0  0  0  0  0  0  0
   -5.3226   22.6169  -18.2491 C   0  0  0  0  0  0  0  0  0  0  0  0
   -4.0649   22.9462  -17.7930 C   0  0  0  0  0  0  0  0  0  0  0  0
   -3.3390   22.0947  -17.0399 N   0  0  0  0  0  0  0  0  0  0  0  0
   -3.8236   20.8891  -16.7086 C   0  0  0  0  0  0  0  0  0  0  0  0
   -5.0747   20.5286  -17.1476 C   0  0  0  0  0  0  0  0  0  0  0  0
   -5.8307   21.3874  -17.9218 C   0  0  0  0  0  0  0  0  0  0  0  0
   -7.0520   20.9260  -18.5179 N   0  0  0  0  0  0  0  0  0  0  0  0
   -7.6769   21.7880  -19.4764 C   0  0  0  0  0  0  0  0  0  0  0  0
   -8.7456   21.4543  -20.0087 O   0  0  0  0  0  0  0  0  0  0  0  0
   -7.0614   23.8446  -23.4724 C   0  0  0  0  0  0  0  0  0  0  0  0
   -8.0753   24.7399  -23.4719 C   0  0  0  0  0  0  0  0  0  0  0  0
   -8.8353   25.1194  -22.3252 C   0  0  0  0  0  0  0  0  0  0  0  0
   -8.4311   24.4673  -21.1576 C   0  0  0  0  0  0  0  0  0  0  0  0
   -9.1010   24.7659  -20.0497 F   0  0  0  0  0  0  0  0  0  0  0  0
   -7.4021   23.5473  -21.1051 C   0  0  0  0  0  0  0  0  0  0  0  0
   -6.7508   23.2568  -22.2390 C   0  0  0  0  0  0  0  0  0  0  0  0
   -5.7250   22.3474  -22.2491 F   0  0  0  0  0  0  0  0  0  0  0  0
   -5.4886   24.5246  -25.1475 C   0  0  0  0  0  0  0  0  0  0  0  0
   -6.3333   23.4942  -24.6281 O   0  0  0  0  0  0  0  0  0  0  0  0
   -9.7804   25.9728  -22.3866 O   0  0  0  0  0  0  0  0  0  0  0  0
  -10.7631   26.7847  -22.3636 C   0  0  0  0  0  0  0  0  0  0  0  0
   -7.6156   19.6740  -18.1827 C   0  0  0  0  0  0  0  0  0  0  0  0
   -8.5944   19.6129  -17.2338 C   0  0  0  0  0  0  0  0  0  0  0  0
   -9.1744   18.4249  -16.8810 N   0  0  0  0  0  0  0  0  0  0  0  0
   -8.7448   17.3155  -17.5026 C   0  0  0  0  0  0  0  0  0  0  0  0
   -9.3774   16.0263  -17.1379 C   0  0  0  0  0  0  0  0  0  0  0  0
   -7.7641   17.3607  -18.4548 C   0  0  0  0  0  0  0  0  0  0  0  0
   -7.2066   18.5587  -18.7840 N   0  0  0  0  0  0  0  0  0  0  0  0
   -3.0491   19.9386  -15.9003 C   0  0  0  0  0  0  0  0  0  0  0  0
   -2.4085   18.8228  -16.3573 C   0  0  0  0  0  0  0  0  0  0  0  0
   -1.8235   18.2337  -15.3152 N   0  0  0  0  0  0  0  0  0  0  0  0
   -1.0318   17.0119  -15.3771 C   0  0  0  0  0  0  0  0  0  0  0  0
   -2.0603   18.9283  -14.1805 N   0  0  0  0  0  0  0  0  0  0  0  0
   -2.8207   19.9853  -14.5532 C   0  0  0  0  0  0  0  0  0  0  0  0
   -3.3069   21.0302  -13.5791 C   0  0  0  0  0  0  0  0  0  0  0  0
 20 21  1  0  0  0
 21 12  1  0  0  0
 12 13  2  0  0  0
 13 14  1  0  0  0
 14 22  1  0  0  0
 22 23  1  0  0  0
 14 15  2  0  0  0
 15 16  1  0  0  0
 15 17  1  0  0  0
 17  1  1  0  0  0
  1  2  1  0  0  0
  2  3  1  0  0  0
  3  4  2  0  0  0
  4  5  1  0  0  0
  5  6  2  0  0  0
  6  7  1  0  0  0
  7  8  2  0  0  0
  8  9  1  0  0  0
  9 10  1  0  0  0
 10 11  2  0  0  0
  9 24  1  0  0  0
 24 25  2  0  0  0
 25 26  1  0  0  0
 26 27  2  0  0  0
 27 28  1  0  0  0
 27 29  1  0  0  0
 29 30  2  0  0  0
  6 31  1  0  0  0
 31 32  2  0  0  0
 32 33  1  0  0  0
 33 34  1  0  0  0
 33 35  1  0  0  0
 35 36  2  0  0  0
 36 37  1  0  0  0
 17 18  2  0  0  0
 18 19  1  0  0  0
 18 12  1  0  0  0
 10  1  1  0  0  0
 30 24  1  0  0  0
 36 31  1  0  0  0
  8  3  1  0  0  0
M  END
> <minimizedAffinity>
-5.36845

> <CNNscore>
0.2715843916

> <CNNaffinity>
6.4933137894

> <CNN_VS>
1.7634826899

> <CNNaffinity_variance>
0.2796134055

$$$$
[H]c1nc(C([H])([H])[H])c([H])nc1N1C(=O)N(c2c(F)c(OC([H])([H])[H])c([H])c(OC([H])([H])[H])c2F)C([H])([H])c2c([H])nc(-c3c(C([H])([H])[H])nn(C([H])([H])[H])c3[H])c([H])c21


 37 41  0  0  0  0  0  0  0  0999 V2000
   -6.1383   22.6231  -19.5219 N   0  0  0  0  0  0  0  0  0  0  0  0
   -6.3643   21.2299  -19.6321 C   0  0  0  0  0  0  0  0  0  0  0  0
   -7.1162   20.7423  -18.4067 C   0  0  0  0  0  0  0  0  0  0  0  0
   -7.8746   19.5954  -18.4945 C   0  0  0  0  0  0  0  0  0  0  0  0
   -8.4701   19.0553  -17.4116 N   0  0  0  0  0  0  0  0  0  0  0  0
   -8.3414   19.6234  -16.2039 C   0  0  0  0  0  0  0  0  0  0  0  0
   -7.5922   20.7687  -16.0811 C   0  0  0  0  0  0  0  0  0  0  0  0
   -6.9775   21.3367  -17.1802 C   0  0  0  0  0  0  0  0  0  0  0  0
   -6.3531   22.6239  -17.0652 N   0  0  0  0  0  0  0  0  0  0  0  0
   -5.9239   23.2519  -18.2791 C   0  0  0  0  0  0  0  0  0  0  0  0
   -5.3577   24.3542  -18.2421 O   0  0  0  0  0  0  0  0  0  0  0  0
   -5.2972   24.7564  -22.4823 C   0  0  0  0  0  0  0  0  0  0  0  0
   -6.5460   25.1945  -22.7618 C   0  0  0  0  0  0  0  0  0  0  0  0
   -7.7247   24.8276  -22.0457 C   0  0  0  0  0  0  0  0  0  0  0  0
   -7.4747   23.9463  -20.9909 C   0  0  0  0  0  0  0  0  0  0  0  0
   -8.5289   23.5542  -20.2837 F   0  0  0  0  0  0  0  0  0  0  0  0
   -6.2195   23.4713  -20.6640 C   0  0  0  0  0  0  0  0  0  0  0  0
   -5.1758   23.8743  -21.4005 C   0  0  0  0  0  0  0  0  0  0  0  0
   -3.9075   23.4317  -21.1267 F   0  0  0  0  0  0  0  0  0  0  0  0
   -3.8784   24.3435  -24.3687 C   0  0  0  0  0  0  0  0  0  0  0  0
   -4.1554   25.1415  -23.2148 O   0  0  0  0  0  0  0  0  0  0  0  0
   -8.8771   25.2761  -22.3556 O   0  0  0  0  0  0  0  0  0  0  0  0
  -10.0438   25.7444  -22.5672 C   0  0  0  0  0  0  0  0  0  0  0  0
   -6.1723   23.2525  -15.8123 C   0  0  0  0  0  0  0  0  0  0  0  0
   -5.1211   22.8840  -15.0241 C   0  0  0  0  0  0  0  0  0  0  0  0
   -4.9015   23.4689  -13.8067 N   0  0  0  0  0  0  0  0  0  0  0  0
   -5.7604   24.4218  -13.4117 C   0  0  0  0  0  0  0  0  0  0  0  0
   -5.5221   25.0713  -12.1015 C   0  0  0  0  0  0  0  0  0  0  0  0
   -6.8189   24.8010  -14.1902 C   0  0  0  0  0  0  0  0  0  0  0  0
   -7.0104   24.1999  -15.3970 N   0  0  0  0  0  0  0  0  0  0  0  0
   -8.9893   19.0626  -15.0113 C   0  0  0  0  0  0  0  0  0  0  0  0
   -8.3608   18.6151  -13.8848 C   0  0  0  0  0  0  0  0  0  0  0  0
   -9.2972   18.1872  -13.0389 N   0  0  0  0  0  0  0  0  0  0  0  0
   -9.0431   17.6348  -11.7147 C   0  0  0  0  0  0  0  0  0  0  0  0
  -10.5284   18.3380  -13.5753 N   0  0  0  0  0  0  0  0  0  0  0  0
  -10.3278   18.8829  -14.7988 C   0  0  0  0  0  0  0  0  0  0  0  0
  -11.4569   19.2250  -15.7396 C   0  0  0  0  0  0  0  0  0  0  0  0
 20 21  1  0  0  0
 21 12  1  0  0  0
 12 13  2  0  0  0
 13 14  1  0  0  0
 14 22  1  0  0  0
 22 23  1  0  0  0
 14 15  2  0  0  0
 15 16  1  0  0  0
 15 17  1  0  0  0
 17  1  1  0  0  0
  1  2  1  0  0  0
  2  3  1  0  0  0
  3  4  2  0  0  0
  4  5  1  0  0  0
  5  6  2  0  0  0
  6  7  1  0  0  0
  7  8  2  0  0  0
  8  9  1  0  0  0
  9 10  1  0  0  0
 10 11  2  0  0  0
  9 24  1  0  0  0
 24 25  2  0  0  0
 25 26  1  0  0  0
 26 27  2  0  0  0
 27 28  1  0  0  0
 27 29  1  0  0  0
 29 30  2  0  0  0
  6 31  1  0  0  0
 31 32  2  0  0  0
 32 33  1  0  0  0
 33 34  1  0  0  0
 33 35  1  0  0  0
 35 36  2  0  0  0
 36 37  1  0  0  0
 17 18  2  0  0  0
 18 19  1  0  0  0
 18 12  1  0  0  0
 10  1  1  0  0  0
 30 24  1  0  0  0
 36 31  1  0  0  0
  8  3  1  0  0  0
M  END
> <minimizedAffinity>
-6.00136

> <CNNscore>
0.2664934099

> <CNNaffinity>
6.3270540237

> <CNN_VS>
1.6861182451

> <CNNaffinity_variance>
0.1974035203

$$$$
[H]c1nc(C([H])([H])[H])c([H])nc1N1C(=O)N(c2c(F)c(OC([H])([H])[H])c([H])c(OC([H])([H])[H])c2F)C([H])([H])c2c([H])nc(-c3c(C([H])([H])[H])nn(C([H])([H])[H])c3[H])c([H])c21


 37 41  0  0  0  0  0  0  0  0999 V2000
   -6.2734   22.4868  -19.5499 N   0  0  0  0  0  0  0  0  0  0  0  0
   -6.5352   21.1012  -19.6752 C   0  0  0  0  0  0  0  0  0  0  0  0
   -7.2583   20.6102  -18.4340 C   0  0  0  0  0  0  0  0  0  0  0  0
   -8.0457   19.4825  -18.5155 C   0  0  0  0  0  0  0  0  0  0  0  0
   -8.6183   18.9378  -17.4226 N   0  0  0  0  0  0  0  0  0  0  0  0
   -8.4375   19.4824  -16.2107 C   0  0  0  0  0  0  0  0  0  0  0  0
   -7.6582   20.6080  -16.0939 C   0  0  0  0  0  0  0  0  0  0  0  0
   -7.0663   21.1804  -17.2032 C   0  0  0  0  0  0  0  0  0  0  0  0
   -6.4087   22.4509  -17.0879 N   0  0  0  0  0  0  0  0  0  0  0  0
   -6.0043   23.0895  -18.3048 C   0  0  0  0  0  0  0  0  0  0  0  0
   -5.4117   24.1778  -18.2685 O   0  0  0  0  0  0  0  0  0  0  0  0
   -7.4574   25.0104  -22.0504 C   0  0  0  0  0  0  0  0  0  0  0  0
   -6.4561   24.8717  -22.9491 C   0  0  0  0  0  0  0  0  0  0  0  0
   -5.3427   23.9900  -22.8088 C   0  0  0  0  0  0  0  0  0  0  0  0
   -5.3723   23.2521  -21.6229 C   0  0  0  0  0  0  0  0  0  0  0  0
   -4.3608   22.4147  -21.4205 F   0  0  0  0  0  0  0  0  0  0  0  0
   -6.3716   23.3558  -20.6749 C   0  0  0  0  0  0  0  0  0  0  0  0
   -7.3738   24.2158  -20.8994 C   0  0  0  0  0  0  0  0  0  0  0  0
   -8.3902   24.3657  -19.9917 F   0  0  0  0  0  0  0  0  0  0  0  0
   -9.6643   25.3468  -22.9214 C   0  0  0  0  0  0  0  0  0  0  0  0
   -8.5421   25.8945  -22.2243 O   0  0  0  0  0  0  0  0  0  0  0  0
   -4.4288   23.9013  -23.6931 O   0  0  0  0  0  0  0  0  0  0  0  0
   -3.5236   23.7117  -24.5707 C   0  0  0  0  0  0  0  0  0  0  0  0
   -6.1729   23.0539  -15.8315 C   0  0  0  0  0  0  0  0  0  0  0  0
   -5.1099   22.6432  -15.0809 C   0  0  0  0  0  0  0  0  0  0  0  0
   -4.8377   23.2020  -13.8619 N   0  0  0  0  0  0  0  0  0  0  0  0
   -5.6567   24.1724  -13.4268 C   0  0  0  0  0  0  0  0  0  0  0  0
   -5.3612   24.7938  -12.1147 C   0  0  0  0  0  0  0  0  0  0  0  0
   -6.7265   24.5938  -14.1674 C   0  0  0  0  0  0  0  0  0  0  0  0
   -6.9708   24.0179  -15.3769 N   0  0  0  0  0  0  0  0  0  0  0  0
   -9.0594   18.9164  -15.0068 C   0  0  0  0  0  0  0  0  0  0  0  0
   -8.4082   18.4856  -13.8867 C   0  0  0  0  0  0  0  0  0  0  0  0
   -9.3256   18.0456  -13.0263 N   0  0  0  0  0  0  0  0  0  0  0  0
   -9.0441   17.5045  -11.7030 C   0  0  0  0  0  0  0  0  0  0  0  0
  -10.5663   18.1722  -13.5467 N   0  0  0  0  0  0  0  0  0  0  0  0
  -10.3916   18.7143  -14.7755 C   0  0  0  0  0  0  0  0  0  0  0  0
  -11.5390   19.0319  -15.7026 C   0  0  0  0  0  0  0  0  0  0  0  0
 20 21  1  0  0  0
 21 12  1  0  0  0
 12 13  2  0  0  0
 13 14  1  0  0  0
 14 22  1  0  0  0
 22 23  1  0  0  0
 14 15  2  0  0  0
 15 16  1  0  0  0
 15 17  1  0  0  0
 17  1  1  0  0  0
  1  2  1  0  0  0
  2  3  1  0  0  0
  3  4  2  0  0  0
  4  5  1  0  0  0
  5  6  2  0  0  0
  6  7  1  0  0  0
  7  8  2  0  0  0
  8  9  1  0  0  0
  9 10  1  0  0  0
 10 11  2  0  0  0
  9 24  1  0  0  0
 24 25  2  0  0  0
 25 26  1  0  0  0
 26 27  2  0  0  0
 27 28  1  0  0  0
 27 29  1  0  0  0
 29 30  2  0  0  0
  6 31  1  0  0  0
 31 32  2  0  0  0
 32 33  1  0  0  0
 33 34  1  0  0  0
 33 35  1  0  0  0
 35 36  2  0  0  0
 36 37  1  0  0  0
 17 18  2  0  0  0
 18 19  1  0  0  0
 18 12  1  0  0  0
 10  1  1  0  0  0
 30 24  1  0  0  0
 36 31  1  0  0  0
  8  3  1  0  0  0
M  END
> <minimizedAffinity>
-5.66262

> <CNNscore>
0.2625229955

> <CNNaffinity>
6.3777284622

> <CNN_VS>
1.6743004322

> <CNNaffinity_variance>
0.2522729039

$$$$
[H]c1nc(C([H])([H])[H])c([H])nc1N1C(=O)N(c2c(F)c(OC([H])([H])[H])c([H])c(OC([H])([H])[H])c2F)C([H])([H])c2c([H])nc(-c3c(C([H])([H])[H])nn(C([H])([H])[H])c3[H])c([H])c21


 37 41  0  0  0  0  0  0  0  0999 V2000
    0.4264   20.2322  -20.9060 N   0  0  0  0  0  0  0  0  0  0  0  0
    0.3407   18.8215  -20.9894 C   0  0  0  0  0  0  0  0  0  0  0  0
    0.1292   18.2460  -19.6007 C   0  0  0  0  0  0  0  0  0  0  0  0
   -0.4721   17.0135  -19.4673 C   0  0  0  0  0  0  0  0  0  0  0  0
   -0.5821   16.4050  -18.2686 N   0  0  0  0  0  0  0  0  0  0  0  0
   -0.1050   16.9865  -17.1585 C   0  0  0  0  0  0  0  0  0  0  0  0
    0.5002   18.2162  -17.2561 C   0  0  0  0  0  0  0  0  0  0  0  0
    0.6190   18.8547  -18.4753 C   0  0  0  0  0  0  0  0  0  0  0  0
    1.0890   20.2097  -18.5307 N   0  0  0  0  0  0  0  0  0  0  0  0
    0.9883   20.8845  -19.7903 C   0  0  0  0  0  0  0  0  0  0  0  0
    1.3984   22.0487  -19.9063 O   0  0  0  0  0  0  0  0  0  0  0  0
   -0.1136   22.3297  -23.9607 C   0  0  0  0  0  0  0  0  0  0  0  0
   -1.3691   22.7497  -23.6833 C   0  0  0  0  0  0  0  0  0  0  0  0
   -2.1224   22.3807  -22.5288 C   0  0  0  0  0  0  0  0  0  0  0  0
   -1.4312   21.5182  -21.6743 C   0  0  0  0  0  0  0  0  0  0  0  0
   -2.0754   21.1252  -20.5808 F   0  0  0  0  0  0  0  0  0  0  0  0
   -0.1491   21.0621  -21.9113 C   0  0  0  0  0  0  0  0  0  0  0  0
    0.4730   21.4654  -23.0269 C   0  0  0  0  0  0  0  0  0  0  0  0
    1.7437   21.0410  -23.3177 F   0  0  0  0  0  0  0  0  0  0  0  0
    0.0478   22.2538  -26.3503 C   0  0  0  0  0  0  0  0  0  0  0  0
    0.5990   22.7163  -25.1144 O   0  0  0  0  0  0  0  0  0  0  0  0
   -3.3039   22.8117  -22.3202 O   0  0  0  0  0  0  0  0  0  0  0  0
   -4.4514   23.2823  -22.0247 C   0  0  0  0  0  0  0  0  0  0  0  0
    1.6233   20.8577  -17.3939 C   0  0  0  0  0  0  0  0  0  0  0  0
    2.9596   20.7617  -17.1350 C   0  0  0  0  0  0  0  0  0  0  0  0
    3.5233   21.3772  -16.0508 N   0  0  0  0  0  0  0  0  0  0  0  0
    2.7126   22.0816  -15.2456 C   0  0  0  0  0  0  0  0  0  0  0  0
    3.3164   22.7640  -14.0773 C   0  0  0  0  0  0  0  0  0  0  0  0
    1.3713   22.1861  -15.4916 C   0  0  0  0  0  0  0  0  0  0  0  0
    0.8404   21.5619  -16.5792 N   0  0  0  0  0  0  0  0  0  0  0  0
   -0.2228   16.3511  -15.8398 C   0  0  0  0  0  0  0  0  0  0  0  0
    0.7458   15.6334  -15.1987 C   0  0  0  0  0  0  0  0  0  0  0  0
    0.2474   15.2294  -14.0309 N   0  0  0  0  0  0  0  0  0  0  0  0
    0.9654   14.4373  -13.0408 C   0  0  0  0  0  0  0  0  0  0  0  0
   -1.0252   15.6589  -13.8819 N   0  0  0  0  0  0  0  0  0  0  0  0
   -1.3083   16.3550  -15.0087 C   0  0  0  0  0  0  0  0  0  0  0  0
   -2.6414   17.0199  -15.2490 C   0  0  0  0  0  0  0  0  0  0  0  0
 20 21  1  0  0  0
 21 12  1  0  0  0
 12 13  2  0  0  0
 13 14  1  0  0  0
 14 22  1  0  0  0
 22 23  1  0  0  0
 14 15  2  0  0  0
 15 16  1  0  0  0
 15 17  1  0  0  0
 17  1  1  0  0  0
  1  2  1  0  0  0
  2  3  1  0  0  0
  3  4  2  0  0  0
  4  5  1  0  0  0
  5  6  2  0  0  0
  6  7  1  0  0  0
  7  8  2  0  0  0
  8  9  1  0  0  0
  9 10  1  0  0  0
 10 11  2  0  0  0
  9 24  1  0  0  0
 24 25  2  0  0  0
 25 26  1  0  0  0
 26 27  2  0  0  0
 27 28  1  0  0  0
 27 29  1  0  0  0
 29 30  2  0  0  0
  6 31  1  0  0  0
 31 32  2  0  0  0
 32 33  1  0  0  0
 33 34  1  0  0  0
 33 35  1  0  0  0
 35 36  2  0  0  0
 36 37  1  0  0  0
 17 18  2  0  0  0
 18 19  1  0  0  0
 18 12  1  0  0  0
 10  1  1  0  0  0
 30 24  1  0  0  0
 36 31  1  0  0  0
  8  3  1  0  0  0
M  END
> <minimizedAffinity>
-4.84974

> <CNNscore>
0.2613068819

> <CNNaffinity>
6.6580381393

> <CNN_VS>
1.7397911549

> <CNNaffinity_variance>
0.4873627126

$$$$
[H]c1nc(C([H])([H])[H])c([H])nc1N1C(=O)N(c2c(F)c(OC([H])([H])[H])c([H])c(OC([H])([H])[H])c2F)C([H])([H])c2c([H])nc(-c3c(C([H])([H])[H])nn(C([H])([H])[H])c3[H])c([H])c21


 37 41  0  0  0  0  0  0  0  0999 V2000
   -0.6991   21.4535  -18.7903 N   0  0  0  0  0  0  0  0  0  0  0  0
   -0.9261   21.7996  -17.4364 C   0  0  0  0  0  0  0  0  0  0  0  0
   -2.4198   21.8330  -17.1679 C   0  0  0  0  0  0  0  0  0  0  0  0
   -2.8771   21.6432  -15.8821 C   0  0  0  0  0  0  0  0  0  0  0  0
   -4.1820   21.7752  -15.5675 N   0  0  0  0  0  0  0  0  0  0  0  0
   -5.0838   22.0983  -16.5057 C   0  0  0  0  0  0  0  0  0  0  0  0
   -4.6617   22.2940  -17.7985 C   0  0  0  0  0  0  0  0  0  0  0  0
   -3.3294   22.1605  -18.1387 C   0  0  0  0  0  0  0  0  0  0  0  0
   -2.9367   22.1911  -19.5188 N   0  0  0  0  0  0  0  0  0  0  0  0
   -1.5820   21.8359  -19.8200 C   0  0  0  0  0  0  0  0  0  0  0  0
   -1.1775   21.8653  -20.9915 O   0  0  0  0  0  0  0  0  0  0  0  0
    1.4240   18.4852  -19.6293 C   0  0  0  0  0  0  0  0  0  0  0  0
    2.6068   19.1282  -19.7591 C   0  0  0  0  0  0  0  0  0  0  0  0
    2.7982   20.5344  -19.6086 C   0  0  0  0  0  0  0  0  0  0  0  0
    1.6197   21.2196  -19.3031 C   0  0  0  0  0  0  0  0  0  0  0  0
    1.7207   22.5363  -19.1565 F   0  0  0  0  0  0  0  0  0  0  0  0
    0.3887   20.6100  -19.1586 C   0  0  0  0  0  0  0  0  0  0  0  0
    0.3135   19.2827  -19.3226 C   0  0  0  0  0  0  0  0  0  0  0  0
   -0.8821   18.6239  -19.1972 F   0  0  0  0  0  0  0  0  0  0  0  0
    1.5072   16.6034  -21.1105 C   0  0  0  0  0  0  0  0  0  0  0  0
    1.2743   17.0919  -19.7868 O   0  0  0  0  0  0  0  0  0  0  0  0
    3.9408   21.0841  -19.7411 O   0  0  0  0  0  0  0  0  0  0  0  0
    5.0361   21.7124  -19.9167 C   0  0  0  0  0  0  0  0  0  0  0  0
   -3.8440   22.5493  -20.5415 C   0  0  0  0  0  0  0  0  0  0  0  0
   -4.5742   21.5763  -21.1596 C   0  0  0  0  0  0  0  0  0  0  0  0
   -5.4697   21.8754  -22.1500 N   0  0  0  0  0  0  0  0  0  0  0  0
   -5.6055   23.1654  -22.4955 C   0  0  0  0  0  0  0  0  0  0  0  0
   -6.5836   23.5006  -23.5566 C   0  0  0  0  0  0  0  0  0  0  0  0
   -4.8799   24.1515  -21.8858 C   0  0  0  0  0  0  0  0  0  0  0  0
   -3.9967   23.8215  -20.9033 N   0  0  0  0  0  0  0  0  0  0  0  0
   -6.5119   22.2361  -16.1922 C   0  0  0  0  0  0  0  0  0  0  0  0
   -7.5293   21.4870  -16.7099 C   0  0  0  0  0  0  0  0  0  0  0  0
   -8.6688   21.9221  -16.1737 N   0  0  0  0  0  0  0  0  0  0  0  0
   -9.9914   21.3819  -16.4604 C   0  0  0  0  0  0  0  0  0  0  0  0
   -8.4338   22.9397  -15.3161 N   0  0  0  0  0  0  0  0  0  0  0  0
   -7.0926   23.1271  -15.3330 C   0  0  0  0  0  0  0  0  0  0  0  0
   -6.4003   24.1764  -14.4985 C   0  0  0  0  0  0  0  0  0  0  0  0
 20 21  1  0  0  0
 21 12  1  0  0  0
 12 13  2  0  0  0
 13 14  1  0  0  0
 14 22  1  0  0  0
 22 23  1  0  0  0
 14 15  2  0  0  0
 15 16  1  0  0  0
 15 17  1  0  0  0
 17  1  1  0  0  0
  1  2  1  0  0  0
  2  3  1  0  0  0
  3  4  2  0  0  0
  4  5  1  0  0  0
  5  6  2  0  0  0
  6  7  1  0  0  0
  7  8  2  0  0  0
  8  9  1  0  0  0
  9 10  1  0  0  0
 10 11  2  0  0  0
  9 24  1  0  0  0
 24 25  2  0  0  0
 25 26  1  0  0  0
 26 27  2  0  0  0
 27 28  1  0  0  0
 27 29  1  0  0  0
 29 30  2  0  0  0
  6 31  1  0  0  0
 31 32  2  0  0  0
 32 33  1  0  0  0
 33 34  1  0  0  0
 33 35  1  0  0  0
 35 36  2  0  0  0
 36 37  1  0  0  0
 17 18  2  0  0  0
 18 19  1  0  0  0
 18 12  1  0  0  0
 10  1  1  0  0  0
 30 24  1  0  0  0
 36 31  1  0  0  0
  8  3  1  0  0  0
M  END
> <minimizedAffinity>
-5.57995

> <CNNscore>
0.2341660261

> <CNNaffinity>
6.4835958481

> <CNN_VS>
1.5182378292

> <CNNaffinity_variance>
0.3428317010

$$$$
[H]c1nc(C([H])([H])[H])c([H])nc1N1C(=O)N(c2c(F)c(OC([H])([H])[H])c([H])c(OC([H])([H])[H])c2F)C([H])([H])c2c([H])nc(-c3c(C([H])([H])[H])nn(C([H])([H])[H])c3[H])c([H])c21


 37 41  0  0  0  0  0  0  0  0999 V2000
   -6.4056   22.7997  -20.3258 N   0  0  0  0  0  0  0  0  0  0  0  0
   -5.9709   23.7270  -19.3483 C   0  0  0  0  0  0  0  0  0  0  0  0
   -5.5415   22.9790  -18.0990 C   0  0  0  0  0  0  0  0  0  0  0  0
   -4.6415   23.5677  -17.2379 C   0  0  0  0  0  0  0  0  0  0  0  0
   -4.3126   22.9995  -16.0596 N   0  0  0  0  0  0  0  0  0  0  0  0
   -4.8567   21.8323  -15.6862 C   0  0  0  0  0  0  0  0  0  0  0  0
   -5.7577   21.2177  -16.5219 C   0  0  0  0  0  0  0  0  0  0  0  0
   -6.1039   21.7844  -17.7333 C   0  0  0  0  0  0  0  0  0  0  0  0
   -6.9036   21.0440  -18.6672 N   0  0  0  0  0  0  0  0  0  0  0  0
   -7.0492   21.5941  -19.9819 C   0  0  0  0  0  0  0  0  0  0  0  0
   -7.7463   21.0118  -20.8256 O   0  0  0  0  0  0  0  0  0  0  0  0
   -6.6402   23.7011  -23.9527 C   0  0  0  0  0  0  0  0  0  0  0  0
   -5.4452   23.2068  -24.3491 C   0  0  0  0  0  0  0  0  0  0  0  0
   -4.4911   22.5795  -23.4931 C   0  0  0  0  0  0  0  0  0  0  0  0
   -4.9077   22.5134  -22.1613 C   0  0  0  0  0  0  0  0  0  0  0  0
   -4.0645   21.9483  -21.3039 F   0  0  0  0  0  0  0  0  0  0  0  0
   -6.1173   23.0014  -21.7066 C   0  0  0  0  0  0  0  0  0  0  0  0
   -6.9435   23.5760  -22.5906 C   0  0  0  0  0  0  0  0  0  0  0  0
   -8.1545   24.0834  -22.1964 F   0  0  0  0  0  0  0  0  0  0  0  0
   -6.9963   25.3045  -25.6977 C   0  0  0  0  0  0  0  0  0  0  0  0
   -7.5575   24.3160  -24.8297 O   0  0  0  0  0  0  0  0  0  0  0  0
   -3.3795   22.1300  -23.9263 O   0  0  0  0  0  0  0  0  0  0  0  0
   -2.2592   21.7658  -24.4137 C   0  0  0  0  0  0  0  0  0  0  0  0
   -7.5182   19.8215  -18.3133 C   0  0  0  0  0  0  0  0  0  0  0  0
   -6.9600   18.6471  -18.7273 C   0  0  0  0  0  0  0  0  0  0  0  0
   -7.5150   17.4390  -18.4037 N   0  0  0  0  0  0  0  0  0  0  0  0
   -8.6338   17.4484  -17.6620 C   0  0  0  0  0  0  0  0  0  0  0  0
   -9.2337   16.1447  -17.2940 C   0  0  0  0  0  0  0  0  0  0  0  0
   -9.2053   18.6173  -17.2405 C   0  0  0  0  0  0  0  0  0  0  0  0
   -8.6287   19.8036  -17.5791 N   0  0  0  0  0  0  0  0  0  0  0  0
   -4.5067   21.1864  -14.4146 C   0  0  0  0  0  0  0  0  0  0  0  0
   -3.5529   20.2269  -14.2308 C   0  0  0  0  0  0  0  0  0  0  0  0
   -3.5435   19.9044  -12.9380 N   0  0  0  0  0  0  0  0  0  0  0  0
   -2.6632   18.9182  -12.3252 C   0  0  0  0  0  0  0  0  0  0  0  0
   -4.4662   20.6234  -12.2611 N   0  0  0  0  0  0  0  0  0  0  0  0
   -5.0583   21.4170  -13.1851 C   0  0  0  0  0  0  0  0  0  0  0  0
   -6.1547   22.3961  -12.8440 C   0  0  0  0  0  0  0  0  0  0  0  0
 20 21  1  0  0  0
 21 12  1  0  0  0
 12 13  2  0  0  0
 13 14  1  0  0  0
 14 22  1  0  0  0
 22 23  1  0  0  0
 14 15  2  0  0  0
 15 16  1  0  0  0
 15 17  1  0  0  0
 17  1  1  0  0  0
  1  2  1  0  0  0
  2  3  1  0  0  0
  3  4  2  0  0  0
  4  5  1  0  0  0
  5  6  2  0  0  0
  6  7  1  0  0  0
  7  8  2  0  0  0
  8  9  1  0  0  0
  9 10  1  0  0  0
 10 11  2  0  0  0
  9 24  1  0  0  0
 24 25  2  0  0  0
 25 26  1  0  0  0
 26 27  2  0  0  0
 27 28  1  0  0  0
 27 29  1  0  0  0
 29 30  2  0  0  0
  6 31  1  0  0  0
 31 32  2  0  0  0
 32 33  1  0  0  0
 33 34  1  0  0  0
 33 35  1  0  0  0
 35 36  2  0  0  0
 36 37  1  0  0  0
 17 18  2  0  0  0
 18 19  1  0  0  0
 18 12  1  0  0  0
 10  1  1  0  0  0
 30 24  1  0  0  0
 36 31  1  0  0  0
  8  3  1  0  0  0
M  END
> <minimizedAffinity>
-5.45263

> <CNNscore>
0.2317811847

> <CNNaffinity>
6.4943723679

> <CNN_VS>
1.5052733421

> <CNNaffinity_variance>
0.1273412108

$$$$
[H]c1nc(C([H])([H])[H])c([H])nc1N1C(=O)N(c2c(F)c(OC([H])([H])[H])c([H])c(OC([H])([H])[H])c2F)C([H])([H])c2c([H])nc(-c3c(C([H])([H])[H])nn(C([H])([H])[H])c3[H])c([H])c21


 37 41  0  0  0  0  0  0  0  0999 V2000
    0.9336   21.2225  -21.4042 N   0  0  0  0  0  0  0  0  0  0  0  0
    0.1534   21.9348  -20.4617 C   0  0  0  0  0  0  0  0  0  0  0  0
   -1.1870   22.2880  -21.0805 C   0  0  0  0  0  0  0  0  0  0  0  0
   -2.2699   22.5118  -20.2586 C   0  0  0  0  0  0  0  0  0  0  0  0
   -3.4529   22.9386  -20.7459 N   0  0  0  0  0  0  0  0  0  0  0  0
   -3.6136   23.1604  -22.0585 C   0  0  0  0  0  0  0  0  0  0  0  0
   -2.5539   22.9465  -22.9065 C   0  0  0  0  0  0  0  0  0  0  0  0
   -1.3360   22.5070  -22.4247 C   0  0  0  0  0  0  0  0  0  0  0  0
   -0.3019   22.1186  -23.3411 N   0  0  0  0  0  0  0  0  0  0  0  0
    0.8519   21.4742  -22.7883 C   0  0  0  0  0  0  0  0  0  0  0  0
    1.7884   21.1358  -23.5268 O   0  0  0  0  0  0  0  0  0  0  0  0
    3.8849   19.1018  -20.5013 C   0  0  0  0  0  0  0  0  0  0  0  0
    3.2296   17.9332  -20.3159 C   0  0  0  0  0  0  0  0  0  0  0  0
    1.8199   17.7523  -20.4461 C   0  0  0  0  0  0  0  0  0  0  0  0
    1.1455   18.9249  -20.7954 C   0  0  0  0  0  0  0  0  0  0  0  0
   -0.1735   18.8333  -20.9263 F   0  0  0  0  0  0  0  0  0  0  0  0
    1.7679   20.1414  -20.9972 C   0  0  0  0  0  0  0  0  0  0  0  0
    3.0974   20.2076  -20.8480 C   0  0  0  0  0  0  0  0  0  0  0  0
    3.7688   21.3890  -21.0297 F   0  0  0  0  0  0  0  0  0  0  0  0
    6.0459   18.8500  -21.5056 C   0  0  0  0  0  0  0  0  0  0  0  0
    5.2812   19.2414  -20.3623 O   0  0  0  0  0  0  0  0  0  0  0  0
    1.2584   16.6229  -20.2605 O   0  0  0  0  0  0  0  0  0  0  0  0
    0.7881   15.4509  -20.0857 C   0  0  0  0  0  0  0  0  0  0  0  0
   -0.4139   22.3534  -24.7303 C   0  0  0  0  0  0  0  0  0  0  0  0
    0.5656   23.0542  -25.3718 C   0  0  0  0  0  0  0  0  0  0  0  0
    0.5042   23.3003  -26.7165 N   0  0  0  0  0  0  0  0  0  0  0  0
   -0.5584   22.8273  -27.3864 C   0  0  0  0  0  0  0  0  0  0  0  0
   -0.6262   23.0760  -28.8454 C   0  0  0  0  0  0  0  0  0  0  0  0
   -1.5484   22.1242  -26.7570 C   0  0  0  0  0  0  0  0  0  0  0  0
   -1.4582   21.8956  -25.4176 N   0  0  0  0  0  0  0  0  0  0  0  0
   -4.8944   23.6134  -22.6162 C   0  0  0  0  0  0  0  0  0  0  0  0
   -5.4824   24.8279  -22.4082 C   0  0  0  0  0  0  0  0  0  0  0  0
   -6.6287   24.8469  -23.0871 N   0  0  0  0  0  0  0  0  0  0  0  0
   -7.5584   25.9679  -23.1335 C   0  0  0  0  0  0  0  0  0  0  0  0
   -6.8164   23.6774  -23.7378 N   0  0  0  0  0  0  0  0  0  0  0  0
   -5.7348   22.9184  -23.4407 C   0  0  0  0  0  0  0  0  0  0  0  0
   -5.5402   21.5217  -23.9777 C   0  0  0  0  0  0  0  0  0  0  0  0
 20 21  1  0  0  0
 21 12  1  0  0  0
 12 13  2  0  0  0
 13 14  1  0  0  0
 14 22  1  0  0  0
 22 23  1  0  0  0
 14 15  2  0  0  0
 15 16  1  0  0  0
 15 17  1  0  0  0
 17  1  1  0  0  0
  1  2  1  0  0  0
  2  3  1  0  0  0
  3  4  2  0  0  0
  4  5  1  0  0  0
  5  6  2  0  0  0
  6  7  1  0  0  0
  7  8  2  0  0  0
  8  9  1  0  0  0
  9 10  1  0  0  0
 10 11  2  0  0  0
  9 24  1  0  0  0
 24 25  2  0  0  0
 25 26  1  0  0  0
 26 27  2  0  0  0
 27 28  1  0  0  0
 27 29  1  0  0  0
 29 30  2  0  0  0
  6 31  1  0  0  0
 31 32  2  0  0  0
 32 33  1  0  0  0
 33 34  1  0  0  0
 33 35  1  0  0  0
 35 36  2  0  0  0
 36 37  1  0  0  0
 17 18  2  0  0  0
 18 19  1  0  0  0
 18 12  1  0  0  0
 10  1  1  0  0  0
 30 24  1  0  0  0
 36 31  1  0  0  0
  8  3  1  0  0  0
M  END
> <minimizedAffinity>
-7.65894

> <CNNscore>
0.2115488499

> <CNNaffinity>
7.0161910057

> <CNN_VS>
1.4842671156

> <CNNaffinity_variance>
0.0644363314

$$$$
[H]c1nc([H])c(N2C(=O)N(c3c(F)c(OC([H])([H])[H])c([H])c(OC([H])([H])[H])c3F)C([H])([H])c3c([H])nc(-c4c([H])nc(C5(C#N)C([H])([H])C([H])([H])C5([H])[H])c([H])c4[H])c([H])c32)c([H])c1[H]


 41 46  0  0  0  0  0  0  0  0999 V2000
   -5.0403   21.9430  -17.2272 N   0  0  0  0  0  0  0  0  0  0  0  0
   -4.8138   22.0703  -15.8282 C   0  0  0  0  0  0  0  0  0  0  0  0
   -3.4031   21.9011  -15.4508 C   0  0  0  0  0  0  0  0  0  0  0  0
   -3.0878   22.0747  -14.0865 C   0  0  0  0  0  0  0  0  0  0  0  0
   -1.8376   21.9260  -13.6452 N   0  0  0  0  0  0  0  0  0  0  0  0
   -0.8343   21.6014  -14.5211 C   0  0  0  0  0  0  0  0  0  0  0  0
   -1.1080   21.4271  -15.8483 C   0  0  0  0  0  0  0  0  0  0  0  0
   -2.4092   21.5755  -16.3379 C   0  0  0  0  0  0  0  0  0  0  0  0
   -2.7260   21.4169  -17.7212 N   0  0  0  0  0  0  0  0  0  0  0  0
   -4.0564   21.5974  -18.1938 C   0  0  0  0  0  0  0  0  0  0  0  0
   -4.2814   21.4451  -19.4112 O   0  0  0  0  0  0  0  0  0  0  0  0
   -7.9483   23.5803  -18.9144 C   0  0  0  0  0  0  0  0  0  0  0  0
   -8.8502   22.5371  -18.8031 C   0  0  0  0  0  0  0  0  0  0  0  0
   -8.5412   21.3418  -18.2035 C   0  0  0  0  0  0  0  0  0  0  0  0
   -7.2563   21.1463  -17.6708 C   0  0  0  0  0  0  0  0  0  0  0  0
   -6.9550   19.9617  -17.0613 F   0  0  0  0  0  0  0  0  0  0  0  0
   -6.3531   22.1632  -17.7719 C   0  0  0  0  0  0  0  0  0  0  0  0
   -6.6772   23.3584  -18.3777 C   0  0  0  0  0  0  0  0  0  0  0  0
   -5.7560   24.3439  -18.4613 F   0  0  0  0  0  0  0  0  0  0  0  0
   -8.6045   24.9435  -20.8429 C   0  0  0  0  0  0  0  0  0  0  0  0
   -8.2161   24.7918  -19.4988 O   0  0  0  0  0  0  0  0  0  0  0  0
   -9.3950   20.2827  -18.0688 O   0  0  0  0  0  0  0  0  0  0  0  0
  -10.3119   20.1336  -17.0430 C   0  0  0  0  0  0  0  0  0  0  0  0
   -1.6696   21.0611  -18.5631 C   0  0  0  0  0  0  0  0  0  0  0  0
   -0.9692   22.0514  -19.2269 C   0  0  0  0  0  0  0  0  0  0  0  0
    0.0768   21.7863  -20.0858 C   0  0  0  0  0  0  0  0  0  0  0  0
    0.3941   20.4583  -20.2494 C   0  0  0  0  0  0  0  0  0  0  0  0
   -0.2941   19.4843  -19.5963 N   0  0  0  0  0  0  0  0  0  0  0  0
   -1.3088   19.7566  -18.7648 C   0  0  0  0  0  0  0  0  0  0  0  0
    0.5165   21.4050  -14.0499 C   0  0  0  0  0  0  0  0  0  0  0  0
    1.2026   20.2532  -14.2623 C   0  0  0  0  0  0  0  0  0  0  0  0
    2.4926   20.1228  -13.7412 C   0  0  0  0  0  0  0  0  0  0  0  0
    3.0493   21.1427  -13.0306 C   0  0  0  0  0  0  0  0  0  0  0  0
    2.3635   22.2796  -12.8259 N   0  0  0  0  0  0  0  0  0  0  0  0
    1.1168   22.4080  -13.3281 C   0  0  0  0  0  0  0  0  0  0  0  0
    4.3959   21.0023  -12.4894 C   0  0  0  0  0  0  0  0  0  0  0  0
    5.5194   21.3795  -13.4733 C   0  0  0  0  0  0  0  0  0  0  0  0
    6.2919   21.8246  -12.2249 C   0  0  0  0  0  0  0  0  0  0  0  0
    4.9144   22.1715  -11.6446 C   0  0  0  0  0  0  0  0  0  0  0  0
    4.7095   19.7564  -11.7972 C   0  0  0  0  0  0  0  0  0  0  0  0
    4.9648   18.7745  -11.2284 N   0  0  0  0  0  0  0  0  0  0  0  0
 20 21  1  0  0  0
 21 12  1  0  0  0
 12 13  2  0  0  0
 13 14  1  0  0  0
 14 22  1  0  0  0
 22 23  1  0  0  0
 14 15  2  0  0  0
 15 16  1  0  0  0
 15 17  1  0  0  0
 17  1  1  0  0  0
  1  2  1  0  0  0
  2  3  1  0  0  0
  3  4  2  0  0  0
  4  5  1  0  0  0
  5  6  2  0  0  0
  6  7  1  0  0  0
  7  8  2  0  0  0
  8  9  1  0  0  0
  9 10  1  0  0  0
 10 11  2  0  0  0
  9 24  1  0  0  0
 24 25  2  0  0  0
 25 26  1  0  0  0
 26 27  2  0  0  0
 27 28  1  0  0  0
 28 29  2  0  0  0
  6 30  1  0  0  0
 30 31  2  0  0  0
 31 32  1  0  0  0
 32 33  2  0  0  0
 33 34  1  0  0  0
 34 35  2  0  0  0
 33 36  1  0  0  0
 36 37  1  0  0  0
 37 38  1  0  0  0
 38 39  1  0  0  0
 36 40  1  0  0  0
 40 41  3  0  0  0
 17 18  2  0  0  0
 18 19  1  0  0  0
 18 12  1  0  0  0
 10  1  1  0  0  0
 29 24  1  0  0  0
 35 30  1  0  0  0
 39 36  1  0  0  0
  8  3  1  0  0  0
M  END
> <minimizedAffinity>
-4.23772

> <CNNscore>
0.5013300776

> <CNNaffinity>
7.0176978111

> <CNN_VS>
3.5181829929

> <CNNaffinity_variance>
0.8968512416

$$$$
[H]c1nc([H])c(N2C(=O)N(c3c(F)c(OC([H])([H])[H])c([H])c(OC([H])([H])[H])c3F)C([H])([H])c3c([H])nc(-c4c([H])nc(C5(C#N)C([H])([H])C([H])([H])C5([H])[H])c([H])c4[H])c([H])c32)c([H])c1[H]


 41 46  0  0  0  0  0  0  0  0999 V2000
   -5.9482   20.8089  -16.9551 N   0  0  0  0  0  0  0  0  0  0  0  0
   -5.0250   21.8013  -17.3879 C   0  0  0  0  0  0  0  0  0  0  0  0
   -3.7779   21.2387  -17.9259 C   0  0  0  0  0  0  0  0  0  0  0  0
   -2.8360   22.1584  -18.4337 C   0  0  0  0  0  0  0  0  0  0  0  0
   -1.6682   21.7445  -18.9284 N   0  0  0  0  0  0  0  0  0  0  0  0
   -1.3674   20.4073  -18.9512 C   0  0  0  0  0  0  0  0  0  0  0  0
   -2.2591   19.4922  -18.4672 C   0  0  0  0  0  0  0  0  0  0  0  0
   -3.4896   19.8980  -17.9419 C   0  0  0  0  0  0  0  0  0  0  0  0
   -4.4504   18.9665  -17.4437 N   0  0  0  0  0  0  0  0  0  0  0  0
   -5.7048   19.4081  -16.9365 C   0  0  0  0  0  0  0  0  0  0  0  0
   -6.5086   18.5545  -16.5108 O   0  0  0  0  0  0  0  0  0  0  0  0
   -8.7172   21.8820  -14.6823 C   0  0  0  0  0  0  0  0  0  0  0  0
   -9.7347   21.9177  -15.6190 C   0  0  0  0  0  0  0  0  0  0  0  0
   -9.5449   21.6055  -16.9420 C   0  0  0  0  0  0  0  0  0  0  0  0
   -8.2673   21.2294  -17.3882 C   0  0  0  0  0  0  0  0  0  0  0  0
   -8.0832   20.9048  -18.7021 F   0  0  0  0  0  0  0  0  0  0  0  0
   -7.2511   21.1894  -16.4793 C   0  0  0  0  0  0  0  0  0  0  0  0
   -7.4562   21.5064  -15.1534 C   0  0  0  0  0  0  0  0  0  0  0  0
   -6.4252   21.4572  -14.2808 F   0  0  0  0  0  0  0  0  0  0  0  0
   -9.0712   21.2111  -12.3516 C   0  0  0  0  0  0  0  0  0  0  0  0
   -8.8633   22.1793  -13.3514 O   0  0  0  0  0  0  0  0  0  0  0  0
  -10.5155   21.6255  -17.9045 O   0  0  0  0  0  0  0  0  0  0  0  0
  -11.7320   20.9721  -17.8124 C   0  0  0  0  0  0  0  0  0  0  0  0
   -4.0799   17.6198  -17.4680 C   0  0  0  0  0  0  0  0  0  0  0  0
   -4.4115   16.8456  -18.5645 C   0  0  0  0  0  0  0  0  0  0  0  0
   -4.0963   15.5065  -18.6630 C   0  0  0  0  0  0  0  0  0  0  0  0
   -3.4196   14.9714  -17.5922 C   0  0  0  0  0  0  0  0  0  0  0  0
   -3.0929   15.7327  -16.5140 N   0  0  0  0  0  0  0  0  0  0  0  0
   -3.4061   17.0328  -16.4317 C   0  0  0  0  0  0  0  0  0  0  0  0
   -0.0930   19.9500  -19.4533 C   0  0  0  0  0  0  0  0  0  0  0  0
    0.1443   18.6502  -19.7640 C   0  0  0  0  0  0  0  0  0  0  0  0
    1.4159   18.2770  -20.2073 C   0  0  0  0  0  0  0  0  0  0  0  0
    2.4003   19.2109  -20.3249 C   0  0  0  0  0  0  0  0  0  0  0  0
    2.1564   20.4954  -20.0163 N   0  0  0  0  0  0  0  0  0  0  0  0
    0.9287   20.8584  -19.5874 C   0  0  0  0  0  0  0  0  0  0  0  0
    3.7254   18.8169  -20.7887 C   0  0  0  0  0  0  0  0  0  0  0  0
    4.7838   19.9335  -20.7132 C   0  0  0  0  0  0  0  0  0  0  0  0
    5.7825   18.7972  -20.4592 C   0  0  0  0  0  0  0  0  0  0  0  0
    4.6099   18.0823  -19.7750 C   0  0  0  0  0  0  0  0  0  0  0  0
    3.8030   18.1143  -22.0654 C   0  0  0  0  0  0  0  0  0  0  0  0
    3.8705   17.5724  -23.0923 N   0  0  0  0  0  0  0  0  0  0  0  0
 20 21  1  0  0  0
 21 12  1  0  0  0
 12 13  2  0  0  0
 13 14  1  0  0  0
 14 22  1  0  0  0
 22 23  1  0  0  0
 14 15  2  0  0  0
 15 16  1  0  0  0
 15 17  1  0  0  0
 17  1  1  0  0  0
  1  2  1  0  0  0
  2  3  1  0  0  0
  3  4  2  0  0  0
  4  5  1  0  0  0
  5  6  2  0  0  0
  6  7  1  0  0  0
  7  8  2  0  0  0
  8  9  1  0  0  0
  9 10  1  0  0  0
 10 11  2  0  0  0
  9 24  1  0  0  0
 24 25  2  0  0  0
 25 26  1  0  0  0
 26 27  2  0  0  0
 27 28  1  0  0  0
 28 29  2  0  0  0
  6 30  1  0  0  0
 30 31  2  0  0  0
 31 32  1  0  0  0
 32 33  2  0  0  0
 33 34  1  0  0  0
 34 35  2  0  0  0
 33 36  1  0  0  0
 36 37  1  0  0  0
 37 38  1  0  0  0
 38 39  1  0  0  0
 36 40  1  0  0  0
 40 41  3  0  0  0
 17 18  2  0  0  0
 18 19  1  0  0  0
 18 12  1  0  0  0
 10  1  1  0  0  0
 29 24  1  0  0  0
 35 30  1  0  0  0
 39 36  1  0  0  0
  8  3  1  0  0  0
M  END
> <minimizedAffinity>
-4.36982

> <CNNscore>
0.3858985007

> <CNNaffinity>
6.6489472389

> <CNN_VS>
2.5658187866

> <CNNaffinity_variance>
0.5842994452

$$$$
[H]c1nc([H])c(N2C(=O)N(c3c(F)c(OC([H])([H])[H])c([H])c(OC([H])([H])[H])c3F)C([H])([H])c3c([H])nc(-c4c([H])nc(C5(C#N)C([H])([H])C([H])([H])C5([H])[H])c([H])c4[H])c([H])c32)c([H])c1[H]


 41 46  0  0  0  0  0  0  0  0999 V2000
   -6.0680   20.9442  -17.1283 N   0  0  0  0  0  0  0  0  0  0  0  0
   -5.1589   21.9351  -17.5932 C   0  0  0  0  0  0  0  0  0  0  0  0
   -3.8940   21.3749  -18.0905 C   0  0  0  0  0  0  0  0  0  0  0  0
   -2.9639   22.2903  -18.6269 C   0  0  0  0  0  0  0  0  0  0  0  0
   -1.7817   21.8788  -19.0884 N   0  0  0  0  0  0  0  0  0  0  0  0
   -1.4543   20.5483  -19.0484 C   0  0  0  0  0  0  0  0  0  0  0  0
   -2.3340   19.6374  -18.5354 C   0  0  0  0  0  0  0  0  0  0  0  0
   -3.5791   20.0408  -18.0437 C   0  0  0  0  0  0  0  0  0  0  0  0
   -4.5278   19.1128  -17.5166 N   0  0  0  0  0  0  0  0  0  0  0  0
   -5.7973   19.5508  -17.0448 C   0  0  0  0  0  0  0  0  0  0  0  0
   -6.5895   18.7006  -16.5917 O   0  0  0  0  0  0  0  0  0  0  0  0
   -9.7390   21.6568  -17.1322 C   0  0  0  0  0  0  0  0  0  0  0  0
   -9.8670   22.0246  -15.8046 C   0  0  0  0  0  0  0  0  0  0  0  0
   -8.8100   22.0475  -14.9294 C   0  0  0  0  0  0  0  0  0  0  0  0
   -7.5300   21.6852  -15.3802 C   0  0  0  0  0  0  0  0  0  0  0  0
   -6.4765   21.7227  -14.5117 F   0  0  0  0  0  0  0  0  0  0  0  0
   -7.3843   21.3187  -16.6858 C   0  0  0  0  0  0  0  0  0  0  0  0
   -8.4553   21.2995  -17.5536 C   0  0  0  0  0  0  0  0  0  0  0  0
   -8.2740   20.9294  -18.8408 F   0  0  0  0  0  0  0  0  0  0  0  0
  -11.2023   22.7500  -18.7666 C   0  0  0  0  0  0  0  0  0  0  0  0
  -10.7651   21.6259  -18.0416 O   0  0  0  0  0  0  0  0  0  0  0  0
   -8.8845   22.4025  -13.6114 O   0  0  0  0  0  0  0  0  0  0  0  0
   -9.3583   23.6168  -13.1466 C   0  0  0  0  0  0  0  0  0  0  0  0
   -4.1305   17.7743  -17.4768 C   0  0  0  0  0  0  0  0  0  0  0  0
   -4.4122   16.9516  -18.5519 C   0  0  0  0  0  0  0  0  0  0  0  0
   -4.0680   15.6166  -18.5882 C   0  0  0  0  0  0  0  0  0  0  0  0
   -3.4151   15.1372  -17.4769 C   0  0  0  0  0  0  0  0  0  0  0  0
   -3.1375   15.9461  -16.4197 N   0  0  0  0  0  0  0  0  0  0  0  0
   -3.4784   17.2416  -16.3981 C   0  0  0  0  0  0  0  0  0  0  0  0
   -0.1646   20.0953  -19.5142 C   0  0  0  0  0  0  0  0  0  0  0  0
    0.0556   18.8205  -19.9250 C   0  0  0  0  0  0  0  0  0  0  0  0
    1.3412   18.4462  -20.3250 C   0  0  0  0  0  0  0  0  0  0  0  0
    2.3560   19.3543  -20.3014 C   0  0  0  0  0  0  0  0  0  0  0  0
    2.1289   20.6142  -19.8943 N   0  0  0  0  0  0  0  0  0  0  0  0
    0.8878   20.9782  -19.5070 C   0  0  0  0  0  0  0  0  0  0  0  0
    3.6957   18.9594  -20.7204 C   0  0  0  0  0  0  0  0  0  0  0  0
    4.7492   20.0786  -20.6206 C   0  0  0  0  0  0  0  0  0  0  0  0
    5.7415   18.9464  -20.3267 C   0  0  0  0  0  0  0  0  0  0  0  0
    4.5493   18.2345  -19.6738 C   0  0  0  0  0  0  0  0  0  0  0  0
    3.8144   18.2470  -21.9885 C   0  0  0  0  0  0  0  0  0  0  0  0
    3.9147   17.6973  -23.0086 N   0  0  0  0  0  0  0  0  0  0  0  0
 20 21  1  0  0  0
 21 12  1  0  0  0
 12 13  2  0  0  0
 13 14  1  0  0  0
 14 22  1  0  0  0
 22 23  1  0  0  0
 14 15  2  0  0  0
 15 16  1  0  0  0
 15 17  1  0  0  0
 17  1  1  0  0  0
  1  2  1  0  0  0
  2  3  1  0  0  0
  3  4  2  0  0  0
  4  5  1  0  0  0
  5  6  2  0  0  0
  6  7  1  0  0  0
  7  8  2  0  0  0
  8  9  1  0  0  0
  9 10  1  0  0  0
 10 11  2  0  0  0
  9 24  1  0  0  0
 24 25  2  0  0  0
 25 26  1  0  0  0
 26 27  2  0  0  0
 27 28  1  0  0  0
 28 29  2  0  0  0
  6 30  1  0  0  0
 30 31  2  0  0  0
 31 32  1  0  0  0
 32 33  2  0  0  0
 33 34  1  0  0  0
 34 35  2  0  0  0
 33 36  1  0  0  0
 36 37  1  0  0  0
 37 38  1  0  0  0
 38 39  1  0  0  0
 36 40  1  0  0  0
 40 41  3  0  0  0
 17 18  2  0  0  0
 18 19  1  0  0  0
 18 12  1  0  0  0
 10  1  1  0  0  0
 29 24  1  0  0  0
 35 30  1  0  0  0
 39 36  1  0  0  0
  8  3  1  0  0  0
M  END
> <minimizedAffinity>
-4.50531

> <CNNscore>
0.3731043935

> <CNNaffinity>
6.5452489853

> <CNN_VS>
2.4420611858

> <CNNaffinity_variance>
0.5067864656

$$$$
[H]c1nc([H])c(N2C(=O)N(c3c(F)c(OC([H])([H])[H])c([H])c(OC([H])([H])[H])c3F)C([H])([H])c3c([H])nc(-c4c([H])nc(C5(C#N)C([H])([H])C([H])([H])C5([H])[H])c([H])c4[H])c([H])c32)c([H])c1[H]


 41 46  0  0  0  0  0  0  0  0999 V2000
   -5.5280   22.4071  -19.6727 N   0  0  0  0  0  0  0  0  0  0  0  0
   -6.4090   21.3074  -19.8702 C   0  0  0  0  0  0  0  0  0  0  0  0
   -7.0037   20.8085  -18.6218 C   0  0  0  0  0  0  0  0  0  0  0  0
   -7.9375   19.7575  -18.7414 C   0  0  0  0  0  0  0  0  0  0  0  0
   -8.5186   19.2277  -17.6637 N   0  0  0  0  0  0  0  0  0  0  0  0
   -8.2138   19.7044  -16.4151 C   0  0  0  0  0  0  0  0  0  0  0  0
   -7.3138   20.7216  -16.2668 C   0  0  0  0  0  0  0  0  0  0  0  0
   -6.6889   21.2944  -17.3786 C   0  0  0  0  0  0  0  0  0  0  0  0
   -5.7568   22.3696  -17.2596 N   0  0  0  0  0  0  0  0  0  0  0  0
   -5.1543   22.9483  -18.4120 C   0  0  0  0  0  0  0  0  0  0  0  0
   -4.3446   23.8839  -18.2540 O   0  0  0  0  0  0  0  0  0  0  0  0
   -5.0351   24.6866  -22.5959 C   0  0  0  0  0  0  0  0  0  0  0  0
   -3.7484   24.3015  -22.9278 C   0  0  0  0  0  0  0  0  0  0  0  0
   -3.0547   23.3379  -22.2393 C   0  0  0  0  0  0  0  0  0  0  0  0
   -3.6592   22.6994  -21.1440 C   0  0  0  0  0  0  0  0  0  0  0  0
   -2.9732   21.7302  -20.4690 F   0  0  0  0  0  0  0  0  0  0  0  0
   -4.9273   23.0664  -20.8010 C   0  0  0  0  0  0  0  0  0  0  0  0
   -5.6118   24.0367  -21.5013 C   0  0  0  0  0  0  0  0  0  0  0  0
   -6.8669   24.3761  -21.1321 F   0  0  0  0  0  0  0  0  0  0  0  0
   -6.5994   25.3602  -24.3586 C   0  0  0  0  0  0  0  0  0  0  0  0
   -5.7664   25.6386  -23.2591 O   0  0  0  0  0  0  0  0  0  0  0  0
   -1.7844   22.9230  -22.5270 O   0  0  0  0  0  0  0  0  0  0  0  0
   -1.4541   22.0308  -23.5320 C   0  0  0  0  0  0  0  0  0  0  0  0
   -5.4648   22.7972  -15.9622 C   0  0  0  0  0  0  0  0  0  0  0  0
   -6.2773   23.7407  -15.3608 C   0  0  0  0  0  0  0  0  0  0  0  0
   -6.0526   24.2266  -14.0898 C   0  0  0  0  0  0  0  0  0  0  0  0
   -4.9566   23.7117  -13.4380 C   0  0  0  0  0  0  0  0  0  0  0  0
   -4.1578   22.7835  -14.0290 N   0  0  0  0  0  0  0  0  0  0  0  0
   -4.3880   22.3207  -15.2651 C   0  0  0  0  0  0  0  0  0  0  0  0
   -8.8110   19.1167  -15.2390 C   0  0  0  0  0  0  0  0  0  0  0  0
   -9.3062   19.8656  -14.2210 C   0  0  0  0  0  0  0  0  0  0  0  0
   -9.8335   19.2240  -13.0972 C   0  0  0  0  0  0  0  0  0  0  0  0
   -9.8482   17.8637  -13.0306 C   0  0  0  0  0  0  0  0  0  0  0  0
   -9.3569   17.1301  -14.0432 N   0  0  0  0  0  0  0  0  0  0  0  0
   -8.8466   17.7477  -15.1300 C   0  0  0  0  0  0  0  0  0  0  0  0
  -10.4001   17.1985  -11.8563 C   0  0  0  0  0  0  0  0  0  0  0  0
  -10.9432   18.1564  -10.7792 C   0  0  0  0  0  0  0  0  0  0  0  0
  -11.9539   17.0427  -10.4771 C   0  0  0  0  0  0  0  0  0  0  0  0
  -11.8476   16.7074  -11.9706 C   0  0  0  0  0  0  0  0  0  0  0  0
   -9.5984   16.1395  -11.2519 C   0  0  0  0  0  0  0  0  0  0  0  0
   -8.9675   15.2816  -10.7841 N   0  0  0  0  0  0  0  0  0  0  0  0
 20 21  1  0  0  0
 21 12  1  0  0  0
 12 13  2  0  0  0
 13 14  1  0  0  0
 14 22  1  0  0  0
 22 23  1  0  0  0
 14 15  2  0  0  0
 15 16  1  0  0  0
 15 17  1  0  0  0
 17  1  1  0  0  0
  1  2  1  0  0  0
  2  3  1  0  0  0
  3  4  2  0  0  0
  4  5  1  0  0  0
  5  6  2  0  0  0
  6  7  1  0  0  0
  7  8  2  0  0  0
  8  9  1  0  0  0
  9 10  1  0  0  0
 10 11  2  0  0  0
  9 24  1  0  0  0
 24 25  2  0  0  0
 25 26  1  0  0  0
 26 27  2  0  0  0
 27 28  1  0  0  0
 28 29  2  0  0  0
  6 30  1  0  0  0
 30 31  2  0  0  0
 31 32  1  0  0  0
 32 33  2  0  0  0
 33 34  1  0  0  0
 34 35  2  0  0  0
 33 36  1  0  0  0
 36 37  1  0  0  0
 37 38  1  0  0  0
 38 39  1  0  0  0
 36 40  1  0  0  0
 40 41  3  0  0  0
 17 18  2  0  0  0
 18 19  1  0  0  0
 18 12  1  0  0  0
 10  1  1  0  0  0
 29 24  1  0  0  0
 35 30  1  0  0  0
 39 36  1  0  0  0
  8  3  1  0  0  0
M  END
> <minimizedAffinity>
-5.29589

> <CNNscore>
0.3024796844

> <CNNaffinity>
6.5604715347

> <CNN_VS>
1.9844093323

> <CNNaffinity_variance>
0.4935218394

$$$$
[H]c1nc([H])c(N2C(=O)N(c3c(F)c(OC([H])([H])[H])c([H])c(OC([H])([H])[H])c3F)C([H])([H])c3c([H])nc(-c4c([H])nc(C5(C#N)C([H])([H])C([H])([H])C5([H])[H])c([H])c4[H])c([H])c32)c([H])c1[H]


 41 46  0  0  0  0  0  0  0  0999 V2000
    0.1360   21.0860  -16.7066 N   0  0  0  0  0  0  0  0  0  0  0  0
   -0.9919   21.8351  -17.1438 C   0  0  0  0  0  0  0  0  0  0  0  0
   -1.0884   21.9385  -18.6070 C   0  0  0  0  0  0  0  0  0  0  0  0
   -2.2154   22.6143  -19.1208 C   0  0  0  0  0  0  0  0  0  0  0  0
   -2.3825   22.7727  -20.4349 N   0  0  0  0  0  0  0  0  0  0  0  0
   -1.4529   22.2740  -21.3102 C   0  0  0  0  0  0  0  0  0  0  0  0
   -0.3511   21.6145  -20.8435 C   0  0  0  0  0  0  0  0  0  0  0  0
   -0.1501   21.4352  -19.4715 C   0  0  0  0  0  0  0  0  0  0  0  0
    0.9814   20.7364  -18.9516 N   0  0  0  0  0  0  0  0  0  0  0  0
    1.1469   20.5492  -17.5504 C   0  0  0  0  0  0  0  0  0  0  0  0
    2.1540   19.9337  -17.1469 O   0  0  0  0  0  0  0  0  0  0  0  0
    1.2697   21.4249  -13.1592 C   0  0  0  0  0  0  0  0  0  0  0  0
    0.6675   20.2868  -12.6531 C   0  0  0  0  0  0  0  0  0  0  0  0
   -0.0797   19.4305  -13.4227 C   0  0  0  0  0  0  0  0  0  0  0  0
   -0.2543   19.7019  -14.7898 C   0  0  0  0  0  0  0  0  0  0  0  0
   -0.9859   18.8411  -15.5573 F   0  0  0  0  0  0  0  0  0  0  0  0
    0.3311   20.8201  -15.3067 C   0  0  0  0  0  0  0  0  0  0  0  0
    1.0785   21.6718  -14.5214 C   0  0  0  0  0  0  0  0  0  0  0  0
    1.6430   22.7717  -15.0674 F   0  0  0  0  0  0  0  0  0  0  0  0
    1.4883   23.2944  -11.5891 C   0  0  0  0  0  0  0  0  0  0  0  0
    2.0290   22.3032  -12.4292 O   0  0  0  0  0  0  0  0  0  0  0  0
   -0.6937   18.2958  -12.9711 O   0  0  0  0  0  0  0  0  0  0  0  0
   -1.3433   18.1806  -11.7546 C   0  0  0  0  0  0  0  0  0  0  0  0
    1.9086   20.2729  -19.8879 C   0  0  0  0  0  0  0  0  0  0  0  0
    2.9199   21.1142  -20.3137 C   0  0  0  0  0  0  0  0  0  0  0  0
    3.8670   20.7412  -21.2443 C   0  0  0  0  0  0  0  0  0  0  0  0
    3.7513   19.4619  -21.7353 C   0  0  0  0  0  0  0  0  0  0  0  0
    2.7572   18.6342  -21.3164 N   0  0  0  0  0  0  0  0  0  0  0  0
    1.8433   19.0104  -20.4117 C   0  0  0  0  0  0  0  0  0  0  0  0
   -1.6058   22.4684  -22.7330 C   0  0  0  0  0  0  0  0  0  0  0  0
   -2.6455   23.1586  -23.2670 C   0  0  0  0  0  0  0  0  0  0  0  0
   -2.7468   23.2708  -24.6562 C   0  0  0  0  0  0  0  0  0  0  0  0
   -1.8102   22.6932  -25.4588 C   0  0  0  0  0  0  0  0  0  0  0  0
   -0.7839   22.0128  -24.9218 N   0  0  0  0  0  0  0  0  0  0  0  0
   -0.6839   21.9027  -23.5799 C   0  0  0  0  0  0  0  0  0  0  0  0
   -1.9197   22.8136  -26.9079 C   0  0  0  0  0  0  0  0  0  0  0  0
   -2.8583   21.7827  -27.5627 C   0  0  0  0  0  0  0  0  0  0  0  0
   -3.1463   22.8845  -28.5904 C   0  0  0  0  0  0  0  0  0  0  0  0
   -2.9100   23.8605  -27.4302 C   0  0  0  0  0  0  0  0  0  0  0  0
   -0.6764   22.9357  -27.6622 C   0  0  0  0  0  0  0  0  0  0  0  0
    0.3107   23.0141  -28.2723 N   0  0  0  0  0  0  0  0  0  0  0  0
 20 21  1  0  0  0
 21 12  1  0  0  0
 12 13  2  0  0  0
 13 14  1  0  0  0
 14 22  1  0  0  0
 22 23  1  0  0  0
 14 15  2  0  0  0
 15 16  1  0  0  0
 15 17  1  0  0  0
 17  1  1  0  0  0
  1  2  1  0  0  0
  2  3  1  0  0  0
  3  4  2  0  0  0
  4  5  1  0  0  0
  5  6  2  0  0  0
  6  7  1  0  0  0
  7  8  2  0  0  0
  8  9  1  0  0  0
  9 10  1  0  0  0
 10 11  2  0  0  0
  9 24  1  0  0  0
 24 25  2  0  0  0
 25 26  1  0  0  0
 26 27  2  0  0  0
 27 28  1  0  0  0
 28 29  2  0  0  0
  6 30  1  0  0  0
 30 31  2  0  0  0
 31 32  1  0  0  0
 32 33  2  0  0  0
 33 34  1  0  0  0
 34 35  2  0  0  0
 33 36  1  0  0  0
 36 37  1  0  0  0
 37 38  1  0  0  0
 38 39  1  0  0  0
 36 40  1  0  0  0
 40 41  3  0  0  0
 17 18  2  0  0  0
 18 19  1  0  0  0
 18 12  1  0  0  0
 10  1  1  0  0  0
 29 24  1  0  0  0
 35 30  1  0  0  0
 39 36  1  0  0  0
  8  3  1  0  0  0
M  END
> <minimizedAffinity>
-6.22862

> <CNNscore>
0.1978675574

> <CNNaffinity>
7.0293769836

> <CNN_VS>
1.3908857107

> <CNNaffinity_variance>
0.2131564915

$$$$
[H]c1nc([H])c(N2C(=O)N(c3c(F)c(OC([H])([H])[H])c([H])c(OC([H])([H])[H])c3F)C([H])([H])c3c([H])nc(-c4c([H])nc(C5(C#N)C([H])([H])C([H])([H])C5([H])[H])c([H])c4[H])c([H])c32)c([H])c1[H]


 41 46  0  0  0  0  0  0  0  0999 V2000
    0.7164   20.9400  -20.9464 N   0  0  0  0  0  0  0  0  0  0  0  0
    1.2131   20.9162  -22.2795 C   0  0  0  0  0  0  0  0  0  0  0  0
    0.2797   21.4942  -23.2572 C   0  0  0  0  0  0  0  0  0  0  0  0
    0.7260   21.5635  -24.5939 C   0  0  0  0  0  0  0  0  0  0  0  0
   -0.0560   22.0574  -25.5553 N   0  0  0  0  0  0  0  0  0  0  0  0
   -1.3141   22.5097  -25.2525 C   0  0  0  0  0  0  0  0  0  0  0  0
   -1.7746   22.4562  -23.9673 C   0  0  0  0  0  0  0  0  0  0  0  0
   -0.9771   21.9425  -22.9403 C   0  0  0  0  0  0  0  0  0  0  0  0
   -1.4217   21.8878  -21.5844 N   0  0  0  0  0  0  0  0  0  0  0  0
   -0.5780   21.3809  -20.5563 C   0  0  0  0  0  0  0  0  0  0  0  0
   -1.0144   21.3524  -19.3881 O   0  0  0  0  0  0  0  0  0  0  0  0
    2.4171   18.7002  -18.4816 C   0  0  0  0  0  0  0  0  0  0  0  0
    3.1242   19.6700  -17.7934 C   0  0  0  0  0  0  0  0  0  0  0  0
    3.0598   21.0052  -18.1047 C   0  0  0  0  0  0  0  0  0  0  0  0
    2.2446   21.4299  -19.1668 C   0  0  0  0  0  0  0  0  0  0  0  0
    2.1702   22.7605  -19.4659 F   0  0  0  0  0  0  0  0  0  0  0  0
    1.5405   20.4880  -19.8577 C   0  0  0  0  0  0  0  0  0  0  0  0
    1.6155   19.1500  -19.5343 C   0  0  0  0  0  0  0  0  0  0  0  0
    0.9046   18.2441  -20.2420 F   0  0  0  0  0  0  0  0  0  0  0  0
    2.8208   16.8278  -16.9522 C   0  0  0  0  0  0  0  0  0  0  0  0
    2.4467   17.3581  -18.2009 O   0  0  0  0  0  0  0  0  0  0  0  0
    3.7375   22.0000  -17.4568 O   0  0  0  0  0  0  0  0  0  0  0  0
    4.9048   21.8197  -16.7356 C   0  0  0  0  0  0  0  0  0  0  0  0
   -2.7210   22.3381  -21.3386 C   0  0  0  0  0  0  0  0  0  0  0  0
   -3.7188   21.4176  -21.0764 C   0  0  0  0  0  0  0  0  0  0  0  0
   -5.0290   21.7758  -20.8371 C   0  0  0  0  0  0  0  0  0  0  0  0
   -5.2959   23.1244  -20.8722 C   0  0  0  0  0  0  0  0  0  0  0  0
   -4.3147   24.0299  -21.1295 N   0  0  0  0  0  0  0  0  0  0  0  0
   -3.0458   23.6673  -21.3608 C   0  0  0  0  0  0  0  0  0  0  0  0
   -2.1819   23.0154  -26.2901 C   0  0  0  0  0  0  0  0  0  0  0  0
   -1.9405   22.8054  -27.6092 C   0  0  0  0  0  0  0  0  0  0  0  0
   -2.8048   23.3603  -28.5566 C   0  0  0  0  0  0  0  0  0  0  0  0
   -3.8749   24.1010  -28.1550 C   0  0  0  0  0  0  0  0  0  0  0  0
   -4.1069   24.3031  -26.8473 N   0  0  0  0  0  0  0  0  0  0  0  0
   -3.2731   23.7682  -25.9299 C   0  0  0  0  0  0  0  0  0  0  0  0
   -4.7745   24.6774  -29.1472 C   0  0  0  0  0  0  0  0  0  0  0  0
   -4.0672   25.4680  -30.2640 C   0  0  0  0  0  0  0  0  0  0  0  0
   -5.2222   24.9968  -31.1568 C   0  0  0  0  0  0  0  0  0  0  0  0
   -5.2343   23.7431  -30.2721 C   0  0  0  0  0  0  0  0  0  0  0  0
   -5.9352   25.4086  -28.6495 C   0  0  0  0  0  0  0  0  0  0  0  0
   -6.8688   25.9731  -28.2464 N   0  0  0  0  0  0  0  0  0  0  0  0
 20 21  1  0  0  0
 21 12  1  0  0  0
 12 13  2  0  0  0
 13 14  1  0  0  0
 14 22  1  0  0  0
 22 23  1  0  0  0
 14 15  2  0  0  0
 15 16  1  0  0  0
 15 17  1  0  0  0
 17  1  1  0  0  0
  1  2  1  0  0  0
  2  3  1  0  0  0
  3  4  2  0  0  0
  4  5  1  0  0  0
  5  6  2  0  0  0
  6  7  1  0  0  0
  7  8  2  0  0  0
  8  9  1  0  0  0
  9 10  1  0  0  0
 10 11  2  0  0  0
  9 24  1  0  0  0
 24 25  2  0  0  0
 25 26  1  0  0  0
 26 27  2  0  0  0
 27 28  1  0  0  0
 28 29  2  0  0  0
  6 30  1  0  0  0
 30 31  2  0  0  0
 31 32  1  0  0  0
 32 33  2  0  0  0
 33 34  1  0  0  0
 34 35  2  0  0  0
 33 36  1  0  0  0
 36 37  1  0  0  0
 37 38  1  0  0  0
 38 39  1  0  0  0
 36 40  1  0  0  0
 40 41  3  0  0  0
 17 18  2  0  0  0
 18 19  1  0  0  0
 18 12  1  0  0  0
 10  1  1  0  0  0
 29 24  1  0  0  0
 35 30  1  0  0  0
 39 36  1  0  0  0
  8  3  1  0  0  0
M  END
> <minimizedAffinity>
-8.54271

> <CNNscore>
0.1846382767

> <CNNaffinity>
7.4206185341

> <CNN_VS>
1.3701301813

> <CNNaffinity_variance>
0.3301227987

$$$$
[H]c1nc([H])c(N2C(=O)N(c3c(F)c(OC([H])([H])[H])c([H])c(OC([H])([H])[H])c3F)C([H])([H])c3c([H])nc(-c4c([H])nc(C5(C#N)C([H])([H])C([H])([H])C5([H])[H])c([H])c4[H])c([H])c32)c([H])c1[H]


 41 46  0  0  0  0  0  0  0  0999 V2000
    0.5731   20.9352  -20.8745 N   0  0  0  0  0  0  0  0  0  0  0  0
    1.0944   20.9267  -22.1984 C   0  0  0  0  0  0  0  0  0  0  0  0
    0.1768   21.5104  -23.1874 C   0  0  0  0  0  0  0  0  0  0  0  0
    0.6474   21.5949  -24.5149 C   0  0  0  0  0  0  0  0  0  0  0  0
   -0.1188   22.0950  -25.4858 N   0  0  0  0  0  0  0  0  0  0  0  0
   -1.3843   22.5389  -25.2019 C   0  0  0  0  0  0  0  0  0  0  0  0
   -1.8683   22.4707  -23.9261 C   0  0  0  0  0  0  0  0  0  0  0  0
   -1.0877   21.9502  -22.8895 C   0  0  0  0  0  0  0  0  0  0  0  0
   -1.5570   21.8802  -21.5427 N   0  0  0  0  0  0  0  0  0  0  0  0
   -0.7303   21.3667  -20.5042 C   0  0  0  0  0  0  0  0  0  0  0  0
   -1.1881   21.3248  -19.3447 O   0  0  0  0  0  0  0  0  0  0  0  0
    2.8697   20.9299  -17.9233 C   0  0  0  0  0  0  0  0  0  0  0  0
    2.8858   19.5660  -17.6920 C   0  0  0  0  0  0  0  0  0  0  0  0
    2.1843   18.6689  -18.4582 C   0  0  0  0  0  0  0  0  0  0  0  0
    1.4079   19.1342  -19.5322 C   0  0  0  0  0  0  0  0  0  0  0  0
    0.7222   18.2389  -20.3027 F   0  0  0  0  0  0  0  0  0  0  0  0
    1.3788   20.4760  -19.7752 C   0  0  0  0  0  0  0  0  0  0  0  0
    2.0879   21.3657  -18.9966 C   0  0  0  0  0  0  0  0  0  0  0  0
    2.0345   22.6891  -19.2659 F   0  0  0  0  0  0  0  0  0  0  0  0
    4.9446   22.0783  -17.3040 C   0  0  0  0  0  0  0  0  0  0  0  0
    3.5592   21.8600  -17.1882 O   0  0  0  0  0  0  0  0  0  0  0  0
    2.1675   17.3149  -18.2708 O   0  0  0  0  0  0  0  0  0  0  0  0
    1.2230   16.6332  -17.5237 C   0  0  0  0  0  0  0  0  0  0  0  0
   -2.8626   22.3225  -21.3167 C   0  0  0  0  0  0  0  0  0  0  0  0
   -3.8759   21.3939  -21.1654 C   0  0  0  0  0  0  0  0  0  0  0  0
   -5.1926   21.7450  -20.9532 C   0  0  0  0  0  0  0  0  0  0  0  0
   -5.4498   23.0947  -20.8973 C   0  0  0  0  0  0  0  0  0  0  0  0
   -4.4535   24.0081  -21.0456 N   0  0  0  0  0  0  0  0  0  0  0  0
   -3.1783   23.6524  -21.2517 C   0  0  0  0  0  0  0  0  0  0  0  0
   -2.2350   23.0512  -26.2504 C   0  0  0  0  0  0  0  0  0  0  0  0
   -1.9834   22.8315  -27.5660 C   0  0  0  0  0  0  0  0  0  0  0  0
   -2.8309   23.3933  -28.5246 C   0  0  0  0  0  0  0  0  0  0  0  0
   -3.8948   24.1503  -28.1371 C   0  0  0  0  0  0  0  0  0  0  0  0
   -4.1369   24.3618  -26.8327 N   0  0  0  0  0  0  0  0  0  0  0  0
   -3.3194   23.8203  -25.9046 C   0  0  0  0  0  0  0  0  0  0  0  0
   -4.7768   24.7339  -29.1409 C   0  0  0  0  0  0  0  0  0  0  0  0
   -4.0494   25.5271  -30.2428 C   0  0  0  0  0  0  0  0  0  0  0  0
   -5.1916   25.0635  -31.1558 C   0  0  0  0  0  0  0  0  0  0  0  0
   -5.2215   23.8060  -30.2770 C   0  0  0  0  0  0  0  0  0  0  0  0
   -5.9429   25.4666  -28.6583 C   0  0  0  0  0  0  0  0  0  0  0  0
   -6.8826   26.0458  -28.2917 N   0  0  0  0  0  0  0  0  0  0  0  0
 20 21  1  0  0  0
 21 12  1  0  0  0
 12 13  2  0  0  0
 13 14  1  0  0  0
 14 22  1  0  0  0
 22 23  1  0  0  0
 14 15  2  0  0  0
 15 16  1  0  0  0
 15 17  1  0  0  0
 17  1  1  0  0  0
  1  2  1  0  0  0
  2  3  1  0  0  0
  3  4  2  0  0  0
  4  5  1  0  0  0
  5  6  2  0  0  0
  6  7  1  0  0  0
  7  8  2  0  0  0
  8  9  1  0  0  0
  9 10  1  0  0  0
 10 11  2  0  0  0
  9 24  1  0  0  0
 24 25  2  0  0  0
 25 26  1  0  0  0
 26 27  2  0  0  0
 27 28  1  0  0  0
 28 29  2  0  0  0
  6 30  1  0  0  0
 30 31  2  0  0  0
 31 32  1  0  0  0
 32 33  2  0  0  0
 33 34  1  0  0  0
 34 35  2  0  0  0
 33 36  1  0  0  0
 36 37  1  0  0  0
 37 38  1  0  0  0
 38 39  1  0  0  0
 36 40  1  0  0  0
 40 41  3  0  0  0
 17 18  2  0  0  0
 18 19  1  0  0  0
 18 12  1  0  0  0
 10  1  1  0  0  0
 29 24  1  0  0  0
 35 30  1  0  0  0
 39 36  1  0  0  0
  8  3  1  0  0  0
M  END
> <minimizedAffinity>
-8.46725

> <CNNscore>
0.1744922400

> <CNNaffinity>
7.4235525131

> <CNN_VS>
1.2953523397

> <CNNaffinity_variance>
0.3477502465

$$$$
[H]c1nc([H])c(N2C(=O)N(c3c(F)c(OC([H])([H])[H])c([H])c(OC([H])([H])[H])c3F)C([H])([H])c3c([H])nc(-c4c([H])nc(C5(C#N)C([H])([H])C([H])([H])C5([H])[H])c([H])c4[H])c([H])c32)c([H])c1[H]


 41 46  0  0  0  0  0  0  0  0999 V2000
   -2.8066   23.4004  -25.3282 N   0  0  0  0  0  0  0  0  0  0  0  0
   -1.4953   23.0445  -25.7505 C   0  0  0  0  0  0  0  0  0  0  0  0
   -0.7047   22.3887  -24.6987 C   0  0  0  0  0  0  0  0  0  0  0  0
    0.5867   21.9492  -25.0589 C   0  0  0  0  0  0  0  0  0  0  0  0
    1.3849   21.3573  -24.1688 N   0  0  0  0  0  0  0  0  0  0  0  0
    0.9548   21.1655  -22.8815 C   0  0  0  0  0  0  0  0  0  0  0  0
   -0.2908   21.5797  -22.5023 C   0  0  0  0  0  0  0  0  0  0  0  0
   -1.1476   22.2039  -23.4139 C   0  0  0  0  0  0  0  0  0  0  0  0
   -2.4611   22.6335  -23.0546 N   0  0  0  0  0  0  0  0  0  0  0  0
   -3.3196   23.2450  -24.0112 C   0  0  0  0  0  0  0  0  0  0  0  0
   -4.4569   23.6045  -23.6464 O   0  0  0  0  0  0  0  0  0  0  0  0
   -5.1216   23.7931  -28.2387 C   0  0  0  0  0  0  0  0  0  0  0  0
   -5.5109   25.0995  -28.0025 C   0  0  0  0  0  0  0  0  0  0  0  0
   -5.0462   25.8388  -26.9436 C   0  0  0  0  0  0  0  0  0  0  0  0
   -4.1322   25.2633  -26.0456 C   0  0  0  0  0  0  0  0  0  0  0  0
   -3.6595   26.0052  -25.0008 F   0  0  0  0  0  0  0  0  0  0  0  0
   -3.7374   23.9758  -26.2616 C   0  0  0  0  0  0  0  0  0  0  0  0
   -4.2132   23.2447  -27.3292 C   0  0  0  0  0  0  0  0  0  0  0  0
   -3.8010   21.9705  -27.5113 F   0  0  0  0  0  0  0  0  0  0  0  0
   -5.6356   23.4781  -30.6145 C   0  0  0  0  0  0  0  0  0  0  0  0
   -5.5549   23.0209  -29.2860 O   0  0  0  0  0  0  0  0  0  0  0  0
   -5.3995   27.1302  -26.6676 O   0  0  0  0  0  0  0  0  0  0  0  0
   -5.8787   27.5738  -25.4475 C   0  0  0  0  0  0  0  0  0  0  0  0
   -2.8363   22.4360  -21.7236 C   0  0  0  0  0  0  0  0  0  0  0  0
   -3.8112   21.5017  -21.4260 C   0  0  0  0  0  0  0  0  0  0  0  0
   -4.2494   21.2545  -20.1419 C   0  0  0  0  0  0  0  0  0  0  0  0
   -3.6525   22.0002  -19.1527 C   0  0  0  0  0  0  0  0  0  0  0  0
   -2.6934   22.9187  -19.4450 N   0  0  0  0  0  0  0  0  0  0  0  0
   -2.2777   23.1487  -20.6978 C   0  0  0  0  0  0  0  0  0  0  0  0
    1.8221   20.5563  -21.9007 C   0  0  0  0  0  0  0  0  0  0  0  0
    3.1627   20.7685  -21.8809 C   0  0  0  0  0  0  0  0  0  0  0  0
    3.9421   20.1122  -20.9246 C   0  0  0  0  0  0  0  0  0  0  0  0
    3.3578   19.2721  -20.0258 C   0  0  0  0  0  0  0  0  0  0  0  0
    2.0301   19.0686  -20.0519 N   0  0  0  0  0  0  0  0  0  0  0  0
    1.2749   19.7013  -20.9751 C   0  0  0  0  0  0  0  0  0  0  0  0
    4.1751   18.5901  -19.0293 C   0  0  0  0  0  0  0  0  0  0  0  0
    5.5134   19.2868  -18.7193 C   0  0  0  0  0  0  0  0  0  0  0  0
    5.3380   18.7184  -17.3054 C   0  0  0  0  0  0  0  0  0  0  0  0
    3.8328   18.8707  -17.5618 C   0  0  0  0  0  0  0  0  0  0  0  0
    4.3648   17.1525  -19.1936 C   0  0  0  0  0  0  0  0  0  0  0  0
    4.5059   16.0077  -19.3431 N   0  0  0  0  0  0  0  0  0  0  0  0
 20 21  1  0  0  0
 21 12  1  0  0  0
 12 13  2  0  0  0
 13 14  1  0  0  0
 14 22  1  0  0  0
 22 23  1  0  0  0
 14 15  2  0  0  0
 15 16  1  0  0  0
 15 17  1  0  0  0
 17  1  1  0  0  0
  1  2  1  0  0  0
  2  3  1  0  0  0
  3  4  2  0  0  0
  4  5  1  0  0  0
  5  6  2  0  0  0
  6  7  1  0  0  0
  7  8  2  0  0  0
  8  9  1  0  0  0
  9 10  1  0  0  0
 10 11  2  0  0  0
  9 24  1  0  0  0
 24 25  2  0  0  0
 25 26  1  0  0  0
 26 27  2  0  0  0
 27 28  1  0  0  0
 28 29  2  0  0  0
  6 30  1  0  0  0
 30 31  2  0  0  0
 31 32  1  0  0  0
 32 33  2  0  0  0
 33 34  1  0  0  0
 34 35  2  0  0  0
 33 36  1  0  0  0
 36 37  1  0  0  0
 37 38  1  0  0  0
 38 39  1  0  0  0
 36 40  1  0  0  0
 40 41  3  0  0  0
 17 18  2  0  0  0
 18 19  1  0  0  0
 18 12  1  0  0  0
 10  1  1  0  0  0
 29 24  1  0  0  0
 35 30  1  0  0  0
 39 36  1  0  0  0
  8  3  1  0  0  0
M  END
> <minimizedAffinity>
-7.26138

> <CNNscore>
0.1188802794

> <CNNaffinity>
7.2947845459

> <CNN_VS>
0.8672060370

> <CNNaffinity_variance>
0.1608827561

$$$$
[H]c1nc([H])c(N2C(=O)N(c3c(F)c(OC([H])([H])[H])c([H])c(OC([H])([H])[H])c3F)C([H])([H])c3c([H])nc(-c4c([H])nc(C5(C#N)C([H])([H])C([H])([H])C5([H])[H])c([H])c4[H])c([H])c32)c([H])c1[H]


 41 46  0  0  0  0  0  0  0  0999 V2000
   -3.1864   22.8423  -21.8287 N   0  0  0  0  0  0  0  0  0  0  0  0
   -4.2365   22.3002  -21.0362 C   0  0  0  0  0  0  0  0  0  0  0  0
   -3.8001   21.8971  -19.6916 C   0  0  0  0  0  0  0  0  0  0  0  0
   -4.7979   21.4069  -18.8228 C   0  0  0  0  0  0  0  0  0  0  0  0
   -4.4964   21.0017  -17.5880 N   0  0  0  0  0  0  0  0  0  0  0  0
   -3.2009   21.0592  -17.1437 C   0  0  0  0  0  0  0  0  0  0  0  0
   -2.2123   21.5294  -17.9612 C   0  0  0  0  0  0  0  0  0  0  0  0
   -2.4997   21.9594  -19.2602 C   0  0  0  0  0  0  0  0  0  0  0  0
   -1.4931   22.4716  -20.1340 N   0  0  0  0  0  0  0  0  0  0  0  0
   -1.8202   22.9239  -21.4433 C   0  0  0  0  0  0  0  0  0  0  0  0
   -0.9039   23.3604  -22.1684 O   0  0  0  0  0  0  0  0  0  0  0  0
   -3.4681   23.1084  -25.5481 C   0  0  0  0  0  0  0  0  0  0  0  0
   -4.0130   24.3785  -25.6114 C   0  0  0  0  0  0  0  0  0  0  0  0
   -4.2824   25.1334  -24.4972 C   0  0  0  0  0  0  0  0  0  0  0  0
   -3.9996   24.6130  -23.2236 C   0  0  0  0  0  0  0  0  0  0  0  0
   -4.2546   25.3713  -22.1165 F   0  0  0  0  0  0  0  0  0  0  0  0
   -3.4630   23.3619  -23.1411 C   0  0  0  0  0  0  0  0  0  0  0  0
   -3.1984   22.6145  -24.2689 C   0  0  0  0  0  0  0  0  0  0  0  0
   -2.6675   21.3774  -24.1492 F   0  0  0  0  0  0  0  0  0  0  0  0
   -2.2896   22.7014  -27.6584 C   0  0  0  0  0  0  0  0  0  0  0  0
   -3.1773   22.3230  -26.6341 O   0  0  0  0  0  0  0  0  0  0  0  0
   -4.8192   26.3906  -24.5068 O   0  0  0  0  0  0  0  0  0  0  0  0
   -4.5336   27.3636  -25.4485 C   0  0  0  0  0  0  0  0  0  0  0  0
   -0.1875   22.4828  -19.6376 C   0  0  0  0  0  0  0  0  0  0  0  0
    0.6262   21.3845  -19.8466 C   0  0  0  0  0  0  0  0  0  0  0  0
    1.9215   21.3081  -19.3792 C   0  0  0  0  0  0  0  0  0  0  0  0
    2.3710   22.4045  -18.6815 C   0  0  0  0  0  0  0  0  0  0  0  0
    1.5712   23.4849  -18.4763 N   0  0  0  0  0  0  0  0  0  0  0  0
    0.3141   23.5451  -18.9360 C   0  0  0  0  0  0  0  0  0  0  0  0
   -2.8570   20.5923  -15.8211 C   0  0  0  0  0  0  0  0  0  0  0  0
   -3.1278   21.3100  -14.7012 C   0  0  0  0  0  0  0  0  0  0  0  0
   -2.7288   20.8101  -13.4588 C   0  0  0  0  0  0  0  0  0  0  0  0
   -2.0774   19.6166  -13.3792 C   0  0  0  0  0  0  0  0  0  0  0  0
   -1.8143   18.9124  -14.4927 N   0  0  0  0  0  0  0  0  0  0  0  0
   -2.1985   19.3934  -15.6943 C   0  0  0  0  0  0  0  0  0  0  0  0
   -1.6636   19.0986  -12.0805 C   0  0  0  0  0  0  0  0  0  0  0  0
   -1.7631   20.1165  -10.9287 C   0  0  0  0  0  0  0  0  0  0  0  0
   -2.0635   18.8987  -10.0457 C   0  0  0  0  0  0  0  0  0  0  0  0
   -2.7150   18.3017  -11.3001 C   0  0  0  0  0  0  0  0  0  0  0  0
   -0.3981   18.3741  -12.0245 C   0  0  0  0  0  0  0  0  0  0  0  0
    0.6042   17.7846  -11.9960 N   0  0  0  0  0  0  0  0  0  0  0  0
 20 21  1  0  0  0
 21 12  1  0  0  0
 12 13  2  0  0  0
 13 14  1  0  0  0
 14 22  1  0  0  0
 22 23  1  0  0  0
 14 15  2  0  0  0
 15 16  1  0  0  0
 15 17  1  0  0  0
 17  1  1  0  0  0
  1  2  1  0  0  0
  2  3  1  0  0  0
  3  4  2  0  0  0
  4  5  1  0  0  0
  5  6  2  0  0  0
  6  7  1  0  0  0
  7  8  2  0  0  0
  8  9  1  0  0  0
  9 10  1  0  0  0
 10 11  2  0  0  0
  9 24  1  0  0  0
 24 25  2  0  0  0
 25 26  1  0  0  0
 26 27  2  0  0  0
 27 28  1  0  0  0
 28 29  2  0  0  0
  6 30  1  0  0  0
 30 31  2  0  0  0
 31 32  1  0  0  0
 32 33  2  0  0  0
 33 34  1  0  0  0
 34 35  2  0  0  0
 33 36  1  0  0  0
 36 37  1  0  0  0
 37 38  1  0  0  0
 38 39  1  0  0  0
 36 40  1  0  0  0
 40 41  3  0  0  0
 17 18  2  0  0  0
 18 19  1  0  0  0
 18 12  1  0  0  0
 10  1  1  0  0  0
 29 24  1  0  0  0
 35 30  1  0  0  0
 39 36  1  0  0  0
  8  3  1  0  0  0
M  END
> <minimizedAffinity>
-5.90530

> <CNNscore>
0.1109654084

> <CNNaffinity>
6.6458220482

> <CNN_VS>
0.7374563813

> <CNNaffinity_variance>
0.0218784660

$$$$
[H]c1nc2c([H])c([H])c(N(c3c([H])c(OC([H])([H])[H])c([H])c(OC([H])([H])[H])c3F)C([H])([H])c3nn([H])c([H])c3[H])nc2c([H])c1-c1c([H])nn(C([H])([H])[H])c1[H]


 35 39  0  0  0  0  0  0  0  0999 V2000
   -4.4425   23.4968  -27.5045 N   0  0  0  0  0  0  0  0  0  0  0  0
   -3.1711   23.0560  -27.0604 C   0  0  0  0  0  0  0  0  0  0  0  0
   -2.1833   22.9857  -28.0566 C   0  0  0  0  0  0  0  0  0  0  0  0
   -0.9211   22.5835  -27.7132 C   0  0  0  0  0  0  0  0  0  0  0  0
   -0.6619   22.2626  -26.4074 C   0  0  0  0  0  0  0  0  0  0  0  0
    0.5814   21.8634  -26.0261 N   0  0  0  0  0  0  0  0  0  0  0  0
    0.8646   21.5516  -24.7729 C   0  0  0  0  0  0  0  0  0  0  0  0
   -0.0744   21.6076  -23.7644 C   0  0  0  0  0  0  0  0  0  0  0  0
   -1.3457   22.0070  -24.1099 C   0  0  0  0  0  0  0  0  0  0  0  0
   -1.6275   22.3305  -25.4281 C   0  0  0  0  0  0  0  0  0  0  0  0
   -2.8850   22.7340  -25.7871 N   0  0  0  0  0  0  0  0  0  0  0  0
    0.2958   21.2606  -22.3971 C   0  0  0  0  0  0  0  0  0  0  0  0
    1.5236   20.7993  -21.9743 C   0  0  0  0  0  0  0  0  0  0  0  0
    1.4078   20.6058  -20.6454 N   0  0  0  0  0  0  0  0  0  0  0  0
    0.1781   20.9226  -20.2292 N   0  0  0  0  0  0  0  0  0  0  0  0
   -0.2503   20.8179  -18.8435 C   0  0  0  0  0  0  0  0  0  0  0  0
   -0.5079   21.3240  -21.2951 C   0  0  0  0  0  0  0  0  0  0  0  0
   -5.3450   26.5499  -25.6971 C   0  0  0  0  0  0  0  0  0  0  0  0
   -6.5967   26.2251  -25.1532 C   0  0  0  0  0  0  0  0  0  0  0  0
   -7.1325   24.9876  -25.4206 C   0  0  0  0  0  0  0  0  0  0  0  0
   -6.4157   24.1148  -26.2107 C   0  0  0  0  0  0  0  0  0  0  0  0
   -6.9955   22.9002  -26.4406 F   0  0  0  0  0  0  0  0  0  0  0  0
   -5.1705   24.4409  -26.7489 C   0  0  0  0  0  0  0  0  0  0  0  0
   -4.6287   25.6813  -26.4870 C   0  0  0  0  0  0  0  0  0  0  0  0
   -3.5228   27.9228  -24.8995 C   0  0  0  0  0  0  0  0  0  0  0  0
   -4.8203   27.8176  -25.4109 O   0  0  0  0  0  0  0  0  0  0  0  0
   -8.3525   24.6150  -24.9273 O   0  0  0  0  0  0  0  0  0  0  0  0
   -8.8562   24.9692  -23.6506 C   0  0  0  0  0  0  0  0  0  0  0  0
   -4.9644   23.0003  -28.7859 C   0  0  0  0  0  0  0  0  0  0  0  0
   -5.1213   24.0881  -29.7780 C   0  0  0  0  0  0  0  0  0  0  0  0
   -4.3111   25.1625  -30.0746 C   0  0  0  0  0  0  0  0  0  0  0  0
   -4.8993   25.8957  -31.0759 C   0  0  0  0  0  0  0  0  0  0  0  0
   -6.0603   25.2658  -31.3802 N   0  0  0  0  0  0  0  0  0  0  0  0
   -6.1831   24.1980  -30.6081 N   0  0  0  0  0  0  0  0  0  0  0  0
   -6.7283   25.5970  -32.1140 H   0  0  0  0  0  0  0  0  0  0  0  0
 25 26  1  0  0  0
 26 18  1  0  0  0
 18 19  2  0  0  0
 19 20  1  0  0  0
 20 27  1  0  0  0
 27 28  1  0  0  0
 20 21  2  0  0  0
 21 22  1  0  0  0
 21 23  1  0  0  0
 23 24  2  0  0  0
 23  1  1  0  0  0
  1 29  1  0  0  0
 29 30  1  0  0  0
 30 31  1  0  0  0
 31 32  2  0  0  0
 32 33  1  0  0  0
 33 34  1  0  0  0
  1  2  1  0  0  0
  2  3  2  0  0  0
  3  4  1  0  0  0
  4  5  2  0  0  0
  5  6  1  0  0  0
  6  7  2  0  0  0
  7  8  1  0  0  0
  8  9  2  0  0  0
  9 10  1  0  0  0
 10 11  2  0  0  0
  8 12  1  0  0  0
 12 13  1  0  0  0
 13 14  2  0  0  0
 14 15  1  0  0  0
 15 16  1  0  0  0
 15 17  1  0  0  0
 24 18  1  0  0  0
 34 30  2  0  0  0
 11  2  1  0  0  0
 17 12  2  0  0  0
 10  5  1  0  0  0
 33 35  1  0  0  0
M  END
> <minimizedAffinity>
-8.64260

> <CNNscore>
0.8608476520

> <CNNaffinity>
8.1731958389

> <CNN_VS>
7.0358762741

> <CNNaffinity_variance>
0.0774382353

$$$$
[H]c1nc2c([H])c([H])c(N(c3c([H])c(OC([H])([H])[H])c([H])c(OC([H])([H])[H])c3F)C([H])([H])c3nn([H])c([H])c3[H])nc2c([H])c1-c1c([H])nn(C([H])([H])[H])c1[H]


 35 39  0  0  0  0  0  0  0  0999 V2000
   -3.7142   22.5435  -26.3412 N   0  0  0  0  0  0  0  0  0  0  0  0
   -3.9705   22.2503  -24.9788 C   0  0  0  0  0  0  0  0  0  0  0  0
   -2.8496   21.8459  -24.2350 C   0  0  0  0  0  0  0  0  0  0  0  0
   -3.0033   21.5569  -22.9062 C   0  0  0  0  0  0  0  0  0  0  0  0
   -4.2468   21.6718  -22.3443 C   0  0  0  0  0  0  0  0  0  0  0  0
   -4.4387   21.3981  -21.0256 N   0  0  0  0  0  0  0  0  0  0  0  0
   -5.6254   21.5042  -20.4524 C   0  0  0  0  0  0  0  0  0  0  0  0
   -6.7509   21.8983  -21.1451 C   0  0  0  0  0  0  0  0  0  0  0  0
   -6.5983   22.1842  -22.4831 C   0  0  0  0  0  0  0  0  0  0  0  0
   -5.3478   22.0680  -23.0700 C   0  0  0  0  0  0  0  0  0  0  0  0
   -5.1783   22.3533  -24.3978 N   0  0  0  0  0  0  0  0  0  0  0  0
   -8.0337   22.0068  -20.4599 C   0  0  0  0  0  0  0  0  0  0  0  0
   -8.5395   21.1274  -19.5272 C   0  0  0  0  0  0  0  0  0  0  0  0
   -9.7439   21.6176  -19.1725 N   0  0  0  0  0  0  0  0  0  0  0  0
  -10.0054   22.7483  -19.8350 N   0  0  0  0  0  0  0  0  0  0  0  0
  -11.2316   23.5113  -19.6647 C   0  0  0  0  0  0  0  0  0  0  0  0
   -8.9637   22.9927  -20.6244 C   0  0  0  0  0  0  0  0  0  0  0  0
   -4.9055   25.9685  -26.8433 C   0  0  0  0  0  0  0  0  0  0  0  0
   -5.5001   25.9031  -28.1122 C   0  0  0  0  0  0  0  0  0  0  0  0
   -5.4731   24.7094  -28.7940 C   0  0  0  0  0  0  0  0  0  0  0  0
   -4.8646   23.6243  -28.2007 C   0  0  0  0  0  0  0  0  0  0  0  0
   -4.8699   22.4654  -28.9226 F   0  0  0  0  0  0  0  0  0  0  0  0
   -4.2752   23.6930  -26.9380 C   0  0  0  0  0  0  0  0  0  0  0  0
   -4.2963   24.8876  -26.2501 C   0  0  0  0  0  0  0  0  0  0  0  0
   -4.1394   27.3853  -25.0414 C   0  0  0  0  0  0  0  0  0  0  0  0
   -4.9452   27.1964  -26.1687 O   0  0  0  0  0  0  0  0  0  0  0  0
   -6.0272   24.5840  -30.0380 O   0  0  0  0  0  0  0  0  0  0  0  0
   -5.6553   25.3452  -31.1745 C   0  0  0  0  0  0  0  0  0  0  0  0
   -2.8144   21.6668  -27.1047 C   0  0  0  0  0  0  0  0  0  0  0  0
   -1.5486   22.3478  -27.4599 C   0  0  0  0  0  0  0  0  0  0  0  0
   -0.3696   22.4832  -26.7596 C   0  0  0  0  0  0  0  0  0  0  0  0
    0.5131   23.2124  -27.5182 C   0  0  0  0  0  0  0  0  0  0  0  0
   -0.1327   23.5162  -28.6706 N   0  0  0  0  0  0  0  0  0  0  0  0
   -1.3508   23.0007  -28.6274 N   0  0  0  0  0  0  0  0  0  0  0  0
    0.2934   24.0701  -29.4490 H   0  0  0  0  0  0  0  0  0  0  0  0
 25 26  1  0  0  0
 26 18  1  0  0  0
 18 19  2  0  0  0
 19 20  1  0  0  0
 20 27  1  0  0  0
 27 28  1  0  0  0
 20 21  2  0  0  0
 21 22  1  0  0  0
 21 23  1  0  0  0
 23 24  2  0  0  0
 23  1  1  0  0  0
  1 29  1  0  0  0
 29 30  1  0  0  0
 30 31  1  0  0  0
 31 32  2  0  0  0
 32 33  1  0  0  0
 33 34  1  0  0  0
  1  2  1  0  0  0
  2  3  2  0  0  0
  3  4  1  0  0  0
  4  5  2  0  0  0
  5  6  1  0  0  0
  6  7  2  0  0  0
  7  8  1  0  0  0
  8  9  2  0  0  0
  9 10  1  0  0  0
 10 11  2  0  0  0
  8 12  1  0  0  0
 12 13  1  0  0  0
 13 14  2  0  0  0
 14 15  1  0  0  0
 15 16  1  0  0  0
 15 17  1  0  0  0
 24 18  1  0  0  0
 34 30  2  0  0  0
 11  2  1  0  0  0
 17 12  2  0  0  0
 10  5  1  0  0  0
 33 35  1  0  0  0
M  END
> <minimizedAffinity>
-8.35136

> <CNNscore>
0.4642947912

> <CNNaffinity>
7.5262403488

> <CNN_VS>
3.4943943024

> <CNNaffinity_variance>
0.1191995144

$$$$
[H]c1nc2c([H])c([H])c(N(c3c([H])c(OC([H])([H])[H])c([H])c(OC([H])([H])[H])c3F)C([H])([H])c3nn([H])c([H])c3[H])nc2c([H])c1-c1c([H])nn(C([H])([H])[H])c1[H]


 35 39  0  0  0  0  0  0  0  0999 V2000
   -4.3477   23.3850  -26.5463 N   0  0  0  0  0  0  0  0  0  0  0  0
   -5.1344   24.1099  -25.6170 C   0  0  0  0  0  0  0  0  0  0  0  0
   -5.0212   25.5074  -25.7025 C   0  0  0  0  0  0  0  0  0  0  0  0
   -5.7577   26.2867  -24.8520 C   0  0  0  0  0  0  0  0  0  0  0  0
   -6.5822   25.6775  -23.9442 C   0  0  0  0  0  0  0  0  0  0  0  0
   -7.3338   26.4180  -23.0854 N   0  0  0  0  0  0  0  0  0  0  0  0
   -8.1429   25.8602  -22.2011 C   0  0  0  0  0  0  0  0  0  0  0  0
   -8.2845   24.4934  -22.0842 C   0  0  0  0  0  0  0  0  0  0  0  0
   -7.5402   23.7085  -22.9357 C   0  0  0  0  0  0  0  0  0  0  0  0
   -6.6959   24.3080  -23.8575 C   0  0  0  0  0  0  0  0  0  0  0  0
   -5.9529   23.5422  -24.7145 N   0  0  0  0  0  0  0  0  0  0  0  0
   -9.1988   23.9322  -21.0961 C   0  0  0  0  0  0  0  0  0  0  0  0
  -10.4400   24.4258  -20.7573 C   0  0  0  0  0  0  0  0  0  0  0  0
  -10.9185   23.6002  -19.8054 N   0  0  0  0  0  0  0  0  0  0  0  0
  -10.0408   22.6277  -19.5414 N   0  0  0  0  0  0  0  0  0  0  0  0
  -10.2749   21.5828  -18.5575 C   0  0  0  0  0  0  0  0  0  0  0  0
   -8.9863   22.8242  -20.3271 C   0  0  0  0  0  0  0  0  0  0  0  0
   -0.7484   22.7526  -26.7642 C   0  0  0  0  0  0  0  0  0  0  0  0
   -0.4786   22.0981  -25.5531 C   0  0  0  0  0  0  0  0  0  0  0  0
   -1.5099   21.8971  -24.6664 C   0  0  0  0  0  0  0  0  0  0  0  0
   -2.7685   22.3449  -25.0056 C   0  0  0  0  0  0  0  0  0  0  0  0
   -3.7536   22.1159  -24.0883 F   0  0  0  0  0  0  0  0  0  0  0  0
   -3.0333   22.9945  -26.2116 C   0  0  0  0  0  0  0  0  0  0  0  0
   -2.0031   23.2017  -27.1041 C   0  0  0  0  0  0  0  0  0  0  0  0
    0.0581   23.3867  -28.9525 C   0  0  0  0  0  0  0  0  0  0  0  0
    0.3194   22.9465  -27.6511 O   0  0  0  0  0  0  0  0  0  0  0  0
   -1.3091   21.2738  -23.4658 O   0  0  0  0  0  0  0  0  0  0  0  0
   -0.6947   21.8667  -22.3343 C   0  0  0  0  0  0  0  0  0  0  0  0
   -4.9379   22.9996  -27.8362 C   0  0  0  0  0  0  0  0  0  0  0  0
   -5.0558   24.1529  -28.7572 C   0  0  0  0  0  0  0  0  0  0  0  0
   -4.0963   24.9943  -29.2769 C   0  0  0  0  0  0  0  0  0  0  0  0
   -4.7112   25.9199  -30.0840 C   0  0  0  0  0  0  0  0  0  0  0  0
   -6.0365   25.6376  -30.0493 N   0  0  0  0  0  0  0  0  0  0  0  0
   -6.2309   24.5913  -29.2627 N   0  0  0  0  0  0  0  0  0  0  0  0
   -6.7619   26.1796  -30.5732 H   0  0  0  0  0  0  0  0  0  0  0  0
 25 26  1  0  0  0
 26 18  1  0  0  0
 18 19  2  0  0  0
 19 20  1  0  0  0
 20 27  1  0  0  0
 27 28  1  0  0  0
 20 21  2  0  0  0
 21 22  1  0  0  0
 21 23  1  0  0  0
 23 24  2  0  0  0
 23  1  1  0  0  0
  1 29  1  0  0  0
 29 30  1  0  0  0
 30 31  1  0  0  0
 31 32  2  0  0  0
 32 33  1  0  0  0
 33 34  1  0  0  0
  1  2  1  0  0  0
  2  3  2  0  0  0
  3  4  1  0  0  0
  4  5  2  0  0  0
  5  6  1  0  0  0
  6  7  2  0  0  0
  7  8  1  0  0  0
  8  9  2  0  0  0
  9 10  1  0  0  0
 10 11  2  0  0  0
  8 12  1  0  0  0
 12 13  1  0  0  0
 13 14  2  0  0  0
 14 15  1  0  0  0
 15 16  1  0  0  0
 15 17  1  0  0  0
 24 18  1  0  0  0
 34 30  2  0  0  0
 11  2  1  0  0  0
 17 12  2  0  0  0
 10  5  1  0  0  0
 33 35  1  0  0  0
M  END
> <minimizedAffinity>
-8.71905

> <CNNscore>
0.4384151697

> <CNNaffinity>
7.4606003761

> <CNN_VS>
3.2708404064

> <CNNaffinity_variance>
0.0324225873

$$$$
[H]c1nc2c([H])c([H])c(N(c3c([H])c(OC([H])([H])[H])c([H])c(OC([H])([H])[H])c3F)C([H])([H])c3nn([H])c([H])c3[H])nc2c([H])c1-c1c([H])nn(C([H])([H])[H])c1[H]


 35 39  0  0  0  0  0  0  0  0999 V2000
    1.1254   20.4113  -21.1154 N   0  0  0  0  0  0  0  0  0  0  0  0
    0.8359   20.9527  -22.3925 C   0  0  0  0  0  0  0  0  0  0  0  0
    1.9513   21.1489  -23.2235 C   0  0  0  0  0  0  0  0  0  0  0  0
    1.7620   21.6545  -24.4810 C   0  0  0  0  0  0  0  0  0  0  0  0
    0.4892   21.9529  -24.8887 C   0  0  0  0  0  0  0  0  0  0  0  0
    0.2599   22.4524  -26.1331 N   0  0  0  0  0  0  0  0  0  0  0  0
   -0.9571   22.7457  -26.5582 C   0  0  0  0  0  0  0  0  0  0  0  0
   -2.0788   22.5679  -25.7758 C   0  0  0  0  0  0  0  0  0  0  0  0
   -1.8888   22.0643  -24.5088 C   0  0  0  0  0  0  0  0  0  0  0  0
   -0.6066   21.7617  -24.0772 C   0  0  0  0  0  0  0  0  0  0  0  0
   -0.4011   21.2558  -22.8223 N   0  0  0  0  0  0  0  0  0  0  0  0
   -3.3988   22.9003  -26.2993 C   0  0  0  0  0  0  0  0  0  0  0  0
   -3.7427   23.0310  -27.6273 C   0  0  0  0  0  0  0  0  0  0  0  0
   -5.0524   23.3493  -27.6401 N   0  0  0  0  0  0  0  0  0  0  0  0
   -5.5314   23.4211  -26.3946 N   0  0  0  0  0  0  0  0  0  0  0  0
   -6.9147   23.7460  -26.0858 C   0  0  0  0  0  0  0  0  0  0  0  0
   -4.5256   23.1476  -25.5689 C   0  0  0  0  0  0  0  0  0  0  0  0
    0.1042   17.0113  -20.2216 C   0  0  0  0  0  0  0  0  0  0  0  0
    1.2725   16.2699  -20.4527 C   0  0  0  0  0  0  0  0  0  0  0  0
    2.3856   16.9216  -20.9287 C   0  0  0  0  0  0  0  0  0  0  0  0
    2.3084   18.2787  -21.1568 C   0  0  0  0  0  0  0  0  0  0  0  0
    3.4443   18.8730  -21.6269 F   0  0  0  0  0  0  0  0  0  0  0  0
    1.1450   19.0129  -20.9247 C   0  0  0  0  0  0  0  0  0  0  0  0
    0.0245   18.3651  -20.4500 C   0  0  0  0  0  0  0  0  0  0  0  0
   -0.8382   15.1233  -19.0433 C   0  0  0  0  0  0  0  0  0  0  0  0
   -1.0172   16.3242  -19.7373 O   0  0  0  0  0  0  0  0  0  0  0  0
    3.5514   16.2532  -21.1826 O   0  0  0  0  0  0  0  0  0  0  0  0
    3.9073   15.6840  -22.4311 C   0  0  0  0  0  0  0  0  0  0  0  0
    1.4582   21.3224  -20.0108 C   0  0  0  0  0  0  0  0  0  0  0  0
    2.9070   21.3155  -19.7055 C   0  0  0  0  0  0  0  0  0  0  0  0
    3.5978   20.8242  -18.6191 C   0  0  0  0  0  0  0  0  0  0  0  0
    4.9374   21.0658  -18.8018 C   0  0  0  0  0  0  0  0  0  0  0  0
    5.0526   21.7017  -19.9933 N   0  0  0  0  0  0  0  0  0  0  0  0
    3.8473   21.8447  -20.5206 N   0  0  0  0  0  0  0  0  0  0  0  0
    5.9637   22.0142  -20.4016 H   0  0  0  0  0  0  0  0  0  0  0  0
 25 26  1  0  0  0
 26 18  1  0  0  0
 18 19  2  0  0  0
 19 20  1  0  0  0
 20 27  1  0  0  0
 27 28  1  0  0  0
 20 21  2  0  0  0
 21 22  1  0  0  0
 21 23  1  0  0  0
 23 24  2  0  0  0
 23  1  1  0  0  0
  1 29  1  0  0  0
 29 30  1  0  0  0
 30 31  1  0  0  0
 31 32  2  0  0  0
 32 33  1  0  0  0
 33 34  1  0  0  0
  1  2  1  0  0  0
  2  3  2  0  0  0
  3  4  1  0  0  0
  4  5  2  0  0  0
  5  6  1  0  0  0
  6  7  2  0  0  0
  7  8  1  0  0  0
  8  9  2  0  0  0
  9 10  1  0  0  0
 10 11  2  0  0  0
  8 12  1  0  0  0
 12 13  1  0  0  0
 13 14  2  0  0  0
 14 15  1  0  0  0
 15 16  1  0  0  0
 15 17  1  0  0  0
 24 18  1  0  0  0
 34 30  2  0  0  0
 11  2  1  0  0  0
 17 12  2  0  0  0
 10  5  1  0  0  0
 33 35  1  0  0  0
M  END
> <minimizedAffinity>
-7.22377

> <CNNscore>
0.3423533738

> <CNNaffinity>
6.9528083801

> <CNN_VS>
2.3803174496

> <CNNaffinity_variance>
0.2011089772

$$$$
[H]c1nc2c([H])c([H])c(N(c3c([H])c(OC([H])([H])[H])c([H])c(OC([H])([H])[H])c3F)C([H])([H])c3nn([H])c([H])c3[H])nc2c([H])c1-c1c([H])nn(C([H])([H])[H])c1[H]


 35 39  0  0  0  0  0  0  0  0999 V2000
   -3.6310   22.2730  -25.7069 N   0  0  0  0  0  0  0  0  0  0  0  0
   -3.9885   22.0836  -24.3489 C   0  0  0  0  0  0  0  0  0  0  0  0
   -2.9207   21.7794  -23.4884 C   0  0  0  0  0  0  0  0  0  0  0  0
   -3.1732   21.5949  -22.1561 C   0  0  0  0  0  0  0  0  0  0  0  0
   -4.4606   21.7131  -21.7047 C   0  0  0  0  0  0  0  0  0  0  0  0
   -4.7508   21.5417  -20.3868 N   0  0  0  0  0  0  0  0  0  0  0  0
   -5.9823   21.6540  -19.9191 C   0  0  0  0  0  0  0  0  0  0  0  0
   -7.0585   21.9519  -20.7284 C   0  0  0  0  0  0  0  0  0  0  0  0
   -6.8064   22.1326  -22.0696 C   0  0  0  0  0  0  0  0  0  0  0  0
   -5.5098   22.0112  -22.5451 C   0  0  0  0  0  0  0  0  0  0  0  0
   -5.2415   22.1926  -23.8748 N   0  0  0  0  0  0  0  0  0  0  0  0
   -8.3950   22.0724  -20.1571 C   0  0  0  0  0  0  0  0  0  0  0  0
   -9.3497   23.0053  -20.4997 C   0  0  0  0  0  0  0  0  0  0  0  0
  -10.4168   22.7459  -19.7182 N   0  0  0  0  0  0  0  0  0  0  0  0
  -10.1705   21.7062  -18.9156 N   0  0  0  0  0  0  0  0  0  0  0  0
  -11.1336   21.1887  -17.9567 C   0  0  0  0  0  0  0  0  0  0  0  0
   -8.9357   21.2889  -19.1784 C   0  0  0  0  0  0  0  0  0  0  0  0
   -5.3071   24.1192  -28.3872 C   0  0  0  0  0  0  0  0  0  0  0  0
   -5.2239   25.4472  -27.9428 C   0  0  0  0  0  0  0  0  0  0  0  0
   -4.6228   25.7029  -26.7330 C   0  0  0  0  0  0  0  0  0  0  0  0
   -4.1236   24.6429  -26.0072 C   0  0  0  0  0  0  0  0  0  0  0  0
   -3.5358   24.9565  -24.8154 F   0  0  0  0  0  0  0  0  0  0  0  0
   -4.2072   23.3235  -26.4530 C   0  0  0  0  0  0  0  0  0  0  0  0
   -4.8111   23.0599  -27.6640 C   0  0  0  0  0  0  0  0  0  0  0  0
   -5.6333   24.7208  -30.7052 C   0  0  0  0  0  0  0  0  0  0  0  0
   -5.9251   23.8842  -29.6230 O   0  0  0  0  0  0  0  0  0  0  0  0
   -4.5189   26.9747  -26.2410 O   0  0  0  0  0  0  0  0  0  0  0  0
   -5.3525   27.5290  -25.2373 C   0  0  0  0  0  0  0  0  0  0  0  0
   -2.6145   21.3975  -26.3080 C   0  0  0  0  0  0  0  0  0  0  0  0
   -1.3714   22.1341  -26.6311 C   0  0  0  0  0  0  0  0  0  0  0  0
   -0.9807   22.7834  -27.7820 C   0  0  0  0  0  0  0  0  0  0  0  0
    0.2722   23.3113  -27.5872 C   0  0  0  0  0  0  0  0  0  0  0  0
    0.6351   22.9799  -26.3240 N   0  0  0  0  0  0  0  0  0  0  0  0
   -0.3429   22.2842  -25.7662 N   0  0  0  0  0  0  0  0  0  0  0  0
    1.5486   23.2482  -25.8905 H   0  0  0  0  0  0  0  0  0  0  0  0
 25 26  1  0  0  0
 26 18  1  0  0  0
 18 19  2  0  0  0
 19 20  1  0  0  0
 20 27  1  0  0  0
 27 28  1  0  0  0
 20 21  2  0  0  0
 21 22  1  0  0  0
 21 23  1  0  0  0
 23 24  2  0  0  0
 23  1  1  0  0  0
  1 29  1  0  0  0
 29 30  1  0  0  0
 30 31  1  0  0  0
 31 32  2  0  0  0
 32 33  1  0  0  0
 33 34  1  0  0  0
  1  2  1  0  0  0
  2  3  2  0  0  0
  3  4  1  0  0  0
  4  5  2  0  0  0
  5  6  1  0  0  0
  6  7  2  0  0  0
  7  8  1  0  0  0
  8  9  2  0  0  0
  9 10  1  0  0  0
 10 11  2  0  0  0
  8 12  1  0  0  0
 12 13  1  0  0  0
 13 14  2  0  0  0
 14 15  1  0  0  0
 15 16  1  0  0  0
 15 17  1  0  0  0
 24 18  1  0  0  0
 34 30  2  0  0  0
 11  2  1  0  0  0
 17 12  2  0  0  0
 10  5  1  0  0  0
 33 35  1  0  0  0
M  END
> <minimizedAffinity>
-8.07617

> <CNNscore>
0.2919450104

> <CNNaffinity>
7.1494231224

> <CNN_VS>
2.0872383118

> <CNNaffinity_variance>
0.0695038289

$$$$
[H]c1nc2c([H])c([H])c(N(c3c([H])c(OC([H])([H])[H])c([H])c(OC([H])([H])[H])c3F)C([H])([H])c3nn([H])c([H])c3[H])nc2c([H])c1-c1c([H])nn(C([H])([H])[H])c1[H]


 35 39  0  0  0  0  0  0  0  0999 V2000
    0.8584   20.5129  -20.8000 N   0  0  0  0  0  0  0  0  0  0  0  0
    0.6603   20.9773  -22.1240 C   0  0  0  0  0  0  0  0  0  0  0  0
    1.8279   21.0907  -22.8967 C   0  0  0  0  0  0  0  0  0  0  0  0
    1.7276   21.5181  -24.1929 C   0  0  0  0  0  0  0  0  0  0  0  0
    0.4903   21.8217  -24.6950 C   0  0  0  0  0  0  0  0  0  0  0  0
    0.3492   22.2451  -25.9801 N   0  0  0  0  0  0  0  0  0  0  0  0
   -0.8316   22.5411  -26.4957 C   0  0  0  0  0  0  0  0  0  0  0  0
   -2.0020   22.4431  -25.7729 C   0  0  0  0  0  0  0  0  0  0  0  0
   -1.9016   22.0182  -24.4674 C   0  0  0  0  0  0  0  0  0  0  0  0
   -0.6564   21.7117  -23.9407 C   0  0  0  0  0  0  0  0  0  0  0  0
   -0.5399   21.2832  -22.6461 N   0  0  0  0  0  0  0  0  0  0  0  0
   -3.2787   22.7744  -26.3953 C   0  0  0  0  0  0  0  0  0  0  0  0
   -4.4700   23.0084  -25.7432 C   0  0  0  0  0  0  0  0  0  0  0  0
   -5.3745   23.2678  -26.7083 N   0  0  0  0  0  0  0  0  0  0  0  0
   -4.8051   23.2062  -27.9157 N   0  0  0  0  0  0  0  0  0  0  0  0
   -5.5285   23.4397  -29.1554 C   0  0  0  0  0  0  0  0  0  0  0  0
   -3.5231   22.9049  -27.7322 C   0  0  0  0  0  0  0  0  0  0  0  0
    1.5995   16.9279  -20.8301 C   0  0  0  0  0  0  0  0  0  0  0  0
    0.5834   16.3983  -20.0206 C   0  0  0  0  0  0  0  0  0  0  0  0
   -0.3275   17.2591  -19.4555 C   0  0  0  0  0  0  0  0  0  0  0  0
   -0.2065   18.6083  -19.7101 C   0  0  0  0  0  0  0  0  0  0  0  0
   -1.1399   19.4148  -19.1248 F   0  0  0  0  0  0  0  0  0  0  0  0
    0.8047   19.1311  -20.5167 C   0  0  0  0  0  0  0  0  0  0  0  0
    1.7231   18.2738  -21.0842 C   0  0  0  0  0  0  0  0  0  0  0  0
    3.4366   16.4943  -22.3395 C   0  0  0  0  0  0  0  0  0  0  0  0
    2.5163   16.0303  -21.3940 O   0  0  0  0  0  0  0  0  0  0  0  0
   -1.3352   16.8055  -18.6498 O   0  0  0  0  0  0  0  0  0  0  0  0
   -1.1538   16.0143  -17.4878 C   0  0  0  0  0  0  0  0  0  0  0  0
    1.1743   21.4826  -19.7414 C   0  0  0  0  0  0  0  0  0  0  0  0
    2.5649   21.3365  -19.2545 C   0  0  0  0  0  0  0  0  0  0  0  0
    3.7657   21.6775  -19.8380 C   0  0  0  0  0  0  0  0  0  0  0  0
    4.7849   21.3326  -18.9845 C   0  0  0  0  0  0  0  0  0  0  0  0
    4.1999   20.7846  -17.8915 N   0  0  0  0  0  0  0  0  0  0  0  0
    2.8873   20.7914  -18.0597 N   0  0  0  0  0  0  0  0  0  0  0  0
    4.7307   20.4252  -17.0647 H   0  0  0  0  0  0  0  0  0  0  0  0
 25 26  1  0  0  0
 26 18  1  0  0  0
 18 19  2  0  0  0
 19 20  1  0  0  0
 20 27  1  0  0  0
 27 28  1  0  0  0
 20 21  2  0  0  0
 21 22  1  0  0  0
 21 23  1  0  0  0
 23 24  2  0  0  0
 23  1  1  0  0  0
  1 29  1  0  0  0
 29 30  1  0  0  0
 30 31  1  0  0  0
 31 32  2  0  0  0
 32 33  1  0  0  0
 33 34  1  0  0  0
  1  2  1  0  0  0
  2  3  2  0  0  0
  3  4  1  0  0  0
  4  5  2  0  0  0
  5  6  1  0  0  0
  6  7  2  0  0  0
  7  8  1  0  0  0
  8  9  2  0  0  0
  9 10  1  0  0  0
 10 11  2  0  0  0
  8 12  1  0  0  0
 12 13  1  0  0  0
 13 14  2  0  0  0
 14 15  1  0  0  0
 15 16  1  0  0  0
 15 17  1  0  0  0
 24 18  1  0  0  0
 34 30  2  0  0  0
 11  2  1  0  0  0
 17 12  2  0  0  0
 10  5  1  0  0  0
 33 35  1  0  0  0
M  END
> <minimizedAffinity>
-6.88240

> <CNNscore>
0.2883789241

> <CNNaffinity>
6.7723221779

> <CNN_VS>
1.9529949427

> <CNNaffinity_variance>
0.1347233504

$$$$
[H]c1nc2c([H])c([H])c(N(c3c([H])c(OC([H])([H])[H])c([H])c(OC([H])([H])[H])c3F)C([H])([H])c3nn([H])c([H])c3[H])nc2c([H])c1-c1c([H])nn(C([H])([H])[H])c1[H]


 35 39  0  0  0  0  0  0  0  0999 V2000
   -3.8838   22.4888  -25.5526 N   0  0  0  0  0  0  0  0  0  0  0  0
   -4.6520   22.2825  -24.3799 C   0  0  0  0  0  0  0  0  0  0  0  0
   -5.8933   21.6572  -24.5828 C   0  0  0  0  0  0  0  0  0  0  0  0
   -6.6947   21.4056  -23.5024 C   0  0  0  0  0  0  0  0  0  0  0  0
   -6.2594   21.7721  -22.2568 C   0  0  0  0  0  0  0  0  0  0  0  0
   -7.0252   21.5343  -21.1579 N   0  0  0  0  0  0  0  0  0  0  0  0
   -6.6312   21.8715  -19.9418 C   0  0  0  0  0  0  0  0  0  0  0  0
   -5.4208   22.4858  -19.6981 C   0  0  0  0  0  0  0  0  0  0  0  0
   -4.6162   22.7441  -20.7849 C   0  0  0  0  0  0  0  0  0  0  0  0
   -5.0433   22.3850  -22.0539 C   0  0  0  0  0  0  0  0  0  0  0  0
   -4.2532   22.6303  -23.1442 N   0  0  0  0  0  0  0  0  0  0  0  0
   -5.0329   22.8279  -18.3345 C   0  0  0  0  0  0  0  0  0  0  0  0
   -3.7890   22.6491  -17.7689 C   0  0  0  0  0  0  0  0  0  0  0  0
   -3.8917   23.0964  -16.5016 N   0  0  0  0  0  0  0  0  0  0  0  0
   -5.1286   23.5398  -16.2579 N   0  0  0  0  0  0  0  0  0  0  0  0
   -5.5463   24.0843  -14.9759 C   0  0  0  0  0  0  0  0  0  0  0  0
   -5.8324   23.3788  -17.3745 C   0  0  0  0  0  0  0  0  0  0  0  0
   -4.4430   25.9630  -26.5620 C   0  0  0  0  0  0  0  0  0  0  0  0
   -4.6342   25.8525  -27.9474 C   0  0  0  0  0  0  0  0  0  0  0  0
   -4.5504   24.6095  -28.5290 C   0  0  0  0  0  0  0  0  0  0  0  0
   -4.2844   23.5216  -27.7256 C   0  0  0  0  0  0  0  0  0  0  0  0
   -4.2151   22.3130  -28.3570 F   0  0  0  0  0  0  0  0  0  0  0  0
   -4.0959   23.6354  -26.3479 C   0  0  0  0  0  0  0  0  0  0  0  0
   -4.1759   24.8792  -25.7587 C   0  0  0  0  0  0  0  0  0  0  0  0
   -3.9750   27.4691  -24.7306 C   0  0  0  0  0  0  0  0  0  0  0  0
   -4.5324   27.2406  -25.9928 O   0  0  0  0  0  0  0  0  0  0  0  0
   -4.7181   24.4375  -29.8754 O   0  0  0  0  0  0  0  0  0  0  0  0
   -5.2241   25.4192  -30.7640 C   0  0  0  0  0  0  0  0  0  0  0  0
   -2.8297   21.5235  -25.8964 C   0  0  0  0  0  0  0  0  0  0  0  0
   -1.4823   22.0282  -25.5469 C   0  0  0  0  0  0  0  0  0  0  0  0
   -0.8282   22.0901  -24.3357 C   0  0  0  0  0  0  0  0  0  0  0  0
    0.4100   22.6513  -24.5310 C   0  0  0  0  0  0  0  0  0  0  0  0
    0.5005   22.9275  -25.8550 N   0  0  0  0  0  0  0  0  0  0  0  0
   -0.6226   22.5554  -26.4477 N   0  0  0  0  0  0  0  0  0  0  0  0
    1.3389   23.3639  -26.3034 H   0  0  0  0  0  0  0  0  0  0  0  0
 25 26  1  0  0  0
 26 18  1  0  0  0
 18 19  2  0  0  0
 19 20  1  0  0  0
 20 27  1  0  0  0
 27 28  1  0  0  0
 20 21  2  0  0  0
 21 22  1  0  0  0
 21 23  1  0  0  0
 23 24  2  0  0  0
 23  1  1  0  0  0
  1 29  1  0  0  0
 29 30  1  0  0  0
 30 31  1  0  0  0
 31 32  2  0  0  0
 32 33  1  0  0  0
 33 34  1  0  0  0
  1  2  1  0  0  0
  2  3  2  0  0  0
  3  4  1  0  0  0
  4  5  2  0  0  0
  5  6  1  0  0  0
  6  7  2  0  0  0
  7  8  1  0  0  0
  8  9  2  0  0  0
  9 10  1  0  0  0
 10 11  2  0  0  0
  8 12  1  0  0  0
 12 13  1  0  0  0
 13 14  2  0  0  0
 14 15  1  0  0  0
 15 16  1  0  0  0
 15 17  1  0  0  0
 24 18  1  0  0  0
 34 30  2  0  0  0
 11  2  1  0  0  0
 17 12  2  0  0  0
 10  5  1  0  0  0
 33 35  1  0  0  0
M  END
> <minimizedAffinity>
-7.68795

> <CNNscore>
0.2853582501

> <CNNaffinity>
7.1187601089

> <CNN_VS>
2.0313968658

> <CNNaffinity_variance>
0.0561084263

$$$$
[H]c1nc2c([H])c([H])c(N(c3c([H])c(OC([H])([H])[H])c([H])c(OC([H])([H])[H])c3F)C([H])([H])c3nn([H])c([H])c3[H])nc2c([H])c1-c1c([H])nn(C([H])([H])[H])c1[H]


 35 39  0  0  0  0  0  0  0  0999 V2000
    0.8867   20.6530  -20.5438 N   0  0  0  0  0  0  0  0  0  0  0  0
    0.7159   21.0265  -21.9000 C   0  0  0  0  0  0  0  0  0  0  0  0
    1.8858   21.0008  -22.6771 C   0  0  0  0  0  0  0  0  0  0  0  0
    1.8101   21.3331  -24.0026 C   0  0  0  0  0  0  0  0  0  0  0  0
    0.5945   21.6802  -24.5286 C   0  0  0  0  0  0  0  0  0  0  0  0
    0.4779   22.0120  -25.8428 N   0  0  0  0  0  0  0  0  0  0  0  0
   -0.6820   22.3468  -26.3817 C   0  0  0  0  0  0  0  0  0  0  0  0
   -1.8539   22.3842  -25.6555 C   0  0  0  0  0  0  0  0  0  0  0  0
   -1.7779   22.0551  -24.3210 C   0  0  0  0  0  0  0  0  0  0  0  0
   -0.5544   21.7065  -23.7701 C   0  0  0  0  0  0  0  0  0  0  0  0
   -0.4627   21.3720  -22.4462 N   0  0  0  0  0  0  0  0  0  0  0  0
   -3.1074   22.7523  -26.3038 C   0  0  0  0  0  0  0  0  0  0  0  0
   -3.3034   22.9473  -27.6538 C   0  0  0  0  0  0  0  0  0  0  0  0
   -4.6025   23.2776  -27.7945 N   0  0  0  0  0  0  0  0  0  0  0  0
   -5.2147   23.2960  -26.6067 N   0  0  0  0  0  0  0  0  0  0  0  0
   -6.6222   23.6187  -26.4359 C   0  0  0  0  0  0  0  0  0  0  0  0
   -4.3064   22.9756  -25.6900 C   0  0  0  0  0  0  0  0  0  0  0  0
    2.9257   22.9083  -18.5046 C   0  0  0  0  0  0  0  0  0  0  0  0
    4.1476   22.2244  -18.4202 C   0  0  0  0  0  0  0  0  0  0  0  0
    4.2632   20.9994  -19.0337 C   0  0  0  0  0  0  0  0  0  0  0  0
    3.1732   20.4945  -19.7096 C   0  0  0  0  0  0  0  0  0  0  0  0
    3.3465   19.2760  -20.3009 F   0  0  0  0  0  0  0  0  0  0  0  0
    1.9599   21.1781  -19.7923 C   0  0  0  0  0  0  0  0  0  0  0  0
    1.8363   22.4057  -19.1771 C   0  0  0  0  0  0  0  0  0  0  0  0
    3.9277   24.6399  -17.1486 C   0  0  0  0  0  0  0  0  0  0  0  0
    2.8324   24.1546  -17.8704 O   0  0  0  0  0  0  0  0  0  0  0  0
    5.4248   20.2796  -18.9798 O   0  0  0  0  0  0  0  0  0  0  0  0
    5.6643   19.1859  -18.1104 C   0  0  0  0  0  0  0  0  0  0  0  0
   -0.0980   19.7581  -19.9188 C   0  0  0  0  0  0  0  0  0  0  0  0
    0.3760   18.3560  -19.8785 C   0  0  0  0  0  0  0  0  0  0  0  0
    0.4524   17.4007  -20.8685 C   0  0  0  0  0  0  0  0  0  0  0  0
    0.9597   16.2445  -20.3280 C   0  0  0  0  0  0  0  0  0  0  0  0
    1.1866   16.5024  -19.0168 N   0  0  0  0  0  0  0  0  0  0  0  0
    0.8389   17.7532  -18.7601 N   0  0  0  0  0  0  0  0  0  0  0  0
    1.5760   15.8024  -18.3439 H   0  0  0  0  0  0  0  0  0  0  0  0
 25 26  1  0  0  0
 26 18  1  0  0  0
 18 19  2  0  0  0
 19 20  1  0  0  0
 20 27  1  0  0  0
 27 28  1  0  0  0
 20 21  2  0  0  0
 21 22  1  0  0  0
 21 23  1  0  0  0
 23 24  2  0  0  0
 23  1  1  0  0  0
  1 29  1  0  0  0
 29 30  1  0  0  0
 30 31  1  0  0  0
 31 32  2  0  0  0
 32 33  1  0  0  0
 33 34  1  0  0  0
  1  2  1  0  0  0
  2  3  2  0  0  0
  3  4  1  0  0  0
  4  5  2  0  0  0
  5  6  1  0  0  0
  6  7  2  0  0  0
  7  8  1  0  0  0
  8  9  2  0  0  0
  9 10  1  0  0  0
 10 11  2  0  0  0
  8 12  1  0  0  0
 12 13  1  0  0  0
 13 14  2  0  0  0
 14 15  1  0  0  0
 15 16  1  0  0  0
 15 17  1  0  0  0
 24 18  1  0  0  0
 34 30  2  0  0  0
 11  2  1  0  0  0
 17 12  2  0  0  0
 10  5  1  0  0  0
 33 35  1  0  0  0
M  END
> <minimizedAffinity>
-7.05989

> <CNNscore>
0.2728101015

> <CNNaffinity>
6.7563095093

> <CNN_VS>
1.8431894779

> <CNNaffinity_variance>
0.1296895891

$$$$
[H]c1nc2c([H])c([H])c(N(c3c([H])c(OC([H])([H])[H])c([H])c(OC([H])([H])[H])c3F)C([H])([H])c3nn([H])c([H])c3[H])nc2c([H])c1-c1c([H])nn(C([H])([H])[H])c1[H]


 35 39  0  0  0  0  0  0  0  0999 V2000
    0.6654   20.9095  -19.8440 N   0  0  0  0  0  0  0  0  0  0  0  0
    0.6440   21.1476  -21.2407 C   0  0  0  0  0  0  0  0  0  0  0  0
    1.8750   20.9719  -21.8941 C   0  0  0  0  0  0  0  0  0  0  0  0
    1.9425   21.1667  -23.2470 C   0  0  0  0  0  0  0  0  0  0  0  0
    0.8060   21.5270  -23.9205 C   0  0  0  0  0  0  0  0  0  0  0  0
    0.8318   21.7249  -25.2662 N   0  0  0  0  0  0  0  0  0  0  0  0
   -0.2490   22.0683  -25.9458 C   0  0  0  0  0  0  0  0  0  0  0  0
   -1.4765   22.2503  -25.3441 C   0  0  0  0  0  0  0  0  0  0  0  0
   -1.5444   22.0597  -23.9825 C   0  0  0  0  0  0  0  0  0  0  0  0
   -0.4024   21.7000  -23.2835 C   0  0  0  0  0  0  0  0  0  0  0  0
   -0.4540   21.5019  -21.9303 N   0  0  0  0  0  0  0  0  0  0  0  0
   -2.6381   22.6208  -26.1444 C   0  0  0  0  0  0  0  0  0  0  0  0
   -3.9495   22.6419  -25.7213 C   0  0  0  0  0  0  0  0  0  0  0  0
   -4.6751   23.0353  -26.7870 N   0  0  0  0  0  0  0  0  0  0  0  0
   -3.8826   23.2570  -27.8399 N   0  0  0  0  0  0  0  0  0  0  0  0
   -4.3763   23.6924  -29.1365 C   0  0  0  0  0  0  0  0  0  0  0  0
   -2.6351   23.0055  -27.4544 C   0  0  0  0  0  0  0  0  0  0  0  0
   -2.3134   19.6732  -18.1117 C   0  0  0  0  0  0  0  0  0  0  0  0
   -2.9816   20.8578  -17.7680 C   0  0  0  0  0  0  0  0  0  0  0  0
   -2.4088   22.0614  -18.1050 C   0  0  0  0  0  0  0  0  0  0  0  0
   -1.2015   22.0544  -18.7699 C   0  0  0  0  0  0  0  0  0  0  0  0
   -0.6814   23.2779  -19.0809 F   0  0  0  0  0  0  0  0  0  0  0  0
   -0.5404   20.8741  -19.1111 C   0  0  0  0  0  0  0  0  0  0  0  0
   -1.1080   19.6638  -18.7738 C   0  0  0  0  0  0  0  0  0  0  0  0
   -2.3074   17.2564  -18.1276 C   0  0  0  0  0  0  0  0  0  0  0  0
   -2.9171   18.4592  -17.7566 O   0  0  0  0  0  0  0  0  0  0  0  0
   -3.0061   23.2506  -17.7897 O   0  0  0  0  0  0  0  0  0  0  0  0
   -4.1145   23.3982  -16.9187 C   0  0  0  0  0  0  0  0  0  0  0  0
    1.9515   20.6459  -19.1827 C   0  0  0  0  0  0  0  0  0  0  0  0
    2.4539   21.8344  -18.4565 C   0  0  0  0  0  0  0  0  0  0  0  0
    2.2950   22.2239  -17.1444 C   0  0  0  0  0  0  0  0  0  0  0  0
    2.9529   23.4144  -16.9546 C   0  0  0  0  0  0  0  0  0  0  0  0
    3.5049   23.7413  -18.1486 N   0  0  0  0  0  0  0  0  0  0  0  0
    3.2050   22.8013  -19.0306 N   0  0  0  0  0  0  0  0  0  0  0  0
    4.0721   24.6051  -18.3117 H   0  0  0  0  0  0  0  0  0  0  0  0
 25 26  1  0  0  0
 26 18  1  0  0  0
 18 19  2  0  0  0
 19 20  1  0  0  0
 20 27  1  0  0  0
 27 28  1  0  0  0
 20 21  2  0  0  0
 21 22  1  0  0  0
 21 23  1  0  0  0
 23 24  2  0  0  0
 23  1  1  0  0  0
  1 29  1  0  0  0
 29 30  1  0  0  0
 30 31  1  0  0  0
 31 32  2  0  0  0
 32 33  1  0  0  0
 33 34  1  0  0  0
  1  2  1  0  0  0
  2  3  2  0  0  0
  3  4  1  0  0  0
  4  5  2  0  0  0
  5  6  1  0  0  0
  6  7  2  0  0  0
  7  8  1  0  0  0
  8  9  2  0  0  0
  9 10  1  0  0  0
 10 11  2  0  0  0
  8 12  1  0  0  0
 12 13  1  0  0  0
 13 14  2  0  0  0
 14 15  1  0  0  0
 15 16  1  0  0  0
 15 17  1  0  0  0
 24 18  1  0  0  0
 34 30  2  0  0  0
 11  2  1  0  0  0
 17 12  2  0  0  0
 10  5  1  0  0  0
 33 35  1  0  0  0
M  END
> <minimizedAffinity>
-7.20936

> <CNNscore>
0.1988985837

> <CNNaffinity>
6.7235960960

> <CNN_VS>
1.3373137712

> <CNNaffinity_variance>
0.0232722871

$$$$
[H]Oc1c(F)c([H])c([H])c([H])c1-c1nc([H])c(N([H])[C@]([H])(c2c([H])c([H])c([H])c([H])c2[H])C([H])([H])O[H])c([H])c1-c1c([H])c([H])c2c(c(C([H])([H])[H])nn2[H])c1[H]


 38 42  0  0  0  0  0  0  0  0999 V2000
   -4.8551   23.6192  -26.1057 C   0  0  0  0  0  0  0  0  0  0  0  0
   -5.0159   23.4653  -24.7133 C   0  0  0  0  0  0  0  0  0  0  0  0
   -6.2451   23.6965  -24.1465 C   0  0  0  0  0  0  0  0  0  0  0  0
   -7.2838   24.0750  -24.9784 C   0  0  0  0  0  0  0  0  0  0  0  0
   -7.1258   24.2204  -26.3039 N   0  0  0  0  0  0  0  0  0  0  0  0
   -5.9110   23.9973  -26.9038 C   0  0  0  0  0  0  0  0  0  0  0  0
    0.2406   21.8959  -24.7263 C   0  0  0  0  0  0  0  0  0  0  0  0
    0.0017   22.2553  -26.1507 C   0  0  0  0  0  0  0  0  0  0  0  0
    0.8327   22.2389  -27.2022 N   0  0  0  0  0  0  0  0  0  0  0  0
    0.2170   22.6392  -28.2966 N   0  0  0  0  0  0  0  0  0  0  0  0
   -1.0736   22.9334  -27.9613 C   0  0  0  0  0  0  0  0  0  0  0  0
   -2.1548   23.3868  -28.6752 C   0  0  0  0  0  0  0  0  0  0  0  0
   -3.3652   23.5971  -28.0421 C   0  0  0  0  0  0  0  0  0  0  0  0
   -3.5540   23.3719  -26.7048 C   0  0  0  0  0  0  0  0  0  0  0  0
   -2.4609   22.9172  -25.9991 C   0  0  0  0  0  0  0  0  0  0  0  0
   -1.2350   22.6992  -26.6131 C   0  0  0  0  0  0  0  0  0  0  0  0
    0.5687   22.7417  -29.2721 H   0  0  0  0  0  0  0  0  0  0  0  0
   -5.7618   24.1579  -28.3364 C   0  0  0  0  0  0  0  0  0  0  0  0
   -5.7919   23.1121  -29.2184 C   0  0  0  0  0  0  0  0  0  0  0  0
   -5.6487   23.3367  -30.5929 C   0  0  0  0  0  0  0  0  0  0  0  0
   -5.4750   24.6137  -31.0842 C   0  0  0  0  0  0  0  0  0  0  0  0
   -5.4455   25.6581  -30.1991 C   0  0  0  0  0  0  0  0  0  0  0  0
   -5.2736   26.9249  -30.6839 F   0  0  0  0  0  0  0  0  0  0  0  0
   -5.5869   25.4382  -28.8394 C   0  0  0  0  0  0  0  0  0  0  0  0
   -5.5500   26.5278  -27.9877 O   0  0  0  0  0  0  0  0  0  0  0  0
   -5.4235   27.4563  -28.3608 H   0  0  0  0  0  0  0  0  0  0  0  0
   -6.4403   23.5597  -22.7602 N   0  0  0  0  0  0  0  0  0  0  0  0
   -7.2196   22.9091  -22.4443 H   0  0  0  0  0  0  0  0  0  0  0  0
   -5.6825   24.2201  -21.7253 C   0  0  0  0  0  0  0  0  0  0  0  0
   -4.3331   23.5824  -21.6524 C   0  0  0  0  0  0  0  0  0  0  0  0
   -4.1058   22.3700  -21.0708 C   0  0  0  0  0  0  0  0  0  0  0  0
   -2.8221   21.8104  -21.0072 C   0  0  0  0  0  0  0  0  0  0  0  0
   -1.7426   22.4721  -21.5343 C   0  0  0  0  0  0  0  0  0  0  0  0
   -1.9776   23.6895  -22.1179 C   0  0  0  0  0  0  0  0  0  0  0  0
   -3.2290   24.2385  -22.1815 C   0  0  0  0  0  0  0  0  0  0  0  0
   -6.3056   24.2526  -20.3839 C   0  0  0  0  0  0  0  0  0  0  0  0
   -5.9855   25.4756  -19.7487 O   0  0  0  0  0  0  0  0  0  0  0  0
   -5.6487   26.1375  -20.3980 H   0  0  0  0  0  0  0  0  0  0  0  0
  7  8  1  0  0  0
  8  9  2  0  0  0
  9 10  1  0  0  0
 10 11  1  0  0  0
 11 12  2  0  0  0
 12 13  1  0  0  0
 13 14  2  0  0  0
 14 15  1  0  0  0
 15 16  2  0  0  0
 14  1  1  0  0  0
  1  2  2  0  0  0
  2  3  1  0  0  0
  3 27  1  0  0  0
 27 29  1  0  0  0
 29 36  1  0  0  0
 36 37  1  0  0  0
 29 30  1  0  0  0
 30 31  2  0  0  0
 31 32  1  0  0  0
 32 33  2  0  0  0
 33 34  1  0  0  0
 34 35  2  0  0  0
  3  4  2  0  0  0
  4  5  1  0  0  0
  5  6  2  0  0  0
  6 18  1  0  0  0
 18 19  2  0  0  0
 19 20  1  0  0  0
 20 21  2  0  0  0
 21 22  1  0  0  0
 22 23  1  0  0  0
 22 24  2  0  0  0
 24 25  1  0  0  0
 16  8  1  0  0  0
  6  1  1  0  0  0
 24 18  1  0  0  0
 16 11  1  0  0  0
 35 30  1  0  0  0
 10 17  1  0  0  0
 27 28  1  0  0  0
 37 38  1  0  0  0
 25 26  1  0  0  0
M  END
> <minimizedAffinity>
-10.89602

> <CNNscore>
0.9492828846

> <CNNaffinity>
8.1477060318

> <CNN_VS>
7.7344779968

> <CNNaffinity_variance>
0.0732417554

$$$$
[H]Oc1c(F)c([H])c([H])c([H])c1-c1nc([H])c(N([H])[C@]([H])(c2c([H])c([H])c([H])c([H])c2[H])C([H])([H])O[H])c([H])c1-c1c([H])c([H])c2c(c(C([H])([H])[H])nn2[H])c1[H]


 38 42  0  0  0  0  0  0  0  0999 V2000
   -4.9154   23.3814  -26.1431 C   0  0  0  0  0  0  0  0  0  0  0  0
   -5.1212   23.1067  -24.7754 C   0  0  0  0  0  0  0  0  0  0  0  0
   -6.3735   23.2684  -24.2357 C   0  0  0  0  0  0  0  0  0  0  0  0
   -7.3900   23.6992  -25.0695 C   0  0  0  0  0  0  0  0  0  0  0  0
   -7.1892   23.9598  -26.3714 N   0  0  0  0  0  0  0  0  0  0  0  0
   -5.9503   23.8086  -26.9439 C   0  0  0  0  0  0  0  0  0  0  0  0
    0.2313   21.9170  -24.6581 C   0  0  0  0  0  0  0  0  0  0  0  0
    0.0063   22.2747  -26.0853 C   0  0  0  0  0  0  0  0  0  0  0  0
    0.8606   22.3104  -27.1173 N   0  0  0  0  0  0  0  0  0  0  0  0
    0.2497   22.6867  -28.2229 N   0  0  0  0  0  0  0  0  0  0  0  0
   -1.0619   22.9100  -27.9155 C   0  0  0  0  0  0  0  0  0  0  0  0
   -2.1490   23.3117  -28.6511 C   0  0  0  0  0  0  0  0  0  0  0  0
   -3.3828   23.4530  -28.0447 C   0  0  0  0  0  0  0  0  0  0  0  0
   -3.5898   23.2076  -26.7136 C   0  0  0  0  0  0  0  0  0  0  0  0
   -2.4906   22.8052  -25.9860 C   0  0  0  0  0  0  0  0  0  0  0  0
   -1.2413   22.6568  -26.5730 C   0  0  0  0  0  0  0  0  0  0  0  0
    0.6176   22.8153  -29.1893 H   0  0  0  0  0  0  0  0  0  0  0  0
   -5.7549   24.0934  -28.3514 C   0  0  0  0  0  0  0  0  0  0  0  0
   -5.7610   23.1291  -29.3225 C   0  0  0  0  0  0  0  0  0  0  0  0
   -5.5732   23.4725  -30.6667 C   0  0  0  0  0  0  0  0  0  0  0  0
   -5.3788   24.7864  -31.0381 C   0  0  0  0  0  0  0  0  0  0  0  0
   -5.3734   25.7489  -30.0642 C   0  0  0  0  0  0  0  0  0  0  0  0
   -5.1811   27.0522  -30.4301 F   0  0  0  0  0  0  0  0  0  0  0  0
   -5.5590   25.4116  -28.7343 C   0  0  0  0  0  0  0  0  0  0  0  0
   -5.5449   26.4220  -27.7893 O   0  0  0  0  0  0  0  0  0  0  0  0
   -5.4029   27.3788  -28.0752 H   0  0  0  0  0  0  0  0  0  0  0  0
   -6.6137   23.0106  -22.8740 N   0  0  0  0  0  0  0  0  0  0  0  0
   -6.6720   21.9910  -22.5786 H   0  0  0  0  0  0  0  0  0  0  0  0
   -6.7896   24.0004  -21.8391 C   0  0  0  0  0  0  0  0  0  0  0  0
   -8.2510   24.1271  -21.5545 C   0  0  0  0  0  0  0  0  0  0  0  0
   -9.0429   25.0907  -22.1060 C   0  0  0  0  0  0  0  0  0  0  0  0
  -10.4079   25.1880  -21.8024 C   0  0  0  0  0  0  0  0  0  0  0  0
  -10.9964   24.3067  -20.9318 C   0  0  0  0  0  0  0  0  0  0  0  0
  -10.1956   23.3403  -20.3816 C   0  0  0  0  0  0  0  0  0  0  0  0
   -8.8632   23.2427  -20.6755 C   0  0  0  0  0  0  0  0  0  0  0  0
   -6.2038   25.3321  -22.1074 C   0  0  0  0  0  0  0  0  0  0  0  0
   -4.9008   25.3893  -21.5591 O   0  0  0  0  0  0  0  0  0  0  0  0
   -4.5618   24.4869  -21.3499 H   0  0  0  0  0  0  0  0  0  0  0  0
  7  8  1  0  0  0
  8  9  2  0  0  0
  9 10  1  0  0  0
 10 11  1  0  0  0
 11 12  2  0  0  0
 12 13  1  0  0  0
 13 14  2  0  0  0
 14 15  1  0  0  0
 15 16  2  0  0  0
 14  1  1  0  0  0
  1  2  2  0  0  0
  2  3  1  0  0  0
  3 27  1  0  0  0
 27 29  1  0  0  0
 29 36  1  0  0  0
 36 37  1  0  0  0
 29 30  1  0  0  0
 30 31  2  0  0  0
 31 32  1  0  0  0
 32 33  2  0  0  0
 33 34  1  0  0  0
 34 35  2  0  0  0
  3  4  2  0  0  0
  4  5  1  0  0  0
  5  6  2  0  0  0
  6 18  1  0  0  0
 18 19  2  0  0  0
 19 20  1  0  0  0
 20 21  2  0  0  0
 21 22  1  0  0  0
 22 23  1  0  0  0
 22 24  2  0  0  0
 24 25  1  0  0  0
 16  8  1  0  0  0
  6  1  1  0  0  0
 24 18  1  0  0  0
 16 11  1  0  0  0
 35 30  1  0  0  0
 10 17  1  0  0  0
 27 28  1  0  0  0
 37 38  1  0  0  0
 25 26  1  0  0  0
M  END
> <minimizedAffinity>
-11.12369

> <CNNscore>
0.8709622025

> <CNNaffinity>
7.8772459030

> <CNN_VS>
6.8607835770

> <CNNaffinity_variance>
0.0351789370

$$$$
[H]Oc1c(F)c([H])c([H])c([H])c1-c1nc([H])c(N([H])[C@]([H])(c2c([H])c([H])c([H])c([H])c2[H])C([H])([H])O[H])c([H])c1-c1c([H])c([H])c2c(c(C([H])([H])[H])nn2[H])c1[H]


 38 42  0  0  0  0  0  0  0  0999 V2000
   -3.1798   22.3411  -23.1393 C   0  0  0  0  0  0  0  0  0  0  0  0
   -4.4674   22.6989  -23.5893 C   0  0  0  0  0  0  0  0  0  0  0  0
   -5.5234   22.6605  -22.7124 C   0  0  0  0  0  0  0  0  0  0  0  0
   -5.2727   22.2672  -21.4098 C   0  0  0  0  0  0  0  0  0  0  0  0
   -4.0448   21.9272  -20.9859 N   0  0  0  0  0  0  0  0  0  0  0  0
   -2.9665   21.9545  -21.8356 C   0  0  0  0  0  0  0  0  0  0  0  0
   -2.1324   22.9523  -28.5586 C   0  0  0  0  0  0  0  0  0  0  0  0
   -0.9666   22.7596  -27.6535 C   0  0  0  0  0  0  0  0  0  0  0  0
    0.3445   22.7023  -27.9255 N   0  0  0  0  0  0  0  0  0  0  0  0
    1.0468   22.5145  -26.8261 N   0  0  0  0  0  0  0  0  0  0  0  0
    0.1698   22.4443  -25.7818 C   0  0  0  0  0  0  0  0  0  0  0  0
    0.3239   22.2624  -24.4300 C   0  0  0  0  0  0  0  0  0  0  0  0
   -0.7832   22.2353  -23.6032 C   0  0  0  0  0  0  0  0  0  0  0  0
   -2.0624   22.3846  -24.0680 C   0  0  0  0  0  0  0  0  0  0  0  0
   -2.2038   22.5661  -25.4270 C   0  0  0  0  0  0  0  0  0  0  0  0
   -1.1068   22.5963  -26.2773 C   0  0  0  0  0  0  0  0  0  0  0  0
    2.0757   22.4255  -26.6871 H   0  0  0  0  0  0  0  0  0  0  0  0
   -1.6489   21.5856  -21.3579 C   0  0  0  0  0  0  0  0  0  0  0  0
   -1.0484   20.3916  -21.6521 C   0  0  0  0  0  0  0  0  0  0  0  0
    0.2310   20.0998  -21.1642 C   0  0  0  0  0  0  0  0  0  0  0  0
    0.9101   21.0078  -20.3791 C   0  0  0  0  0  0  0  0  0  0  0  0
    0.3067   22.2017  -20.0865 C   0  0  0  0  0  0  0  0  0  0  0  0
    0.9782   23.1035  -19.3085 F   0  0  0  0  0  0  0  0  0  0  0  0
   -0.9585   22.4924  -20.5680 C   0  0  0  0  0  0  0  0  0  0  0  0
   -1.5235   23.7128  -20.2435 O   0  0  0  0  0  0  0  0  0  0  0  0
   -1.0149   24.3680  -19.6694 H   0  0  0  0  0  0  0  0  0  0  0  0
   -6.8226   23.0037  -23.1281 N   0  0  0  0  0  0  0  0  0  0  0  0
   -7.5795   22.2676  -23.0039 H   0  0  0  0  0  0  0  0  0  0  0  0
   -7.2253   24.2616  -23.7087 C   0  0  0  0  0  0  0  0  0  0  0  0
   -6.5126   24.4265  -25.0116 C   0  0  0  0  0  0  0  0  0  0  0  0
   -6.7252   23.6211  -26.0913 C   0  0  0  0  0  0  0  0  0  0  0  0
   -6.0252   23.7967  -27.2930 C   0  0  0  0  0  0  0  0  0  0  0  0
   -5.0942   24.7957  -27.4219 C   0  0  0  0  0  0  0  0  0  0  0  0
   -4.8857   25.6020  -26.3337 C   0  0  0  0  0  0  0  0  0  0  0  0
   -5.5670   25.4333  -25.1595 C   0  0  0  0  0  0  0  0  0  0  0  0
   -7.0291   25.4598  -22.8634 C   0  0  0  0  0  0  0  0  0  0  0  0
   -8.1281   26.3351  -23.0301 O   0  0  0  0  0  0  0  0  0  0  0  0
   -8.8909   25.8738  -23.4522 H   0  0  0  0  0  0  0  0  0  0  0  0
  7  8  1  0  0  0
  8  9  2  0  0  0
  9 10  1  0  0  0
 10 11  1  0  0  0
 11 12  2  0  0  0
 12 13  1  0  0  0
 13 14  2  0  0  0
 14 15  1  0  0  0
 15 16  2  0  0  0
 14  1  1  0  0  0
  1  2  2  0  0  0
  2  3  1  0  0  0
  3 27  1  0  0  0
 27 29  1  0  0  0
 29 36  1  0  0  0
 36 37  1  0  0  0
 29 30  1  0  0  0
 30 31  2  0  0  0
 31 32  1  0  0  0
 32 33  2  0  0  0
 33 34  1  0  0  0
 34 35  2  0  0  0
  3  4  2  0  0  0
  4  5  1  0  0  0
  5  6  2  0  0  0
  6 18  1  0  0  0
 18 19  2  0  0  0
 19 20  1  0  0  0
 20 21  2  0  0  0
 21 22  1  0  0  0
 22 23  1  0  0  0
 22 24  2  0  0  0
 24 25  1  0  0  0
 16  8  1  0  0  0
  6  1  1  0  0  0
 24 18  1  0  0  0
 16 11  1  0  0  0
 35 30  1  0  0  0
 10 17  1  0  0  0
 27 28  1  0  0  0
 37 38  1  0  0  0
 25 26  1  0  0  0
M  END
> <minimizedAffinity>
-9.58059

> <CNNscore>
0.8408094645

> <CNNaffinity>
7.5105199814

> <CNN_VS>
6.3149161339

> <CNNaffinity_variance>
0.0477587841

$$$$
[H]Oc1c(F)c([H])c([H])c([H])c1-c1nc([H])c(N([H])[C@]([H])(c2c([H])c([H])c([H])c([H])c2[H])C([H])([H])O[H])c([H])c1-c1c([H])c([H])c2c(c(C([H])([H])[H])nn2[H])c1[H]


 38 42  0  0  0  0  0  0  0  0999 V2000
   -3.4780   22.5369  -23.1640 C   0  0  0  0  0  0  0  0  0  0  0  0
   -3.4388   21.6960  -22.0327 C   0  0  0  0  0  0  0  0  0  0  0  0
   -4.5113   21.6677  -21.1757 C   0  0  0  0  0  0  0  0  0  0  0  0
   -5.5961   22.4762  -21.4648 C   0  0  0  0  0  0  0  0  0  0  0  0
   -5.6289   23.2755  -22.5433 N   0  0  0  0  0  0  0  0  0  0  0  0
   -4.5744   23.3285  -23.4212 C   0  0  0  0  0  0  0  0  0  0  0  0
   -2.3353   22.8700  -28.5882 C   0  0  0  0  0  0  0  0  0  0  0  0
   -1.1835   22.7688  -27.6510 C   0  0  0  0  0  0  0  0  0  0  0  0
    0.1342   22.7398  -27.8936 N   0  0  0  0  0  0  0  0  0  0  0  0
    0.8186   22.6392  -26.7717 N   0  0  0  0  0  0  0  0  0  0  0  0
   -0.0778   22.5998  -25.7423 C   0  0  0  0  0  0  0  0  0  0  0  0
    0.0532   22.5013  -24.3795 C   0  0  0  0  0  0  0  0  0  0  0  0
   -1.0699   22.4848  -23.5742 C   0  0  0  0  0  0  0  0  0  0  0  0
   -2.3431   22.5642  -24.0718 C   0  0  0  0  0  0  0  0  0  0  0  0
   -2.4612   22.6624  -25.4415 C   0  0  0  0  0  0  0  0  0  0  0  0
   -1.3478   22.6803  -26.2706 C   0  0  0  0  0  0  0  0  0  0  0  0
    1.8466   22.5928  -26.6078 H   0  0  0  0  0  0  0  0  0  0  0  0
   -4.6302   24.1965  -24.5805 C   0  0  0  0  0  0  0  0  0  0  0  0
   -5.0438   23.7772  -25.8157 C   0  0  0  0  0  0  0  0  0  0  0  0
   -5.0812   24.6696  -26.8939 C   0  0  0  0  0  0  0  0  0  0  0  0
   -4.7029   25.9860  -26.7328 C   0  0  0  0  0  0  0  0  0  0  0  0
   -4.2897   26.4026  -25.4956 C   0  0  0  0  0  0  0  0  0  0  0  0
   -3.9143   27.7073  -25.3336 F   0  0  0  0  0  0  0  0  0  0  0  0
   -4.2519   25.5218  -24.4280 C   0  0  0  0  0  0  0  0  0  0  0  0
   -3.8267   25.9932  -23.1987 O   0  0  0  0  0  0  0  0  0  0  0  0
   -3.5541   26.9587  -23.0950 H   0  0  0  0  0  0  0  0  0  0  0  0
   -4.5039   20.8464  -20.0337 N   0  0  0  0  0  0  0  0  0  0  0  0
   -5.2338   20.0748  -19.9893 H   0  0  0  0  0  0  0  0  0  0  0  0
   -3.5986   20.9529  -18.9153 C   0  0  0  0  0  0  0  0  0  0  0  0
   -3.7791   19.7486  -18.0494 C   0  0  0  0  0  0  0  0  0  0  0  0
   -4.7331   18.7997  -18.2718 C   0  0  0  0  0  0  0  0  0  0  0  0
   -4.8827   17.6907  -17.4276 C   0  0  0  0  0  0  0  0  0  0  0  0
   -4.0647   17.5232  -16.3395 C   0  0  0  0  0  0  0  0  0  0  0  0
   -3.1078   18.4797  -16.1218 C   0  0  0  0  0  0  0  0  0  0  0  0
   -2.9592   19.5632  -16.9436 C   0  0  0  0  0  0  0  0  0  0  0  0
   -3.7088   22.1860  -18.1053 C   0  0  0  0  0  0  0  0  0  0  0  0
   -2.6552   23.0661  -18.4472 O   0  0  0  0  0  0  0  0  0  0  0  0
   -2.2350   22.8052  -19.3006 H   0  0  0  0  0  0  0  0  0  0  0  0
  7  8  1  0  0  0
  8  9  2  0  0  0
  9 10  1  0  0  0
 10 11  1  0  0  0
 11 12  2  0  0  0
 12 13  1  0  0  0
 13 14  2  0  0  0
 14 15  1  0  0  0
 15 16  2  0  0  0
 14  1  1  0  0  0
  1  2  2  0  0  0
  2  3  1  0  0  0
  3 27  1  0  0  0
 27 29  1  0  0  0
 29 36  1  0  0  0
 36 37  1  0  0  0
 29 30  1  0  0  0
 30 31  2  0  0  0
 31 32  1  0  0  0
 32 33  2  0  0  0
 33 34  1  0  0  0
 34 35  2  0  0  0
  3  4  2  0  0  0
  4  5  1  0  0  0
  5  6  2  0  0  0
  6 18  1  0  0  0
 18 19  2  0  0  0
 19 20  1  0  0  0
 20 21  2  0  0  0
 21 22  1  0  0  0
 22 23  1  0  0  0
 22 24  2  0  0  0
 24 25  1  0  0  0
 16  8  1  0  0  0
  6  1  1  0  0  0
 24 18  1  0  0  0
 16 11  1  0  0  0
 35 30  1  0  0  0
 10 17  1  0  0  0
 27 28  1  0  0  0
 37 38  1  0  0  0
 25 26  1  0  0  0
M  END
> <minimizedAffinity>
-8.83184

> <CNNscore>
0.7702396512

> <CNNaffinity>
7.2819876671

> <CNN_VS>
5.6088757515

> <CNNaffinity_variance>
0.0552644245

$$$$
[H]Oc1c(F)c([H])c([H])c([H])c1-c1nc([H])c(N([H])[C@]([H])(c2c([H])c([H])c([H])c([H])c2[H])C([H])([H])O[H])c([H])c1-c1c([H])c([H])c2c(c(C([H])([H])[H])nn2[H])c1[H]


 38 42  0  0  0  0  0  0  0  0999 V2000
   -4.1444   22.6356  -23.3672 C   0  0  0  0  0  0  0  0  0  0  0  0
   -4.0481   21.6741  -22.3403 C   0  0  0  0  0  0  0  0  0  0  0  0
   -4.8967   21.7498  -21.2633 C   0  0  0  0  0  0  0  0  0  0  0  0
   -5.8199   22.7799  -21.2343 C   0  0  0  0  0  0  0  0  0  0  0  0
   -5.9078   23.6934  -22.2146 N   0  0  0  0  0  0  0  0  0  0  0  0
   -5.0755   23.6476  -23.3058 C   0  0  0  0  0  0  0  0  0  0  0  0
    1.2578   22.1092  -24.5410 C   0  0  0  0  0  0  0  0  0  0  0  0
    0.3148   22.2108  -25.6881 C   0  0  0  0  0  0  0  0  0  0  0  0
    0.5475   22.2001  -27.0079 N   0  0  0  0  0  0  0  0  0  0  0  0
   -0.5763   22.3182  -27.6863 N   0  0  0  0  0  0  0  0  0  0  0  0
   -1.5968   22.4109  -26.7836 C   0  0  0  0  0  0  0  0  0  0  0  0
   -2.9570   22.5478  -26.9070 C   0  0  0  0  0  0  0  0  0  0  0  0
   -3.7523   22.6163  -25.7788 C   0  0  0  0  0  0  0  0  0  0  0  0
   -3.2471   22.5529  -24.5078 C   0  0  0  0  0  0  0  0  0  0  0  0
   -1.8801   22.4158  -24.3973 C   0  0  0  0  0  0  0  0  0  0  0  0
   -1.0609   22.3453  -25.5160 C   0  0  0  0  0  0  0  0  0  0  0  0
   -0.7471   22.3444  -28.7140 H   0  0  0  0  0  0  0  0  0  0  0  0
   -5.1878   24.6421  -24.3540 C   0  0  0  0  0  0  0  0  0  0  0  0
   -6.0223   24.5103  -25.4305 C   0  0  0  0  0  0  0  0  0  0  0  0
   -6.0887   25.5127  -26.4057 C   0  0  0  0  0  0  0  0  0  0  0  0
   -5.3161   26.6503  -26.3010 C   0  0  0  0  0  0  0  0  0  0  0  0
   -4.4822   26.7793  -25.2226 C   0  0  0  0  0  0  0  0  0  0  0  0
   -3.7154   27.9064  -25.1166 F   0  0  0  0  0  0  0  0  0  0  0  0
   -4.4149   25.7893  -24.2571 C   0  0  0  0  0  0  0  0  0  0  0  0
   -3.5562   25.9685  -23.1872 O   0  0  0  0  0  0  0  0  0  0  0  0
   -2.9978   26.8060  -23.1227 H   0  0  0  0  0  0  0  0  0  0  0  0
   -4.8243   20.8123  -20.2173 N   0  0  0  0  0  0  0  0  0  0  0  0
   -5.0216   19.7972  -20.4642 H   0  0  0  0  0  0  0  0  0  0  0  0
   -4.5080   21.0984  -18.8390 C   0  0  0  0  0  0  0  0  0  0  0  0
   -3.0450   21.3870  -18.7436 C   0  0  0  0  0  0  0  0  0  0  0  0
   -2.5322   22.6477  -18.6560 C   0  0  0  0  0  0  0  0  0  0  0  0
   -1.1517   22.8801  -18.5843 C   0  0  0  0  0  0  0  0  0  0  0  0
   -0.2636   21.8351  -18.5997 C   0  0  0  0  0  0  0  0  0  0  0  0
   -0.7851   20.5708  -18.6872 C   0  0  0  0  0  0  0  0  0  0  0  0
   -2.1316   20.3405  -18.7575 C   0  0  0  0  0  0  0  0  0  0  0  0
   -4.8894   20.0609  -17.8558 C   0  0  0  0  0  0  0  0  0  0  0  0
   -6.1625   20.3686  -17.3209 O   0  0  0  0  0  0  0  0  0  0  0  0
   -6.6312   21.0356  -17.8763 H   0  0  0  0  0  0  0  0  0  0  0  0
  7  8  1  0  0  0
  8  9  2  0  0  0
  9 10  1  0  0  0
 10 11  1  0  0  0
 11 12  2  0  0  0
 12 13  1  0  0  0
 13 14  2  0  0  0
 14 15  1  0  0  0
 15 16  2  0  0  0
 14  1  1  0  0  0
  1  2  2  0  0  0
  2  3  1  0  0  0
  3 27  1  0  0  0
 27 29  1  0  0  0
 29 36  1  0  0  0
 36 37  1  0  0  0
 29 30  1  0  0  0
 30 31  2  0  0  0
 31 32  1  0  0  0
 32 33  2  0  0  0
 33 34  1  0  0  0
 34 35  2  0  0  0
  3  4  2  0  0  0
  4  5  1  0  0  0
  5  6  2  0  0  0
  6 18  1  0  0  0
 18 19  2  0  0  0
 19 20  1  0  0  0
 20 21  2  0  0  0
 21 22  1  0  0  0
 22 23  1  0  0  0
 22 24  2  0  0  0
 24 25  1  0  0  0
 16  8  1  0  0  0
  6  1  1  0  0  0
 24 18  1  0  0  0
 16 11  1  0  0  0
 35 30  1  0  0  0
 10 17  1  0  0  0
 27 28  1  0  0  0
 37 38  1  0  0  0
 25 26  1  0  0  0
M  END
> <minimizedAffinity>
-8.53639

> <CNNscore>
0.4828507602

> <CNNaffinity>
7.0827698708

> <CNN_VS>
3.4199209213

> <CNNaffinity_variance>
0.1068637520

$$$$
[H]Oc1c(F)c([H])c([H])c([H])c1-c1nc([H])c(N([H])[C@]([H])(c2c([H])c([H])c([H])c([H])c2[H])C([H])([H])O[H])c([H])c1-c1c([H])c([H])c2c(c(C([H])([H])[H])nn2[H])c1[H]


 38 42  0  0  0  0  0  0  0  0999 V2000
   -4.5680   22.7618  -23.3092 C   0  0  0  0  0  0  0  0  0  0  0  0
   -4.7117   21.7554  -22.3320 C   0  0  0  0  0  0  0  0  0  0  0  0
   -5.6472   21.9085  -21.3385 C   0  0  0  0  0  0  0  0  0  0  0  0
   -6.4164   23.0585  -21.3413 C   0  0  0  0  0  0  0  0  0  0  0  0
   -6.2758   24.0142  -22.2740 N   0  0  0  0  0  0  0  0  0  0  0  0
   -5.3508   23.8937  -23.2816 C   0  0  0  0  0  0  0  0  0  0  0  0
    0.8902   21.9885  -23.9788 C   0  0  0  0  0  0  0  0  0  0  0  0
    0.0552   22.0751  -25.2079 C   0  0  0  0  0  0  0  0  0  0  0  0
    0.4011   21.9993  -26.5005 N   0  0  0  0  0  0  0  0  0  0  0  0
   -0.6538   22.1291  -27.2798 N   0  0  0  0  0  0  0  0  0  0  0  0
   -1.7443   22.2977  -26.4753 C   0  0  0  0  0  0  0  0  0  0  0  0
   -3.0820   22.4788  -26.7239 C   0  0  0  0  0  0  0  0  0  0  0  0
   -3.9690   22.6247  -25.6741 C   0  0  0  0  0  0  0  0  0  0  0  0
   -3.5791   22.5975  -24.3618 C   0  0  0  0  0  0  0  0  0  0  0  0
   -2.2334   22.4154  -24.1255 C   0  0  0  0  0  0  0  0  0  0  0  0
   -1.3237   22.2671  -25.1636 C   0  0  0  0  0  0  0  0  0  0  0  0
   -0.7335   22.1175  -28.3188 H   0  0  0  0  0  0  0  0  0  0  0  0
   -5.2161   24.9359  -24.2798 C   0  0  0  0  0  0  0  0  0  0  0  0
   -4.2647   25.9177  -24.2194 C   0  0  0  0  0  0  0  0  0  0  0  0
   -4.1838   26.8920  -25.2215 C   0  0  0  0  0  0  0  0  0  0  0  0
   -5.0592   26.8817  -26.2871 C   0  0  0  0  0  0  0  0  0  0  0  0
   -6.0100   25.8979  -26.3448 C   0  0  0  0  0  0  0  0  0  0  0  0
   -6.8789   25.8856  -27.4004 F   0  0  0  0  0  0  0  0  0  0  0  0
   -6.0918   24.9334  -25.3549 C   0  0  0  0  0  0  0  0  0  0  0  0
   -7.0705   23.9612  -25.4603 O   0  0  0  0  0  0  0  0  0  0  0  0
   -7.7034   23.9650  -26.2458 H   0  0  0  0  0  0  0  0  0  0  0  0
   -5.8131   20.9285  -20.3432 N   0  0  0  0  0  0  0  0  0  0  0  0
   -5.4533   19.9523  -20.5621 H   0  0  0  0  0  0  0  0  0  0  0  0
   -6.4269   21.1229  -19.0520 C   0  0  0  0  0  0  0  0  0  0  0  0
   -5.5343   20.5249  -18.0135 C   0  0  0  0  0  0  0  0  0  0  0  0
   -5.7608   20.6371  -16.6734 C   0  0  0  0  0  0  0  0  0  0  0  0
   -4.8915   20.0757  -15.7279 C   0  0  0  0  0  0  0  0  0  0  0  0
   -3.7736   19.3878  -16.1255 C   0  0  0  0  0  0  0  0  0  0  0  0
   -3.5519   19.2779  -17.4734 C   0  0  0  0  0  0  0  0  0  0  0  0
   -4.3981   19.8247  -18.3987 C   0  0  0  0  0  0  0  0  0  0  0  0
   -7.8042   20.6040  -18.9025 C   0  0  0  0  0  0  0  0  0  0  0  0
   -7.8152   19.2178  -19.1852 O   0  0  0  0  0  0  0  0  0  0  0  0
   -6.9030   18.8428  -19.1681 H   0  0  0  0  0  0  0  0  0  0  0  0
  7  8  1  0  0  0
  8  9  2  0  0  0
  9 10  1  0  0  0
 10 11  1  0  0  0
 11 12  2  0  0  0
 12 13  1  0  0  0
 13 14  2  0  0  0
 14 15  1  0  0  0
 15 16  2  0  0  0
 14  1  1  0  0  0
  1  2  2  0  0  0
  2  3  1  0  0  0
  3 27  1  0  0  0
 27 29  1  0  0  0
 29 36  1  0  0  0
 36 37  1  0  0  0
 29 30  1  0  0  0
 30 31  2  0  0  0
 31 32  1  0  0  0
 32 33  2  0  0  0
 33 34  1  0  0  0
 34 35  2  0  0  0
  3  4  2  0  0  0
  4  5  1  0  0  0
  5  6  2  0  0  0
  6 18  1  0  0  0
 18 19  2  0  0  0
 19 20  1  0  0  0
 20 21  2  0  0  0
 21 22  1  0  0  0
 22 23  1  0  0  0
 22 24  2  0  0  0
 24 25  1  0  0  0
 16  8  1  0  0  0
  6  1  1  0  0  0
 24 18  1  0  0  0
 16 11  1  0  0  0
 35 30  1  0  0  0
 10 17  1  0  0  0
 27 28  1  0  0  0
 37 38  1  0  0  0
 25 26  1  0  0  0
M  END
> <minimizedAffinity>
-8.09465

> <CNNscore>
0.3898139596

> <CNNaffinity>
6.8004417419

> <CNN_VS>
2.6509070396

> <CNNaffinity_variance>
0.1747219414

$$$$
[H]Oc1c(F)c([H])c([H])c([H])c1-c1nc([H])c(N([H])[C@]([H])(c2c([H])c([H])c([H])c([H])c2[H])C([H])([H])O[H])c([H])c1-c1c([H])c([H])c2c(c(C([H])([H])[H])nn2[H])c1[H]


 38 42  0  0  0  0  0  0  0  0999 V2000
   -3.6788   22.7682  -23.1819 C   0  0  0  0  0  0  0  0  0  0  0  0
   -3.5013   21.7451  -22.2278 C   0  0  0  0  0  0  0  0  0  0  0  0
   -4.2836   21.7319  -21.0994 C   0  0  0  0  0  0  0  0  0  0  0  0
   -5.2229   22.7363  -20.9477 C   0  0  0  0  0  0  0  0  0  0  0  0
   -5.3882   23.7086  -21.8589 N   0  0  0  0  0  0  0  0  0  0  0  0
   -4.6236   23.7523  -22.9986 C   0  0  0  0  0  0  0  0  0  0  0  0
   -4.1258   23.2150  -28.6991 C   0  0  0  0  0  0  0  0  0  0  0  0
   -2.7592   23.0444  -28.1346 C   0  0  0  0  0  0  0  0  0  0  0  0
   -1.5689   22.9738  -28.7464 N   0  0  0  0  0  0  0  0  0  0  0  0
   -0.5967   22.8157  -27.8707 N   0  0  0  0  0  0  0  0  0  0  0  0
   -1.1612   22.7798  -26.6278 C   0  0  0  0  0  0  0  0  0  0  0  0
   -0.6494   22.6373  -25.3621 C   0  0  0  0  0  0  0  0  0  0  0  0
   -1.4940   22.6391  -24.2683 C   0  0  0  0  0  0  0  0  0  0  0  0
   -2.8517   22.7797  -24.3771 C   0  0  0  0  0  0  0  0  0  0  0  0
   -3.3531   22.9217  -25.6531 C   0  0  0  0  0  0  0  0  0  0  0  0
   -2.5245   22.9223  -26.7670 C   0  0  0  0  0  0  0  0  0  0  0  0
    0.4322   22.7267  -28.0102 H   0  0  0  0  0  0  0  0  0  0  0  0
   -4.8190   24.8092  -23.9708 C   0  0  0  0  0  0  0  0  0  0  0  0
   -4.0103   25.9096  -24.0594 C   0  0  0  0  0  0  0  0  0  0  0  0
   -4.2499   26.8921  -25.0275 C   0  0  0  0  0  0  0  0  0  0  0  0
   -5.3034   26.7708  -25.9093 C   0  0  0  0  0  0  0  0  0  0  0  0
   -6.1107   25.6685  -25.8183 C   0  0  0  0  0  0  0  0  0  0  0  0
   -7.1556   25.5461  -26.6916 F   0  0  0  0  0  0  0  0  0  0  0  0
   -5.8756   24.6957  -24.8616 C   0  0  0  0  0  0  0  0  0  0  0  0
   -6.7208   23.6015  -24.8119 O   0  0  0  0  0  0  0  0  0  0  0  0
   -7.4867   23.5250  -25.4638 H   0  0  0  0  0  0  0  0  0  0  0  0
   -4.1293   20.7310  -20.1232 N   0  0  0  0  0  0  0  0  0  0  0  0
   -4.4538   19.7518  -20.3803 H   0  0  0  0  0  0  0  0  0  0  0  0
   -3.5722   20.9080  -18.8041 C   0  0  0  0  0  0  0  0  0  0  0  0
   -2.1856   21.4458  -18.9488 C   0  0  0  0  0  0  0  0  0  0  0  0
   -1.8392   22.7257  -18.6298 C   0  0  0  0  0  0  0  0  0  0  0  0
   -0.5303   23.1994  -18.7944 C   0  0  0  0  0  0  0  0  0  0  0  0
    0.4542   22.3810  -19.2865 C   0  0  0  0  0  0  0  0  0  0  0  0
    0.1000   21.0960  -19.6044 C   0  0  0  0  0  0  0  0  0  0  0  0
   -1.1764   20.6306  -19.4453 C   0  0  0  0  0  0  0  0  0  0  0  0
   -3.5682   19.7112  -17.9345 C   0  0  0  0  0  0  0  0  0  0  0  0
   -4.0424   18.5982  -18.6679 O   0  0  0  0  0  0  0  0  0  0  0  0
   -4.0310   18.7787  -19.6376 H   0  0  0  0  0  0  0  0  0  0  0  0
  7  8  1  0  0  0
  8  9  2  0  0  0
  9 10  1  0  0  0
 10 11  1  0  0  0
 11 12  2  0  0  0
 12 13  1  0  0  0
 13 14  2  0  0  0
 14 15  1  0  0  0
 15 16  2  0  0  0
 14  1  1  0  0  0
  1  2  2  0  0  0
  2  3  1  0  0  0
  3 27  1  0  0  0
 27 29  1  0  0  0
 29 36  1  0  0  0
 36 37  1  0  0  0
 29 30  1  0  0  0
 30 31  2  0  0  0
 31 32  1  0  0  0
 32 33  2  0  0  0
 33 34  1  0  0  0
 34 35  2  0  0  0
  3  4  2  0  0  0
  4  5  1  0  0  0
  5  6  2  0  0  0
  6 18  1  0  0  0
 18 19  2  0  0  0
 19 20  1  0  0  0
 20 21  2  0  0  0
 21 22  1  0  0  0
 22 23  1  0  0  0
 22 24  2  0  0  0
 24 25  1  0  0  0
 16  8  1  0  0  0
  6  1  1  0  0  0
 24 18  1  0  0  0
 16 11  1  0  0  0
 35 30  1  0  0  0
 10 17  1  0  0  0
 27 28  1  0  0  0
 37 38  1  0  0  0
 25 26  1  0  0  0
M  END
> <minimizedAffinity>
-8.87322

> <CNNscore>
0.3501586914

> <CNNaffinity>
6.9949684143

> <CNN_VS>
2.4493489265

> <CNNaffinity_variance>
0.2851669192

$$$$
[H]Oc1c(F)c([H])c([H])c([H])c1-c1nc([H])c(N([H])[C@]([H])(c2c([H])c([H])c([H])c([H])c2[H])C([H])([H])O[H])c([H])c1-c1c([H])c([H])c2c(c(C([H])([H])[H])nn2[H])c1[H]


 38 42  0  0  0  0  0  0  0  0999 V2000
   -4.4226   22.7410  -23.4720 C   0  0  0  0  0  0  0  0  0  0  0  0
   -4.4370   21.8172  -22.4067 C   0  0  0  0  0  0  0  0  0  0  0  0
   -5.3582   21.9638  -21.3990 C   0  0  0  0  0  0  0  0  0  0  0  0
   -6.2421   23.0254  -21.4756 C   0  0  0  0  0  0  0  0  0  0  0  0
   -6.2244   23.9028  -22.4920 N   0  0  0  0  0  0  0  0  0  0  0  0
   -5.3173   23.7861  -23.5162 C   0  0  0  0  0  0  0  0  0  0  0  0
    1.0302   22.0055  -24.2235 C   0  0  0  0  0  0  0  0  0  0  0  0
    0.1763   22.0860  -25.4399 C   0  0  0  0  0  0  0  0  0  0  0  0
    0.5032   22.0123  -26.7376 N   0  0  0  0  0  0  0  0  0  0  0  0
   -0.5643   22.1346  -27.5009 N   0  0  0  0  0  0  0  0  0  0  0  0
   -1.6436   22.2958  -26.6801 C   0  0  0  0  0  0  0  0  0  0  0  0
   -2.9862   22.4675  -26.9085 C   0  0  0  0  0  0  0  0  0  0  0  0
   -3.8582   22.6075  -25.8455 C   0  0  0  0  0  0  0  0  0  0  0  0
   -3.4485   22.5833  -24.5393 C   0  0  0  0  0  0  0  0  0  0  0  0
   -2.0982   22.4106  -24.3232 C   0  0  0  0  0  0  0  0  0  0  0  0
   -1.2031   22.2684  -25.3749 C   0  0  0  0  0  0  0  0  0  0  0  0
   -0.6594   22.1221  -28.5385 H   0  0  0  0  0  0  0  0  0  0  0  0
   -5.3159   24.7426  -24.6050 C   0  0  0  0  0  0  0  0  0  0  0  0
   -6.0537   24.5847  -25.7467 C   0  0  0  0  0  0  0  0  0  0  0  0
   -6.0131   25.5510  -26.7590 C   0  0  0  0  0  0  0  0  0  0  0  0
   -5.2304   26.6788  -26.6259 C   0  0  0  0  0  0  0  0  0  0  0  0
   -4.4934   26.8340  -25.4823 C   0  0  0  0  0  0  0  0  0  0  0  0
   -3.7170   27.9514  -25.3482 F   0  0  0  0  0  0  0  0  0  0  0  0
   -4.5322   25.8796  -24.4800 C   0  0  0  0  0  0  0  0  0  0  0  0
   -3.7688   26.0843  -23.3444 O   0  0  0  0  0  0  0  0  0  0  0  0
   -3.2019   26.9143  -23.2599 H   0  0  0  0  0  0  0  0  0  0  0  0
   -5.3971   21.0655  -20.3174 N   0  0  0  0  0  0  0  0  0  0  0  0
   -4.7074   20.2567  -20.3365 H   0  0  0  0  0  0  0  0  0  0  0  0
   -6.2861   21.1376  -19.1833 C   0  0  0  0  0  0  0  0  0  0  0  0
   -5.7055   22.0932  -18.1921 C   0  0  0  0  0  0  0  0  0  0  0  0
   -4.4390   21.9854  -17.6977 C   0  0  0  0  0  0  0  0  0  0  0  0
   -3.9341   22.8926  -16.7560 C   0  0  0  0  0  0  0  0  0  0  0  0
   -4.7066   23.9290  -16.2975 C   0  0  0  0  0  0  0  0  0  0  0  0
   -5.9779   24.0323  -16.7986 C   0  0  0  0  0  0  0  0  0  0  0  0
   -6.4738   23.1486  -17.7175 C   0  0  0  0  0  0  0  0  0  0  0  0
   -6.6068   19.8516  -18.5262 C   0  0  0  0  0  0  0  0  0  0  0  0
   -7.9133   19.9145  -17.9870 O   0  0  0  0  0  0  0  0  0  0  0  0
   -8.4204   20.6701  -18.3676 H   0  0  0  0  0  0  0  0  0  0  0  0
  7  8  1  0  0  0
  8  9  2  0  0  0
  9 10  1  0  0  0
 10 11  1  0  0  0
 11 12  2  0  0  0
 12 13  1  0  0  0
 13 14  2  0  0  0
 14 15  1  0  0  0
 15 16  2  0  0  0
 14  1  1  0  0  0
  1  2  2  0  0  0
  2  3  1  0  0  0
  3 27  1  0  0  0
 27 29  1  0  0  0
 29 36  1  0  0  0
 36 37  1  0  0  0
 29 30  1  0  0  0
 30 31  2  0  0  0
 31 32  1  0  0  0
 32 33  2  0  0  0
 33 34  1  0  0  0
 34 35  2  0  0  0
  3  4  2  0  0  0
  4  5  1  0  0  0
  5  6  2  0  0  0
  6 18  1  0  0  0
 18 19  2  0  0  0
 19 20  1  0  0  0
 20 21  2  0  0  0
 21 22  1  0  0  0
 22 23  1  0  0  0
 22 24  2  0  0  0
 24 25  1  0  0  0
 16  8  1  0  0  0
  6  1  1  0  0  0
 24 18  1  0  0  0
 16 11  1  0  0  0
 35 30  1  0  0  0
 10 17  1  0  0  0
 27 28  1  0  0  0
 37 38  1  0  0  0
 25 26  1  0  0  0
M  END
> <minimizedAffinity>
-8.61895

> <CNNscore>
0.3319129348

> <CNNaffinity>
6.7419495583

> <CNN_VS>
2.2377402782

> <CNNaffinity_variance>
0.1159831062

$$$$
[H]Oc1c(F)c([H])c([H])c([H])c1-c1nc([H])c(N([H])[C@]([H])(c2c([H])c([H])c([H])c([H])c2[H])C([H])([H])O[H])c([H])c1-c1c([H])c([H])c2c(c(C([H])([H])[H])nn2[H])c1[H]


 38 42  0  0  0  0  0  0  0  0999 V2000
   -5.7008   22.8758  -23.3483 C   0  0  0  0  0  0  0  0  0  0  0  0
   -6.2082   21.9287  -22.4351 C   0  0  0  0  0  0  0  0  0  0  0  0
   -7.3998   22.1759  -21.7991 C   0  0  0  0  0  0  0  0  0  0  0  0
   -8.0572   23.3588  -22.0869 C   0  0  0  0  0  0  0  0  0  0  0  0
   -7.5700   24.2578  -22.9572 N   0  0  0  0  0  0  0  0  0  0  0  0
   -6.3818   24.0429  -23.6110 C   0  0  0  0  0  0  0  0  0  0  0  0
   -3.4538   22.9749  -28.4257 C   0  0  0  0  0  0  0  0  0  0  0  0
   -2.5785   22.5538  -27.2979 C   0  0  0  0  0  0  0  0  0  0  0  0
   -1.2926   22.1762  -27.2900 N   0  0  0  0  0  0  0  0  0  0  0  0
   -0.8957   21.8782  -26.0691 N   0  0  0  0  0  0  0  0  0  0  0  0
   -1.9580   22.0647  -25.2315 C   0  0  0  0  0  0  0  0  0  0  0  0
   -2.1314   21.9133  -23.8783 C   0  0  0  0  0  0  0  0  0  0  0  0
   -3.3572   22.1861  -23.3014 C   0  0  0  0  0  0  0  0  0  0  0  0
   -4.4404   22.6118  -24.0227 C   0  0  0  0  0  0  0  0  0  0  0  0
   -4.2536   22.7596  -25.3802 C   0  0  0  0  0  0  0  0  0  0  0  0
   -3.0317   22.4911  -25.9822 C   0  0  0  0  0  0  0  0  0  0  0  0
    0.0309   21.5552  -25.7185 H   0  0  0  0  0  0  0  0  0  0  0  0
   -5.8740   25.0250  -24.5480 C   0  0  0  0  0  0  0  0  0  0  0  0
   -6.2993   25.1180  -25.8454 C   0  0  0  0  0  0  0  0  0  0  0  0
   -5.7727   26.0957  -26.6980 C   0  0  0  0  0  0  0  0  0  0  0  0
   -4.8170   26.9826  -26.2483 C   0  0  0  0  0  0  0  0  0  0  0  0
   -4.3937   26.8871  -24.9496 C   0  0  0  0  0  0  0  0  0  0  0  0
   -3.4465   27.7655  -24.5015 F   0  0  0  0  0  0  0  0  0  0  0  0
   -4.9131   25.9210  -24.1047 C   0  0  0  0  0  0  0  0  0  0  0  0
   -4.4516   25.8672  -22.8016 O   0  0  0  0  0  0  0  0  0  0  0  0
   -3.7532   26.5229  -22.4857 H   0  0  0  0  0  0  0  0  0  0  0  0
   -7.9324   21.2571  -20.8769 N   0  0  0  0  0  0  0  0  0  0  0  0
   -8.4450   20.4152  -21.2753 H   0  0  0  0  0  0  0  0  0  0  0  0
   -7.8493   21.3496  -19.4394 C   0  0  0  0  0  0  0  0  0  0  0  0
   -7.0094   20.2174  -18.9442 C   0  0  0  0  0  0  0  0  0  0  0  0
   -5.6461   20.2475  -18.9212 C   0  0  0  0  0  0  0  0  0  0  0  0
   -4.8909   19.1587  -18.4641 C   0  0  0  0  0  0  0  0  0  0  0  0
   -5.5065   18.0162  -18.0201 C   0  0  0  0  0  0  0  0  0  0  0  0
   -6.8764   17.9925  -18.0451 C   0  0  0  0  0  0  0  0  0  0  0  0
   -7.6164   19.0532  -18.4907 C   0  0  0  0  0  0  0  0  0  0  0  0
   -9.1387   21.3845  -18.7150 C   0  0  0  0  0  0  0  0  0  0  0  0
   -9.2426   22.6026  -18.0028 O   0  0  0  0  0  0  0  0  0  0  0  0
   -8.5857   23.2629  -18.3275 H   0  0  0  0  0  0  0  0  0  0  0  0
  7  8  1  0  0  0
  8  9  2  0  0  0
  9 10  1  0  0  0
 10 11  1  0  0  0
 11 12  2  0  0  0
 12 13  1  0  0  0
 13 14  2  0  0  0
 14 15  1  0  0  0
 15 16  2  0  0  0
 14  1  1  0  0  0
  1  2  2  0  0  0
  2  3  1  0  0  0
  3 27  1  0  0  0
 27 29  1  0  0  0
 29 36  1  0  0  0
 36 37  1  0  0  0
 29 30  1  0  0  0
 30 31  2  0  0  0
 31 32  1  0  0  0
 32 33  2  0  0  0
 33 34  1  0  0  0
 34 35  2  0  0  0
  3  4  2  0  0  0
  4  5  1  0  0  0
  5  6  2  0  0  0
  6 18  1  0  0  0
 18 19  2  0  0  0
 19 20  1  0  0  0
 20 21  2  0  0  0
 21 22  1  0  0  0
 22 23  1  0  0  0
 22 24  2  0  0  0
 24 25  1  0  0  0
 16  8  1  0  0  0
  6  1  1  0  0  0
 24 18  1  0  0  0
 16 11  1  0  0  0
 35 30  1  0  0  0
 10 17  1  0  0  0
 27 28  1  0  0  0
 37 38  1  0  0  0
 25 26  1  0  0  0
M  END
> <minimizedAffinity>
-8.50469

> <CNNscore>
0.2518451214

> <CNNaffinity>
6.7105660439

> <CNN_VS>
1.6900233030

> <CNNaffinity_variance>
0.1017320007

$$$$
[H]c1nn(-c2c([H])c([H])c3c(nc(C([H])([H])[H])n3[H])c2[H])c(N([H])[H])c1C(=O)c1nc2c([H])c([H])c([H])c([H])c2s1


 30 34  0  0  0  0  0  0  0  0999 V2000
   -0.3510   21.8683  -24.4956 N   0  0  0  0  0  0  0  0  0  0  0  0
   -0.0097   22.3385  -25.6919 N   0  0  0  0  0  0  0  0  0  0  0  0
   -1.0746   22.6555  -26.4214 C   0  0  0  0  0  0  0  0  0  0  0  0
   -2.2068   22.3736  -25.6510 C   0  0  0  0  0  0  0  0  0  0  0  0
   -1.6903   21.8899  -24.4710 C   0  0  0  0  0  0  0  0  0  0  0  0
   -2.4644   21.4514  -23.3368 N   0  0  0  0  0  0  0  0  0  0  0  0
   -3.0635   20.6083  -23.4574 H   0  0  0  0  0  0  0  0  0  0  0  0
   -2.3642   22.0177  -22.4711 H   0  0  0  0  0  0  0  0  0  0  0  0
    5.6176   19.3180  -20.9025 C   0  0  0  0  0  0  0  0  0  0  0  0
    4.2947   19.8535  -21.3705 C   0  0  0  0  0  0  0  0  0  0  0  0
    3.9134   20.1039  -22.6328 N   0  0  0  0  0  0  0  0  0  0  0  0
    2.6600   20.5768  -22.6701 C   0  0  0  0  0  0  0  0  0  0  0  0
    1.8108   20.9838  -23.7031 C   0  0  0  0  0  0  0  0  0  0  0  0
    0.5361   21.4422  -23.4731 C   0  0  0  0  0  0  0  0  0  0  0  0
    0.1217   21.4838  -22.1496 C   0  0  0  0  0  0  0  0  0  0  0  0
    0.9422   21.0875  -21.1152 C   0  0  0  0  0  0  0  0  0  0  0  0
    2.2194   20.6314  -21.3780 C   0  0  0  0  0  0  0  0  0  0  0  0
    3.2383   20.1843  -20.6075 N   0  0  0  0  0  0  0  0  0  0  0  0
    3.1714   20.1215  -19.5679 H   0  0  0  0  0  0  0  0  0  0  0  0
   -3.6040   22.5446  -25.9897 C   0  0  0  0  0  0  0  0  0  0  0  0
   -4.5020   21.9559  -25.3301 O   0  0  0  0  0  0  0  0  0  0  0  0
   -4.0569   23.3917  -27.0938 C   0  0  0  0  0  0  0  0  0  0  0  0
   -3.3963   23.9398  -28.0837 N   0  0  0  0  0  0  0  0  0  0  0  0
   -4.0135   24.6796  -28.9675 C   0  0  0  0  0  0  0  0  0  0  0  0
   -3.4167   25.3207  -30.0744 C   0  0  0  0  0  0  0  0  0  0  0  0
   -4.1779   26.0602  -30.9147 C   0  0  0  0  0  0  0  0  0  0  0  0
   -5.5330   26.2509  -30.7832 C   0  0  0  0  0  0  0  0  0  0  0  0
   -6.1325   25.6257  -29.6990 C   0  0  0  0  0  0  0  0  0  0  0  0
   -5.3638   24.8515  -28.8109 C   0  0  0  0  0  0  0  0  0  0  0  0
   -5.6607   23.9336  -27.3964 S   0  0  0  0  0  0  0  0  0  0  0  0
  9 10  1  0  0  0
 10 11  2  0  0  0
 11 12  1  0  0  0
 12 13  2  0  0  0
 13 14  1  0  0  0
 14 15  2  0  0  0
 15 16  1  0  0  0
 16 17  2  0  0  0
 17 18  1  0  0  0
 14  1  1  0  0  0
  1  2  1  0  0  0
  2  3  2  0  0  0
  3  4  1  0  0  0
  4 20  1  0  0  0
 20 21  2  0  0  0
 20 22  1  0  0  0
 22 23  2  0  0  0
 23 24  1  0  0  0
 24 25  2  0  0  0
 25 26  1  0  0  0
 26 27  2  0  0  0
 27 28  1  0  0  0
 28 29  2  0  0  0
 29 30  1  0  0  0
  4  5  2  0  0  0
  5  6  1  0  0  0
 18 10  1  0  0  0
  5  1  1  0  0  0
 17 12  1  0  0  0
 30 22  1  0  0  0
 29 24  1  0  0  0
 18 19  1  0  0  0
  6  7  1  0  0  0
  6  8  1  0  0  0
M  END
> <minimizedAffinity>
-8.29216

> <CNNscore>
0.3341550827

> <CNNaffinity>
6.5434813499

> <CNN_VS>
2.1865375042

> <CNNaffinity_variance>
0.2898619771

$$$$
[H]c1nn(-c2c([H])c([H])c3c(nc(C([H])([H])[H])n3[H])c2[H])c(N([H])[H])c1C(=O)c1nc2c([H])c([H])c([H])c([H])c2s1


 30 34  0  0  0  0  0  0  0  0999 V2000
   -0.3336   21.5223  -23.5530 N   0  0  0  0  0  0  0  0  0  0  0  0
   -1.0975   21.2480  -22.4995 N   0  0  0  0  0  0  0  0  0  0  0  0
   -0.3737   20.8972  -21.4413 C   0  0  0  0  0  0  0  0  0  0  0  0
    0.9708   20.9417  -21.8223 C   0  0  0  0  0  0  0  0  0  0  0  0
    0.9270   21.3356  -23.1398 C   0  0  0  0  0  0  0  0  0  0  0  0
    2.0725   21.5280  -23.9936 N   0  0  0  0  0  0  0  0  0  0  0  0
    2.6454   20.6912  -24.2295 H   0  0  0  0  0  0  0  0  0  0  0  0
    2.2421   22.5018  -24.3148 H   0  0  0  0  0  0  0  0  0  0  0  0
   -4.6577   23.4578  -29.2621 C   0  0  0  0  0  0  0  0  0  0  0  0
   -3.5684   23.1109  -28.2880 C   0  0  0  0  0  0  0  0  0  0  0  0
   -3.7059   22.7241  -27.0102 N   0  0  0  0  0  0  0  0  0  0  0  0
   -2.5111   22.4988  -26.4463 C   0  0  0  0  0  0  0  0  0  0  0  0
   -2.1049   22.0905  -25.1727 C   0  0  0  0  0  0  0  0  0  0  0  0
   -0.7825   21.9299  -24.8361 C   0  0  0  0  0  0  0  0  0  0  0  0
    0.1471   22.1945  -25.8316 C   0  0  0  0  0  0  0  0  0  0  0  0
   -0.2308   22.5983  -27.0943 C   0  0  0  0  0  0  0  0  0  0  0  0
   -1.5686   22.7514  -27.4027 C   0  0  0  0  0  0  0  0  0  0  0  0
   -2.2434   23.1231  -28.5155 N   0  0  0  0  0  0  0  0  0  0  0  0
   -1.7624   23.3766  -29.4063 H   0  0  0  0  0  0  0  0  0  0  0  0
    2.1503   20.6505  -21.0347 C   0  0  0  0  0  0  0  0  0  0  0  0
    2.6630   21.5324  -20.2949 O   0  0  0  0  0  0  0  0  0  0  0  0
    2.8107   19.3446  -21.0444 C   0  0  0  0  0  0  0  0  0  0  0  0
    3.3617   18.6671  -22.0212 N   0  0  0  0  0  0  0  0  0  0  0  0
    3.8951   17.4941  -21.8001 C   0  0  0  0  0  0  0  0  0  0  0  0
    4.5167   16.6709  -22.7636 C   0  0  0  0  0  0  0  0  0  0  0  0
    5.0300   15.4736  -22.3955 C   0  0  0  0  0  0  0  0  0  0  0  0
    5.0000   14.9665  -21.1180 C   0  0  0  0  0  0  0  0  0  0  0  0
    4.3919   15.7662  -20.1606 C   0  0  0  0  0  0  0  0  0  0  0  0
    3.8507   17.0147  -20.5173 C   0  0  0  0  0  0  0  0  0  0  0  0
    3.0414   18.2877  -19.7074 S   0  0  0  0  0  0  0  0  0  0  0  0
  9 10  1  0  0  0
 10 11  2  0  0  0
 11 12  1  0  0  0
 12 13  2  0  0  0
 13 14  1  0  0  0
 14 15  2  0  0  0
 15 16  1  0  0  0
 16 17  2  0  0  0
 17 18  1  0  0  0
 14  1  1  0  0  0
  1  2  1  0  0  0
  2  3  2  0  0  0
  3  4  1  0  0  0
  4 20  1  0  0  0
 20 21  2  0  0  0
 20 22  1  0  0  0
 22 23  2  0  0  0
 23 24  1  0  0  0
 24 25  2  0  0  0
 25 26  1  0  0  0
 26 27  2  0  0  0
 27 28  1  0  0  0
 28 29  2  0  0  0
 29 30  1  0  0  0
  4  5  2  0  0  0
  5  6  1  0  0  0
 18 10  1  0  0  0
  5  1  1  0  0  0
 17 12  1  0  0  0
 30 22  1  0  0  0
 29 24  1  0  0  0
 18 19  1  0  0  0
  6  7  1  0  0  0
  6  8  1  0  0  0
M  END
> <minimizedAffinity>
-8.13328

> <CNNscore>
0.3040583730

> <CNNaffinity>
6.1432495117

> <CNN_VS>
1.8679064512

> <CNNaffinity_variance>
0.0495894477

$$$$
[H]c1nn(-c2c([H])c([H])c3c(nc(C([H])([H])[H])n3[H])c2[H])c(N([H])[H])c1C(=O)c1nc2c([H])c([H])c([H])c([H])c2s1


 30 34  0  0  0  0  0  0  0  0999 V2000
   -0.3059   21.5840  -23.4986 N   0  0  0  0  0  0  0  0  0  0  0  0
   -1.0659   21.3956  -22.4236 N   0  0  0  0  0  0  0  0  0  0  0  0
   -0.3456   21.0411  -21.3642 C   0  0  0  0  0  0  0  0  0  0  0  0
    0.9921   20.9902  -21.7676 C   0  0  0  0  0  0  0  0  0  0  0  0
    0.9485   21.3369  -23.0984 C   0  0  0  0  0  0  0  0  0  0  0  0
    2.0879   21.4280  -23.9767 N   0  0  0  0  0  0  0  0  0  0  0  0
    2.6054   20.5499  -24.1894 H   0  0  0  0  0  0  0  0  0  0  0  0
    2.3097   22.3772  -24.3373 H   0  0  0  0  0  0  0  0  0  0  0  0
   -4.6193   23.4347  -29.2438 C   0  0  0  0  0  0  0  0  0  0  0  0
   -3.5319   23.1007  -28.2631 C   0  0  0  0  0  0  0  0  0  0  0  0
   -3.6716   22.7380  -26.9784 N   0  0  0  0  0  0  0  0  0  0  0  0
   -2.4780   22.5175  -26.4101 C   0  0  0  0  0  0  0  0  0  0  0  0
   -2.0741   22.1307  -25.1291 C   0  0  0  0  0  0  0  0  0  0  0  0
   -0.7526   21.9701  -24.7891 C   0  0  0  0  0  0  0  0  0  0  0  0
    0.1785   22.2121  -25.7889 C   0  0  0  0  0  0  0  0  0  0  0  0
   -0.1971   22.5944  -27.0590 C   0  0  0  0  0  0  0  0  0  0  0  0
   -1.5341   22.7481  -27.3706 C   0  0  0  0  0  0  0  0  0  0  0  0
   -2.2068   23.1025  -28.4903 N   0  0  0  0  0  0  0  0  0  0  0  0
   -1.7243   23.3374  -29.3854 H   0  0  0  0  0  0  0  0  0  0  0  0
    2.1660   20.6577  -20.9880 C   0  0  0  0  0  0  0  0  0  0  0  0
    2.7431   19.5474  -21.1368 O   0  0  0  0  0  0  0  0  0  0  0  0
    2.7473   21.5660  -19.9987 C   0  0  0  0  0  0  0  0  0  0  0  0
    3.9944   21.8817  -19.7496 N   0  0  0  0  0  0  0  0  0  0  0  0
    4.2900   22.7249  -18.7951 C   0  0  0  0  0  0  0  0  0  0  0  0
    5.5879   23.1442  -18.4317 C   0  0  0  0  0  0  0  0  0  0  0  0
    5.7508   24.0270  -17.4185 C   0  0  0  0  0  0  0  0  0  0  0  0
    4.7268   24.5742  -16.6823 C   0  0  0  0  0  0  0  0  0  0  0  0
    3.4453   24.1705  -17.0296 C   0  0  0  0  0  0  0  0  0  0  0  0
    3.2489   23.2542  -18.0787 C   0  0  0  0  0  0  0  0  0  0  0  0
    1.9052   22.5023  -18.8275 S   0  0  0  0  0  0  0  0  0  0  0  0
  9 10  1  0  0  0
 10 11  2  0  0  0
 11 12  1  0  0  0
 12 13  2  0  0  0
 13 14  1  0  0  0
 14 15  2  0  0  0
 15 16  1  0  0  0
 16 17  2  0  0  0
 17 18  1  0  0  0
 14  1  1  0  0  0
  1  2  1  0  0  0
  2  3  2  0  0  0
  3  4  1  0  0  0
  4 20  1  0  0  0
 20 21  2  0  0  0
 20 22  1  0  0  0
 22 23  2  0  0  0
 23 24  1  0  0  0
 24 25  2  0  0  0
 25 26  1  0  0  0
 26 27  2  0  0  0
 27 28  1  0  0  0
 28 29  2  0  0  0
 29 30  1  0  0  0
  4  5  2  0  0  0
  5  6  1  0  0  0
 18 10  1  0  0  0
  5  1  1  0  0  0
 17 12  1  0  0  0
 30 22  1  0  0  0
 29 24  1  0  0  0
 18 19  1  0  0  0
  6  7  1  0  0  0
  6  8  1  0  0  0
M  END
> <minimizedAffinity>
-9.08824

> <CNNscore>
0.3036970198

> <CNNaffinity>
6.0846500397

> <CNN_VS>
1.8478901386

> <CNNaffinity_variance>
0.0831626207

$$$$
[H]c1nn(-c2c([H])c([H])c3c(nc(C([H])([H])[H])n3[H])c2[H])c(N([H])[H])c1C(=O)c1nc2c([H])c([H])c([H])c([H])c2s1


 30 34  0  0  0  0  0  0  0  0999 V2000
   -1.1250   22.2420  -24.6767 N   0  0  0  0  0  0  0  0  0  0  0  0
    0.1612   22.3937  -24.9788 N   0  0  0  0  0  0  0  0  0  0  0  0
    0.9533   21.8935  -24.0359 C   0  0  0  0  0  0  0  0  0  0  0  0
    0.1303   21.3717  -23.0334 C   0  0  0  0  0  0  0  0  0  0  0  0
   -1.1435   21.6190  -23.4909 C   0  0  0  0  0  0  0  0  0  0  0  0
   -2.3615   21.2683  -22.8043 N   0  0  0  0  0  0  0  0  0  0  0  0
   -2.5599   21.7432  -21.8991 H   0  0  0  0  0  0  0  0  0  0  0  0
   -2.9590   20.5579  -23.2717 H   0  0  0  0  0  0  0  0  0  0  0  0
   -5.6507   23.5443  -30.4091 C   0  0  0  0  0  0  0  0  0  0  0  0
   -4.9389   23.4036  -29.0941 C   0  0  0  0  0  0  0  0  0  0  0  0
   -3.7322   22.8602  -28.8707 N   0  0  0  0  0  0  0  0  0  0  0  0
   -3.4186   22.9080  -27.5686 C   0  0  0  0  0  0  0  0  0  0  0  0
   -2.3110   22.4902  -26.8251 C   0  0  0  0  0  0  0  0  0  0  0  0
   -2.2302   22.6580  -25.4638 C   0  0  0  0  0  0  0  0  0  0  0  0
   -3.3130   23.2705  -24.8494 C   0  0  0  0  0  0  0  0  0  0  0  0
   -4.4154   23.6904  -25.5627 C   0  0  0  0  0  0  0  0  0  0  0  0
   -4.4677   23.5074  -26.9309 C   0  0  0  0  0  0  0  0  0  0  0  0
   -5.3804   23.7984  -27.8871 N   0  0  0  0  0  0  0  0  0  0  0  0
   -6.2890   24.2650  -27.6736 H   0  0  0  0  0  0  0  0  0  0  0  0
    0.5045   20.7171  -21.7973 C   0  0  0  0  0  0  0  0  0  0  0  0
   -0.1545   19.7335  -21.3659 O   0  0  0  0  0  0  0  0  0  0  0  0
    1.6450   21.1432  -20.9853 C   0  0  0  0  0  0  0  0  0  0  0  0
    1.6968   21.8116  -19.8595 N   0  0  0  0  0  0  0  0  0  0  0  0
    2.8467   22.0943  -19.3052 C   0  0  0  0  0  0  0  0  0  0  0  0
    3.0338   22.8037  -18.0993 C   0  0  0  0  0  0  0  0  0  0  0  0
    4.2865   23.0270  -17.6373 C   0  0  0  0  0  0  0  0  0  0  0  0
    5.4385   22.6091  -18.2603 C   0  0  0  0  0  0  0  0  0  0  0  0
    5.2687   21.9100  -19.4470 C   0  0  0  0  0  0  0  0  0  0  0  0
    3.9775   21.6646  -19.9485 C   0  0  0  0  0  0  0  0  0  0  0  0
    3.3117   20.8775  -21.3154 S   0  0  0  0  0  0  0  0  0  0  0  0
  9 10  1  0  0  0
 10 11  2  0  0  0
 11 12  1  0  0  0
 12 13  2  0  0  0
 13 14  1  0  0  0
 14 15  2  0  0  0
 15 16  1  0  0  0
 16 17  2  0  0  0
 17 18  1  0  0  0
 14  1  1  0  0  0
  1  2  1  0  0  0
  2  3  2  0  0  0
  3  4  1  0  0  0
  4 20  1  0  0  0
 20 21  2  0  0  0
 20 22  1  0  0  0
 22 23  2  0  0  0
 23 24  1  0  0  0
 24 25  2  0  0  0
 25 26  1  0  0  0
 26 27  2  0  0  0
 27 28  1  0  0  0
 28 29  2  0  0  0
 29 30  1  0  0  0
  4  5  2  0  0  0
  5  6  1  0  0  0
 18 10  1  0  0  0
  5  1  1  0  0  0
 17 12  1  0  0  0
 30 22  1  0  0  0
 29 24  1  0  0  0
 18 19  1  0  0  0
  6  7  1  0  0  0
  6  8  1  0  0  0
M  END
> <minimizedAffinity>
-8.11746

> <CNNscore>
0.1868055910

> <CNNaffinity>
6.2580165863

> <CNN_VS>
1.1690324545

> <CNNaffinity_variance>
0.6025676727

$$$$
[H]c1nn(-c2c([H])c([H])c3c(nc(C([H])([H])[H])n3[H])c2[H])c(N([H])[H])c1C(=O)c1nc2c([H])c([H])c([H])c([H])c2s1


 30 34  0  0  0  0  0  0  0  0999 V2000
   -1.1562   22.1269  -23.3750 N   0  0  0  0  0  0  0  0  0  0  0  0
   -0.4228   21.1179  -22.9138 N   0  0  0  0  0  0  0  0  0  0  0  0
   -0.2161   21.2144  -21.6043 C   0  0  0  0  0  0  0  0  0  0  0  0
   -0.8603   22.3748  -21.1648 C   0  0  0  0  0  0  0  0  0  0  0  0
   -1.4228   22.8928  -22.3087 C   0  0  0  0  0  0  0  0  0  0  0  0
   -2.2012   24.1038  -22.3835 N   0  0  0  0  0  0  0  0  0  0  0  0
   -1.7181   25.0024  -22.1757 H   0  0  0  0  0  0  0  0  0  0  0  0
   -3.2006   23.9869  -22.6438 H   0  0  0  0  0  0  0  0  0  0  0  0
   -5.2774   23.2895  -29.4333 C   0  0  0  0  0  0  0  0  0  0  0  0
   -4.2247   23.0520  -28.3887 C   0  0  0  0  0  0  0  0  0  0  0  0
   -4.4018   22.9089  -27.0660 N   0  0  0  0  0  0  0  0  0  0  0  0
   -3.2312   22.7109  -26.4442 C   0  0  0  0  0  0  0  0  0  0  0  0
   -2.8674   22.5106  -25.1095 C   0  0  0  0  0  0  0  0  0  0  0  0
   -1.5626   22.3274  -24.7198 C   0  0  0  0  0  0  0  0  0  0  0  0
   -0.6065   22.3496  -25.7251 C   0  0  0  0  0  0  0  0  0  0  0  0
   -0.9425   22.5455  -27.0476 C   0  0  0  0  0  0  0  0  0  0  0  0
   -2.2635   22.7274  -27.4085 C   0  0  0  0  0  0  0  0  0  0  0  0
   -2.8995   22.9377  -28.5846 N   0  0  0  0  0  0  0  0  0  0  0  0
   -2.3928   22.9967  -29.4950 H   0  0  0  0  0  0  0  0  0  0  0  0
   -0.9362   22.9227  -19.8268 C   0  0  0  0  0  0  0  0  0  0  0  0
   -2.0247   23.3704  -19.3764 O   0  0  0  0  0  0  0  0  0  0  0  0
    0.2175   22.9923  -18.9291 C   0  0  0  0  0  0  0  0  0  0  0  0
    1.2011   23.8550  -18.8585 N   0  0  0  0  0  0  0  0  0  0  0  0
    2.1469   23.7152  -17.9668 C   0  0  0  0  0  0  0  0  0  0  0  0
    3.2536   24.5735  -17.7903 C   0  0  0  0  0  0  0  0  0  0  0  0
    4.1625   24.3091  -16.8226 C   0  0  0  0  0  0  0  0  0  0  0  0
    4.1035   23.2387  -15.9620 C   0  0  0  0  0  0  0  0  0  0  0  0
    3.0200   22.3870  -16.1246 C   0  0  0  0  0  0  0  0  0  0  0  0
    2.0613   22.6394  -17.1226 C   0  0  0  0  0  0  0  0  0  0  0  0
    0.6192   21.8947  -17.6676 S   0  0  0  0  0  0  0  0  0  0  0  0
  9 10  1  0  0  0
 10 11  2  0  0  0
 11 12  1  0  0  0
 12 13  2  0  0  0
 13 14  1  0  0  0
 14 15  2  0  0  0
 15 16  1  0  0  0
 16 17  2  0  0  0
 17 18  1  0  0  0
 14  1  1  0  0  0
  1  2  1  0  0  0
  2  3  2  0  0  0
  3  4  1  0  0  0
  4 20  1  0  0  0
 20 21  2  0  0  0
 20 22  1  0  0  0
 22 23  2  0  0  0
 23 24  1  0  0  0
 24 25  2  0  0  0
 25 26  1  0  0  0
 26 27  2  0  0  0
 27 28  1  0  0  0
 28 29  2  0  0  0
 29 30  1  0  0  0
  4  5  2  0  0  0
  5  6  1  0  0  0
 18 10  1  0  0  0
  5  1  1  0  0  0
 17 12  1  0  0  0
 30 22  1  0  0  0
 29 24  1  0  0  0
 18 19  1  0  0  0
  6  7  1  0  0  0
  6  8  1  0  0  0
M  END
> <minimizedAffinity>
-8.65491

> <CNNscore>
0.1095610186

> <CNNaffinity>
5.8546304703

> <CNN_VS>
0.6414392591

> <CNNaffinity_variance>
0.0500252545

$$$$
[H]c1nn(-c2c([H])c([H])c3c(nc(C([H])([H])[H])n3[H])c2[H])c(N([H])[H])c1C(=O)c1nc2c([H])c([H])c([H])c([H])c2s1


 30 34  0  0  0  0  0  0  0  0999 V2000
   -0.6624   21.8853  -24.1790 N   0  0  0  0  0  0  0  0  0  0  0  0
    0.5955   21.9488  -24.6060 N   0  0  0  0  0  0  0  0  0  0  0  0
    1.4515   21.5029  -23.6921 C   0  0  0  0  0  0  0  0  0  0  0  0
    0.7049   21.1153  -22.5754 C   0  0  0  0  0  0  0  0  0  0  0  0
   -0.5954   21.3771  -22.9413 C   0  0  0  0  0  0  0  0  0  0  0  0
   -1.7575   21.1484  -22.1197 N   0  0  0  0  0  0  0  0  0  0  0  0
   -1.8542   21.7144  -21.2510 H   0  0  0  0  0  0  0  0  0  0  0  0
   -2.4215   20.4258  -22.4618 H   0  0  0  0  0  0  0  0  0  0  0  0
   -7.4153   24.4211  -25.9129 C   0  0  0  0  0  0  0  0  0  0  0  0
   -6.0199   23.8700  -25.8422 C   0  0  0  0  0  0  0  0  0  0  0  0
   -5.2739   23.6693  -24.7446 N   0  0  0  0  0  0  0  0  0  0  0  0
   -4.0756   23.1622  -25.0656 C   0  0  0  0  0  0  0  0  0  0  0  0
   -2.9559   22.7818  -24.3203 C   0  0  0  0  0  0  0  0  0  0  0  0
   -1.8187   22.2764  -24.9028 C   0  0  0  0  0  0  0  0  0  0  0  0
   -1.8306   22.1577  -26.2852 C   0  0  0  0  0  0  0  0  0  0  0  0
   -2.9235   22.5266  -27.0400 C   0  0  0  0  0  0  0  0  0  0  0  0
   -4.0527   23.0321  -26.4255 C   0  0  0  0  0  0  0  0  0  0  0  0
   -5.2523   23.4721  -26.8718 N   0  0  0  0  0  0  0  0  0  0  0  0
   -5.5056   23.4841  -27.8841 H   0  0  0  0  0  0  0  0  0  0  0  0
    1.1661   20.5625  -21.3192 C   0  0  0  0  0  0  0  0  0  0  0  0
    0.7894   19.4204  -20.9428 O   0  0  0  0  0  0  0  0  0  0  0  0
    2.0781   21.2751  -20.4236 C   0  0  0  0  0  0  0  0  0  0  0  0
    1.8434   22.1415  -19.4692 N   0  0  0  0  0  0  0  0  0  0  0  0
    2.8290   22.6679  -18.7904 C   0  0  0  0  0  0  0  0  0  0  0  0
    2.7065   23.6065  -17.7432 C   0  0  0  0  0  0  0  0  0  0  0  0
    3.8162   24.0712  -17.1228 C   0  0  0  0  0  0  0  0  0  0  0  0
    5.1026   23.6973  -17.4318 C   0  0  0  0  0  0  0  0  0  0  0  0
    5.2372   22.7745  -18.4595 C   0  0  0  0  0  0  0  0  0  0  0  0
    4.0997   22.2760  -19.1203 C   0  0  0  0  0  0  0  0  0  0  0  0
    3.7944   21.1701  -20.3911 S   0  0  0  0  0  0  0  0  0  0  0  0
  9 10  1  0  0  0
 10 11  2  0  0  0
 11 12  1  0  0  0
 12 13  2  0  0  0
 13 14  1  0  0  0
 14 15  2  0  0  0
 15 16  1  0  0  0
 16 17  2  0  0  0
 17 18  1  0  0  0
 14  1  1  0  0  0
  1  2  1  0  0  0
  2  3  2  0  0  0
  3  4  1  0  0  0
  4 20  1  0  0  0
 20 21  2  0  0  0
 20 22  1  0  0  0
 22 23  2  0  0  0
 23 24  1  0  0  0
 24 25  2  0  0  0
 25 26  1  0  0  0
 26 27  2  0  0  0
 27 28  1  0  0  0
 28 29  2  0  0  0
 29 30  1  0  0  0
  4  5  2  0  0  0
  5  6  1  0  0  0
 18 10  1  0  0  0
  5  1  1  0  0  0
 17 12  1  0  0  0
 30 22  1  0  0  0
 29 24  1  0  0  0
 18 19  1  0  0  0
  6  7  1  0  0  0
  6  8  1  0  0  0
M  END
> <minimizedAffinity>
-8.04834

> <CNNscore>
0.1020633876

> <CNNaffinity>
5.8994994164

> <CNN_VS>
0.6021229029

> <CNNaffinity_variance>
0.2024597675

$$$$
[H]c1nn(-c2c([H])c([H])c3c(nc(C([H])([H])[H])n3[H])c2[H])c(N([H])[H])c1C(=O)c1nc2c([H])c([H])c([H])c([H])c2s1


 30 34  0  0  0  0  0  0  0  0999 V2000
   -0.9720   21.7394  -23.6875 N   0  0  0  0  0  0  0  0  0  0  0  0
   -1.5102   21.1878  -22.6036 N   0  0  0  0  0  0  0  0  0  0  0  0
   -0.5824   20.7648  -21.7510 C   0  0  0  0  0  0  0  0  0  0  0  0
    0.6643   21.0574  -22.3122 C   0  0  0  0  0  0  0  0  0  0  0  0
    0.3534   21.6598  -23.5095 C   0  0  0  0  0  0  0  0  0  0  0  0
    1.3083   22.1498  -24.4719 N   0  0  0  0  0  0  0  0  0  0  0  0
    1.9192   21.4518  -24.9450 H   0  0  0  0  0  0  0  0  0  0  0  0
    1.3144   23.1779  -24.6238 H   0  0  0  0  0  0  0  0  0  0  0  0
   -5.7155   25.6907  -27.8015 C   0  0  0  0  0  0  0  0  0  0  0  0
   -4.6613   24.7937  -27.2187 C   0  0  0  0  0  0  0  0  0  0  0  0
   -4.3726   24.6054  -25.9215 N   0  0  0  0  0  0  0  0  0  0  0  0
   -3.3682   23.7301  -25.7760 C   0  0  0  0  0  0  0  0  0  0  0  0
   -2.7006   23.2003  -24.6681 C   0  0  0  0  0  0  0  0  0  0  0  0
   -1.6752   22.2937  -24.7885 C   0  0  0  0  0  0  0  0  0  0  0  0
   -1.3260   21.9205  -26.0785 C   0  0  0  0  0  0  0  0  0  0  0  0
   -1.9706   22.4301  -27.1854 C   0  0  0  0  0  0  0  0  0  0  0  0
   -2.9979   23.3408  -27.0322 C   0  0  0  0  0  0  0  0  0  0  0  0
   -3.8042   24.0064  -27.8918 N   0  0  0  0  0  0  0  0  0  0  0  0
   -3.7360   23.8950  -28.9272 H   0  0  0  0  0  0  0  0  0  0  0  0
    1.9856   20.8010  -21.7786 C   0  0  0  0  0  0  0  0  0  0  0  0
    2.8573   20.2150  -22.4748 O   0  0  0  0  0  0  0  0  0  0  0  0
    2.3882   21.1951  -20.4280 C   0  0  0  0  0  0  0  0  0  0  0  0
    2.4452   22.3732  -19.8572 N   0  0  0  0  0  0  0  0  0  0  0  0
    2.8504   22.4950  -18.6201 C   0  0  0  0  0  0  0  0  0  0  0  0
    2.9546   23.7026  -17.8968 C   0  0  0  0  0  0  0  0  0  0  0  0
    3.3910   23.6840  -16.6155 C   0  0  0  0  0  0  0  0  0  0  0  0
    3.7561   22.5513  -15.9274 C   0  0  0  0  0  0  0  0  0  0  0  0
    3.6580   21.3568  -16.6270 C   0  0  0  0  0  0  0  0  0  0  0  0
    3.2073   21.3489  -17.9596 C   0  0  0  0  0  0  0  0  0  0  0  0
    2.9355   20.1639  -19.1652 S   0  0  0  0  0  0  0  0  0  0  0  0
  9 10  1  0  0  0
 10 11  2  0  0  0
 11 12  1  0  0  0
 12 13  2  0  0  0
 13 14  1  0  0  0
 14 15  2  0  0  0
 15 16  1  0  0  0
 16 17  2  0  0  0
 17 18  1  0  0  0
 14  1  1  0  0  0
  1  2  1  0  0  0
  2  3  2  0  0  0
  3  4  1  0  0  0
  4 20  1  0  0  0
 20 21  2  0  0  0
 20 22  1  0  0  0
 22 23  2  0  0  0
 23 24  1  0  0  0
 24 25  2  0  0  0
 25 26  1  0  0  0
 26 27  2  0  0  0
 27 28  1  0  0  0
 28 29  2  0  0  0
 29 30  1  0  0  0
  4  5  2  0  0  0
  5  6  1  0  0  0
 18 10  1  0  0  0
  5  1  1  0  0  0
 17 12  1  0  0  0
 30 22  1  0  0  0
 29 24  1  0  0  0
 18 19  1  0  0  0
  6  7  1  0  0  0
  6  8  1  0  0  0
M  END
> <minimizedAffinity>
-7.68431

> <CNNscore>
0.0969867185

> <CNNaffinity>
5.7810635567

> <CNN_VS>
0.5606864095

> <CNNaffinity_variance>
0.1554214656

$$$$
[H]c1nn(-c2c([H])c([H])c3c(nc(C([H])([H])[H])n3[H])c2[H])c(N([H])[H])c1C(=O)c1nc2c([H])c([H])c([H])c([H])c2s1


 30 34  0  0  0  0  0  0  0  0999 V2000
   -5.7207   22.6954  -21.0966 N   0  0  0  0  0  0  0  0  0  0  0  0
   -6.5773   21.7773  -21.5348 N   0  0  0  0  0  0  0  0  0  0  0  0
   -6.6447   21.7566  -22.8621 C   0  0  0  0  0  0  0  0  0  0  0  0
   -5.7674   22.7350  -23.3394 C   0  0  0  0  0  0  0  0  0  0  0  0
   -5.2271   23.2789  -22.1969 C   0  0  0  0  0  0  0  0  0  0  0  0
   -4.2557   24.3431  -22.1557 N   0  0  0  0  0  0  0  0  0  0  0  0
   -4.5505   25.2802  -22.5009 H   0  0  0  0  0  0  0  0  0  0  0  0
   -3.3206   24.0913  -21.7783 H   0  0  0  0  0  0  0  0  0  0  0  0
   -6.0559   25.1967  -14.1203 C   0  0  0  0  0  0  0  0  0  0  0  0
   -5.7385   24.5803  -15.4526 C   0  0  0  0  0  0  0  0  0  0  0  0
   -6.4797   24.6214  -16.5708 N   0  0  0  0  0  0  0  0  0  0  0  0
   -5.8790   23.9584  -17.5687 C   0  0  0  0  0  0  0  0  0  0  0  0
   -6.2167   23.7041  -18.9011 C   0  0  0  0  0  0  0  0  0  0  0  0
   -5.4081   22.9775  -19.7414 C   0  0  0  0  0  0  0  0  0  0  0  0
   -4.2226   22.5000  -19.2013 C   0  0  0  0  0  0  0  0  0  0  0  0
   -3.8695   22.7387  -17.8903 C   0  0  0  0  0  0  0  0  0  0  0  0
   -4.7038   23.4725  -17.0695 C   0  0  0  0  0  0  0  0  0  0  0  0
   -4.6455   23.8675  -15.7762 N   0  0  0  0  0  0  0  0  0  0  0  0
   -3.8444   23.6294  -15.1513 H   0  0  0  0  0  0  0  0  0  0  0  0
   -5.4748   23.1059  -24.7081 C   0  0  0  0  0  0  0  0  0  0  0  0
   -6.3706   23.5957  -25.4467 O   0  0  0  0  0  0  0  0  0  0  0  0
   -4.1518   22.9408  -25.3115 C   0  0  0  0  0  0  0  0  0  0  0  0
   -3.0022   22.6008  -24.7828 N   0  0  0  0  0  0  0  0  0  0  0  0
   -1.9264   22.5225  -25.5218 C   0  0  0  0  0  0  0  0  0  0  0  0
   -0.6360   22.1680  -25.0728 C   0  0  0  0  0  0  0  0  0  0  0  0
    0.3938   22.1259  -25.9504 C   0  0  0  0  0  0  0  0  0  0  0  0
    0.2933   22.4080  -27.2921 C   0  0  0  0  0  0  0  0  0  0  0  0
   -0.9703   22.7578  -27.7468 C   0  0  0  0  0  0  0  0  0  0  0  0
   -2.0573   22.8088  -26.8552 C   0  0  0  0  0  0  0  0  0  0  0  0
   -3.7268   23.1735  -26.9615 S   0  0  0  0  0  0  0  0  0  0  0  0
  9 10  1  0  0  0
 10 11  2  0  0  0
 11 12  1  0  0  0
 12 13  2  0  0  0
 13 14  1  0  0  0
 14 15  2  0  0  0
 15 16  1  0  0  0
 16 17  2  0  0  0
 17 18  1  0  0  0
 14  1  1  0  0  0
  1  2  1  0  0  0
  2  3  2  0  0  0
  3  4  1  0  0  0
  4 20  1  0  0  0
 20 21  2  0  0  0
 20 22  1  0  0  0
 22 23  2  0  0  0
 23 24  1  0  0  0
 24 25  2  0  0  0
 25 26  1  0  0  0
 26 27  2  0  0  0
 27 28  1  0  0  0
 28 29  2  0  0  0
 29 30  1  0  0  0
  4  5  2  0  0  0
  5  6  1  0  0  0
 18 10  1  0  0  0
  5  1  1  0  0  0
 17 12  1  0  0  0
 30 22  1  0  0  0
 29 24  1  0  0  0
 18 19  1  0  0  0
  6  7  1  0  0  0
  6  8  1  0  0  0
M  END
> <minimizedAffinity>
-8.32203

> <CNNscore>
0.0733666867

> <CNNaffinity>
5.4766464233

> <CNN_VS>
0.4018034041

> <CNNaffinity_variance>
0.0771152005

$$$$
[H]c1nn(-c2c([H])c([H])c3c(nc(C([H])([H])[H])n3[H])c2[H])c(N([H])[H])c1C(=O)c1nc2c([H])c([H])c([H])c([H])c2s1


 30 34  0  0  0  0  0  0  0  0999 V2000
   -7.8716   21.8947  -20.5084 N   0  0  0  0  0  0  0  0  0  0  0  0
   -7.8881   21.3286  -21.7117 N   0  0  0  0  0  0  0  0  0  0  0  0
   -6.9460   21.8268  -22.5059 C   0  0  0  0  0  0  0  0  0  0  0  0
   -6.2536   22.7964  -21.7744 C   0  0  0  0  0  0  0  0  0  0  0  0
   -6.8751   22.7893  -20.5469 C   0  0  0  0  0  0  0  0  0  0  0  0
   -6.5249   23.6270  -19.4273 N   0  0  0  0  0  0  0  0  0  0  0  0
   -6.6666   24.6536  -19.5289 H   0  0  0  0  0  0  0  0  0  0  0  0
   -6.1527   23.1359  -18.5904 H   0  0  0  0  0  0  0  0  0  0  0  0
  -10.8654   18.7485  -14.4936 C   0  0  0  0  0  0  0  0  0  0  0  0
  -10.4832   19.5600  -15.6983 C   0  0  0  0  0  0  0  0  0  0  0  0
   -9.4103   19.3970  -16.4881 N   0  0  0  0  0  0  0  0  0  0  0  0
   -9.3950   20.3090  -17.4701 C   0  0  0  0  0  0  0  0  0  0  0  0
   -8.5236   20.5727  -18.5307 C   0  0  0  0  0  0  0  0  0  0  0  0
   -8.7366   21.5947  -19.4241 C   0  0  0  0  0  0  0  0  0  0  0  0
   -9.8728   22.3656  -19.2246 C   0  0  0  0  0  0  0  0  0  0  0  0
  -10.7458   22.1236  -18.1855 C   0  0  0  0  0  0  0  0  0  0  0  0
  -10.5044   21.0886  -17.3030 C   0  0  0  0  0  0  0  0  0  0  0  0
  -11.1488   20.6081  -16.2140 N   0  0  0  0  0  0  0  0  0  0  0  0
  -12.0371   21.0239  -15.8574 H   0  0  0  0  0  0  0  0  0  0  0  0
   -5.1393   23.6241  -22.1862 C   0  0  0  0  0  0  0  0  0  0  0  0
   -4.7055   24.5382  -21.4350 O   0  0  0  0  0  0  0  0  0  0  0  0
   -4.4585   23.4596  -23.4712 C   0  0  0  0  0  0  0  0  0  0  0  0
   -3.3423   22.8469  -23.7804 N   0  0  0  0  0  0  0  0  0  0  0  0
   -2.9100   22.8331  -25.0143 C   0  0  0  0  0  0  0  0  0  0  0  0
   -1.7291   22.2099  -25.4721 C   0  0  0  0  0  0  0  0  0  0  0  0
   -1.3996   22.2736  -26.7836 C   0  0  0  0  0  0  0  0  0  0  0  0
   -2.1398   22.9152  -27.7482 C   0  0  0  0  0  0  0  0  0  0  0  0
   -3.3037   23.5319  -27.3114 C   0  0  0  0  0  0  0  0  0  0  0  0
   -3.6686   23.4803  -25.9538 C   0  0  0  0  0  0  0  0  0  0  0  0
   -4.9614   24.0697  -24.9984 S   0  0  0  0  0  0  0  0  0  0  0  0
  9 10  1  0  0  0
 10 11  2  0  0  0
 11 12  1  0  0  0
 12 13  2  0  0  0
 13 14  1  0  0  0
 14 15  2  0  0  0
 15 16  1  0  0  0
 16 17  2  0  0  0
 17 18  1  0  0  0
 14  1  1  0  0  0
  1  2  1  0  0  0
  2  3  2  0  0  0
  3  4  1  0  0  0
  4 20  1  0  0  0
 20 21  2  0  0  0
 20 22  1  0  0  0
 22 23  2  0  0  0
 23 24  1  0  0  0
 24 25  2  0  0  0
 25 26  1  0  0  0
 26 27  2  0  0  0
 27 28  1  0  0  0
 28 29  2  0  0  0
 29 30  1  0  0  0
  4  5  2  0  0  0
  5  6  1  0  0  0
 18 10  1  0  0  0
  5  1  1  0  0  0
 17 12  1  0  0  0
 30 22  1  0  0  0
 29 24  1  0  0  0
 18 19  1  0  0  0
  6  7  1  0  0  0
  6  8  1  0  0  0
M  END
> <minimizedAffinity>
-7.58217

> <CNNscore>
0.0693247244

> <CNNaffinity>
5.3561840057

> <CNN_VS>
0.3713159859

> <CNNaffinity_variance>
0.0445979312

$$$$
[H]c1c(F)c(OC([H])([H])[H])c(F)c(-c2c([H])c([H])c3c(N([H])C(=O)c4c([H])c([H])c(N5C([H])([H])C([H])([H])N(C([H])([H])C([H])([H])OC([H])([H])[H])C([H])([H])C5([H])[H])c([H])c4[H])nn([H])c3c2[H])c1F


 41 45  0  0  0  0  0  0  0  0999 V2000
   -0.9587   22.7082  -27.0789 C   0  0  0  0  0  0  0  0  0  0  0  0
    0.2746   23.2292  -27.1005 N   0  0  0  0  0  0  0  0  0  0  0  0
    0.8006   23.1980  -25.9062 N   0  0  0  0  0  0  0  0  0  0  0  0
   -0.0683   22.6536  -25.0457 C   0  0  0  0  0  0  0  0  0  0  0  0
   -0.0176   22.3969  -23.6667 C   0  0  0  0  0  0  0  0  0  0  0  0
   -1.0726   21.8241  -22.9874 C   0  0  0  0  0  0  0  0  0  0  0  0
   -2.1944   21.5067  -23.7208 C   0  0  0  0  0  0  0  0  0  0  0  0
   -2.2588   21.7549  -25.0859 C   0  0  0  0  0  0  0  0  0  0  0  0
   -1.1998   22.3265  -25.7464 C   0  0  0  0  0  0  0  0  0  0  0  0
    1.7557   23.5295  -25.5839 H   0  0  0  0  0  0  0  0  0  0  0  0
   -1.0129   21.5766  -21.5465 C   0  0  0  0  0  0  0  0  0  0  0  0
   -0.3798   20.4226  -21.0968 C   0  0  0  0  0  0  0  0  0  0  0  0
    0.1509   19.5925  -22.0215 F   0  0  0  0  0  0  0  0  0  0  0  0
   -0.2937   20.1262  -19.7431 C   0  0  0  0  0  0  0  0  0  0  0  0
   -0.8331   20.9657  -18.7931 C   0  0  0  0  0  0  0  0  0  0  0  0
   -0.7761   20.7220  -17.4620 F   0  0  0  0  0  0  0  0  0  0  0  0
   -1.4700   22.1260  -19.2386 C   0  0  0  0  0  0  0  0  0  0  0  0
   -1.5463   22.4052  -20.5884 C   0  0  0  0  0  0  0  0  0  0  0  0
   -2.1634   23.5306  -20.9998 F   0  0  0  0  0  0  0  0  0  0  0  0
   -2.0121   22.9663  -18.2637 O   0  0  0  0  0  0  0  0  0  0  0  0
   -3.3012   22.7629  -17.7699 C   0  0  0  0  0  0  0  0  0  0  0  0
   -3.2548   22.8490  -28.0294 C   0  0  0  0  0  0  0  0  0  0  0  0
   -3.9819   22.6528  -29.0822 O   0  0  0  0  0  0  0  0  0  0  0  0
   -1.9044   22.5058  -28.1224 N   0  0  0  0  0  0  0  0  0  0  0  0
   -1.5460   22.0957  -29.0474 H   0  0  0  0  0  0  0  0  0  0  0  0
   -5.2234   24.4697  -24.6218 C   0  0  0  0  0  0  0  0  0  0  0  0
   -5.5165   23.1661  -25.0448 C   0  0  0  0  0  0  0  0  0  0  0  0
   -4.8829   22.6599  -26.1602 C   0  0  0  0  0  0  0  0  0  0  0  0
   -3.9497   23.3953  -26.8982 C   0  0  0  0  0  0  0  0  0  0  0  0
   -3.6630   24.6773  -26.4820 C   0  0  0  0  0  0  0  0  0  0  0  0
   -4.3007   25.1700  -25.3699 C   0  0  0  0  0  0  0  0  0  0  0  0
   -7.4154   25.3172  -21.1700 N   0  0  0  0  0  0  0  0  0  0  0  0
   -6.0113   24.9828  -20.9858 C   0  0  0  0  0  0  0  0  0  0  0  0
   -5.1827   24.9660  -22.2113 C   0  0  0  0  0  0  0  0  0  0  0  0
   -5.8679   24.9964  -23.4610 N   0  0  0  0  0  0  0  0  0  0  0  0
   -7.1948   25.5399  -23.6103 C   0  0  0  0  0  0  0  0  0  0  0  0
   -7.5680   26.2205  -22.3112 C   0  0  0  0  0  0  0  0  0  0  0  0
   -8.1548   24.1096  -21.3429 C   0  0  0  0  0  0  0  0  0  0  0  0
   -7.8312   23.0180  -20.3766 C   0  0  0  0  0  0  0  0  0  0  0  0
   -7.1970   21.6365  -22.1890 C   0  0  0  0  0  0  0  0  0  0  0  0
   -7.2230   21.9309  -20.8713 O   0  0  0  0  0  0  0  0  0  0  0  0
 40 41  1  0  0  0
 41 39  1  0  0  0
 39 38  1  0  0  0
 38 32  1  0  0  0
 32 33  1  0  0  0
 33 34  1  0  0  0
 34 35  1  0  0  0
 35 36  1  0  0  0
 36 37  1  0  0  0
 35 26  1  0  0  0
 26 27  2  0  0  0
 27 28  1  0  0  0
 28 29  2  0  0  0
 29 30  1  0  0  0
 30 31  2  0  0  0
 29 22  1  0  0  0
 22 23  2  0  0  0
 22 24  1  0  0  0
 24  1  1  0  0  0
  1  2  2  0  0  0
  2  3  1  0  0  0
  3  4  1  0  0  0
  4  5  2  0  0  0
  5  6  1  0  0  0
  6  7  2  0  0  0
  7  8  1  0  0  0
  8  9  2  0  0  0
  6 11  1  0  0  0
 11 12  2  0  0  0
 12 13  1  0  0  0
 12 14  1  0  0  0
 14 15  2  0  0  0
 15 16  1  0  0  0
 15 17  1  0  0  0
 17 20  1  0  0  0
 20 21  1  0  0  0
 17 18  2  0  0  0
 18 19  1  0  0  0
 37 32  1  0  0  0
 31 26  1  0  0  0
  9  1  1  0  0  0
 18 11  1  0  0  0
  9  4  1  0  0  0
 24 25  1  0  0  0
  3 10  1  0  0  0
M  END
> <minimizedAffinity>
-8.63696

> <CNNscore>
0.3709327281

> <CNNaffinity>
7.2257056236

> <CNN_VS>
2.6802506447

> <CNNaffinity_variance>
0.1467526257

$$$$
[H]c1c(F)c(OC([H])([H])[H])c(F)c(-c2c([H])c([H])c3c(N([H])C(=O)c4c([H])c([H])c(N5C([H])([H])C([H])([H])N(C([H])([H])C([H])([H])OC([H])([H])[H])C([H])([H])C5([H])[H])c([H])c4[H])nn([H])c3c2[H])c1F


 41 45  0  0  0  0  0  0  0  0999 V2000
   -0.9721   22.7177  -26.9407 C   0  0  0  0  0  0  0  0  0  0  0  0
    0.2594   23.2384  -27.0130 N   0  0  0  0  0  0  0  0  0  0  0  0
    0.8525   23.1620  -25.8527 N   0  0  0  0  0  0  0  0  0  0  0  0
    0.0326   22.5861  -24.9651 C   0  0  0  0  0  0  0  0  0  0  0  0
    0.1610   22.2778  -23.6018 C   0  0  0  0  0  0  0  0  0  0  0  0
   -0.8551   21.6806  -22.8854 C   0  0  0  0  0  0  0  0  0  0  0  0
   -2.0178   21.3917  -23.5650 C   0  0  0  0  0  0  0  0  0  0  0  0
   -2.1592   21.6911  -24.9139 C   0  0  0  0  0  0  0  0  0  0  0  0
   -1.1380   22.2865  -25.6118 C   0  0  0  0  0  0  0  0  0  0  0  0
    1.8253   23.4804  -25.5733 H   0  0  0  0  0  0  0  0  0  0  0  0
   -0.7141   21.3790  -21.4606 C   0  0  0  0  0  0  0  0  0  0  0  0
   -1.0130   22.3765  -20.5382 C   0  0  0  0  0  0  0  0  0  0  0  0
   -1.4229   23.5732  -21.0132 F   0  0  0  0  0  0  0  0  0  0  0  0
   -0.8948   22.1568  -19.1724 C   0  0  0  0  0  0  0  0  0  0  0  0
   -0.4763   20.9404  -18.6788 C   0  0  0  0  0  0  0  0  0  0  0  0
   -0.3444   20.6761  -17.3570 F   0  0  0  0  0  0  0  0  0  0  0  0
   -0.1748   19.9351  -19.6001 C   0  0  0  0  0  0  0  0  0  0  0  0
   -0.2982   20.1707  -20.9547 C   0  0  0  0  0  0  0  0  0  0  0  0
   -0.0043   19.1879  -21.8291 F   0  0  0  0  0  0  0  0  0  0  0  0
    0.2486   18.7083  -19.0843 O   0  0  0  0  0  0  0  0  0  0  0  0
   -0.6503   17.6607  -18.8809 C   0  0  0  0  0  0  0  0  0  0  0  0
   -3.3189   22.8927  -27.7516 C   0  0  0  0  0  0  0  0  0  0  0  0
   -4.1054   22.7371  -28.7678 O   0  0  0  0  0  0  0  0  0  0  0  0
   -1.9764   22.5554  -27.9354 N   0  0  0  0  0  0  0  0  0  0  0  0
   -1.6719   22.1827  -28.8949 H   0  0  0  0  0  0  0  0  0  0  0  0
   -5.2746   24.3783  -24.2757 C   0  0  0  0  0  0  0  0  0  0  0  0
   -4.3304   25.1726  -24.9404 C   0  0  0  0  0  0  0  0  0  0  0  0
   -3.6927   24.6718  -26.0559 C   0  0  0  0  0  0  0  0  0  0  0  0
   -3.9473   23.3929  -26.5616 C   0  0  0  0  0  0  0  0  0  0  0  0
   -4.8752   22.6125  -25.9068 C   0  0  0  0  0  0  0  0  0  0  0  0
   -5.5034   23.1224  -24.7970 C   0  0  0  0  0  0  0  0  0  0  0  0
   -7.5418   25.1927  -20.8647 N   0  0  0  0  0  0  0  0  0  0  0  0
   -6.1383   24.8715  -20.6541 C   0  0  0  0  0  0  0  0  0  0  0  0
   -5.2859   24.8670  -21.8633 C   0  0  0  0  0  0  0  0  0  0  0  0
   -5.9468   24.8948  -23.1260 N   0  0  0  0  0  0  0  0  0  0  0  0
   -7.2758   25.4256  -23.2995 C   0  0  0  0  0  0  0  0  0  0  0  0
   -7.6810   26.0983  -22.0059 C   0  0  0  0  0  0  0  0  0  0  0  0
   -8.2656   23.9785  -21.0558 C   0  0  0  0  0  0  0  0  0  0  0  0
   -9.4014   23.7561  -20.1119 C   0  0  0  0  0  0  0  0  0  0  0  0
  -11.4064   24.8943  -19.5831 C   0  0  0  0  0  0  0  0  0  0  0  0
  -10.0612   24.8438  -19.6902 O   0  0  0  0  0  0  0  0  0  0  0  0
 40 41  1  0  0  0
 41 39  1  0  0  0
 39 38  1  0  0  0
 38 32  1  0  0  0
 32 33  1  0  0  0
 33 34  1  0  0  0
 34 35  1  0  0  0
 35 36  1  0  0  0
 36 37  1  0  0  0
 35 26  1  0  0  0
 26 27  2  0  0  0
 27 28  1  0  0  0
 28 29  2  0  0  0
 29 30  1  0  0  0
 30 31  2  0  0  0
 29 22  1  0  0  0
 22 23  2  0  0  0
 22 24  1  0  0  0
 24  1  1  0  0  0
  1  2  2  0  0  0
  2  3  1  0  0  0
  3  4  1  0  0  0
  4  5  2  0  0  0
  5  6  1  0  0  0
  6  7  2  0  0  0
  7  8  1  0  0  0
  8  9  2  0  0  0
  6 11  1  0  0  0
 11 12  2  0  0  0
 12 13  1  0  0  0
 12 14  1  0  0  0
 14 15  2  0  0  0
 15 16  1  0  0  0
 15 17  1  0  0  0
 17 20  1  0  0  0
 20 21  1  0  0  0
 17 18  2  0  0  0
 18 19  1  0  0  0
 37 32  1  0  0  0
 31 26  1  0  0  0
  9  1  1  0  0  0
 18 11  1  0  0  0
  9  4  1  0  0  0
 24 25  1  0  0  0
  3 10  1  0  0  0
M  END
> <minimizedAffinity>
-8.76109

> <CNNscore>
0.3346054852

> <CNNaffinity>
7.2259111404

> <CNN_VS>
2.4178295135

> <CNNaffinity_variance>
0.0732181594

$$$$
[H]c1c(F)c(OC([H])([H])[H])c(F)c(-c2c([H])c([H])c3c(N([H])C(=O)c4c([H])c([H])c(N5C([H])([H])C([H])([H])N(C([H])([H])C([H])([H])OC([H])([H])[H])C([H])([H])C5([H])[H])c([H])c4[H])nn([H])c3c2[H])c1F


 41 45  0  0  0  0  0  0  0  0999 V2000
   -1.0309   22.7128  -26.5188 C   0  0  0  0  0  0  0  0  0  0  0  0
    0.2007   23.2369  -26.5584 N   0  0  0  0  0  0  0  0  0  0  0  0
    0.7993   23.0748  -25.4098 N   0  0  0  0  0  0  0  0  0  0  0  0
   -0.0169   22.4355  -24.5631 C   0  0  0  0  0  0  0  0  0  0  0  0
    0.1178   22.0273  -23.2269 C   0  0  0  0  0  0  0  0  0  0  0  0
   -0.8953   21.3793  -22.5517 C   0  0  0  0  0  0  0  0  0  0  0  0
   -2.0615   21.1418  -23.2450 C   0  0  0  0  0  0  0  0  0  0  0  0
   -2.2090   21.5400  -24.5675 C   0  0  0  0  0  0  0  0  0  0  0  0
   -1.1907   22.1848  -25.2245 C   0  0  0  0  0  0  0  0  0  0  0  0
    1.7737   23.3714  -25.1123 H   0  0  0  0  0  0  0  0  0  0  0  0
   -0.7477   20.9734  -21.1536 C   0  0  0  0  0  0  0  0  0  0  0  0
   -0.1044   19.7719  -20.8755 C   0  0  0  0  0  0  0  0  0  0  0  0
    0.3541   19.0452  -21.9184 F   0  0  0  0  0  0  0  0  0  0  0  0
    0.0633   19.3269  -19.5711 C   0  0  0  0  0  0  0  0  0  0  0  0
   -0.4021   20.0602  -18.5015 C   0  0  0  0  0  0  0  0  0  0  0  0
   -0.2641   19.6703  -17.2118 F   0  0  0  0  0  0  0  0  0  0  0  0
   -1.0488   21.2675  -18.7745 C   0  0  0  0  0  0  0  0  0  0  0  0
   -1.2067   21.6950  -20.0776 C   0  0  0  0  0  0  0  0  0  0  0  0
   -1.8321   22.8637  -20.3219 F   0  0  0  0  0  0  0  0  0  0  0  0
   -1.5154   21.9988  -17.6800 O   0  0  0  0  0  0  0  0  0  0  0  0
   -2.8466   21.9162  -17.2701 C   0  0  0  0  0  0  0  0  0  0  0  0
   -3.3967   22.8537  -27.2793 C   0  0  0  0  0  0  0  0  0  0  0  0
   -4.1892   22.7882  -28.3007 O   0  0  0  0  0  0  0  0  0  0  0  0
   -2.0400   22.6248  -27.5178 N   0  0  0  0  0  0  0  0  0  0  0  0
   -1.7300   22.4021  -28.5211 H   0  0  0  0  0  0  0  0  0  0  0  0
   -5.3789   23.7433  -23.6196 C   0  0  0  0  0  0  0  0  0  0  0  0
   -4.4934   24.6741  -24.1798 C   0  0  0  0  0  0  0  0  0  0  0  0
   -3.8458   24.3655  -25.3576 C   0  0  0  0  0  0  0  0  0  0  0  0
   -4.0337   23.1524  -26.0280 C   0  0  0  0  0  0  0  0  0  0  0  0
   -4.9039   22.2376  -25.4758 C   0  0  0  0  0  0  0  0  0  0  0  0
   -5.5426   22.5566  -24.3026 C   0  0  0  0  0  0  0  0  0  0  0  0
   -7.7294   25.1966  -20.4891 N   0  0  0  0  0  0  0  0  0  0  0  0
   -8.1986   23.9889  -21.1512 C   0  0  0  0  0  0  0  0  0  0  0  0
   -7.2308   23.3263  -22.0529 C   0  0  0  0  0  0  0  0  0  0  0  0
   -6.0612   24.0609  -22.4056 N   0  0  0  0  0  0  0  0  0  0  0  0
   -5.5284   25.1203  -21.5859 C   0  0  0  0  0  0  0  0  0  0  0  0
   -6.2839   25.1191  -20.2746 C   0  0  0  0  0  0  0  0  0  0  0  0
   -8.0911   26.3245  -21.2840 C   0  0  0  0  0  0  0  0  0  0  0  0
   -9.1364   27.2134  -20.6945 C   0  0  0  0  0  0  0  0  0  0  0  0
  -10.9533   26.6190  -22.0878 C   0  0  0  0  0  0  0  0  0  0  0  0
  -10.1708   27.5382  -21.4825 O   0  0  0  0  0  0  0  0  0  0  0  0
 40 41  1  0  0  0
 41 39  1  0  0  0
 39 38  1  0  0  0
 38 32  1  0  0  0
 32 33  1  0  0  0
 33 34  1  0  0  0
 34 35  1  0  0  0
 35 36  1  0  0  0
 36 37  1  0  0  0
 35 26  1  0  0  0
 26 27  2  0  0  0
 27 28  1  0  0  0
 28 29  2  0  0  0
 29 30  1  0  0  0
 30 31  2  0  0  0
 29 22  1  0  0  0
 22 23  2  0  0  0
 22 24  1  0  0  0
 24  1  1  0  0  0
  1  2  2  0  0  0
  2  3  1  0  0  0
  3  4  1  0  0  0
  4  5  2  0  0  0
  5  6  1  0  0  0
  6  7  2  0  0  0
  7  8  1  0  0  0
  8  9  2  0  0  0
  6 11  1  0  0  0
 11 12  2  0  0  0
 12 13  1  0  0  0
 12 14  1  0  0  0
 14 15  2  0  0  0
 15 16  1  0  0  0
 15 17  1  0  0  0
 17 20  1  0  0  0
 20 21  1  0  0  0
 17 18  2  0  0  0
 18 19  1  0  0  0
 37 32  1  0  0  0
 31 26  1  0  0  0
  9  1  1  0  0  0
 18 11  1  0  0  0
  9  4  1  0  0  0
 24 25  1  0  0  0
  3 10  1  0  0  0
M  END
> <minimizedAffinity>
-8.06181

> <CNNscore>
0.2512752414

> <CNNaffinity>
6.9448561668

> <CNN_VS>
1.7450704575

> <CNNaffinity_variance>
0.1598279476

$$$$
[H]c1c(F)c(OC([H])([H])[H])c(F)c(-c2c([H])c([H])c3c(N([H])C(=O)c4c([H])c([H])c(N5C([H])([H])C([H])([H])N(C([H])([H])C([H])([H])OC([H])([H])[H])C([H])([H])C5([H])[H])c([H])c4[H])nn([H])c3c2[H])c1F


 41 45  0  0  0  0  0  0  0  0999 V2000
    0.2352   21.0244  -21.8440 C   0  0  0  0  0  0  0  0  0  0  0  0
   -0.8447   20.7772  -21.0919 N   0  0  0  0  0  0  0  0  0  0  0  0
   -1.9309   21.1057  -21.7369 N   0  0  0  0  0  0  0  0  0  0  0  0
   -1.6097   21.5852  -22.9447 C   0  0  0  0  0  0  0  0  0  0  0  0
   -2.3736   22.0814  -24.0126 C   0  0  0  0  0  0  0  0  0  0  0  0
   -1.7954   22.5397  -25.1779 C   0  0  0  0  0  0  0  0  0  0  0  0
   -0.4213   22.4917  -25.2592 C   0  0  0  0  0  0  0  0  0  0  0  0
    0.3474   22.0033  -24.2105 C   0  0  0  0  0  0  0  0  0  0  0  0
   -0.2443   21.5518  -23.0571 C   0  0  0  0  0  0  0  0  0  0  0  0
   -2.9433   21.0360  -21.4270 H   0  0  0  0  0  0  0  0  0  0  0  0
   -2.6025   23.0697  -26.2774 C   0  0  0  0  0  0  0  0  0  0  0  0
   -2.4578   22.5037  -27.5399 C   0  0  0  0  0  0  0  0  0  0  0  0
   -1.5777   21.4880  -27.6792 F   0  0  0  0  0  0  0  0  0  0  0  0
   -3.1896   22.9638  -28.6263 C   0  0  0  0  0  0  0  0  0  0  0  0
   -4.0882   23.9999  -28.4943 C   0  0  0  0  0  0  0  0  0  0  0  0
   -4.8251   24.4851  -29.5219 F   0  0  0  0  0  0  0  0  0  0  0  0
   -4.2378   24.5720  -27.2292 C   0  0  0  0  0  0  0  0  0  0  0  0
   -3.5022   24.1020  -26.1597 C   0  0  0  0  0  0  0  0  0  0  0  0
   -3.6610   24.6654  -24.9457 F   0  0  0  0  0  0  0  0  0  0  0  0
   -5.1517   25.6215  -27.1116 O   0  0  0  0  0  0  0  0  0  0  0  0
   -6.4736   25.3895  -26.7302 C   0  0  0  0  0  0  0  0  0  0  0  0
    2.1288   19.6925  -20.9299 C   0  0  0  0  0  0  0  0  0  0  0  0
    3.4161   19.6156  -20.8177 O   0  0  0  0  0  0  0  0  0  0  0  0
    1.6187   20.8135  -21.5880 N   0  0  0  0  0  0  0  0  0  0  0  0
    2.3111   21.5470  -21.9552 H   0  0  0  0  0  0  0  0  0  0  0  0
    0.0419   16.4400  -19.1466 C   0  0  0  0  0  0  0  0  0  0  0  0
    0.4602   16.3551  -20.4816 C   0  0  0  0  0  0  0  0  0  0  0  0
    1.1210   17.4232  -21.0511 C   0  0  0  0  0  0  0  0  0  0  0  0
    1.3972   18.6017  -20.3503 C   0  0  0  0  0  0  0  0  0  0  0  0
    0.9847   18.6845  -19.0381 C   0  0  0  0  0  0  0  0  0  0  0  0
    0.3275   17.6142  -18.4824 C   0  0  0  0  0  0  0  0  0  0  0  0
   -2.5578   13.5101  -17.6992 N   0  0  0  0  0  0  0  0  0  0  0  0
   -1.8206   13.1872  -18.9115 C   0  0  0  0  0  0  0  0  0  0  0  0
   -0.7055   14.0973  -19.2537 C   0  0  0  0  0  0  0  0  0  0  0  0
   -0.6335   15.3333  -18.5472 N   0  0  0  0  0  0  0  0  0  0  0  0
   -1.2160   15.5210  -17.2420 C   0  0  0  0  0  0  0  0  0  0  0  0
   -1.6735   14.1695  -16.7376 C   0  0  0  0  0  0  0  0  0  0  0  0
   -3.6735   14.3285  -18.0462 C   0  0  0  0  0  0  0  0  0  0  0  0
   -4.4182   13.9083  -19.2706 C   0  0  0  0  0  0  0  0  0  0  0  0
   -6.0518   14.7867  -20.7388 C   0  0  0  0  0  0  0  0  0  0  0  0
   -4.8892   14.8848  -20.0588 O   0  0  0  0  0  0  0  0  0  0  0  0
 40 41  1  0  0  0
 41 39  1  0  0  0
 39 38  1  0  0  0
 38 32  1  0  0  0
 32 33  1  0  0  0
 33 34  1  0  0  0
 34 35  1  0  0  0
 35 36  1  0  0  0
 36 37  1  0  0  0
 35 26  1  0  0  0
 26 27  2  0  0  0
 27 28  1  0  0  0
 28 29  2  0  0  0
 29 30  1  0  0  0
 30 31  2  0  0  0
 29 22  1  0  0  0
 22 23  2  0  0  0
 22 24  1  0  0  0
 24  1  1  0  0  0
  1  2  2  0  0  0
  2  3  1  0  0  0
  3  4  1  0  0  0
  4  5  2  0  0  0
  5  6  1  0  0  0
  6  7  2  0  0  0
  7  8  1  0  0  0
  8  9  2  0  0  0
  6 11  1  0  0  0
 11 12  2  0  0  0
 12 13  1  0  0  0
 12 14  1  0  0  0
 14 15  2  0  0  0
 15 16  1  0  0  0
 15 17  1  0  0  0
 17 20  1  0  0  0
 20 21  1  0  0  0
 17 18  2  0  0  0
 18 19  1  0  0  0
 37 32  1  0  0  0
 31 26  1  0  0  0
  9  1  1  0  0  0
 18 11  1  0  0  0
  9  4  1  0  0  0
 24 25  1  0  0  0
  3 10  1  0  0  0
M  END
> <minimizedAffinity>
-7.88775

> <CNNscore>
0.1233794466

> <CNNaffinity>
6.2702331543

> <CNN_VS>
0.7736179233

> <CNNaffinity_variance>
0.1026094556

$$$$
[H]c1c(F)c(OC([H])([H])[H])c(F)c(-c2c([H])c([H])c3c(N([H])C(=O)c4c([H])c([H])c(N5C([H])([H])C([H])([H])N(C([H])([H])C([H])([H])OC([H])([H])[H])C([H])([H])C5([H])[H])c([H])c4[H])nn([H])c3c2[H])c1F


 41 45  0  0  0  0  0  0  0  0999 V2000
    0.9059   20.7567  -21.9227 C   0  0  0  0  0  0  0  0  0  0  0  0
   -0.0335   20.4321  -21.0254 N   0  0  0  0  0  0  0  0  0  0  0  0
   -1.2146   20.7777  -21.4607 N   0  0  0  0  0  0  0  0  0  0  0  0
   -1.1010   21.3469  -22.6669 C   0  0  0  0  0  0  0  0  0  0  0  0
   -2.0352   21.8967  -23.5585 C   0  0  0  0  0  0  0  0  0  0  0  0
   -1.6610   22.4481  -24.7661 C   0  0  0  0  0  0  0  0  0  0  0  0
   -0.3181   22.4393  -25.0721 C   0  0  0  0  0  0  0  0  0  0  0  0
    0.6177   21.8986  -24.1995 C   0  0  0  0  0  0  0  0  0  0  0  0
    0.2281   21.3545  -23.0010 C   0  0  0  0  0  0  0  0  0  0  0  0
   -2.1618   20.6622  -20.9967 H   0  0  0  0  0  0  0  0  0  0  0  0
   -2.6434   23.0327  -25.6794 C   0  0  0  0  0  0  0  0  0  0  0  0
   -2.7086   22.5494  -26.9822 C   0  0  0  0  0  0  0  0  0  0  0  0
   -1.8584   21.5589  -27.3313 F   0  0  0  0  0  0  0  0  0  0  0  0
   -3.6143   23.0647  -27.8997 C   0  0  0  0  0  0  0  0  0  0  0  0
   -4.4839   24.0757  -27.5534 C   0  0  0  0  0  0  0  0  0  0  0  0
   -5.3850   24.6122  -28.4105 F   0  0  0  0  0  0  0  0  0  0  0  0
   -4.4232   24.5649  -26.2467 C   0  0  0  0  0  0  0  0  0  0  0  0
   -3.5166   24.0408  -25.3473 C   0  0  0  0  0  0  0  0  0  0  0  0
   -3.4734   24.5243  -24.0899 F   0  0  0  0  0  0  0  0  0  0  0  0
   -5.3105   25.5899  -25.9113 O   0  0  0  0  0  0  0  0  0  0  0  0
   -6.5570   25.3118  -25.3493 C   0  0  0  0  0  0  0  0  0  0  0  0
    3.1091   20.6796  -20.7672 C   0  0  0  0  0  0  0  0  0  0  0  0
    4.3703   20.4209  -20.9021 O   0  0  0  0  0  0  0  0  0  0  0  0
    2.3153   20.5624  -21.9099 N   0  0  0  0  0  0  0  0  0  0  0  0
    2.7871   20.2749  -22.8302 H   0  0  0  0  0  0  0  0  0  0  0  0
    1.9968   21.8312  -16.8237 C   0  0  0  0  0  0  0  0  0  0  0  0
    1.9128   20.4865  -17.2098 C   0  0  0  0  0  0  0  0  0  0  0  0
    2.2610   20.1304  -18.4957 C   0  0  0  0  0  0  0  0  0  0  0  0
    2.6999   21.0595  -19.4446 C   0  0  0  0  0  0  0  0  0  0  0  0
    2.7813   22.3815  -19.0643 C   0  0  0  0  0  0  0  0  0  0  0  0
    2.4316   22.7235  -17.7810 C   0  0  0  0  0  0  0  0  0  0  0  0
    1.4968   22.4108  -12.7187 N   0  0  0  0  0  0  0  0  0  0  0  0
    2.3500   23.3632  -13.4131 C   0  0  0  0  0  0  0  0  0  0  0  0
    2.2942   23.3259  -14.8910 C   0  0  0  0  0  0  0  0  0  0  0  0
    1.6480   22.2054  -15.4902 N   0  0  0  0  0  0  0  0  0  0  0  0
    0.6480   21.4240  -14.8065 C   0  0  0  0  0  0  0  0  0  0  0  0
    0.3015   22.1366  -13.5172 C   0  0  0  0  0  0  0  0  0  0  0  0
    2.2486   21.2265  -12.4597 C   0  0  0  0  0  0  0  0  0  0  0  0
    1.7845   20.4168  -11.2939 C   0  0  0  0  0  0  0  0  0  0  0  0
    2.8420   18.6578  -10.1177 C   0  0  0  0  0  0  0  0  0  0  0  0
    2.7283   19.9594  -10.4592 O   0  0  0  0  0  0  0  0  0  0  0  0
 40 41  1  0  0  0
 41 39  1  0  0  0
 39 38  1  0  0  0
 38 32  1  0  0  0
 32 33  1  0  0  0
 33 34  1  0  0  0
 34 35  1  0  0  0
 35 36  1  0  0  0
 36 37  1  0  0  0
 35 26  1  0  0  0
 26 27  2  0  0  0
 27 28  1  0  0  0
 28 29  2  0  0  0
 29 30  1  0  0  0
 30 31  2  0  0  0
 29 22  1  0  0  0
 22 23  2  0  0  0
 22 24  1  0  0  0
 24  1  1  0  0  0
  1  2  2  0  0  0
  2  3  1  0  0  0
  3  4  1  0  0  0
  4  5  2  0  0  0
  5  6  1  0  0  0
  6  7  2  0  0  0
  7  8  1  0  0  0
  8  9  2  0  0  0
  6 11  1  0  0  0
 11 12  2  0  0  0
 12 13  1  0  0  0
 12 14  1  0  0  0
 14 15  2  0  0  0
 15 16  1  0  0  0
 15 17  1  0  0  0
 17 20  1  0  0  0
 20 21  1  0  0  0
 17 18  2  0  0  0
 18 19  1  0  0  0
 37 32  1  0  0  0
 31 26  1  0  0  0
  9  1  1  0  0  0
 18 11  1  0  0  0
  9  4  1  0  0  0
 24 25  1  0  0  0
  3 10  1  0  0  0
M  END
> <minimizedAffinity>
-7.57214

> <CNNscore>
0.1197934970

> <CNNaffinity>
6.0950474739

> <CNN_VS>
0.7301470637

> <CNNaffinity_variance>
0.1868756711

$$$$
[H]c1c(F)c(OC([H])([H])[H])c(F)c(-c2c([H])c([H])c3c(N([H])C(=O)c4c([H])c([H])c(N5C([H])([H])C([H])([H])N(C([H])([H])C([H])([H])OC([H])([H])[H])C([H])([H])C5([H])[H])c([H])c4[H])nn([H])c3c2[H])c1F


 41 45  0  0  0  0  0  0  0  0999 V2000
   -4.1371   24.1970  -25.1218 C   0  0  0  0  0  0  0  0  0  0  0  0
   -3.7699   25.3253  -24.5012 N   0  0  0  0  0  0  0  0  0  0  0  0
   -4.3933   25.4381  -23.3599 N   0  0  0  0  0  0  0  0  0  0  0  0
   -5.2003   24.3851  -23.1817 C   0  0  0  0  0  0  0  0  0  0  0  0
   -6.0854   24.0193  -22.1556 C   0  0  0  0  0  0  0  0  0  0  0  0
   -6.8334   22.8617  -22.2095 C   0  0  0  0  0  0  0  0  0  0  0  0
   -6.6785   22.0642  -23.3217 C   0  0  0  0  0  0  0  0  0  0  0  0
   -5.8063   22.4135  -24.3448 C   0  0  0  0  0  0  0  0  0  0  0  0
   -5.0699   23.5698  -24.2756 C   0  0  0  0  0  0  0  0  0  0  0  0
   -4.3284   26.2076  -22.6322 H   0  0  0  0  0  0  0  0  0  0  0  0
   -7.7646   22.5001  -21.1403 C   0  0  0  0  0  0  0  0  0  0  0  0
   -8.9505   23.2176  -21.0220 C   0  0  0  0  0  0  0  0  0  0  0  0
   -9.1783   24.2112  -21.9089 F   0  0  0  0  0  0  0  0  0  0  0  0
   -9.8738   22.9285  -20.0262 C   0  0  0  0  0  0  0  0  0  0  0  0
   -9.6495   21.9183  -19.1165 C   0  0  0  0  0  0  0  0  0  0  0  0
  -10.5175   21.5973  -18.1275 F   0  0  0  0  0  0  0  0  0  0  0  0
   -8.4607   21.1944  -19.2304 C   0  0  0  0  0  0  0  0  0  0  0  0
   -7.5537   21.4952  -20.2267 C   0  0  0  0  0  0  0  0  0  0  0  0
   -6.4123   20.7847  -20.3223 F   0  0  0  0  0  0  0  0  0  0  0  0
   -8.2476   20.1743  -18.3006 O   0  0  0  0  0  0  0  0  0  0  0  0
   -7.4450   20.3763  -17.1773 C   0  0  0  0  0  0  0  0  0  0  0  0
   -2.5978   22.8167  -26.5078 C   0  0  0  0  0  0  0  0  0  0  0  0
   -2.3750   22.3369  -27.6892 O   0  0  0  0  0  0  0  0  0  0  0  0
   -3.7196   23.6351  -26.3604 N   0  0  0  0  0  0  0  0  0  0  0  0
   -4.3266   23.8271  -27.2247 H   0  0  0  0  0  0  0  0  0  0  0  0
    0.2603   21.6144  -23.5923 C   0  0  0  0  0  0  0  0  0  0  0  0
   -1.1093   21.4812  -23.3259 C   0  0  0  0  0  0  0  0  0  0  0  0
   -2.0241   21.8900  -24.2734 C   0  0  0  0  0  0  0  0  0  0  0  0
   -1.6448   22.4379  -25.5031 C   0  0  0  0  0  0  0  0  0  0  0  0
   -0.2980   22.5693  -25.7637 C   0  0  0  0  0  0  0  0  0  0  0  0
    0.6031   22.1587  -24.8120 C   0  0  0  0  0  0  0  0  0  0  0  0
    2.7958   19.6552  -20.9146 N   0  0  0  0  0  0  0  0  0  0  0  0
    3.3662   20.0268  -22.2005 C   0  0  0  0  0  0  0  0  0  0  0  0
    2.5632   20.9605  -23.0204 C   0  0  0  0  0  0  0  0  0  0  0  0
    1.2133   21.1830  -22.6198 N   0  0  0  0  0  0  0  0  0  0  0  0
    0.7598   20.9915  -21.2649 C   0  0  0  0  0  0  0  0  0  0  0  0
    1.9758   20.7511  -20.3966 C   0  0  0  0  0  0  0  0  0  0  0  0
    2.0414   18.4555  -21.0778 C   0  0  0  0  0  0  0  0  0  0  0  0
    2.8291   17.2566  -21.4931 C   0  0  0  0  0  0  0  0  0  0  0  0
    3.0835   15.9862  -19.5139 C   0  0  0  0  0  0  0  0  0  0  0  0
    3.5928   16.6785  -20.5556 O   0  0  0  0  0  0  0  0  0  0  0  0
 40 41  1  0  0  0
 41 39  1  0  0  0
 39 38  1  0  0  0
 38 32  1  0  0  0
 32 33  1  0  0  0
 33 34  1  0  0  0
 34 35  1  0  0  0
 35 36  1  0  0  0
 36 37  1  0  0  0
 35 26  1  0  0  0
 26 27  2  0  0  0
 27 28  1  0  0  0
 28 29  2  0  0  0
 29 30  1  0  0  0
 30 31  2  0  0  0
 29 22  1  0  0  0
 22 23  2  0  0  0
 22 24  1  0  0  0
 24  1  1  0  0  0
  1  2  2  0  0  0
  2  3  1  0  0  0
  3  4  1  0  0  0
  4  5  2  0  0  0
  5  6  1  0  0  0
  6  7  2  0  0  0
  7  8  1  0  0  0
  8  9  2  0  0  0
  6 11  1  0  0  0
 11 12  2  0  0  0
 12 13  1  0  0  0
 12 14  1  0  0  0
 14 15  2  0  0  0
 15 16  1  0  0  0
 15 17  1  0  0  0
 17 20  1  0  0  0
 20 21  1  0  0  0
 17 18  2  0  0  0
 18 19  1  0  0  0
 37 32  1  0  0  0
 31 26  1  0  0  0
  9  1  1  0  0  0
 18 11  1  0  0  0
  9  4  1  0  0  0
 24 25  1  0  0  0
  3 10  1  0  0  0
M  END
> <minimizedAffinity>
-8.34125

> <CNNscore>
0.0771998093

> <CNNaffinity>
6.1995105743

> <CNN_VS>
0.4786010385

> <CNNaffinity_variance>
0.1777244806

$$$$
[H]c1c(F)c(OC([H])([H])[H])c(F)c(-c2c([H])c([H])c3c(N([H])C(=O)c4c([H])c([H])c(N5C([H])([H])C([H])([H])N(C([H])([H])C([H])([H])OC([H])([H])[H])C([H])([H])C5([H])[H])c([H])c4[H])nn([H])c3c2[H])c1F


 41 45  0  0  0  0  0  0  0  0999 V2000
   -6.6687   23.1761  -20.7589 C   0  0  0  0  0  0  0  0  0  0  0  0
   -7.5157   22.1984  -21.1048 N   0  0  0  0  0  0  0  0  0  0  0  0
   -7.2583   21.7832  -22.3153 N   0  0  0  0  0  0  0  0  0  0  0  0
   -6.2277   22.4736  -22.8185 C   0  0  0  0  0  0  0  0  0  0  0  0
   -5.5644   22.4398  -24.0550 C   0  0  0  0  0  0  0  0  0  0  0  0
   -4.5111   23.2812  -24.3462 C   0  0  0  0  0  0  0  0  0  0  0  0
   -4.1259   24.1688  -23.3659 C   0  0  0  0  0  0  0  0  0  0  0  0
   -4.7729   24.2135  -22.1376 C   0  0  0  0  0  0  0  0  0  0  0  0
   -5.8203   23.3693  -21.8645 C   0  0  0  0  0  0  0  0  0  0  0  0
   -7.7394   21.0263  -22.8824 H   0  0  0  0  0  0  0  0  0  0  0  0
   -3.8386   23.2467  -25.6453 C   0  0  0  0  0  0  0  0  0  0  0  0
   -2.7302   22.4202  -25.7973 C   0  0  0  0  0  0  0  0  0  0  0  0
   -2.3373   21.6886  -24.7314 F   0  0  0  0  0  0  0  0  0  0  0  0
   -2.0441   22.3456  -27.0020 C   0  0  0  0  0  0  0  0  0  0  0  0
   -2.4363   23.0889  -28.0938 C   0  0  0  0  0  0  0  0  0  0  0  0
   -1.8013   23.0521  -29.2896 F   0  0  0  0  0  0  0  0  0  0  0  0
   -3.5486   23.9205  -27.9473 C   0  0  0  0  0  0  0  0  0  0  0  0
   -4.2192   23.9823  -26.7422 C   0  0  0  0  0  0  0  0  0  0  0  0
   -5.2917   24.7894  -26.6197 F   0  0  0  0  0  0  0  0  0  0  0  0
   -3.9332   24.6679  -29.0626 O   0  0  0  0  0  0  0  0  0  0  0  0
   -5.0364   24.3001  -29.8337 C   0  0  0  0  0  0  0  0  0  0  0  0
   -6.9327   23.4379  -18.2978 C   0  0  0  0  0  0  0  0  0  0  0  0
   -6.7042   24.2060  -17.2812 O   0  0  0  0  0  0  0  0  0  0  0  0
   -6.5407   23.9154  -19.5501 N   0  0  0  0  0  0  0  0  0  0  0  0
   -6.0831   24.8849  -19.6048 H   0  0  0  0  0  0  0  0  0  0  0  0
   -8.8522   19.7743  -17.2940 C   0  0  0  0  0  0  0  0  0  0  0  0
   -7.4544   19.8315  -17.3783 C   0  0  0  0  0  0  0  0  0  0  0  0
   -6.8469   21.0214  -17.7205 C   0  0  0  0  0  0  0  0  0  0  0  0
   -7.5691   22.1883  -17.9904 C   0  0  0  0  0  0  0  0  0  0  0  0
   -8.9435   22.1308  -17.9081 C   0  0  0  0  0  0  0  0  0  0  0  0
   -9.5365   20.9400  -17.5665 C   0  0  0  0  0  0  0  0  0  0  0  0
  -10.4255   16.3281  -15.5374 N   0  0  0  0  0  0  0  0  0  0  0  0
  -11.3269   17.4626  -15.6703 C   0  0  0  0  0  0  0  0  0  0  0  0
  -10.8584   18.5643  -16.5396 C   0  0  0  0  0  0  0  0  0  0  0  0
   -9.4874   18.5480  -16.9295 N   0  0  0  0  0  0  0  0  0  0  0  0
   -8.7032   17.3392  -16.9743 C   0  0  0  0  0  0  0  0  0  0  0  0
   -9.6390   16.1691  -16.7612 C   0  0  0  0  0  0  0  0  0  0  0  0
   -9.5975   16.5327  -14.3939 C   0  0  0  0  0  0  0  0  0  0  0  0
  -10.3041   17.0210  -13.1722 C   0  0  0  0  0  0  0  0  0  0  0  0
  -10.5404   18.9687  -11.8508 C   0  0  0  0  0  0  0  0  0  0  0  0
   -9.7925   18.1020  -12.5672 O   0  0  0  0  0  0  0  0  0  0  0  0
 40 41  1  0  0  0
 41 39  1  0  0  0
 39 38  1  0  0  0
 38 32  1  0  0  0
 32 33  1  0  0  0
 33 34  1  0  0  0
 34 35  1  0  0  0
 35 36  1  0  0  0
 36 37  1  0  0  0
 35 26  1  0  0  0
 26 27  2  0  0  0
 27 28  1  0  0  0
 28 29  2  0  0  0
 29 30  1  0  0  0
 30 31  2  0  0  0
 29 22  1  0  0  0
 22 23  2  0  0  0
 22 24  1  0  0  0
 24  1  1  0  0  0
  1  2  2  0  0  0
  2  3  1  0  0  0
  3  4  1  0  0  0
  4  5  2  0  0  0
  5  6  1  0  0  0
  6  7  2  0  0  0
  7  8  1  0  0  0
  8  9  2  0  0  0
  6 11  1  0  0  0
 11 12  2  0  0  0
 12 13  1  0  0  0
 12 14  1  0  0  0
 14 15  2  0  0  0
 15 16  1  0  0  0
 15 17  1  0  0  0
 17 20  1  0  0  0
 20 21  1  0  0  0
 17 18  2  0  0  0
 18 19  1  0  0  0
 37 32  1  0  0  0
 31 26  1  0  0  0
  9  1  1  0  0  0
 18 11  1  0  0  0
  9  4  1  0  0  0
 24 25  1  0  0  0
  3 10  1  0  0  0
M  END
> <minimizedAffinity>
-7.19788

> <CNNscore>
0.0702354088

> <CNNaffinity>
5.8841247559

> <CNN_VS>
0.4132739007

> <CNNaffinity_variance>
0.0513392799

$$$$
[H]c1c(F)c(OC([H])([H])[H])c(F)c(-c2c([H])c([H])c3c(N([H])C(=O)c4c([H])c([H])c(N5C([H])([H])C([H])([H])N(C([H])([H])C([H])([H])OC([H])([H])[H])C([H])([H])C5([H])[H])c([H])c4[H])nn([H])c3c2[H])c1F


 41 45  0  0  0  0  0  0  0  0999 V2000
   -1.8455   21.8004  -24.2866 C   0  0  0  0  0  0  0  0  0  0  0  0
   -2.6789   21.4637  -23.2941 N   0  0  0  0  0  0  0  0  0  0  0  0
   -2.0033   21.0654  -22.2506 N   0  0  0  0  0  0  0  0  0  0  0  0
   -0.6922   21.1230  -22.5143 C   0  0  0  0  0  0  0  0  0  0  0  0
    0.4508   20.8058  -21.7639 C   0  0  0  0  0  0  0  0  0  0  0  0
    1.7250   20.9429  -22.2738 C   0  0  0  0  0  0  0  0  0  0  0  0
    1.8388   21.4103  -23.5644 C   0  0  0  0  0  0  0  0  0  0  0  0
    0.7167   21.7282  -24.3188 C   0  0  0  0  0  0  0  0  0  0  0  0
   -0.5445   21.5850  -23.7961 C   0  0  0  0  0  0  0  0  0  0  0  0
   -2.3580   20.7336  -21.3072 H   0  0  0  0  0  0  0  0  0  0  0  0
    2.9076   20.5932  -21.4864 C   0  0  0  0  0  0  0  0  0  0  0  0
    3.6489   19.4775  -21.8615 C   0  0  0  0  0  0  0  0  0  0  0  0
    3.2343   18.7780  -22.9407 F   0  0  0  0  0  0  0  0  0  0  0  0
    4.7782   19.0886  -21.1536 C   0  0  0  0  0  0  0  0  0  0  0  0
    5.2076   19.7947  -20.0512 C   0  0  0  0  0  0  0  0  0  0  0  0
    6.3012   19.4569  -19.3272 F   0  0  0  0  0  0  0  0  0  0  0  0
    4.4674   20.9159  -19.6698 C   0  0  0  0  0  0  0  0  0  0  0  0
    3.3472   21.2885  -20.3852 C   0  0  0  0  0  0  0  0  0  0  0  0
    2.6461   22.3744  -20.0034 F   0  0  0  0  0  0  0  0  0  0  0  0
    4.9149   21.6205  -18.5501 O   0  0  0  0  0  0  0  0  0  0  0  0
    5.7059   22.7622  -18.6832 C   0  0  0  0  0  0  0  0  0  0  0  0
   -3.1523   23.1768  -25.8968 C   0  0  0  0  0  0  0  0  0  0  0  0
   -3.2283   23.5936  -27.1200 O   0  0  0  0  0  0  0  0  0  0  0  0
   -2.1041   22.3064  -25.5909 N   0  0  0  0  0  0  0  0  0  0  0  0
   -1.4292   22.0262  -26.3772 H   0  0  0  0  0  0  0  0  0  0  0  0
   -6.1214   24.6084  -23.2044 C   0  0  0  0  0  0  0  0  0  0  0  0
   -6.4180   23.5509  -24.0751 C   0  0  0  0  0  0  0  0  0  0  0  0
   -5.4513   23.1083  -24.9533 C   0  0  0  0  0  0  0  0  0  0  0  0
   -4.1728   23.6717  -25.0166 C   0  0  0  0  0  0  0  0  0  0  0  0
   -3.8824   24.7120  -24.1608 C   0  0  0  0  0  0  0  0  0  0  0  0
   -4.8536   25.1438  -23.2909 C   0  0  0  0  0  0  0  0  0  0  0  0
   -9.2320   25.2121  -20.4845 N   0  0  0  0  0  0  0  0  0  0  0  0
   -7.8901   25.1144  -19.9303 C   0  0  0  0  0  0  0  0  0  0  0  0
   -6.7793   25.1885  -20.9046 C   0  0  0  0  0  0  0  0  0  0  0  0
   -7.1144   25.0646  -22.2847 N   0  0  0  0  0  0  0  0  0  0  0  0
   -8.4221   25.3821  -22.8016 C   0  0  0  0  0  0  0  0  0  0  0  0
   -9.2145   26.0387  -21.6920 C   0  0  0  0  0  0  0  0  0  0  0  0
   -9.7162   23.8960  -20.7460 C   0  0  0  0  0  0  0  0  0  0  0  0
   -9.3773   22.8730  -19.7121 C   0  0  0  0  0  0  0  0  0  0  0  0
   -8.0744   21.6424  -21.2560 C   0  0  0  0  0  0  0  0  0  0  0  0
   -8.8427   21.7240  -20.1484 O   0  0  0  0  0  0  0  0  0  0  0  0
 40 41  1  0  0  0
 41 39  1  0  0  0
 39 38  1  0  0  0
 38 32  1  0  0  0
 32 33  1  0  0  0
 33 34  1  0  0  0
 34 35  1  0  0  0
 35 36  1  0  0  0
 36 37  1  0  0  0
 35 26  1  0  0  0
 26 27  2  0  0  0
 27 28  1  0  0  0
 28 29  2  0  0  0
 29 30  1  0  0  0
 30 31  2  0  0  0
 29 22  1  0  0  0
 22 23  2  0  0  0
 22 24  1  0  0  0
 24  1  1  0  0  0
  1  2  2  0  0  0
  2  3  1  0  0  0
  3  4  1  0  0  0
  4  5  2  0  0  0
  5  6  1  0  0  0
  6  7  2  0  0  0
  7  8  1  0  0  0
  8  9  2  0  0  0
  6 11  1  0  0  0
 11 12  2  0  0  0
 12 13  1  0  0  0
 12 14  1  0  0  0
 14 15  2  0  0  0
 15 16  1  0  0  0
 15 17  1  0  0  0
 17 20  1  0  0  0
 20 21  1  0  0  0
 17 18  2  0  0  0
 18 19  1  0  0  0
 37 32  1  0  0  0
 31 26  1  0  0  0
  9  1  1  0  0  0
 18 11  1  0  0  0
  9  4  1  0  0  0
 24 25  1  0  0  0
  3 10  1  0  0  0
M  END
> <minimizedAffinity>
-8.23356

> <CNNscore>
0.0631494448

> <CNNaffinity>
6.0560483932

> <CNN_VS>
0.3824360967

> <CNNaffinity_variance>
0.1335952729

$$$$
[H]c1c(F)c(OC([H])([H])[H])c(F)c(-c2c([H])c([H])c3c(N([H])C(=O)c4c([H])c([H])c(N5C([H])([H])C([H])([H])N(C([H])([H])C([H])([H])OC([H])([H])[H])C([H])([H])C5([H])[H])c([H])c4[H])nn([H])c3c2[H])c1F


 41 45  0  0  0  0  0  0  0  0999 V2000
   -1.4000   21.7639  -23.9776 C   0  0  0  0  0  0  0  0  0  0  0  0
   -2.1880   21.3644  -22.9713 N   0  0  0  0  0  0  0  0  0  0  0  0
   -1.4675   20.8797  -21.9967 N   0  0  0  0  0  0  0  0  0  0  0  0
   -0.1706   20.9398  -22.3226 C   0  0  0  0  0  0  0  0  0  0  0  0
    1.0032   20.5518  -21.6578 C   0  0  0  0  0  0  0  0  0  0  0  0
    2.2522   20.7102  -22.2210 C   0  0  0  0  0  0  0  0  0  0  0  0
    2.3088   21.2721  -23.4773 C   0  0  0  0  0  0  0  0  0  0  0  0
    1.1557   21.6608  -24.1470 C   0  0  0  0  0  0  0  0  0  0  0  0
   -0.0798   21.4951  -23.5722 C   0  0  0  0  0  0  0  0  0  0  0  0
   -1.7798   20.4823  -21.0637 H   0  0  0  0  0  0  0  0  0  0  0  0
    3.4670   20.2866  -21.5239 C   0  0  0  0  0  0  0  0  0  0  0  0
    4.0494   19.0751  -21.8815 C   0  0  0  0  0  0  0  0  0  0  0  0
    3.4589   18.3556  -22.8611 F   0  0  0  0  0  0  0  0  0  0  0  0
    5.1993   18.6132  -21.2553 C   0  0  0  0  0  0  0  0  0  0  0  0
    5.8075   19.3391  -20.2546 C   0  0  0  0  0  0  0  0  0  0  0  0
    6.9289   18.9327  -19.6130 F   0  0  0  0  0  0  0  0  0  0  0  0
    5.2274   20.5563  -19.8912 C   0  0  0  0  0  0  0  0  0  0  0  0
    4.0840   21.0006  -20.5245 C   0  0  0  0  0  0  0  0  0  0  0  0
    3.5390   22.1787  -20.1617 F   0  0  0  0  0  0  0  0  0  0  0  0
    5.8551   21.2799  -18.8749 O   0  0  0  0  0  0  0  0  0  0  0  0
    5.4363   21.1748  -17.5481 C   0  0  0  0  0  0  0  0  0  0  0  0
   -2.8438   23.1630  -25.4450 C   0  0  0  0  0  0  0  0  0  0  0  0
   -2.9683   23.6903  -26.6206 O   0  0  0  0  0  0  0  0  0  0  0  0
   -1.7154   22.3703  -25.2253 N   0  0  0  0  0  0  0  0  0  0  0  0
   -1.0229   22.2353  -26.0343 H   0  0  0  0  0  0  0  0  0  0  0  0
   -5.9127   24.0359  -22.6282 C   0  0  0  0  0  0  0  0  0  0  0  0
   -6.0883   22.9997  -23.5554 C   0  0  0  0  0  0  0  0  0  0  0  0
   -5.0922   22.7388  -24.4728 C   0  0  0  0  0  0  0  0  0  0  0  0
   -3.8999   23.4685  -24.5218 C   0  0  0  0  0  0  0  0  0  0  0  0
   -3.7287   24.4877  -23.6103 C   0  0  0  0  0  0  0  0  0  0  0  0
   -4.7280   24.7377  -22.7019 C   0  0  0  0  0  0  0  0  0  0  0  0
   -9.0290   25.4472  -20.2335 N   0  0  0  0  0  0  0  0  0  0  0  0
   -9.3703   24.4295  -21.2159 C   0  0  0  0  0  0  0  0  0  0  0  0
   -8.2297   23.7360  -21.8538 C   0  0  0  0  0  0  0  0  0  0  0  0
   -6.9357   24.3045  -21.6683 N   0  0  0  0  0  0  0  0  0  0  0  0
   -6.6070   25.1463  -20.5452 C   0  0  0  0  0  0  0  0  0  0  0  0
   -7.7680   25.1030  -19.5754 C   0  0  0  0  0  0  0  0  0  0  0  0
   -8.9604   26.7121  -20.8895 C   0  0  0  0  0  0  0  0  0  0  0  0
  -10.2380   27.4846  -20.9235 C   0  0  0  0  0  0  0  0  0  0  0  0
   -9.9810   29.6333  -19.9684 C   0  0  0  0  0  0  0  0  0  0  0  0
  -10.1384   28.8167  -21.0324 O   0  0  0  0  0  0  0  0  0  0  0  0
 40 41  1  0  0  0
 41 39  1  0  0  0
 39 38  1  0  0  0
 38 32  1  0  0  0
 32 33  1  0  0  0
 33 34  1  0  0  0
 34 35  1  0  0  0
 35 36  1  0  0  0
 36 37  1  0  0  0
 35 26  1  0  0  0
 26 27  2  0  0  0
 27 28  1  0  0  0
 28 29  2  0  0  0
 29 30  1  0  0  0
 30 31  2  0  0  0
 29 22  1  0  0  0
 22 23  2  0  0  0
 22 24  1  0  0  0
 24  1  1  0  0  0
  1  2  2  0  0  0
  2  3  1  0  0  0
  3  4  1  0  0  0
  4  5  2  0  0  0
  5  6  1  0  0  0
  6  7  2  0  0  0
  7  8  1  0  0  0
  8  9  2  0  0  0
  6 11  1  0  0  0
 11 12  2  0  0  0
 12 13  1  0  0  0
 12 14  1  0  0  0
 14 15  2  0  0  0
 15 16  1  0  0  0
 15 17  1  0  0  0
 17 20  1  0  0  0
 20 21  1  0  0  0
 17 18  2  0  0  0
 18 19  1  0  0  0
 37 32  1  0  0  0
 31 26  1  0  0  0
  9  1  1  0  0  0
 18 11  1  0  0  0
  9  4  1  0  0  0
 24 25  1  0  0  0
  3 10  1  0  0  0
M  END
> <minimizedAffinity>
-8.07858

> <CNNscore>
0.0618242472

> <CNNaffinity>
5.9918785095

> <CNN_VS>
0.3704433739

> <CNNaffinity_variance>
0.0539611876

$$$$
[H]C([H])=C([H])C(=O)N1C([H])([H])C([H])([H])[C@]([H])(n2c([H])c(C#Cc3c([H])c(OC([H])([H])[H])c([H])c(OC([H])([H])[H])c3[H])c3c(N([H])[H])nc([H])nc32)C1([H])[H]


 33 36  0  0  0  0  0  0  0  0999 V2000
   -1.5831   22.0939  -24.4020 C   0  0  0  0  0  0  0  0  0  0  0  0
   -2.8726   22.5155  -24.6519 C   0  0  0  0  0  0  0  0  0  0  0  0
   -2.9747   22.9573  -25.9187 N   0  0  0  0  0  0  0  0  0  0  0  0
   -1.7693   22.8399  -26.5299 C   0  0  0  0  0  0  0  0  0  0  0  0
   -1.3070   23.1205  -27.7587 N   0  0  0  0  0  0  0  0  0  0  0  0
   -0.0220   22.8883  -28.0834 C   0  0  0  0  0  0  0  0  0  0  0  0
    0.8521   22.3678  -27.1974 N   0  0  0  0  0  0  0  0  0  0  0  0
    0.4105   22.0804  -25.9648 C   0  0  0  0  0  0  0  0  0  0  0  0
    1.2738   21.5239  -24.9601 N   0  0  0  0  0  0  0  0  0  0  0  0
   -0.9015   22.3011  -25.5833 C   0  0  0  0  0  0  0  0  0  0  0  0
    1.6908   22.2343  -24.3005 H   0  0  0  0  0  0  0  0  0  0  0  0
    1.4832   20.5258  -24.8700 H   0  0  0  0  0  0  0  0  0  0  0  0
   -4.1458   23.4870  -26.5939 C   0  0  0  0  0  0  0  0  0  0  0  0
   -4.1682   24.9896  -26.6019 C   0  0  0  0  0  0  0  0  0  0  0  0
   -4.7929   25.3683  -27.9363 C   0  0  0  0  0  0  0  0  0  0  0  0
   -4.8664   24.2034  -28.7486 N   0  0  0  0  0  0  0  0  0  0  0  0
   -4.2335   23.0678  -28.0209 C   0  0  0  0  0  0  0  0  0  0  0  0
   -5.4055   24.0223  -30.0162 C   0  0  0  0  0  0  0  0  0  0  0  0
   -5.3346   22.8310  -30.5245 O   0  0  0  0  0  0  0  0  0  0  0  0
   -6.0343   25.0033  -30.8319 C   0  0  0  0  0  0  0  0  0  0  0  0
   -5.5691   26.0211  -31.4913 C   0  0  0  0  0  0  0  0  0  0  0  0
   -0.5180   21.1060  -22.1911 C   0  0  0  0  0  0  0  0  0  0  0  0
   -1.0133   21.5500  -23.1998 C   0  0  0  0  0  0  0  0  0  0  0  0
    0.6520   18.7140  -19.5438 C   0  0  0  0  0  0  0  0  0  0  0  0
    1.2583   19.5455  -18.6515 C   0  0  0  0  0  0  0  0  0  0  0  0
    1.2823   20.8888  -18.9195 C   0  0  0  0  0  0  0  0  0  0  0  0
    0.7140   21.4045  -20.0558 C   0  0  0  0  0  0  0  0  0  0  0  0
    0.0820   20.5822  -20.9962 C   0  0  0  0  0  0  0  0  0  0  0  0
    0.0726   19.2354  -20.7012 C   0  0  0  0  0  0  0  0  0  0  0  0
   -0.3320   16.5833  -20.0543 C   0  0  0  0  0  0  0  0  0  0  0  0
    0.5993   17.3549  -19.3234 O   0  0  0  0  0  0  0  0  0  0  0  0
    1.8919   21.7428  -18.0266 O   0  0  0  0  0  0  0  0  0  0  0  0
    2.2161   23.0811  -18.3879 C   0  0  0  0  0  0  0  0  0  0  0  0
 30 31  1  0  0  0
 31 24  1  0  0  0
 24 25  2  0  0  0
 25 26  1  0  0  0
 26 32  1  0  0  0
 32 33  1  0  0  0
 26 27  2  0  0  0
 27 28  1  0  0  0
 28 29  2  0  0  0
 28 22  1  0  0  0
 22 23  3  0  0  0
 23  1  1  0  0  0
  1  2  2  0  0  0
  2  3  1  0  0  0
  3 13  1  0  0  0
 13 14  1  0  0  0
 14 15  1  0  0  0
 15 16  1  0  0  0
 16 17  1  0  0  0
 16 18  1  0  0  0
 18 19  2  0  0  0
 18 20  1  0  0  0
 20 21  2  0  0  0
  3  4  1  0  0  0
  4  5  2  0  0  0
  5  6  1  0  0  0
  6  7  2  0  0  0
  7  8  1  0  0  0
  8  9  1  0  0  0
  8 10  2  0  0  0
 29 24  1  0  0  0
 10  1  1  0  0  0
 17 13  1  0  0  0
 10  4  1  0  0  0
  9 11  1  0  0  0
  9 12  1  0  0  0
M  END
> <minimizedAffinity>
-8.47472

> <CNNscore>
0.9023553729

> <CNNaffinity>
7.2411298752

> <CNN_VS>
6.5340723991

> <CNNaffinity_variance>
0.0713468567

$$$$
[H]C([H])=C([H])C(=O)N1C([H])([H])C([H])([H])[C@]([H])(n2c([H])c(C#Cc3c([H])c(OC([H])([H])[H])c([H])c(OC([H])([H])[H])c3[H])c3c(N([H])[H])nc([H])nc32)C1([H])[H]


 33 36  0  0  0  0  0  0  0  0999 V2000
   -1.5958   22.1031  -24.3564 C   0  0  0  0  0  0  0  0  0  0  0  0
   -2.8840   22.5247  -24.6126 C   0  0  0  0  0  0  0  0  0  0  0  0
   -2.9820   22.9586  -25.8825 N   0  0  0  0  0  0  0  0  0  0  0  0
   -1.7750   22.8358  -26.4895 C   0  0  0  0  0  0  0  0  0  0  0  0
   -1.3090   23.1080  -27.7188 N   0  0  0  0  0  0  0  0  0  0  0  0
   -0.0233   22.8722  -28.0383 C   0  0  0  0  0  0  0  0  0  0  0  0
    0.8477   22.3563  -27.1466 N   0  0  0  0  0  0  0  0  0  0  0  0
    0.4023   22.0773  -25.9135 C   0  0  0  0  0  0  0  0  0  0  0  0
    1.2620   21.5261  -24.9028 N   0  0  0  0  0  0  0  0  0  0  0  0
   -0.9105   22.3020  -25.5370 C   0  0  0  0  0  0  0  0  0  0  0  0
    1.6780   22.2403  -24.2466 H   0  0  0  0  0  0  0  0  0  0  0  0
    1.4700   20.5284  -24.8058 H   0  0  0  0  0  0  0  0  0  0  0  0
   -4.1506   23.4853  -26.5644 C   0  0  0  0  0  0  0  0  0  0  0  0
   -4.1719   24.9879  -26.5807 C   0  0  0  0  0  0  0  0  0  0  0  0
   -4.7920   25.3597  -27.9191 C   0  0  0  0  0  0  0  0  0  0  0  0
   -4.8637   24.1905  -28.7253 N   0  0  0  0  0  0  0  0  0  0  0  0
   -4.2339   23.0584  -27.9894 C   0  0  0  0  0  0  0  0  0  0  0  0
   -5.3988   24.0028  -29.9936 C   0  0  0  0  0  0  0  0  0  0  0  0
   -5.3271   22.8087  -30.4952 O   0  0  0  0  0  0  0  0  0  0  0  0
   -6.0243   24.9797  -30.8167 C   0  0  0  0  0  0  0  0  0  0  0  0
   -5.5554   25.9897  -31.4854 C   0  0  0  0  0  0  0  0  0  0  0  0
   -0.5364   21.1248  -22.1386 C   0  0  0  0  0  0  0  0  0  0  0  0
   -1.0300   21.5662  -23.1492 C   0  0  0  0  0  0  0  0  0  0  0  0
    1.2469   20.9212  -18.8405 C   0  0  0  0  0  0  0  0  0  0  0  0
    1.2391   19.5823  -18.5906 C   0  0  0  0  0  0  0  0  0  0  0  0
    0.6492   18.7489  -19.5040 C   0  0  0  0  0  0  0  0  0  0  0  0
    0.0738   19.2326  -20.6507 C   0  0  0  0  0  0  0  0  0  0  0  0
    0.0619   20.6017  -20.9424 C   0  0  0  0  0  0  0  0  0  0  0  0
    0.6622   21.4169  -20.0065 C   0  0  0  0  0  0  0  0  0  0  0  0
    2.3404   23.0239  -18.4505 C   0  0  0  0  0  0  0  0  0  0  0  0
    1.8266   21.8041  -17.9556 O   0  0  0  0  0  0  0  0  0  0  0  0
    0.6332   17.3920  -19.2655 O   0  0  0  0  0  0  0  0  0  0  0  0
    0.0557   16.4846  -20.1980 C   0  0  0  0  0  0  0  0  0  0  0  0
 30 31  1  0  0  0
 31 24  1  0  0  0
 24 25  2  0  0  0
 25 26  1  0  0  0
 26 32  1  0  0  0
 32 33  1  0  0  0
 26 27  2  0  0  0
 27 28  1  0  0  0
 28 29  2  0  0  0
 28 22  1  0  0  0
 22 23  3  0  0  0
 23  1  1  0  0  0
  1  2  2  0  0  0
  2  3  1  0  0  0
  3 13  1  0  0  0
 13 14  1  0  0  0
 14 15  1  0  0  0
 15 16  1  0  0  0
 16 17  1  0  0  0
 16 18  1  0  0  0
 18 19  2  0  0  0
 18 20  1  0  0  0
 20 21  2  0  0  0
  3  4  1  0  0  0
  4  5  2  0  0  0
  5  6  1  0  0  0
  6  7  2  0  0  0
  7  8  1  0  0  0
  8  9  1  0  0  0
  8 10  2  0  0  0
 29 24  1  0  0  0
 10  1  1  0  0  0
 17 13  1  0  0  0
 10  4  1  0  0  0
  9 11  1  0  0  0
  9 12  1  0  0  0
M  END
> <minimizedAffinity>
-8.43788

> <CNNscore>
0.8961867690

> <CNNaffinity>
7.2332487106

> <CNN_VS>
6.4823417664

> <CNNaffinity_variance>
0.0719928741

$$$$
[H]C([H])=C([H])C(=O)N1C([H])([H])C([H])([H])[C@]([H])(n2c([H])c(C#Cc3c([H])c(OC([H])([H])[H])c([H])c(OC([H])([H])[H])c3[H])c3c(N([H])[H])nc([H])nc32)C1([H])[H]


 33 36  0  0  0  0  0  0  0  0999 V2000
   -1.3733   22.1846  -23.9608 C   0  0  0  0  0  0  0  0  0  0  0  0
   -2.6557   22.6813  -23.8517 C   0  0  0  0  0  0  0  0  0  0  0  0
   -3.0691   23.1527  -25.0423 N   0  0  0  0  0  0  0  0  0  0  0  0
   -2.0816   22.9811  -25.9565 C   0  0  0  0  0  0  0  0  0  0  0  0
   -1.9518   23.2598  -27.2634 N   0  0  0  0  0  0  0  0  0  0  0  0
   -0.8174   22.9636  -27.9237 C   0  0  0  0  0  0  0  0  0  0  0  0
    0.2311   22.3786  -27.3086 N   0  0  0  0  0  0  0  0  0  0  0  0
    0.1217   22.0919  -26.0037 C   0  0  0  0  0  0  0  0  0  0  0  0
    1.1896   21.4692  -25.2714 N   0  0  0  0  0  0  0  0  0  0  0  0
   -1.0240   22.3770  -25.2813 C   0  0  0  0  0  0  0  0  0  0  0  0
    1.8094   22.1426  -24.7461 H   0  0  0  0  0  0  0  0  0  0  0  0
    1.3571   20.4596  -25.2452 H   0  0  0  0  0  0  0  0  0  0  0  0
   -4.3458   23.7591  -25.3743 C   0  0  0  0  0  0  0  0  0  0  0  0
   -5.3774   22.7382  -25.7645 C   0  0  0  0  0  0  0  0  0  0  0  0
   -6.6937   23.2824  -25.2302 C   0  0  0  0  0  0  0  0  0  0  0  0
   -6.4136   24.3751  -24.3643 N   0  0  0  0  0  0  0  0  0  0  0  0
   -4.9365   24.5272  -24.2425 C   0  0  0  0  0  0  0  0  0  0  0  0
   -7.2737   25.2298  -23.6861 C   0  0  0  0  0  0  0  0  0  0  0  0
   -6.7334   26.1558  -22.9559 O   0  0  0  0  0  0  0  0  0  0  0  0
   -8.6958   25.2078  -23.6995 C   0  0  0  0  0  0  0  0  0  0  0  0
   -9.5822   25.3998  -22.7697 C   0  0  0  0  0  0  0  0  0  0  0  0
    0.1744   21.1031  -22.1079 C   0  0  0  0  0  0  0  0  0  0  0  0
   -0.5337   21.5868  -22.9591 C   0  0  0  0  0  0  0  0  0  0  0  0
    3.1936   20.3121  -20.0204 C   0  0  0  0  0  0  0  0  0  0  0  0
    2.6906   19.4372  -19.1057 C   0  0  0  0  0  0  0  0  0  0  0  0
    1.3625   19.1083  -19.1752 C   0  0  0  0  0  0  0  0  0  0  0  0
    0.5411   19.6376  -20.1370 C   0  0  0  0  0  0  0  0  0  0  0  0
    1.0211   20.5395  -21.0940 C   0  0  0  0  0  0  0  0  0  0  0  0
    2.3605   20.8527  -21.0006 C   0  0  0  0  0  0  0  0  0  0  0  0
    5.5003   19.7039  -20.3007 C   0  0  0  0  0  0  0  0  0  0  0  0
    4.5220   20.6772  -19.9961 O   0  0  0  0  0  0  0  0  0  0  0  0
    0.8387   18.2246  -18.2570 O   0  0  0  0  0  0  0  0  0  0  0  0
    0.9341   16.8171  -18.4485 C   0  0  0  0  0  0  0  0  0  0  0  0
 30 31  1  0  0  0
 31 24  1  0  0  0
 24 25  2  0  0  0
 25 26  1  0  0  0
 26 32  1  0  0  0
 32 33  1  0  0  0
 26 27  2  0  0  0
 27 28  1  0  0  0
 28 29  2  0  0  0
 28 22  1  0  0  0
 22 23  3  0  0  0
 23  1  1  0  0  0
  1  2  2  0  0  0
  2  3  1  0  0  0
  3 13  1  0  0  0
 13 14  1  0  0  0
 14 15  1  0  0  0
 15 16  1  0  0  0
 16 17  1  0  0  0
 16 18  1  0  0  0
 18 19  2  0  0  0
 18 20  1  0  0  0
 20 21  2  0  0  0
  3  4  1  0  0  0
  4  5  2  0  0  0
  5  6  1  0  0  0
  6  7  2  0  0  0
  7  8  1  0  0  0
  8  9  1  0  0  0
  8 10  2  0  0  0
 29 24  1  0  0  0
 10  1  1  0  0  0
 17 13  1  0  0  0
 10  4  1  0  0  0
  9 11  1  0  0  0
  9 12  1  0  0  0
M  END
> <minimizedAffinity>
-6.99589

> <CNNscore>
0.5475370884

> <CNNaffinity>
6.8599715233

> <CNN_VS>
3.7560887337

> <CNNaffinity_variance>
0.4638848901

$$$$
[H]C([H])=C([H])C(=O)N1C([H])([H])C([H])([H])[C@]([H])(n2c([H])c(C#Cc3c([H])c(OC([H])([H])[H])c([H])c(OC([H])([H])[H])c3[H])c3c(N([H])[H])nc([H])nc32)C1([H])[H]


 33 36  0  0  0  0  0  0  0  0999 V2000
   -1.4414   21.9565  -24.0536 C   0  0  0  0  0  0  0  0  0  0  0  0
   -2.7294   22.1157  -23.5859 C   0  0  0  0  0  0  0  0  0  0  0  0
   -3.5359   22.5152  -24.5862 N   0  0  0  0  0  0  0  0  0  0  0  0
   -2.8091   22.6283  -25.7261 C   0  0  0  0  0  0  0  0  0  0  0  0
   -3.0922   22.9801  -26.9904 N   0  0  0  0  0  0  0  0  0  0  0  0
   -2.1328   22.9993  -27.9337 C   0  0  0  0  0  0  0  0  0  0  0  0
   -0.8549   22.6691  -27.6547 N   0  0  0  0  0  0  0  0  0  0  0  0
   -0.5512   22.3148  -26.3981 C   0  0  0  0  0  0  0  0  0  0  0  0
    0.7841   21.9484  -26.0145 N   0  0  0  0  0  0  0  0  0  0  0  0
   -1.5025   22.2796  -25.3933 C   0  0  0  0  0  0  0  0  0  0  0  0
    1.3478   22.7338  -25.5913 H   0  0  0  0  0  0  0  0  0  0  0  0
    1.1797   21.0114  -26.1313 H   0  0  0  0  0  0  0  0  0  0  0  0
   -4.9588   22.7988  -24.5343 C   0  0  0  0  0  0  0  0  0  0  0  0
   -5.6464   22.0627  -23.4190 C   0  0  0  0  0  0  0  0  0  0  0  0
   -6.7274   23.0128  -22.9260 C   0  0  0  0  0  0  0  0  0  0  0  0
   -6.5061   24.2913  -23.5079 N   0  0  0  0  0  0  0  0  0  0  0  0
   -5.2564   24.2424  -24.3177 C   0  0  0  0  0  0  0  0  0  0  0  0
   -7.2469   25.4630  -23.4155 C   0  0  0  0  0  0  0  0  0  0  0  0
   -6.8042   26.4956  -24.0638 O   0  0  0  0  0  0  0  0  0  0  0  0
   -8.4497   25.6649  -22.6836 C   0  0  0  0  0  0  0  0  0  0  0  0
   -9.6821   25.3276  -22.9164 C   0  0  0  0  0  0  0  0  0  0  0  0
    0.7415   21.2221  -22.7521 C   0  0  0  0  0  0  0  0  0  0  0  0
   -0.2555   21.5475  -23.3520 C   0  0  0  0  0  0  0  0  0  0  0  0
    3.2898   20.8557  -20.0188 C   0  0  0  0  0  0  0  0  0  0  0  0
    4.2591   20.1158  -20.6256 C   0  0  0  0  0  0  0  0  0  0  0  0
    4.0753   19.7385  -21.9297 C   0  0  0  0  0  0  0  0  0  0  0  0
    2.9471   20.0880  -22.6261 C   0  0  0  0  0  0  0  0  0  0  0  0
    1.9292   20.8475  -22.0371 C   0  0  0  0  0  0  0  0  0  0  0  0
    2.1403   21.2133  -20.7246 C   0  0  0  0  0  0  0  0  0  0  0  0
    3.6781   22.6262  -18.4429 C   0  0  0  0  0  0  0  0  0  0  0  0
    3.4237   21.2619  -18.7091 O   0  0  0  0  0  0  0  0  0  0  0  0
    5.0468   18.9897  -22.5574 O   0  0  0  0  0  0  0  0  0  0  0  0
    6.0459   18.3018  -21.8123 C   0  0  0  0  0  0  0  0  0  0  0  0
 30 31  1  0  0  0
 31 24  1  0  0  0
 24 25  2  0  0  0
 25 26  1  0  0  0
 26 32  1  0  0  0
 32 33  1  0  0  0
 26 27  2  0  0  0
 27 28  1  0  0  0
 28 29  2  0  0  0
 28 22  1  0  0  0
 22 23  3  0  0  0
 23  1  1  0  0  0
  1  2  2  0  0  0
  2  3  1  0  0  0
  3 13  1  0  0  0
 13 14  1  0  0  0
 14 15  1  0  0  0
 15 16  1  0  0  0
 16 17  1  0  0  0
 16 18  1  0  0  0
 18 19  2  0  0  0
 18 20  1  0  0  0
 20 21  2  0  0  0
  3  4  1  0  0  0
  4  5  2  0  0  0
  5  6  1  0  0  0
  6  7  2  0  0  0
  7  8  1  0  0  0
  8  9  1  0  0  0
  8 10  2  0  0  0
 29 24  1  0  0  0
 10  1  1  0  0  0
 17 13  1  0  0  0
 10  4  1  0  0  0
  9 11  1  0  0  0
  9 12  1  0  0  0
M  END
> <minimizedAffinity>
-7.99684

> <CNNscore>
0.5015444756

> <CNNaffinity>
6.8202872276

> <CNN_VS>
3.4206774235

> <CNNaffinity_variance>
0.2702011764

$$$$
[H]C([H])=C([H])C(=O)N1C([H])([H])C([H])([H])[C@]([H])(n2c([H])c(C#Cc3c([H])c(OC([H])([H])[H])c([H])c(OC([H])([H])[H])c3[H])c3c(N([H])[H])nc([H])nc32)C1([H])[H]


 33 36  0  0  0  0  0  0  0  0999 V2000
   -1.4727   21.9384  -24.0804 C   0  0  0  0  0  0  0  0  0  0  0  0
   -2.7805   22.0777  -23.6642 C   0  0  0  0  0  0  0  0  0  0  0  0
   -3.5512   22.4729  -24.6940 N   0  0  0  0  0  0  0  0  0  0  0  0
   -2.7806   22.6030  -25.8029 C   0  0  0  0  0  0  0  0  0  0  0  0
   -3.0171   22.9591  -27.0755 N   0  0  0  0  0  0  0  0  0  0  0  0
   -2.0207   22.9971  -27.9790 C   0  0  0  0  0  0  0  0  0  0  0  0
   -0.7508   22.6819  -27.6505 N   0  0  0  0  0  0  0  0  0  0  0  0
   -0.4935   22.3235  -26.3848 C   0  0  0  0  0  0  0  0  0  0  0  0
    0.8301   21.9722  -25.9497 N   0  0  0  0  0  0  0  0  0  0  0  0
   -1.4840   22.2693  -25.4195 C   0  0  0  0  0  0  0  0  0  0  0  0
    1.3656   22.7622  -25.4994 H   0  0  0  0  0  0  0  0  0  0  0  0
    1.2426   21.0413  -26.0560 H   0  0  0  0  0  0  0  0  0  0  0  0
   -4.9788   22.7374  -24.6980 C   0  0  0  0  0  0  0  0  0  0  0  0
   -5.7081   21.9460  -23.6490 C   0  0  0  0  0  0  0  0  0  0  0  0
   -6.8239   22.8614  -23.1682 C   0  0  0  0  0  0  0  0  0  0  0  0
   -6.5929   24.1663  -23.6841 N   0  0  0  0  0  0  0  0  0  0  0  0
   -5.3060   24.1669  -24.4347 C   0  0  0  0  0  0  0  0  0  0  0  0
   -7.3532   25.3242  -23.5774 C   0  0  0  0  0  0  0  0  0  0  0  0
   -6.8946   26.3888  -24.1594 O   0  0  0  0  0  0  0  0  0  0  0  0
   -8.5918   25.4804  -22.8958 C   0  0  0  0  0  0  0  0  0  0  0  0
   -8.8882   25.9208  -21.7104 C   0  0  0  0  0  0  0  0  0  0  0  0
    0.6769   21.2220  -22.7149 C   0  0  0  0  0  0  0  0  0  0  0  0
   -0.3107   21.5405  -23.3339 C   0  0  0  0  0  0  0  0  0  0  0  0
    4.0476   19.7920  -21.8829 C   0  0  0  0  0  0  0  0  0  0  0  0
    4.1805   20.1143  -20.5662 C   0  0  0  0  0  0  0  0  0  0  0  0
    3.1648   20.7998  -19.9538 C   0  0  0  0  0  0  0  0  0  0  0  0
    2.0310   21.1627  -20.6342 C   0  0  0  0  0  0  0  0  0  0  0  0
    1.8578   20.8495  -21.9876 C   0  0  0  0  0  0  0  0  0  0  0  0
    2.8951   20.1596  -22.5784 C   0  0  0  0  0  0  0  0  0  0  0  0
    5.8693   18.2283  -21.8118 C   0  0  0  0  0  0  0  0  0  0  0  0
    5.0387   19.1032  -22.5476 O   0  0  0  0  0  0  0  0  0  0  0  0
    3.2844   21.1331  -18.6223 O   0  0  0  0  0  0  0  0  0  0  0  0
    3.0644   22.4655  -18.1715 C   0  0  0  0  0  0  0  0  0  0  0  0
 30 31  1  0  0  0
 31 24  1  0  0  0
 24 25  2  0  0  0
 25 26  1  0  0  0
 26 32  1  0  0  0
 32 33  1  0  0  0
 26 27  2  0  0  0
 27 28  1  0  0  0
 28 29  2  0  0  0
 28 22  1  0  0  0
 22 23  3  0  0  0
 23  1  1  0  0  0
  1  2  2  0  0  0
  2  3  1  0  0  0
  3 13  1  0  0  0
 13 14  1  0  0  0
 14 15  1  0  0  0
 15 16  1  0  0  0
 16 17  1  0  0  0
 16 18  1  0  0  0
 18 19  2  0  0  0
 18 20  1  0  0  0
 20 21  2  0  0  0
  3  4  1  0  0  0
  4  5  2  0  0  0
  5  6  1  0  0  0
  6  7  2  0  0  0
  7  8  1  0  0  0
  8  9  1  0  0  0
  8 10  2  0  0  0
 29 24  1  0  0  0
 10  1  1  0  0  0
 17 13  1  0  0  0
 10  4  1  0  0  0
  9 11  1  0  0  0
  9 12  1  0  0  0
M  END
> <minimizedAffinity>
-7.92743

> <CNNscore>
0.4934091270

> <CNNaffinity>
6.7942361832

> <CNN_VS>
3.3523380756

> <CNNaffinity_variance>
0.2326436043

$$$$
[H]C([H])=C([H])C(=O)N1C([H])([H])C([H])([H])[C@]([H])(n2c([H])c(C#Cc3c([H])c(OC([H])([H])[H])c([H])c(OC([H])([H])[H])c3[H])c3c(N([H])[H])nc([H])nc32)C1([H])[H]


 33 36  0  0  0  0  0  0  0  0999 V2000
   -1.9175   22.8036  -24.6845 C   0  0  0  0  0  0  0  0  0  0  0  0
   -3.1285   23.3506  -24.3143 C   0  0  0  0  0  0  0  0  0  0  0  0
   -3.7893   23.7845  -25.4032 N   0  0  0  0  0  0  0  0  0  0  0  0
   -3.0398   23.5377  -26.5068 C   0  0  0  0  0  0  0  0  0  0  0  0
   -3.2029   23.7544  -27.8216 N   0  0  0  0  0  0  0  0  0  0  0  0
   -2.2559   23.3890  -28.7049 C   0  0  0  0  0  0  0  0  0  0  0  0
   -1.1104   22.7937  -28.3133 N   0  0  0  0  0  0  0  0  0  0  0  0
   -0.9280   22.5683  -27.0046 C   0  0  0  0  0  0  0  0  0  0  0  0
    0.2621   21.9398  -26.5015 N   0  0  0  0  0  0  0  0  0  0  0  0
   -1.8722   22.9257  -26.0578 C   0  0  0  0  0  0  0  0  0  0  0  0
    1.0019   22.6126  -26.1642 H   0  0  0  0  0  0  0  0  0  0  0  0
    0.4055   20.9268  -26.4627 H   0  0  0  0  0  0  0  0  0  0  0  0
   -5.0923   24.4216  -25.4690 C   0  0  0  0  0  0  0  0  0  0  0  0
   -6.1571   23.4904  -25.9764 C   0  0  0  0  0  0  0  0  0  0  0  0
   -7.4149   23.8744  -25.2117 C   0  0  0  0  0  0  0  0  0  0  0  0
   -7.0515   24.7541  -24.1552 N   0  0  0  0  0  0  0  0  0  0  0  0
   -5.5695   24.9073  -24.1439 C   0  0  0  0  0  0  0  0  0  0  0  0
   -7.8411   25.4188  -23.2252 C   0  0  0  0  0  0  0  0  0  0  0  0
   -7.2320   26.1716  -22.3622 O   0  0  0  0  0  0  0  0  0  0  0  0
   -9.2578   25.3696  -23.1077 C   0  0  0  0  0  0  0  0  0  0  0  0
  -10.0622   25.6154  -22.1180 C   0  0  0  0  0  0  0  0  0  0  0  0
   -0.0370   21.7216  -23.1708 C   0  0  0  0  0  0  0  0  0  0  0  0
   -0.8878   22.2200  -23.8691 C   0  0  0  0  0  0  0  0  0  0  0  0
    3.1324   20.0597  -22.0342 C   0  0  0  0  0  0  0  0  0  0  0  0
    2.9413   19.9636  -20.6891 C   0  0  0  0  0  0  0  0  0  0  0  0
    1.7736   20.4438  -20.1574 C   0  0  0  0  0  0  0  0  0  0  0  0
    0.8062   21.0124  -20.9454 C   0  0  0  0  0  0  0  0  0  0  0  0
    0.9661   21.1289  -22.3312 C   0  0  0  0  0  0  0  0  0  0  0  0
    2.1500   20.6377  -22.8392 C   0  0  0  0  0  0  0  0  0  0  0  0
    5.2325   18.9144  -21.8177 C   0  0  0  0  0  0  0  0  0  0  0  0
    4.2883   19.5927  -22.6210 O   0  0  0  0  0  0  0  0  0  0  0  0
    1.5654   20.3540  -18.7984 O   0  0  0  0  0  0  0  0  0  0  0  0
    0.3102   19.9408  -18.2689 C   0  0  0  0  0  0  0  0  0  0  0  0
 30 31  1  0  0  0
 31 24  1  0  0  0
 24 25  2  0  0  0
 25 26  1  0  0  0
 26 32  1  0  0  0
 32 33  1  0  0  0
 26 27  2  0  0  0
 27 28  1  0  0  0
 28 29  2  0  0  0
 28 22  1  0  0  0
 22 23  3  0  0  0
 23  1  1  0  0  0
  1  2  2  0  0  0
  2  3  1  0  0  0
  3 13  1  0  0  0
 13 14  1  0  0  0
 14 15  1  0  0  0
 15 16  1  0  0  0
 16 17  1  0  0  0
 16 18  1  0  0  0
 18 19  2  0  0  0
 18 20  1  0  0  0
 20 21  2  0  0  0
  3  4  1  0  0  0
  4  5  2  0  0  0
  5  6  1  0  0  0
  6  7  2  0  0  0
  7  8  1  0  0  0
  8  9  1  0  0  0
  8 10  2  0  0  0
 29 24  1  0  0  0
 10  1  1  0  0  0
 17 13  1  0  0  0
 10  4  1  0  0  0
  9 11  1  0  0  0
  9 12  1  0  0  0
M  END
> <minimizedAffinity>
-7.31417

> <CNNscore>
0.4712682962

> <CNNaffinity>
6.8454918861

> <CNN_VS>
3.2260632515

> <CNNaffinity_variance>
0.4540292323

$$$$
[H]C([H])=C([H])C(=O)N1C([H])([H])C([H])([H])[C@]([H])(n2c([H])c(C#Cc3c([H])c(OC([H])([H])[H])c([H])c(OC([H])([H])[H])c3[H])c3c(N([H])[H])nc([H])nc32)C1([H])[H]


 33 36  0  0  0  0  0  0  0  0999 V2000
   -1.1514   21.7416  -22.9510 C   0  0  0  0  0  0  0  0  0  0  0  0
   -1.4937   21.4210  -21.6537 C   0  0  0  0  0  0  0  0  0  0  0  0
   -0.4062   21.0018  -20.9812 N   0  0  0  0  0  0  0  0  0  0  0  0
    0.6688   21.0347  -21.8080 C   0  0  0  0  0  0  0  0  0  0  0  0
    1.9699   20.7333  -21.6707 N   0  0  0  0  0  0  0  0  0  0  0  0
    2.8237   20.8716  -22.7014 C   0  0  0  0  0  0  0  0  0  0  0  0
    2.4154   21.3152  -23.9082 N   0  0  0  0  0  0  0  0  0  0  0  0
    1.1200   21.6217  -24.0662 C   0  0  0  0  0  0  0  0  0  0  0  0
    0.6007   22.1008  -25.3173 N   0  0  0  0  0  0  0  0  0  0  0  0
    0.2034   21.4963  -23.0367 C   0  0  0  0  0  0  0  0  0  0  0  0
    0.1704   21.3538  -25.9260 H   0  0  0  0  0  0  0  0  0  0  0  0
    0.6330   23.0792  -25.6169 H   0  0  0  0  0  0  0  0  0  0  0  0
   -0.3165   20.5692  -19.5982 C   0  0  0  0  0  0  0  0  0  0  0  0
    0.2716   19.1923  -19.4687 C   0  0  0  0  0  0  0  0  0  0  0  0
    1.0860   19.2297  -18.1843 C   0  0  0  0  0  0  0  0  0  0  0  0
    1.1937   20.5814  -17.7558 N   0  0  0  0  0  0  0  0  0  0  0  0
    0.5381   21.4603  -18.7645 C   0  0  0  0  0  0  0  0  0  0  0  0
    1.7825   21.1213  -16.6192 C   0  0  0  0  0  0  0  0  0  0  0  0
    1.7295   22.4099  -16.4807 O   0  0  0  0  0  0  0  0  0  0  0  0
    2.4450   20.4168  -15.5761 C   0  0  0  0  0  0  0  0  0  0  0  0
    3.6708   20.0108  -15.4365 C   0  0  0  0  0  0  0  0  0  0  0  0
   -2.6862   22.6332  -24.9125 C   0  0  0  0  0  0  0  0  0  0  0  0
   -1.9759   22.2280  -24.0230 C   0  0  0  0  0  0  0  0  0  0  0  0
   -3.8586   24.0111  -28.2028 C   0  0  0  0  0  0  0  0  0  0  0  0
   -5.2102   24.0428  -28.0369 C   0  0  0  0  0  0  0  0  0  0  0  0
   -5.7344   23.6125  -26.8467 C   0  0  0  0  0  0  0  0  0  0  0  0
   -4.9328   23.1560  -25.8322 C   0  0  0  0  0  0  0  0  0  0  0  0
   -3.5400   23.1083  -25.9649 C   0  0  0  0  0  0  0  0  0  0  0  0
   -3.0398   23.5473  -27.1724 C   0  0  0  0  0  0  0  0  0  0  0  0
   -3.7630   25.6098  -29.9928 C   0  0  0  0  0  0  0  0  0  0  0  0
   -3.2788   24.4323  -29.3796 O   0  0  0  0  0  0  0  0  0  0  0  0
   -7.0998   23.6384  -26.6636 O   0  0  0  0  0  0  0  0  0  0  0  0
   -7.7191   24.6395  -25.8630 C   0  0  0  0  0  0  0  0  0  0  0  0
 30 31  1  0  0  0
 31 24  1  0  0  0
 24 25  2  0  0  0
 25 26  1  0  0  0
 26 32  1  0  0  0
 32 33  1  0  0  0
 26 27  2  0  0  0
 27 28  1  0  0  0
 28 29  2  0  0  0
 28 22  1  0  0  0
 22 23  3  0  0  0
 23  1  1  0  0  0
  1  2  2  0  0  0
  2  3  1  0  0  0
  3 13  1  0  0  0
 13 14  1  0  0  0
 14 15  1  0  0  0
 15 16  1  0  0  0
 16 17  1  0  0  0
 16 18  1  0  0  0
 18 19  2  0  0  0
 18 20  1  0  0  0
 20 21  2  0  0  0
  3  4  1  0  0  0
  4  5  2  0  0  0
  5  6  1  0  0  0
  6  7  2  0  0  0
  7  8  1  0  0  0
  8  9  1  0  0  0
  8 10  2  0  0  0
 29 24  1  0  0  0
 10  1  1  0  0  0
 17 13  1  0  0  0
 10  4  1  0  0  0
  9 11  1  0  0  0
  9 12  1  0  0  0
M  END
> <minimizedAffinity>
-7.23657

> <CNNscore>
0.2781038582

> <CNNaffinity>
6.3466711044

> <CNN_VS>
1.7650337219

> <CNNaffinity_variance>
0.2642799318

$$$$
[H]C([H])=C([H])C(=O)N1C([H])([H])C([H])([H])[C@]([H])(n2c([H])c(C#Cc3c([H])c(OC([H])([H])[H])c([H])c(OC([H])([H])[H])c3[H])c3c(N([H])[H])nc([H])nc32)C1([H])[H]


 33 36  0  0  0  0  0  0  0  0999 V2000
   -0.4368   21.5148  -22.4291 C   0  0  0  0  0  0  0  0  0  0  0  0
   -0.6757   21.3017  -21.0873 C   0  0  0  0  0  0  0  0  0  0  0  0
    0.4548   20.9020  -20.4767 N   0  0  0  0  0  0  0  0  0  0  0  0
    1.4566   20.8418  -21.3894 C   0  0  0  0  0  0  0  0  0  0  0  0
    2.7574   20.5135  -21.3371 N   0  0  0  0  0  0  0  0  0  0  0  0
    3.5241   20.5497  -22.4423 C   0  0  0  0  0  0  0  0  0  0  0  0
    3.0256   20.9141  -23.6417 N   0  0  0  0  0  0  0  0  0  0  0  0
    1.7290   21.2459  -23.7154 C   0  0  0  0  0  0  0  0  0  0  0  0
    1.1170   21.6457  -24.9524 N   0  0  0  0  0  0  0  0  0  0  0  0
    0.8999   21.2243  -22.6072 C   0  0  0  0  0  0  0  0  0  0  0  0
    0.6198   20.8685  -25.4646 H   0  0  0  0  0  0  0  0  0  0  0  0
    1.1464   22.5978  -25.3275 H   0  0  0  0  0  0  0  0  0  0  0  0
    0.6510   20.5709  -19.0767 C   0  0  0  0  0  0  0  0  0  0  0  0
    1.4126   19.2880  -18.8958 C   0  0  0  0  0  0  0  0  0  0  0  0
    2.2641   19.5059  -17.6541 C   0  0  0  0  0  0  0  0  0  0  0  0
    2.2167   20.8846  -17.3089 N   0  0  0  0  0  0  0  0  0  0  0  0
    1.4175   21.6111  -18.3351 C   0  0  0  0  0  0  0  0  0  0  0  0
    2.7755   21.5630  -16.2329 C   0  0  0  0  0  0  0  0  0  0  0  0
    2.5657   22.8413  -16.1660 O   0  0  0  0  0  0  0  0  0  0  0  0
    3.5609   21.0123  -15.1827 C   0  0  0  0  0  0  0  0  0  0  0  0
    4.7633   20.5218  -15.1546 C   0  0  0  0  0  0  0  0  0  0  0  0
   -2.1106   22.2959  -24.3229 C   0  0  0  0  0  0  0  0  0  0  0  0
   -1.3375   21.9442  -23.4636 C   0  0  0  0  0  0  0  0  0  0  0  0
   -5.3057   23.1694  -26.0914 C   0  0  0  0  0  0  0  0  0  0  0  0
   -4.8641   23.5065  -27.3350 C   0  0  0  0  0  0  0  0  0  0  0  0
   -3.5197   23.4466  -27.5913 C   0  0  0  0  0  0  0  0  0  0  0  0
   -2.6220   23.0584  -26.6302 C   0  0  0  0  0  0  0  0  0  0  0  0
   -3.0374   22.7046  -25.3410 C   0  0  0  0  0  0  0  0  0  0  0  0
   -4.3950   22.7738  -25.1109 C   0  0  0  0  0  0  0  0  0  0  0  0
   -7.3018   24.4642  -25.7623 C   0  0  0  0  0  0  0  0  0  0  0  0
   -6.6472   23.2119  -25.7799 O   0  0  0  0  0  0  0  0  0  0  0  0
   -3.0574   23.7845  -28.8444 O   0  0  0  0  0  0  0  0  0  0  0  0
   -3.5776   24.9090  -29.5455 C   0  0  0  0  0  0  0  0  0  0  0  0
 30 31  1  0  0  0
 31 24  1  0  0  0
 24 25  2  0  0  0
 25 26  1  0  0  0
 26 32  1  0  0  0
 32 33  1  0  0  0
 26 27  2  0  0  0
 27 28  1  0  0  0
 28 29  2  0  0  0
 28 22  1  0  0  0
 22 23  3  0  0  0
 23  1  1  0  0  0
  1  2  2  0  0  0
  2  3  1  0  0  0
  3 13  1  0  0  0
 13 14  1  0  0  0
 14 15  1  0  0  0
 15 16  1  0  0  0
 16 17  1  0  0  0
 16 18  1  0  0  0
 18 19  2  0  0  0
 18 20  1  0  0  0
 20 21  2  0  0  0
  3  4  1  0  0  0
  4  5  2  0  0  0
  5  6  1  0  0  0
  6  7  2  0  0  0
  7  8  1  0  0  0
  8  9  1  0  0  0
  8 10  2  0  0  0
 29 24  1  0  0  0
 10  1  1  0  0  0
 17 13  1  0  0  0
 10  4  1  0  0  0
  9 11  1  0  0  0
  9 12  1  0  0  0
M  END
> <minimizedAffinity>
-6.96455

> <CNNscore>
0.2278930992

> <CNNaffinity>
6.1415472031

> <CNN_VS>
1.3996162415

> <CNNaffinity_variance>
0.2193858624

$$$$
[H]C([H])=C([H])C(=O)N1C([H])([H])C([H])([H])[C@]([H])(n2c([H])c(C#Cc3c([H])c(OC([H])([H])[H])c([H])c(OC([H])([H])[H])c3[H])c3c(N([H])[H])nc([H])nc32)C1([H])[H]


 33 36  0  0  0  0  0  0  0  0999 V2000
   -2.6310   22.8862  -23.2867 C   0  0  0  0  0  0  0  0  0  0  0  0
   -3.7845   23.4150  -23.8277 C   0  0  0  0  0  0  0  0  0  0  0  0
   -3.6693   23.4969  -25.1659 N   0  0  0  0  0  0  0  0  0  0  0  0
   -2.4512   23.0296  -25.5375 C   0  0  0  0  0  0  0  0  0  0  0  0
   -1.8195   22.8822  -26.7129 N   0  0  0  0  0  0  0  0  0  0  0  0
   -0.5750   22.3736  -26.7696 C   0  0  0  0  0  0  0  0  0  0  0  0
    0.0883   21.9921  -25.6586 N   0  0  0  0  0  0  0  0  0  0  0  0
   -0.5249   22.1310  -24.4747 C   0  0  0  0  0  0  0  0  0  0  0  0
    0.1087   21.7501  -23.2426 N   0  0  0  0  0  0  0  0  0  0  0  0
   -1.8038   22.6487  -24.3648 C   0  0  0  0  0  0  0  0  0  0  0  0
    0.5819   22.5430  -22.7318 H   0  0  0  0  0  0  0  0  0  0  0  0
    0.1150   20.7967  -22.8696 H   0  0  0  0  0  0  0  0  0  0  0  0
   -4.6428   23.9915  -26.1228 C   0  0  0  0  0  0  0  0  0  0  0  0
   -4.4374   25.4449  -26.4452 C   0  0  0  0  0  0  0  0  0  0  0  0
   -4.8076   25.5797  -27.9146 C   0  0  0  0  0  0  0  0  0  0  0  0
   -4.9427   24.2771  -28.4688 N   0  0  0  0  0  0  0  0  0  0  0  0
   -4.5946   23.2714  -27.4262 C   0  0  0  0  0  0  0  0  0  0  0  0
   -5.3226   23.8760  -29.7435 C   0  0  0  0  0  0  0  0  0  0  0  0
   -5.3622   22.6003  -29.9751 O   0  0  0  0  0  0  0  0  0  0  0  0
   -5.6777   24.7117  -30.8383 C   0  0  0  0  0  0  0  0  0  0  0  0
   -5.1326   25.7808  -31.3352 C   0  0  0  0  0  0  0  0  0  0  0  0
   -2.0090   22.3802  -20.7657 C   0  0  0  0  0  0  0  0  0  0  0  0
   -2.3020   22.6175  -21.9136 C   0  0  0  0  0  0  0  0  0  0  0  0
    0.0031   21.5431  -17.7079 C   0  0  0  0  0  0  0  0  0  0  0  0
   -0.9498   21.5129  -16.7351 C   0  0  0  0  0  0  0  0  0  0  0  0
   -2.2501   21.7670  -17.0836 C   0  0  0  0  0  0  0  0  0  0  0  0
   -2.6048   22.0478  -18.3780 C   0  0  0  0  0  0  0  0  0  0  0  0
   -1.6544   22.0879  -19.4051 C   0  0  0  0  0  0  0  0  0  0  0  0
   -0.3544   21.8284  -19.0263 C   0  0  0  0  0  0  0  0  0  0  0  0
    2.1681   20.7963  -18.4317 C   0  0  0  0  0  0  0  0  0  0  0  0
    1.3258   21.2949  -17.4125 O   0  0  0  0  0  0  0  0  0  0  0  0
   -3.2255   21.7403  -16.1109 O   0  0  0  0  0  0  0  0  0  0  0  0
   -4.1045   22.8429  -15.9154 C   0  0  0  0  0  0  0  0  0  0  0  0
 30 31  1  0  0  0
 31 24  1  0  0  0
 24 25  2  0  0  0
 25 26  1  0  0  0
 26 32  1  0  0  0
 32 33  1  0  0  0
 26 27  2  0  0  0
 27 28  1  0  0  0
 28 29  2  0  0  0
 28 22  1  0  0  0
 22 23  3  0  0  0
 23  1  1  0  0  0
  1  2  2  0  0  0
  2  3  1  0  0  0
  3 13  1  0  0  0
 13 14  1  0  0  0
 14 15  1  0  0  0
 15 16  1  0  0  0
 16 17  1  0  0  0
 16 18  1  0  0  0
 18 19  2  0  0  0
 18 20  1  0  0  0
 20 21  2  0  0  0
  3  4  1  0  0  0
  4  5  2  0  0  0
  5  6  1  0  0  0
  6  7  2  0  0  0
  7  8  1  0  0  0
  8  9  1  0  0  0
  8 10  2  0  0  0
 29 24  1  0  0  0
 10  1  1  0  0  0
 17 13  1  0  0  0
 10  4  1  0  0  0
  9 11  1  0  0  0
  9 12  1  0  0  0
M  END
> <minimizedAffinity>
-7.54447

> <CNNscore>
0.2022732049

> <CNNaffinity>
6.6426239014

> <CNN_VS>
1.3436248302

> <CNNaffinity_variance>
0.6203709245

$$$$
[H]c1nc2c([H])nc(N(c3c(F)c(OC([H])([H])[H])c([H])c(OC([H])([H])[H])c3F)C([H])([H])c3nc([H])c([H])n3S(=O)(=O)N(C([H])([H])[H])C([H])([H])[H])c([H])c2c([H])c1-c1c([H])nn(C([H])([H])[H])c1[H]


 41 45  0  0  0  0  0  0  0  0999 V2000
   -2.1225   21.5335  -22.1598 N   0  0  0  0  0  0  0  0  0  0  0  0
   -1.7634   21.8362  -23.4948 C   0  0  0  0  0  0  0  0  0  0  0  0
   -2.7044   22.2263  -24.3913 C   0  0  0  0  0  0  0  0  0  0  0  0
   -2.3024   22.5423  -25.6861 C   0  0  0  0  0  0  0  0  0  0  0  0
   -3.2644   22.9448  -26.6130 C   0  0  0  0  0  0  0  0  0  0  0  0
   -2.8700   23.2551  -27.8823 C   0  0  0  0  0  0  0  0  0  0  0  0
   -1.5309   23.1557  -28.1911 C   0  0  0  0  0  0  0  0  0  0  0  0
   -0.5904   22.7718  -27.3186 N   0  0  0  0  0  0  0  0  0  0  0  0
   -0.9734   22.4603  -26.0505 C   0  0  0  0  0  0  0  0  0  0  0  0
   -0.0516   22.0597  -25.1093 C   0  0  0  0  0  0  0  0  0  0  0  0
   -0.4768   21.7647  -23.8766 N   0  0  0  0  0  0  0  0  0  0  0  0
   -3.8678   23.6753  -28.8486 C   0  0  0  0  0  0  0  0  0  0  0  0
   -4.9507   22.9469  -29.2797 C   0  0  0  0  0  0  0  0  0  0  0  0
   -5.5865   23.7532  -30.1757 N   0  0  0  0  0  0  0  0  0  0  0  0
   -4.9480   24.8942  -30.2923 N   0  0  0  0  0  0  0  0  0  0  0  0
   -5.3046   26.0170  -31.1440 C   0  0  0  0  0  0  0  0  0  0  0  0
   -3.8795   24.8882  -29.4893 C   0  0  0  0  0  0  0  0  0  0  0  0
    0.7482   20.4780  -20.0835 C   0  0  0  0  0  0  0  0  0  0  0  0
    1.0492   21.6284  -19.4098 C   0  0  0  0  0  0  0  0  0  0  0  0
    0.3165   22.7732  -19.6209 C   0  0  0  0  0  0  0  0  0  0  0  0
   -0.7384   22.7209  -20.5406 C   0  0  0  0  0  0  0  0  0  0  0  0
   -1.4352   23.8496  -20.7184 F   0  0  0  0  0  0  0  0  0  0  0  0
   -1.0494   21.5841  -21.2181 C   0  0  0  0  0  0  0  0  0  0  0  0
   -0.2972   20.4586  -20.9834 C   0  0  0  0  0  0  0  0  0  0  0  0
   -0.5697   19.3036  -21.6340 F   0  0  0  0  0  0  0  0  0  0  0  0
    2.6367   19.0220  -20.6324 C   0  0  0  0  0  0  0  0  0  0  0  0
    1.5191   19.3305  -19.8405 O   0  0  0  0  0  0  0  0  0  0  0  0
    0.5909   23.9613  -18.9562 O   0  0  0  0  0  0  0  0  0  0  0  0
    1.8904   24.1378  -18.4267 C   0  0  0  0  0  0  0  0  0  0  0  0
   -3.4667   21.1832  -21.7066 C   0  0  0  0  0  0  0  0  0  0  0  0
   -3.7941   21.6890  -20.3675 C   0  0  0  0  0  0  0  0  0  0  0  0
   -3.5364   21.1747  -19.1671 N   0  0  0  0  0  0  0  0  0  0  0  0
   -4.0305   21.9573  -18.2257 C   0  0  0  0  0  0  0  0  0  0  0  0
   -4.6321   23.0212  -18.8386 C   0  0  0  0  0  0  0  0  0  0  0  0
   -4.4775   22.8431  -20.1821 N   0  0  0  0  0  0  0  0  0  0  0  0
   -5.0803   23.9886  -21.3176 S   0  0  0  0  0  0  0  0  0  0  0  0
   -5.8391   25.0781  -20.5899 O   0  0  0  0  0  0  0  0  0  0  0  0
   -3.9035   24.6213  -22.0330 O   0  0  0  0  0  0  0  0  0  0  0  0
   -6.0887   23.3232  -22.5083 N   0  0  0  0  0  0  0  0  0  0  0  0
   -6.0625   23.9215  -23.7934 C   0  0  0  0  0  0  0  0  0  0  0  0
   -7.4482   23.1091  -22.0540 C   0  0  0  0  0  0  0  0  0  0  0  0
 26 27  1  0  0  0
 27 18  1  0  0  0
 18 19  2  0  0  0
 19 20  1  0  0  0
 20 28  1  0  0  0
 28 29  1  0  0  0
 20 21  2  0  0  0
 21 22  1  0  0  0
 21 23  1  0  0  0
 23  1  1  0  0  0
  1 30  1  0  0  0
 30 31  1  0  0  0
 31 32  2  0  0  0
 32 33  1  0  0  0
 33 34  2  0  0  0
 34 35  1  0  0  0
 35 36  1  0  0  0
 36 37  2  0  0  0
 36 38  2  0  0  0
 36 39  1  0  0  0
 39 40  1  0  0  0
 39 41  1  0  0  0
  1  2  1  0  0  0
  2  3  2  0  0  0
  3  4  1  0  0  0
  4  5  2  0  0  0
  5  6  1  0  0  0
  6  7  2  0  0  0
  7  8  1  0  0  0
  8  9  2  0  0  0
  9 10  1  0  0  0
 10 11  2  0  0  0
  6 12  1  0  0  0
 12 13  1  0  0  0
 13 14  2  0  0  0
 14 15  1  0  0  0
 15 16  1  0  0  0
 15 17  1  0  0  0
 23 24  2  0  0  0
 24 25  1  0  0  0
 24 18  1  0  0  0
 35 31  1  0  0  0
 11  2  1  0  0  0
 17 12  2  0  0  0
  9  4  1  0  0  0
M  END
> <minimizedAffinity>
-8.46084

> <CNNscore>
0.4361138344

> <CNNaffinity>
8.0102024078

> <CNN_VS>
3.4933600426

> <CNNaffinity_variance>
0.0637556240

$$$$
[H]c1nc2c([H])nc(N(c3c(F)c(OC([H])([H])[H])c([H])c(OC([H])([H])[H])c3F)C([H])([H])c3nc([H])c([H])n3S(=O)(=O)N(C([H])([H])[H])C([H])([H])[H])c([H])c2c([H])c1-c1c([H])nn(C([H])([H])[H])c1[H]


 41 45  0  0  0  0  0  0  0  0999 V2000
   -2.0797   21.4828  -22.1524 N   0  0  0  0  0  0  0  0  0  0  0  0
   -1.7186   21.8039  -23.4825 C   0  0  0  0  0  0  0  0  0  0  0  0
   -2.6614   22.1849  -24.3811 C   0  0  0  0  0  0  0  0  0  0  0  0
   -2.2578   22.5196  -25.6707 C   0  0  0  0  0  0  0  0  0  0  0  0
   -3.2217   22.9129  -26.5995 C   0  0  0  0  0  0  0  0  0  0  0  0
   -2.8258   23.2417  -27.8637 C   0  0  0  0  0  0  0  0  0  0  0  0
   -1.4833   23.1692  -28.1655 C   0  0  0  0  0  0  0  0  0  0  0  0
   -0.5411   22.7947  -27.2910 N   0  0  0  0  0  0  0  0  0  0  0  0
   -0.9255   22.4650  -26.0279 C   0  0  0  0  0  0  0  0  0  0  0  0
   -0.0019   22.0727  -25.0849 C   0  0  0  0  0  0  0  0  0  0  0  0
   -0.4288   21.7591  -23.8574 N   0  0  0  0  0  0  0  0  0  0  0  0
   -3.8255   23.6523  -28.8321 C   0  0  0  0  0  0  0  0  0  0  0  0
   -4.9056   22.9172  -29.2587 C   0  0  0  0  0  0  0  0  0  0  0  0
   -5.5449   23.7158  -30.1591 N   0  0  0  0  0  0  0  0  0  0  0  0
   -4.9109   24.8587  -30.2824 N   0  0  0  0  0  0  0  0  0  0  0  0
   -5.2723   25.9751  -31.1404 C   0  0  0  0  0  0  0  0  0  0  0  0
   -3.8422   24.8615  -29.4798 C   0  0  0  0  0  0  0  0  0  0  0  0
    0.3372   22.6806  -19.6246 C   0  0  0  0  0  0  0  0  0  0  0  0
    1.0710   21.5542  -19.3777 C   0  0  0  0  0  0  0  0  0  0  0  0
    0.7899   20.3796  -20.0358 C   0  0  0  0  0  0  0  0  0  0  0  0
   -0.2634   20.3764  -20.9587 C   0  0  0  0  0  0  0  0  0  0  0  0
   -0.5071   19.2198  -21.5863 F   0  0  0  0  0  0  0  0  0  0  0  0
   -1.0021   21.4887  -21.2145 C   0  0  0  0  0  0  0  0  0  0  0  0
   -0.6946   22.6452  -20.5396 C   0  0  0  0  0  0  0  0  0  0  0  0
   -1.4018   23.7775  -20.7615 F   0  0  0  0  0  0  0  0  0  0  0  0
    1.9584   24.1064  -18.4729 C   0  0  0  0  0  0  0  0  0  0  0  0
    0.6550   23.8599  -18.9330 O   0  0  0  0  0  0  0  0  0  0  0  0
    1.5122   19.2145  -19.8127 O   0  0  0  0  0  0  0  0  0  0  0  0
    2.6879   19.0100  -20.5716 C   0  0  0  0  0  0  0  0  0  0  0  0
   -3.4302   21.1555  -21.7005 C   0  0  0  0  0  0  0  0  0  0  0  0
   -3.7436   21.6500  -20.3538 C   0  0  0  0  0  0  0  0  0  0  0  0
   -3.4669   21.1292  -19.1605 N   0  0  0  0  0  0  0  0  0  0  0  0
   -3.9539   21.9021  -18.2074 C   0  0  0  0  0  0  0  0  0  0  0  0
   -4.5704   22.9661  -18.8050 C   0  0  0  0  0  0  0  0  0  0  0  0
   -4.4321   22.7982  -20.1517 N   0  0  0  0  0  0  0  0  0  0  0  0
   -5.0571   23.9474  -21.2713 S   0  0  0  0  0  0  0  0  0  0  0  0
   -5.7856   25.0442  -20.5240 O   0  0  0  0  0  0  0  0  0  0  0  0
   -3.8958   24.5690  -22.0209 O   0  0  0  0  0  0  0  0  0  0  0  0
   -6.1047   23.2891  -22.4318 N   0  0  0  0  0  0  0  0  0  0  0  0
   -6.7576   24.1928  -23.3077 C   0  0  0  0  0  0  0  0  0  0  0  0
   -7.0345   22.3227  -21.8824 C   0  0  0  0  0  0  0  0  0  0  0  0
 26 27  1  0  0  0
 27 18  1  0  0  0
 18 19  2  0  0  0
 19 20  1  0  0  0
 20 28  1  0  0  0
 28 29  1  0  0  0
 20 21  2  0  0  0
 21 22  1  0  0  0
 21 23  1  0  0  0
 23  1  1  0  0  0
  1 30  1  0  0  0
 30 31  1  0  0  0
 31 32  2  0  0  0
 32 33  1  0  0  0
 33 34  2  0  0  0
 34 35  1  0  0  0
 35 36  1  0  0  0
 36 37  2  0  0  0
 36 38  2  0  0  0
 36 39  1  0  0  0
 39 40  1  0  0  0
 39 41  1  0  0  0
  1  2  1  0  0  0
  2  3  2  0  0  0
  3  4  1  0  0  0
  4  5  2  0  0  0
  5  6  1  0  0  0
  6  7  2  0  0  0
  7  8  1  0  0  0
  8  9  2  0  0  0
  9 10  1  0  0  0
 10 11  2  0  0  0
  6 12  1  0  0  0
 12 13  1  0  0  0
 13 14  2  0  0  0
 14 15  1  0  0  0
 15 16  1  0  0  0
 15 17  1  0  0  0
 23 24  2  0  0  0
 24 25  1  0  0  0
 24 18  1  0  0  0
 35 31  1  0  0  0
 11  2  1  0  0  0
 17 12  2  0  0  0
  9  4  1  0  0  0
M  END
> <minimizedAffinity>
-8.43038

> <CNNscore>
0.4271650910

> <CNNaffinity>
7.9826173782

> <CNN_VS>
3.4098954201

> <CNNaffinity_variance>
0.0521721914

$$$$
[H]c1nc2c([H])nc(N(c3c(F)c(OC([H])([H])[H])c([H])c(OC([H])([H])[H])c3F)C([H])([H])c3nc([H])c([H])n3S(=O)(=O)N(C([H])([H])[H])C([H])([H])[H])c([H])c2c([H])c1-c1c([H])nn(C([H])([H])[H])c1[H]


 41 45  0  0  0  0  0  0  0  0999 V2000
    0.3016   20.7925  -20.5831 N   0  0  0  0  0  0  0  0  0  0  0  0
    0.2911   21.1290  -21.9576 C   0  0  0  0  0  0  0  0  0  0  0  0
   -0.8703   21.4522  -22.5805 C   0  0  0  0  0  0  0  0  0  0  0  0
   -0.8302   21.8049  -23.9266 C   0  0  0  0  0  0  0  0  0  0  0  0
   -2.0205   22.1390  -24.5732 C   0  0  0  0  0  0  0  0  0  0  0  0
   -1.9809   22.4854  -25.8928 C   0  0  0  0  0  0  0  0  0  0  0  0
   -0.7587   22.4888  -26.5291 C   0  0  0  0  0  0  0  0  0  0  0  0
    0.3957   22.1719  -25.9293 N   0  0  0  0  0  0  0  0  0  0  0  0
    0.3669   21.8252  -24.6136 C   0  0  0  0  0  0  0  0  0  0  0  0
    1.5219   21.4898  -23.9430 C   0  0  0  0  0  0  0  0  0  0  0  0
    1.4422   21.1567  -22.6507 N   0  0  0  0  0  0  0  0  0  0  0  0
   -3.2168   22.8347  -26.5683 C   0  0  0  0  0  0  0  0  0  0  0  0
   -3.3986   22.9821  -27.9227 C   0  0  0  0  0  0  0  0  0  0  0  0
   -4.7131   23.3095  -28.0706 N   0  0  0  0  0  0  0  0  0  0  0  0
   -5.3025   23.3614  -26.8988 N   0  0  0  0  0  0  0  0  0  0  0  0
   -6.6962   23.6757  -26.6300 C   0  0  0  0  0  0  0  0  0  0  0  0
   -4.4138   23.0745  -25.9426 C   0  0  0  0  0  0  0  0  0  0  0  0
    3.6723   20.7520  -19.0656 C   0  0  0  0  0  0  0  0  0  0  0  0
    3.7400   21.9907  -18.4919 C   0  0  0  0  0  0  0  0  0  0  0  0
    2.6817   22.8639  -18.5891 C   0  0  0  0  0  0  0  0  0  0  0  0
    1.5432   22.4452  -19.2890 C   0  0  0  0  0  0  0  0  0  0  0  0
    0.5292   23.3157  -19.3600 F   0  0  0  0  0  0  0  0  0  0  0  0
    1.4615   21.2165  -19.8650 C   0  0  0  0  0  0  0  0  0  0  0  0
    2.5366   20.3691  -19.7488 C   0  0  0  0  0  0  0  0  0  0  0  0
    2.5012   19.1359  -20.3052 F   0  0  0  0  0  0  0  0  0  0  0  0
    5.7845   19.8573  -19.9175 C   0  0  0  0  0  0  0  0  0  0  0  0
    4.7729   19.8895  -18.9443 O   0  0  0  0  0  0  0  0  0  0  0  0
    2.7119   24.1305  -18.0201 O   0  0  0  0  0  0  0  0  0  0  0  0
    3.8522   24.4887  -17.2642 C   0  0  0  0  0  0  0  0  0  0  0  0
   -0.7557   20.0649  -19.8846 C   0  0  0  0  0  0  0  0  0  0  0  0
   -0.9605   20.4991  -18.4968 C   0  0  0  0  0  0  0  0  0  0  0  0
   -0.3469   20.1205  -17.3779 N   0  0  0  0  0  0  0  0  0  0  0  0
   -0.8619   20.7585  -16.3432 C   0  0  0  0  0  0  0  0  0  0  0  0
   -1.8480   21.5835  -16.8084 C   0  0  0  0  0  0  0  0  0  0  0  0
   -1.9010   21.4132  -18.1608 N   0  0  0  0  0  0  0  0  0  0  0  0
   -3.0088   22.2988  -19.1371 S   0  0  0  0  0  0  0  0  0  0  0  0
   -3.8831   23.1674  -18.2576 O   0  0  0  0  0  0  0  0  0  0  0  0
   -2.2183   23.1998  -20.0647 O   0  0  0  0  0  0  0  0  0  0  0  0
   -4.0050   21.3311  -20.1112 N   0  0  0  0  0  0  0  0  0  0  0  0
   -4.4067   21.8622  -21.3629 C   0  0  0  0  0  0  0  0  0  0  0  0
   -5.1290   20.7620  -19.3947 C   0  0  0  0  0  0  0  0  0  0  0  0
 26 27  1  0  0  0
 27 18  1  0  0  0
 18 19  2  0  0  0
 19 20  1  0  0  0
 20 28  1  0  0  0
 28 29  1  0  0  0
 20 21  2  0  0  0
 21 22  1  0  0  0
 21 23  1  0  0  0
 23  1  1  0  0  0
  1 30  1  0  0  0
 30 31  1  0  0  0
 31 32  2  0  0  0
 32 33  1  0  0  0
 33 34  2  0  0  0
 34 35  1  0  0  0
 35 36  1  0  0  0
 36 37  2  0  0  0
 36 38  2  0  0  0
 36 39  1  0  0  0
 39 40  1  0  0  0
 39 41  1  0  0  0
  1  2  1  0  0  0
  2  3  2  0  0  0
  3  4  1  0  0  0
  4  5  2  0  0  0
  5  6  1  0  0  0
  6  7  2  0  0  0
  7  8  1  0  0  0
  8  9  2  0  0  0
  9 10  1  0  0  0
 10 11  2  0  0  0
  6 12  1  0  0  0
 12 13  1  0  0  0
 13 14  2  0  0  0
 14 15  1  0  0  0
 15 16  1  0  0  0
 15 17  1  0  0  0
 23 24  2  0  0  0
 24 25  1  0  0  0
 24 18  1  0  0  0
 35 31  1  0  0  0
 11  2  1  0  0  0
 17 12  2  0  0  0
  9  4  1  0  0  0
M  END
> <minimizedAffinity>
-7.76133

> <CNNscore>
0.2955620289

> <CNNaffinity>
7.3249793053

> <CNN_VS>
2.1649856567

> <CNNaffinity_variance>
0.1560252309

$$$$
[H]c1nc2c([H])nc(N(c3c(F)c(OC([H])([H])[H])c([H])c(OC([H])([H])[H])c3F)C([H])([H])c3nc([H])c([H])n3S(=O)(=O)N(C([H])([H])[H])C([H])([H])[H])c([H])c2c([H])c1-c1c([H])nn(C([H])([H])[H])c1[H]


 41 45  0  0  0  0  0  0  0  0999 V2000
   -4.9563   23.1377  -23.9660 N   0  0  0  0  0  0  0  0  0  0  0  0
   -3.5897   22.7703  -23.9606 C   0  0  0  0  0  0  0  0  0  0  0  0
   -3.0337   22.1952  -22.8644 C   0  0  0  0  0  0  0  0  0  0  0  0
   -1.6931   21.8233  -22.9131 C   0  0  0  0  0  0  0  0  0  0  0  0
   -1.1151   21.2309  -21.7900 C   0  0  0  0  0  0  0  0  0  0  0  0
    0.1992   20.8657  -21.8381 C   0  0  0  0  0  0  0  0  0  0  0  0
    0.8985   21.1009  -23.0018 C   0  0  0  0  0  0  0  0  0  0  0  0
    0.3651   21.6677  -24.0914 N   0  0  0  0  0  0  0  0  0  0  0  0
   -0.9446   22.0353  -24.0536 C   0  0  0  0  0  0  0  0  0  0  0  0
   -1.5485   22.6222  -25.1431 C   0  0  0  0  0  0  0  0  0  0  0  0
   -2.8378   22.9653  -25.0573 N   0  0  0  0  0  0  0  0  0  0  0  0
    0.8034   20.2482  -20.6722 C   0  0  0  0  0  0  0  0  0  0  0  0
    0.5131   20.5196  -19.3565 C   0  0  0  0  0  0  0  0  0  0  0  0
    1.3277   19.6978  -18.6367 N   0  0  0  0  0  0  0  0  0  0  0  0
    2.0670   18.9719  -19.4428 N   0  0  0  0  0  0  0  0  0  0  0  0
    3.0591   17.9778  -19.0678 C   0  0  0  0  0  0  0  0  0  0  0  0
    1.7749   19.2804  -20.7101 C   0  0  0  0  0  0  0  0  0  0  0  0
   -5.9461   24.0238  -20.5162 C   0  0  0  0  0  0  0  0  0  0  0  0
   -6.8351   23.0311  -20.2123 C   0  0  0  0  0  0  0  0  0  0  0  0
   -7.1270   22.0501  -21.1311 C   0  0  0  0  0  0  0  0  0  0  0  0
   -6.4889   22.1019  -22.3767 C   0  0  0  0  0  0  0  0  0  0  0  0
   -6.7901   21.1296  -23.2456 F   0  0  0  0  0  0  0  0  0  0  0  0
   -5.6027   23.0831  -22.6932 C   0  0  0  0  0  0  0  0  0  0  0  0
   -5.3339   24.0474  -21.7522 C   0  0  0  0  0  0  0  0  0  0  0  0
   -4.4584   25.0435  -22.0218 F   0  0  0  0  0  0  0  0  0  0  0  0
   -6.0569   24.8383  -18.2114 C   0  0  0  0  0  0  0  0  0  0  0  0
   -5.6743   25.0068  -19.5518 O   0  0  0  0  0  0  0  0  0  0  0  0
   -8.0242   21.0251  -20.8603 O   0  0  0  0  0  0  0  0  0  0  0  0
   -8.8081   21.1252  -19.6875 C   0  0  0  0  0  0  0  0  0  0  0  0
   -5.7148   23.5483  -25.1455 C   0  0  0  0  0  0  0  0  0  0  0  0
   -5.4980   24.9473  -25.5356 C   0  0  0  0  0  0  0  0  0  0  0  0
   -5.5060   26.0564  -24.7997 N   0  0  0  0  0  0  0  0  0  0  0  0
   -5.2799   27.1075  -25.5658 C   0  0  0  0  0  0  0  0  0  0  0  0
   -5.1185   26.6636  -26.8489 C   0  0  0  0  0  0  0  0  0  0  0  0
   -5.2568   25.3069  -26.8184 N   0  0  0  0  0  0  0  0  0  0  0  0
   -5.0989   24.3534  -28.2435 S   0  0  0  0  0  0  0  0  0  0  0  0
   -3.8639   23.4835  -28.1415 O   0  0  0  0  0  0  0  0  0  0  0  0
   -6.3116   23.4512  -28.3552 O   0  0  0  0  0  0  0  0  0  0  0  0
   -5.0142   25.2551  -29.6779 N   0  0  0  0  0  0  0  0  0  0  0  0
   -5.7304   24.7649  -30.7990 C   0  0  0  0  0  0  0  0  0  0  0  0
   -3.6623   25.6318  -30.0394 C   0  0  0  0  0  0  0  0  0  0  0  0
 26 27  1  0  0  0
 27 18  1  0  0  0
 18 19  2  0  0  0
 19 20  1  0  0  0
 20 28  1  0  0  0
 28 29  1  0  0  0
 20 21  2  0  0  0
 21 22  1  0  0  0
 21 23  1  0  0  0
 23  1  1  0  0  0
  1 30  1  0  0  0
 30 31  1  0  0  0
 31 32  2  0  0  0
 32 33  1  0  0  0
 33 34  2  0  0  0
 34 35  1  0  0  0
 35 36  1  0  0  0
 36 37  2  0  0  0
 36 38  2  0  0  0
 36 39  1  0  0  0
 39 40  1  0  0  0
 39 41  1  0  0  0
  1  2  1  0  0  0
  2  3  2  0  0  0
  3  4  1  0  0  0
  4  5  2  0  0  0
  5  6  1  0  0  0
  6  7  2  0  0  0
  7  8  1  0  0  0
  8  9  2  0  0  0
  9 10  1  0  0  0
 10 11  2  0  0  0
  6 12  1  0  0  0
 12 13  1  0  0  0
 13 14  2  0  0  0
 14 15  1  0  0  0
 15 16  1  0  0  0
 15 17  1  0  0  0
 23 24  2  0  0  0
 24 25  1  0  0  0
 24 18  1  0  0  0
 35 31  1  0  0  0
 11  2  1  0  0  0
 17 12  2  0  0  0
  9  4  1  0  0  0
M  END
> <minimizedAffinity>
-8.18522

> <CNNscore>
0.2774152756

> <CNNaffinity>
7.5725646019

> <CNN_VS>
2.1007452011

> <CNNaffinity_variance>
0.2916045785

$$$$
[H]c1nc2c([H])nc(N(c3c(F)c(OC([H])([H])[H])c([H])c(OC([H])([H])[H])c3F)C([H])([H])c3nc([H])c([H])n3S(=O)(=O)N(C([H])([H])[H])C([H])([H])[H])c([H])c2c([H])c1-c1c([H])nn(C([H])([H])[H])c1[H]


 41 45  0  0  0  0  0  0  0  0999 V2000
   -4.9384   23.1475  -23.9583 N   0  0  0  0  0  0  0  0  0  0  0  0
   -3.5738   22.7735  -23.9374 C   0  0  0  0  0  0  0  0  0  0  0  0
   -3.0327   22.1969  -22.8346 C   0  0  0  0  0  0  0  0  0  0  0  0
   -1.6934   21.8184  -22.8682 C   0  0  0  0  0  0  0  0  0  0  0  0
   -1.1307   21.2243  -21.7382 C   0  0  0  0  0  0  0  0  0  0  0  0
    0.1822   20.8528  -21.7714 C   0  0  0  0  0  0  0  0  0  0  0  0
    0.8955   21.0835  -22.9275 C   0  0  0  0  0  0  0  0  0  0  0  0
    0.3768   21.6517  -24.0234 N   0  0  0  0  0  0  0  0  0  0  0  0
   -0.9314   22.0257  -24.0004 C   0  0  0  0  0  0  0  0  0  0  0  0
   -1.5204   22.6144  -25.0971 C   0  0  0  0  0  0  0  0  0  0  0  0
   -2.8088   22.9638  -25.0259 N   0  0  0  0  0  0  0  0  0  0  0  0
    0.7705   20.2336  -20.5983 C   0  0  0  0  0  0  0  0  0  0  0  0
    0.4580   20.4986  -19.2863 C   0  0  0  0  0  0  0  0  0  0  0  0
    1.2647   19.6778  -18.5567 N   0  0  0  0  0  0  0  0  0  0  0  0
    2.0201   18.9583  -19.3536 N   0  0  0  0  0  0  0  0  0  0  0  0
    3.0106   17.9672  -18.9665 C   0  0  0  0  0  0  0  0  0  0  0  0
    1.7469   19.2703  -20.6242 C   0  0  0  0  0  0  0  0  0  0  0  0
   -7.0995   22.0599  -21.1631 C   0  0  0  0  0  0  0  0  0  0  0  0
   -6.8752   23.0372  -20.2343 C   0  0  0  0  0  0  0  0  0  0  0  0
   -6.0125   24.0735  -20.5057 C   0  0  0  0  0  0  0  0  0  0  0  0
   -5.3776   24.0937  -21.7539 C   0  0  0  0  0  0  0  0  0  0  0  0
   -4.5494   25.1183  -21.9888 F   0  0  0  0  0  0  0  0  0  0  0  0
   -5.5906   23.1286  -22.6874 C   0  0  0  0  0  0  0  0  0  0  0  0
   -6.4585   22.1078  -22.3837 C   0  0  0  0  0  0  0  0  0  0  0  0
   -6.7024   21.1250  -23.2816 F   0  0  0  0  0  0  0  0  0  0  0  0
   -8.3219   20.7237  -19.5175 C   0  0  0  0  0  0  0  0  0  0  0  0
   -7.9870   21.0190  -20.8487 O   0  0  0  0  0  0  0  0  0  0  0  0
   -5.7584   25.0852  -19.5887 O   0  0  0  0  0  0  0  0  0  0  0  0
   -5.9976   24.8136  -18.2215 C   0  0  0  0  0  0  0  0  0  0  0  0
   -5.6898   23.5316  -25.1512 C   0  0  0  0  0  0  0  0  0  0  0  0
   -5.4969   24.9312  -25.5514 C   0  0  0  0  0  0  0  0  0  0  0  0
   -5.5150   26.0445  -24.8220 N   0  0  0  0  0  0  0  0  0  0  0  0
   -5.3109   27.0942  -25.5962 C   0  0  0  0  0  0  0  0  0  0  0  0
   -5.1539   26.6450  -26.8779 C   0  0  0  0  0  0  0  0  0  0  0  0
   -5.2719   25.2866  -26.8384 N   0  0  0  0  0  0  0  0  0  0  0  0
   -5.1120   24.3270  -28.2591 S   0  0  0  0  0  0  0  0  0  0  0  0
   -3.8773   23.4573  -28.1515 O   0  0  0  0  0  0  0  0  0  0  0  0
   -6.3247   23.4246  -28.3688 O   0  0  0  0  0  0  0  0  0  0  0  0
   -5.0251   25.2226  -29.6971 N   0  0  0  0  0  0  0  0  0  0  0  0
   -5.6941   24.6991  -30.8323 C   0  0  0  0  0  0  0  0  0  0  0  0
   -3.6794   25.6474  -30.0275 C   0  0  0  0  0  0  0  0  0  0  0  0
 26 27  1  0  0  0
 27 18  1  0  0  0
 18 19  2  0  0  0
 19 20  1  0  0  0
 20 28  1  0  0  0
 28 29  1  0  0  0
 20 21  2  0  0  0
 21 22  1  0  0  0
 21 23  1  0  0  0
 23  1  1  0  0  0
  1 30  1  0  0  0
 30 31  1  0  0  0
 31 32  2  0  0  0
 32 33  1  0  0  0
 33 34  2  0  0  0
 34 35  1  0  0  0
 35 36  1  0  0  0
 36 37  2  0  0  0
 36 38  2  0  0  0
 36 39  1  0  0  0
 39 40  1  0  0  0
 39 41  1  0  0  0
  1  2  1  0  0  0
  2  3  2  0  0  0
  3  4  1  0  0  0
  4  5  2  0  0  0
  5  6  1  0  0  0
  6  7  2  0  0  0
  7  8  1  0  0  0
  8  9  2  0  0  0
  9 10  1  0  0  0
 10 11  2  0  0  0
  6 12  1  0  0  0
 12 13  1  0  0  0
 13 14  2  0  0  0
 14 15  1  0  0  0
 15 16  1  0  0  0
 15 17  1  0  0  0
 23 24  2  0  0  0
 24 25  1  0  0  0
 24 18  1  0  0  0
 35 31  1  0  0  0
 11  2  1  0  0  0
 17 12  2  0  0  0
  9  4  1  0  0  0
M  END
> <minimizedAffinity>
-8.13459

> <CNNscore>
0.2533002198

> <CNNaffinity>
7.5091705322

> <CNN_VS>
1.9020745754

> <CNNaffinity_variance>
0.3015853763

$$$$
[H]c1nc2c([H])nc(N(c3c(F)c(OC([H])([H])[H])c([H])c(OC([H])([H])[H])c3F)C([H])([H])c3nc([H])c([H])n3S(=O)(=O)N(C([H])([H])[H])C([H])([H])[H])c([H])c2c([H])c1-c1c([H])nn(C([H])([H])[H])c1[H]


 41 45  0  0  0  0  0  0  0  0999 V2000
    0.3864   20.7412  -20.7324 N   0  0  0  0  0  0  0  0  0  0  0  0
    0.3528   21.1078  -22.0988 C   0  0  0  0  0  0  0  0  0  0  0  0
   -0.8249   21.3995  -22.7066 C   0  0  0  0  0  0  0  0  0  0  0  0
   -0.8084   21.7837  -24.0446 C   0  0  0  0  0  0  0  0  0  0  0  0
   -2.0155   22.0858  -24.6757 C   0  0  0  0  0  0  0  0  0  0  0  0
   -1.9991   22.4630  -25.9873 C   0  0  0  0  0  0  0  0  0  0  0  0
   -0.7827   22.5283  -26.6313 C   0  0  0  0  0  0  0  0  0  0  0  0
    0.3875   22.2432  -26.0463 N   0  0  0  0  0  0  0  0  0  0  0  0
    0.3819   21.8661  -24.7388 C   0  0  0  0  0  0  0  0  0  0  0  0
    1.5539   21.5609  -24.0835 C   0  0  0  0  0  0  0  0  0  0  0  0
    1.4968   21.1960  -22.7986 N   0  0  0  0  0  0  0  0  0  0  0  0
   -3.2526   22.7791  -26.6466 C   0  0  0  0  0  0  0  0  0  0  0  0
   -4.4678   22.9918  -26.0408 C   0  0  0  0  0  0  0  0  0  0  0  0
   -5.3322   23.2529  -27.0615 N   0  0  0  0  0  0  0  0  0  0  0  0
   -4.7026   23.2060  -28.2125 N   0  0  0  0  0  0  0  0  0  0  0  0
   -5.2694   23.4266  -29.5329 C   0  0  0  0  0  0  0  0  0  0  0  0
   -3.4150   22.9162  -28.0019 C   0  0  0  0  0  0  0  0  0  0  0  0
    3.8183   20.4901  -19.3815 C   0  0  0  0  0  0  0  0  0  0  0  0
    3.9568   21.6862  -18.7347 C   0  0  0  0  0  0  0  0  0  0  0  0
    2.9276   22.5987  -18.7267 C   0  0  0  0  0  0  0  0  0  0  0  0
    1.7443   22.2644  -19.3970 C   0  0  0  0  0  0  0  0  0  0  0  0
    0.7605   23.1711  -19.3650 F   0  0  0  0  0  0  0  0  0  0  0  0
    1.5922   21.0789  -20.0447 C   0  0  0  0  0  0  0  0  0  0  0  0
    2.6399   20.1902  -20.0330 C   0  0  0  0  0  0  0  0  0  0  0  0
    2.5345   18.9974  -20.6636 F   0  0  0  0  0  0  0  0  0  0  0  0
    5.0465   18.6556  -18.3261 C   0  0  0  0  0  0  0  0  0  0  0  0
    4.8911   19.5852  -19.3668 O   0  0  0  0  0  0  0  0  0  0  0  0
    3.0295   23.8242  -18.0811 O   0  0  0  0  0  0  0  0  0  0  0  0
    3.3068   23.8199  -16.6943 C   0  0  0  0  0  0  0  0  0  0  0  0
   -0.6904   20.0631  -20.0142 C   0  0  0  0  0  0  0  0  0  0  0  0
   -1.4595   20.9432  -19.1252 C   0  0  0  0  0  0  0  0  0  0  0  0
   -2.2397   21.9835  -19.4095 N   0  0  0  0  0  0  0  0  0  0  0  0
   -2.7256   22.5003  -18.2961 C   0  0  0  0  0  0  0  0  0  0  0  0
   -2.2423   21.7670  -17.2482 C   0  0  0  0  0  0  0  0  0  0  0  0
   -1.4495   20.7925  -17.7797 N   0  0  0  0  0  0  0  0  0  0  0  0
   -0.6611   19.6301  -16.7835 S   0  0  0  0  0  0  0  0  0  0  0  0
    0.8346   19.6950  -17.0090 O   0  0  0  0  0  0  0  0  0  0  0  0
   -0.9416   19.9704  -15.3335 O   0  0  0  0  0  0  0  0  0  0  0  0
   -1.1816   18.0347  -17.0311 N   0  0  0  0  0  0  0  0  0  0  0  0
   -0.3348   17.1824  -17.7840 C   0  0  0  0  0  0  0  0  0  0  0  0
   -2.5563   17.9433  -17.4808 C   0  0  0  0  0  0  0  0  0  0  0  0
 26 27  1  0  0  0
 27 18  1  0  0  0
 18 19  2  0  0  0
 19 20  1  0  0  0
 20 28  1  0  0  0
 28 29  1  0  0  0
 20 21  2  0  0  0
 21 22  1  0  0  0
 21 23  1  0  0  0
 23  1  1  0  0  0
  1 30  1  0  0  0
 30 31  1  0  0  0
 31 32  2  0  0  0
 32 33  1  0  0  0
 33 34  2  0  0  0
 34 35  1  0  0  0
 35 36  1  0  0  0
 36 37  2  0  0  0
 36 38  2  0  0  0
 36 39  1  0  0  0
 39 40  1  0  0  0
 39 41  1  0  0  0
  1  2  1  0  0  0
  2  3  2  0  0  0
  3  4  1  0  0  0
  4  5  2  0  0  0
  5  6  1  0  0  0
  6  7  2  0  0  0
  7  8  1  0  0  0
  8  9  2  0  0  0
  9 10  1  0  0  0
 10 11  2  0  0  0
  6 12  1  0  0  0
 12 13  1  0  0  0
 13 14  2  0  0  0
 14 15  1  0  0  0
 15 16  1  0  0  0
 15 17  1  0  0  0
 23 24  2  0  0  0
 24 25  1  0  0  0
 24 18  1  0  0  0
 35 31  1  0  0  0
 11  2  1  0  0  0
 17 12  2  0  0  0
  9  4  1  0  0  0
M  END
> <minimizedAffinity>
-6.95814

> <CNNscore>
0.1988188922

> <CNNaffinity>
7.1958093643

> <CNN_VS>
1.4306628704

> <CNNaffinity_variance>
0.0377657190

$$$$
[H]c1nc2c([H])nc(N(c3c(F)c(OC([H])([H])[H])c([H])c(OC([H])([H])[H])c3F)C([H])([H])c3nc([H])c([H])n3S(=O)(=O)N(C([H])([H])[H])C([H])([H])[H])c([H])c2c([H])c1-c1c([H])nn(C([H])([H])[H])c1[H]


 41 45  0  0  0  0  0  0  0  0999 V2000
   -2.8839   21.9564  -23.5904 N   0  0  0  0  0  0  0  0  0  0  0  0
   -1.4804   21.8067  -23.4886 C   0  0  0  0  0  0  0  0  0  0  0  0
   -0.9304   21.1532  -22.4341 C   0  0  0  0  0  0  0  0  0  0  0  0
    0.4529   21.0039  -22.3891 C   0  0  0  0  0  0  0  0  0  0  0  0
    1.0251   20.3324  -21.3083 C   0  0  0  0  0  0  0  0  0  0  0  0
    2.3814   20.1856  -21.2645 C   0  0  0  0  0  0  0  0  0  0  0  0
    3.1272   20.7111  -22.2970 C   0  0  0  0  0  0  0  0  0  0  0  0
    2.6002   21.3590  -23.3437 N   0  0  0  0  0  0  0  0  0  0  0  0
    1.2489   21.5106  -23.3967 C   0  0  0  0  0  0  0  0  0  0  0  0
    0.6494   22.1673  -24.4481 C   0  0  0  0  0  0  0  0  0  0  0  0
   -0.6818   22.2903  -24.4553 N   0  0  0  0  0  0  0  0  0  0  0  0
    2.9799   19.4867  -20.1424 C   0  0  0  0  0  0  0  0  0  0  0  0
    3.1154   18.1263  -20.0006 C   0  0  0  0  0  0  0  0  0  0  0  0
    3.7309   17.9547  -18.7969 N   0  0  0  0  0  0  0  0  0  0  0  0
    3.9601   19.1185  -18.2344 N   0  0  0  0  0  0  0  0  0  0  0  0
    4.5967   19.3630  -16.9505 C   0  0  0  0  0  0  0  0  0  0  0  0
    3.5117   20.0924  -19.0323 C   0  0  0  0  0  0  0  0  0  0  0  0
   -4.0274   25.1645  -25.0281 C   0  0  0  0  0  0  0  0  0  0  0  0
   -4.1647   24.8496  -26.3510 C   0  0  0  0  0  0  0  0  0  0  0  0
   -3.8870   23.5790  -26.7986 C   0  0  0  0  0  0  0  0  0  0  0  0
   -3.4630   22.6277  -25.8623 C   0  0  0  0  0  0  0  0  0  0  0  0
   -3.2069   21.3998  -26.3290 F   0  0  0  0  0  0  0  0  0  0  0  0
   -3.3215   22.9263  -24.5436 C   0  0  0  0  0  0  0  0  0  0  0  0
   -3.6073   24.2050  -24.1303 C   0  0  0  0  0  0  0  0  0  0  0  0
   -3.4817   24.5488  -22.8273 F   0  0  0  0  0  0  0  0  0  0  0  0
   -5.3486   27.2160  -25.2110 C   0  0  0  0  0  0  0  0  0  0  0  0
   -4.3206   26.4719  -24.6102 O   0  0  0  0  0  0  0  0  0  0  0  0
   -4.0143   23.2199  -28.1342 O   0  0  0  0  0  0  0  0  0  0  0  0
   -4.1098   24.2567  -29.0913 C   0  0  0  0  0  0  0  0  0  0  0  0
   -3.8704   21.2133  -22.8095 C   0  0  0  0  0  0  0  0  0  0  0  0
   -4.2468   21.8664  -21.5493 C   0  0  0  0  0  0  0  0  0  0  0  0
   -3.5162   22.1397  -20.4707 N   0  0  0  0  0  0  0  0  0  0  0  0
   -4.2661   22.7236  -19.5544 C   0  0  0  0  0  0  0  0  0  0  0  0
   -5.5326   22.8339  -20.0576 C   0  0  0  0  0  0  0  0  0  0  0  0
   -5.5091   22.2934  -21.3099 N   0  0  0  0  0  0  0  0  0  0  0  0
   -6.9162   22.2576  -22.3017 S   0  0  0  0  0  0  0  0  0  0  0  0
   -6.5513   21.7710  -23.6882 O   0  0  0  0  0  0  0  0  0  0  0  0
   -7.9058   21.2816  -21.6972 O   0  0  0  0  0  0  0  0  0  0  0  0
   -7.7089   23.7510  -22.4385 N   0  0  0  0  0  0  0  0  0  0  0  0
   -6.9031   24.9009  -22.6354 C   0  0  0  0  0  0  0  0  0  0  0  0
   -8.6987   23.9718  -21.4032 C   0  0  0  0  0  0  0  0  0  0  0  0
 26 27  1  0  0  0
 27 18  1  0  0  0
 18 19  2  0  0  0
 19 20  1  0  0  0
 20 28  1  0  0  0
 28 29  1  0  0  0
 20 21  2  0  0  0
 21 22  1  0  0  0
 21 23  1  0  0  0
 23  1  1  0  0  0
  1 30  1  0  0  0
 30 31  1  0  0  0
 31 32  2  0  0  0
 32 33  1  0  0  0
 33 34  2  0  0  0
 34 35  1  0  0  0
 35 36  1  0  0  0
 36 37  2  0  0  0
 36 38  2  0  0  0
 36 39  1  0  0  0
 39 40  1  0  0  0
 39 41  1  0  0  0
  1  2  1  0  0  0
  2  3  2  0  0  0
  3  4  1  0  0  0
  4  5  2  0  0  0
  5  6  1  0  0  0
  6  7  2  0  0  0
  7  8  1  0  0  0
  8  9  2  0  0  0
  9 10  1  0  0  0
 10 11  2  0  0  0
  6 12  1  0  0  0
 12 13  1  0  0  0
 13 14  2  0  0  0
 14 15  1  0  0  0
 15 16  1  0  0  0
 15 17  1  0  0  0
 23 24  2  0  0  0
 24 25  1  0  0  0
 24 18  1  0  0  0
 35 31  1  0  0  0
 11  2  1  0  0  0
 17 12  2  0  0  0
  9  4  1  0  0  0
M  END
> <minimizedAffinity>
-7.89047

> <CNNscore>
0.1636990160

> <CNNaffinity>
7.1977834702

> <CNN_VS>
1.1782701015

> <CNNaffinity_variance>
0.1709085703

$$$$
[H]c1nc2c([H])nc(N(c3c(F)c(OC([H])([H])[H])c([H])c(OC([H])([H])[H])c3F)C([H])([H])c3nc([H])c([H])n3S(=O)(=O)N(C([H])([H])[H])C([H])([H])[H])c([H])c2c([H])c1-c1c([H])nn(C([H])([H])[H])c1[H]


 41 45  0  0  0  0  0  0  0  0999 V2000
   -2.8955   22.0385  -23.5908 N   0  0  0  0  0  0  0  0  0  0  0  0
   -1.4932   21.8700  -23.5018 C   0  0  0  0  0  0  0  0  0  0  0  0
   -0.9440   21.1904  -22.4636 C   0  0  0  0  0  0  0  0  0  0  0  0
    0.4377   21.0236  -22.4312 C   0  0  0  0  0  0  0  0  0  0  0  0
    1.0092   20.3253  -21.3671 C   0  0  0  0  0  0  0  0  0  0  0  0
    2.3638   20.1614  -21.3358 C   0  0  0  0  0  0  0  0  0  0  0  0
    3.1088   20.6969  -22.3638 C   0  0  0  0  0  0  0  0  0  0  0  0
    2.5826   21.3704  -23.3945 N   0  0  0  0  0  0  0  0  0  0  0  0
    1.2328   21.5392  -23.4350 C   0  0  0  0  0  0  0  0  0  0  0  0
    0.6341   22.2225  -24.4698 C   0  0  0  0  0  0  0  0  0  0  0  0
   -0.6955   22.3617  -24.4652 N   0  0  0  0  0  0  0  0  0  0  0  0
    2.9616   19.4346  -20.2311 C   0  0  0  0  0  0  0  0  0  0  0  0
    2.3247   19.0032  -19.0921 C   0  0  0  0  0  0  0  0  0  0  0  0
    3.2898   18.3773  -18.3614 N   0  0  0  0  0  0  0  0  0  0  0  0
    4.4376   18.4168  -18.9973 N   0  0  0  0  0  0  0  0  0  0  0  0
    5.7065   17.8632  -18.5539 C   0  0  0  0  0  0  0  0  0  0  0  0
    4.2796   19.0612  -20.1575 C   0  0  0  0  0  0  0  0  0  0  0  0
   -3.9206   23.5721  -26.7944 C   0  0  0  0  0  0  0  0  0  0  0  0
   -4.1764   24.8621  -26.4224 C   0  0  0  0  0  0  0  0  0  0  0  0
   -4.0165   25.2562  -25.1144 C   0  0  0  0  0  0  0  0  0  0  0  0
   -3.5868   24.3005  -24.1853 C   0  0  0  0  0  0  0  0  0  0  0  0
   -3.4353   24.7175  -22.9227 F   0  0  0  0  0  0  0  0  0  0  0  0
   -3.3288   23.0139  -24.5405 C   0  0  0  0  0  0  0  0  0  0  0  0
   -3.4987   22.6537  -25.8554 C   0  0  0  0  0  0  0  0  0  0  0  0
   -3.2537   21.3845  -26.2561 F   0  0  0  0  0  0  0  0  0  0  0  0
   -5.3495   23.3049  -28.7628 C   0  0  0  0  0  0  0  0  0  0  0  0
   -4.0954   23.2086  -28.1388 O   0  0  0  0  0  0  0  0  0  0  0  0
   -4.2660   26.5572  -24.6971 O   0  0  0  0  0  0  0  0  0  0  0  0
   -5.0898   27.3668  -25.5132 C   0  0  0  0  0  0  0  0  0  0  0  0
   -3.8846   21.3090  -22.8005 C   0  0  0  0  0  0  0  0  0  0  0  0
   -4.2182   21.9524  -21.5234 C   0  0  0  0  0  0  0  0  0  0  0  0
   -3.5261   22.0212  -20.3885 N   0  0  0  0  0  0  0  0  0  0  0  0
   -4.2147   22.6872  -19.4801 C   0  0  0  0  0  0  0  0  0  0  0  0
   -5.3998   23.0657  -20.0473 C   0  0  0  0  0  0  0  0  0  0  0  0
   -5.3914   22.5999  -21.3293 N   0  0  0  0  0  0  0  0  0  0  0  0
   -6.7077   22.8889  -22.4011 S   0  0  0  0  0  0  0  0  0  0  0  0
   -6.6252   21.9405  -23.5784 O   0  0  0  0  0  0  0  0  0  0  0  0
   -8.0008   22.6181  -21.6583 O   0  0  0  0  0  0  0  0  0  0  0  0
   -6.7922   24.4789  -22.9861 N   0  0  0  0  0  0  0  0  0  0  0  0
   -7.2022   25.4868  -22.0771 C   0  0  0  0  0  0  0  0  0  0  0  0
   -7.4963   24.5889  -24.2480 C   0  0  0  0  0  0  0  0  0  0  0  0
 26 27  1  0  0  0
 27 18  1  0  0  0
 18 19  2  0  0  0
 19 20  1  0  0  0
 20 28  1  0  0  0
 28 29  1  0  0  0
 20 21  2  0  0  0
 21 22  1  0  0  0
 21 23  1  0  0  0
 23  1  1  0  0  0
  1 30  1  0  0  0
 30 31  1  0  0  0
 31 32  2  0  0  0
 32 33  1  0  0  0
 33 34  2  0  0  0
 34 35  1  0  0  0
 35 36  1  0  0  0
 36 37  2  0  0  0
 36 38  2  0  0  0
 36 39  1  0  0  0
 39 40  1  0  0  0
 39 41  1  0  0  0
  1  2  1  0  0  0
  2  3  2  0  0  0
  3  4  1  0  0  0
  4  5  2  0  0  0
  5  6  1  0  0  0
  6  7  2  0  0  0
  7  8  1  0  0  0
  8  9  2  0  0  0
  9 10  1  0  0  0
 10 11  2  0  0  0
  6 12  1  0  0  0
 12 13  1  0  0  0
 13 14  2  0  0  0
 14 15  1  0  0  0
 15 16  1  0  0  0
 15 17  1  0  0  0
 23 24  2  0  0  0
 24 25  1  0  0  0
 24 18  1  0  0  0
 35 31  1  0  0  0
 11  2  1  0  0  0
 17 12  2  0  0  0
  9  4  1  0  0  0
M  END
> <minimizedAffinity>
-7.81308

> <CNNscore>
0.1435117126

> <CNNaffinity>
6.9601273537

> <CNN_VS>
0.9988598228

> <CNNaffinity_variance>
0.3615106642

$$$$
[H]c1nc2c([H])nc(N(c3c(F)c(OC([H])([H])[H])c([H])c(OC([H])([H])[H])c3F)C([H])([H])c3nc([H])c([H])n3S(=O)(=O)N(C([H])([H])[H])C([H])([H])[H])c([H])c2c([H])c1-c1c([H])nn(C([H])([H])[H])c1[H]


 41 45  0  0  0  0  0  0  0  0999 V2000
   -3.2310   22.2622  -24.1800 N   0  0  0  0  0  0  0  0  0  0  0  0
   -1.8422   22.0652  -23.9928 C   0  0  0  0  0  0  0  0  0  0  0  0
   -1.3755   21.4625  -22.8702 C   0  0  0  0  0  0  0  0  0  0  0  0
   -0.0038   21.2630  -22.7407 C   0  0  0  0  0  0  0  0  0  0  0  0
    0.4830   20.6433  -21.5895 C   0  0  0  0  0  0  0  0  0  0  0  0
    1.8278   20.4472  -21.4629 C   0  0  0  0  0  0  0  0  0  0  0  0
    2.6474   20.8734  -22.4852 C   0  0  0  0  0  0  0  0  0  0  0  0
    2.2029   21.4701  -23.5985 N   0  0  0  0  0  0  0  0  0  0  0  0
    0.8637   21.6701  -23.7343 C   0  0  0  0  0  0  0  0  0  0  0  0
    0.3475   22.2781  -24.8568 C   0  0  0  0  0  0  0  0  0  0  0  0
   -0.9752   22.4519  -24.9440 N   0  0  0  0  0  0  0  0  0  0  0  0
    2.3377   19.8018  -20.2673 C   0  0  0  0  0  0  0  0  0  0  0  0
    3.6581   19.6367  -19.9234 C   0  0  0  0  0  0  0  0  0  0  0  0
    3.6342   18.9828  -18.7280 N   0  0  0  0  0  0  0  0  0  0  0  0
    2.3947   18.7589  -18.3579 N   0  0  0  0  0  0  0  0  0  0  0  0
    1.9470   18.0896  -17.1476 C   0  0  0  0  0  0  0  0  0  0  0  0
    1.5613   19.2490  -19.2807 C   0  0  0  0  0  0  0  0  0  0  0  0
   -4.0794   23.8547  -27.4065 C   0  0  0  0  0  0  0  0  0  0  0  0
   -4.2559   25.1598  -27.0409 C   0  0  0  0  0  0  0  0  0  0  0  0
   -4.0988   25.5449  -25.7299 C   0  0  0  0  0  0  0  0  0  0  0  0
   -3.7552   24.5643  -24.7909 C   0  0  0  0  0  0  0  0  0  0  0  0
   -3.6039   24.9728  -23.5255 F   0  0  0  0  0  0  0  0  0  0  0  0
   -3.5766   23.2625  -25.1396 C   0  0  0  0  0  0  0  0  0  0  0  0
   -3.7412   22.9120  -26.4577 C   0  0  0  0  0  0  0  0  0  0  0  0
   -3.5733   21.6283  -26.8522 F   0  0  0  0  0  0  0  0  0  0  0  0
   -5.5258   23.4165  -29.3309 C   0  0  0  0  0  0  0  0  0  0  0  0
   -4.2484   23.5011  -28.7542 O   0  0  0  0  0  0  0  0  0  0  0  0
   -4.2693   26.8606  -25.3189 O   0  0  0  0  0  0  0  0  0  0  0  0
   -5.5473   27.4438  -25.4821 C   0  0  0  0  0  0  0  0  0  0  0  0
   -4.2880   21.5377  -23.4777 C   0  0  0  0  0  0  0  0  0  0  0  0
   -5.3997   22.3886  -23.0344 C   0  0  0  0  0  0  0  0  0  0  0  0
   -6.5125   22.7496  -23.6693 N   0  0  0  0  0  0  0  0  0  0  0  0
   -7.2337   23.5433  -22.8993 C   0  0  0  0  0  0  0  0  0  0  0  0
   -6.5632   23.7036  -21.7186 C   0  0  0  0  0  0  0  0  0  0  0  0
   -5.4143   22.9745  -21.8139 N   0  0  0  0  0  0  0  0  0  0  0  0
   -4.2896   22.8918  -20.5126 S   0  0  0  0  0  0  0  0  0  0  0  0
   -2.9986   23.5760  -20.9094 O   0  0  0  0  0  0  0  0  0  0  0  0
   -4.8750   23.6273  -19.3238 O   0  0  0  0  0  0  0  0  0  0  0  0
   -3.9356   21.3145  -19.9984 N   0  0  0  0  0  0  0  0  0  0  0  0
   -4.9455   20.6191  -19.2865 C   0  0  0  0  0  0  0  0  0  0  0  0
   -2.6513   21.2020  -19.3365 C   0  0  0  0  0  0  0  0  0  0  0  0
 26 27  1  0  0  0
 27 18  1  0  0  0
 18 19  2  0  0  0
 19 20  1  0  0  0
 20 28  1  0  0  0
 28 29  1  0  0  0
 20 21  2  0  0  0
 21 22  1  0  0  0
 21 23  1  0  0  0
 23  1  1  0  0  0
  1 30  1  0  0  0
 30 31  1  0  0  0
 31 32  2  0  0  0
 32 33  1  0  0  0
 33 34  2  0  0  0
 34 35  1  0  0  0
 35 36  1  0  0  0
 36 37  2  0  0  0
 36 38  2  0  0  0
 36 39  1  0  0  0
 39 40  1  0  0  0
 39 41  1  0  0  0
  1  2  1  0  0  0
  2  3  2  0  0  0
  3  4  1  0  0  0
  4  5  2  0  0  0
  5  6  1  0  0  0
  6  7  2  0  0  0
  7  8  1  0  0  0
  8  9  2  0  0  0
  9 10  1  0  0  0
 10 11  2  0  0  0
  6 12  1  0  0  0
 12 13  1  0  0  0
 13 14  2  0  0  0
 14 15  1  0  0  0
 15 16  1  0  0  0
 15 17  1  0  0  0
 23 24  2  0  0  0
 24 25  1  0  0  0
 24 18  1  0  0  0
 35 31  1  0  0  0
 11  2  1  0  0  0
 17 12  2  0  0  0
  9  4  1  0  0  0
M  END
> <minimizedAffinity>
-7.83418

> <CNNscore>
0.1387660056

> <CNNaffinity>
7.2731909752

> <CNN_VS>
1.0092716217

> <CNNaffinity_variance>
0.2431415021

$$$$
[H]c1nc(N([H])[H])c(-c2nn(-c3c([H])c(OC([H])([H])[H])c([H])c(OC([H])([H])[H])c3[H])c(=O)c([H])c2[H])nc1-c1c([H])nn(C2([H])C([H])([H])C([H])([H])N(C([H])([H])C([H])(F)F)C([H])([H])C2([H])[H])c1[H]


 41 45  0  0  0  0  0  0  0  0999 V2000
   -2.3182   22.8557  -26.5407 C   0  0  0  0  0  0  0  0  0  0  0  0
   -1.6852   22.4587  -25.4119 N   0  0  0  0  0  0  0  0  0  0  0  0
   -0.3805   22.1662  -25.3865 C   0  0  0  0  0  0  0  0  0  0  0  0
    0.3199   22.2813  -26.5682 C   0  0  0  0  0  0  0  0  0  0  0  0
   -0.2816   22.6756  -27.7162 N   0  0  0  0  0  0  0  0  0  0  0  0
   -1.5840   22.9643  -27.7248 C   0  0  0  0  0  0  0  0  0  0  0  0
   -2.2840   23.3839  -28.8900 N   0  0  0  0  0  0  0  0  0  0  0  0
   -2.7267   22.6062  -29.4541 H   0  0  0  0  0  0  0  0  0  0  0  0
   -2.3745   24.3618  -29.1915 H   0  0  0  0  0  0  0  0  0  0  0  0
   -5.7255   23.6075  -25.4185 N   0  0  0  0  0  0  0  0  0  0  0  0
   -4.4303   23.3195  -25.4399 N   0  0  0  0  0  0  0  0  0  0  0  0
   -3.7359   23.1735  -26.5526 C   0  0  0  0  0  0  0  0  0  0  0  0
   -4.3855   23.3271  -27.7559 C   0  0  0  0  0  0  0  0  0  0  0  0
   -5.7527   23.6313  -27.7709 C   0  0  0  0  0  0  0  0  0  0  0  0
   -6.4007   23.7666  -26.5691 C   0  0  0  0  0  0  0  0  0  0  0  0
   -7.6504   24.0450  -26.5662 O   0  0  0  0  0  0  0  0  0  0  0  0
   -7.3666   22.6982  -22.2240 C   0  0  0  0  0  0  0  0  0  0  0  0
   -7.8642   23.9073  -21.7879 C   0  0  0  0  0  0  0  0  0  0  0  0
   -7.6648   25.0488  -22.5449 C   0  0  0  0  0  0  0  0  0  0  0  0
   -6.9621   24.9390  -23.7320 C   0  0  0  0  0  0  0  0  0  0  0  0
   -6.4482   23.7532  -24.2046 C   0  0  0  0  0  0  0  0  0  0  0  0
   -6.6683   22.6201  -23.4148 C   0  0  0  0  0  0  0  0  0  0  0  0
   -8.5442   21.4814  -20.4185 C   0  0  0  0  0  0  0  0  0  0  0  0
   -7.5933   21.5959  -21.4337 O   0  0  0  0  0  0  0  0  0  0  0  0
   -8.1679   26.2671  -22.1028 O   0  0  0  0  0  0  0  0  0  0  0  0
   -9.4453   26.3276  -21.5049 C   0  0  0  0  0  0  0  0  0  0  0  0
    0.3142   21.7428  -24.1704 C   0  0  0  0  0  0  0  0  0  0  0  0
    1.6393   21.3658  -24.0392 C   0  0  0  0  0  0  0  0  0  0  0  0
    1.8485   21.0451  -22.7441 N   0  0  0  0  0  0  0  0  0  0  0  0
    0.7397   21.1923  -22.0339 N   0  0  0  0  0  0  0  0  0  0  0  0
   -0.2016   21.6182  -22.8969 C   0  0  0  0  0  0  0  0  0  0  0  0
    0.5888   20.9350  -20.6160 C   0  0  0  0  0  0  0  0  0  0  0  0
   -0.2244   21.9961  -19.9301 C   0  0  0  0  0  0  0  0  0  0  0  0
   -0.4522   21.5522  -18.5068 C   0  0  0  0  0  0  0  0  0  0  0  0
    0.7923   21.2959  -17.8010 N   0  0  0  0  0  0  0  0  0  0  0  0
    1.5617   20.3239  -18.5012 C   0  0  0  0  0  0  0  0  0  0  0  0
    1.9276   20.7529  -19.9300 C   0  0  0  0  0  0  0  0  0  0  0  0
    1.3974   22.5469  -17.5303 C   0  0  0  0  0  0  0  0  0  0  0  0
    2.3169   22.6269  -16.3666 C   0  0  0  0  0  0  0  0  0  0  0  0
    2.9052   23.8487  -16.2245 F   0  0  0  0  0  0  0  0  0  0  0  0
    1.6250   22.3210  -15.1900 F   0  0  0  0  0  0  0  0  0  0  0  0
 23 24  1  0  0  0
 24 17  1  0  0  0
 17 18  2  0  0  0
 18 19  1  0  0  0
 19 25  1  0  0  0
 25 26  1  0  0  0
 19 20  2  0  0  0
 20 21  1  0  0  0
 21 22  2  0  0  0
 21 10  1  0  0  0
 10 11  1  0  0  0
 11 12  2  0  0  0
 12 13  1  0  0  0
 13 14  2  0  0  0
 14 15  1  0  0  0
 15 16  2  0  0  0
 12  1  1  0  0  0
  1  2  2  0  0  0
  2  3  1  0  0  0
  3  4  2  0  0  0
  4  5  1  0  0  0
  5  6  2  0  0  0
  6  7  1  0  0  0
  3 27  1  0  0  0
 27 28  1  0  0  0
 28 29  2  0  0  0
 29 30  1  0  0  0
 30 31  1  0  0  0
 30 32  1  0  0  0
 32 33  1  0  0  0
 33 34  1  0  0  0
 34 35  1  0  0  0
 35 38  1  0  0  0
 38 39  1  0  0  0
 39 40  1  0  0  0
 39 41  1  0  0  0
 35 36  1  0  0  0
 36 37  1  0  0  0
 22 17  1  0  0  0
 15 10  1  0  0  0
  6  1  1  0  0  0
 31 27  2  0  0  0
 37 32  1  0  0  0
  7  8  1  0  0  0
  7  9  1  0  0  0
M  END
> <minimizedAffinity>
-8.86972

> <CNNscore>
0.4526334405

> <CNNaffinity>
7.4716444016

> <CNN_VS>
3.3819160461

> <CNNaffinity_variance>
0.1097849235

$$$$
[H]c1nc(N([H])[H])c(-c2nn(-c3c([H])c(OC([H])([H])[H])c([H])c(OC([H])([H])[H])c3[H])c(=O)c([H])c2[H])nc1-c1c([H])nn(C2([H])C([H])([H])C([H])([H])N(C([H])([H])C([H])(F)F)C([H])([H])C2([H])[H])c1[H]


 41 45  0  0  0  0  0  0  0  0999 V2000
    0.2155   21.4384  -22.9451 C   0  0  0  0  0  0  0  0  0  0  0  0
    0.7537   21.1160  -21.7455 N   0  0  0  0  0  0  0  0  0  0  0  0
    2.0563   20.8562  -21.5905 C   0  0  0  0  0  0  0  0  0  0  0  0
    2.8562   20.9259  -22.7110 C   0  0  0  0  0  0  0  0  0  0  0  0
    2.3511   21.2454  -23.9268 N   0  0  0  0  0  0  0  0  0  0  0  0
    1.0494   21.5023  -24.0647 C   0  0  0  0  0  0  0  0  0  0  0  0
    0.4474   21.8437  -25.3075 N   0  0  0  0  0  0  0  0  0  0  0  0
    0.0711   21.0274  -25.8652 H   0  0  0  0  0  0  0  0  0  0  0  0
    0.3654   22.8022  -25.6682 H   0  0  0  0  0  0  0  0  0  0  0  0
   -2.9586   22.6893  -24.2848 N   0  0  0  0  0  0  0  0  0  0  0  0
   -1.6713   22.4131  -24.1189 N   0  0  0  0  0  0  0  0  0  0  0  0
   -1.2013   21.7214  -23.0979 C   0  0  0  0  0  0  0  0  0  0  0  0
   -2.0898   21.2609  -22.1535 C   0  0  0  0  0  0  0  0  0  0  0  0
   -3.4561   21.5339  -22.2966 C   0  0  0  0  0  0  0  0  0  0  0  0
   -3.8621   22.2597  -23.3880 C   0  0  0  0  0  0  0  0  0  0  0  0
   -5.1078   22.5172  -23.5331 O   0  0  0  0  0  0  0  0  0  0  0  0
   -3.9505   23.5041  -27.7600 C   0  0  0  0  0  0  0  0  0  0  0  0
   -4.3518   24.8187  -27.6567 C   0  0  0  0  0  0  0  0  0  0  0  0
   -4.3019   25.4609  -26.4316 C   0  0  0  0  0  0  0  0  0  0  0  0
   -3.8446   24.7534  -25.3337 C   0  0  0  0  0  0  0  0  0  0  0  0
   -3.4346   23.4412  -25.3916 C   0  0  0  0  0  0  0  0  0  0  0  0
   -3.4981   22.8234  -26.6448 C   0  0  0  0  0  0  0  0  0  0  0  0
   -5.1749   22.6929  -29.7524 C   0  0  0  0  0  0  0  0  0  0  0  0
   -4.0203   22.9143  -29.0003 O   0  0  0  0  0  0  0  0  0  0  0  0
   -4.7073   26.7869  -26.3302 O   0  0  0  0  0  0  0  0  0  0  0  0
   -5.4796   27.2059  -25.2253 C   0  0  0  0  0  0  0  0  0  0  0  0
    2.6487   20.5134  -20.2972 C   0  0  0  0  0  0  0  0  0  0  0  0
    2.9920   19.2574  -19.8287 C   0  0  0  0  0  0  0  0  0  0  0  0
    3.4963   19.4070  -18.5848 N   0  0  0  0  0  0  0  0  0  0  0  0
    3.4986   20.6819  -18.2241 N   0  0  0  0  0  0  0  0  0  0  0  0
    2.9830   21.3641  -19.2638 C   0  0  0  0  0  0  0  0  0  0  0  0
    3.9607   21.2143  -16.9582 C   0  0  0  0  0  0  0  0  0  0  0  0
    3.0139   20.9053  -15.8332 C   0  0  0  0  0  0  0  0  0  0  0  0
    3.6616   21.3603  -14.5494 C   0  0  0  0  0  0  0  0  0  0  0  0
    4.0139   22.7702  -14.5766 N   0  0  0  0  0  0  0  0  0  0  0  0
    4.8707   23.0401  -15.6813 C   0  0  0  0  0  0  0  0  0  0  0  0
    4.2364   22.7022  -17.0388 C   0  0  0  0  0  0  0  0  0  0  0  0
    2.8139   23.5144  -14.4746 C   0  0  0  0  0  0  0  0  0  0  0  0
    2.1589   23.5812  -13.1432 C   0  0  0  0  0  0  0  0  0  0  0  0
    1.9499   24.8557  -12.7061 F   0  0  0  0  0  0  0  0  0  0  0  0
    0.9313   22.9116  -13.1814 F   0  0  0  0  0  0  0  0  0  0  0  0
 23 24  1  0  0  0
 24 17  1  0  0  0
 17 18  2  0  0  0
 18 19  1  0  0  0
 19 25  1  0  0  0
 25 26  1  0  0  0
 19 20  2  0  0  0
 20 21  1  0  0  0
 21 22  2  0  0  0
 21 10  1  0  0  0
 10 11  1  0  0  0
 11 12  2  0  0  0
 12 13  1  0  0  0
 13 14  2  0  0  0
 14 15  1  0  0  0
 15 16  2  0  0  0
 12  1  1  0  0  0
  1  2  2  0  0  0
  2  3  1  0  0  0
  3  4  2  0  0  0
  4  5  1  0  0  0
  5  6  2  0  0  0
  6  7  1  0  0  0
  3 27  1  0  0  0
 27 28  1  0  0  0
 28 29  2  0  0  0
 29 30  1  0  0  0
 30 31  1  0  0  0
 30 32  1  0  0  0
 32 33  1  0  0  0
 33 34  1  0  0  0
 34 35  1  0  0  0
 35 38  1  0  0  0
 38 39  1  0  0  0
 39 40  1  0  0  0
 39 41  1  0  0  0
 35 36  1  0  0  0
 36 37  1  0  0  0
 22 17  1  0  0  0
 15 10  1  0  0  0
  6  1  1  0  0  0
 31 27  2  0  0  0
 37 32  1  0  0  0
  7  8  1  0  0  0
  7  9  1  0  0  0
M  END
> <minimizedAffinity>
-7.59068

> <CNNscore>
0.2094233334

> <CNNaffinity>
6.7778105736

> <CNN_VS>
1.4194316864

> <CNNaffinity_variance>
0.1119626760

$$$$
[H]c1nc(N([H])[H])c(-c2nn(-c3c([H])c(OC([H])([H])[H])c([H])c(OC([H])([H])[H])c3[H])c(=O)c([H])c2[H])nc1-c1c([H])nn(C2([H])C([H])([H])C([H])([H])N(C([H])([H])C([H])(F)F)C([H])([H])C2([H])[H])c1[H]


 41 45  0  0  0  0  0  0  0  0999 V2000
   -0.4821   21.7191  -23.8321 C   0  0  0  0  0  0  0  0  0  0  0  0
    0.7450   21.5183  -23.2969 N   0  0  0  0  0  0  0  0  0  0  0  0
    0.9191   21.1129  -22.0345 C   0  0  0  0  0  0  0  0  0  0  0  0
   -0.2106   20.9005  -21.2735 C   0  0  0  0  0  0  0  0  0  0  0  0
   -1.4537   21.0917  -21.7769 N   0  0  0  0  0  0  0  0  0  0  0  0
   -1.6104   21.4959  -23.0385 C   0  0  0  0  0  0  0  0  0  0  0  0
   -2.8822   21.7181  -23.6358 N   0  0  0  0  0  0  0  0  0  0  0  0
   -3.2509   22.7064  -23.5563 H   0  0  0  0  0  0  0  0  0  0  0  0
   -3.4304   20.9955  -24.1185 H   0  0  0  0  0  0  0  0  0  0  0  0
   -1.9907   23.0500  -26.8961 N   0  0  0  0  0  0  0  0  0  0  0  0
   -1.8006   22.6444  -25.6469 N   0  0  0  0  0  0  0  0  0  0  0  0
   -0.6561   22.1566  -25.2066 C   0  0  0  0  0  0  0  0  0  0  0  0
    0.3980   22.0621  -26.0861 C   0  0  0  0  0  0  0  0  0  0  0  0
    0.2329   22.4809  -27.4125 C   0  0  0  0  0  0  0  0  0  0  0  0
   -0.9898   22.9765  -27.7893 C   0  0  0  0  0  0  0  0  0  0  0  0
   -1.1563   23.3638  -28.9982 O   0  0  0  0  0  0  0  0  0  0  0  0
   -5.1077   25.0520  -26.9328 C   0  0  0  0  0  0  0  0  0  0  0  0
   -5.7032   24.6578  -28.1116 C   0  0  0  0  0  0  0  0  0  0  0  0
   -5.0821   23.7201  -28.9184 C   0  0  0  0  0  0  0  0  0  0  0  0
   -3.8659   23.2008  -28.5107 C   0  0  0  0  0  0  0  0  0  0  0  0
   -3.2363   23.5657  -27.3428 C   0  0  0  0  0  0  0  0  0  0  0  0
   -3.8918   24.5149  -26.5520 C   0  0  0  0  0  0  0  0  0  0  0  0
   -5.2226   26.7534  -25.1386 C   0  0  0  0  0  0  0  0  0  0  0  0
   -5.7676   25.9861  -26.1692 O   0  0  0  0  0  0  0  0  0  0  0  0
   -5.6850   23.3241  -30.1069 O   0  0  0  0  0  0  0  0  0  0  0  0
   -5.8101   24.2401  -31.1737 C   0  0  0  0  0  0  0  0  0  0  0  0
    2.2407   20.8866  -21.4488 C   0  0  0  0  0  0  0  0  0  0  0  0
    3.2240   20.0171  -21.8871 C   0  0  0  0  0  0  0  0  0  0  0  0
    4.2737   20.1262  -21.0444 N   0  0  0  0  0  0  0  0  0  0  0  0
    4.0264   21.0123  -20.0909 N   0  0  0  0  0  0  0  0  0  0  0  0
    2.7875   21.4813  -20.3305 C   0  0  0  0  0  0  0  0  0  0  0  0
    4.9196   21.3831  -19.0119 C   0  0  0  0  0  0  0  0  0  0  0  0
    4.9737   20.3365  -17.9351 C   0  0  0  0  0  0  0  0  0  0  0  0
    6.0411   20.7446  -16.9509 C   0  0  0  0  0  0  0  0  0  0  0  0
    5.8060   22.0674  -16.3962 N   0  0  0  0  0  0  0  0  0  0  0  0
    5.7102   23.0279  -17.4429 C   0  0  0  0  0  0  0  0  0  0  0  0
    4.5702   22.7382  -18.4307 C   0  0  0  0  0  0  0  0  0  0  0  0
    4.7219   21.9667  -15.4914 C   0  0  0  0  0  0  0  0  0  0  0  0
    4.2413   23.2193  -14.8539 C   0  0  0  0  0  0  0  0  0  0  0  0
    3.1311   23.7390  -15.4509 F   0  0  0  0  0  0  0  0  0  0  0  0
    3.9601   22.9895  -13.5031 F   0  0  0  0  0  0  0  0  0  0  0  0
 23 24  1  0  0  0
 24 17  1  0  0  0
 17 18  2  0  0  0
 18 19  1  0  0  0
 19 25  1  0  0  0
 25 26  1  0  0  0
 19 20  2  0  0  0
 20 21  1  0  0  0
 21 22  2  0  0  0
 21 10  1  0  0  0
 10 11  1  0  0  0
 11 12  2  0  0  0
 12 13  1  0  0  0
 13 14  2  0  0  0
 14 15  1  0  0  0
 15 16  2  0  0  0
 12  1  1  0  0  0
  1  2  2  0  0  0
  2  3  1  0  0  0
  3  4  2  0  0  0
  4  5  1  0  0  0
  5  6  2  0  0  0
  6  7  1  0  0  0
  3 27  1  0  0  0
 27 28  1  0  0  0
 28 29  2  0  0  0
 29 30  1  0  0  0
 30 31  1  0  0  0
 30 32  1  0  0  0
 32 33  1  0  0  0
 33 34  1  0  0  0
 34 35  1  0  0  0
 35 38  1  0  0  0
 38 39  1  0  0  0
 39 40  1  0  0  0
 39 41  1  0  0  0
 35 36  1  0  0  0
 36 37  1  0  0  0
 22 17  1  0  0  0
 15 10  1  0  0  0
  6  1  1  0  0  0
 31 27  2  0  0  0
 37 32  1  0  0  0
  7  8  1  0  0  0
  7  9  1  0  0  0
M  END
> <minimizedAffinity>
-8.69662

> <CNNscore>
0.1535869092

> <CNNaffinity>
6.7168288231

> <CNN_VS>
1.0316169262

> <CNNaffinity_variance>
0.1857549995

$$$$
[H]c1nc(N([H])[H])c(-c2nn(-c3c([H])c(OC([H])([H])[H])c([H])c(OC([H])([H])[H])c3[H])c(=O)c([H])c2[H])nc1-c1c([H])nn(C2([H])C([H])([H])C([H])([H])N(C([H])([H])C([H])(F)F)C([H])([H])C2([H])[H])c1[H]


 41 45  0  0  0  0  0  0  0  0999 V2000
   -0.2938   21.6419  -23.7450 C   0  0  0  0  0  0  0  0  0  0  0  0
    0.9448   21.3470  -23.2853 N   0  0  0  0  0  0  0  0  0  0  0  0
    1.1652   20.9337  -22.0327 C   0  0  0  0  0  0  0  0  0  0  0  0
    0.0721   20.8136  -21.2013 C   0  0  0  0  0  0  0  0  0  0  0  0
   -1.1811   21.1003  -21.6282 N   0  0  0  0  0  0  0  0  0  0  0  0
   -1.3843   21.5111  -22.8811 C   0  0  0  0  0  0  0  0  0  0  0  0
   -2.6696   21.8305  -23.4002 N   0  0  0  0  0  0  0  0  0  0  0  0
   -2.9540   22.8451  -23.3064 H   0  0  0  0  0  0  0  0  0  0  0  0
   -3.3018   21.1517  -23.8418 H   0  0  0  0  0  0  0  0  0  0  0  0
   -1.9041   23.0199  -26.7354 N   0  0  0  0  0  0  0  0  0  0  0  0
   -1.6682   22.6067  -25.4967 N   0  0  0  0  0  0  0  0  0  0  0  0
   -0.5185   22.0868  -25.1097 C   0  0  0  0  0  0  0  0  0  0  0  0
    0.4911   21.9652  -26.0368 C   0  0  0  0  0  0  0  0  0  0  0  0
    0.2770   22.3911  -27.3539 C   0  0  0  0  0  0  0  0  0  0  0  0
   -0.9477   22.9208  -27.6737 C   0  0  0  0  0  0  0  0  0  0  0  0
   -1.1587   23.3151  -28.8734 O   0  0  0  0  0  0  0  0  0  0  0  0
   -4.9600   23.6218  -28.7415 C   0  0  0  0  0  0  0  0  0  0  0  0
   -5.6186   24.5817  -28.0037 C   0  0  0  0  0  0  0  0  0  0  0  0
   -5.0622   25.0482  -26.8253 C   0  0  0  0  0  0  0  0  0  0  0  0
   -3.8455   24.5289  -26.4190 C   0  0  0  0  0  0  0  0  0  0  0  0
   -3.1542   23.5705  -27.1241 C   0  0  0  0  0  0  0  0  0  0  0  0
   -3.7452   23.1221  -28.3098 C   0  0  0  0  0  0  0  0  0  0  0  0
   -5.8018   23.9600  -31.0446 C   0  0  0  0  0  0  0  0  0  0  0  0
   -5.5570   23.1938  -29.9041 O   0  0  0  0  0  0  0  0  0  0  0  0
   -5.7287   26.0165  -26.0829 O   0  0  0  0  0  0  0  0  0  0  0  0
   -5.0150   27.1115  -25.5495 C   0  0  0  0  0  0  0  0  0  0  0  0
    2.4990   20.6060  -21.5283 C   0  0  0  0  0  0  0  0  0  0  0  0
    3.3617   19.6265  -21.9880 C   0  0  0  0  0  0  0  0  0  0  0  0
    4.4759   19.6703  -21.2259 N   0  0  0  0  0  0  0  0  0  0  0  0
    4.3832   20.6175  -20.3042 N   0  0  0  0  0  0  0  0  0  0  0  0
    3.1796   21.1937  -20.4820 C   0  0  0  0  0  0  0  0  0  0  0  0
    5.3838   20.9471  -19.3093 C   0  0  0  0  0  0  0  0  0  0  0  0
    5.0864   20.3207  -17.9763 C   0  0  0  0  0  0  0  0  0  0  0  0
    6.2597   20.5930  -17.0687 C   0  0  0  0  0  0  0  0  0  0  0  0
    6.5411   22.0131  -16.9387 N   0  0  0  0  0  0  0  0  0  0  0  0
    6.7692   22.5870  -18.2214 C   0  0  0  0  0  0  0  0  0  0  0  0
    5.5714   22.4446  -19.1725 C   0  0  0  0  0  0  0  0  0  0  0  0
    5.5241   22.5799  -16.1331 C   0  0  0  0  0  0  0  0  0  0  0  0
    5.1058   23.9727  -16.4351 C   0  0  0  0  0  0  0  0  0  0  0  0
    3.9696   24.3502  -15.7829 F   0  0  0  0  0  0  0  0  0  0  0  0
    6.1328   24.8620  -16.1016 F   0  0  0  0  0  0  0  0  0  0  0  0
 23 24  1  0  0  0
 24 17  1  0  0  0
 17 18  2  0  0  0
 18 19  1  0  0  0
 19 25  1  0  0  0
 25 26  1  0  0  0
 19 20  2  0  0  0
 20 21  1  0  0  0
 21 22  2  0  0  0
 21 10  1  0  0  0
 10 11  1  0  0  0
 11 12  2  0  0  0
 12 13  1  0  0  0
 13 14  2  0  0  0
 14 15  1  0  0  0
 15 16  2  0  0  0
 12  1  1  0  0  0
  1  2  2  0  0  0
  2  3  1  0  0  0
  3  4  2  0  0  0
  4  5  1  0  0  0
  5  6  2  0  0  0
  6  7  1  0  0  0
  3 27  1  0  0  0
 27 28  1  0  0  0
 28 29  2  0  0  0
 29 30  1  0  0  0
 30 31  1  0  0  0
 30 32  1  0  0  0
 32 33  1  0  0  0
 33 34  1  0  0  0
 34 35  1  0  0  0
 35 38  1  0  0  0
 38 39  1  0  0  0
 39 40  1  0  0  0
 39 41  1  0  0  0
 35 36  1  0  0  0
 36 37  1  0  0  0
 22 17  1  0  0  0
 15 10  1  0  0  0
  6  1  1  0  0  0
 31 27  2  0  0  0
 37 32  1  0  0  0
  7  8  1  0  0  0
  7  9  1  0  0  0
M  END
> <minimizedAffinity>
-8.99533

> <CNNscore>
0.1481433511

> <CNNaffinity>
6.6682548523

> <CNN_VS>
0.9878576398

> <CNNaffinity_variance>
0.1817012727

$$$$
[H]c1nc(N([H])[H])c(-c2nn(-c3c([H])c(OC([H])([H])[H])c([H])c(OC([H])([H])[H])c3[H])c(=O)c([H])c2[H])nc1-c1c([H])nn(C2([H])C([H])([H])C([H])([H])N(C([H])([H])C([H])(F)F)C([H])([H])C2([H])[H])c1[H]


 41 45  0  0  0  0  0  0  0  0999 V2000
    1.3916   21.0433  -22.1465 C   0  0  0  0  0  0  0  0  0  0  0  0
    0.0879   21.3853  -22.2716 N   0  0  0  0  0  0  0  0  0  0  0  0
   -0.4439   21.7705  -23.4366 C   0  0  0  0  0  0  0  0  0  0  0  0
    0.3904   21.8120  -24.5334 C   0  0  0  0  0  0  0  0  0  0  0  0
    1.6998   21.4765  -24.4441 N   0  0  0  0  0  0  0  0  0  0  0  0
    2.2149   21.0939  -23.2745 C   0  0  0  0  0  0  0  0  0  0  0  0
    3.5788   20.7276  -23.1035 N   0  0  0  0  0  0  0  0  0  0  0  0
    4.2258   21.5168  -22.8250 H   0  0  0  0  0  0  0  0  0  0  0  0
    3.9441   19.7759  -23.2313 H   0  0  0  0  0  0  0  0  0  0  0  0
    2.8271   21.1383  -18.7753 N   0  0  0  0  0  0  0  0  0  0  0  0
    2.3086   21.4907  -19.9450 N   0  0  0  0  0  0  0  0  0  0  0  0
    1.9548   20.6235  -20.8747 C   0  0  0  0  0  0  0  0  0  0  0  0
    2.1314   19.2824  -20.6217 C   0  0  0  0  0  0  0  0  0  0  0  0
    2.6761   18.8745  -19.3975 C   0  0  0  0  0  0  0  0  0  0  0  0
    3.0173   19.8405  -18.4848 C   0  0  0  0  0  0  0  0  0  0  0  0
    3.5160   19.4835  -17.3609 O   0  0  0  0  0  0  0  0  0  0  0  0
    2.7919   23.0694  -15.6138 C   0  0  0  0  0  0  0  0  0  0  0  0
    3.8444   23.9428  -15.7844 C   0  0  0  0  0  0  0  0  0  0  0  0
    4.5873   23.9082  -16.9518 C   0  0  0  0  0  0  0  0  0  0  0  0
    4.2457   22.9849  -17.9243 C   0  0  0  0  0  0  0  0  0  0  0  0
    3.2038   22.0952  -17.7957 C   0  0  0  0  0  0  0  0  0  0  0  0
    2.4746   22.1579  -16.6040 C   0  0  0  0  0  0  0  0  0  0  0  0
    2.3669   23.9804  -13.3519 C   0  0  0  0  0  0  0  0  0  0  0  0
    2.0872   23.1465  -14.4355 O   0  0  0  0  0  0  0  0  0  0  0  0
    5.6484   24.7904  -17.1214 O   0  0  0  0  0  0  0  0  0  0  0  0
    6.5848   24.5770  -18.1560 C   0  0  0  0  0  0  0  0  0  0  0  0
   -1.8531   22.1357  -23.5836 C   0  0  0  0  0  0  0  0  0  0  0  0
   -2.9159   21.7506  -22.7854 C   0  0  0  0  0  0  0  0  0  0  0  0
   -4.0346   22.3119  -23.2927 N   0  0  0  0  0  0  0  0  0  0  0  0
   -3.7572   23.0343  -24.3681 N   0  0  0  0  0  0  0  0  0  0  0  0
   -2.4276   22.9324  -24.5525 C   0  0  0  0  0  0  0  0  0  0  0  0
   -4.7082   23.7727  -25.1742 C   0  0  0  0  0  0  0  0  0  0  0  0
   -5.7066   22.8705  -25.8427 C   0  0  0  0  0  0  0  0  0  0  0  0
   -6.7341   23.7431  -26.5189 C   0  0  0  0  0  0  0  0  0  0  0  0
   -6.1363   24.6697  -27.4659 N   0  0  0  0  0  0  0  0  0  0  0  0
   -5.1605   25.4756  -26.8137 C   0  0  0  0  0  0  0  0  0  0  0  0
   -4.0178   24.6604  -26.1899 C   0  0  0  0  0  0  0  0  0  0  0  0
   -5.7269   23.9227  -28.5967 C   0  0  0  0  0  0  0  0  0  0  0  0
   -5.5296   24.6596  -29.8712 C   0  0  0  0  0  0  0  0  0  0  0  0
   -4.2376   25.0410  -30.0816 F   0  0  0  0  0  0  0  0  0  0  0  0
   -5.9469   23.8702  -30.9480 F   0  0  0  0  0  0  0  0  0  0  0  0
 23 24  1  0  0  0
 24 17  1  0  0  0
 17 18  2  0  0  0
 18 19  1  0  0  0
 19 25  1  0  0  0
 25 26  1  0  0  0
 19 20  2  0  0  0
 20 21  1  0  0  0
 21 22  2  0  0  0
 21 10  1  0  0  0
 10 11  1  0  0  0
 11 12  2  0  0  0
 12 13  1  0  0  0
 13 14  2  0  0  0
 14 15  1  0  0  0
 15 16  2  0  0  0
 12  1  1  0  0  0
  1  2  2  0  0  0
  2  3  1  0  0  0
  3  4  2  0  0  0
  4  5  1  0  0  0
  5  6  2  0  0  0
  6  7  1  0  0  0
  3 27  1  0  0  0
 27 28  1  0  0  0
 28 29  2  0  0  0
 29 30  1  0  0  0
 30 31  1  0  0  0
 30 32  1  0  0  0
 32 33  1  0  0  0
 33 34  1  0  0  0
 34 35  1  0  0  0
 35 38  1  0  0  0
 38 39  1  0  0  0
 39 40  1  0  0  0
 39 41  1  0  0  0
 35 36  1  0  0  0
 36 37  1  0  0  0
 22 17  1  0  0  0
 15 10  1  0  0  0
  6  1  1  0  0  0
 31 27  2  0  0  0
 37 32  1  0  0  0
  7  8  1  0  0  0
  7  9  1  0  0  0
M  END
> <minimizedAffinity>
-8.47587

> <CNNscore>
0.1255696714

> <CNNaffinity>
6.6195321083

> <CNN_VS>
0.8312124610

> <CNNaffinity_variance>
0.1174767017

$$$$
[H]c1nc(N([H])[H])c(-c2nn(-c3c([H])c(OC([H])([H])[H])c([H])c(OC([H])([H])[H])c3[H])c(=O)c([H])c2[H])nc1-c1c([H])nn(C2([H])C([H])([H])C([H])([H])N(C([H])([H])C([H])(F)F)C([H])([H])C2([H])[H])c1[H]


 41 45  0  0  0  0  0  0  0  0999 V2000
   -0.6368   21.9502  -23.8478 C   0  0  0  0  0  0  0  0  0  0  0  0
   -1.6707   22.0359  -22.9781 N   0  0  0  0  0  0  0  0  0  0  0  0
   -1.5481   21.7179  -21.6849 C   0  0  0  0  0  0  0  0  0  0  0  0
   -0.3121   21.2894  -21.2500 C   0  0  0  0  0  0  0  0  0  0  0  0
    0.7439   21.1918  -22.0928 N   0  0  0  0  0  0  0  0  0  0  0  0
    0.6054   21.5132  -23.3801 C   0  0  0  0  0  0  0  0  0  0  0  0
    1.6671   21.4360  -24.3237 N   0  0  0  0  0  0  0  0  0  0  0  0
    1.7455   20.5156  -24.8393 H   0  0  0  0  0  0  0  0  0  0  0  0
    2.3276   22.1987  -24.5172 H   0  0  0  0  0  0  0  0  0  0  0  0
   -2.1037   23.0213  -27.0314 N   0  0  0  0  0  0  0  0  0  0  0  0
   -1.9377   22.6953  -25.7559 N   0  0  0  0  0  0  0  0  0  0  0  0
   -0.7839   22.3023  -25.2497 C   0  0  0  0  0  0  0  0  0  0  0  0
    0.3065   22.2254  -26.0854 C   0  0  0  0  0  0  0  0  0  0  0  0
    0.1676   22.5620  -27.4380 C   0  0  0  0  0  0  0  0  0  0  0  0
   -1.0670   22.9613  -27.8839 C   0  0  0  0  0  0  0  0  0  0  0  0
   -1.2100   23.2728  -29.1175 O   0  0  0  0  0  0  0  0  0  0  0  0
   -4.5973   24.4236  -29.3853 C   0  0  0  0  0  0  0  0  0  0  0  0
   -5.7765   24.2974  -28.6829 C   0  0  0  0  0  0  0  0  0  0  0  0
   -5.7679   23.7439  -27.4143 C   0  0  0  0  0  0  0  0  0  0  0  0
   -4.5593   23.3286  -26.8836 C   0  0  0  0  0  0  0  0  0  0  0  0
   -3.3596   23.4356  -27.5491 C   0  0  0  0  0  0  0  0  0  0  0  0
   -3.4050   23.9994  -28.8283 C   0  0  0  0  0  0  0  0  0  0  0  0
   -5.1887   26.2302  -30.9707 C   0  0  0  0  0  0  0  0  0  0  0  0
   -4.6625   24.9802  -30.6410 O   0  0  0  0  0  0  0  0  0  0  0  0
   -6.9588   23.6179  -26.7080 O   0  0  0  0  0  0  0  0  0  0  0  0
   -6.9742   23.8153  -25.3102 C   0  0  0  0  0  0  0  0  0  0  0  0
   -2.6575   21.8135  -20.7357 C   0  0  0  0  0  0  0  0  0  0  0  0
   -2.6886   21.3785  -19.4223 C   0  0  0  0  0  0  0  0  0  0  0  0
   -3.9126   21.6600  -18.9257 N   0  0  0  0  0  0  0  0  0  0  0  0
   -4.6708   22.2492  -19.8385 N   0  0  0  0  0  0  0  0  0  0  0  0
   -3.9122   22.3469  -20.9462 C   0  0  0  0  0  0  0  0  0  0  0  0
   -6.0410   22.6867  -19.6629 C   0  0  0  0  0  0  0  0  0  0  0  0
   -7.0037   21.8835  -20.4910 C   0  0  0  0  0  0  0  0  0  0  0  0
   -8.4004   22.3109  -20.1155 C   0  0  0  0  0  0  0  0  0  0  0  0
   -8.6087   23.7385  -20.2922 N   0  0  0  0  0  0  0  0  0  0  0  0
   -7.6510   24.4710  -19.5350 C   0  0  0  0  0  0  0  0  0  0  0  0
   -6.1994   24.1687  -19.9363 C   0  0  0  0  0  0  0  0  0  0  0  0
   -8.6846   23.9921  -21.6830 C   0  0  0  0  0  0  0  0  0  0  0  0
   -9.5647   25.1015  -22.1313 C   0  0  0  0  0  0  0  0  0  0  0  0
   -9.5659   25.2790  -23.4831 F   0  0  0  0  0  0  0  0  0  0  0  0
  -10.8773   24.8704  -21.7065 F   0  0  0  0  0  0  0  0  0  0  0  0
 23 24  1  0  0  0
 24 17  1  0  0  0
 17 18  2  0  0  0
 18 19  1  0  0  0
 19 25  1  0  0  0
 25 26  1  0  0  0
 19 20  2  0  0  0
 20 21  1  0  0  0
 21 22  2  0  0  0
 21 10  1  0  0  0
 10 11  1  0  0  0
 11 12  2  0  0  0
 12 13  1  0  0  0
 13 14  2  0  0  0
 14 15  1  0  0  0
 15 16  2  0  0  0
 12  1  1  0  0  0
  1  2  2  0  0  0
  2  3  1  0  0  0
  3  4  2  0  0  0
  4  5  1  0  0  0
  5  6  2  0  0  0
  6  7  1  0  0  0
  3 27  1  0  0  0
 27 28  1  0  0  0
 28 29  2  0  0  0
 29 30  1  0  0  0
 30 31  1  0  0  0
 30 32  1  0  0  0
 32 33  1  0  0  0
 33 34  1  0  0  0
 34 35  1  0  0  0
 35 38  1  0  0  0
 38 39  1  0  0  0
 39 40  1  0  0  0
 39 41  1  0  0  0
 35 36  1  0  0  0
 36 37  1  0  0  0
 22 17  1  0  0  0
 15 10  1  0  0  0
  6  1  1  0  0  0
 31 27  2  0  0  0
 37 32  1  0  0  0
  7  8  1  0  0  0
  7  9  1  0  0  0
M  END
> <minimizedAffinity>
-9.18204

> <CNNscore>
0.1041063219

> <CNNaffinity>
6.9307770729

> <CNN_VS>
0.7215377092

> <CNNaffinity_variance>
0.7164384127

$$$$
[H]c1nc(N([H])[H])c(-c2nn(-c3c([H])c(OC([H])([H])[H])c([H])c(OC([H])([H])[H])c3[H])c(=O)c([H])c2[H])nc1-c1c([H])nn(C2([H])C([H])([H])C([H])([H])N(C([H])([H])C([H])(F)F)C([H])([H])C2([H])[H])c1[H]


 41 45  0  0  0  0  0  0  0  0999 V2000
   -0.6886   21.8629  -23.0167 C   0  0  0  0  0  0  0  0  0  0  0  0
   -0.0725   20.7351  -22.5911 N   0  0  0  0  0  0  0  0  0  0  0  0
    0.0156   20.4109  -21.2968 C   0  0  0  0  0  0  0  0  0  0  0  0
   -0.5502   21.2762  -20.3848 C   0  0  0  0  0  0  0  0  0  0  0  0
   -1.1741   22.4133  -20.7755 N   0  0  0  0  0  0  0  0  0  0  0  0
   -1.2539   22.7223  -22.0708 C   0  0  0  0  0  0  0  0  0  0  0  0
   -1.8920   23.8973  -22.5563 N   0  0  0  0  0  0  0  0  0  0  0  0
   -1.2609   24.7385  -22.6701 H   0  0  0  0  0  0  0  0  0  0  0  0
   -2.8903   23.9603  -22.7908 H   0  0  0  0  0  0  0  0  0  0  0  0
   -1.9935   23.0169  -26.2416 N   0  0  0  0  0  0  0  0  0  0  0  0
   -1.8794   22.7006  -24.9579 N   0  0  0  0  0  0  0  0  0  0  0  0
   -0.7795   22.2006  -24.4269 C   0  0  0  0  0  0  0  0  0  0  0  0
    0.3083   21.9950  -25.2441 C   0  0  0  0  0  0  0  0  0  0  0  0
    0.2233   22.3174  -26.6045 C   0  0  0  0  0  0  0  0  0  0  0  0
   -0.9572   22.8333  -27.0767 C   0  0  0  0  0  0  0  0  0  0  0  0
   -1.0505   23.1335  -28.3178 O   0  0  0  0  0  0  0  0  0  0  0  0
   -4.8602   23.4678  -28.5446 C   0  0  0  0  0  0  0  0  0  0  0  0
   -5.5496   24.5108  -27.9644 C   0  0  0  0  0  0  0  0  0  0  0  0
   -5.0773   25.0850  -26.7969 C   0  0  0  0  0  0  0  0  0  0  0  0
   -3.9120   24.5871  -26.2409 C   0  0  0  0  0  0  0  0  0  0  0  0
   -3.1927   23.5484  -26.7861 C   0  0  0  0  0  0  0  0  0  0  0  0
   -3.6983   22.9920  -27.9655 C   0  0  0  0  0  0  0  0  0  0  0  0
   -5.7515   23.6385  -30.8475 C   0  0  0  0  0  0  0  0  0  0  0  0
   -5.3731   22.9342  -29.7036 O   0  0  0  0  0  0  0  0  0  0  0  0
   -5.7746   26.1370  -26.2137 O   0  0  0  0  0  0  0  0  0  0  0  0
   -5.0706   27.1956  -25.5999 C   0  0  0  0  0  0  0  0  0  0  0  0
    0.6733   19.1912  -20.8271 C   0  0  0  0  0  0  0  0  0  0  0  0
    2.0259   18.8993  -20.8398 C   0  0  0  0  0  0  0  0  0  0  0  0
    2.1838   17.6623  -20.3212 N   0  0  0  0  0  0  0  0  0  0  0  0
    1.0160   17.1402  -19.9759 N   0  0  0  0  0  0  0  0  0  0  0  0
    0.0887   18.0671  -20.2811 C   0  0  0  0  0  0  0  0  0  0  0  0
    0.8003   15.8307  -19.3944 C   0  0  0  0  0  0  0  0  0  0  0  0
   -0.6209   15.3682  -19.5494 C   0  0  0  0  0  0  0  0  0  0  0  0
   -0.6969   13.9443  -19.0582 C   0  0  0  0  0  0  0  0  0  0  0  0
   -0.2391   13.8072  -17.6855 N   0  0  0  0  0  0  0  0  0  0  0  0
    1.0911   14.2990  -17.5609 C   0  0  0  0  0  0  0  0  0  0  0  0
    1.2292   15.7807  -17.9419 C   0  0  0  0  0  0  0  0  0  0  0  0
   -1.2313   14.3664  -16.8445 C   0  0  0  0  0  0  0  0  0  0  0  0
   -2.4533   13.5599  -16.5946 C   0  0  0  0  0  0  0  0  0  0  0  0
   -2.2343   12.2151  -16.6459 F   0  0  0  0  0  0  0  0  0  0  0  0
   -2.9890   13.8812  -15.3430 F   0  0  0  0  0  0  0  0  0  0  0  0
 23 24  1  0  0  0
 24 17  1  0  0  0
 17 18  2  0  0  0
 18 19  1  0  0  0
 19 25  1  0  0  0
 25 26  1  0  0  0
 19 20  2  0  0  0
 20 21  1  0  0  0
 21 22  2  0  0  0
 21 10  1  0  0  0
 10 11  1  0  0  0
 11 12  2  0  0  0
 12 13  1  0  0  0
 13 14  2  0  0  0
 14 15  1  0  0  0
 15 16  2  0  0  0
 12  1  1  0  0  0
  1  2  2  0  0  0
  2  3  1  0  0  0
  3  4  2  0  0  0
  4  5  1  0  0  0
  5  6  2  0  0  0
  6  7  1  0  0  0
  3 27  1  0  0  0
 27 28  1  0  0  0
 28 29  2  0  0  0
 29 30  1  0  0  0
 30 31  1  0  0  0
 30 32  1  0  0  0
 32 33  1  0  0  0
 33 34  1  0  0  0
 34 35  1  0  0  0
 35 38  1  0  0  0
 38 39  1  0  0  0
 39 40  1  0  0  0
 39 41  1  0  0  0
 35 36  1  0  0  0
 36 37  1  0  0  0
 22 17  1  0  0  0
 15 10  1  0  0  0
  6  1  1  0  0  0
 31 27  2  0  0  0
 37 32  1  0  0  0
  7  8  1  0  0  0
  7  9  1  0  0  0
M  END
> <minimizedAffinity>
-7.80971

> <CNNscore>
0.1013641804

> <CNNaffinity>
6.4360785484

> <CNN_VS>
0.6523877978

> <CNNaffinity_variance>
0.0299545266

$$$$
[H]c1nc(N([H])[H])c(-c2nn(-c3c([H])c(OC([H])([H])[H])c([H])c(OC([H])([H])[H])c3[H])c(=O)c([H])c2[H])nc1-c1c([H])nn(C2([H])C([H])([H])C([H])([H])N(C([H])([H])C([H])(F)F)C([H])([H])C2([H])[H])c1[H]


 41 45  0  0  0  0  0  0  0  0999 V2000
   -0.7684   21.9780  -22.9332 C   0  0  0  0  0  0  0  0  0  0  0  0
   -0.1336   20.8797  -22.4606 N   0  0  0  0  0  0  0  0  0  0  0  0
   -0.0694   20.5944  -21.1557 C   0  0  0  0  0  0  0  0  0  0  0  0
   -0.6806   21.4692  -20.2829 C   0  0  0  0  0  0  0  0  0  0  0  0
   -1.3245   22.5776  -20.7212 N   0  0  0  0  0  0  0  0  0  0  0  0
   -1.3798   22.8478  -22.0264 C   0  0  0  0  0  0  0  0  0  0  0  0
   -2.0365   23.9910  -22.5607 N   0  0  0  0  0  0  0  0  0  0  0  0
   -1.4252   24.8456  -22.6832 H   0  0  0  0  0  0  0  0  0  0  0  0
   -3.0300   24.0202  -22.8211 H   0  0  0  0  0  0  0  0  0  0  0  0
   -2.0214   23.0076  -26.2202 N   0  0  0  0  0  0  0  0  0  0  0  0
   -1.9312   22.7306  -24.9255 N   0  0  0  0  0  0  0  0  0  0  0  0
   -0.8328   22.2735  -24.3542 C   0  0  0  0  0  0  0  0  0  0  0  0
    0.2794   22.0722  -25.1390 C   0  0  0  0  0  0  0  0  0  0  0  0
    0.2200   22.3540  -26.5098 C   0  0  0  0  0  0  0  0  0  0  0  0
   -0.9607   22.8266  -27.0247 C   0  0  0  0  0  0  0  0  0  0  0  0
   -1.0307   23.0893  -28.2758 O   0  0  0  0  0  0  0  0  0  0  0  0
   -5.0535   25.0769  -26.7193 C   0  0  0  0  0  0  0  0  0  0  0  0
   -5.5960   24.5416  -27.8678 C   0  0  0  0  0  0  0  0  0  0  0  0
   -4.9661   23.4836  -28.5000 C   0  0  0  0  0  0  0  0  0  0  0  0
   -3.7953   22.9897  -27.9519 C   0  0  0  0  0  0  0  0  0  0  0  0
   -3.2194   23.4934  -26.8082 C   0  0  0  0  0  0  0  0  0  0  0  0
   -3.8822   24.5617  -26.1955 C   0  0  0  0  0  0  0  0  0  0  0  0
   -5.1489   27.2942  -25.6233 C   0  0  0  0  0  0  0  0  0  0  0  0
   -5.7198   26.1265  -26.1317 O   0  0  0  0  0  0  0  0  0  0  0  0
   -5.5154   22.9454  -29.6583 O   0  0  0  0  0  0  0  0  0  0  0  0
   -5.7432   23.7710  -30.7805 C   0  0  0  0  0  0  0  0  0  0  0  0
    0.6084   19.4067  -20.6354 C   0  0  0  0  0  0  0  0  0  0  0  0
    0.0503   18.3503  -19.9370 C   0  0  0  0  0  0  0  0  0  0  0  0
    1.0422   17.4814  -19.6455 N   0  0  0  0  0  0  0  0  0  0  0  0
    2.2041   17.9135  -20.1132 N   0  0  0  0  0  0  0  0  0  0  0  0
    1.9481   19.0880  -20.7191 C   0  0  0  0  0  0  0  0  0  0  0  0
    3.4832   17.2454  -19.9826 C   0  0  0  0  0  0  0  0  0  0  0  0
    4.6027   18.0385  -20.5952 C   0  0  0  0  0  0  0  0  0  0  0  0
    5.8966   17.3369  -20.2662 C   0  0  0  0  0  0  0  0  0  0  0  0
    5.9096   15.9571  -20.7228 N   0  0  0  0  0  0  0  0  0  0  0  0
    4.8098   15.2456  -20.1650 C   0  0  0  0  0  0  0  0  0  0  0  0
    3.4456   15.8395  -20.5467 C   0  0  0  0  0  0  0  0  0  0  0  0
    6.0389   15.9730  -22.1326 C   0  0  0  0  0  0  0  0  0  0  0  0
    6.0364   14.6652  -22.8368 C   0  0  0  0  0  0  0  0  0  0  0  0
    4.8169   14.3255  -23.3433 F   0  0  0  0  0  0  0  0  0  0  0  0
    6.9679   14.6836  -23.8802 F   0  0  0  0  0  0  0  0  0  0  0  0
 23 24  1  0  0  0
 24 17  1  0  0  0
 17 18  2  0  0  0
 18 19  1  0  0  0
 19 25  1  0  0  0
 25 26  1  0  0  0
 19 20  2  0  0  0
 20 21  1  0  0  0
 21 22  2  0  0  0
 21 10  1  0  0  0
 10 11  1  0  0  0
 11 12  2  0  0  0
 12 13  1  0  0  0
 13 14  2  0  0  0
 14 15  1  0  0  0
 15 16  2  0  0  0
 12  1  1  0  0  0
  1  2  2  0  0  0
  2  3  1  0  0  0
  3  4  2  0  0  0
  4  5  1  0  0  0
  5  6  2  0  0  0
  6  7  1  0  0  0
  3 27  1  0  0  0
 27 28  1  0  0  0
 28 29  2  0  0  0
 29 30  1  0  0  0
 30 31  1  0  0  0
 30 32  1  0  0  0
 32 33  1  0  0  0
 33 34  1  0  0  0
 34 35  1  0  0  0
 35 38  1  0  0  0
 38 39  1  0  0  0
 39 40  1  0  0  0
 39 41  1  0  0  0
 35 36  1  0  0  0
 36 37  1  0  0  0
 22 17  1  0  0  0
 15 10  1  0  0  0
  6  1  1  0  0  0
 31 27  2  0  0  0
 37 32  1  0  0  0
  7  8  1  0  0  0
  7  9  1  0  0  0
M  END
> <minimizedAffinity>
-8.11871

> <CNNscore>
0.0930097699

> <CNNaffinity>
6.6118941307

> <CNN_VS>
0.6149707437

> <CNNaffinity_variance>
0.0220968015

$$$$
[H]c1nc(N([H])[H])c(-c2nn(-c3c([H])c(OC([H])([H])[H])c([H])c(OC([H])([H])[H])c3[H])c(=O)c([H])c2[H])nc1-c1c([H])nn(C2([H])C([H])([H])C([H])([H])N(C([H])([H])C([H])(F)F)C([H])([H])C2([H])[H])c1[H]


 41 45  0  0  0  0  0  0  0  0999 V2000
   -0.7669   21.9988  -23.8229 C   0  0  0  0  0  0  0  0  0  0  0  0
   -1.6449   22.0356  -22.7933 N   0  0  0  0  0  0  0  0  0  0  0  0
   -1.3005   21.7024  -21.5448 C   0  0  0  0  0  0  0  0  0  0  0  0
    0.0033   21.3101  -21.3284 C   0  0  0  0  0  0  0  0  0  0  0  0
    0.9081   21.2616  -22.3354 N   0  0  0  0  0  0  0  0  0  0  0  0
    0.5486   21.5977  -23.5754 C   0  0  0  0  0  0  0  0  0  0  0  0
    1.4417   21.5713  -24.6823 N   0  0  0  0  0  0  0  0  0  0  0  0
    1.4627   20.6621  -25.2227 H   0  0  0  0  0  0  0  0  0  0  0  0
    2.0369   22.3591  -24.9662 H   0  0  0  0  0  0  0  0  0  0  0  0
   -2.6745   23.3311  -26.6550 N   0  0  0  0  0  0  0  0  0  0  0  0
   -2.2921   22.9841  -25.4325 N   0  0  0  0  0  0  0  0  0  0  0  0
   -1.1546   22.3669  -25.1739 C   0  0  0  0  0  0  0  0  0  0  0  0
   -0.3185   22.0657  -26.2244 C   0  0  0  0  0  0  0  0  0  0  0  0
   -0.6903   22.4172  -27.5283 C   0  0  0  0  0  0  0  0  0  0  0  0
   -1.8901   23.0574  -27.7108 C   0  0  0  0  0  0  0  0  0  0  0  0
   -2.2439   23.3856  -28.8966 O   0  0  0  0  0  0  0  0  0  0  0  0
   -6.2018   24.3769  -26.2195 C   0  0  0  0  0  0  0  0  0  0  0  0
   -6.3962   25.2275  -27.2865 C   0  0  0  0  0  0  0  0  0  0  0  0
   -5.3604   25.4716  -28.1716 C   0  0  0  0  0  0  0  0  0  0  0  0
   -4.1454   24.8457  -27.9545 C   0  0  0  0  0  0  0  0  0  0  0  0
   -3.9079   23.9900  -26.9034 C   0  0  0  0  0  0  0  0  0  0  0  0
   -4.9762   23.7659  -26.0289 C   0  0  0  0  0  0  0  0  0  0  0  0
   -7.5453   24.8775  -24.2017 C   0  0  0  0  0  0  0  0  0  0  0  0
   -7.2639   24.1694  -25.3710 O   0  0  0  0  0  0  0  0  0  0  0  0
   -5.5591   26.3300  -29.2470 O   0  0  0  0  0  0  0  0  0  0  0  0
   -5.1021   25.9675  -30.5326 C   0  0  0  0  0  0  0  0  0  0  0  0
   -2.2401   21.7453  -20.4241 C   0  0  0  0  0  0  0  0  0  0  0  0
   -2.1601   21.0597  -19.2246 C   0  0  0  0  0  0  0  0  0  0  0  0
   -3.2441   21.3902  -18.4900 N   0  0  0  0  0  0  0  0  0  0  0  0
   -4.0167   22.2460  -19.1428 N   0  0  0  0  0  0  0  0  0  0  0  0
   -3.4109   22.4683  -20.3242 C   0  0  0  0  0  0  0  0  0  0  0  0
   -5.2627   22.8121  -18.6669 C   0  0  0  0  0  0  0  0  0  0  0  0
   -6.2319   21.7548  -18.2193 C   0  0  0  0  0  0  0  0  0  0  0  0
   -7.4184   22.4510  -17.6012 C   0  0  0  0  0  0  0  0  0  0  0  0
   -8.0435   23.3944  -18.5133 N   0  0  0  0  0  0  0  0  0  0  0  0
   -7.0888   24.3525  -18.9577 C   0  0  0  0  0  0  0  0  0  0  0  0
   -5.8971   23.7252  -19.6965 C   0  0  0  0  0  0  0  0  0  0  0  0
   -8.7352   22.6465  -19.4964 C   0  0  0  0  0  0  0  0  0  0  0  0
   -9.7811   23.3489  -20.2831 C   0  0  0  0  0  0  0  0  0  0  0  0
  -10.3661   24.3788  -19.6079 F   0  0  0  0  0  0  0  0  0  0  0  0
   -9.2327   23.8433  -21.4712 F   0  0  0  0  0  0  0  0  0  0  0  0
 23 24  1  0  0  0
 24 17  1  0  0  0
 17 18  2  0  0  0
 18 19  1  0  0  0
 19 25  1  0  0  0
 25 26  1  0  0  0
 19 20  2  0  0  0
 20 21  1  0  0  0
 21 22  2  0  0  0
 21 10  1  0  0  0
 10 11  1  0  0  0
 11 12  2  0  0  0
 12 13  1  0  0  0
 13 14  2  0  0  0
 14 15  1  0  0  0
 15 16  2  0  0  0
 12  1  1  0  0  0
  1  2  2  0  0  0
  2  3  1  0  0  0
  3  4  2  0  0  0
  4  5  1  0  0  0
  5  6  2  0  0  0
  6  7  1  0  0  0
  3 27  1  0  0  0
 27 28  1  0  0  0
 28 29  2  0  0  0
 29 30  1  0  0  0
 30 31  1  0  0  0
 30 32  1  0  0  0
 32 33  1  0  0  0
 33 34  1  0  0  0
 34 35  1  0  0  0
 35 38  1  0  0  0
 38 39  1  0  0  0
 39 40  1  0  0  0
 39 41  1  0  0  0
 35 36  1  0  0  0
 36 37  1  0  0  0
 22 17  1  0  0  0
 15 10  1  0  0  0
  6  1  1  0  0  0
 31 27  2  0  0  0
 37 32  1  0  0  0
  7  8  1  0  0  0
  7  9  1  0  0  0
M  END
> <minimizedAffinity>
-8.74804

> <CNNscore>
0.0926941484

> <CNNaffinity>
6.7998795509

> <CNN_VS>
0.6303090453

> <CNNaffinity_variance>
0.3796189725

$$$$
