[H]c1c([H])c([N+](=O)[O-])c([H])c([H])c1N1C([H])([H])C([H])([H])N(C(=O)c2nc3c([H])c([H])c([H])c([H])c3n2[H])C([H])([H])C1([H])[H]


 27 30  0  0  0  0  0  0  0  0999 V2000
   -0.7910   21.9285  -23.5667 N   0  0  0  0  0  0  0  0  0  0  0  0
    0.3343   22.4526  -24.2888 C   0  0  0  0  0  0  0  0  0  0  0  0
    0.3577   21.7621  -25.6602 C   0  0  0  0  0  0  0  0  0  0  0  0
   -0.8850   22.2287  -26.3013 N   0  0  0  0  0  0  0  0  0  0  0  0
   -2.1294   22.1549  -25.5899 C   0  0  0  0  0  0  0  0  0  0  0  0
   -1.9622   21.4784  -24.2420 C   0  0  0  0  0  0  0  0  0  0  0  0
   -0.8021   22.7348  -27.6003 C   0  0  0  0  0  0  0  0  0  0  0  0
    0.3328   22.7732  -28.1947 O   0  0  0  0  0  0  0  0  0  0  0  0
   -1.9896   23.2259  -28.3021 C   0  0  0  0  0  0  0  0  0  0  0  0
   -3.1463   22.6087  -28.5511 N   0  0  0  0  0  0  0  0  0  0  0  0
   -3.9950   23.4034  -29.2232 C   0  0  0  0  0  0  0  0  0  0  0  0
   -5.2809   23.2586  -29.7123 C   0  0  0  0  0  0  0  0  0  0  0  0
   -5.9408   24.2676  -30.3883 C   0  0  0  0  0  0  0  0  0  0  0  0
   -5.2601   25.4550  -30.5650 C   0  0  0  0  0  0  0  0  0  0  0  0
   -3.9678   25.6454  -30.0909 C   0  0  0  0  0  0  0  0  0  0  0  0
   -3.3316   24.6137  -29.4162 C   0  0  0  0  0  0  0  0  0  0  0  0
   -2.1258   24.4713  -28.8483 N   0  0  0  0  0  0  0  0  0  0  0  0
   -1.3887   25.2064  -28.8237 H   0  0  0  0  0  0  0  0  0  0  0  0
   -0.6671   21.6640  -19.3274 C   0  0  0  0  0  0  0  0  0  0  0  0
    0.3396   21.1246  -20.0972 C   0  0  0  0  0  0  0  0  0  0  0  0
    0.2713   21.2302  -21.4671 C   0  0  0  0  0  0  0  0  0  0  0  0
   -0.7620   21.8536  -22.1151 C   0  0  0  0  0  0  0  0  0  0  0  0
   -1.7596   22.3873  -21.3367 C   0  0  0  0  0  0  0  0  0  0  0  0
   -1.7277   22.3027  -19.9669 C   0  0  0  0  0  0  0  0  0  0  0  0
   -1.6721   21.9068  -17.1634 O   0  0  0  0  0  0  0  0  0  0  0  0
   -0.5989   21.5570  -17.9255 N   0  0  0  0  0  0  0  0  0  0  0  0
    0.4288   21.1475  -17.3835 O   0  0  0  0  0  0  0  0  0  0  0  0
 25 26  1  0  0  0
 26 27  2  0  0  0
 26 19  1  0  0  0
 19 20  2  0  0  0
 20 21  1  0  0  0
 21 22  2  0  0  0
 22 23  1  0  0  0
 23 24  2  0  0  0
 22  1  1  0  0  0
  1  2  1  0  0  0
  2  3  1  0  0  0
  3  4  1  0  0  0
  4  5  1  0  0  0
  5  6  1  0  0  0
  4  7  1  0  0  0
  7  8  2  0  0  0
  7  9  1  0  0  0
  9 10  2  0  0  0
 10 11  1  0  0  0
 11 12  2  0  0  0
 12 13  1  0  0  0
 13 14  2  0  0  0
 14 15  1  0  0  0
 15 16  2  0  0  0
 16 17  1  0  0  0
 24 19  1  0  0  0
  6  1  1  0  0  0
 17  9  1  0  0  0
 16 11  1  0  0  0
 17 18  1  0  0  0
M  CHG 1  25  -1
M  CHG 1  26   1
M  END
> <minimizedAffinity>
-6.97676

> <CNNscore>
0.6809075475

> <CNNaffinity>
6.2777872086

> <CNN_VS>
4.2745928764

> <CNNaffinity_variance>
0.0647407696

$$$$
[H]c1c([H])c([N+](=O)[O-])c([H])c([H])c1N1C([H])([H])C([H])([H])N(C(=O)c2nc3c([H])c([H])c([H])c([H])c3n2[H])C([H])([H])C1([H])[H]


 27 30  0  0  0  0  0  0  0  0999 V2000
   -1.2972   22.1939  -22.3807 N   0  0  0  0  0  0  0  0  0  0  0  0
   -1.9361   23.3003  -21.7248 C   0  0  0  0  0  0  0  0  0  0  0  0
   -2.8235   22.7209  -20.6136 C   0  0  0  0  0  0  0  0  0  0  0  0
   -1.8563   22.1056  -19.6868 N   0  0  0  0  0  0  0  0  0  0  0  0
   -0.8400   21.2267  -20.1917 C   0  0  0  0  0  0  0  0  0  0  0  0
   -0.9983   20.9886  -21.6818 C   0  0  0  0  0  0  0  0  0  0  0  0
   -1.9676   22.4076  -18.3279 C   0  0  0  0  0  0  0  0  0  0  0  0
   -2.8973   23.1936  -17.9269 O   0  0  0  0  0  0  0  0  0  0  0  0
   -1.0401   21.8435  -17.3453 C   0  0  0  0  0  0  0  0  0  0  0  0
    0.2411   22.1394  -17.1176 N   0  0  0  0  0  0  0  0  0  0  0  0
    0.7486   21.3987  -16.1189 C   0  0  0  0  0  0  0  0  0  0  0  0
    1.9853   21.3122  -15.5049 C   0  0  0  0  0  0  0  0  0  0  0  0
    2.2443   20.4360  -14.4677 C   0  0  0  0  0  0  0  0  0  0  0  0
    1.2046   19.6292  -14.0524 C   0  0  0  0  0  0  0  0  0  0  0  0
   -0.0538   19.6819  -14.6395 C   0  0  0  0  0  0  0  0  0  0  0  0
   -0.2830   20.5717  -15.6787 C   0  0  0  0  0  0  0  0  0  0  0  0
   -1.3462   20.8666  -16.4399 N   0  0  0  0  0  0  0  0  0  0  0  0
   -2.2812   20.4156  -16.3572 H   0  0  0  0  0  0  0  0  0  0  0  0
   -0.1663   22.4664  -26.4676 C   0  0  0  0  0  0  0  0  0  0  0  0
    0.7629   22.1616  -25.4978 C   0  0  0  0  0  0  0  0  0  0  0  0
    0.3637   22.0776  -24.1840 C   0  0  0  0  0  0  0  0  0  0  0  0
   -0.9300   22.2846  -23.7844 C   0  0  0  0  0  0  0  0  0  0  0  0
   -1.8471   22.5879  -24.7606 C   0  0  0  0  0  0  0  0  0  0  0  0
   -1.4882   22.6808  -26.0823 C   0  0  0  0  0  0  0  0  0  0  0  0
    0.4946   23.7693  -28.3696 O   0  0  0  0  0  0  0  0  0  0  0  0
    0.2403   22.5529  -27.8124 N   0  0  0  0  0  0  0  0  0  0  0  0
    0.3675   21.5314  -28.4893 O   0  0  0  0  0  0  0  0  0  0  0  0
 25 26  1  0  0  0
 26 27  2  0  0  0
 26 19  1  0  0  0
 19 20  2  0  0  0
 20 21  1  0  0  0
 21 22  2  0  0  0
 22 23  1  0  0  0
 23 24  2  0  0  0
 22  1  1  0  0  0
  1  2  1  0  0  0
  2  3  1  0  0  0
  3  4  1  0  0  0
  4  5  1  0  0  0
  5  6  1  0  0  0
  4  7  1  0  0  0
  7  8  2  0  0  0
  7  9  1  0  0  0
  9 10  2  0  0  0
 10 11  1  0  0  0
 11 12  2  0  0  0
 12 13  1  0  0  0
 13 14  2  0  0  0
 14 15  1  0  0  0
 15 16  2  0  0  0
 16 17  1  0  0  0
 24 19  1  0  0  0
  6  1  1  0  0  0
 17  9  1  0  0  0
 16 11  1  0  0  0
 17 18  1  0  0  0
M  CHG 1  25  -1
M  CHG 1  26   1
M  END
> <minimizedAffinity>
-5.55224

> <CNNscore>
0.3159061670

> <CNNaffinity>
5.0625638962

> <CNN_VS>
1.5992951393

> <CNNaffinity_variance>
0.0048999218

$$$$
[H]c1c([H])c([N+](=O)[O-])c([H])c([H])c1N1C([H])([H])C([H])([H])N(C(=O)c2nc3c([H])c([H])c([H])c([H])c3n2[H])C([H])([H])C1([H])[H]


 27 30  0  0  0  0  0  0  0  0999 V2000
   -0.4350   19.2651  -19.5024 N   0  0  0  0  0  0  0  0  0  0  0  0
   -1.2890   20.3398  -19.0802 C   0  0  0  0  0  0  0  0  0  0  0  0
   -0.6233   21.6513  -19.5216 C   0  0  0  0  0  0  0  0  0  0  0  0
   -0.6448   21.5696  -20.9933 N   0  0  0  0  0  0  0  0  0  0  0  0
   -0.1766   20.3832  -21.6517 C   0  0  0  0  0  0  0  0  0  0  0  0
    0.3860   19.3807  -20.6613 C   0  0  0  0  0  0  0  0  0  0  0  0
   -1.1297   22.6698  -21.7037 C   0  0  0  0  0  0  0  0  0  0  0  0
   -1.5303   23.7084  -21.0684 O   0  0  0  0  0  0  0  0  0  0  0  0
   -1.1915   22.6630  -23.1666 C   0  0  0  0  0  0  0  0  0  0  0  0
   -2.2549   22.6463  -23.9727 N   0  0  0  0  0  0  0  0  0  0  0  0
   -1.8936   22.6501  -25.2661 C   0  0  0  0  0  0  0  0  0  0  0  0
   -2.5805   22.6386  -26.4669 C   0  0  0  0  0  0  0  0  0  0  0  0
   -1.9418   22.6466  -27.6927 C   0  0  0  0  0  0  0  0  0  0  0  0
   -0.5620   22.6671  -27.6820 C   0  0  0  0  0  0  0  0  0  0  0  0
    0.1694   22.6794  -26.5005 C   0  0  0  0  0  0  0  0  0  0  0  0
   -0.5003   22.6708  -25.2856 C   0  0  0  0  0  0  0  0  0  0  0  0
   -0.1109   22.6781  -24.0030 N   0  0  0  0  0  0  0  0  0  0  0  0
    0.8795   22.6932  -23.6816 H   0  0  0  0  0  0  0  0  0  0  0  0
   -0.3462   15.5966  -17.3599 C   0  0  0  0  0  0  0  0  0  0  0  0
   -0.4354   15.6084  -18.7342 C   0  0  0  0  0  0  0  0  0  0  0  0
   -0.4585   16.8130  -19.3982 C   0  0  0  0  0  0  0  0  0  0  0  0
   -0.3965   18.0198  -18.7532 C   0  0  0  0  0  0  0  0  0  0  0  0
   -0.3078   17.9949  -17.3830 C   0  0  0  0  0  0  0  0  0  0  0  0
   -0.2820   16.8136  -16.6842 C   0  0  0  0  0  0  0  0  0  0  0  0
   -0.6958   14.3036  -15.3704 O   0  0  0  0  0  0  0  0  0  0  0  0
   -0.3225   14.3650  -16.6787 N   0  0  0  0  0  0  0  0  0  0  0  0
    0.0351   13.3402  -17.2615 O   0  0  0  0  0  0  0  0  0  0  0  0
 25 26  1  0  0  0
 26 27  2  0  0  0
 26 19  1  0  0  0
 19 20  2  0  0  0
 20 21  1  0  0  0
 21 22  2  0  0  0
 22 23  1  0  0  0
 23 24  2  0  0  0
 22  1  1  0  0  0
  1  2  1  0  0  0
  2  3  1  0  0  0
  3  4  1  0  0  0
  4  5  1  0  0  0
  5  6  1  0  0  0
  4  7  1  0  0  0
  7  8  2  0  0  0
  7  9  1  0  0  0
  9 10  2  0  0  0
 10 11  1  0  0  0
 11 12  2  0  0  0
 12 13  1  0  0  0
 13 14  2  0  0  0
 14 15  1  0  0  0
 15 16  2  0  0  0
 16 17  1  0  0  0
 24 19  1  0  0  0
  6  1  1  0  0  0
 17  9  1  0  0  0
 16 11  1  0  0  0
 17 18  1  0  0  0
M  CHG 1  25  -1
M  CHG 1  26   1
M  END
> <minimizedAffinity>
-6.09307

> <CNNscore>
0.2472273558

> <CNNaffinity>
4.9375658035

> <CNN_VS>
1.2207013369

> <CNNaffinity_variance>
0.0376678295

$$$$
[H]c1c([H])c([N+](=O)[O-])c([H])c([H])c1N1C([H])([H])C([H])([H])N(C(=O)c2nc3c([H])c([H])c([H])c([H])c3n2[H])C([H])([H])C1([H])[H]


 27 30  0  0  0  0  0  0  0  0999 V2000
    0.9663   19.7886  -19.2933 N   0  0  0  0  0  0  0  0  0  0  0  0
   -0.1243   20.5799  -18.7963 C   0  0  0  0  0  0  0  0  0  0  0  0
    0.0765   22.0107  -19.3163 C   0  0  0  0  0  0  0  0  0  0  0  0
   -0.0594   21.8679  -20.7772 N   0  0  0  0  0  0  0  0  0  0  0  0
    0.6753   20.8469  -21.4685 C   0  0  0  0  0  0  0  0  0  0  0  0
    1.6018   20.0948  -20.5314 C   0  0  0  0  0  0  0  0  0  0  0  0
   -0.9145   22.7474  -21.4448 C   0  0  0  0  0  0  0  0  0  0  0  0
   -1.5433   23.6463  -20.7819 O   0  0  0  0  0  0  0  0  0  0  0  0
   -1.1102   22.6646  -22.8935 C   0  0  0  0  0  0  0  0  0  0  0  0
   -0.2080   22.6914  -23.8764 N   0  0  0  0  0  0  0  0  0  0  0  0
   -0.7889   22.5842  -25.0825 C   0  0  0  0  0  0  0  0  0  0  0  0
   -0.3252   22.5589  -26.3856 C   0  0  0  0  0  0  0  0  0  0  0  0
   -1.1665   22.4358  -27.4753 C   0  0  0  0  0  0  0  0  0  0  0  0
   -2.5185   22.3362  -27.2172 C   0  0  0  0  0  0  0  0  0  0  0  0
   -3.0292   22.3570  -25.9250 C   0  0  0  0  0  0  0  0  0  0  0  0
   -2.1594   22.4818  -24.8515 C   0  0  0  0  0  0  0  0  0  0  0  0
   -2.3170   22.5336  -23.5214 N   0  0  0  0  0  0  0  0  0  0  0  0
   -3.2325   22.4819  -23.0278 H   0  0  0  0  0  0  0  0  0  0  0  0
    2.4166   16.4392  -17.1174 C   0  0  0  0  0  0  0  0  0  0  0  0
    3.2877   17.3507  -17.6718 C   0  0  0  0  0  0  0  0  0  0  0  0
    2.7859   18.4262  -18.3675 C   0  0  0  0  0  0  0  0  0  0  0  0
    1.4440   18.6407  -18.5399 C   0  0  0  0  0  0  0  0  0  0  0  0
    0.5857   17.7250  -17.9825 C   0  0  0  0  0  0  0  0  0  0  0  0
    1.0473   16.6389  -17.2811 C   0  0  0  0  0  0  0  0  0  0  0  0
    3.3964   15.5058  -15.1373 O   0  0  0  0  0  0  0  0  0  0  0  0
    2.9282   15.3381  -16.4053 N   0  0  0  0  0  0  0  0  0  0  0  0
    2.9546   14.2212  -16.9244 O   0  0  0  0  0  0  0  0  0  0  0  0
 25 26  1  0  0  0
 26 27  2  0  0  0
 26 19  1  0  0  0
 19 20  2  0  0  0
 20 21  1  0  0  0
 21 22  2  0  0  0
 22 23  1  0  0  0
 23 24  2  0  0  0
 22  1  1  0  0  0
  1  2  1  0  0  0
  2  3  1  0  0  0
  3  4  1  0  0  0
  4  5  1  0  0  0
  5  6  1  0  0  0
  4  7  1  0  0  0
  7  8  2  0  0  0
  7  9  1  0  0  0
  9 10  2  0  0  0
 10 11  1  0  0  0
 11 12  2  0  0  0
 12 13  1  0  0  0
 13 14  2  0  0  0
 14 15  1  0  0  0
 15 16  2  0  0  0
 16 17  1  0  0  0
 24 19  1  0  0  0
  6  1  1  0  0  0
 17  9  1  0  0  0
 16 11  1  0  0  0
 17 18  1  0  0  0
M  CHG 1  25  -1
M  CHG 1  26   1
M  END
> <minimizedAffinity>
-5.60470

> <CNNscore>
0.2174680382

> <CNNaffinity>
4.8490400314

> <CNN_VS>
1.0545111895

> <CNNaffinity_variance>
0.0328174792

$$$$
[H]c1c([H])c([N+](=O)[O-])c([H])c([H])c1N1C([H])([H])C([H])([H])N(C(=O)c2nc3c([H])c([H])c([H])c([H])c3n2[H])C([H])([H])C1([H])[H]


 27 30  0  0  0  0  0  0  0  0999 V2000
   -0.5746   21.8306  -22.5921 N   0  0  0  0  0  0  0  0  0  0  0  0
   -1.5611   22.3406  -21.6816 C   0  0  0  0  0  0  0  0  0  0  0  0
   -1.6551   21.3518  -20.5105 C   0  0  0  0  0  0  0  0  0  0  0  0
   -0.3261   21.4398  -19.8787 N   0  0  0  0  0  0  0  0  0  0  0  0
    0.8579   21.3383  -20.6837 C   0  0  0  0  0  0  0  0  0  0  0  0
    0.5228   21.0452  -22.1343 C   0  0  0  0  0  0  0  0  0  0  0  0
   -0.2691   21.6226  -18.4953 C   0  0  0  0  0  0  0  0  0  0  0  0
   -1.3560   21.7007  -17.8206 O   0  0  0  0  0  0  0  0  0  0  0  0
    1.0123   21.7283  -17.7947 C   0  0  0  0  0  0  0  0  0  0  0  0
    2.2178   21.2838  -18.1552 N   0  0  0  0  0  0  0  0  0  0  0  0
    3.1497   21.5846  -17.2361 C   0  0  0  0  0  0  0  0  0  0  0  0
    4.5105   21.3625  -17.1234 C   0  0  0  0  0  0  0  0  0  0  0  0
    5.2499   21.7928  -16.0377 C   0  0  0  0  0  0  0  0  0  0  0  0
    4.5717   22.4684  -15.0437 C   0  0  0  0  0  0  0  0  0  0  0  0
    3.2059   22.7142  -15.1145 C   0  0  0  0  0  0  0  0  0  0  0  0
    2.4908   22.2697  -16.2170 C   0  0  0  0  0  0  0  0  0  0  0  0
    1.2042   22.3382  -16.5868 N   0  0  0  0  0  0  0  0  0  0  0  0
    0.4489   22.7931  -16.0328 H   0  0  0  0  0  0  0  0  0  0  0  0
   -0.8042   22.6936  -26.7465 C   0  0  0  0  0  0  0  0  0  0  0  0
    0.3945   22.7799  -26.0737 C   0  0  0  0  0  0  0  0  0  0  0  0
    0.4357   22.4905  -24.7295 C   0  0  0  0  0  0  0  0  0  0  0  0
   -0.6708   22.1154  -24.0145 C   0  0  0  0  0  0  0  0  0  0  0  0
   -1.8600   22.0331  -24.6965 C   0  0  0  0  0  0  0  0  0  0  0  0
   -1.9422   22.3136  -26.0377 C   0  0  0  0  0  0  0  0  0  0  0  0
   -2.0472   23.1843  -28.7380 O   0  0  0  0  0  0  0  0  0  0  0  0
   -0.8483   22.9893  -28.1220 N   0  0  0  0  0  0  0  0  0  0  0  0
    0.1945   23.0727  -28.7727 O   0  0  0  0  0  0  0  0  0  0  0  0
 25 26  1  0  0  0
 26 27  2  0  0  0
 26 19  1  0  0  0
 19 20  2  0  0  0
 20 21  1  0  0  0
 21 22  2  0  0  0
 22 23  1  0  0  0
 23 24  2  0  0  0
 22  1  1  0  0  0
  1  2  1  0  0  0
  2  3  1  0  0  0
  3  4  1  0  0  0
  4  5  1  0  0  0
  5  6  1  0  0  0
  4  7  1  0  0  0
  7  8  2  0  0  0
  7  9  1  0  0  0
  9 10  2  0  0  0
 10 11  1  0  0  0
 11 12  2  0  0  0
 12 13  1  0  0  0
 13 14  2  0  0  0
 14 15  1  0  0  0
 15 16  2  0  0  0
 16 17  1  0  0  0
 24 19  1  0  0  0
  6  1  1  0  0  0
 17  9  1  0  0  0
 16 11  1  0  0  0
 17 18  1  0  0  0
M  CHG 1  25  -1
M  CHG 1  26   1
M  END
> <minimizedAffinity>
-6.61182

> <CNNscore>
0.2087536901

> <CNNaffinity>
5.0413379669

> <CNN_VS>
1.0523978472

> <CNNaffinity_variance>
0.0906803086

$$$$
[H]c1c([H])c([N+](=O)[O-])c([H])c([H])c1N1C([H])([H])C([H])([H])N(C(=O)c2nc3c([H])c([H])c([H])c([H])c3n2[H])C([H])([H])C1([H])[H]


 27 30  0  0  0  0  0  0  0  0999 V2000
   -5.9240   22.6187  -19.7446 N   0  0  0  0  0  0  0  0  0  0  0  0
   -6.5471   21.4948  -20.3858 C   0  0  0  0  0  0  0  0  0  0  0  0
   -6.9266   21.9337  -21.8075 C   0  0  0  0  0  0  0  0  0  0  0  0
   -5.6237   22.1910  -22.4473 N   0  0  0  0  0  0  0  0  0  0  0  0
   -4.6492   23.0097  -21.7838 C   0  0  0  0  0  0  0  0  0  0  0  0
   -5.1937   23.5882  -20.4911 C   0  0  0  0  0  0  0  0  0  0  0  0
   -5.3828   21.6169  -23.6973 C   0  0  0  0  0  0  0  0  0  0  0  0
   -6.2887   20.8986  -24.2506 O   0  0  0  0  0  0  0  0  0  0  0  0
   -4.1105   21.8178  -24.3937 C   0  0  0  0  0  0  0  0  0  0  0  0
   -3.8789   22.2667  -25.6289 N   0  0  0  0  0  0  0  0  0  0  0  0
   -2.5641   22.3121  -25.8988 C   0  0  0  0  0  0  0  0  0  0  0  0
   -1.8098   22.6881  -26.9959 C   0  0  0  0  0  0  0  0  0  0  0  0
   -0.4286   22.6343  -27.0064 C   0  0  0  0  0  0  0  0  0  0  0  0
    0.1912   22.1825  -25.8591 C   0  0  0  0  0  0  0  0  0  0  0  0
   -0.5257   21.7946  -24.7337 C   0  0  0  0  0  0  0  0  0  0  0  0
   -1.9113   21.8598  -24.7537 C   0  0  0  0  0  0  0  0  0  0  0  0
   -2.8740   21.5708  -23.8669 N   0  0  0  0  0  0  0  0  0  0  0  0
   -2.7080   21.2068  -22.9055 H   0  0  0  0  0  0  0  0  0  0  0  0
   -6.1410   23.1196  -15.5305 C   0  0  0  0  0  0  0  0  0  0  0  0
   -5.0385   23.5489  -16.2357 C   0  0  0  0  0  0  0  0  0  0  0  0
   -5.0009   23.3750  -17.5998 C   0  0  0  0  0  0  0  0  0  0  0  0
   -6.0187   22.7879  -18.3038 C   0  0  0  0  0  0  0  0  0  0  0  0
   -7.1124   22.3640  -17.5895 C   0  0  0  0  0  0  0  0  0  0  0  0
   -7.1878   22.5197  -16.2277 C   0  0  0  0  0  0  0  0  0  0  0  0
   -6.0001   24.5364  -13.6006 O   0  0  0  0  0  0  0  0  0  0  0  0
   -6.1814   23.2968  -14.1347 N   0  0  0  0  0  0  0  0  0  0  0  0
   -6.3803   22.3339  -13.3924 O   0  0  0  0  0  0  0  0  0  0  0  0
 25 26  1  0  0  0
 26 27  2  0  0  0
 26 19  1  0  0  0
 19 20  2  0  0  0
 20 21  1  0  0  0
 21 22  2  0  0  0
 22 23  1  0  0  0
 23 24  2  0  0  0
 22  1  1  0  0  0
  1  2  1  0  0  0
  2  3  1  0  0  0
  3  4  1  0  0  0
  4  5  1  0  0  0
  5  6  1  0  0  0
  4  7  1  0  0  0
  7  8  2  0  0  0
  7  9  1  0  0  0
  9 10  2  0  0  0
 10 11  1  0  0  0
 11 12  2  0  0  0
 12 13  1  0  0  0
 13 14  2  0  0  0
 14 15  1  0  0  0
 15 16  2  0  0  0
 16 17  1  0  0  0
 24 19  1  0  0  0
  6  1  1  0  0  0
 17  9  1  0  0  0
 16 11  1  0  0  0
 17 18  1  0  0  0
M  CHG 1  25  -1
M  CHG 1  26   1
M  END
> <minimizedAffinity>
-6.72410

> <CNNscore>
0.1870061010

> <CNNaffinity>
4.8425388336

> <CNN_VS>
0.9055843353

> <CNNaffinity_variance>
0.0912816525

$$$$
[H]c1c([H])c([N+](=O)[O-])c([H])c([H])c1N1C([H])([H])C([H])([H])N(C(=O)c2nc3c([H])c([H])c([H])c([H])c3n2[H])C([H])([H])C1([H])[H]


 27 30  0  0  0  0  0  0  0  0999 V2000
   -5.2465   24.3308  -23.5755 N   0  0  0  0  0  0  0  0  0  0  0  0
   -5.3032   23.3908  -24.6598 C   0  0  0  0  0  0  0  0  0  0  0  0
   -4.0361   23.5915  -25.5038 C   0  0  0  0  0  0  0  0  0  0  0  0
   -2.9480   23.2042  -24.5878 N   0  0  0  0  0  0  0  0  0  0  0  0
   -2.9022   23.7472  -23.2599 C   0  0  0  0  0  0  0  0  0  0  0  0
   -4.0021   24.7682  -23.0365 C   0  0  0  0  0  0  0  0  0  0  0  0
   -1.9859   22.3066  -25.0557 C   0  0  0  0  0  0  0  0  0  0  0  0
   -2.0683   21.8554  -26.2525 O   0  0  0  0  0  0  0  0  0  0  0  0
   -0.8790   21.8663  -24.2042 C   0  0  0  0  0  0  0  0  0  0  0  0
   -0.8975   21.4312  -22.9428 N   0  0  0  0  0  0  0  0  0  0  0  0
    0.3345   21.1154  -22.5117 C   0  0  0  0  0  0  0  0  0  0  0  0
    0.8544   20.6331  -21.3238 C   0  0  0  0  0  0  0  0  0  0  0  0
    2.2029   20.3886  -21.1436 C   0  0  0  0  0  0  0  0  0  0  0  0
    3.0366   20.6470  -22.2125 C   0  0  0  0  0  0  0  0  0  0  0  0
    2.5588   21.1317  -23.4240 C   0  0  0  0  0  0  0  0  0  0  0  0
    1.2000   21.3673  -23.5744 C   0  0  0  0  0  0  0  0  0  0  0  0
    0.4346   21.8187  -24.5780 N   0  0  0  0  0  0  0  0  0  0  0  0
    0.7877   22.0970  -25.5173 H   0  0  0  0  0  0  0  0  0  0  0  0
   -8.8503   25.8648  -21.9273 C   0  0  0  0  0  0  0  0  0  0  0  0
   -8.8371   25.2850  -23.1766 C   0  0  0  0  0  0  0  0  0  0  0  0
   -7.6544   24.7950  -23.6802 C   0  0  0  0  0  0  0  0  0  0  0  0
   -6.4711   24.8547  -22.9928 C   0  0  0  0  0  0  0  0  0  0  0  0
   -6.4971   25.4350  -21.7484 C   0  0  0  0  0  0  0  0  0  0  0  0
   -7.6570   25.9356  -21.2111 C   0  0  0  0  0  0  0  0  0  0  0  0
  -10.1803   26.6091  -20.0756 O   0  0  0  0  0  0  0  0  0  0  0  0
  -10.0594   26.3668  -21.4103 N   0  0  0  0  0  0  0  0  0  0  0  0
  -11.0108   26.5885  -22.1609 O   0  0  0  0  0  0  0  0  0  0  0  0
 25 26  1  0  0  0
 26 27  2  0  0  0
 26 19  1  0  0  0
 19 20  2  0  0  0
 20 21  1  0  0  0
 21 22  2  0  0  0
 22 23  1  0  0  0
 23 24  2  0  0  0
 22  1  1  0  0  0
  1  2  1  0  0  0
  2  3  1  0  0  0
  3  4  1  0  0  0
  4  5  1  0  0  0
  5  6  1  0  0  0
  4  7  1  0  0  0
  7  8  2  0  0  0
  7  9  1  0  0  0
  9 10  2  0  0  0
 10 11  1  0  0  0
 11 12  2  0  0  0
 12 13  1  0  0  0
 13 14  2  0  0  0
 14 15  1  0  0  0
 15 16  2  0  0  0
 16 17  1  0  0  0
 24 19  1  0  0  0
  6  1  1  0  0  0
 17  9  1  0  0  0
 16 11  1  0  0  0
 17 18  1  0  0  0
M  CHG 1  25  -1
M  CHG 1  26   1
M  END
> <minimizedAffinity>
-7.31161

> <CNNscore>
0.1452411711

> <CNNaffinity>
5.3963260651

> <CNN_VS>
0.7837687135

> <CNNaffinity_variance>
0.1149056777

$$$$
[H]c1c([H])c([N+](=O)[O-])c([H])c([H])c1N1C([H])([H])C([H])([H])N(C(=O)c2nc3c([H])c([H])c([H])c([H])c3n2[H])C([H])([H])C1([H])[H]


 27 30  0  0  0  0  0  0  0  0999 V2000
   -2.4683   22.2453  -22.5855 N   0  0  0  0  0  0  0  0  0  0  0  0
   -1.5603   21.9997  -21.5003 C   0  0  0  0  0  0  0  0  0  0  0  0
   -2.1924   22.5944  -20.2335 C   0  0  0  0  0  0  0  0  0  0  0  0
   -3.4056   21.7796  -20.0396 N   0  0  0  0  0  0  0  0  0  0  0  0
   -4.3037   21.5596  -21.1373 C   0  0  0  0  0  0  0  0  0  0  0  0
   -3.8747   22.3299  -22.3721 C   0  0  0  0  0  0  0  0  0  0  0  0
   -3.6383   21.2424  -18.7717 C   0  0  0  0  0  0  0  0  0  0  0  0
   -2.8084   21.4738  -17.8227 O   0  0  0  0  0  0  0  0  0  0  0  0
   -4.8158   20.4153  -18.5009 C   0  0  0  0  0  0  0  0  0  0  0  0
   -5.0039   19.1103  -18.7068 N   0  0  0  0  0  0  0  0  0  0  0  0
   -6.2296   18.7214  -18.3195 C   0  0  0  0  0  0  0  0  0  0  0  0
   -6.9107   17.5173  -18.3148 C   0  0  0  0  0  0  0  0  0  0  0  0
   -8.2047   17.3931  -17.8450 C   0  0  0  0  0  0  0  0  0  0  0  0
   -8.8125   18.5367  -17.3683 C   0  0  0  0  0  0  0  0  0  0  0  0
   -8.1670   19.7672  -17.3536 C   0  0  0  0  0  0  0  0  0  0  0  0
   -6.8682   19.8601  -17.8321 C   0  0  0  0  0  0  0  0  0  0  0  0
   -5.9869   20.8624  -17.9564 N   0  0  0  0  0  0  0  0  0  0  0  0
   -6.1650   21.8498  -17.6778 H   0  0  0  0  0  0  0  0  0  0  0  0
   -1.0596   22.7127  -26.5672 C   0  0  0  0  0  0  0  0  0  0  0  0
   -2.3655   23.0062  -26.2424 C   0  0  0  0  0  0  0  0  0  0  0  0
   -2.7893   22.8474  -24.9433 C   0  0  0  0  0  0  0  0  0  0  0  0
   -1.9670   22.4057  -23.9407 C   0  0  0  0  0  0  0  0  0  0  0  0
   -0.6673   22.1164  -24.2772 C   0  0  0  0  0  0  0  0  0  0  0  0
   -0.2064   22.2619  -25.5620 C   0  0  0  0  0  0  0  0  0  0  0  0
   -1.5086   23.2512  -28.8608 O   0  0  0  0  0  0  0  0  0  0  0  0
   -0.6242   22.8746  -27.8960 N   0  0  0  0  0  0  0  0  0  0  0  0
    0.5555   22.6768  -28.1910 O   0  0  0  0  0  0  0  0  0  0  0  0
 25 26  1  0  0  0
 26 27  2  0  0  0
 26 19  1  0  0  0
 19 20  2  0  0  0
 20 21  1  0  0  0
 21 22  2  0  0  0
 22 23  1  0  0  0
 23 24  2  0  0  0
 22  1  1  0  0  0
  1  2  1  0  0  0
  2  3  1  0  0  0
  3  4  1  0  0  0
  4  5  1  0  0  0
  5  6  1  0  0  0
  4  7  1  0  0  0
  7  8  2  0  0  0
  7  9  1  0  0  0
  9 10  2  0  0  0
 10 11  1  0  0  0
 11 12  2  0  0  0
 12 13  1  0  0  0
 13 14  2  0  0  0
 14 15  1  0  0  0
 15 16  2  0  0  0
 16 17  1  0  0  0
 24 19  1  0  0  0
  6  1  1  0  0  0
 17  9  1  0  0  0
 16 11  1  0  0  0
 17 18  1  0  0  0
M  CHG 1  25  -1
M  CHG 1  26   1
M  END
> <minimizedAffinity>
-6.28602

> <CNNscore>
0.1384628862

> <CNNaffinity>
4.9856576920

> <CNN_VS>
0.6903285384

> <CNNaffinity_variance>
0.0095914407

$$$$
[H]c1c([H])c([N+](=O)[O-])c([H])c([H])c1N1C([H])([H])C([H])([H])N(C(=O)c2nc3c([H])c([H])c([H])c([H])c3n2[H])C([H])([H])C1([H])[H]


 27 30  0  0  0  0  0  0  0  0999 V2000
   -2.8514   22.2434  -21.3455 N   0  0  0  0  0  0  0  0  0  0  0  0
   -1.5293   22.4649  -21.8606 C   0  0  0  0  0  0  0  0  0  0  0  0
   -1.3791   21.5977  -23.1190 C   0  0  0  0  0  0  0  0  0  0  0  0
   -2.3624   22.1747  -24.0535 N   0  0  0  0  0  0  0  0  0  0  0  0
   -3.7099   22.4113  -23.6195 C   0  0  0  0  0  0  0  0  0  0  0  0
   -3.9370   21.9090  -22.2059 C   0  0  0  0  0  0  0  0  0  0  0  0
   -1.9368   22.4752  -25.3493 C   0  0  0  0  0  0  0  0  0  0  0  0
   -0.7239   22.2388  -25.6893 O   0  0  0  0  0  0  0  0  0  0  0  0
   -2.8507   23.0584  -26.3335 C   0  0  0  0  0  0  0  0  0  0  0  0
   -3.4126   24.2685  -26.3598 N   0  0  0  0  0  0  0  0  0  0  0  0
   -4.1934   24.4266  -27.4410 C   0  0  0  0  0  0  0  0  0  0  0  0
   -4.9779   25.4553  -27.9310 C   0  0  0  0  0  0  0  0  0  0  0  0
   -5.7005   25.3494  -29.1045 C   0  0  0  0  0  0  0  0  0  0  0  0
   -5.6134   24.1550  -29.7904 C   0  0  0  0  0  0  0  0  0  0  0  0
   -4.8381   23.0950  -29.3361 C   0  0  0  0  0  0  0  0  0  0  0  0
   -4.1241   23.2316  -28.1546 C   0  0  0  0  0  0  0  0  0  0  0  0
   -3.3061   22.4298  -27.4583 N   0  0  0  0  0  0  0  0  0  0  0  0
   -3.0491   21.4587  -27.7324 H   0  0  0  0  0  0  0  0  0  0  0  0
   -3.6722   22.6311  -17.1943 C   0  0  0  0  0  0  0  0  0  0  0  0
   -4.6752   22.7728  -18.1275 C   0  0  0  0  0  0  0  0  0  0  0  0
   -4.3770   22.6379  -19.4637 C   0  0  0  0  0  0  0  0  0  0  0  0
   -3.1148   22.3658  -19.9210 C   0  0  0  0  0  0  0  0  0  0  0  0
   -2.1234   22.2269  -18.9809 C   0  0  0  0  0  0  0  0  0  0  0  0
   -2.3807   22.3541  -17.6385 C   0  0  0  0  0  0  0  0  0  0  0  0
   -5.0638   23.4904  -15.4402 O   0  0  0  0  0  0  0  0  0  0  0  0
   -3.9753   22.7688  -15.8266 N   0  0  0  0  0  0  0  0  0  0  0  0
   -3.2593   22.2386  -14.9757 O   0  0  0  0  0  0  0  0  0  0  0  0
 25 26  1  0  0  0
 26 27  2  0  0  0
 26 19  1  0  0  0
 19 20  2  0  0  0
 20 21  1  0  0  0
 21 22  2  0  0  0
 22 23  1  0  0  0
 23 24  2  0  0  0
 22  1  1  0  0  0
  1  2  1  0  0  0
  2  3  1  0  0  0
  3  4  1  0  0  0
  4  5  1  0  0  0
  5  6  1  0  0  0
  4  7  1  0  0  0
  7  8  2  0  0  0
  7  9  1  0  0  0
  9 10  2  0  0  0
 10 11  1  0  0  0
 11 12  2  0  0  0
 12 13  1  0  0  0
 13 14  2  0  0  0
 14 15  1  0  0  0
 15 16  2  0  0  0
 16 17  1  0  0  0
 24 19  1  0  0  0
  6  1  1  0  0  0
 17  9  1  0  0  0
 16 11  1  0  0  0
 17 18  1  0  0  0
M  CHG 1  25  -1
M  CHG 1  26   1
M  END
> <minimizedAffinity>
-7.00897

> <CNNscore>
0.1368784308

> <CNNaffinity>
5.5377488136

> <CNN_VS>
0.7579983473

> <CNNaffinity_variance>
0.2100214064

$$$$
[H]OC(=O)[C@@]([H])(N([H])[H])C([H])([H])OP(=O)(O[H])OC([H])([H])[C@]([H])(O[H])C([H])([H])OC(=O)C([H])([H])C([H])([H])C([H])([H])C([H])([H])C([H])([H])C([H])([H])C([H])([H])/C([H])=C(/[H])C([H])([H])C([H])([H])C([H])([H])C([H])([H])C([H])([H])C([H])([H])C([H])([H])C([H])([H])[H]


 40 39  0  0  0  0  0  0  0  0999 V2000
   -2.9865   23.1023  -20.4241 O   0  0  0  0  0  0  0  0  0  0  0  0
   -1.7675   23.3653  -20.9473 C   0  0  0  0  0  0  0  0  0  0  0  0
   -0.8825   23.8440  -20.1547 O   0  0  0  0  0  0  0  0  0  0  0  0
   -1.4243   23.1341  -22.3594 C   0  0  0  0  0  0  0  0  0  0  0  0
   -0.9413   21.8034  -22.7093 C   0  0  0  0  0  0  0  0  0  0  0  0
   -0.5560   21.5458  -24.1010 C   0  0  0  0  0  0  0  0  0  0  0  0
   -0.0918   22.6210  -24.9905 C   0  0  0  0  0  0  0  0  0  0  0  0
   -0.3551   22.3608  -26.4754 C   0  0  0  0  0  0  0  0  0  0  0  0
   -1.7960   21.9443  -26.6936 C   0  0  0  0  0  0  0  0  0  0  0  0
   -2.6468   23.1071  -27.1525 C   0  0  0  0  0  0  0  0  0  0  0  0
   -4.2812   23.2877  -29.0212 C   0  0  0  0  0  0  0  0  0  0  0  0
   -3.0814   22.9996  -28.5456 C   0  0  0  0  0  0  0  0  0  0  0  0
   -5.3378   23.7692  -28.1348 C   0  0  0  0  0  0  0  0  0  0  0  0
   -5.6890   25.2463  -28.3674 C   0  0  0  0  0  0  0  0  0  0  0  0
   -5.7960   25.9744  -27.0477 C   0  0  0  0  0  0  0  0  0  0  0  0
   -4.4793   26.2099  -26.3982 C   0  0  0  0  0  0  0  0  0  0  0  0
   -4.5305   26.4946  -24.9353 C   0  0  0  0  0  0  0  0  0  0  0  0
   -5.2291   25.4381  -24.1302 C   0  0  0  0  0  0  0  0  0  0  0  0
   -4.9844   22.9711  -24.4747 C   0  0  0  0  0  0  0  0  0  0  0  0
   -4.2734   24.2434  -24.0699 C   0  0  0  0  0  0  0  0  0  0  0  0
   -3.5998   21.9422  -20.0391 C   0  0  0  0  0  0  0  0  0  0  0  0
   -3.5819   21.6193  -18.5829 C   0  0  0  0  0  0  0  0  0  0  0  0
   -2.9915   22.5990  -17.8299 O   0  0  0  0  0  0  0  0  0  0  0  0
   -2.8408   22.2867  -16.9014 H   0  0  0  0  0  0  0  0  0  0  0  0
   -4.9880   21.3565  -18.0595 C   0  0  0  0  0  0  0  0  0  0  0  0
   -5.8543   22.3116  -18.6243 O   0  0  0  0  0  0  0  0  0  0  0  0
   -6.4556   23.3627  -17.4709 P   0  0  0  0  0  0  0  0  0  0  0  0
   -8.0538   22.8807  -17.1041 O   0  0  0  0  0  0  0  0  0  0  0  0
   -6.5176   24.7940  -17.9471 O   0  0  0  0  0  0  0  0  0  0  0  0
   -8.0152   22.1301  -16.4365 H   0  0  0  0  0  0  0  0  0  0  0  0
   -5.5361   23.3087  -16.0450 O   0  0  0  0  0  0  0  0  0  0  0  0
   -6.3685   23.1958  -14.9385 C   0  0  0  0  0  0  0  0  0  0  0  0
   -5.9043   24.2165  -13.9242 C   0  0  0  0  0  0  0  0  0  0  0  0
   -6.5120   23.9584  -12.6192 N   0  0  0  0  0  0  0  0  0  0  0  0
   -5.9720   24.4529  -11.8773 H   0  0  0  0  0  0  0  0  0  0  0  0
   -7.4912   24.2730  -12.6712 H   0  0  0  0  0  0  0  0  0  0  0  0
   -6.3154   25.5478  -14.4148 C   0  0  0  0  0  0  0  0  0  0  0  0
   -5.5426   26.2008  -15.3549 O   0  0  0  0  0  0  0  0  0  0  0  0
   -7.3538   26.0960  -13.9930 O   0  0  0  0  0  0  0  0  0  0  0  0
   -4.5366   26.0801  -15.4529 H   0  0  0  0  0  0  0  0  0  0  0  0
 19 20  1  0  0  0
 20 18  1  0  0  0
 18 17  1  0  0  0
 17 16  1  0  0  0
 16 15  1  0  0  0
 15 14  1  0  0  0
 14 13  1  0  0  0
 13 11  1  0  0  0
 11 12  2  0  0  0
 12 10  1  0  0  0
 10  9  1  0  0  0
  9  8  1  0  0  0
  8  7  1  0  0  0
  7  6  1  0  0  0
  6  5  1  0  0  0
  5  4  1  0  0  0
  4  2  1  0  0  0
  2  3  2  0  0  0
  2  1  1  0  0  0
  1 21  1  0  0  0
 21 22  1  0  0  0
 22 23  1  0  0  0
 22 25  1  0  0  0
 25 26  1  0  0  0
 26 27  1  0  0  0
 27 28  1  0  0  0
 27 29  2  0  0  0
 27 31  1  0  0  0
 31 32  1  0  0  0
 32 33  1  0  0  0
 33 34  1  0  0  0
 33 37  1  0  0  0
 37 38  1  0  0  0
 37 39  2  0  0  0
 23 24  1  0  0  0
 28 30  1  0  0  0
 34 35  1  0  0  0
 34 36  1  0  0  0
 38 40  1  0  0  0
M  END
> <minimizedAffinity>
-5.93376

> <CNNscore>
0.4325372875

> <CNNaffinity>
5.8661842346

> <CNN_VS>
2.5373435020

> <CNNaffinity_variance>
0.0886247605

$$$$
[H]OC(=O)[C@@]([H])(N([H])[H])C([H])([H])OP(=O)(O[H])OC([H])([H])[C@]([H])(O[H])C([H])([H])OC(=O)C([H])([H])C([H])([H])C([H])([H])C([H])([H])C([H])([H])C([H])([H])C([H])([H])/C([H])=C(/[H])C([H])([H])C([H])([H])C([H])([H])C([H])([H])C([H])([H])C([H])([H])C([H])([H])C([H])([H])[H]


 40 39  0  0  0  0  0  0  0  0999 V2000
   -3.9656   23.6550  -21.1040 O   0  0  0  0  0  0  0  0  0  0  0  0
   -2.8597   23.2824  -21.7875 C   0  0  0  0  0  0  0  0  0  0  0  0
   -1.7545   23.8407  -21.4597 O   0  0  0  0  0  0  0  0  0  0  0  0
   -2.8736   22.2877  -22.8717 C   0  0  0  0  0  0  0  0  0  0  0  0
   -4.0353   21.4090  -22.9431 C   0  0  0  0  0  0  0  0  0  0  0  0
   -5.0492   21.6766  -23.9688 C   0  0  0  0  0  0  0  0  0  0  0  0
   -6.3449   22.2893  -23.6394 C   0  0  0  0  0  0  0  0  0  0  0  0
   -6.3056   23.8154  -23.5341 C   0  0  0  0  0  0  0  0  0  0  0  0
   -7.4565   24.4302  -24.3052 C   0  0  0  0  0  0  0  0  0  0  0  0
   -7.0542   24.7766  -25.7211 C   0  0  0  0  0  0  0  0  0  0  0  0
   -5.0129   26.0052  -26.4417 C   0  0  0  0  0  0  0  0  0  0  0  0
   -6.1730   25.9413  -25.8102 C   0  0  0  0  0  0  0  0  0  0  0  0
   -4.4845   24.8410  -27.1484 C   0  0  0  0  0  0  0  0  0  0  0  0
   -3.4745   24.0399  -26.3134 C   0  0  0  0  0  0  0  0  0  0  0  0
   -3.4304   22.6033  -26.7797 C   0  0  0  0  0  0  0  0  0  0  0  0
   -2.0739   22.0000  -26.6967 C   0  0  0  0  0  0  0  0  0  0  0  0
   -1.0038   22.7300  -27.4355 C   0  0  0  0  0  0  0  0  0  0  0  0
    0.2654   22.9098  -26.6551 C   0  0  0  0  0  0  0  0  0  0  0  0
    0.7647   21.5704  -24.6005 C   0  0  0  0  0  0  0  0  0  0  0  0
   -0.0962   22.6671  -25.1872 C   0  0  0  0  0  0  0  0  0  0  0  0
   -4.5737   23.1605  -19.9833 C   0  0  0  0  0  0  0  0  0  0  0  0
   -3.7199   22.3850  -19.0375 C   0  0  0  0  0  0  0  0  0  0  0  0
   -2.6071   23.0766  -18.6389 O   0  0  0  0  0  0  0  0  0  0  0  0
   -1.9788   22.4832  -18.1537 H   0  0  0  0  0  0  0  0  0  0  0  0
   -4.5114   21.9492  -17.8113 C   0  0  0  0  0  0  0  0  0  0  0  0
   -4.5038   23.0073  -16.8827 O   0  0  0  0  0  0  0  0  0  0  0  0
   -6.0487   23.4011  -16.3783 P   0  0  0  0  0  0  0  0  0  0  0  0
   -7.0441   22.0328  -16.6192 O   0  0  0  0  0  0  0  0  0  0  0  0
   -6.6563   24.5403  -17.1608 O   0  0  0  0  0  0  0  0  0  0  0  0
   -6.9217   21.4084  -15.8408 H   0  0  0  0  0  0  0  0  0  0  0  0
   -6.0775   23.8045  -14.7295 O   0  0  0  0  0  0  0  0  0  0  0  0
   -6.1930   25.1799  -14.5716 C   0  0  0  0  0  0  0  0  0  0  0  0
   -5.9263   25.4863  -13.1152 C   0  0  0  0  0  0  0  0  0  0  0  0
   -5.0246   24.4908  -12.5366 N   0  0  0  0  0  0  0  0  0  0  0  0
   -4.6107   24.8631  -11.6553 H   0  0  0  0  0  0  0  0  0  0  0  0
   -5.5746   23.6336  -12.3835 H   0  0  0  0  0  0  0  0  0  0  0  0
   -7.2245   25.4571  -12.4110 C   0  0  0  0  0  0  0  0  0  0  0  0
   -7.8563   24.2495  -12.1874 O   0  0  0  0  0  0  0  0  0  0  0  0
   -7.7635   26.5094  -12.0124 O   0  0  0  0  0  0  0  0  0  0  0  0
   -7.7573   23.4321  -12.7858 H   0  0  0  0  0  0  0  0  0  0  0  0
 19 20  1  0  0  0
 20 18  1  0  0  0
 18 17  1  0  0  0
 17 16  1  0  0  0
 16 15  1  0  0  0
 15 14  1  0  0  0
 14 13  1  0  0  0
 13 11  1  0  0  0
 11 12  2  0  0  0
 12 10  1  0  0  0
 10  9  1  0  0  0
  9  8  1  0  0  0
  8  7  1  0  0  0
  7  6  1  0  0  0
  6  5  1  0  0  0
  5  4  1  0  0  0
  4  2  1  0  0  0
  2  3  2  0  0  0
  2  1  1  0  0  0
  1 21  1  0  0  0
 21 22  1  0  0  0
 22 23  1  0  0  0
 22 25  1  0  0  0
 25 26  1  0  0  0
 26 27  1  0  0  0
 27 28  1  0  0  0
 27 29  2  0  0  0
 27 31  1  0  0  0
 31 32  1  0  0  0
 32 33  1  0  0  0
 33 34  1  0  0  0
 33 37  1  0  0  0
 37 38  1  0  0  0
 37 39  2  0  0  0
 23 24  1  0  0  0
 28 30  1  0  0  0
 34 35  1  0  0  0
 34 36  1  0  0  0
 38 40  1  0  0  0
M  END
> <minimizedAffinity>
-5.42050

> <CNNscore>
0.3247621059

> <CNNaffinity>
5.5562391281

> <CNN_VS>
1.8044558764

> <CNNaffinity_variance>
0.0758192241

$$$$
[H]OC(=O)[C@@]([H])(N([H])[H])C([H])([H])OP(=O)(O[H])OC([H])([H])[C@]([H])(O[H])C([H])([H])OC(=O)C([H])([H])C([H])([H])C([H])([H])C([H])([H])C([H])([H])C([H])([H])C([H])([H])/C([H])=C(/[H])C([H])([H])C([H])([H])C([H])([H])C([H])([H])C([H])([H])C([H])([H])C([H])([H])C([H])([H])[H]


 40 39  0  0  0  0  0  0  0  0999 V2000
   -4.4642   23.9606  -21.1029 O   0  0  0  0  0  0  0  0  0  0  0  0
   -3.3930   23.1357  -21.0709 C   0  0  0  0  0  0  0  0  0  0  0  0
   -2.7956   22.9973  -19.9464 O   0  0  0  0  0  0  0  0  0  0  0  0
   -2.8931   22.4101  -22.2494 C   0  0  0  0  0  0  0  0  0  0  0  0
   -3.7779   21.4050  -22.8270 C   0  0  0  0  0  0  0  0  0  0  0  0
   -4.1705   21.5477  -24.2330 C   0  0  0  0  0  0  0  0  0  0  0  0
   -5.4373   22.1833  -24.6254 C   0  0  0  0  0  0  0  0  0  0  0  0
   -5.4633   23.7003  -24.4257 C   0  0  0  0  0  0  0  0  0  0  0  0
   -6.8724   24.2333  -24.5924 C   0  0  0  0  0  0  0  0  0  0  0  0
   -7.2749   24.2929  -26.0488 C   0  0  0  0  0  0  0  0  0  0  0  0
   -5.7619   25.1791  -27.8155 C   0  0  0  0  0  0  0  0  0  0  0  0
   -6.5934   25.3468  -26.8010 C   0  0  0  0  0  0  0  0  0  0  0  0
   -5.4372   23.8393  -28.2987 C   0  0  0  0  0  0  0  0  0  0  0  0
   -3.9374   23.6457  -28.5674 C   0  0  0  0  0  0  0  0  0  0  0  0
   -3.1925   23.4481  -27.2677 C   0  0  0  0  0  0  0  0  0  0  0  0
   -2.1794   22.3615  -27.3305 C   0  0  0  0  0  0  0  0  0  0  0  0
   -0.7881   22.8022  -27.6365 C   0  0  0  0  0  0  0  0  0  0  0  0
    0.2542   22.2098  -26.7337 C   0  0  0  0  0  0  0  0  0  0  0  0
    0.3679   22.4374  -24.2437 C   0  0  0  0  0  0  0  0  0  0  0  0
   -0.4475   21.9141  -25.4053 C   0  0  0  0  0  0  0  0  0  0  0  0
   -5.7621   23.8112  -20.6988 C   0  0  0  0  0  0  0  0  0  0  0  0
   -6.0279   23.8971  -19.2336 C   0  0  0  0  0  0  0  0  0  0  0  0
   -6.6589   25.0590  -18.8765 O   0  0  0  0  0  0  0  0  0  0  0  0
   -6.6690   25.1658  -17.8913 H   0  0  0  0  0  0  0  0  0  0  0  0
   -6.8473   22.7072  -18.7515 C   0  0  0  0  0  0  0  0  0  0  0  0
   -8.1905   23.1134  -18.6388 O   0  0  0  0  0  0  0  0  0  0  0  0
   -9.1940   22.2224  -19.6366 P   0  0  0  0  0  0  0  0  0  0  0  0
  -10.0840   21.1419  -18.6561 O   0  0  0  0  0  0  0  0  0  0  0  0
   -8.4404   21.3925  -20.6479 O   0  0  0  0  0  0  0  0  0  0  0  0
  -10.8679   21.6363  -18.2669 H   0  0  0  0  0  0  0  0  0  0  0  0
  -10.2871   23.2214  -20.4667 O   0  0  0  0  0  0  0  0  0  0  0  0
  -10.2396   24.5139  -19.9597 C   0  0  0  0  0  0  0  0  0  0  0  0
  -11.6679   24.9813  -19.7935 C   0  0  0  0  0  0  0  0  0  0  0  0
  -11.7183   26.4336  -19.6289 N   0  0  0  0  0  0  0  0  0  0  0  0
  -12.6847   26.7745  -19.8197 H   0  0  0  0  0  0  0  0  0  0  0  0
  -11.4079   26.6427  -18.6695 H   0  0  0  0  0  0  0  0  0  0  0  0
  -12.2135   24.3205  -18.5902 C   0  0  0  0  0  0  0  0  0  0  0  0
  -12.6292   23.0052  -18.6592 O   0  0  0  0  0  0  0  0  0  0  0  0
  -12.3062   24.9325  -17.5069 O   0  0  0  0  0  0  0  0  0  0  0  0
  -12.9870   22.5613  -19.5024 H   0  0  0  0  0  0  0  0  0  0  0  0
 19 20  1  0  0  0
 20 18  1  0  0  0
 18 17  1  0  0  0
 17 16  1  0  0  0
 16 15  1  0  0  0
 15 14  1  0  0  0
 14 13  1  0  0  0
 13 11  1  0  0  0
 11 12  2  0  0  0
 12 10  1  0  0  0
 10  9  1  0  0  0
  9  8  1  0  0  0
  8  7  1  0  0  0
  7  6  1  0  0  0
  6  5  1  0  0  0
  5  4  1  0  0  0
  4  2  1  0  0  0
  2  3  2  0  0  0
  2  1  1  0  0  0
  1 21  1  0  0  0
 21 22  1  0  0  0
 22 23  1  0  0  0
 22 25  1  0  0  0
 25 26  1  0  0  0
 26 27  1  0  0  0
 27 28  1  0  0  0
 27 29  2  0  0  0
 27 31  1  0  0  0
 31 32  1  0  0  0
 32 33  1  0  0  0
 33 34  1  0  0  0
 33 37  1  0  0  0
 37 38  1  0  0  0
 37 39  2  0  0  0
 23 24  1  0  0  0
 28 30  1  0  0  0
 34 35  1  0  0  0
 34 36  1  0  0  0
 38 40  1  0  0  0
M  END
> <minimizedAffinity>
-6.15256

> <CNNscore>
0.3161439896

> <CNNaffinity>
5.6997594833

> <CNN_VS>
1.8019447327

> <CNNaffinity_variance>
0.3329630494

$$$$
[H]OC(=O)[C@@]([H])(N([H])[H])C([H])([H])OP(=O)(O[H])OC([H])([H])[C@]([H])(O[H])C([H])([H])OC(=O)C([H])([H])C([H])([H])C([H])([H])C([H])([H])C([H])([H])C([H])([H])C([H])([H])/C([H])=C(/[H])C([H])([H])C([H])([H])C([H])([H])C([H])([H])C([H])([H])C([H])([H])C([H])([H])C([H])([H])[H]


 40 39  0  0  0  0  0  0  0  0999 V2000
   -1.1734   21.4330  -22.4100 O   0  0  0  0  0  0  0  0  0  0  0  0
   -0.4142   21.8607  -23.4443 C   0  0  0  0  0  0  0  0  0  0  0  0
    0.8282   21.5498  -23.4248 O   0  0  0  0  0  0  0  0  0  0  0  0
   -0.9432   22.6550  -24.5642 C   0  0  0  0  0  0  0  0  0  0  0  0
   -0.6645   22.1635  -25.9086 C   0  0  0  0  0  0  0  0  0  0  0  0
   -1.7703   22.0992  -26.8701 C   0  0  0  0  0  0  0  0  0  0  0  0
   -2.1396   23.2502  -27.7077 C   0  0  0  0  0  0  0  0  0  0  0  0
   -3.2042   22.9395  -28.7622 C   0  0  0  0  0  0  0  0  0  0  0  0
   -4.5708   22.8212  -28.1174 C   0  0  0  0  0  0  0  0  0  0  0  0
   -5.6620   23.3329  -29.0306 C   0  0  0  0  0  0  0  0  0  0  0  0
   -5.4056   25.8071  -28.9373 C   0  0  0  0  0  0  0  0  0  0  0  0
   -5.3841   24.6566  -29.5890 C   0  0  0  0  0  0  0  0  0  0  0  0
   -5.7288   25.8506  -27.5134 C   0  0  0  0  0  0  0  0  0  0  0  0
   -4.5009   26.1074  -26.6272 C   0  0  0  0  0  0  0  0  0  0  0  0
   -4.8853   26.0459  -25.1671 C   0  0  0  0  0  0  0  0  0  0  0  0
   -4.1740   24.9771  -24.4169 C   0  0  0  0  0  0  0  0  0  0  0  0
   -4.5390   23.5811  -24.7934 C   0  0  0  0  0  0  0  0  0  0  0  0
   -5.7806   23.0708  -24.1223 C   0  0  0  0  0  0  0  0  0  0  0  0
   -4.2927   21.0613  -24.2354 C   0  0  0  0  0  0  0  0  0  0  0  0
   -5.7262   21.5441  -24.2243 C   0  0  0  0  0  0  0  0  0  0  0  0
   -1.0423   21.5477  -21.0536 C   0  0  0  0  0  0  0  0  0  0  0  0
   -1.9484   22.5128  -20.3662 C   0  0  0  0  0  0  0  0  0  0  0  0
   -1.8692   23.7771  -20.8865 O   0  0  0  0  0  0  0  0  0  0  0  0
   -2.3460   24.4262  -20.3090 H   0  0  0  0  0  0  0  0  0  0  0  0
   -3.3948   22.0373  -20.4094 C   0  0  0  0  0  0  0  0  0  0  0  0
   -4.1927   23.0954  -20.8844 O   0  0  0  0  0  0  0  0  0  0  0  0
   -5.5610   23.3097  -19.9470 P   0  0  0  0  0  0  0  0  0  0  0  0
   -5.1588   22.9144  -18.3336 O   0  0  0  0  0  0  0  0  0  0  0  0
   -6.7062   22.4148  -20.3553 O   0  0  0  0  0  0  0  0  0  0  0  0
   -4.7140   23.7110  -17.9115 H   0  0  0  0  0  0  0  0  0  0  0  0
   -6.0945   24.9207  -19.9899 O   0  0  0  0  0  0  0  0  0  0  0  0
   -6.1087   25.3893  -21.2976 C   0  0  0  0  0  0  0  0  0  0  0  0
   -7.5523   25.4187  -21.7460 C   0  0  0  0  0  0  0  0  0  0  0  0
   -7.6849   26.1473  -23.0071 N   0  0  0  0  0  0  0  0  0  0  0  0
   -8.5948   25.9085  -23.4558 H   0  0  0  0  0  0  0  0  0  0  0  0
   -7.6030   27.1507  -22.7896 H   0  0  0  0  0  0  0  0  0  0  0  0
   -8.3309   26.0974  -20.6899 C   0  0  0  0  0  0  0  0  0  0  0  0
   -8.7218   25.3944  -19.5672 O   0  0  0  0  0  0  0  0  0  0  0  0
   -8.6436   27.3007  -20.7944 O   0  0  0  0  0  0  0  0  0  0  0  0
   -8.8993   24.3922  -19.5522 H   0  0  0  0  0  0  0  0  0  0  0  0
 19 20  1  0  0  0
 20 18  1  0  0  0
 18 17  1  0  0  0
 17 16  1  0  0  0
 16 15  1  0  0  0
 15 14  1  0  0  0
 14 13  1  0  0  0
 13 11  1  0  0  0
 11 12  2  0  0  0
 12 10  1  0  0  0
 10  9  1  0  0  0
  9  8  1  0  0  0
  8  7  1  0  0  0
  7  6  1  0  0  0
  6  5  1  0  0  0
  5  4  1  0  0  0
  4  2  1  0  0  0
  2  3  2  0  0  0
  2  1  1  0  0  0
  1 21  1  0  0  0
 21 22  1  0  0  0
 22 23  1  0  0  0
 22 25  1  0  0  0
 25 26  1  0  0  0
 26 27  1  0  0  0
 27 28  1  0  0  0
 27 29  2  0  0  0
 27 31  1  0  0  0
 31 32  1  0  0  0
 32 33  1  0  0  0
 33 34  1  0  0  0
 33 37  1  0  0  0
 37 38  1  0  0  0
 37 39  2  0  0  0
 23 24  1  0  0  0
 28 30  1  0  0  0
 34 35  1  0  0  0
 34 36  1  0  0  0
 38 40  1  0  0  0
M  END
> <minimizedAffinity>
-5.85527

> <CNNscore>
0.3134056926

> <CNNaffinity>
6.1761298180

> <CNN_VS>
1.9356342554

> <CNNaffinity_variance>
0.2937155664

$$$$
[H]OC(=O)[C@@]([H])(N([H])[H])C([H])([H])OP(=O)(O[H])OC([H])([H])[C@]([H])(O[H])C([H])([H])OC(=O)C([H])([H])C([H])([H])C([H])([H])C([H])([H])C([H])([H])C([H])([H])C([H])([H])/C([H])=C(/[H])C([H])([H])C([H])([H])C([H])([H])C([H])([H])C([H])([H])C([H])([H])C([H])([H])C([H])([H])[H]


 40 39  0  0  0  0  0  0  0  0999 V2000
   -5.5573   24.0323  -23.2600 O   0  0  0  0  0  0  0  0  0  0  0  0
   -4.8646   23.8972  -22.1064 C   0  0  0  0  0  0  0  0  0  0  0  0
   -4.7304   24.9433  -21.3795 O   0  0  0  0  0  0  0  0  0  0  0  0
   -4.2676   22.6274  -21.6633 C   0  0  0  0  0  0  0  0  0  0  0  0
   -4.0850   21.5969  -22.6789 C   0  0  0  0  0  0  0  0  0  0  0  0
   -3.0098   21.7699  -23.6616 C   0  0  0  0  0  0  0  0  0  0  0  0
   -1.7257   22.3928  -23.3067 C   0  0  0  0  0  0  0  0  0  0  0  0
   -0.4992   21.5990  -23.7624 C   0  0  0  0  0  0  0  0  0  0  0  0
    0.3915   22.4560  -24.6395 C   0  0  0  0  0  0  0  0  0  0  0  0
    0.4846   21.9040  -26.0442 C   0  0  0  0  0  0  0  0  0  0  0  0
   -0.9312   23.0843  -27.7169 C   0  0  0  0  0  0  0  0  0  0  0  0
    0.2141   22.8989  -27.0824 C   0  0  0  0  0  0  0  0  0  0  0  0
   -2.0949   22.2562  -27.4105 C   0  0  0  0  0  0  0  0  0  0  0  0
   -3.4274   22.9639  -27.6986 C   0  0  0  0  0  0  0  0  0  0  0  0
   -3.9602   23.6114  -26.4416 C   0  0  0  0  0  0  0  0  0  0  0  0
   -4.4330   25.0052  -26.6538 C   0  0  0  0  0  0  0  0  0  0  0  0
   -4.3838   25.4888  -28.0636 C   0  0  0  0  0  0  0  0  0  0  0  0
   -5.7281   25.5914  -28.7227 C   0  0  0  0  0  0  0  0  0  0  0  0
   -5.1075   25.7038  -31.1449 C   0  0  0  0  0  0  0  0  0  0  0  0
   -5.6218   24.8122  -30.0364 C   0  0  0  0  0  0  0  0  0  0  0  0
   -6.8884   23.9374  -23.5591 C   0  0  0  0  0  0  0  0  0  0  0  0
   -7.6702   25.2077  -23.5728 C   0  0  0  0  0  0  0  0  0  0  0  0
   -8.7184   25.1756  -24.4536 O   0  0  0  0  0  0  0  0  0  0  0  0
   -9.1111   26.0784  -24.5666 H   0  0  0  0  0  0  0  0  0  0  0  0
   -8.1879   25.5511  -22.1821 C   0  0  0  0  0  0  0  0  0  0  0  0
   -9.3460   26.3386  -22.3248 O   0  0  0  0  0  0  0  0  0  0  0  0
  -10.3124   26.2736  -20.9615 P   0  0  0  0  0  0  0  0  0  0  0  0
   -9.4860   25.3615  -19.7757 O   0  0  0  0  0  0  0  0  0  0  0  0
  -11.6382   25.5942  -21.2057 O   0  0  0  0  0  0  0  0  0  0  0  0
   -8.8280   25.9634  -19.3116 H   0  0  0  0  0  0  0  0  0  0  0  0
  -10.6086   27.8246  -20.3382 O   0  0  0  0  0  0  0  0  0  0  0  0
  -11.9447   28.1653  -20.5077 C   0  0  0  0  0  0  0  0  0  0  0  0
  -11.9792   29.4883  -21.2388 C   0  0  0  0  0  0  0  0  0  0  0  0
  -11.2909   29.3837  -22.5250 N   0  0  0  0  0  0  0  0  0  0  0  0
  -11.5744   30.1764  -23.1396 H   0  0  0  0  0  0  0  0  0  0  0  0
  -10.2797   29.3770  -22.3300 H   0  0  0  0  0  0  0  0  0  0  0  0
  -11.2996   30.4843  -20.3854 C   0  0  0  0  0  0  0  0  0  0  0  0
  -10.9177   31.6990  -20.9202 O   0  0  0  0  0  0  0  0  0  0  0  0
  -11.0631   30.2467  -19.1836 O   0  0  0  0  0  0  0  0  0  0  0  0
  -10.6748   31.8430  -21.8982 H   0  0  0  0  0  0  0  0  0  0  0  0
 19 20  1  0  0  0
 20 18  1  0  0  0
 18 17  1  0  0  0
 17 16  1  0  0  0
 16 15  1  0  0  0
 15 14  1  0  0  0
 14 13  1  0  0  0
 13 11  1  0  0  0
 11 12  2  0  0  0
 12 10  1  0  0  0
 10  9  1  0  0  0
  9  8  1  0  0  0
  8  7  1  0  0  0
  7  6  1  0  0  0
  6  5  1  0  0  0
  5  4  1  0  0  0
  4  2  1  0  0  0
  2  3  2  0  0  0
  2  1  1  0  0  0
  1 21  1  0  0  0
 21 22  1  0  0  0
 22 23  1  0  0  0
 22 25  1  0  0  0
 25 26  1  0  0  0
 26 27  1  0  0  0
 27 28  1  0  0  0
 27 29  2  0  0  0
 27 31  1  0  0  0
 31 32  1  0  0  0
 32 33  1  0  0  0
 33 34  1  0  0  0
 33 37  1  0  0  0
 37 38  1  0  0  0
 37 39  2  0  0  0
 23 24  1  0  0  0
 28 30  1  0  0  0
 34 35  1  0  0  0
 34 36  1  0  0  0
 38 40  1  0  0  0
M  END
> <minimizedAffinity>
-6.77906

> <CNNscore>
0.2779361606

> <CNNaffinity>
5.7770757675

> <CNN_VS>
1.6056582928

> <CNNaffinity_variance>
0.2660170197

$$$$
[H]OC(=O)[C@@]([H])(N([H])[H])C([H])([H])OP(=O)(O[H])OC([H])([H])[C@]([H])(O[H])C([H])([H])OC(=O)C([H])([H])C([H])([H])C([H])([H])C([H])([H])C([H])([H])C([H])([H])C([H])([H])/C([H])=C(/[H])C([H])([H])C([H])([H])C([H])([H])C([H])([H])C([H])([H])C([H])([H])C([H])([H])C([H])([H])[H]


 40 39  0  0  0  0  0  0  0  0999 V2000
   -3.4851   23.6973  -20.9492 O   0  0  0  0  0  0  0  0  0  0  0  0
   -2.4261   23.4788  -21.7615 C   0  0  0  0  0  0  0  0  0  0  0  0
   -1.2599   23.6437  -21.2581 O   0  0  0  0  0  0  0  0  0  0  0  0
   -2.5549   23.0729  -23.1699 C   0  0  0  0  0  0  0  0  0  0  0  0
   -2.8188   21.6617  -23.4261 C   0  0  0  0  0  0  0  0  0  0  0  0
   -4.2134   21.2083  -23.4583 C   0  0  0  0  0  0  0  0  0  0  0  0
   -5.1349   21.6054  -24.5334 C   0  0  0  0  0  0  0  0  0  0  0  0
   -5.9178   22.8879  -24.2433 C   0  0  0  0  0  0  0  0  0  0  0  0
   -6.7399   23.2922  -25.4508 C   0  0  0  0  0  0  0  0  0  0  0  0
   -7.3584   24.6600  -25.2690 C   0  0  0  0  0  0  0  0  0  0  0  0
   -5.6973   26.4486  -24.7814 C   0  0  0  0  0  0  0  0  0  0  0  0
   -6.5807   25.5422  -24.3983 C   0  0  0  0  0  0  0  0  0  0  0  0
   -5.4095   26.6557  -26.1986 C   0  0  0  0  0  0  0  0  0  0  0  0
   -4.2220   25.8192  -26.6980 C   0  0  0  0  0  0  0  0  0  0  0  0
   -4.6409   24.9593  -27.8677 C   0  0  0  0  0  0  0  0  0  0  0  0
   -3.9378   23.6500  -27.9159 C   0  0  0  0  0  0  0  0  0  0  0  0
   -2.9420   23.4193  -26.8301 C   0  0  0  0  0  0  0  0  0  0  0  0
   -2.1290   22.1694  -27.0006 C   0  0  0  0  0  0  0  0  0  0  0  0
    0.3197   22.3804  -27.4739 C   0  0  0  0  0  0  0  0  0  0  0  0
   -0.7498   22.4712  -26.4081 C   0  0  0  0  0  0  0  0  0  0  0  0
   -4.2723   22.8613  -20.2065 C   0  0  0  0  0  0  0  0  0  0  0  0
   -5.7475   22.9781  -20.3941 C   0  0  0  0  0  0  0  0  0  0  0  0
   -6.3391   21.7819  -20.7014 O   0  0  0  0  0  0  0  0  0  0  0  0
   -7.2790   21.9166  -20.9856 H   0  0  0  0  0  0  0  0  0  0  0  0
   -6.4147   23.5706  -19.1597 C   0  0  0  0  0  0  0  0  0  0  0  0
   -5.4101   24.0944  -18.3241 O   0  0  0  0  0  0  0  0  0  0  0  0
   -5.5861   23.5776  -16.7434 P   0  0  0  0  0  0  0  0  0  0  0  0
   -6.4647   24.7734  -15.8952 O   0  0  0  0  0  0  0  0  0  0  0  0
   -4.2691   23.3975  -16.0278 O   0  0  0  0  0  0  0  0  0  0  0  0
   -7.4442   24.6374  -16.0755 H   0  0  0  0  0  0  0  0  0  0  0  0
   -6.4476   22.1171  -16.6620 O   0  0  0  0  0  0  0  0  0  0  0  0
   -6.4813   21.6495  -15.3542 C   0  0  0  0  0  0  0  0  0  0  0  0
   -7.8578   21.0684  -15.1229 C   0  0  0  0  0  0  0  0  0  0  0  0
   -8.0813   19.9129  -15.9911 N   0  0  0  0  0  0  0  0  0  0  0  0
   -8.8763   19.3475  -15.6241 H   0  0  0  0  0  0  0  0  0  0  0  0
   -8.2577   20.2737  -16.9394 H   0  0  0  0  0  0  0  0  0  0  0  0
   -8.8428   22.1254  -15.4305 C   0  0  0  0  0  0  0  0  0  0  0  0
   -9.3246   22.2600  -16.7179 O   0  0  0  0  0  0  0  0  0  0  0  0
   -9.2495   22.9031  -14.5437 O   0  0  0  0  0  0  0  0  0  0  0  0
   -8.8031   22.0048  -17.5540 H   0  0  0  0  0  0  0  0  0  0  0  0
 19 20  1  0  0  0
 20 18  1  0  0  0
 18 17  1  0  0  0
 17 16  1  0  0  0
 16 15  1  0  0  0
 15 14  1  0  0  0
 14 13  1  0  0  0
 13 11  1  0  0  0
 11 12  2  0  0  0
 12 10  1  0  0  0
 10  9  1  0  0  0
  9  8  1  0  0  0
  8  7  1  0  0  0
  7  6  1  0  0  0
  6  5  1  0  0  0
  5  4  1  0  0  0
  4  2  1  0  0  0
  2  3  2  0  0  0
  2  1  1  0  0  0
  1 21  1  0  0  0
 21 22  1  0  0  0
 22 23  1  0  0  0
 22 25  1  0  0  0
 25 26  1  0  0  0
 26 27  1  0  0  0
 27 28  1  0  0  0
 27 29  2  0  0  0
 27 31  1  0  0  0
 31 32  1  0  0  0
 32 33  1  0  0  0
 33 34  1  0  0  0
 33 37  1  0  0  0
 37 38  1  0  0  0
 37 39  2  0  0  0
 23 24  1  0  0  0
 28 30  1  0  0  0
 34 35  1  0  0  0
 34 36  1  0  0  0
 38 40  1  0  0  0
M  END
> <minimizedAffinity>
-5.48194

> <CNNscore>
0.2771950364

> <CNNaffinity>
5.4998998642

> <CNN_VS>
1.5245449543

> <CNNaffinity_variance>
0.2132582217

$$$$
[H]OC(=O)[C@@]([H])(N([H])[H])C([H])([H])OP(=O)(O[H])OC([H])([H])[C@]([H])(O[H])C([H])([H])OC(=O)C([H])([H])C([H])([H])C([H])([H])C([H])([H])C([H])([H])C([H])([H])C([H])([H])/C([H])=C(/[H])C([H])([H])C([H])([H])C([H])([H])C([H])([H])C([H])([H])C([H])([H])C([H])([H])C([H])([H])[H]


 40 39  0  0  0  0  0  0  0  0999 V2000
   -6.5099   24.2745  -23.2050 O   0  0  0  0  0  0  0  0  0  0  0  0
   -6.9733   25.0607  -24.2031 C   0  0  0  0  0  0  0  0  0  0  0  0
   -8.0613   24.6992  -24.7743 O   0  0  0  0  0  0  0  0  0  0  0  0
   -6.2921   26.2846  -24.6537 C   0  0  0  0  0  0  0  0  0  0  0  0
   -5.0229   26.1121  -25.3510 C   0  0  0  0  0  0  0  0  0  0  0  0
   -4.9989   26.2853  -26.8073 C   0  0  0  0  0  0  0  0  0  0  0  0
   -5.8858   25.5190  -27.6957 C   0  0  0  0  0  0  0  0  0  0  0  0
   -5.6177   25.7378  -29.1863 C   0  0  0  0  0  0  0  0  0  0  0  0
   -4.4558   24.8808  -29.6478 C   0  0  0  0  0  0  0  0  0  0  0  0
   -4.4712   23.5213  -28.9860 C   0  0  0  0  0  0  0  0  0  0  0  0
   -2.6973   22.7294  -27.4296 C   0  0  0  0  0  0  0  0  0  0  0  0
   -3.1391   23.0241  -28.6408 C   0  0  0  0  0  0  0  0  0  0  0  0
   -3.5622   22.8862  -26.2629 C   0  0  0  0  0  0  0  0  0  0  0  0
   -3.5542   21.6578  -25.3408 C   0  0  0  0  0  0  0  0  0  0  0  0
   -2.8842   21.9913  -24.0282 C   0  0  0  0  0  0  0  0  0  0  0  0
   -1.4648   21.5527  -23.9649 C   0  0  0  0  0  0  0  0  0  0  0  0
   -0.4780   22.6260  -23.6515 C   0  0  0  0  0  0  0  0  0  0  0  0
    0.4257   22.9798  -24.7962 C   0  0  0  0  0  0  0  0  0  0  0  0
    0.4759   22.1086  -27.1420 C   0  0  0  0  0  0  0  0  0  0  0  0
    0.5098   21.7308  -25.6777 C   0  0  0  0  0  0  0  0  0  0  0  0
   -6.9507   24.0344  -21.9329 C   0  0  0  0  0  0  0  0  0  0  0  0
   -6.7591   25.1254  -20.9339 C   0  0  0  0  0  0  0  0  0  0  0  0
   -5.5003   25.6634  -20.9714 O   0  0  0  0  0  0  0  0  0  0  0  0
   -5.3485   26.2588  -20.1937 H   0  0  0  0  0  0  0  0  0  0  0  0
   -7.7884   26.2321  -21.1225 C   0  0  0  0  0  0  0  0  0  0  0  0
   -8.6275   26.2510  -19.9922 O   0  0  0  0  0  0  0  0  0  0  0  0
  -10.1636   25.6954  -20.3506 P   0  0  0  0  0  0  0  0  0  0  0  0
  -10.4992   24.3768  -19.3163 O   0  0  0  0  0  0  0  0  0  0  0  0
  -10.2985   25.1974  -21.7694 O   0  0  0  0  0  0  0  0  0  0  0  0
  -10.8088   24.7372  -18.4304 H   0  0  0  0  0  0  0  0  0  0  0  0
  -11.3334   26.8973  -20.0880 O   0  0  0  0  0  0  0  0  0  0  0  0
  -12.1918   26.9807  -21.1771 C   0  0  0  0  0  0  0  0  0  0  0  0
  -11.8972   28.2870  -21.8791 C   0  0  0  0  0  0  0  0  0  0  0  0
  -10.8570   28.1044  -22.8908 N   0  0  0  0  0  0  0  0  0  0  0  0
  -10.8754   28.9031  -23.5604 H   0  0  0  0  0  0  0  0  0  0  0  0
   -9.9584   28.0264  -22.3936 H   0  0  0  0  0  0  0  0  0  0  0  0
  -11.4382   29.2472  -20.8547 C   0  0  0  0  0  0  0  0  0  0  0  0
  -12.2918   29.6238  -19.8364 O   0  0  0  0  0  0  0  0  0  0  0  0
  -10.2870   29.7268  -20.8930 O   0  0  0  0  0  0  0  0  0  0  0  0
  -13.3060   29.6494  -19.9195 H   0  0  0  0  0  0  0  0  0  0  0  0
 19 20  1  0  0  0
 20 18  1  0  0  0
 18 17  1  0  0  0
 17 16  1  0  0  0
 16 15  1  0  0  0
 15 14  1  0  0  0
 14 13  1  0  0  0
 13 11  1  0  0  0
 11 12  2  0  0  0
 12 10  1  0  0  0
 10  9  1  0  0  0
  9  8  1  0  0  0
  8  7  1  0  0  0
  7  6  1  0  0  0
  6  5  1  0  0  0
  5  4  1  0  0  0
  4  2  1  0  0  0
  2  3  2  0  0  0
  2  1  1  0  0  0
  1 21  1  0  0  0
 21 22  1  0  0  0
 22 23  1  0  0  0
 22 25  1  0  0  0
 25 26  1  0  0  0
 26 27  1  0  0  0
 27 28  1  0  0  0
 27 29  2  0  0  0
 27 31  1  0  0  0
 31 32  1  0  0  0
 32 33  1  0  0  0
 33 34  1  0  0  0
 33 37  1  0  0  0
 37 38  1  0  0  0
 37 39  2  0  0  0
 23 24  1  0  0  0
 28 30  1  0  0  0
 34 35  1  0  0  0
 34 36  1  0  0  0
 38 40  1  0  0  0
M  END
> <minimizedAffinity>
-6.55708

> <CNNscore>
0.2743340135

> <CNNaffinity>
5.9338297844

> <CNN_VS>
1.6278513670

> <CNNaffinity_variance>
0.0442664772

$$$$
[H]OC(=O)[C@@]([H])(N([H])[H])C([H])([H])OP(=O)(O[H])OC([H])([H])[C@]([H])(O[H])C([H])([H])OC(=O)C([H])([H])C([H])([H])C([H])([H])C([H])([H])C([H])([H])C([H])([H])C([H])([H])/C([H])=C(/[H])C([H])([H])C([H])([H])C([H])([H])C([H])([H])C([H])([H])C([H])([H])C([H])([H])C([H])([H])[H]


 40 39  0  0  0  0  0  0  0  0999 V2000
   -7.1779   23.5933  -21.7952 O   0  0  0  0  0  0  0  0  0  0  0  0
   -6.9180   22.2661  -21.8006 C   0  0  0  0  0  0  0  0  0  0  0  0
   -7.9136   21.4752  -21.6459 O   0  0  0  0  0  0  0  0  0  0  0  0
   -5.5681   21.7050  -21.9683 C   0  0  0  0  0  0  0  0  0  0  0  0
   -4.4643   22.6558  -22.0334 C   0  0  0  0  0  0  0  0  0  0  0  0
   -3.9475   23.0340  -23.3531 C   0  0  0  0  0  0  0  0  0  0  0  0
   -4.6929   22.7529  -24.5892 C   0  0  0  0  0  0  0  0  0  0  0  0
   -5.2362   24.0009  -25.2887 C   0  0  0  0  0  0  0  0  0  0  0  0
   -4.1783   25.0853  -25.3361 C   0  0  0  0  0  0  0  0  0  0  0  0
   -4.5523   26.1841  -26.3053 C   0  0  0  0  0  0  0  0  0  0  0  0
   -6.0410   25.6033  -28.2138 C   0  0  0  0  0  0  0  0  0  0  0  0
   -5.8440   25.9722  -26.9592 C   0  0  0  0  0  0  0  0  0  0  0  0
   -4.9094   25.3608  -29.1052 C   0  0  0  0  0  0  0  0  0  0  0  0
   -4.9457   23.9699  -29.7558 C   0  0  0  0  0  0  0  0  0  0  0  0
   -4.2651   22.9562  -28.8657 C   0  0  0  0  0  0  0  0  0  0  0  0
   -2.9795   23.4420  -28.2981 C   0  0  0  0  0  0  0  0  0  0  0  0
   -2.1004   22.3884  -27.7141 C   0  0  0  0  0  0  0  0  0  0  0  0
   -1.5260   22.7441  -26.3740 C   0  0  0  0  0  0  0  0  0  0  0  0
    0.3971   21.8940  -25.0163 C   0  0  0  0  0  0  0  0  0  0  0  0
   -0.0634   22.2920  -26.4010 C   0  0  0  0  0  0  0  0  0  0  0  0
   -8.1364   24.3531  -22.4068 C   0  0  0  0  0  0  0  0  0  0  0  0
   -8.4177   25.6924  -21.8132 C   0  0  0  0  0  0  0  0  0  0  0  0
   -9.0965   26.5192  -22.6683 O   0  0  0  0  0  0  0  0  0  0  0  0
   -9.1191   27.4460  -22.3181 H   0  0  0  0  0  0  0  0  0  0  0  0
   -9.1942   25.5650  -20.5091 C   0  0  0  0  0  0  0  0  0  0  0  0
  -10.0079   24.4190  -20.5906 O   0  0  0  0  0  0  0  0  0  0  0  0
  -11.6257   24.7914  -20.3896 P   0  0  0  0  0  0  0  0  0  0  0  0
  -11.7225   26.2453  -19.4963 O   0  0  0  0  0  0  0  0  0  0  0  0
  -12.3852   23.7398  -19.6172 O   0  0  0  0  0  0  0  0  0  0  0  0
  -11.5974   27.0168  -20.1284 H   0  0  0  0  0  0  0  0  0  0  0  0
  -12.3974   25.0248  -21.8835 O   0  0  0  0  0  0  0  0  0  0  0  0
  -13.1578   26.1872  -21.8570 C   0  0  0  0  0  0  0  0  0  0  0  0
  -12.7393   27.0219  -23.0462 C   0  0  0  0  0  0  0  0  0  0  0  0
  -11.9009   26.2401  -23.9543 N   0  0  0  0  0  0  0  0  0  0  0  0
  -11.8723   26.7008  -24.8889 H   0  0  0  0  0  0  0  0  0  0  0  0
  -10.9692   26.1664  -23.5216 H   0  0  0  0  0  0  0  0  0  0  0  0
  -11.9783   28.1782  -22.5305 C   0  0  0  0  0  0  0  0  0  0  0  0
  -11.0918   28.8397  -23.3577 O   0  0  0  0  0  0  0  0  0  0  0  0
  -12.1225   28.5702  -21.3549 O   0  0  0  0  0  0  0  0  0  0  0  0
  -10.5947   28.4022  -24.1308 H   0  0  0  0  0  0  0  0  0  0  0  0
 19 20  1  0  0  0
 20 18  1  0  0  0
 18 17  1  0  0  0
 17 16  1  0  0  0
 16 15  1  0  0  0
 15 14  1  0  0  0
 14 13  1  0  0  0
 13 11  1  0  0  0
 11 12  2  0  0  0
 12 10  1  0  0  0
 10  9  1  0  0  0
  9  8  1  0  0  0
  8  7  1  0  0  0
  7  6  1  0  0  0
  6  5  1  0  0  0
  5  4  1  0  0  0
  4  2  1  0  0  0
  2  3  2  0  0  0
  2  1  1  0  0  0
  1 21  1  0  0  0
 21 22  1  0  0  0
 22 23  1  0  0  0
 22 25  1  0  0  0
 25 26  1  0  0  0
 26 27  1  0  0  0
 27 28  1  0  0  0
 27 29  2  0  0  0
 27 31  1  0  0  0
 31 32  1  0  0  0
 32 33  1  0  0  0
 33 34  1  0  0  0
 33 37  1  0  0  0
 37 38  1  0  0  0
 37 39  2  0  0  0
 23 24  1  0  0  0
 28 30  1  0  0  0
 34 35  1  0  0  0
 34 36  1  0  0  0
 38 40  1  0  0  0
M  END
> <minimizedAffinity>
-6.21706

> <CNNscore>
0.2740730941

> <CNNaffinity>
5.7893428802

> <CNN_VS>
1.5867030621

> <CNNaffinity_variance>
0.3005462289

$$$$
[H]OC(=O)[C@@]([H])(N([H])[H])C([H])([H])OP(=O)(O[H])OC([H])([H])[C@]([H])(O[H])C([H])([H])OC(=O)C([H])([H])C([H])([H])C([H])([H])C([H])([H])C([H])([H])C([H])([H])C([H])([H])/C([H])=C(/[H])C([H])([H])C([H])([H])C([H])([H])C([H])([H])C([H])([H])C([H])([H])C([H])([H])C([H])([H])[H]


 40 39  0  0  0  0  0  0  0  0999 V2000
   -6.4718   22.8275  -24.8203 O   0  0  0  0  0  0  0  0  0  0  0  0
   -6.0202   21.9225  -23.9224 C   0  0  0  0  0  0  0  0  0  0  0  0
   -6.7267   21.7416  -22.8694 O   0  0  0  0  0  0  0  0  0  0  0  0
   -4.7759   21.1572  -24.0986 C   0  0  0  0  0  0  0  0  0  0  0  0
   -3.7095   21.4049  -23.1351 C   0  0  0  0  0  0  0  0  0  0  0  0
   -3.0072   22.6915  -23.1888 C   0  0  0  0  0  0  0  0  0  0  0  0
   -1.5690   22.8043  -22.9028 C   0  0  0  0  0  0  0  0  0  0  0  0
   -0.8160   21.4730  -22.9523 C   0  0  0  0  0  0  0  0  0  0  0  0
    0.5125   21.6411  -23.6623 C   0  0  0  0  0  0  0  0  0  0  0  0
    0.4034   22.6020  -24.8248 C   0  0  0  0  0  0  0  0  0  0  0  0
    0.0889   22.1258  -27.2476 C   0  0  0  0  0  0  0  0  0  0  0  0
    0.7566   22.0039  -26.1127 C   0  0  0  0  0  0  0  0  0  0  0  0
   -1.1348   22.9211  -27.3101 C   0  0  0  0  0  0  0  0  0  0  0  0
   -2.3490   22.2023  -26.7032 C   0  0  0  0  0  0  0  0  0  0  0  0
   -3.6311   22.7780  -27.2581 C   0  0  0  0  0  0  0  0  0  0  0  0
   -3.5351   23.1492  -28.6947 C   0  0  0  0  0  0  0  0  0  0  0  0
   -4.8120   23.5880  -29.3278 C   0  0  0  0  0  0  0  0  0  0  0  0
   -5.4195   24.8076  -28.6987 C   0  0  0  0  0  0  0  0  0  0  0  0
   -4.6452   25.7608  -30.8796 C   0  0  0  0  0  0  0  0  0  0  0  0
   -5.7519   25.7624  -29.8485 C   0  0  0  0  0  0  0  0  0  0  0  0
   -6.1092   24.1159  -25.1009 C   0  0  0  0  0  0  0  0  0  0  0  0
   -7.2095   25.1147  -25.2300 C   0  0  0  0  0  0  0  0  0  0  0  0
   -8.1900   24.7141  -26.0982 O   0  0  0  0  0  0  0  0  0  0  0  0
   -8.8133   25.4595  -26.2937 H   0  0  0  0  0  0  0  0  0  0  0  0
   -7.8304   25.4288  -23.8751 C   0  0  0  0  0  0  0  0  0  0  0  0
   -6.7893   25.6318  -22.9495 O   0  0  0  0  0  0  0  0  0  0  0  0
   -7.3558   25.6662  -21.3764 P   0  0  0  0  0  0  0  0  0  0  0  0
   -6.0160   25.8999  -20.3413 O   0  0  0  0  0  0  0  0  0  0  0  0
   -8.0255   24.3794  -20.9585 O   0  0  0  0  0  0  0  0  0  0  0  0
   -5.8025   26.8819  -20.3128 H   0  0  0  0  0  0  0  0  0  0  0  0
   -8.4484   26.9437  -21.1398 O   0  0  0  0  0  0  0  0  0  0  0  0
   -9.6352   26.4686  -20.5959 C   0  0  0  0  0  0  0  0  0  0  0  0
  -10.7630   27.2439  -21.2384 C   0  0  0  0  0  0  0  0  0  0  0  0
  -10.5833   27.3073  -22.6884 N   0  0  0  0  0  0  0  0  0  0  0  0
  -11.4862   27.5624  -23.1426 H   0  0  0  0  0  0  0  0  0  0  0  0
   -9.8397   27.9953  -22.8737 H   0  0  0  0  0  0  0  0  0  0  0  0
  -10.7439   28.6074  -20.6702 C   0  0  0  0  0  0  0  0  0  0  0  0
   -9.7955   28.9426  -19.7239 O   0  0  0  0  0  0  0  0  0  0  0  0
  -11.5736   29.4662  -21.0316 O   0  0  0  0  0  0  0  0  0  0  0  0
   -9.3750   28.2805  -19.0751 H   0  0  0  0  0  0  0  0  0  0  0  0
 19 20  1  0  0  0
 20 18  1  0  0  0
 18 17  1  0  0  0
 17 16  1  0  0  0
 16 15  1  0  0  0
 15 14  1  0  0  0
 14 13  1  0  0  0
 13 11  1  0  0  0
 11 12  2  0  0  0
 12 10  1  0  0  0
 10  9  1  0  0  0
  9  8  1  0  0  0
  8  7  1  0  0  0
  7  6  1  0  0  0
  6  5  1  0  0  0
  5  4  1  0  0  0
  4  2  1  0  0  0
  2  3  2  0  0  0
  2  1  1  0  0  0
  1 21  1  0  0  0
 21 22  1  0  0  0
 22 23  1  0  0  0
 22 25  1  0  0  0
 25 26  1  0  0  0
 26 27  1  0  0  0
 27 28  1  0  0  0
 27 29  2  0  0  0
 27 31  1  0  0  0
 31 32  1  0  0  0
 32 33  1  0  0  0
 33 34  1  0  0  0
 33 37  1  0  0  0
 37 38  1  0  0  0
 37 39  2  0  0  0
 23 24  1  0  0  0
 28 30  1  0  0  0
 34 35  1  0  0  0
 34 36  1  0  0  0
 38 40  1  0  0  0
M  END
> <minimizedAffinity>
-6.71206

> <CNNscore>
0.2613082230

> <CNNaffinity>
5.8387961388

> <CNN_VS>
1.5257254839

> <CNNaffinity_variance>
0.2568174005

$$$$
[H]c1c(C#N)c([H])c2c(C3([H])C([H])([H])C([H])([H])N(C([H])([H])[H])C([H])([H])C3([H])[H])c([H])n([H])c2c1[H]


 19 21  0  0  0  0  0  0  0  0999 V2000
   -0.1808   21.0849  -22.4913 C   0  0  0  0  0  0  0  0  0  0  0  0
   -1.3249   20.9252  -21.7344 C   0  0  0  0  0  0  0  0  0  0  0  0
   -2.4160   21.3513  -22.4089 N   0  0  0  0  0  0  0  0  0  0  0  0
   -1.9796   21.7883  -23.6183 C   0  0  0  0  0  0  0  0  0  0  0  0
   -2.7192   22.2398  -24.7032 C   0  0  0  0  0  0  0  0  0  0  0  0
   -2.0333   22.5279  -25.8911 C   0  0  0  0  0  0  0  0  0  0  0  0
   -0.6633   22.3688  -25.9654 C   0  0  0  0  0  0  0  0  0  0  0  0
    0.0154   21.9199  -24.8405 C   0  0  0  0  0  0  0  0  0  0  0  0
   -0.6274   21.6313  -23.6825 C   0  0  0  0  0  0  0  0  0  0  0  0
   -3.3805   21.3342  -22.0457 H   0  0  0  0  0  0  0  0  0  0  0  0
    3.5538   18.2266  -21.6564 C   0  0  0  0  0  0  0  0  0  0  0  0
    3.4423   19.6591  -21.5708 N   0  0  0  0  0  0  0  0  0  0  0  0
    3.4541   20.3355  -22.7976 C   0  0  0  0  0  0  0  0  0  0  0  0
    2.2273   21.1275  -23.1222 C   0  0  0  0  0  0  0  0  0  0  0  0
    1.1810   20.8480  -22.0809 C   0  0  0  0  0  0  0  0  0  0  0  0
    1.6547   21.1389  -20.7290 C   0  0  0  0  0  0  0  0  0  0  0  0
    2.8528   20.2346  -20.4569 C   0  0  0  0  0  0  0  0  0  0  0  0
   -0.0383   22.6241  -27.2127 C   0  0  0  0  0  0  0  0  0  0  0  0
    0.5050   22.8289  -28.2376 N   0  0  0  0  0  0  0  0  0  0  0  0
 11 12  1  0  0  0
 12 13  1  0  0  0
 13 14  1  0  0  0
 14 15  1  0  0  0
 15 16  1  0  0  0
 16 17  1  0  0  0
 15  1  1  0  0  0
  1  2  2  0  0  0
  2  3  1  0  0  0
  3  4  1  0  0  0
  4  5  2  0  0  0
  5  6  1  0  0  0
  6  7  2  0  0  0
  7  8  1  0  0  0
  8  9  2  0  0  0
  7 18  1  0  0  0
 18 19  3  0  0  0
 17 12  1  0  0  0
  9  1  1  0  0  0
  9  4  1  0  0  0
  3 10  1  0  0  0
M  END
> <minimizedAffinity>
-6.42856

> <CNNscore>
0.8778535128

> <CNNaffinity>
5.6578564644

> <CNN_VS>
4.9667692184

> <CNNaffinity_variance>
0.2640511096

$$$$
[H]c1c(C#N)c([H])c2c(C3([H])C([H])([H])C([H])([H])N(C([H])([H])[H])C([H])([H])C3([H])[H])c([H])n([H])c2c1[H]


 19 21  0  0  0  0  0  0  0  0999 V2000
   -3.6660   23.1929  -23.9737 C   0  0  0  0  0  0  0  0  0  0  0  0
   -3.5996   22.7953  -22.6527 C   0  0  0  0  0  0  0  0  0  0  0  0
   -2.4436   22.1418  -22.4005 N   0  0  0  0  0  0  0  0  0  0  0  0
   -1.7482   22.1174  -23.5666 C   0  0  0  0  0  0  0  0  0  0  0  0
   -0.4672   21.6403  -23.8101 C   0  0  0  0  0  0  0  0  0  0  0  0
    0.0747   21.8368  -25.0878 C   0  0  0  0  0  0  0  0  0  0  0  0
   -0.6555   22.4816  -26.0670 C   0  0  0  0  0  0  0  0  0  0  0  0
   -1.9335   22.9273  -25.7576 C   0  0  0  0  0  0  0  0  0  0  0  0
   -2.4763   22.7520  -24.5279 C   0  0  0  0  0  0  0  0  0  0  0  0
   -2.1729   21.7493  -21.4867 H   0  0  0  0  0  0  0  0  0  0  0  0
   -8.0891   24.9934  -24.0632 C   0  0  0  0  0  0  0  0  0  0  0  0
   -7.0886   24.9342  -25.0964 N   0  0  0  0  0  0  0  0  0  0  0  0
   -6.0517   25.8691  -24.9809 C   0  0  0  0  0  0  0  0  0  0  0  0
   -4.6752   25.3059  -24.8194 C   0  0  0  0  0  0  0  0  0  0  0  0
   -4.7786   23.8171  -24.6456 C   0  0  0  0  0  0  0  0  0  0  0  0
   -5.4833   23.1785  -25.7555 C   0  0  0  0  0  0  0  0  0  0  0  0
   -6.8957   23.7538  -25.7955 C   0  0  0  0  0  0  0  0  0  0  0  0
   -0.0280   22.6975  -27.3204 C   0  0  0  0  0  0  0  0  0  0  0  0
    0.5085   22.8968  -28.3500 N   0  0  0  0  0  0  0  0  0  0  0  0
 11 12  1  0  0  0
 12 13  1  0  0  0
 13 14  1  0  0  0
 14 15  1  0  0  0
 15 16  1  0  0  0
 16 17  1  0  0  0
 15  1  1  0  0  0
  1  2  2  0  0  0
  2  3  1  0  0  0
  3  4  1  0  0  0
  4  5  2  0  0  0
  5  6  1  0  0  0
  6  7  2  0  0  0
  7  8  1  0  0  0
  8  9  2  0  0  0
  7 18  1  0  0  0
 18 19  3  0  0  0
 17 12  1  0  0  0
  9  1  1  0  0  0
  9  4  1  0  0  0
  3 10  1  0  0  0
M  END
> <minimizedAffinity>
-6.62468

> <CNNscore>
0.6432762742

> <CNNaffinity>
5.9229230881

> <CNN_VS>
3.8100759983

> <CNNaffinity_variance>
0.5101941228

$$$$
[H]c1c(C#N)c([H])c2c(C3([H])C([H])([H])C([H])([H])N(C([H])([H])[H])C([H])([H])C3([H])[H])c([H])n([H])c2c1[H]


 19 21  0  0  0  0  0  0  0  0999 V2000
   -0.9905   22.0369  -24.4894 C   0  0  0  0  0  0  0  0  0  0  0  0
    0.3753   21.8575  -24.3893 C   0  0  0  0  0  0  0  0  0  0  0  0
    0.9756   22.0255  -25.5886 N   0  0  0  0  0  0  0  0  0  0  0  0
   -0.0073   22.3217  -26.4775 C   0  0  0  0  0  0  0  0  0  0  0  0
    0.1017   22.6666  -27.8180 C   0  0  0  0  0  0  0  0  0  0  0  0
   -1.0658   23.0427  -28.4963 C   0  0  0  0  0  0  0  0  0  0  0  0
   -2.2818   23.0600  -27.8414 C   0  0  0  0  0  0  0  0  0  0  0  0
   -2.3203   22.6967  -26.5020 C   0  0  0  0  0  0  0  0  0  0  0  0
   -1.2036   22.3335  -25.8248 C   0  0  0  0  0  0  0  0  0  0  0  0
    1.9881   21.9380  -25.7611 H   0  0  0  0  0  0  0  0  0  0  0  0
   -4.4866   23.5745  -21.6211 C   0  0  0  0  0  0  0  0  0  0  0  0
   -3.9340   22.2560  -21.7886 N   0  0  0  0  0  0  0  0  0  0  0  0
   -4.3461   21.5755  -22.9417 C   0  0  0  0  0  0  0  0  0  0  0  0
   -3.2651   21.2080  -23.9084 C   0  0  0  0  0  0  0  0  0  0  0  0
   -1.9778   21.8380  -23.4576 C   0  0  0  0  0  0  0  0  0  0  0  0
   -1.6205   21.4509  -22.0941 C   0  0  0  0  0  0  0  0  0  0  0  0
   -2.7364   21.9323  -21.1719 C   0  0  0  0  0  0  0  0  0  0  0  0
   -3.4148   23.5038  -28.5700 C   0  0  0  0  0  0  0  0  0  0  0  0
   -4.3396   23.8772  -29.1970 N   0  0  0  0  0  0  0  0  0  0  0  0
 11 12  1  0  0  0
 12 13  1  0  0  0
 13 14  1  0  0  0
 14 15  1  0  0  0
 15 16  1  0  0  0
 16 17  1  0  0  0
 15  1  1  0  0  0
  1  2  2  0  0  0
  2  3  1  0  0  0
  3  4  1  0  0  0
  4  5  2  0  0  0
  5  6  1  0  0  0
  6  7  2  0  0  0
  7  8  1  0  0  0
  8  9  2  0  0  0
  7 18  1  0  0  0
 18 19  3  0  0  0
 17 12  1  0  0  0
  9  1  1  0  0  0
  9  4  1  0  0  0
  3 10  1  0  0  0
M  END
> <minimizedAffinity>
-7.23951

> <CNNscore>
0.5485807061

> <CNNaffinity>
5.7903490067

> <CNN_VS>
3.1764738560

> <CNNaffinity_variance>
0.3723026216

$$$$
[H]c1c(C#N)c([H])c2c(C3([H])C([H])([H])C([H])([H])N(C([H])([H])[H])C([H])([H])C3([H])[H])c([H])n([H])c2c1[H]


 19 21  0  0  0  0  0  0  0  0999 V2000
   -3.2878   22.5528  -25.1503 C   0  0  0  0  0  0  0  0  0  0  0  0
   -2.0516   21.9420  -25.2287 C   0  0  0  0  0  0  0  0  0  0  0  0
   -1.5316   22.0573  -26.4710 N   0  0  0  0  0  0  0  0  0  0  0  0
   -2.4349   22.7538  -27.2077 C   0  0  0  0  0  0  0  0  0  0  0  0
   -2.3317   23.2074  -28.5159 C   0  0  0  0  0  0  0  0  0  0  0  0
   -3.3654   24.0116  -29.0154 C   0  0  0  0  0  0  0  0  0  0  0  0
   -4.4503   24.3308  -28.2224 C   0  0  0  0  0  0  0  0  0  0  0  0
   -4.4931   23.8377  -26.9253 C   0  0  0  0  0  0  0  0  0  0  0  0
   -3.5033   23.0618  -26.4197 C   0  0  0  0  0  0  0  0  0  0  0  0
   -0.6209   21.6773  -26.7690 H   0  0  0  0  0  0  0  0  0  0  0  0
   -7.2931   23.9337  -22.9447 C   0  0  0  0  0  0  0  0  0  0  0  0
   -6.2757   23.0043  -22.5283 N   0  0  0  0  0  0  0  0  0  0  0  0
   -6.3221   21.7482  -23.1469 C   0  0  0  0  0  0  0  0  0  0  0  0
   -5.1188   21.3673  -23.9500 C   0  0  0  0  0  0  0  0  0  0  0  0
   -4.1963   22.5506  -24.0307 C   0  0  0  0  0  0  0  0  0  0  0  0
   -3.8142   23.0449  -22.7094 C   0  0  0  0  0  0  0  0  0  0  0  0
   -5.0895   23.4816  -21.9950 C   0  0  0  0  0  0  0  0  0  0  0  0
   -5.4336   25.1939  -28.7698 C   0  0  0  0  0  0  0  0  0  0  0  0
   -6.2532   25.8935  -29.2458 N   0  0  0  0  0  0  0  0  0  0  0  0
 11 12  1  0  0  0
 12 13  1  0  0  0
 13 14  1  0  0  0
 14 15  1  0  0  0
 15 16  1  0  0  0
 16 17  1  0  0  0
 15  1  1  0  0  0
  1  2  2  0  0  0
  2  3  1  0  0  0
  3  4  1  0  0  0
  4  5  2  0  0  0
  5  6  1  0  0  0
  6  7  2  0  0  0
  7  8  1  0  0  0
  8  9  2  0  0  0
  7 18  1  0  0  0
 18 19  3  0  0  0
 17 12  1  0  0  0
  9  1  1  0  0  0
  9  4  1  0  0  0
  3 10  1  0  0  0
M  END
> <minimizedAffinity>
-6.81548

> <CNNscore>
0.4920015633

> <CNNaffinity>
5.8955268860

> <CNN_VS>
2.9006085396

> <CNNaffinity_variance>
0.4954787195

$$$$
[H]c1c(C#N)c([H])c2c(C3([H])C([H])([H])C([H])([H])N(C([H])([H])[H])C([H])([H])C3([H])[H])c([H])n([H])c2c1[H]


 19 21  0  0  0  0  0  0  0  0999 V2000
   -0.8813   22.6052  -24.7269 C   0  0  0  0  0  0  0  0  0  0  0  0
    0.4396   22.5217  -25.1215 C   0  0  0  0  0  0  0  0  0  0  0  0
    0.5475   22.5717  -26.4680 N   0  0  0  0  0  0  0  0  0  0  0  0
   -0.7141   22.6938  -26.9551 C   0  0  0  0  0  0  0  0  0  0  0  0
   -1.1306   22.8718  -28.2676 C   0  0  0  0  0  0  0  0  0  0  0  0
   -2.4958   23.0887  -28.4995 C   0  0  0  0  0  0  0  0  0  0  0  0
   -3.3896   23.1164  -27.4468 C   0  0  0  0  0  0  0  0  0  0  0  0
   -2.9061   22.9242  -26.1596 C   0  0  0  0  0  0  0  0  0  0  0  0
   -1.5898   22.7169  -25.9111 C   0  0  0  0  0  0  0  0  0  0  0  0
    1.4333   22.5235  -26.9929 H   0  0  0  0  0  0  0  0  0  0  0  0
   -0.4675   22.8651  -19.9756 C   0  0  0  0  0  0  0  0  0  0  0  0
   -1.6107   22.5549  -20.7935 N   0  0  0  0  0  0  0  0  0  0  0  0
   -2.2197   23.6535  -21.4137 C   0  0  0  0  0  0  0  0  0  0  0  0
   -2.2334   23.6384  -22.9095 C   0  0  0  0  0  0  0  0  0  0  0  0
   -1.4053   22.4802  -23.3895 C   0  0  0  0  0  0  0  0  0  0  0  0
   -1.8688   21.2056  -22.8444 C   0  0  0  0  0  0  0  0  0  0  0  0
   -1.7466   21.2831  -21.3258 C   0  0  0  0  0  0  0  0  0  0  0  0
   -4.7478   23.3960  -27.7445 C   0  0  0  0  0  0  0  0  0  0  0  0
   -5.8714   23.6547  -27.9858 N   0  0  0  0  0  0  0  0  0  0  0  0
 11 12  1  0  0  0
 12 13  1  0  0  0
 13 14  1  0  0  0
 14 15  1  0  0  0
 15 16  1  0  0  0
 16 17  1  0  0  0
 15  1  1  0  0  0
  1  2  2  0  0  0
  2  3  1  0  0  0
  3  4  1  0  0  0
  4  5  2  0  0  0
  5  6  1  0  0  0
  6  7  2  0  0  0
  7  8  1  0  0  0
  8  9  2  0  0  0
  7 18  1  0  0  0
 18 19  3  0  0  0
 17 12  1  0  0  0
  9  1  1  0  0  0
  9  4  1  0  0  0
  3 10  1  0  0  0
M  END
> <minimizedAffinity>
-6.67245

> <CNNscore>
0.4558702707

> <CNNaffinity>
5.6923680305

> <CNN_VS>
2.5949814320

> <CNNaffinity_variance>
0.3691499531

$$$$
[H]c1c(C#N)c([H])c2c(C3([H])C([H])([H])C([H])([H])N(C([H])([H])[H])C([H])([H])C3([H])[H])c([H])n([H])c2c1[H]


 19 21  0  0  0  0  0  0  0  0999 V2000
   -3.1889   22.2142  -23.6005 C   0  0  0  0  0  0  0  0  0  0  0  0
   -4.5632   22.1035  -23.5197 C   0  0  0  0  0  0  0  0  0  0  0  0
   -5.1389   22.3216  -24.7230 N   0  0  0  0  0  0  0  0  0  0  0  0
   -4.1303   22.5719  -25.5971 C   0  0  0  0  0  0  0  0  0  0  0  0
   -4.1928   22.7697  -26.9700 C   0  0  0  0  0  0  0  0  0  0  0  0
   -2.9855   22.8964  -27.6707 C   0  0  0  0  0  0  0  0  0  0  0  0
   -1.7779   22.8305  -27.0034 C   0  0  0  0  0  0  0  0  0  0  0  0
   -1.7882   22.6378  -25.6285 C   0  0  0  0  0  0  0  0  0  0  0  0
   -2.9432   22.5086  -24.9309 C   0  0  0  0  0  0  0  0  0  0  0  0
   -6.1527   22.2956  -24.9075 H   0  0  0  0  0  0  0  0  0  0  0  0
   -1.8760   20.9469  -19.1864 C   0  0  0  0  0  0  0  0  0  0  0  0
   -1.1271   21.6011  -20.2272 N   0  0  0  0  0  0  0  0  0  0  0  0
   -0.6807   20.7661  -21.2597 C   0  0  0  0  0  0  0  0  0  0  0  0
   -1.1967   21.0811  -22.6280 C   0  0  0  0  0  0  0  0  0  0  0  0
   -2.2403   22.1561  -22.5162 C   0  0  0  0  0  0  0  0  0  0  0  0
   -1.7298   23.3558  -21.8555 C   0  0  0  0  0  0  0  0  0  0  0  0
   -1.3013   22.9579  -20.4464 C   0  0  0  0  0  0  0  0  0  0  0  0
   -0.5930   22.9101  -27.7788 C   0  0  0  0  0  0  0  0  0  0  0  0
    0.3897   22.9490  -28.4272 N   0  0  0  0  0  0  0  0  0  0  0  0
 11 12  1  0  0  0
 12 13  1  0  0  0
 13 14  1  0  0  0
 14 15  1  0  0  0
 15 16  1  0  0  0
 16 17  1  0  0  0
 15  1  1  0  0  0
  1  2  2  0  0  0
  2  3  1  0  0  0
  3  4  1  0  0  0
  4  5  2  0  0  0
  5  6  1  0  0  0
  6  7  2  0  0  0
  7  8  1  0  0  0
  8  9  2  0  0  0
  7 18  1  0  0  0
 18 19  3  0  0  0
 17 12  1  0  0  0
  9  1  1  0  0  0
  9  4  1  0  0  0
  3 10  1  0  0  0
M  END
> <minimizedAffinity>
-6.34164

> <CNNscore>
0.4404358566

> <CNNaffinity>
5.5636320114

> <CNN_VS>
2.4504230022

> <CNNaffinity_variance>
0.5836466551

$$$$
[H]c1c(C#N)c([H])c2c(C3([H])C([H])([H])C([H])([H])N(C([H])([H])[H])C([H])([H])C3([H])[H])c([H])n([H])c2c1[H]


 19 21  0  0  0  0  0  0  0  0999 V2000
   -4.5320   23.4856  -26.3862 C   0  0  0  0  0  0  0  0  0  0  0  0
   -3.4011   22.7268  -26.1565 C   0  0  0  0  0  0  0  0  0  0  0  0
   -2.5579   22.7815  -27.2116 N   0  0  0  0  0  0  0  0  0  0  0  0
   -3.1424   23.5871  -28.1353 C   0  0  0  0  0  0  0  0  0  0  0  0
   -2.6402   24.0293  -29.3519 C   0  0  0  0  0  0  0  0  0  0  0  0
   -3.4000   24.9570  -30.0776 C   0  0  0  0  0  0  0  0  0  0  0  0
   -4.6118   25.4051  -29.5893 C   0  0  0  0  0  0  0  0  0  0  0  0
   -5.0580   24.9163  -28.3689 C   0  0  0  0  0  0  0  0  0  0  0  0
   -4.3384   24.0220  -27.6478 C   0  0  0  0  0  0  0  0  0  0  0  0
   -1.6523   22.2929  -27.2714 H   0  0  0  0  0  0  0  0  0  0  0  0
   -7.2748   25.7733  -23.2149 C   0  0  0  0  0  0  0  0  0  0  0  0
   -7.4870   24.5235  -23.8969 N   0  0  0  0  0  0  0  0  0  0  0  0
   -7.8835   24.6314  -25.2362 C   0  0  0  0  0  0  0  0  0  0  0  0
   -6.9574   24.0297  -26.2453 C   0  0  0  0  0  0  0  0  0  0  0  0
   -5.7005   23.5917  -25.5483 C   0  0  0  0  0  0  0  0  0  0  0  0
   -5.9703   22.6581  -24.4565 C   0  0  0  0  0  0  0  0  0  0  0  0
   -6.8524   23.3791  -23.4420 C   0  0  0  0  0  0  0  0  0  0  0  0
   -5.3037   26.3852  -30.3458 C   0  0  0  0  0  0  0  0  0  0  0  0
   -5.8573   27.2000  -30.9918 N   0  0  0  0  0  0  0  0  0  0  0  0
 11 12  1  0  0  0
 12 13  1  0  0  0
 13 14  1  0  0  0
 14 15  1  0  0  0
 15 16  1  0  0  0
 16 17  1  0  0  0
 15  1  1  0  0  0
  1  2  2  0  0  0
  2  3  1  0  0  0
  3  4  1  0  0  0
  4  5  2  0  0  0
  5  6  1  0  0  0
  6  7  2  0  0  0
  7  8  1  0  0  0
  8  9  2  0  0  0
  7 18  1  0  0  0
 18 19  3  0  0  0
 17 12  1  0  0  0
  9  1  1  0  0  0
  9  4  1  0  0  0
  3 10  1  0  0  0
M  END
> <minimizedAffinity>
-6.75112

> <CNNscore>
0.4013096988

> <CNNaffinity>
5.6554274559

> <CNN_VS>
2.2695779800

> <CNNaffinity_variance>
0.0864191055

$$$$
[H]c1c(C#N)c([H])c2c(C3([H])C([H])([H])C([H])([H])N(C([H])([H])[H])C([H])([H])C3([H])[H])c([H])n([H])c2c1[H]


 19 21  0  0  0  0  0  0  0  0999 V2000
   -2.4128   23.3861  -28.1600 C   0  0  0  0  0  0  0  0  0  0  0  0
   -1.2319   23.3677  -28.8760 C   0  0  0  0  0  0  0  0  0  0  0  0
   -0.2080   22.9268  -28.1115 N   0  0  0  0  0  0  0  0  0  0  0  0
   -0.7273   22.6508  -26.8875 C   0  0  0  0  0  0  0  0  0  0  0  0
   -0.1046   22.0905  -25.7802 C   0  0  0  0  0  0  0  0  0  0  0  0
   -0.8952   21.7972  -24.6607 C   0  0  0  0  0  0  0  0  0  0  0  0
   -2.2497   22.0674  -24.6693 C   0  0  0  0  0  0  0  0  0  0  0  0
   -2.8068   22.6347  -25.8075 C   0  0  0  0  0  0  0  0  0  0  0  0
   -2.0625   22.9230  -26.9031 C   0  0  0  0  0  0  0  0  0  0  0  0
    0.7682   22.8307  -28.4279 H   0  0  0  0  0  0  0  0  0  0  0  0
   -5.2302   25.6775  -31.2625 C   0  0  0  0  0  0  0  0  0  0  0  0
   -5.5572   24.9982  -30.0362 N   0  0  0  0  0  0  0  0  0  0  0  0
   -5.5765   23.5995  -30.1127 C   0  0  0  0  0  0  0  0  0  0  0  0
   -4.6002   22.8808  -29.2362 C   0  0  0  0  0  0  0  0  0  0  0  0
   -3.6920   23.8905  -28.5936 C   0  0  0  0  0  0  0  0  0  0  0  0
   -4.4331   24.9006  -27.8406 C   0  0  0  0  0  0  0  0  0  0  0  0
   -5.3414   25.6327  -28.8237 C   0  0  0  0  0  0  0  0  0  0  0  0
   -3.0019   21.6950  -23.5260 C   0  0  0  0  0  0  0  0  0  0  0  0
   -3.6389   21.4105  -22.5769 N   0  0  0  0  0  0  0  0  0  0  0  0
 11 12  1  0  0  0
 12 13  1  0  0  0
 13 14  1  0  0  0
 14 15  1  0  0  0
 15 16  1  0  0  0
 16 17  1  0  0  0
 15  1  1  0  0  0
  1  2  2  0  0  0
  2  3  1  0  0  0
  3  4  1  0  0  0
  4  5  2  0  0  0
  5  6  1  0  0  0
  6  7  2  0  0  0
  7  8  1  0  0  0
  8  9  2  0  0  0
  7 18  1  0  0  0
 18 19  3  0  0  0
 17 12  1  0  0  0
  9  1  1  0  0  0
  9  4  1  0  0  0
  3 10  1  0  0  0
M  END
> <minimizedAffinity>
-7.72838

> <CNNscore>
0.3881210089

> <CNNaffinity>
6.0097837448

> <CNN_VS>
2.3325233459

> <CNNaffinity_variance>
0.1586022526

$$$$
[H]c1c(C#N)c([H])c2c(C3([H])C([H])([H])C([H])([H])N(C([H])([H])[H])C([H])([H])C3([H])[H])c([H])n([H])c2c1[H]


 19 21  0  0  0  0  0  0  0  0999 V2000
   -5.0332   23.4448  -26.6904 C   0  0  0  0  0  0  0  0  0  0  0  0
   -5.8450   23.1404  -25.6153 C   0  0  0  0  0  0  0  0  0  0  0  0
   -5.1672   22.4399  -24.6788 N   0  0  0  0  0  0  0  0  0  0  0  0
   -3.9008   22.2905  -25.1457 C   0  0  0  0  0  0  0  0  0  0  0  0
   -2.7998   21.7226  -24.5189 C   0  0  0  0  0  0  0  0  0  0  0  0
   -1.5623   21.7942  -25.1733 C   0  0  0  0  0  0  0  0  0  0  0  0
   -1.4561   22.4084  -26.4059 C   0  0  0  0  0  0  0  0  0  0  0  0
   -2.5989   22.9497  -26.9791 C   0  0  0  0  0  0  0  0  0  0  0  0
   -3.8051   22.8958  -26.3629 C   0  0  0  0  0  0  0  0  0  0  0  0
   -5.5654   22.0991  -23.7913 H   0  0  0  0  0  0  0  0  0  0  0  0
   -4.0356   25.7138  -30.7733 C   0  0  0  0  0  0  0  0  0  0  0  0
   -5.2969   25.2682  -30.2417 N   0  0  0  0  0  0  0  0  0  0  0  0
   -5.5416   23.8932  -30.3521 C   0  0  0  0  0  0  0  0  0  0  0  0
   -5.7238   23.1536  -29.0646 C   0  0  0  0  0  0  0  0  0  0  0  0
   -5.4174   24.0833  -27.9247 C   0  0  0  0  0  0  0  0  0  0  0  0
   -6.2393   25.2914  -27.9603 C   0  0  0  0  0  0  0  0  0  0  0  0
   -5.9319   26.0187  -29.2655 C   0  0  0  0  0  0  0  0  0  0  0  0
   -0.1657   22.4960  -26.9879 C   0  0  0  0  0  0  0  0  0  0  0  0
    0.8959   22.5857  -27.4905 N   0  0  0  0  0  0  0  0  0  0  0  0
 11 12  1  0  0  0
 12 13  1  0  0  0
 13 14  1  0  0  0
 14 15  1  0  0  0
 15 16  1  0  0  0
 16 17  1  0  0  0
 15  1  1  0  0  0
  1  2  2  0  0  0
  2  3  1  0  0  0
  3  4  1  0  0  0
  4  5  2  0  0  0
  5  6  1  0  0  0
  6  7  2  0  0  0
  7  8  1  0  0  0
  8  9  2  0  0  0
  7 18  1  0  0  0
 18 19  3  0  0  0
 17 12  1  0  0  0
  9  1  1  0  0  0
  9  4  1  0  0  0
  3 10  1  0  0  0
M  END
> <minimizedAffinity>
-7.42527

> <CNNscore>
0.3853710890

> <CNNaffinity>
6.0062589645

> <CNN_VS>
2.3146386147

> <CNNaffinity_variance>
0.2338895500

$$$$
[H]c1c([H])c(S(=O)(=O)C([H])([H])[H])c([H])c([H])c1N([H])c1nn(C([H])([H])C2([H])C([H])([H])OC([H])([H])C2([H])[H])c2c1C([H])([H])N(C(=O)C([H])([H])[H])C([H])([H])C2([H])[H]


 30 33  0  0  0  0  0  0  0  0999 V2000
   -4.6238   24.2680  -16.3929 C   0  0  0  0  0  0  0  0  0  0  0  0
   -5.9394   23.8878  -16.9357 C   0  0  0  0  0  0  0  0  0  0  0  0
   -6.5588   24.6901  -17.6692 O   0  0  0  0  0  0  0  0  0  0  0  0
   -6.4896   22.6357  -16.6301 N   0  0  0  0  0  0  0  0  0  0  0  0
   -5.7884   21.7018  -15.7887 C   0  0  0  0  0  0  0  0  0  0  0  0
   -6.3476   20.3113  -15.8265 C   0  0  0  0  0  0  0  0  0  0  0  0
   -6.9369   19.9807  -17.1633 C   0  0  0  0  0  0  0  0  0  0  0  0
   -7.6343   20.9560  -17.7997 C   0  0  0  0  0  0  0  0  0  0  0  0
   -7.7809   22.2728  -17.1652 C   0  0  0  0  0  0  0  0  0  0  0  0
   -8.0935   20.4435  -19.0170 C   0  0  0  0  0  0  0  0  0  0  0  0
   -7.6478   19.1775  -19.0547 N   0  0  0  0  0  0  0  0  0  0  0  0
   -6.9730   18.9168  -17.9668 N   0  0  0  0  0  0  0  0  0  0  0  0
   -8.8756   21.1592  -19.9568 N   0  0  0  0  0  0  0  0  0  0  0  0
   -9.9252   20.9994  -19.8985 H   0  0  0  0  0  0  0  0  0  0  0  0
   -8.3488   22.0396  -20.9259 C   0  0  0  0  0  0  0  0  0  0  0  0
   -7.3849   21.7481  -21.8487 C   0  0  0  0  0  0  0  0  0  0  0  0
   -6.9472   22.7050  -22.7850 C   0  0  0  0  0  0  0  0  0  0  0  0
   -7.4570   23.9788  -22.8274 C   0  0  0  0  0  0  0  0  0  0  0  0
   -8.4288   24.2754  -21.8972 C   0  0  0  0  0  0  0  0  0  0  0  0
   -8.8642   23.3555  -20.9815 C   0  0  0  0  0  0  0  0  0  0  0  0
   -6.9176   25.1682  -23.9859 S   0  0  0  0  0  0  0  0  0  0  0  0
   -5.1533   25.0382  -24.1061 C   0  0  0  0  0  0  0  0  0  0  0  0
   -7.2288   26.5687  -23.5307 O   0  0  0  0  0  0  0  0  0  0  0  0
   -7.5973   24.9552  -25.3018 O   0  0  0  0  0  0  0  0  0  0  0  0
   -6.3451   17.6469  -17.6638 C   0  0  0  0  0  0  0  0  0  0  0  0
   -6.7640   16.6604  -18.7449 C   0  0  0  0  0  0  0  0  0  0  0  0
   -7.6649   15.6374  -18.0688 C   0  0  0  0  0  0  0  0  0  0  0  0
   -6.7561   14.4385  -17.9616 C   0  0  0  0  0  0  0  0  0  0  0  0
   -6.0447   14.5032  -19.1762 O   0  0  0  0  0  0  0  0  0  0  0  0
   -5.6132   15.8285  -19.2153 C   0  0  0  0  0  0  0  0  0  0  0  0
  1  2  1  0  0  0
  2  3  2  0  0  0
  2  4  1  0  0  0
  4  5  1  0  0  0
  5  6  1  0  0  0
  6  7  1  0  0  0
  7  8  2  0  0  0
  8  9  1  0  0  0
  8 10  1  0  0  0
 10 13  1  0  0  0
 13 15  1  0  0  0
 15 16  2  0  0  0
 16 17  1  0  0  0
 17 18  2  0  0  0
 18 19  1  0  0  0
 19 20  2  0  0  0
 18 21  1  0  0  0
 21 22  1  0  0  0
 21 23  2  0  0  0
 21 24  2  0  0  0
 10 11  2  0  0  0
 11 12  1  0  0  0
 12 25  1  0  0  0
 25 26  1  0  0  0
 26 27  1  0  0  0
 27 28  1  0  0  0
 28 29  1  0  0  0
 29 30  1  0  0  0
  9  4  1  0  0  0
 20 15  1  0  0  0
 30 26  1  0  0  0
 12  7  1  0  0  0
 13 14  1  0  0  0
M  END
> <minimizedAffinity>
-6.04260

> <CNNscore>
0.1568553150

> <CNNaffinity>
5.2183485031

> <CNN_VS>
0.8185256720

> <CNNaffinity_variance>
0.1611658186

$$$$
[H]c1c([H])c(S(=O)(=O)C([H])([H])[H])c([H])c([H])c1N([H])c1nn(C([H])([H])C2([H])C([H])([H])OC([H])([H])C2([H])[H])c2c1C([H])([H])N(C(=O)C([H])([H])[H])C([H])([H])C2([H])[H]


 30 33  0  0  0  0  0  0  0  0999 V2000
   -7.3013   23.7549  -22.5563 C   0  0  0  0  0  0  0  0  0  0  0  0
   -6.3897   22.9056  -23.3422 C   0  0  0  0  0  0  0  0  0  0  0  0
   -6.5321   22.8318  -24.5831 O   0  0  0  0  0  0  0  0  0  0  0  0
   -5.3717   22.1872  -22.7008 N   0  0  0  0  0  0  0  0  0  0  0  0
   -5.1947   22.2629  -21.2743 C   0  0  0  0  0  0  0  0  0  0  0  0
   -3.8870   21.7094  -20.7939 C   0  0  0  0  0  0  0  0  0  0  0  0
   -2.7947   21.8988  -21.8013 C   0  0  0  0  0  0  0  0  0  0  0  0
   -3.1101   21.7203  -23.1094 C   0  0  0  0  0  0  0  0  0  0  0  0
   -4.4842   21.3557  -23.4794 C   0  0  0  0  0  0  0  0  0  0  0  0
   -1.9594   21.9426  -23.8722 C   0  0  0  0  0  0  0  0  0  0  0  0
   -1.0017   22.2459  -22.9814 N   0  0  0  0  0  0  0  0  0  0  0  0
   -1.5000   22.2177  -21.7740 N   0  0  0  0  0  0  0  0  0  0  0  0
   -1.8863   21.8348  -25.2829 N   0  0  0  0  0  0  0  0  0  0  0  0
   -1.2490   21.0684  -25.6533 H   0  0  0  0  0  0  0  0  0  0  0  0
   -2.5918   22.6619  -26.1829 C   0  0  0  0  0  0  0  0  0  0  0  0
   -3.3896   23.7215  -25.8565 C   0  0  0  0  0  0  0  0  0  0  0  0
   -4.0329   24.4919  -26.8447 C   0  0  0  0  0  0  0  0  0  0  0  0
   -3.8998   24.2277  -28.1852 C   0  0  0  0  0  0  0  0  0  0  0  0
   -3.0963   23.1590  -28.5168 C   0  0  0  0  0  0  0  0  0  0  0  0
   -2.4646   22.4016  -27.5672 C   0  0  0  0  0  0  0  0  0  0  0  0
   -4.6951   25.1796  -29.4135 S   0  0  0  0  0  0  0  0  0  0  0  0
   -5.5729   24.0618  -30.4738 C   0  0  0  0  0  0  0  0  0  0  0  0
   -3.7045   25.9191  -30.2721 O   0  0  0  0  0  0  0  0  0  0  0  0
   -5.5958   26.1934  -28.7811 O   0  0  0  0  0  0  0  0  0  0  0  0
   -0.7553   22.4933  -20.5622 C   0  0  0  0  0  0  0  0  0  0  0  0
    0.3273   21.4302  -20.4391 C   0  0  0  0  0  0  0  0  0  0  0  0
   -0.3218   20.2307  -19.7646 C   0  0  0  0  0  0  0  0  0  0  0  0
    0.2359   20.3151  -18.3658 C   0  0  0  0  0  0  0  0  0  0  0  0
    1.5583   20.7393  -18.6049 O   0  0  0  0  0  0  0  0  0  0  0  0
    1.3876   21.8265  -19.4611 C   0  0  0  0  0  0  0  0  0  0  0  0
  1  2  1  0  0  0
  2  3  2  0  0  0
  2  4  1  0  0  0
  4  5  1  0  0  0
  5  6  1  0  0  0
  6  7  1  0  0  0
  7  8  2  0  0  0
  8  9  1  0  0  0
  8 10  1  0  0  0
 10 13  1  0  0  0
 13 15  1  0  0  0
 15 16  2  0  0  0
 16 17  1  0  0  0
 17 18  2  0  0  0
 18 19  1  0  0  0
 19 20  2  0  0  0
 18 21  1  0  0  0
 21 22  1  0  0  0
 21 23  2  0  0  0
 21 24  2  0  0  0
 10 11  2  0  0  0
 11 12  1  0  0  0
 12 25  1  0  0  0
 25 26  1  0  0  0
 26 27  1  0  0  0
 27 28  1  0  0  0
 28 29  1  0  0  0
 29 30  1  0  0  0
  9  4  1  0  0  0
 20 15  1  0  0  0
 30 26  1  0  0  0
 12  7  1  0  0  0
 13 14  1  0  0  0
M  END
> <minimizedAffinity>
-7.83923

> <CNNscore>
0.1464604139

> <CNNaffinity>
6.1383266449

> <CNN_VS>
0.8990218639

> <CNNaffinity_variance>
0.0223448183

$$$$
[H]c1c([H])c(S(=O)(=O)C([H])([H])[H])c([H])c([H])c1N([H])c1nn(C([H])([H])C2([H])C([H])([H])OC([H])([H])C2([H])[H])c2c1C([H])([H])N(C(=O)C([H])([H])[H])C([H])([H])C2([H])[H]


 30 33  0  0  0  0  0  0  0  0999 V2000
   -6.3849   23.9630  -23.7994 C   0  0  0  0  0  0  0  0  0  0  0  0
   -5.0855   23.3658  -23.4456 C   0  0  0  0  0  0  0  0  0  0  0  0
   -4.0751   23.6373  -24.1319 O   0  0  0  0  0  0  0  0  0  0  0  0
   -4.9862   22.5006  -22.3478 N   0  0  0  0  0  0  0  0  0  0  0  0
   -6.1393   22.1798  -21.5483 C   0  0  0  0  0  0  0  0  0  0  0  0
   -5.8097   21.5182  -20.2441 C   0  0  0  0  0  0  0  0  0  0  0  0
   -4.4938   21.9810  -19.6981 C   0  0  0  0  0  0  0  0  0  0  0  0
   -3.4801   22.1699  -20.5808 C   0  0  0  0  0  0  0  0  0  0  0  0
   -3.7085   21.9185  -22.0100 C   0  0  0  0  0  0  0  0  0  0  0  0
   -2.3539   22.5969  -19.8704 C   0  0  0  0  0  0  0  0  0  0  0  0
   -2.7464   22.6446  -18.5872 N   0  0  0  0  0  0  0  0  0  0  0  0
   -3.9985   22.2829  -18.4971 N   0  0  0  0  0  0  0  0  0  0  0  0
   -1.0910   22.8831  -20.4449 N   0  0  0  0  0  0  0  0  0  0  0  0
   -1.1149   23.3903  -21.3792 H   0  0  0  0  0  0  0  0  0  0  0  0
    0.1468   22.5421  -19.8588 C   0  0  0  0  0  0  0  0  0  0  0  0
    0.9469   21.4909  -20.2058 C   0  0  0  0  0  0  0  0  0  0  0  0
    2.1771   21.2566  -19.5612 C   0  0  0  0  0  0  0  0  0  0  0  0
    2.6439   22.0625  -18.5528 C   0  0  0  0  0  0  0  0  0  0  0  0
    1.8383   23.1230  -18.2005 C   0  0  0  0  0  0  0  0  0  0  0  0
    0.6404   23.3632  -18.8183 C   0  0  0  0  0  0  0  0  0  0  0  0
    4.1679   21.7761  -17.7509 S   0  0  0  0  0  0  0  0  0  0  0  0
    5.4471   22.4622  -18.7692 C   0  0  0  0  0  0  0  0  0  0  0  0
    4.4544   20.3052  -17.6102 O   0  0  0  0  0  0  0  0  0  0  0  0
    4.1505   22.3702  -16.3776 O   0  0  0  0  0  0  0  0  0  0  0  0
   -4.7562   22.2149  -17.2641 C   0  0  0  0  0  0  0  0  0  0  0  0
   -4.6672   23.5804  -16.5970 C   0  0  0  0  0  0  0  0  0  0  0  0
   -4.8858   23.3478  -15.1093 C   0  0  0  0  0  0  0  0  0  0  0  0
   -6.2955   23.8476  -14.9155 C   0  0  0  0  0  0  0  0  0  0  0  0
   -6.3285   24.9653  -15.7730 O   0  0  0  0  0  0  0  0  0  0  0  0
   -5.8209   24.4572  -16.9681 C   0  0  0  0  0  0  0  0  0  0  0  0
  1  2  1  0  0  0
  2  3  2  0  0  0
  2  4  1  0  0  0
  4  5  1  0  0  0
  5  6  1  0  0  0
  6  7  1  0  0  0
  7  8  2  0  0  0
  8  9  1  0  0  0
  8 10  1  0  0  0
 10 13  1  0  0  0
 13 15  1  0  0  0
 15 16  2  0  0  0
 16 17  1  0  0  0
 17 18  2  0  0  0
 18 19  1  0  0  0
 19 20  2  0  0  0
 18 21  1  0  0  0
 21 22  1  0  0  0
 21 23  2  0  0  0
 21 24  2  0  0  0
 10 11  2  0  0  0
 11 12  1  0  0  0
 12 25  1  0  0  0
 25 26  1  0  0  0
 26 27  1  0  0  0
 27 28  1  0  0  0
 28 29  1  0  0  0
 29 30  1  0  0  0
  9  4  1  0  0  0
 20 15  1  0  0  0
 30 26  1  0  0  0
 12  7  1  0  0  0
 13 14  1  0  0  0
M  END
> <minimizedAffinity>
-5.54369

> <CNNscore>
0.1358206570

> <CNNaffinity>
5.4005293846

> <CNN_VS>
0.7335034609

> <CNNaffinity_variance>
0.3430042863

$$$$
[H]c1c([H])c(S(=O)(=O)C([H])([H])[H])c([H])c([H])c1N([H])c1nn(C([H])([H])C2([H])C([H])([H])OC([H])([H])C2([H])[H])c2c1C([H])([H])N(C(=O)C([H])([H])[H])C([H])([H])C2([H])[H]


 30 33  0  0  0  0  0  0  0  0999 V2000
   -4.4863   27.2463  -25.3378 C   0  0  0  0  0  0  0  0  0  0  0  0
   -4.7916   25.8119  -25.4777 C   0  0  0  0  0  0  0  0  0  0  0  0
   -3.9924   25.0685  -26.0893 O   0  0  0  0  0  0  0  0  0  0  0  0
   -5.9695   25.2881  -24.9283 N   0  0  0  0  0  0  0  0  0  0  0  0
   -6.8978   26.1307  -24.2211 C   0  0  0  0  0  0  0  0  0  0  0  0
   -7.9212   25.3754  -23.4276 C   0  0  0  0  0  0  0  0  0  0  0  0
   -7.3828   24.0764  -22.9115 C   0  0  0  0  0  0  0  0  0  0  0  0
   -6.5728   23.3622  -23.7339 C   0  0  0  0  0  0  0  0  0  0  0  0
   -6.2612   23.8812  -25.0724 C   0  0  0  0  0  0  0  0  0  0  0  0
   -6.1859   22.1969  -23.0648 C   0  0  0  0  0  0  0  0  0  0  0  0
   -6.7851   22.2664  -21.8652 N   0  0  0  0  0  0  0  0  0  0  0  0
   -7.4822   23.3685  -21.7855 N   0  0  0  0  0  0  0  0  0  0  0  0
   -5.3505   21.1886  -23.6055 N   0  0  0  0  0  0  0  0  0  0  0  0
   -5.7959   20.2286  -23.7087 H   0  0  0  0  0  0  0  0  0  0  0  0
   -4.0103   21.3905  -23.9990 C   0  0  0  0  0  0  0  0  0  0  0  0
   -3.5564   21.5619  -25.2758 C   0  0  0  0  0  0  0  0  0  0  0  0
   -2.1916   21.7758  -25.5505 C   0  0  0  0  0  0  0  0  0  0  0  0
   -1.2413   21.8242  -24.5612 C   0  0  0  0  0  0  0  0  0  0  0  0
   -1.6966   21.6508  -23.2726 C   0  0  0  0  0  0  0  0  0  0  0  0
   -3.0200   21.4423  -22.9906 C   0  0  0  0  0  0  0  0  0  0  0  0
    0.4513   22.0890  -24.8968 S   0  0  0  0  0  0  0  0  0  0  0  0
    1.3817   21.3366  -23.5882 C   0  0  0  0  0  0  0  0  0  0  0  0
    0.7951   23.5543  -24.8992 O   0  0  0  0  0  0  0  0  0  0  0  0
    0.8057   21.5357  -26.2411 O   0  0  0  0  0  0  0  0  0  0  0  0
   -8.2618   23.7761  -20.6345 C   0  0  0  0  0  0  0  0  0  0  0  0
   -9.4726   22.8569  -20.5537 C   0  0  0  0  0  0  0  0  0  0  0  0
  -10.6995   23.7504  -20.6614 C   0  0  0  0  0  0  0  0  0  0  0  0
  -11.1940   23.7805  -19.2368 C   0  0  0  0  0  0  0  0  0  0  0  0
  -10.9480   22.4585  -18.8155 O   0  0  0  0  0  0  0  0  0  0  0  0
   -9.6220   22.2517  -19.1939 C   0  0  0  0  0  0  0  0  0  0  0  0
  1  2  1  0  0  0
  2  3  2  0  0  0
  2  4  1  0  0  0
  4  5  1  0  0  0
  5  6  1  0  0  0
  6  7  1  0  0  0
  7  8  2  0  0  0
  8  9  1  0  0  0
  8 10  1  0  0  0
 10 13  1  0  0  0
 13 15  1  0  0  0
 15 16  2  0  0  0
 16 17  1  0  0  0
 17 18  2  0  0  0
 18 19  1  0  0  0
 19 20  2  0  0  0
 18 21  1  0  0  0
 21 22  1  0  0  0
 21 23  2  0  0  0
 21 24  2  0  0  0
 10 11  2  0  0  0
 11 12  1  0  0  0
 12 25  1  0  0  0
 25 26  1  0  0  0
 26 27  1  0  0  0
 27 28  1  0  0  0
 28 29  1  0  0  0
 29 30  1  0  0  0
  9  4  1  0  0  0
 20 15  1  0  0  0
 30 26  1  0  0  0
 12  7  1  0  0  0
 13 14  1  0  0  0
M  END
> <minimizedAffinity>
-7.72734

> <CNNscore>
0.1252296865

> <CNNaffinity>
5.6349115372

> <CNN_VS>
0.7056581974

> <CNNaffinity_variance>
0.1878878027

$$$$
[H]c1c([H])c(S(=O)(=O)C([H])([H])[H])c([H])c([H])c1N([H])c1nn(C([H])([H])C2([H])C([H])([H])OC([H])([H])C2([H])[H])c2c1C([H])([H])N(C(=O)C([H])([H])[H])C([H])([H])C2([H])[H]


 30 33  0  0  0  0  0  0  0  0999 V2000
    0.5294   22.0519  -24.7634 C   0  0  0  0  0  0  0  0  0  0  0  0
   -0.8495   22.4311  -24.4098 C   0  0  0  0  0  0  0  0  0  0  0  0
   -1.1253   22.7161  -23.2232 O   0  0  0  0  0  0  0  0  0  0  0  0
   -1.8420   22.4711  -25.3984 N   0  0  0  0  0  0  0  0  0  0  0  0
   -1.5396   22.1470  -26.7678 C   0  0  0  0  0  0  0  0  0  0  0  0
   -2.6097   22.5485  -27.7379 C   0  0  0  0  0  0  0  0  0  0  0  0
   -3.3364   23.7802  -27.2921 C   0  0  0  0  0  0  0  0  0  0  0  0
   -3.6104   23.9021  -25.9683 C   0  0  0  0  0  0  0  0  0  0  0  0
   -3.1913   22.8420  -25.0417 C   0  0  0  0  0  0  0  0  0  0  0  0
   -4.2858   25.1103  -25.7697 C   0  0  0  0  0  0  0  0  0  0  0  0
   -4.3862   25.6602  -26.9905 N   0  0  0  0  0  0  0  0  0  0  0  0
   -3.8284   24.8752  -27.8732 N   0  0  0  0  0  0  0  0  0  0  0  0
   -4.7537   25.5837  -24.5192 N   0  0  0  0  0  0  0  0  0  0  0  0
   -4.6547   26.6300  -24.3571 H   0  0  0  0  0  0  0  0  0  0  0  0
   -5.3231   24.7658  -23.5199 C   0  0  0  0  0  0  0  0  0  0  0  0
   -4.8585   24.5975  -22.2466 C   0  0  0  0  0  0  0  0  0  0  0  0
   -5.5222   23.7662  -21.3234 C   0  0  0  0  0  0  0  0  0  0  0  0
   -6.6667   23.0791  -21.6433 C   0  0  0  0  0  0  0  0  0  0  0  0
   -7.1369   23.2467  -22.9273 C   0  0  0  0  0  0  0  0  0  0  0  0
   -6.5024   24.0515  -23.8351 C   0  0  0  0  0  0  0  0  0  0  0  0
   -7.4927   22.0476  -20.5026 S   0  0  0  0  0  0  0  0  0  0  0  0
   -8.1674   23.0847  -19.2324 C   0  0  0  0  0  0  0  0  0  0  0  0
   -6.5458   21.0873  -19.8343 O   0  0  0  0  0  0  0  0  0  0  0  0
   -8.5429   21.2411  -21.1996 O   0  0  0  0  0  0  0  0  0  0  0  0
   -3.7497   25.1474  -29.2940 C   0  0  0  0  0  0  0  0  0  0  0  0
   -5.1586   25.4603  -29.7782 C   0  0  0  0  0  0  0  0  0  0  0  0
   -5.8767   24.1249  -29.9053 C   0  0  0  0  0  0  0  0  0  0  0  0
   -5.8963   23.9179  -31.3991 C   0  0  0  0  0  0  0  0  0  0  0  0
   -6.1186   25.2269  -31.8713 O   0  0  0  0  0  0  0  0  0  0  0  0
   -5.1630   25.9736  -31.1833 C   0  0  0  0  0  0  0  0  0  0  0  0
  1  2  1  0  0  0
  2  3  2  0  0  0
  2  4  1  0  0  0
  4  5  1  0  0  0
  5  6  1  0  0  0
  6  7  1  0  0  0
  7  8  2  0  0  0
  8  9  1  0  0  0
  8 10  1  0  0  0
 10 13  1  0  0  0
 13 15  1  0  0  0
 15 16  2  0  0  0
 16 17  1  0  0  0
 17 18  2  0  0  0
 18 19  1  0  0  0
 19 20  2  0  0  0
 18 21  1  0  0  0
 21 22  1  0  0  0
 21 23  2  0  0  0
 21 24  2  0  0  0
 10 11  2  0  0  0
 11 12  1  0  0  0
 12 25  1  0  0  0
 25 26  1  0  0  0
 26 27  1  0  0  0
 27 28  1  0  0  0
 28 29  1  0  0  0
 29 30  1  0  0  0
  9  4  1  0  0  0
 20 15  1  0  0  0
 30 26  1  0  0  0
 12  7  1  0  0  0
 13 14  1  0  0  0
M  END
> <minimizedAffinity>
-8.63426

> <CNNscore>
0.1165390462

> <CNNaffinity>
6.3758645058

> <CNN_VS>
0.7430371642

> <CNNaffinity_variance>
0.1040879935

$$$$
[H]c1c([H])c(S(=O)(=O)C([H])([H])[H])c([H])c([H])c1N([H])c1nn(C([H])([H])C2([H])C([H])([H])OC([H])([H])C2([H])[H])c2c1C([H])([H])N(C(=O)C([H])([H])[H])C([H])([H])C2([H])[H]


 30 33  0  0  0  0  0  0  0  0999 V2000
   -5.3166   22.6602  -30.0502 C   0  0  0  0  0  0  0  0  0  0  0  0
   -5.3131   23.5106  -28.8473 C   0  0  0  0  0  0  0  0  0  0  0  0
   -6.3670   24.0862  -28.4963 O   0  0  0  0  0  0  0  0  0  0  0  0
   -4.1357   23.6708  -28.1044 N   0  0  0  0  0  0  0  0  0  0  0  0
   -2.9159   23.0141  -28.4951 C   0  0  0  0  0  0  0  0  0  0  0  0
   -1.8552   23.0219  -27.4357 C   0  0  0  0  0  0  0  0  0  0  0  0
   -2.4402   22.9872  -26.0572 C   0  0  0  0  0  0  0  0  0  0  0  0
   -3.5589   23.7223  -25.8319 C   0  0  0  0  0  0  0  0  0  0  0  0
   -4.1416   24.5081  -26.9279 C   0  0  0  0  0  0  0  0  0  0  0  0
   -3.9348   23.5507  -24.4960 C   0  0  0  0  0  0  0  0  0  0  0  0
   -3.0191   22.7158  -23.9789 N   0  0  0  0  0  0  0  0  0  0  0  0
   -2.1501   22.3924  -24.8993 N   0  0  0  0  0  0  0  0  0  0  0  0
   -5.0483   24.1721  -23.8789 N   0  0  0  0  0  0  0  0  0  0  0  0
   -5.4651   24.9967  -24.4052 H   0  0  0  0  0  0  0  0  0  0  0  0
   -5.6085   23.7639  -22.6495 C   0  0  0  0  0  0  0  0  0  0  0  0
   -5.2417   24.1966  -21.4069 C   0  0  0  0  0  0  0  0  0  0  0  0
   -5.8871   23.7322  -20.2443 C   0  0  0  0  0  0  0  0  0  0  0  0
   -6.9151   22.8235  -20.2873 C   0  0  0  0  0  0  0  0  0  0  0  0
   -7.2862   22.3850  -21.5394 C   0  0  0  0  0  0  0  0  0  0  0  0
   -6.6683   22.8278  -22.6780 C   0  0  0  0  0  0  0  0  0  0  0  0
   -7.7179   22.2449  -18.8491 S   0  0  0  0  0  0  0  0  0  0  0  0
   -9.2606   21.5270  -19.3480 C   0  0  0  0  0  0  0  0  0  0  0  0
   -8.0382   23.3690  -17.9008 O   0  0  0  0  0  0  0  0  0  0  0  0
   -6.8430   21.2719  -18.1232 O   0  0  0  0  0  0  0  0  0  0  0  0
   -1.0199   21.5082  -24.6996 C   0  0  0  0  0  0  0  0  0  0  0  0
   -0.1495   22.1179  -23.6096 C   0  0  0  0  0  0  0  0  0  0  0  0
    1.2565   22.2120  -24.1836 C   0  0  0  0  0  0  0  0  0  0  0  0
    1.9605   21.0777  -23.4817 C   0  0  0  0  0  0  0  0  0  0  0  0
    1.3959   21.1384  -22.1921 O   0  0  0  0  0  0  0  0  0  0  0  0
    0.0269   21.1866  -22.4523 C   0  0  0  0  0  0  0  0  0  0  0  0
  1  2  1  0  0  0
  2  3  2  0  0  0
  2  4  1  0  0  0
  4  5  1  0  0  0
  5  6  1  0  0  0
  6  7  1  0  0  0
  7  8  2  0  0  0
  8  9  1  0  0  0
  8 10  1  0  0  0
 10 13  1  0  0  0
 13 15  1  0  0  0
 15 16  2  0  0  0
 16 17  1  0  0  0
 17 18  2  0  0  0
 18 19  1  0  0  0
 19 20  2  0  0  0
 18 21  1  0  0  0
 21 22  1  0  0  0
 21 23  2  0  0  0
 21 24  2  0  0  0
 10 11  2  0  0  0
 11 12  1  0  0  0
 12 25  1  0  0  0
 25 26  1  0  0  0
 26 27  1  0  0  0
 27 28  1  0  0  0
 28 29  1  0  0  0
 29 30  1  0  0  0
  9  4  1  0  0  0
 20 15  1  0  0  0
 30 26  1  0  0  0
 12  7  1  0  0  0
 13 14  1  0  0  0
M  END
> <minimizedAffinity>
-7.64062

> <CNNscore>
0.1136291176

> <CNNaffinity>
6.3930916786

> <CNN_VS>
0.7264413834

> <CNNaffinity_variance>
0.1170438305

$$$$
[H]c1c([H])c(S(=O)(=O)C([H])([H])[H])c([H])c([H])c1N([H])c1nn(C([H])([H])C2([H])C([H])([H])OC([H])([H])C2([H])[H])c2c1C([H])([H])N(C(=O)C([H])([H])[H])C([H])([H])C2([H])[H]


 30 33  0  0  0  0  0  0  0  0999 V2000
   -5.4809   23.1118  -30.4106 C   0  0  0  0  0  0  0  0  0  0  0  0
   -5.3430   24.0988  -29.3258 C   0  0  0  0  0  0  0  0  0  0  0  0
   -6.2407   24.9527  -29.1515 O   0  0  0  0  0  0  0  0  0  0  0  0
   -4.2129   24.0779  -28.4973 N   0  0  0  0  0  0  0  0  0  0  0  0
   -3.1726   23.1010  -28.6848 C   0  0  0  0  0  0  0  0  0  0  0  0
   -2.2136   23.0064  -27.5364 C   0  0  0  0  0  0  0  0  0  0  0  0
   -2.8760   23.3081  -26.2273 C   0  0  0  0  0  0  0  0  0  0  0  0
   -3.7884   24.3128  -26.2029 C   0  0  0  0  0  0  0  0  0  0  0  0
   -4.0856   25.0509  -27.4378 C   0  0  0  0  0  0  0  0  0  0  0  0
   -4.2801   24.4271  -24.8988 C   0  0  0  0  0  0  0  0  0  0  0  0
   -3.6362   23.4804  -24.1974 N   0  0  0  0  0  0  0  0  0  0  0  0
   -2.8179   22.8320  -24.9828 N   0  0  0  0  0  0  0  0  0  0  0  0
   -5.2410   25.3769  -24.4730 N   0  0  0  0  0  0  0  0  0  0  0  0
   -5.2010   26.3216  -24.9595 H   0  0  0  0  0  0  0  0  0  0  0  0
   -6.2103   25.1376  -23.4755 C   0  0  0  0  0  0  0  0  0  0  0  0
   -5.9694   24.7959  -22.1752 C   0  0  0  0  0  0  0  0  0  0  0  0
   -7.0200   24.5991  -21.2579 C   0  0  0  0  0  0  0  0  0  0  0  0
   -8.3394   24.7366  -21.6107 C   0  0  0  0  0  0  0  0  0  0  0  0
   -8.5849   25.0804  -22.9219 C   0  0  0  0  0  0  0  0  0  0  0  0
   -7.5740   25.2752  -23.8244 C   0  0  0  0  0  0  0  0  0  0  0  0
   -9.6449   24.4936  -20.4774 S   0  0  0  0  0  0  0  0  0  0  0  0
  -10.5761   26.0006  -20.4008 C   0  0  0  0  0  0  0  0  0  0  0  0
   -9.1322   24.2183  -19.0893 O   0  0  0  0  0  0  0  0  0  0  0  0
  -10.4819   23.3253  -20.8940 O   0  0  0  0  0  0  0  0  0  0  0  0
   -1.9587   21.7417  -24.5681 C   0  0  0  0  0  0  0  0  0  0  0  0
   -0.8946   22.3230  -23.6476 C   0  0  0  0  0  0  0  0  0  0  0  0
    0.3406   22.5498  -24.5067 C   0  0  0  0  0  0  0  0  0  0  0  0
    1.2357   21.4139  -24.0787 C   0  0  0  0  0  0  0  0  0  0  0  0
    0.9732   21.3417  -22.6961 O   0  0  0  0  0  0  0  0  0  0  0  0
   -0.4200   21.3211  -22.6433 C   0  0  0  0  0  0  0  0  0  0  0  0
  1  2  1  0  0  0
  2  3  2  0  0  0
  2  4  1  0  0  0
  4  5  1  0  0  0
  5  6  1  0  0  0
  6  7  1  0  0  0
  7  8  2  0  0  0
  8  9  1  0  0  0
  8 10  1  0  0  0
 10 13  1  0  0  0
 13 15  1  0  0  0
 15 16  2  0  0  0
 16 17  1  0  0  0
 17 18  2  0  0  0
 18 19  1  0  0  0
 19 20  2  0  0  0
 18 21  1  0  0  0
 21 22  1  0  0  0
 21 23  2  0  0  0
 21 24  2  0  0  0
 10 11  2  0  0  0
 11 12  1  0  0  0
 12 25  1  0  0  0
 25 26  1  0  0  0
 26 27  1  0  0  0
 27 28  1  0  0  0
 28 29  1  0  0  0
 29 30  1  0  0  0
  9  4  1  0  0  0
 20 15  1  0  0  0
 30 26  1  0  0  0
 12  7  1  0  0  0
 13 14  1  0  0  0
M  END
> <minimizedAffinity>
-8.25454

> <CNNscore>
0.1109863520

> <CNNaffinity>
6.4063272476

> <CNN_VS>
0.7110148668

> <CNNaffinity_variance>
0.1008432508

$$$$
[H]c1c([H])c(S(=O)(=O)C([H])([H])[H])c([H])c([H])c1N([H])c1nn(C([H])([H])C2([H])C([H])([H])OC([H])([H])C2([H])[H])c2c1C([H])([H])N(C(=O)C([H])([H])[H])C([H])([H])C2([H])[H]


 30 33  0  0  0  0  0  0  0  0999 V2000
   -2.3707   21.5619  -24.9656 C   0  0  0  0  0  0  0  0  0  0  0  0
   -2.8550   22.9293  -24.7094 C   0  0  0  0  0  0  0  0  0  0  0  0
   -2.9692   23.7316  -25.6627 O   0  0  0  0  0  0  0  0  0  0  0  0
   -3.1843   23.3247  -23.4058 N   0  0  0  0  0  0  0  0  0  0  0  0
   -3.0592   22.4127  -22.2993 C   0  0  0  0  0  0  0  0  0  0  0  0
   -3.7486   22.8741  -21.0506 C   0  0  0  0  0  0  0  0  0  0  0  0
   -4.9693   23.6880  -21.3528 C   0  0  0  0  0  0  0  0  0  0  0  0
   -4.9008   24.5593  -22.3914 C   0  0  0  0  0  0  0  0  0  0  0  0
   -3.6562   24.6679  -23.1643 C   0  0  0  0  0  0  0  0  0  0  0  0
   -6.1335   25.2105  -22.4995 C   0  0  0  0  0  0  0  0  0  0  0  0
   -6.8886   24.6967  -21.5153 N   0  0  0  0  0  0  0  0  0  0  0  0
   -6.1991   23.8079  -20.8510 N   0  0  0  0  0  0  0  0  0  0  0  0
   -6.4453   26.2061  -23.4579 N   0  0  0  0  0  0  0  0  0  0  0  0
   -6.9274   27.0747  -23.0787 H   0  0  0  0  0  0  0  0  0  0  0  0
   -6.1565   26.1042  -24.8356 C   0  0  0  0  0  0  0  0  0  0  0  0
   -5.2165   26.8181  -25.5228 C   0  0  0  0  0  0  0  0  0  0  0  0
   -5.0008   26.6185  -26.9003 C   0  0  0  0  0  0  0  0  0  0  0  0
   -5.7159   25.7029  -27.6314 C   0  0  0  0  0  0  0  0  0  0  0  0
   -6.6652   24.9822  -26.9406 C   0  0  0  0  0  0  0  0  0  0  0  0
   -6.8856   25.1652  -25.6018 C   0  0  0  0  0  0  0  0  0  0  0  0
   -5.4522   25.4521  -29.3388 S   0  0  0  0  0  0  0  0  0  0  0  0
   -3.7013   25.3580  -29.6029 C   0  0  0  0  0  0  0  0  0  0  0  0
   -5.9621   26.6087  -30.1559 O   0  0  0  0  0  0  0  0  0  0  0  0
   -6.1664   24.2200  -29.7979 O   0  0  0  0  0  0  0  0  0  0  0  0
   -6.6938   23.0495  -19.7200 C   0  0  0  0  0  0  0  0  0  0  0  0
   -7.1911   21.7115  -20.2492 C   0  0  0  0  0  0  0  0  0  0  0  0
   -8.6888   21.6733  -19.9837 C   0  0  0  0  0  0  0  0  0  0  0  0
   -8.7775   20.7295  -18.8106 C   0  0  0  0  0  0  0  0  0  0  0  0
   -7.7891   19.7768  -19.1284 O   0  0  0  0  0  0  0  0  0  0  0  0
   -6.6809   20.5662  -19.4334 C   0  0  0  0  0  0  0  0  0  0  0  0
  1  2  1  0  0  0
  2  3  2  0  0  0
  2  4  1  0  0  0
  4  5  1  0  0  0
  5  6  1  0  0  0
  6  7  1  0  0  0
  7  8  2  0  0  0
  8  9  1  0  0  0
  8 10  1  0  0  0
 10 13  1  0  0  0
 13 15  1  0  0  0
 15 16  2  0  0  0
 16 17  1  0  0  0
 17 18  2  0  0  0
 18 19  1  0  0  0
 19 20  2  0  0  0
 18 21  1  0  0  0
 21 22  1  0  0  0
 21 23  2  0  0  0
 21 24  2  0  0  0
 10 11  2  0  0  0
 11 12  1  0  0  0
 12 25  1  0  0  0
 25 26  1  0  0  0
 26 27  1  0  0  0
 27 28  1  0  0  0
 28 29  1  0  0  0
 29 30  1  0  0  0
  9  4  1  0  0  0
 20 15  1  0  0  0
 30 26  1  0  0  0
 12  7  1  0  0  0
 13 14  1  0  0  0
M  END
> <minimizedAffinity>
-7.94826

> <CNNscore>
0.1088001430

> <CNNaffinity>
5.9671149254

> <CNN_VS>
0.6492229700

> <CNNaffinity_variance>
0.0628235787

$$$$
[H]c1c([H])c(S(=O)(=O)C([H])([H])[H])c([H])c([H])c1N([H])c1nn(C([H])([H])C2([H])C([H])([H])OC([H])([H])C2([H])[H])c2c1C([H])([H])N(C(=O)C([H])([H])[H])C([H])([H])C2([H])[H]


 30 33  0  0  0  0  0  0  0  0999 V2000
    0.8202   22.1778  -25.8209 C   0  0  0  0  0  0  0  0  0  0  0  0
   -0.5444   21.8929  -25.3446 C   0  0  0  0  0  0  0  0  0  0  0  0
   -0.7148   21.4694  -24.1797 O   0  0  0  0  0  0  0  0  0  0  0  0
   -1.6408   22.0960  -26.1934 N   0  0  0  0  0  0  0  0  0  0  0  0
   -1.4605   22.5838  -27.5356 C   0  0  0  0  0  0  0  0  0  0  0  0
   -2.7271   23.0506  -28.1878 C   0  0  0  0  0  0  0  0  0  0  0  0
   -3.6915   23.6215  -27.1939 C   0  0  0  0  0  0  0  0  0  0  0  0
   -3.7959   22.9987  -25.9923 C   0  0  0  0  0  0  0  0  0  0  0  0
   -2.9745   21.8120  -25.7183 C   0  0  0  0  0  0  0  0  0  0  0  0
   -4.7405   23.6853  -25.2232 C   0  0  0  0  0  0  0  0  0  0  0  0
   -5.1613   24.6938  -26.0033 N   0  0  0  0  0  0  0  0  0  0  0  0
   -4.5422   24.6478  -27.1529 N   0  0  0  0  0  0  0  0  0  0  0  0
   -5.1360   23.3263  -23.9111 N   0  0  0  0  0  0  0  0  0  0  0  0
   -6.1829   23.2173  -23.7597 H   0  0  0  0  0  0  0  0  0  0  0  0
   -4.2425   23.1136  -22.8396 C   0  0  0  0  0  0  0  0  0  0  0  0
   -4.3424   22.1478  -21.8789 C   0  0  0  0  0  0  0  0  0  0  0  0
   -3.3764   22.0164  -20.8623 C   0  0  0  0  0  0  0  0  0  0  0  0
   -2.2847   22.8438  -20.7742 C   0  0  0  0  0  0  0  0  0  0  0  0
   -2.1821   23.8192  -21.7415 C   0  0  0  0  0  0  0  0  0  0  0  0
   -3.1131   23.9586  -22.7356 C   0  0  0  0  0  0  0  0  0  0  0  0
   -1.0849   22.6849  -19.5160 S   0  0  0  0  0  0  0  0  0  0  0  0
   -1.8956   22.0303  -18.0813 C   0  0  0  0  0  0  0  0  0  0  0  0
   -0.5061   24.0190  -19.1280 O   0  0  0  0  0  0  0  0  0  0  0  0
    0.0420   21.8173  -19.9813 O   0  0  0  0  0  0  0  0  0  0  0  0
   -4.7453   25.5803  -28.2429 C   0  0  0  0  0  0  0  0  0  0  0  0
   -4.5018   24.8250  -29.5420 C   0  0  0  0  0  0  0  0  0  0  0  0
   -4.1269   25.8691  -30.5833 C   0  0  0  0  0  0  0  0  0  0  0  0
   -5.3891   25.9643  -31.4035 C   0  0  0  0  0  0  0  0  0  0  0  0
   -5.8171   24.6221  -31.4356 O   0  0  0  0  0  0  0  0  0  0  0  0
   -5.7656   24.2456  -30.0941 C   0  0  0  0  0  0  0  0  0  0  0  0
  1  2  1  0  0  0
  2  3  2  0  0  0
  2  4  1  0  0  0
  4  5  1  0  0  0
  5  6  1  0  0  0
  6  7  1  0  0  0
  7  8  2  0  0  0
  8  9  1  0  0  0
  8 10  1  0  0  0
 10 13  1  0  0  0
 13 15  1  0  0  0
 15 16  2  0  0  0
 16 17  1  0  0  0
 17 18  2  0  0  0
 18 19  1  0  0  0
 19 20  2  0  0  0
 18 21  1  0  0  0
 21 22  1  0  0  0
 21 23  2  0  0  0
 21 24  2  0  0  0
 10 11  2  0  0  0
 11 12  1  0  0  0
 12 25  1  0  0  0
 25 26  1  0  0  0
 26 27  1  0  0  0
 27 28  1  0  0  0
 28 29  1  0  0  0
 29 30  1  0  0  0
  9  4  1  0  0  0
 20 15  1  0  0  0
 30 26  1  0  0  0
 12  7  1  0  0  0
 13 14  1  0  0  0
M  END
> <minimizedAffinity>
-9.02511

> <CNNscore>
0.1007211655

> <CNNaffinity>
6.3293533325

> <CNN_VS>
0.6374998689

> <CNNaffinity_variance>
0.1547233164

$$$$
[H]N=C(N([H])[H])N([H])C([H])([H])C([H])([H])C([H])([H])[C@@]([H])(C(=O)c1nc2c([H])c([H])c([H])c([H])c2s1)N([H])C(=O)[C@@]1([H])N(C(=O)[C@@]([H])(N([H])C(=O)OC(C([H])([H])[H])(C([H])([H])[H])C([H])([H])[H])C([H])([H])c2c([H])c([H])c([H])c([H])c2[H])C([H])([H])C([H])([H])C1([H])[H]


 51 54  0  0  0  0  0  0  0  0999 V2000
   -5.9676   25.6200  -23.9551 C   0  0  0  0  0  0  0  0  0  0  0  0
   -6.3068   26.8084  -24.1261 O   0  0  0  0  0  0  0  0  0  0  0  0
   -6.3787   24.9080  -22.8339 N   0  0  0  0  0  0  0  0  0  0  0  0
   -6.1190   23.9358  -22.6677 H   0  0  0  0  0  0  0  0  0  0  0  0
   -4.8530   22.4434  -24.4677 C   0  0  0  0  0  0  0  0  0  0  0  0
   -5.3838   21.2886  -24.4919 O   0  0  0  0  0  0  0  0  0  0  0  0
   -5.5171   23.5577  -25.0369 N   0  0  0  0  0  0  0  0  0  0  0  0
   -6.7880   23.4775  -25.7486 C   0  0  0  0  0  0  0  0  0  0  0  0
   -6.8977   24.7952  -26.4524 C   0  0  0  0  0  0  0  0  0  0  0  0
   -5.4931   25.4140  -26.3761 C   0  0  0  0  0  0  0  0  0  0  0  0
   -5.0997   24.9296  -24.9755 C   0  0  0  0  0  0  0  0  0  0  0  0
   -3.5294   22.6268  -23.8370 C   0  0  0  0  0  0  0  0  0  0  0  0
   -2.5632   23.3790  -21.6665 C   0  0  0  0  0  0  0  0  0  0  0  0
   -1.5518   23.9521  -22.1315 O   0  0  0  0  0  0  0  0  0  0  0  0
   -3.5534   22.7250  -22.4092 N   0  0  0  0  0  0  0  0  0  0  0  0
   -4.3618   22.2788  -21.8939 H   0  0  0  0  0  0  0  0  0  0  0  0
   -2.6883   23.4126  -20.2690 O   0  0  0  0  0  0  0  0  0  0  0  0
   -2.5049   22.5247  -18.0688 C   0  0  0  0  0  0  0  0  0  0  0  0
   -1.8452   22.6641  -19.4264 C   0  0  0  0  0  0  0  0  0  0  0  0
   -0.4980   23.3190  -19.1917 C   0  0  0  0  0  0  0  0  0  0  0  0
   -1.6492   21.3059  -20.0548 C   0  0  0  0  0  0  0  0  0  0  0  0
   -2.6159   21.5180  -24.3429 C   0  0  0  0  0  0  0  0  0  0  0  0
   -1.7394   22.0003  -25.4357 C   0  0  0  0  0  0  0  0  0  0  0  0
   -0.3789   22.1556  -25.3416 C   0  0  0  0  0  0  0  0  0  0  0  0
    0.4079   22.6237  -26.3906 C   0  0  0  0  0  0  0  0  0  0  0  0
   -0.1754   22.9553  -27.5943 C   0  0  0  0  0  0  0  0  0  0  0  0
   -1.5437   22.8106  -27.7244 C   0  0  0  0  0  0  0  0  0  0  0  0
   -2.2880   22.3504  -26.6804 C   0  0  0  0  0  0  0  0  0  0  0  0
   -7.2461   25.5512  -21.7891 C   0  0  0  0  0  0  0  0  0  0  0  0
   -6.7409   25.0629  -20.5299 C   0  0  0  0  0  0  0  0  0  0  0  0
   -5.9180   25.7693  -19.8463 O   0  0  0  0  0  0  0  0  0  0  0  0
   -7.0904   23.7675  -19.8962 C   0  0  0  0  0  0  0  0  0  0  0  0
   -7.8682   23.5423  -18.8594 N   0  0  0  0  0  0  0  0  0  0  0  0
   -8.0664   22.3162  -18.4437 C   0  0  0  0  0  0  0  0  0  0  0  0
   -8.8711   21.9271  -17.3534 C   0  0  0  0  0  0  0  0  0  0  0  0
   -8.9849   20.6165  -17.0383 C   0  0  0  0  0  0  0  0  0  0  0  0
   -8.3618   19.5712  -17.7102 C   0  0  0  0  0  0  0  0  0  0  0  0
   -7.5743   19.9637  -18.7782 C   0  0  0  0  0  0  0  0  0  0  0  0
   -7.4368   21.3126  -19.1289 C   0  0  0  0  0  0  0  0  0  0  0  0
   -6.5978   22.1911  -20.3291 S   0  0  0  0  0  0  0  0  0  0  0  0
   -8.6061   25.2170  -22.2478 C   0  0  0  0  0  0  0  0  0  0  0  0
   -9.8234   25.6067  -21.5536 C   0  0  0  0  0  0  0  0  0  0  0  0
  -10.8781   26.3284  -22.3284 C   0  0  0  0  0  0  0  0  0  0  0  0
  -11.1942   27.5520  -21.5709 N   0  0  0  0  0  0  0  0  0  0  0  0
  -11.3110   27.5452  -20.5429 H   0  0  0  0  0  0  0  0  0  0  0  0
  -11.3338   28.7491  -22.3057 C   0  0  0  0  0  0  0  0  0  0  0  0
  -11.5286   30.0181  -21.6568 N   0  0  0  0  0  0  0  0  0  0  0  0
  -11.2938   28.7715  -23.5917 N   0  0  0  0  0  0  0  0  0  0  0  0
  -12.2415   30.6801  -21.9913 H   0  0  0  0  0  0  0  0  0  0  0  0
  -10.9544   30.3035  -20.8309 H   0  0  0  0  0  0  0  0  0  0  0  0
  -11.1585   27.9325  -24.1884 H   0  0  0  0  0  0  0  0  0  0  0  0
 18 19  1  0  0  0
 19 20  1  0  0  0
 19 21  1  0  0  0
 19 17  1  0  0  0
 17 13  1  0  0  0
 13 14  2  0  0  0
 13 15  1  0  0  0
 15 12  1  0  0  0
 12 22  1  0  0  0
 22 23  1  0  0  0
 23 24  2  0  0  0
 24 25  1  0  0  0
 25 26  2  0  0  0
 26 27  1  0  0  0
 27 28  2  0  0  0
 12  5  1  0  0  0
  5  6  2  0  0  0
  5  7  1  0  0  0
  7  8  1  0  0  0
  8  9  1  0  0  0
  9 10  1  0  0  0
 10 11  1  0  0  0
 11  1  1  0  0  0
  1  2  2  0  0  0
  1  3  1  0  0  0
  3 29  1  0  0  0
 29 41  1  0  0  0
 41 42  1  0  0  0
 42 43  1  0  0  0
 43 44  1  0  0  0
 44 46  1  0  0  0
 46 47  1  0  0  0
 46 48  2  0  0  0
 29 30  1  0  0  0
 30 31  2  0  0  0
 30 32  1  0  0  0
 32 33  2  0  0  0
 33 34  1  0  0  0
 34 35  2  0  0  0
 35 36  1  0  0  0
 36 37  2  0  0  0
 37 38  1  0  0  0
 38 39  2  0  0  0
 39 40  1  0  0  0
 28 23  1  0  0  0
 11  7  1  0  0  0
 40 32  1  0  0  0
 39 34  1  0  0  0
 15 16  1  0  0  0
  3  4  1  0  0  0
 44 45  1  0  0  0
 47 49  1  0  0  0
 47 50  1  0  0  0
 48 51  1  0  0  0
M  END
> <minimizedAffinity>
-9.24039

> <CNNscore>
0.3022957444

> <CNNaffinity>
7.0032973289

> <CNN_VS>
2.1170670986

> <CNNaffinity_variance>
0.9164273143

$$$$
[H]N=C(N([H])[H])N([H])C([H])([H])C([H])([H])C([H])([H])[C@@]([H])(C(=O)c1nc2c([H])c([H])c([H])c([H])c2s1)N([H])C(=O)[C@@]1([H])N(C(=O)[C@@]([H])(N([H])C(=O)OC(C([H])([H])[H])(C([H])([H])[H])C([H])([H])[H])C([H])([H])c2c([H])c([H])c([H])c([H])c2[H])C([H])([H])C([H])([H])C1([H])[H]


 51 54  0  0  0  0  0  0  0  0999 V2000
   -5.5769   23.8769  -25.0321 C   0  0  0  0  0  0  0  0  0  0  0  0
   -5.7287   22.6876  -24.6872 O   0  0  0  0  0  0  0  0  0  0  0  0
   -5.0877   24.2045  -26.2917 N   0  0  0  0  0  0  0  0  0  0  0  0
   -4.9543   25.1668  -26.6024 H   0  0  0  0  0  0  0  0  0  0  0  0
   -5.4842   24.3242  -21.6576 C   0  0  0  0  0  0  0  0  0  0  0  0
   -4.6244   24.1349  -20.7408 O   0  0  0  0  0  0  0  0  0  0  0  0
   -5.0966   24.8405  -22.9186 N   0  0  0  0  0  0  0  0  0  0  0  0
   -3.7399   25.2635  -23.2480 C   0  0  0  0  0  0  0  0  0  0  0  0
   -3.8974   26.0438  -24.5169 C   0  0  0  0  0  0  0  0  0  0  0  0
   -5.4047   26.3155  -24.6417 C   0  0  0  0  0  0  0  0  0  0  0  0
   -5.9290   24.9892  -24.0783 C   0  0  0  0  0  0  0  0  0  0  0  0
   -6.9039   24.0002  -21.4069 C   0  0  0  0  0  0  0  0  0  0  0  0
   -7.4700   21.6130  -20.9692 C   0  0  0  0  0  0  0  0  0  0  0  0
   -7.6357   21.2667  -22.1609 O   0  0  0  0  0  0  0  0  0  0  0  0
   -7.1203   22.8937  -20.5249 N   0  0  0  0  0  0  0  0  0  0  0  0
   -7.0098   23.0572  -19.4862 H   0  0  0  0  0  0  0  0  0  0  0  0
   -7.6587   20.6023  -20.0140 O   0  0  0  0  0  0  0  0  0  0  0  0
   -6.8805   18.9608  -18.4769 C   0  0  0  0  0  0  0  0  0  0  0  0
   -6.7482   20.3908  -18.9618 C   0  0  0  0  0  0  0  0  0  0  0  0
   -7.0007   21.2834  -17.7624 C   0  0  0  0  0  0  0  0  0  0  0  0
   -5.3578   20.6357  -19.4957 C   0  0  0  0  0  0  0  0  0  0  0  0
   -7.5969   25.2752  -20.9447 C   0  0  0  0  0  0  0  0  0  0  0  0
   -9.0397   25.2552  -21.2815 C   0  0  0  0  0  0  0  0  0  0  0  0
  -10.0328   24.7883  -20.4572 C   0  0  0  0  0  0  0  0  0  0  0  0
  -11.3778   24.7765  -20.8173 C   0  0  0  0  0  0  0  0  0  0  0  0
  -11.7642   25.2494  -22.0527 C   0  0  0  0  0  0  0  0  0  0  0  0
  -10.7899   25.7277  -22.9083 C   0  0  0  0  0  0  0  0  0  0  0  0
   -9.4816   25.7266  -22.5286 C   0  0  0  0  0  0  0  0  0  0  0  0
   -4.7241   23.1318  -27.2790 C   0  0  0  0  0  0  0  0  0  0  0  0
   -3.2956   23.2413  -27.4425 C   0  0  0  0  0  0  0  0  0  0  0  0
   -2.8051   23.7629  -28.5059 O   0  0  0  0  0  0  0  0  0  0  0  0
   -2.2719   22.8020  -26.4622 C   0  0  0  0  0  0  0  0  0  0  0  0
   -2.4318   22.4671  -25.2001 N   0  0  0  0  0  0  0  0  0  0  0  0
   -1.3992   22.0941  -24.4859 C   0  0  0  0  0  0  0  0  0  0  0  0
   -1.4211   21.7081  -23.1301 C   0  0  0  0  0  0  0  0  0  0  0  0
   -0.2709   21.3439  -22.5182 C   0  0  0  0  0  0  0  0  0  0  0  0
    0.9828   21.3104  -23.1176 C   0  0  0  0  0  0  0  0  0  0  0  0
    0.9933   21.6912  -24.4480 C   0  0  0  0  0  0  0  0  0  0  0  0
   -0.1808   22.0735  -25.1087 C   0  0  0  0  0  0  0  0  0  0  0  0
   -0.5920   22.5914  -26.6832 S   0  0  0  0  0  0  0  0  0  0  0  0
   -5.6437   23.3985  -28.3991 C   0  0  0  0  0  0  0  0  0  0  0  0
   -5.4960   22.8353  -29.7320 C   0  0  0  0  0  0  0  0  0  0  0  0
   -5.7511   23.7238  -30.9064 C   0  0  0  0  0  0  0  0  0  0  0  0
   -6.1221   25.0426  -30.3641 N   0  0  0  0  0  0  0  0  0  0  0  0
   -6.9840   25.1844  -29.8096 H   0  0  0  0  0  0  0  0  0  0  0  0
   -5.2494   26.1196  -30.6304 C   0  0  0  0  0  0  0  0  0  0  0  0
   -3.8386   26.0359  -30.3617 N   0  0  0  0  0  0  0  0  0  0  0  0
   -5.6657   27.2313  -31.1272 N   0  0  0  0  0  0  0  0  0  0  0  0
   -3.3420   26.8057  -29.8936 H   0  0  0  0  0  0  0  0  0  0  0  0
   -3.2796   25.1950  -30.6330 H   0  0  0  0  0  0  0  0  0  0  0  0
   -6.6554   27.4301  -31.3705 H   0  0  0  0  0  0  0  0  0  0  0  0
 18 19  1  0  0  0
 19 20  1  0  0  0
 19 21  1  0  0  0
 19 17  1  0  0  0
 17 13  1  0  0  0
 13 14  2  0  0  0
 13 15  1  0  0  0
 15 12  1  0  0  0
 12 22  1  0  0  0
 22 23  1  0  0  0
 23 24  2  0  0  0
 24 25  1  0  0  0
 25 26  2  0  0  0
 26 27  1  0  0  0
 27 28  2  0  0  0
 12  5  1  0  0  0
  5  6  2  0  0  0
  5  7  1  0  0  0
  7  8  1  0  0  0
  8  9  1  0  0  0
  9 10  1  0  0  0
 10 11  1  0  0  0
 11  1  1  0  0  0
  1  2  2  0  0  0
  1  3  1  0  0  0
  3 29  1  0  0  0
 29 41  1  0  0  0
 41 42  1  0  0  0
 42 43  1  0  0  0
 43 44  1  0  0  0
 44 46  1  0  0  0
 46 47  1  0  0  0
 46 48  2  0  0  0
 29 30  1  0  0  0
 30 31  2  0  0  0
 30 32  1  0  0  0
 32 33  2  0  0  0
 33 34  1  0  0  0
 34 35  2  0  0  0
 35 36  1  0  0  0
 36 37  2  0  0  0
 37 38  1  0  0  0
 38 39  2  0  0  0
 39 40  1  0  0  0
 28 23  1  0  0  0
 11  7  1  0  0  0
 40 32  1  0  0  0
 39 34  1  0  0  0
 15 16  1  0  0  0
  3  4  1  0  0  0
 44 45  1  0  0  0
 47 49  1  0  0  0
 47 50  1  0  0  0
 48 51  1  0  0  0
M  END
> <minimizedAffinity>
-9.09658

> <CNNscore>
0.3008542955

> <CNNaffinity>
7.6620545387

> <CNN_VS>
2.3051619530

> <CNNaffinity_variance>
0.2134460658

$$$$
[H]N=C(N([H])[H])N([H])C([H])([H])C([H])([H])C([H])([H])[C@@]([H])(C(=O)c1nc2c([H])c([H])c([H])c([H])c2s1)N([H])C(=O)[C@@]1([H])N(C(=O)[C@@]([H])(N([H])C(=O)OC(C([H])([H])[H])(C([H])([H])[H])C([H])([H])[H])C([H])([H])c2c([H])c([H])c([H])c([H])c2[H])C([H])([H])C([H])([H])C1([H])[H]


 51 54  0  0  0  0  0  0  0  0999 V2000
   -1.8244   22.5680  -20.4780 C   0  0  0  0  0  0  0  0  0  0  0  0
   -1.6056   23.7289  -20.8793 O   0  0  0  0  0  0  0  0  0  0  0  0
   -2.2796   21.5805  -21.3444 N   0  0  0  0  0  0  0  0  0  0  0  0
   -2.4657   20.6231  -21.0462 H   0  0  0  0  0  0  0  0  0  0  0  0
   -1.7198   19.6964  -18.6507 C   0  0  0  0  0  0  0  0  0  0  0  0
   -1.1501   18.5663  -18.7689 O   0  0  0  0  0  0  0  0  0  0  0  0
   -1.0396   20.8900  -18.9967 N   0  0  0  0  0  0  0  0  0  0  0  0
    0.3526   20.9428  -19.4293 C   0  0  0  0  0  0  0  0  0  0  0  0
    0.7121   22.3936  -19.3304 C   0  0  0  0  0  0  0  0  0  0  0  0
   -0.4109   23.0342  -18.4998 C   0  0  0  0  0  0  0  0  0  0  0  0
   -1.5923   22.2141  -19.0317 C   0  0  0  0  0  0  0  0  0  0  0  0
   -3.1078   19.7668  -18.1490 C   0  0  0  0  0  0  0  0  0  0  0  0
   -4.1808   17.5198  -18.0495 C   0  0  0  0  0  0  0  0  0  0  0  0
   -3.6358   17.1288  -16.9923 O   0  0  0  0  0  0  0  0  0  0  0  0
   -3.9848   18.7609  -18.6667 N   0  0  0  0  0  0  0  0  0  0  0  0
   -4.5082   18.9705  -19.5612 H   0  0  0  0  0  0  0  0  0  0  0  0
   -5.0647   16.6080  -18.6472 O   0  0  0  0  0  0  0  0  0  0  0  0
   -5.4938   14.9745  -20.3236 C   0  0  0  0  0  0  0  0  0  0  0  0
   -4.6317   15.3622  -19.1386 C   0  0  0  0  0  0  0  0  0  0  0  0
   -4.7552   14.2421  -18.1242 C   0  0  0  0  0  0  0  0  0  0  0  0
   -3.1911   15.5073  -19.5649 C   0  0  0  0  0  0  0  0  0  0  0  0
   -3.0516   19.7826  -16.6271 C   0  0  0  0  0  0  0  0  0  0  0  0
   -4.0014   20.7707  -16.0643 C   0  0  0  0  0  0  0  0  0  0  0  0
   -5.2121   20.4620  -15.4961 C   0  0  0  0  0  0  0  0  0  0  0  0
   -6.0818   21.4236  -14.9887 C   0  0  0  0  0  0  0  0  0  0  0  0
   -5.7412   22.7578  -15.0433 C   0  0  0  0  0  0  0  0  0  0  0  0
   -4.5286   23.1047  -15.6086 C   0  0  0  0  0  0  0  0  0  0  0  0
   -3.6981   22.1417  -16.0972 C   0  0  0  0  0  0  0  0  0  0  0  0
   -2.5244   21.8831  -22.7957 C   0  0  0  0  0  0  0  0  0  0  0  0
   -3.8720   21.4373  -23.0495 C   0  0  0  0  0  0  0  0  0  0  0  0
   -4.1477   20.7912  -24.1219 O   0  0  0  0  0  0  0  0  0  0  0  0
   -5.0395   21.6457  -22.1575 C   0  0  0  0  0  0  0  0  0  0  0  0
   -5.0962   21.5696  -20.8455 N   0  0  0  0  0  0  0  0  0  0  0  0
   -6.2270   21.7961  -20.2248 C   0  0  0  0  0  0  0  0  0  0  0  0
   -6.4345   21.7519  -18.8310 C   0  0  0  0  0  0  0  0  0  0  0  0
   -7.6632   22.0109  -18.3276 C   0  0  0  0  0  0  0  0  0  0  0  0
   -8.7886   22.3299  -19.0786 C   0  0  0  0  0  0  0  0  0  0  0  0
   -8.5743   22.3703  -20.4452 C   0  0  0  0  0  0  0  0  0  0  0  0
   -7.3140   22.1069  -20.9960 C   0  0  0  0  0  0  0  0  0  0  0  0
   -6.6458   22.0549  -22.5667 S   0  0  0  0  0  0  0  0  0  0  0  0
   -1.3719   21.2464  -23.4574 C   0  0  0  0  0  0  0  0  0  0  0  0
    0.0065   21.6839  -23.3015 C   0  0  0  0  0  0  0  0  0  0  0  0
    0.5808   22.5925  -24.3399 C   0  0  0  0  0  0  0  0  0  0  0  0
    0.6617   21.8102  -25.5859 N   0  0  0  0  0  0  0  0  0  0  0  0
    1.1455   20.8967  -25.6289 H   0  0  0  0  0  0  0  0  0  0  0  0
    0.0482   22.3573  -26.7334 C   0  0  0  0  0  0  0  0  0  0  0  0
   -1.3461   22.1486  -27.0194 N   0  0  0  0  0  0  0  0  0  0  0  0
    0.6994   23.0709  -27.5834 N   0  0  0  0  0  0  0  0  0  0  0  0
   -1.6603   21.8926  -27.9650 H   0  0  0  0  0  0  0  0  0  0  0  0
   -2.0771   22.2506  -26.2789 H   0  0  0  0  0  0  0  0  0  0  0  0
    1.7086   23.3023  -27.5030 H   0  0  0  0  0  0  0  0  0  0  0  0
 18 19  1  0  0  0
 19 20  1  0  0  0
 19 21  1  0  0  0
 19 17  1  0  0  0
 17 13  1  0  0  0
 13 14  2  0  0  0
 13 15  1  0  0  0
 15 12  1  0  0  0
 12 22  1  0  0  0
 22 23  1  0  0  0
 23 24  2  0  0  0
 24 25  1  0  0  0
 25 26  2  0  0  0
 26 27  1  0  0  0
 27 28  2  0  0  0
 12  5  1  0  0  0
  5  6  2  0  0  0
  5  7  1  0  0  0
  7  8  1  0  0  0
  8  9  1  0  0  0
  9 10  1  0  0  0
 10 11  1  0  0  0
 11  1  1  0  0  0
  1  2  2  0  0  0
  1  3  1  0  0  0
  3 29  1  0  0  0
 29 41  1  0  0  0
 41 42  1  0  0  0
 42 43  1  0  0  0
 43 44  1  0  0  0
 44 46  1  0  0  0
 46 47  1  0  0  0
 46 48  2  0  0  0
 29 30  1  0  0  0
 30 31  2  0  0  0
 30 32  1  0  0  0
 32 33  2  0  0  0
 33 34  1  0  0  0
 34 35  2  0  0  0
 35 36  1  0  0  0
 36 37  2  0  0  0
 37 38  1  0  0  0
 38 39  2  0  0  0
 39 40  1  0  0  0
 28 23  1  0  0  0
 11  7  1  0  0  0
 40 32  1  0  0  0
 39 34  1  0  0  0
 15 16  1  0  0  0
  3  4  1  0  0  0
 44 45  1  0  0  0
 47 49  1  0  0  0
 47 50  1  0  0  0
 48 51  1  0  0  0
M  END
> <minimizedAffinity>
-6.32516

> <CNNscore>
0.2149791121

> <CNNaffinity>
6.2026076317

> <CNN_VS>
1.3334311247

> <CNNaffinity_variance>
0.7325828075

$$$$
[H]N=C(N([H])[H])N([H])C([H])([H])C([H])([H])C([H])([H])[C@@]([H])(C(=O)c1nc2c([H])c([H])c([H])c([H])c2s1)N([H])C(=O)[C@@]1([H])N(C(=O)[C@@]([H])(N([H])C(=O)OC(C([H])([H])[H])(C([H])([H])[H])C([H])([H])[H])C([H])([H])c2c([H])c([H])c([H])c([H])c2[H])C([H])([H])C([H])([H])C1([H])[H]


 51 54  0  0  0  0  0  0  0  0999 V2000
   -3.6368   23.6337  -21.4955 C   0  0  0  0  0  0  0  0  0  0  0  0
   -2.4733   24.0805  -21.5531 O   0  0  0  0  0  0  0  0  0  0  0  0
   -4.4144   23.5006  -22.6403 N   0  0  0  0  0  0  0  0  0  0  0  0
   -5.3674   23.1374  -22.6249 H   0  0  0  0  0  0  0  0  0  0  0  0
   -6.5278   22.1718  -20.4462 C   0  0  0  0  0  0  0  0  0  0  0  0
   -7.2041   21.1512  -20.7878 O   0  0  0  0  0  0  0  0  0  0  0  0
   -5.1122   22.1246  -20.4131 N   0  0  0  0  0  0  0  0  0  0  0  0
   -4.3267   20.9247  -20.6798 C   0  0  0  0  0  0  0  0  0  0  0  0
   -2.9550   21.2673  -20.1852 C   0  0  0  0  0  0  0  0  0  0  0  0
   -3.1351   22.5345  -19.3347 C   0  0  0  0  0  0  0  0  0  0  0  0
   -4.2219   23.2235  -20.1687 C   0  0  0  0  0  0  0  0  0  0  0  0
   -7.2249   23.4225  -20.0816 C   0  0  0  0  0  0  0  0  0  0  0  0
   -8.6136   25.2109  -21.1225 C   0  0  0  0  0  0  0  0  0  0  0  0
   -8.2472   26.1504  -20.3805 O   0  0  0  0  0  0  0  0  0  0  0  0
   -8.1752   23.8835  -21.0477 N   0  0  0  0  0  0  0  0  0  0  0  0
   -8.5631   23.1819  -21.7371 H   0  0  0  0  0  0  0  0  0  0  0  0
   -9.5502   25.5510  -22.1109 O   0  0  0  0  0  0  0  0  0  0  0  0
  -11.6866   25.8379  -23.1190 C   0  0  0  0  0  0  0  0  0  0  0  0
  -10.9176   25.7122  -21.8189 C   0  0  0  0  0  0  0  0  0  0  0  0
  -11.2149   26.9620  -21.0135 C   0  0  0  0  0  0  0  0  0  0  0  0
  -11.3756   24.4931  -21.0559 C   0  0  0  0  0  0  0  0  0  0  0  0
   -7.8283   23.2314  -18.6963 C   0  0  0  0  0  0  0  0  0  0  0  0
   -6.7826   23.2532  -17.6468 C   0  0  0  0  0  0  0  0  0  0  0  0
   -6.4645   22.1954  -16.8321 C   0  0  0  0  0  0  0  0  0  0  0  0
   -5.4812   22.2613  -15.8485 C   0  0  0  0  0  0  0  0  0  0  0  0
   -4.7746   23.4291  -15.6581 C   0  0  0  0  0  0  0  0  0  0  0  0
   -5.0687   24.5145  -16.4616 C   0  0  0  0  0  0  0  0  0  0  0  0
   -6.0364   24.4205  -17.4158 C   0  0  0  0  0  0  0  0  0  0  0  0
   -3.8758   23.8941  -23.9867 C   0  0  0  0  0  0  0  0  0  0  0  0
   -5.0103   23.8393  -24.8750 C   0  0  0  0  0  0  0  0  0  0  0  0
   -6.0987   23.2758  -24.4989 O   0  0  0  0  0  0  0  0  0  0  0  0
   -5.0674   24.3988  -26.2482 C   0  0  0  0  0  0  0  0  0  0  0  0
   -4.1409   24.3833  -27.1819 N   0  0  0  0  0  0  0  0  0  0  0  0
   -4.3786   24.9276  -28.3492 C   0  0  0  0  0  0  0  0  0  0  0  0
   -3.4854   24.9836  -29.4386 C   0  0  0  0  0  0  0  0  0  0  0  0
   -3.8698   25.5797  -30.5906 C   0  0  0  0  0  0  0  0  0  0  0  0
   -5.1092   26.1668  -30.8172 C   0  0  0  0  0  0  0  0  0  0  0  0
   -5.9781   26.1067  -29.7419 C   0  0  0  0  0  0  0  0  0  0  0  0
   -5.6092   25.4965  -28.5366 C   0  0  0  0  0  0  0  0  0  0  0  0
   -6.3505   25.2153  -27.0241 S   0  0  0  0  0  0  0  0  0  0  0  0
   -2.7294   22.9835  -24.1547 C   0  0  0  0  0  0  0  0  0  0  0  0
   -2.6648   21.9226  -25.1476 C   0  0  0  0  0  0  0  0  0  0  0  0
   -1.3892   21.7408  -25.9049 C   0  0  0  0  0  0  0  0  0  0  0  0
   -1.4486   22.6581  -27.0564 N   0  0  0  0  0  0  0  0  0  0  0  0
   -2.3353   23.0919  -27.3663 H   0  0  0  0  0  0  0  0  0  0  0  0
   -0.2382   22.9282  -27.7306 C   0  0  0  0  0  0  0  0  0  0  0  0
   -0.2174   23.4277  -29.0795 N   0  0  0  0  0  0  0  0  0  0  0  0
    0.9091   22.7443  -27.1777 N   0  0  0  0  0  0  0  0  0  0  0  0
    0.4202   23.0295  -29.7819 H   0  0  0  0  0  0  0  0  0  0  0  0
   -0.8460   24.2056  -29.3841 H   0  0  0  0  0  0  0  0  0  0  0  0
    1.0435   22.3899  -26.2109 H   0  0  0  0  0  0  0  0  0  0  0  0
 18 19  1  0  0  0
 19 20  1  0  0  0
 19 21  1  0  0  0
 19 17  1  0  0  0
 17 13  1  0  0  0
 13 14  2  0  0  0
 13 15  1  0  0  0
 15 12  1  0  0  0
 12 22  1  0  0  0
 22 23  1  0  0  0
 23 24  2  0  0  0
 24 25  1  0  0  0
 25 26  2  0  0  0
 26 27  1  0  0  0
 27 28  2  0  0  0
 12  5  1  0  0  0
  5  6  2  0  0  0
  5  7  1  0  0  0
  7  8  1  0  0  0
  8  9  1  0  0  0
  9 10  1  0  0  0
 10 11  1  0  0  0
 11  1  1  0  0  0
  1  2  2  0  0  0
  1  3  1  0  0  0
  3 29  1  0  0  0
 29 41  1  0  0  0
 41 42  1  0  0  0
 42 43  1  0  0  0
 43 44  1  0  0  0
 44 46  1  0  0  0
 46 47  1  0  0  0
 46 48  2  0  0  0
 29 30  1  0  0  0
 30 31  2  0  0  0
 30 32  1  0  0  0
 32 33  2  0  0  0
 33 34  1  0  0  0
 34 35  2  0  0  0
 35 36  1  0  0  0
 36 37  2  0  0  0
 37 38  1  0  0  0
 38 39  2  0  0  0
 39 40  1  0  0  0
 28 23  1  0  0  0
 11  7  1  0  0  0
 40 32  1  0  0  0
 39 34  1  0  0  0
 15 16  1  0  0  0
  3  4  1  0  0  0
 44 45  1  0  0  0
 47 49  1  0  0  0
 47 50  1  0  0  0
 48 51  1  0  0  0
M  END
> <minimizedAffinity>
-7.49107

> <CNNscore>
0.2030548602

> <CNNaffinity>
7.1608934402

> <CNN_VS>
1.4540542364

> <CNNaffinity_variance>
0.2877307534

$$$$
[H]N=C(N([H])[H])N([H])C([H])([H])C([H])([H])C([H])([H])[C@@]([H])(C(=O)c1nc2c([H])c([H])c([H])c([H])c2s1)N([H])C(=O)[C@@]1([H])N(C(=O)[C@@]([H])(N([H])C(=O)OC(C([H])([H])[H])(C([H])([H])[H])C([H])([H])[H])C([H])([H])c2c([H])c([H])c([H])c([H])c2[H])C([H])([H])C([H])([H])C1([H])[H]


 51 54  0  0  0  0  0  0  0  0999 V2000
   -7.3715   22.1403  -21.2446 C   0  0  0  0  0  0  0  0  0  0  0  0
   -7.8531   21.2545  -21.9795 O   0  0  0  0  0  0  0  0  0  0  0  0
   -6.3562   22.9763  -21.6954 N   0  0  0  0  0  0  0  0  0  0  0  0
   -5.9440   23.7098  -21.1188 H   0  0  0  0  0  0  0  0  0  0  0  0
   -6.4569   23.9573  -18.5137 C   0  0  0  0  0  0  0  0  0  0  0  0
   -6.1395   25.1685  -18.2948 O   0  0  0  0  0  0  0  0  0  0  0  0
   -7.5077   23.6341  -19.4073 N   0  0  0  0  0  0  0  0  0  0  0  0
   -8.3471   24.6225  -20.0755 C   0  0  0  0  0  0  0  0  0  0  0  0
   -9.5000   23.8261  -20.6050 C   0  0  0  0  0  0  0  0  0  0  0  0
   -9.4175   22.4683  -19.8901 C   0  0  0  0  0  0  0  0  0  0  0  0
   -7.8920   22.3214  -19.8420 C   0  0  0  0  0  0  0  0  0  0  0  0
   -5.7207   22.8735  -17.8306 C   0  0  0  0  0  0  0  0  0  0  0  0
   -3.9133   21.8308  -19.1932 C   0  0  0  0  0  0  0  0  0  0  0  0
   -4.6357   21.0351  -19.8354 O   0  0  0  0  0  0  0  0  0  0  0  0
   -4.3503   22.7395  -18.2221 N   0  0  0  0  0  0  0  0  0  0  0  0
   -3.6359   23.3601  -17.7505 H   0  0  0  0  0  0  0  0  0  0  0  0
   -2.5439   21.7843  -19.4972 O   0  0  0  0  0  0  0  0  0  0  0  0
   -2.3393   19.9907  -17.9468 C   0  0  0  0  0  0  0  0  0  0  0  0
   -1.6208   21.1064  -18.6792 C   0  0  0  0  0  0  0  0  0  0  0  0
   -0.9958   21.9924  -17.6193 C   0  0  0  0  0  0  0  0  0  0  0  0
   -0.5423   20.5383  -19.5693 C   0  0  0  0  0  0  0  0  0  0  0  0
   -5.8957   23.0668  -16.3300 C   0  0  0  0  0  0  0  0  0  0  0  0
   -5.0011   22.1675  -15.5643 C   0  0  0  0  0  0  0  0  0  0  0  0
   -5.1628   20.8093  -15.4498 C   0  0  0  0  0  0  0  0  0  0  0  0
   -4.3045   20.0006  -14.7095 C   0  0  0  0  0  0  0  0  0  0  0  0
   -3.2316   20.5585  -14.0486 C   0  0  0  0  0  0  0  0  0  0  0  0
   -3.0383   21.9237  -14.1428 C   0  0  0  0  0  0  0  0  0  0  0  0
   -3.8949   22.6898  -14.8744 C   0  0  0  0  0  0  0  0  0  0  0  0
   -5.8048   22.8367  -23.0861 C   0  0  0  0  0  0  0  0  0  0  0  0
   -4.5050   23.4594  -23.0384 C   0  0  0  0  0  0  0  0  0  0  0  0
   -4.2568   24.3709  -22.1717 O   0  0  0  0  0  0  0  0  0  0  0  0
   -3.3558   23.1422  -23.9219 C   0  0  0  0  0  0  0  0  0  0  0  0
   -3.2727   23.2413  -25.2310 N   0  0  0  0  0  0  0  0  0  0  0  0
   -2.1604   22.9187  -25.8427 C   0  0  0  0  0  0  0  0  0  0  0  0
   -1.9282   22.9760  -27.2321 C   0  0  0  0  0  0  0  0  0  0  0  0
   -0.7227   22.6113  -27.7258 C   0  0  0  0  0  0  0  0  0  0  0  0
    0.3551   22.1672  -26.9686 C   0  0  0  0  0  0  0  0  0  0  0  0
    0.1167   22.1144  -25.6064 C   0  0  0  0  0  0  0  0  0  0  0  0
   -1.1206   22.4853  -25.0655 C   0  0  0  0  0  0  0  0  0  0  0  0
   -1.8037   22.5673  -23.5026 S   0  0  0  0  0  0  0  0  0  0  0  0
   -6.8867   23.3901  -23.9197 C   0  0  0  0  0  0  0  0  0  0  0  0
   -7.3647   24.7613  -23.8368 C   0  0  0  0  0  0  0  0  0  0  0  0
   -6.8320   25.7554  -24.8175 C   0  0  0  0  0  0  0  0  0  0  0  0
   -5.8137   26.5464  -24.1044 N   0  0  0  0  0  0  0  0  0  0  0  0
   -6.0017   26.9791  -23.1836 H   0  0  0  0  0  0  0  0  0  0  0  0
   -4.5567   26.6951  -24.7291 C   0  0  0  0  0  0  0  0  0  0  0  0
   -3.5010   27.4693  -24.1327 N   0  0  0  0  0  0  0  0  0  0  0  0
   -4.2862   26.1478  -25.8619 N   0  0  0  0  0  0  0  0  0  0  0  0
   -2.9527   28.1365  -24.6918 H   0  0  0  0  0  0  0  0  0  0  0  0
   -3.2613   27.3771  -23.1192 H   0  0  0  0  0  0  0  0  0  0  0  0
   -4.9514   25.5627  -26.4036 H   0  0  0  0  0  0  0  0  0  0  0  0
 18 19  1  0  0  0
 19 20  1  0  0  0
 19 21  1  0  0  0
 19 17  1  0  0  0
 17 13  1  0  0  0
 13 14  2  0  0  0
 13 15  1  0  0  0
 15 12  1  0  0  0
 12 22  1  0  0  0
 22 23  1  0  0  0
 23 24  2  0  0  0
 24 25  1  0  0  0
 25 26  2  0  0  0
 26 27  1  0  0  0
 27 28  2  0  0  0
 12  5  1  0  0  0
  5  6  2  0  0  0
  5  7  1  0  0  0
  7  8  1  0  0  0
  8  9  1  0  0  0
  9 10  1  0  0  0
 10 11  1  0  0  0
 11  1  1  0  0  0
  1  2  2  0  0  0
  1  3  1  0  0  0
  3 29  1  0  0  0
 29 41  1  0  0  0
 41 42  1  0  0  0
 42 43  1  0  0  0
 43 44  1  0  0  0
 44 46  1  0  0  0
 46 47  1  0  0  0
 46 48  2  0  0  0
 29 30  1  0  0  0
 30 31  2  0  0  0
 30 32  1  0  0  0
 32 33  2  0  0  0
 33 34  1  0  0  0
 34 35  2  0  0  0
 35 36  1  0  0  0
 36 37  2  0  0  0
 37 38  1  0  0  0
 38 39  2  0  0  0
 39 40  1  0  0  0
 28 23  1  0  0  0
 11  7  1  0  0  0
 40 32  1  0  0  0
 39 34  1  0  0  0
 15 16  1  0  0  0
  3  4  1  0  0  0
 44 45  1  0  0  0
 47 49  1  0  0  0
 47 50  1  0  0  0
 48 51  1  0  0  0
M  END
> <minimizedAffinity>
-7.57978

> <CNNscore>
0.1977410018

> <CNNaffinity>
6.5286536217

> <CNN_VS>
1.2909824848

> <CNNaffinity_variance>
0.8032085299

$$$$
[H]N=C(N([H])[H])N([H])C([H])([H])C([H])([H])C([H])([H])[C@@]([H])(C(=O)c1nc2c([H])c([H])c([H])c([H])c2s1)N([H])C(=O)[C@@]1([H])N(C(=O)[C@@]([H])(N([H])C(=O)OC(C([H])([H])[H])(C([H])([H])[H])C([H])([H])[H])C([H])([H])c2c([H])c([H])c([H])c([H])c2[H])C([H])([H])C([H])([H])C1([H])[H]


 51 54  0  0  0  0  0  0  0  0999 V2000
   -7.3591   21.9550  -21.2124 C   0  0  0  0  0  0  0  0  0  0  0  0
   -7.8260   21.1203  -22.0136 O   0  0  0  0  0  0  0  0  0  0  0  0
   -6.3507   22.8331  -21.5937 N   0  0  0  0  0  0  0  0  0  0  0  0
   -5.9505   23.5267  -20.9621 H   0  0  0  0  0  0  0  0  0  0  0  0
   -6.6921   23.8177  -18.4409 C   0  0  0  0  0  0  0  0  0  0  0  0
   -6.5481   25.0562  -18.1934 O   0  0  0  0  0  0  0  0  0  0  0  0
   -7.6927   23.3701  -19.3383 N   0  0  0  0  0  0  0  0  0  0  0  0
   -8.6685   24.2450  -19.9789 C   0  0  0  0  0  0  0  0  0  0  0  0
   -9.7005   23.3059  -20.5237 C   0  0  0  0  0  0  0  0  0  0  0  0
   -9.4213   21.9569  -19.8428 C   0  0  0  0  0  0  0  0  0  0  0  0
   -7.8900   22.0269  -19.8039 C   0  0  0  0  0  0  0  0  0  0  0  0
   -5.8048   22.8334  -17.7874 C   0  0  0  0  0  0  0  0  0  0  0  0
   -3.6683   22.4670  -19.0169 C   0  0  0  0  0  0  0  0  0  0  0  0
   -4.1144   21.6793  -19.8818 O   0  0  0  0  0  0  0  0  0  0  0  0
   -4.4057   23.0617  -17.9862 N   0  0  0  0  0  0  0  0  0  0  0  0
   -3.9085   23.7127  -17.3177 H   0  0  0  0  0  0  0  0  0  0  0  0
   -2.2998   22.7622  -19.1163 O   0  0  0  0  0  0  0  0  0  0  0  0
   -0.9934   20.8679  -19.7227 C   0  0  0  0  0  0  0  0  0  0  0  0
   -1.3103   21.8814  -18.6410 C   0  0  0  0  0  0  0  0  0  0  0  0
   -1.7448   21.0947  -17.4199 C   0  0  0  0  0  0  0  0  0  0  0  0
   -0.0833   22.6965  -18.3122 C   0  0  0  0  0  0  0  0  0  0  0  0
   -6.1938   22.7615  -16.3166 C   0  0  0  0  0  0  0  0  0  0  0  0
   -7.2553   21.7529  -16.0900 C   0  0  0  0  0  0  0  0  0  0  0  0
   -8.4898   22.0184  -15.5522 C   0  0  0  0  0  0  0  0  0  0  0  0
   -9.4562   21.0378  -15.3447 C   0  0  0  0  0  0  0  0  0  0  0  0
   -9.1933   19.7286  -15.6852 C   0  0  0  0  0  0  0  0  0  0  0  0
   -7.9598   19.4255  -16.2300 C   0  0  0  0  0  0  0  0  0  0  0  0
   -7.0336   20.4061  -16.4212 C   0  0  0  0  0  0  0  0  0  0  0  0
   -5.7894   22.8021  -22.9871 C   0  0  0  0  0  0  0  0  0  0  0  0
   -4.4748   23.3838  -22.8747 C   0  0  0  0  0  0  0  0  0  0  0  0
   -4.2262   24.2468  -21.9599 O   0  0  0  0  0  0  0  0  0  0  0  0
   -3.3099   23.0742  -23.7403 C   0  0  0  0  0  0  0  0  0  0  0  0
   -3.2143   23.1528  -25.0500 N   0  0  0  0  0  0  0  0  0  0  0  0
   -2.0894   22.8418  -25.6442 C   0  0  0  0  0  0  0  0  0  0  0  0
   -1.8430   22.8802  -27.0318 C   0  0  0  0  0  0  0  0  0  0  0  0
   -0.6253   22.5307  -27.5063 C   0  0  0  0  0  0  0  0  0  0  0  0
    0.4525   22.1205  -26.7301 C   0  0  0  0  0  0  0  0  0  0  0  0
    0.2001   22.0860  -25.3699 C   0  0  0  0  0  0  0  0  0  0  0  0
   -1.0500   22.4418  -24.8486 C   0  0  0  0  0  0  0  0  0  0  0  0
   -1.7518   22.5368  -23.2947 S   0  0  0  0  0  0  0  0  0  0  0  0
   -6.8486   23.4550  -23.7767 C   0  0  0  0  0  0  0  0  0  0  0  0
   -7.3931   24.7720  -23.4858 C   0  0  0  0  0  0  0  0  0  0  0  0
   -6.9741   25.9163  -24.3510 C   0  0  0  0  0  0  0  0  0  0  0  0
   -5.7148   26.4324  -23.7862 N   0  0  0  0  0  0  0  0  0  0  0  0
   -5.6184   26.6630  -22.7823 H   0  0  0  0  0  0  0  0  0  0  0  0
   -4.6306   26.6031  -24.6738 C   0  0  0  0  0  0  0  0  0  0  0  0
   -3.6196   27.6021  -24.4515 N   0  0  0  0  0  0  0  0  0  0  0  0
   -4.4866   25.8769  -25.7263 N   0  0  0  0  0  0  0  0  0  0  0  0
   -3.2931   28.2050  -25.2186 H   0  0  0  0  0  0  0  0  0  0  0  0
   -3.1892   27.7439  -23.5093 H   0  0  0  0  0  0  0  0  0  0  0  0
   -5.1384   25.1196  -26.0093 H   0  0  0  0  0  0  0  0  0  0  0  0
 18 19  1  0  0  0
 19 20  1  0  0  0
 19 21  1  0  0  0
 19 17  1  0  0  0
 17 13  1  0  0  0
 13 14  2  0  0  0
 13 15  1  0  0  0
 15 12  1  0  0  0
 12 22  1  0  0  0
 22 23  1  0  0  0
 23 24  2  0  0  0
 24 25  1  0  0  0
 25 26  2  0  0  0
 26 27  1  0  0  0
 27 28  2  0  0  0
 12  5  1  0  0  0
  5  6  2  0  0  0
  5  7  1  0  0  0
  7  8  1  0  0  0
  8  9  1  0  0  0
  9 10  1  0  0  0
 10 11  1  0  0  0
 11  1  1  0  0  0
  1  2  2  0  0  0
  1  3  1  0  0  0
  3 29  1  0  0  0
 29 41  1  0  0  0
 41 42  1  0  0  0
 42 43  1  0  0  0
 43 44  1  0  0  0
 44 46  1  0  0  0
 46 47  1  0  0  0
 46 48  2  0  0  0
 29 30  1  0  0  0
 30 31  2  0  0  0
 30 32  1  0  0  0
 32 33  2  0  0  0
 33 34  1  0  0  0
 34 35  2  0  0  0
 35 36  1  0  0  0
 36 37  2  0  0  0
 37 38  1  0  0  0
 38 39  2  0  0  0
 39 40  1  0  0  0
 28 23  1  0  0  0
 11  7  1  0  0  0
 40 32  1  0  0  0
 39 34  1  0  0  0
 15 16  1  0  0  0
  3  4  1  0  0  0
 44 45  1  0  0  0
 47 49  1  0  0  0
 47 50  1  0  0  0
 48 51  1  0  0  0
M  END
> <minimizedAffinity>
-7.54900

> <CNNscore>
0.1929847151

> <CNNaffinity>
6.5661306381

> <CNN_VS>
1.2671627998

> <CNNaffinity_variance>
0.7329666018

$$$$
[H]N=C(N([H])[H])N([H])C([H])([H])C([H])([H])C([H])([H])[C@@]([H])(C(=O)c1nc2c([H])c([H])c([H])c([H])c2s1)N([H])C(=O)[C@@]1([H])N(C(=O)[C@@]([H])(N([H])C(=O)OC(C([H])([H])[H])(C([H])([H])[H])C([H])([H])[H])C([H])([H])c2c([H])c([H])c([H])c([H])c2[H])C([H])([H])C([H])([H])C1([H])[H]


 51 54  0  0  0  0  0  0  0  0999 V2000
   -1.7112   20.7730  -18.5380 C   0  0  0  0  0  0  0  0  0  0  0  0
   -1.4084   20.1763  -17.4849 O   0  0  0  0  0  0  0  0  0  0  0  0
   -2.9947   21.2668  -18.7421 N   0  0  0  0  0  0  0  0  0  0  0  0
   -3.2714   21.7597  -19.5911 H   0  0  0  0  0  0  0  0  0  0  0  0
   -1.3937   22.7627  -21.2832 C   0  0  0  0  0  0  0  0  0  0  0  0
   -1.5373   24.0020  -21.5267 O   0  0  0  0  0  0  0  0  0  0  0  0
   -0.7925   22.3267  -20.0767 N   0  0  0  0  0  0  0  0  0  0  0  0
   -0.2297   23.2224  -19.0723 C   0  0  0  0  0  0  0  0  0  0  0  0
    0.5827   22.3223  -18.1927 C   0  0  0  0  0  0  0  0  0  0  0  0
    0.7150   21.0047  -18.9724 C   0  0  0  0  0  0  0  0  0  0  0  0
   -0.6767   20.9726  -19.6154 C   0  0  0  0  0  0  0  0  0  0  0  0
   -1.8608   21.7650  -22.2678 C   0  0  0  0  0  0  0  0  0  0  0  0
   -4.3004   22.1890  -22.5488 C   0  0  0  0  0  0  0  0  0  0  0  0
   -4.6539   21.8616  -21.3932 O   0  0  0  0  0  0  0  0  0  0  0  0
   -2.9915   22.1727  -23.0451 N   0  0  0  0  0  0  0  0  0  0  0  0
   -2.8245   22.4753  -24.0444 H   0  0  0  0  0  0  0  0  0  0  0  0
   -5.3337   22.6069  -23.4017 O   0  0  0  0  0  0  0  0  0  0  0  0
   -6.9604   24.2442  -23.9810 C   0  0  0  0  0  0  0  0  0  0  0  0
   -5.4859   23.9523  -23.7857 C   0  0  0  0  0  0  0  0  0  0  0  0
   -4.7984   24.2829  -25.0960 C   0  0  0  0  0  0  0  0  0  0  0  0
   -4.9233   24.8157  -22.6829 C   0  0  0  0  0  0  0  0  0  0  0  0
   -0.6661   21.3594  -23.1209 C   0  0  0  0  0  0  0  0  0  0  0  0
   -0.8196   21.8278  -24.5182 C   0  0  0  0  0  0  0  0  0  0  0  0
   -1.9606   21.6977  -25.2699 C   0  0  0  0  0  0  0  0  0  0  0  0
   -2.0596   22.1419  -26.5858 C   0  0  0  0  0  0  0  0  0  0  0  0
   -0.9794   22.7457  -27.1921 C   0  0  0  0  0  0  0  0  0  0  0  0
    0.1860   22.8935  -26.4639 C   0  0  0  0  0  0  0  0  0  0  0  0
    0.2536   22.4489  -25.1780 C   0  0  0  0  0  0  0  0  0  0  0  0
   -4.0608   21.0948  -17.6973 C   0  0  0  0  0  0  0  0  0  0  0  0
   -4.8846   20.0128  -18.1769 C   0  0  0  0  0  0  0  0  0  0  0  0
   -5.9616   20.2598  -18.8269 O   0  0  0  0  0  0  0  0  0  0  0  0
   -4.6083   18.5655  -18.0008 C   0  0  0  0  0  0  0  0  0  0  0  0
   -4.7706   17.5861  -18.8639 N   0  0  0  0  0  0  0  0  0  0  0  0
   -4.4613   16.3588  -18.5273 C   0  0  0  0  0  0  0  0  0  0  0  0
   -4.5806   15.2165  -19.3450 C   0  0  0  0  0  0  0  0  0  0  0  0
   -4.2196   14.0056  -18.8619 C   0  0  0  0  0  0  0  0  0  0  0  0
   -3.7218   13.7649  -17.5866 C   0  0  0  0  0  0  0  0  0  0  0  0
   -3.6089   14.8923  -16.7921 C   0  0  0  0  0  0  0  0  0  0  0  0
   -3.9745   16.1592  -17.2639 C   0  0  0  0  0  0  0  0  0  0  0  0
   -3.9905   17.7470  -16.6357 S   0  0  0  0  0  0  0  0  0  0  0  0
   -4.5984   22.4596  -17.5565 C   0  0  0  0  0  0  0  0  0  0  0  0
   -4.2357   23.3764  -16.4872 C   0  0  0  0  0  0  0  0  0  0  0  0
   -5.0764   23.3883  -15.2516 C   0  0  0  0  0  0  0  0  0  0  0  0
   -6.0504   24.4817  -15.4152 N   0  0  0  0  0  0  0  0  0  0  0  0
   -6.6304   24.5761  -16.2668 H   0  0  0  0  0  0  0  0  0  0  0  0
   -6.1663   25.4077  -14.3562 C   0  0  0  0  0  0  0  0  0  0  0  0
   -6.6325   25.0142  -13.0533 N   0  0  0  0  0  0  0  0  0  0  0  0
   -5.8619   26.6501  -14.4967 N   0  0  0  0  0  0  0  0  0  0  0  0
   -7.3293   25.5774  -12.5478 H   0  0  0  0  0  0  0  0  0  0  0  0
   -6.2787   24.1493  -12.5845 H   0  0  0  0  0  0  0  0  0  0  0  0
   -5.5125   27.0715  -15.3791 H   0  0  0  0  0  0  0  0  0  0  0  0
 18 19  1  0  0  0
 19 20  1  0  0  0
 19 21  1  0  0  0
 19 17  1  0  0  0
 17 13  1  0  0  0
 13 14  2  0  0  0
 13 15  1  0  0  0
 15 12  1  0  0  0
 12 22  1  0  0  0
 22 23  1  0  0  0
 23 24  2  0  0  0
 24 25  1  0  0  0
 25 26  2  0  0  0
 26 27  1  0  0  0
 27 28  2  0  0  0
 12  5  1  0  0  0
  5  6  2  0  0  0
  5  7  1  0  0  0
  7  8  1  0  0  0
  8  9  1  0  0  0
  9 10  1  0  0  0
 10 11  1  0  0  0
 11  1  1  0  0  0
  1  2  2  0  0  0
  1  3  1  0  0  0
  3 29  1  0  0  0
 29 41  1  0  0  0
 41 42  1  0  0  0
 42 43  1  0  0  0
 43 44  1  0  0  0
 44 46  1  0  0  0
 46 47  1  0  0  0
 46 48  2  0  0  0
 29 30  1  0  0  0
 30 31  2  0  0  0
 30 32  1  0  0  0
 32 33  2  0  0  0
 33 34  1  0  0  0
 34 35  2  0  0  0
 35 36  1  0  0  0
 36 37  2  0  0  0
 37 38  1  0  0  0
 38 39  2  0  0  0
 39 40  1  0  0  0
 28 23  1  0  0  0
 11  7  1  0  0  0
 40 32  1  0  0  0
 39 34  1  0  0  0
 15 16  1  0  0  0
  3  4  1  0  0  0
 44 45  1  0  0  0
 47 49  1  0  0  0
 47 50  1  0  0  0
 48 51  1  0  0  0
M  END
> <minimizedAffinity>
-7.20114

> <CNNscore>
0.1854090393

> <CNNaffinity>
6.3197040558

> <CNN_VS>
1.1717302799

> <CNNaffinity_variance>
0.6713103056

$$$$
[H]N=C(N([H])[H])N([H])C([H])([H])C([H])([H])C([H])([H])[C@@]([H])(C(=O)c1nc2c([H])c([H])c([H])c([H])c2s1)N([H])C(=O)[C@@]1([H])N(C(=O)[C@@]([H])(N([H])C(=O)OC(C([H])([H])[H])(C([H])([H])[H])C([H])([H])[H])C([H])([H])c2c([H])c([H])c([H])c([H])c2[H])C([H])([H])C([H])([H])C1([H])[H]


 51 54  0  0  0  0  0  0  0  0999 V2000
   -2.0542   22.8612  -19.7935 C   0  0  0  0  0  0  0  0  0  0  0  0
   -1.8466   23.6985  -20.6949 O   0  0  0  0  0  0  0  0  0  0  0  0
   -1.1154   21.8814  -19.4909 N   0  0  0  0  0  0  0  0  0  0  0  0
   -1.2561   21.1849  -18.7592 H   0  0  0  0  0  0  0  0  0  0  0  0
   -5.3732   22.6431  -20.5235 C   0  0  0  0  0  0  0  0  0  0  0  0
   -6.1008   21.8617  -21.2132 O   0  0  0  0  0  0  0  0  0  0  0  0
   -4.3117   22.1360  -19.7341 N   0  0  0  0  0  0  0  0  0  0  0  0
   -4.0125   20.7167  -19.5791 C   0  0  0  0  0  0  0  0  0  0  0  0
   -3.0767   20.6649  -18.4107 C   0  0  0  0  0  0  0  0  0  0  0  0
   -3.1814   22.0463  -17.7456 C   0  0  0  0  0  0  0  0  0  0  0  0
   -3.3395   22.9024  -19.0079 C   0  0  0  0  0  0  0  0  0  0  0  0
   -5.6352   24.0971  -20.5465 C   0  0  0  0  0  0  0  0  0  0  0  0
   -5.1507   24.9382  -22.8418 C   0  0  0  0  0  0  0  0  0  0  0  0
   -3.9046   24.8265  -22.7935 O   0  0  0  0  0  0  0  0  0  0  0  0
   -6.0470   24.6126  -21.8169 N   0  0  0  0  0  0  0  0  0  0  0  0
   -7.0814   24.7534  -21.9844 H   0  0  0  0  0  0  0  0  0  0  0  0
   -5.6667   25.4380  -24.0475 O   0  0  0  0  0  0  0  0  0  0  0  0
   -7.2396   24.8412  -25.7305 C   0  0  0  0  0  0  0  0  0  0  0  0
   -5.8453   24.6197  -25.1786 C   0  0  0  0  0  0  0  0  0  0  0  0
   -5.7275   23.1395  -24.8719 C   0  0  0  0  0  0  0  0  0  0  0  0
   -4.8087   25.0121  -26.2030 C   0  0  0  0  0  0  0  0  0  0  0  0
   -6.6214   24.4093  -19.4286 C   0  0  0  0  0  0  0  0  0  0  0  0
   -7.9447   24.7958  -19.9716 C   0  0  0  0  0  0  0  0  0  0  0  0
   -8.3270   26.0796  -20.2707 C   0  0  0  0  0  0  0  0  0  0  0  0
   -9.5865   26.4019  -20.7692 C   0  0  0  0  0  0  0  0  0  0  0  0
  -10.5169   25.4083  -20.9845 C   0  0  0  0  0  0  0  0  0  0  0  0
  -10.1653   24.1036  -20.6946 C   0  0  0  0  0  0  0  0  0  0  0  0
   -8.9254   23.8184  -20.2076 C   0  0  0  0  0  0  0  0  0  0  0  0
    0.1821   21.7997  -20.2442 C   0  0  0  0  0  0  0  0  0  0  0  0
   -0.0739   20.8915  -21.3346 C   0  0  0  0  0  0  0  0  0  0  0  0
    0.0402   19.6263  -21.1619 O   0  0  0  0  0  0  0  0  0  0  0  0
   -0.4850   21.2752  -22.7078 C   0  0  0  0  0  0  0  0  0  0  0  0
    0.2735   21.5781  -23.7390 N   0  0  0  0  0  0  0  0  0  0  0  0
   -0.2757   21.8879  -24.8870 C   0  0  0  0  0  0  0  0  0  0  0  0
    0.4086   22.2305  -26.0712 C   0  0  0  0  0  0  0  0  0  0  0  0
   -0.2932   22.5276  -27.1889 C   0  0  0  0  0  0  0  0  0  0  0  0
   -1.6795   22.5287  -27.2909 C   0  0  0  0  0  0  0  0  0  0  0  0
   -2.3414   22.1915  -26.1234 C   0  0  0  0  0  0  0  0  0  0  0  0
   -1.6427   21.8791  -24.9506 C   0  0  0  0  0  0  0  0  0  0  0  0
   -2.0569   21.4262  -23.3570 S   0  0  0  0  0  0  0  0  0  0  0  0
    1.1506   21.4673  -19.1845 C   0  0  0  0  0  0  0  0  0  0  0  0
    2.5695   21.2431  -19.4128 C   0  0  0  0  0  0  0  0  0  0  0  0
    3.5374   21.7484  -18.3922 C   0  0  0  0  0  0  0  0  0  0  0  0
    2.7455   22.4735  -17.3832 N   0  0  0  0  0  0  0  0  0  0  0  0
    1.9377   22.0389  -16.9046 H   0  0  0  0  0  0  0  0  0  0  0  0
    3.1322   23.7986  -17.0883 C   0  0  0  0  0  0  0  0  0  0  0  0
    3.1115   24.8340  -18.0869 N   0  0  0  0  0  0  0  0  0  0  0  0
    3.5224   24.1527  -15.9143 N   0  0  0  0  0  0  0  0  0  0  0  0
    3.9010   25.4853  -18.1909 H   0  0  0  0  0  0  0  0  0  0  0  0
    2.2980   24.9544  -18.7325 H   0  0  0  0  0  0  0  0  0  0  0  0
    3.5857   23.5116  -15.0998 H   0  0  0  0  0  0  0  0  0  0  0  0
 18 19  1  0  0  0
 19 20  1  0  0  0
 19 21  1  0  0  0
 19 17  1  0  0  0
 17 13  1  0  0  0
 13 14  2  0  0  0
 13 15  1  0  0  0
 15 12  1  0  0  0
 12 22  1  0  0  0
 22 23  1  0  0  0
 23 24  2  0  0  0
 24 25  1  0  0  0
 25 26  2  0  0  0
 26 27  1  0  0  0
 27 28  2  0  0  0
 12  5  1  0  0  0
  5  6  2  0  0  0
  5  7  1  0  0  0
  7  8  1  0  0  0
  8  9  1  0  0  0
  9 10  1  0  0  0
 10 11  1  0  0  0
 11  1  1  0  0  0
  1  2  2  0  0  0
  1  3  1  0  0  0
  3 29  1  0  0  0
 29 41  1  0  0  0
 41 42  1  0  0  0
 42 43  1  0  0  0
 43 44  1  0  0  0
 44 46  1  0  0  0
 46 47  1  0  0  0
 46 48  2  0  0  0
 29 30  1  0  0  0
 30 31  2  0  0  0
 30 32  1  0  0  0
 32 33  2  0  0  0
 33 34  1  0  0  0
 34 35  2  0  0  0
 35 36  1  0  0  0
 36 37  2  0  0  0
 37 38  1  0  0  0
 38 39  2  0  0  0
 39 40  1  0  0  0
 28 23  1  0  0  0
 11  7  1  0  0  0
 40 32  1  0  0  0
 39 34  1  0  0  0
 15 16  1  0  0  0
  3  4  1  0  0  0
 44 45  1  0  0  0
 47 49  1  0  0  0
 47 50  1  0  0  0
 48 51  1  0  0  0
M  END
> <minimizedAffinity>
-7.94850

> <CNNscore>
0.1508439630

> <CNNaffinity>
6.2547979355

> <CNN_VS>
0.9434984922

> <CNNaffinity_variance>
1.2520090342

$$$$
[H]N=C(N([H])[H])N([H])C([H])([H])C([H])([H])C([H])([H])[C@@]([H])(C(=O)c1nc2c([H])c([H])c([H])c([H])c2s1)N([H])C(=O)[C@@]1([H])N(C(=O)[C@@]([H])(N([H])C(=O)OC(C([H])([H])[H])(C([H])([H])[H])C([H])([H])[H])C([H])([H])c2c([H])c([H])c([H])c([H])c2[H])C([H])([H])C([H])([H])C1([H])[H]


 51 54  0  0  0  0  0  0  0  0999 V2000
   -5.4353   23.8064  -23.1679 C   0  0  0  0  0  0  0  0  0  0  0  0
   -5.6957   22.6020  -23.3632 O   0  0  0  0  0  0  0  0  0  0  0  0
   -5.2427   24.3023  -21.8833 N   0  0  0  0  0  0  0  0  0  0  0  0
   -5.0273   25.2809  -21.6926 H   0  0  0  0  0  0  0  0  0  0  0  0
   -6.0961   23.6600  -26.5053 C   0  0  0  0  0  0  0  0  0  0  0  0
   -7.0750   23.2773  -27.2202 O   0  0  0  0  0  0  0  0  0  0  0  0
   -6.3144   24.3684  -25.2980 N   0  0  0  0  0  0  0  0  0  0  0  0
   -7.6283   24.7813  -24.8173 C   0  0  0  0  0  0  0  0  0  0  0  0
   -7.3277   25.7751  -23.7376 C   0  0  0  0  0  0  0  0  0  0  0  0
   -5.8435   26.1309  -23.9155 C   0  0  0  0  0  0  0  0  0  0  0  0
   -5.3210   24.7519  -24.3358 C   0  0  0  0  0  0  0  0  0  0  0  0
   -4.7148   23.3609  -26.9362 C   0  0  0  0  0  0  0  0  0  0  0  0
   -2.5775   22.5018  -25.9853 C   0  0  0  0  0  0  0  0  0  0  0  0
   -1.8021   23.1950  -26.6822 O   0  0  0  0  0  0  0  0  0  0  0  0
   -3.9761   22.5207  -26.0432 N   0  0  0  0  0  0  0  0  0  0  0  0
   -4.5189   21.8836  -25.3972 H   0  0  0  0  0  0  0  0  0  0  0  0
   -1.9579   21.6360  -25.0708 O   0  0  0  0  0  0  0  0  0  0  0  0
   -1.2578   21.0740  -22.8669 C   0  0  0  0  0  0  0  0  0  0  0  0
   -1.2262   22.1152  -23.9680 C   0  0  0  0  0  0  0  0  0  0  0  0
   -1.7967   23.3906  -23.3790 C   0  0  0  0  0  0  0  0  0  0  0  0
    0.1933   22.3538  -24.4219 C   0  0  0  0  0  0  0  0  0  0  0  0
   -4.7794   22.8113  -28.3552 C   0  0  0  0  0  0  0  0  0  0  0  0
   -4.7812   23.9044  -29.3555 C   0  0  0  0  0  0  0  0  0  0  0  0
   -5.6905   24.0350  -30.3753 C   0  0  0  0  0  0  0  0  0  0  0  0
   -5.6497   25.0727  -31.3028 C   0  0  0  0  0  0  0  0  0  0  0  0
   -4.6630   26.0312  -31.2210 C   0  0  0  0  0  0  0  0  0  0  0  0
   -3.7307   25.9308  -30.2057 C   0  0  0  0  0  0  0  0  0  0  0  0
   -3.7955   24.9040  -29.3127 C   0  0  0  0  0  0  0  0  0  0  0  0
   -5.3444   23.3996  -20.6865 C   0  0  0  0  0  0  0  0  0  0  0  0
   -6.1256   24.1378  -19.7253 C   0  0  0  0  0  0  0  0  0  0  0  0
   -5.6848   24.3162  -18.5348 O   0  0  0  0  0  0  0  0  0  0  0  0
   -7.4518   24.7557  -19.9732 C   0  0  0  0  0  0  0  0  0  0  0  0
   -7.7605   26.0310  -20.0672 N   0  0  0  0  0  0  0  0  0  0  0  0
   -8.9986   26.3895  -20.2995 C   0  0  0  0  0  0  0  0  0  0  0  0
   -9.4723   27.7113  -20.4260 C   0  0  0  0  0  0  0  0  0  0  0  0
  -10.7846   27.9328  -20.6687 C   0  0  0  0  0  0  0  0  0  0  0  0
  -11.7532   26.9461  -20.8120 C   0  0  0  0  0  0  0  0  0  0  0  0
  -11.2781   25.6526  -20.6858 C   0  0  0  0  0  0  0  0  0  0  0  0
   -9.9253   25.3915  -20.4346 C   0  0  0  0  0  0  0  0  0  0  0  0
   -8.9619   23.9980  -20.2196 S   0  0  0  0  0  0  0  0  0  0  0  0
   -3.9365   23.0536  -20.4223 C   0  0  0  0  0  0  0  0  0  0  0  0
   -3.4803   21.7346  -20.0129 C   0  0  0  0  0  0  0  0  0  0  0  0
   -3.8800   21.2371  -18.6614 C   0  0  0  0  0  0  0  0  0  0  0  0
   -2.8336   21.6795  -17.7232 N   0  0  0  0  0  0  0  0  0  0  0  0
   -1.8268   21.5585  -17.9284 H   0  0  0  0  0  0  0  0  0  0  0  0
   -3.2580   22.2823  -16.5194 C   0  0  0  0  0  0  0  0  0  0  0  0
   -2.8896   21.7500  -15.2346 N   0  0  0  0  0  0  0  0  0  0  0  0
   -3.9942   23.3376  -16.5046 N   0  0  0  0  0  0  0  0  0  0  0  0
   -3.5858   21.6485  -14.4841 H   0  0  0  0  0  0  0  0  0  0  0  0
   -1.9090   21.4527  -15.0271 H   0  0  0  0  0  0  0  0  0  0  0  0
   -4.3330   23.8276  -17.3551 H   0  0  0  0  0  0  0  0  0  0  0  0
 18 19  1  0  0  0
 19 20  1  0  0  0
 19 21  1  0  0  0
 19 17  1  0  0  0
 17 13  1  0  0  0
 13 14  2  0  0  0
 13 15  1  0  0  0
 15 12  1  0  0  0
 12 22  1  0  0  0
 22 23  1  0  0  0
 23 24  2  0  0  0
 24 25  1  0  0  0
 25 26  2  0  0  0
 26 27  1  0  0  0
 27 28  2  0  0  0
 12  5  1  0  0  0
  5  6  2  0  0  0
  5  7  1  0  0  0
  7  8  1  0  0  0
  8  9  1  0  0  0
  9 10  1  0  0  0
 10 11  1  0  0  0
 11  1  1  0  0  0
  1  2  2  0  0  0
  1  3  1  0  0  0
  3 29  1  0  0  0
 29 41  1  0  0  0
 41 42  1  0  0  0
 42 43  1  0  0  0
 43 44  1  0  0  0
 44 46  1  0  0  0
 46 47  1  0  0  0
 46 48  2  0  0  0
 29 30  1  0  0  0
 30 31  2  0  0  0
 30 32  1  0  0  0
 32 33  2  0  0  0
 33 34  1  0  0  0
 34 35  2  0  0  0
 35 36  1  0  0  0
 36 37  2  0  0  0
 37 38  1  0  0  0
 38 39  2  0  0  0
 39 40  1  0  0  0
 28 23  1  0  0  0
 11  7  1  0  0  0
 40 32  1  0  0  0
 39 34  1  0  0  0
 15 16  1  0  0  0
  3  4  1  0  0  0
 44 45  1  0  0  0
 47 49  1  0  0  0
 47 50  1  0  0  0
 48 51  1  0  0  0
M  END
> <minimizedAffinity>
-8.42363

> <CNNscore>
0.1486553699

> <CNNaffinity>
6.9312124252

> <CNN_VS>
1.0303618908

> <CNNaffinity_variance>
0.4398854673

$$$$
[H]c1c([H])c(-c2c([H])c([H])c3c(c2[H])C([H])([H])C([H])([H])N(c2c([H])c(Cl)c(OC([H])([H])[H])c(OC([H])([H])[H])c2[H])C3=O)c([H])c([H])c1C(=O)N([H])[H]


 33 36  0  0  0  0  0  0  0  0999 V2000
    0.6346   21.3833  -23.2067 C   0  0  0  0  0  0  0  0  0  0  0  0
   -0.7412   21.4737  -23.0694 C   0  0  0  0  0  0  0  0  0  0  0  0
   -1.5280   21.8365  -24.1616 C   0  0  0  0  0  0  0  0  0  0  0  0
   -0.9528   22.1061  -25.3773 C   0  0  0  0  0  0  0  0  0  0  0  0
    0.4094   22.0151  -25.5084 C   0  0  0  0  0  0  0  0  0  0  0  0
    1.1694   21.6623  -24.4438 C   0  0  0  0  0  0  0  0  0  0  0  0
   -1.7406   22.4801  -26.5376 C   0  0  0  0  0  0  0  0  0  0  0  0
   -1.2160   22.7275  -27.6508 O   0  0  0  0  0  0  0  0  0  0  0  0
   -3.1485   22.5553  -26.3597 N   0  0  0  0  0  0  0  0  0  0  0  0
   -3.7058   21.6976  -25.3288 C   0  0  0  0  0  0  0  0  0  0  0  0
   -3.0181   21.9427  -24.0168 C   0  0  0  0  0  0  0  0  0  0  0  0
   -3.9259   23.4267  -27.1634 C   0  0  0  0  0  0  0  0  0  0  0  0
   -4.3626   23.0485  -28.4261 C   0  0  0  0  0  0  0  0  0  0  0  0
   -5.1072   23.8907  -29.1931 C   0  0  0  0  0  0  0  0  0  0  0  0
   -5.6200   23.3423  -30.7739 Cl  0  0  0  0  0  0  0  0  0  0  0  0
   -5.4519   25.1511  -28.7370 C   0  0  0  0  0  0  0  0  0  0  0  0
   -5.0332   25.5611  -27.4823 C   0  0  0  0  0  0  0  0  0  0  0  0
   -4.2817   24.7041  -26.7146 C   0  0  0  0  0  0  0  0  0  0  0  0
   -6.2042   25.9699  -29.5426 O   0  0  0  0  0  0  0  0  0  0  0  0
   -5.6935   26.6420  -30.6570 C   0  0  0  0  0  0  0  0  0  0  0  0
   -5.3821   26.8206  -27.0364 O   0  0  0  0  0  0  0  0  0  0  0  0
   -5.1276   27.1592  -25.6981 C   0  0  0  0  0  0  0  0  0  0  0  0
    1.4787   21.0027  -22.0685 C   0  0  0  0  0  0  0  0  0  0  0  0
    2.7903   20.6118  -22.2597 C   0  0  0  0  0  0  0  0  0  0  0  0
    3.5704   20.2540  -21.1702 C   0  0  0  0  0  0  0  0  0  0  0  0
    3.0838   20.2719  -19.8810 C   0  0  0  0  0  0  0  0  0  0  0  0
    1.7752   20.6621  -19.6921 C   0  0  0  0  0  0  0  0  0  0  0  0
    0.9997   21.0196  -20.7930 C   0  0  0  0  0  0  0  0  0  0  0  0
    3.9458   19.8858  -18.7620 C   0  0  0  0  0  0  0  0  0  0  0  0
    5.1212   19.1262  -18.9352 N   0  0  0  0  0  0  0  0  0  0  0  0
    3.6193   20.2514  -17.5903 O   0  0  0  0  0  0  0  0  0  0  0  0
    5.0862   18.1972  -19.4072 H   0  0  0  0  0  0  0  0  0  0  0  0
    6.0126   19.5449  -18.5675 H   0  0  0  0  0  0  0  0  0  0  0  0
 23  1  1  0  0  0
  1  2  2  0  0  0
  2  3  1  0  0  0
  3  4  2  0  0  0
  4  5  1  0  0  0
  5  6  2  0  0  0
  4  7  1  0  0  0
  7  8  2  0  0  0
  7  9  1  0  0  0
  9 12  1  0  0  0
 12 13  2  0  0  0
 13 14  1  0  0  0
 14 15  1  0  0  0
 14 16  2  0  0  0
 16 19  1  0  0  0
 19 20  1  0  0  0
 16 17  1  0  0  0
 17 21  1  0  0  0
 21 22  1  0  0  0
 17 18  2  0  0  0
  9 10  1  0  0  0
 10 11  1  0  0  0
 23 24  2  0  0  0
 24 25  1  0  0  0
 25 26  2  0  0  0
 26 29  1  0  0  0
 29 30  1  0  0  0
 29 31  2  0  0  0
 26 27  1  0  0  0
 27 28  2  0  0  0
 28 23  1  0  0  0
  6  1  1  0  0  0
 18 12  1  0  0  0
 11  3  1  0  0  0
 30 32  1  0  0  0
 30 33  1  0  0  0
M  END
> <minimizedAffinity>
-9.22012

> <CNNscore>
0.7908191681

> <CNNaffinity>
7.0029425621

> <CNN_VS>
5.5380611420

> <CNNaffinity_variance>
0.4262279868

$$$$
[H]c1c([H])c(-c2c([H])c([H])c3c(c2[H])C([H])([H])C([H])([H])N(c2c([H])c(Cl)c(OC([H])([H])[H])c(OC([H])([H])[H])c2[H])C3=O)c([H])c([H])c1C(=O)N([H])[H]


 33 36  0  0  0  0  0  0  0  0999 V2000
   -1.4008   22.2215  -21.9829 C   0  0  0  0  0  0  0  0  0  0  0  0
   -2.6581   22.3566  -21.4167 C   0  0  0  0  0  0  0  0  0  0  0  0
   -2.8169   22.2398  -20.0365 C   0  0  0  0  0  0  0  0  0  0  0  0
   -1.7367   21.9916  -19.2283 C   0  0  0  0  0  0  0  0  0  0  0  0
   -0.4941   21.8589  -19.7934 C   0  0  0  0  0  0  0  0  0  0  0  0
   -0.3454   21.9731  -21.1351 C   0  0  0  0  0  0  0  0  0  0  0  0
   -1.8630   21.8705  -17.7874 C   0  0  0  0  0  0  0  0  0  0  0  0
   -0.8759   21.6430  -17.0462 O   0  0  0  0  0  0  0  0  0  0  0  0
   -3.1669   22.0221  -17.2428 N   0  0  0  0  0  0  0  0  0  0  0  0
   -4.0785   22.8614  -18.0003 C   0  0  0  0  0  0  0  0  0  0  0  0
   -4.1775   22.3784  -19.4185 C   0  0  0  0  0  0  0  0  0  0  0  0
   -3.5151   21.3777  -16.0292 C   0  0  0  0  0  0  0  0  0  0  0  0
   -3.5293   22.0661  -14.8234 C   0  0  0  0  0  0  0  0  0  0  0  0
   -3.8629   21.4408  -13.6616 C   0  0  0  0  0  0  0  0  0  0  0  0
   -3.8576   22.3756  -12.1822 Cl  0  0  0  0  0  0  0  0  0  0  0  0
   -4.1983   20.0981  -13.6471 C   0  0  0  0  0  0  0  0  0  0  0  0
   -4.1945   19.3807  -14.8316 C   0  0  0  0  0  0  0  0  0  0  0  0
   -3.8564   20.0203  -16.0000 C   0  0  0  0  0  0  0  0  0  0  0  0
   -4.5284   19.5054  -12.4534 O   0  0  0  0  0  0  0  0  0  0  0  0
   -5.8343   19.4322  -11.9597 C   0  0  0  0  0  0  0  0  0  0  0  0
   -4.5304   18.0416  -14.8066 O   0  0  0  0  0  0  0  0  0  0  0  0
   -3.5163   17.0862  -14.9777 C   0  0  0  0  0  0  0  0  0  0  0  0
   -1.2144   22.3416  -23.4334 C   0  0  0  0  0  0  0  0  0  0  0  0
    0.0359   22.1868  -24.0013 C   0  0  0  0  0  0  0  0  0  0  0  0
    0.1905   22.3064  -25.3744 C   0  0  0  0  0  0  0  0  0  0  0  0
   -0.8696   22.5783  -26.2120 C   0  0  0  0  0  0  0  0  0  0  0  0
   -2.1160   22.7323  -25.6436 C   0  0  0  0  0  0  0  0  0  0  0  0
   -2.2610   22.6104  -24.2633 C   0  0  0  0  0  0  0  0  0  0  0  0
   -0.6574   22.6950  -27.6561 C   0  0  0  0  0  0  0  0  0  0  0  0
   -1.6902   23.0455  -28.5500 N   0  0  0  0  0  0  0  0  0  0  0  0
    0.5041   22.4713  -28.1188 O   0  0  0  0  0  0  0  0  0  0  0  0
   -2.5706   22.4883  -28.5862 H   0  0  0  0  0  0  0  0  0  0  0  0
   -1.5207   23.8829  -29.1624 H   0  0  0  0  0  0  0  0  0  0  0  0
 23  1  1  0  0  0
  1  2  2  0  0  0
  2  3  1  0  0  0
  3  4  2  0  0  0
  4  5  1  0  0  0
  5  6  2  0  0  0
  4  7  1  0  0  0
  7  8  2  0  0  0
  7  9  1  0  0  0
  9 12  1  0  0  0
 12 13  2  0  0  0
 13 14  1  0  0  0
 14 15  1  0  0  0
 14 16  2  0  0  0
 16 19  1  0  0  0
 19 20  1  0  0  0
 16 17  1  0  0  0
 17 21  1  0  0  0
 21 22  1  0  0  0
 17 18  2  0  0  0
  9 10  1  0  0  0
 10 11  1  0  0  0
 23 24  2  0  0  0
 24 25  1  0  0  0
 25 26  2  0  0  0
 26 29  1  0  0  0
 29 30  1  0  0  0
 29 31  2  0  0  0
 26 27  1  0  0  0
 27 28  2  0  0  0
 28 23  1  0  0  0
  6  1  1  0  0  0
 18 12  1  0  0  0
 11  3  1  0  0  0
 30 32  1  0  0  0
 30 33  1  0  0  0
M  END
> <minimizedAffinity>
-5.71011

> <CNNscore>
0.5196120739

> <CNNaffinity>
5.8888473511

> <CNN_VS>
3.0599162579

> <CNNaffinity_variance>
0.4395072460

$$$$
[H]c1c([H])c(-c2c([H])c([H])c3c(c2[H])C([H])([H])C([H])([H])N(c2c([H])c(Cl)c(OC([H])([H])[H])c(OC([H])([H])[H])c2[H])C3=O)c([H])c([H])c1C(=O)N([H])[H]


 33 36  0  0  0  0  0  0  0  0999 V2000
   -0.2172   21.2385  -22.3919 C   0  0  0  0  0  0  0  0  0  0  0  0
   -1.5992   21.2511  -22.4895 C   0  0  0  0  0  0  0  0  0  0  0  0
   -2.2103   21.6596  -23.6742 C   0  0  0  0  0  0  0  0  0  0  0  0
   -1.4548   22.0508  -24.7502 C   0  0  0  0  0  0  0  0  0  0  0  0
   -0.0872   22.0365  -24.6488 C   0  0  0  0  0  0  0  0  0  0  0  0
    0.5015   21.6388  -23.4952 C   0  0  0  0  0  0  0  0  0  0  0  0
   -2.0559   22.4757  -26.0012 C   0  0  0  0  0  0  0  0  0  0  0  0
   -1.3664   22.8345  -26.9868 O   0  0  0  0  0  0  0  0  0  0  0  0
   -3.4756   22.4685  -26.0657 N   0  0  0  0  0  0  0  0  0  0  0  0
   -4.1460   21.5068  -25.2085 C   0  0  0  0  0  0  0  0  0  0  0  0
   -3.7070   21.6817  -23.7833 C   0  0  0  0  0  0  0  0  0  0  0  0
   -4.1573   23.3613  -26.9304 C   0  0  0  0  0  0  0  0  0  0  0  0
   -4.5100   22.9897  -28.2210 C   0  0  0  0  0  0  0  0  0  0  0  0
   -5.1629   23.8525  -29.0465 C   0  0  0  0  0  0  0  0  0  0  0  0
   -5.5734   23.3112  -30.6593 Cl  0  0  0  0  0  0  0  0  0  0  0  0
   -5.4953   25.1277  -28.6239 C   0  0  0  0  0  0  0  0  0  0  0  0
   -5.1587   25.5317  -27.3427 C   0  0  0  0  0  0  0  0  0  0  0  0
   -4.4996   24.6539  -26.5160 C   0  0  0  0  0  0  0  0  0  0  0  0
   -6.1538   25.9671  -29.4883 O   0  0  0  0  0  0  0  0  0  0  0  0
   -5.5348   26.6151  -30.5613 C   0  0  0  0  0  0  0  0  0  0  0  0
   -5.4946   26.8061  -26.9306 O   0  0  0  0  0  0  0  0  0  0  0  0
   -5.0744   27.2403  -25.6635 C   0  0  0  0  0  0  0  0  0  0  0  0
    0.4434   20.8115  -21.1532 C   0  0  0  0  0  0  0  0  0  0  0  0
    0.0287   21.2955  -19.9270 C   0  0  0  0  0  0  0  0  0  0  0  0
    0.6682   20.8806  -18.7684 C   0  0  0  0  0  0  0  0  0  0  0  0
    1.7194   19.9896  -18.7885 C   0  0  0  0  0  0  0  0  0  0  0  0
    2.1317   19.5079  -20.0125 C   0  0  0  0  0  0  0  0  0  0  0  0
    1.4829   19.9308  -21.1707 C   0  0  0  0  0  0  0  0  0  0  0  0
    2.3632   19.5804  -17.5387 C   0  0  0  0  0  0  0  0  0  0  0  0
    1.9241   20.0282  -16.2756 N   0  0  0  0  0  0  0  0  0  0  0  0
    3.3561   18.7905  -17.5977 O   0  0  0  0  0  0  0  0  0  0  0  0
    1.8602   21.0480  -16.0685 H   0  0  0  0  0  0  0  0  0  0  0  0
    1.6718   19.2877  -15.5735 H   0  0  0  0  0  0  0  0  0  0  0  0
 23  1  1  0  0  0
  1  2  2  0  0  0
  2  3  1  0  0  0
  3  4  2  0  0  0
  4  5  1  0  0  0
  5  6  2  0  0  0
  4  7  1  0  0  0
  7  8  2  0  0  0
  7  9  1  0  0  0
  9 12  1  0  0  0
 12 13  2  0  0  0
 13 14  1  0  0  0
 14 15  1  0  0  0
 14 16  2  0  0  0
 16 19  1  0  0  0
 19 20  1  0  0  0
 16 17  1  0  0  0
 17 21  1  0  0  0
 21 22  1  0  0  0
 17 18  2  0  0  0
  9 10  1  0  0  0
 10 11  1  0  0  0
 23 24  2  0  0  0
 24 25  1  0  0  0
 25 26  2  0  0  0
 26 29  1  0  0  0
 29 30  1  0  0  0
 29 31  2  0  0  0
 26 27  1  0  0  0
 27 28  2  0  0  0
 28 23  1  0  0  0
  6  1  1  0  0  0
 18 12  1  0  0  0
 11  3  1  0  0  0
 30 32  1  0  0  0
 30 33  1  0  0  0
M  END
> <minimizedAffinity>
-8.54452

> <CNNscore>
0.4799765050

> <CNNaffinity>
6.7352919579

> <CNN_VS>
3.2327818871

> <CNNaffinity_variance>
0.6946997643

$$$$
[H]c1c([H])c(-c2c([H])c([H])c3c(c2[H])C([H])([H])C([H])([H])N(c2c([H])c(Cl)c(OC([H])([H])[H])c(OC([H])([H])[H])c2[H])C3=O)c([H])c([H])c1C(=O)N([H])[H]


 33 36  0  0  0  0  0  0  0  0999 V2000
    1.1311   22.2032  -18.5720 C   0  0  0  0  0  0  0  0  0  0  0  0
   -0.1049   22.6743  -18.9840 C   0  0  0  0  0  0  0  0  0  0  0  0
   -0.5684   22.3854  -20.2668 C   0  0  0  0  0  0  0  0  0  0  0  0
    0.1893   21.6357  -21.1301 C   0  0  0  0  0  0  0  0  0  0  0  0
    1.4121   21.1715  -20.7177 C   0  0  0  0  0  0  0  0  0  0  0  0
    1.8577   21.4553  -19.4702 C   0  0  0  0  0  0  0  0  0  0  0  0
   -0.2636   21.3096  -22.4701 C   0  0  0  0  0  0  0  0  0  0  0  0
    0.4284   20.6241  -23.2617 O   0  0  0  0  0  0  0  0  0  0  0  0
   -1.5393   21.8043  -22.8541 N   0  0  0  0  0  0  0  0  0  0  0  0
   -2.4922   22.0091  -21.7774 C   0  0  0  0  0  0  0  0  0  0  0  0
   -1.9036   22.8988  -20.7207 C   0  0  0  0  0  0  0  0  0  0  0  0
   -1.8245   22.0664  -24.2177 C   0  0  0  0  0  0  0  0  0  0  0  0
   -0.8098   22.1930  -25.1570 C   0  0  0  0  0  0  0  0  0  0  0  0
   -1.0907   22.4465  -26.4643 C   0  0  0  0  0  0  0  0  0  0  0  0
    0.2425   22.5930  -27.5886 Cl  0  0  0  0  0  0  0  0  0  0  0  0
   -2.3978   22.5859  -26.8973 C   0  0  0  0  0  0  0  0  0  0  0  0
   -3.4347   22.4658  -25.9872 C   0  0  0  0  0  0  0  0  0  0  0  0
   -3.1419   22.2097  -24.6692 C   0  0  0  0  0  0  0  0  0  0  0  0
   -2.6376   22.8415  -28.2248 O   0  0  0  0  0  0  0  0  0  0  0  0
   -3.2624   24.0025  -28.6897 C   0  0  0  0  0  0  0  0  0  0  0  0
   -4.7354   22.6067  -26.4290 O   0  0  0  0  0  0  0  0  0  0  0  0
   -5.6876   23.1659  -25.5623 C   0  0  0  0  0  0  0  0  0  0  0  0
    1.6352   22.4970  -17.2256 C   0  0  0  0  0  0  0  0  0  0  0  0
    0.9886   22.0091  -16.1059 C   0  0  0  0  0  0  0  0  0  0  0  0
    1.4805   22.3004  -14.8423 C   0  0  0  0  0  0  0  0  0  0  0  0
    2.6076   23.0704  -14.6524 C   0  0  0  0  0  0  0  0  0  0  0  0
    3.2512   23.5562  -15.7705 C   0  0  0  0  0  0  0  0  0  0  0  0
    2.7492   23.2581  -17.0355 C   0  0  0  0  0  0  0  0  0  0  0  0
    3.0896   23.3509  -13.2985 C   0  0  0  0  0  0  0  0  0  0  0  0
    4.1794   22.6658  -12.7227 N   0  0  0  0  0  0  0  0  0  0  0  0
    2.5008   24.2475  -12.6183 O   0  0  0  0  0  0  0  0  0  0  0  0
    4.1733   21.6256  -12.6525 H   0  0  0  0  0  0  0  0  0  0  0  0
    4.9784   23.2551  -12.3773 H   0  0  0  0  0  0  0  0  0  0  0  0
 23  1  1  0  0  0
  1  2  2  0  0  0
  2  3  1  0  0  0
  3  4  2  0  0  0
  4  5  1  0  0  0
  5  6  2  0  0  0
  4  7  1  0  0  0
  7  8  2  0  0  0
  7  9  1  0  0  0
  9 12  1  0  0  0
 12 13  2  0  0  0
 13 14  1  0  0  0
 14 15  1  0  0  0
 14 16  2  0  0  0
 16 19  1  0  0  0
 19 20  1  0  0  0
 16 17  1  0  0  0
 17 21  1  0  0  0
 21 22  1  0  0  0
 17 18  2  0  0  0
  9 10  1  0  0  0
 10 11  1  0  0  0
 23 24  2  0  0  0
 24 25  1  0  0  0
 25 26  2  0  0  0
 26 29  1  0  0  0
 29 30  1  0  0  0
 29 31  2  0  0  0
 26 27  1  0  0  0
 27 28  2  0  0  0
 28 23  1  0  0  0
  6  1  1  0  0  0
 18 12  1  0  0  0
 11  3  1  0  0  0
 30 32  1  0  0  0
 30 33  1  0  0  0
M  END
> <minimizedAffinity>
-7.38232

> <CNNscore>
0.4158598483

> <CNNaffinity>
5.9300441742

> <CNN_VS>
2.4660673141

> <CNNaffinity_variance>
0.1104516536

$$$$
[H]c1c([H])c(-c2c([H])c([H])c3c(c2[H])C([H])([H])C([H])([H])N(c2c([H])c(Cl)c(OC([H])([H])[H])c(OC([H])([H])[H])c2[H])C3=O)c([H])c([H])c1C(=O)N([H])[H]


 33 36  0  0  0  0  0  0  0  0999 V2000
    0.2340   22.3550  -19.7261 C   0  0  0  0  0  0  0  0  0  0  0  0
   -0.9793   22.9917  -19.9312 C   0  0  0  0  0  0  0  0  0  0  0  0
   -1.6661   22.8126  -21.1312 C   0  0  0  0  0  0  0  0  0  0  0  0
   -1.1516   22.0086  -22.1164 C   0  0  0  0  0  0  0  0  0  0  0  0
    0.0497   21.3804  -21.9086 C   0  0  0  0  0  0  0  0  0  0  0  0
    0.7129   21.5580  -20.7408 C   0  0  0  0  0  0  0  0  0  0  0  0
   -1.8415   21.7935  -23.3752 C   0  0  0  0  0  0  0  0  0  0  0  0
   -1.3723   21.0585  -24.2781 O   0  0  0  0  0  0  0  0  0  0  0  0
   -3.0863   22.4574  -23.5460 N   0  0  0  0  0  0  0  0  0  0  0  0
   -3.8297   22.7372  -22.3301 C   0  0  0  0  0  0  0  0  0  0  0  0
   -2.9775   23.5052  -21.3614 C   0  0  0  0  0  0  0  0  0  0  0  0
   -3.5398   22.8057  -24.8431 C   0  0  0  0  0  0  0  0  0  0  0  0
   -2.6695   22.8551  -25.9240 C   0  0  0  0  0  0  0  0  0  0  0  0
   -3.1112   23.1919  -27.1664 C   0  0  0  0  0  0  0  0  0  0  0  0
   -1.9538   23.2326  -28.4784 Cl  0  0  0  0  0  0  0  0  0  0  0  0
   -4.4428   23.4957  -27.3901 C   0  0  0  0  0  0  0  0  0  0  0  0
   -5.3385   23.4565  -26.3346 C   0  0  0  0  0  0  0  0  0  0  0  0
   -4.8837   23.1153  -25.0835 C   0  0  0  0  0  0  0  0  0  0  0  0
   -4.8471   23.8309  -28.6587 O   0  0  0  0  0  0  0  0  0  0  0  0
   -5.3045   22.9011  -29.5972 C   0  0  0  0  0  0  0  0  0  0  0  0
   -6.6649   23.7615  -26.5680 O   0  0  0  0  0  0  0  0  0  0  0  0
   -7.3702   24.4968  -25.6024 C   0  0  0  0  0  0  0  0  0  0  0  0
    0.9708   22.5315  -18.4695 C   0  0  0  0  0  0  0  0  0  0  0  0
    2.1230   23.2933  -18.4258 C   0  0  0  0  0  0  0  0  0  0  0  0
    2.8055   23.4456  -17.2281 C   0  0  0  0  0  0  0  0  0  0  0  0
    2.3754   22.8584  -16.0579 C   0  0  0  0  0  0  0  0  0  0  0  0
    1.2259   22.0989  -16.1034 C   0  0  0  0  0  0  0  0  0  0  0  0
    0.5475   21.9518  -17.3114 C   0  0  0  0  0  0  0  0  0  0  0  0
    3.1294   23.0482  -14.8171 C   0  0  0  0  0  0  0  0  0  0  0  0
    2.7148   23.9380  -13.8046 N   0  0  0  0  0  0  0  0  0  0  0  0
    4.1985   22.3835  -14.6488 O   0  0  0  0  0  0  0  0  0  0  0  0
    2.5504   24.9448  -14.0196 H   0  0  0  0  0  0  0  0  0  0  0  0
    2.5854   23.5325  -12.8434 H   0  0  0  0  0  0  0  0  0  0  0  0
 23  1  1  0  0  0
  1  2  2  0  0  0
  2  3  1  0  0  0
  3  4  2  0  0  0
  4  5  1  0  0  0
  5  6  2  0  0  0
  4  7  1  0  0  0
  7  8  2  0  0  0
  7  9  1  0  0  0
  9 12  1  0  0  0
 12 13  2  0  0  0
 13 14  1  0  0  0
 14 15  1  0  0  0
 14 16  2  0  0  0
 16 19  1  0  0  0
 19 20  1  0  0  0
 16 17  1  0  0  0
 17 21  1  0  0  0
 21 22  1  0  0  0
 17 18  2  0  0  0
  9 10  1  0  0  0
 10 11  1  0  0  0
 23 24  2  0  0  0
 24 25  1  0  0  0
 25 26  2  0  0  0
 26 29  1  0  0  0
 29 30  1  0  0  0
 29 31  2  0  0  0
 26 27  1  0  0  0
 27 28  2  0  0  0
 28 23  1  0  0  0
  6  1  1  0  0  0
 18 12  1  0  0  0
 11  3  1  0  0  0
 30 32  1  0  0  0
 30 33  1  0  0  0
M  END
> <minimizedAffinity>
-7.67463

> <CNNscore>
0.3875290155

> <CNNaffinity>
6.2636427879

> <CNN_VS>
2.4273433685

> <CNNaffinity_variance>
0.3337334991

$$$$
[H]c1c([H])c(-c2c([H])c([H])c3c(c2[H])C([H])([H])C([H])([H])N(c2c([H])c(Cl)c(OC([H])([H])[H])c(OC([H])([H])[H])c2[H])C3=O)c([H])c([H])c1C(=O)N([H])[H]


 33 36  0  0  0  0  0  0  0  0999 V2000
   -1.6789   22.4608  -19.9462 C   0  0  0  0  0  0  0  0  0  0  0  0
   -0.4935   23.1362  -19.7049 C   0  0  0  0  0  0  0  0  0  0  0  0
    0.2896   22.7972  -18.6024 C   0  0  0  0  0  0  0  0  0  0  0  0
   -0.1020   21.7969  -17.7494 C   0  0  0  0  0  0  0  0  0  0  0  0
   -1.2762   21.1311  -17.9925 C   0  0  0  0  0  0  0  0  0  0  0  0
   -2.0334   21.4647  -19.0651 C   0  0  0  0  0  0  0  0  0  0  0  0
    0.6906   21.4123  -16.5959 C   0  0  0  0  0  0  0  0  0  0  0  0
    0.3338   20.4976  -15.8139 O   0  0  0  0  0  0  0  0  0  0  0  0
    1.9033   22.1227  -16.3853 N   0  0  0  0  0  0  0  0  0  0  0  0
    2.5367   22.6656  -17.5741 C   0  0  0  0  0  0  0  0  0  0  0  0
    1.5712   23.5300  -18.3324 C   0  0  0  0  0  0  0  0  0  0  0  0
    2.4301   22.2675  -15.0772 C   0  0  0  0  0  0  0  0  0  0  0  0
    2.0827   23.3450  -14.2732 C   0  0  0  0  0  0  0  0  0  0  0  0
    2.5937   23.4787  -13.0189 C   0  0  0  0  0  0  0  0  0  0  0  0
    2.1085   24.8641  -12.0661 Cl  0  0  0  0  0  0  0  0  0  0  0  0
    3.4760   22.5436  -12.5065 C   0  0  0  0  0  0  0  0  0  0  0  0
    3.8443   21.4564  -13.2812 C   0  0  0  0  0  0  0  0  0  0  0  0
    3.3234   21.3293  -14.5465 C   0  0  0  0  0  0  0  0  0  0  0  0
    3.9685   22.7162  -11.2365 O   0  0  0  0  0  0  0  0  0  0  0  0
    5.1750   23.3637  -10.9547 C   0  0  0  0  0  0  0  0  0  0  0  0
    4.7254   20.5291  -12.7611 O   0  0  0  0  0  0  0  0  0  0  0  0
    5.2979   19.5813  -13.6239 C   0  0  0  0  0  0  0  0  0  0  0  0
   -2.5159   22.8038  -21.1016 C   0  0  0  0  0  0  0  0  0  0  0  0
   -3.7338   22.1823  -21.3025 C   0  0  0  0  0  0  0  0  0  0  0  0
   -4.5084   22.5197  -22.4023 C   0  0  0  0  0  0  0  0  0  0  0  0
   -4.1076   23.4659  -23.3205 C   0  0  0  0  0  0  0  0  0  0  0  0
   -2.8925   24.0848  -23.1185 C   0  0  0  0  0  0  0  0  0  0  0  0
   -2.1216   23.7389  -22.0107 C   0  0  0  0  0  0  0  0  0  0  0  0
   -4.9601   23.7892  -24.4663 C   0  0  0  0  0  0  0  0  0  0  0  0
   -4.4367   24.1542  -25.7239 N   0  0  0  0  0  0  0  0  0  0  0  0
   -6.2206   23.7377  -24.3185 O   0  0  0  0  0  0  0  0  0  0  0  0
   -3.7806   24.9597  -25.8105 H   0  0  0  0  0  0  0  0  0  0  0  0
   -4.7421   23.5774  -26.5480 H   0  0  0  0  0  0  0  0  0  0  0  0
 23  1  1  0  0  0
  1  2  2  0  0  0
  2  3  1  0  0  0
  3  4  2  0  0  0
  4  5  1  0  0  0
  5  6  2  0  0  0
  4  7  1  0  0  0
  7  8  2  0  0  0
  7  9  1  0  0  0
  9 12  1  0  0  0
 12 13  2  0  0  0
 13 14  1  0  0  0
 14 15  1  0  0  0
 14 16  2  0  0  0
 16 19  1  0  0  0
 19 20  1  0  0  0
 16 17  1  0  0  0
 17 21  1  0  0  0
 21 22  1  0  0  0
 17 18  2  0  0  0
  9 10  1  0  0  0
 10 11  1  0  0  0
 23 24  2  0  0  0
 24 25  1  0  0  0
 25 26  2  0  0  0
 26 29  1  0  0  0
 29 30  1  0  0  0
 29 31  2  0  0  0
 26 27  1  0  0  0
 27 28  2  0  0  0
 28 23  1  0  0  0
  6  1  1  0  0  0
 18 12  1  0  0  0
 11  3  1  0  0  0
 30 32  1  0  0  0
 30 33  1  0  0  0
M  END
> <minimizedAffinity>
-5.55628

> <CNNscore>
0.2967590690

> <CNNaffinity>
5.1021623611

> <CNN_VS>
1.5141129494

> <CNNaffinity_variance>
0.1742096543

$$$$
[H]c1c([H])c(-c2c([H])c([H])c3c(c2[H])C([H])([H])C([H])([H])N(c2c([H])c(Cl)c(OC([H])([H])[H])c(OC([H])([H])[H])c2[H])C3=O)c([H])c([H])c1C(=O)N([H])[H]


 33 36  0  0  0  0  0  0  0  0999 V2000
   -0.2180   22.3417  -19.4457 C   0  0  0  0  0  0  0  0  0  0  0  0
   -1.1437   22.6830  -18.4730 C   0  0  0  0  0  0  0  0  0  0  0  0
   -2.5077   22.5803  -18.7426 C   0  0  0  0  0  0  0  0  0  0  0  0
   -2.9461   22.1426  -19.9665 C   0  0  0  0  0  0  0  0  0  0  0  0
   -2.0260   21.8059  -20.9261 C   0  0  0  0  0  0  0  0  0  0  0  0
   -0.7017   21.9077  -20.6589 C   0  0  0  0  0  0  0  0  0  0  0  0
   -4.3576   22.0168  -20.2805 C   0  0  0  0  0  0  0  0  0  0  0  0
   -4.7608   21.6169  -21.3999 O   0  0  0  0  0  0  0  0  0  0  0  0
   -5.2766   22.3691  -19.2554 N   0  0  0  0  0  0  0  0  0  0  0  0
   -4.8017   22.2070  -17.8925 C   0  0  0  0  0  0  0  0  0  0  0  0
   -3.5149   22.9550  -17.6950 C   0  0  0  0  0  0  0  0  0  0  0  0
   -6.5707   22.8438  -19.5864 C   0  0  0  0  0  0  0  0  0  0  0  0
   -7.7139   22.2349  -19.0860 C   0  0  0  0  0  0  0  0  0  0  0  0
   -8.9533   22.6948  -19.4092 C   0  0  0  0  0  0  0  0  0  0  0  0
  -10.3462   21.8741  -18.7391 Cl  0  0  0  0  0  0  0  0  0  0  0  0
   -9.1117   23.7844  -20.2476 C   0  0  0  0  0  0  0  0  0  0  0  0
   -7.9930   24.4159  -20.7650 C   0  0  0  0  0  0  0  0  0  0  0  0
   -6.7454   23.9449  -20.4331 C   0  0  0  0  0  0  0  0  0  0  0  0
  -10.3798   24.2163  -20.5488 O   0  0  0  0  0  0  0  0  0  0  0  0
  -11.0744   25.1663  -19.7943 C   0  0  0  0  0  0  0  0  0  0  0  0
   -8.1615   25.5022  -21.6007 O   0  0  0  0  0  0  0  0  0  0  0  0
   -7.4294   25.5555  -22.7972 C   0  0  0  0  0  0  0  0  0  0  0  0
    1.2215   22.4431  -19.1799 C   0  0  0  0  0  0  0  0  0  0  0  0
    1.7215   23.4381  -18.3614 C   0  0  0  0  0  0  0  0  0  0  0  0
    3.0858   23.5174  -18.1249 C   0  0  0  0  0  0  0  0  0  0  0  0
    3.9806   22.6296  -18.6819 C   0  0  0  0  0  0  0  0  0  0  0  0
    3.4800   21.6378  -19.4980 C   0  0  0  0  0  0  0  0  0  0  0  0
    2.1080   21.5666  -19.7295 C   0  0  0  0  0  0  0  0  0  0  0  0
    5.4127   22.7530  -18.4026 C   0  0  0  0  0  0  0  0  0  0  0  0
    5.9141   23.0386  -17.1158 N   0  0  0  0  0  0  0  0  0  0  0  0
    6.2333   22.5959  -19.3592 O   0  0  0  0  0  0  0  0  0  0  0  0
    5.6012   23.8906  -16.6030 H   0  0  0  0  0  0  0  0  0  0  0  0
    6.6059   22.3554  -16.7162 H   0  0  0  0  0  0  0  0  0  0  0  0
 23  1  1  0  0  0
  1  2  2  0  0  0
  2  3  1  0  0  0
  3  4  2  0  0  0
  4  5  1  0  0  0
  5  6  2  0  0  0
  4  7  1  0  0  0
  7  8  2  0  0  0
  7  9  1  0  0  0
  9 12  1  0  0  0
 12 13  2  0  0  0
 13 14  1  0  0  0
 14 15  1  0  0  0
 14 16  2  0  0  0
 16 19  1  0  0  0
 19 20  1  0  0  0
 16 17  1  0  0  0
 17 21  1  0  0  0
 21 22  1  0  0  0
 17 18  2  0  0  0
  9 10  1  0  0  0
 10 11  1  0  0  0
 23 24  2  0  0  0
 24 25  1  0  0  0
 25 26  2  0  0  0
 26 29  1  0  0  0
 29 30  1  0  0  0
 29 31  2  0  0  0
 26 27  1  0  0  0
 27 28  2  0  0  0
 28 23  1  0  0  0
  6  1  1  0  0  0
 18 12  1  0  0  0
 11  3  1  0  0  0
 30 32  1  0  0  0
 30 33  1  0  0  0
M  END
> <minimizedAffinity>
-5.67972

> <CNNscore>
0.2827469409

> <CNNaffinity>
5.2311124802

> <CNN_VS>
1.4790810347

> <CNNaffinity_variance>
0.1811409295

$$$$
[H]c1c([H])c(-c2c([H])c([H])c3c(c2[H])C([H])([H])C([H])([H])N(c2c([H])c(Cl)c(OC([H])([H])[H])c(OC([H])([H])[H])c2[H])C3=O)c([H])c([H])c1C(=O)N([H])[H]


 33 36  0  0  0  0  0  0  0  0999 V2000
   -1.6788   22.5402  -19.7231 C   0  0  0  0  0  0  0  0  0  0  0  0
   -0.4010   23.0635  -19.6092 C   0  0  0  0  0  0  0  0  0  0  0  0
    0.3660   22.7891  -18.4778 C   0  0  0  0  0  0  0  0  0  0  0  0
   -0.1325   22.0024  -17.4707 C   0  0  0  0  0  0  0  0  0  0  0  0
   -1.3979   21.4866  -17.5881 C   0  0  0  0  0  0  0  0  0  0  0  0
   -2.1390   21.7565  -18.6895 C   0  0  0  0  0  0  0  0  0  0  0  0
    0.6393   21.6900  -16.2818 C   0  0  0  0  0  0  0  0  0  0  0  0
    0.1848   20.9707  -15.3590 O   0  0  0  0  0  0  0  0  0  0  0  0
    1.9480   22.2387  -16.2042 N   0  0  0  0  0  0  0  0  0  0  0  0
    2.6079   22.4908  -17.4731 C   0  0  0  0  0  0  0  0  0  0  0  0
    1.7482   23.3588  -18.3460 C   0  0  0  0  0  0  0  0  0  0  0  0
    2.5382   22.5065  -14.9435 C   0  0  0  0  0  0  0  0  0  0  0  0
    3.8499   22.1437  -14.6677 C   0  0  0  0  0  0  0  0  0  0  0  0
    4.4097   22.4023  -13.4545 C   0  0  0  0  0  0  0  0  0  0  0  0
    6.0682   21.9142  -13.1825 Cl  0  0  0  0  0  0  0  0  0  0  0  0
    3.6876   23.0354  -12.4580 C   0  0  0  0  0  0  0  0  0  0  0  0
    2.3766   23.4111  -12.6987 C   0  0  0  0  0  0  0  0  0  0  0  0
    1.8194   23.1461  -13.9266 C   0  0  0  0  0  0  0  0  0  0  0  0
    4.2900   23.2773  -11.2481 O   0  0  0  0  0  0  0  0  0  0  0  0
    4.2582   22.3828  -10.1741 C   0  0  0  0  0  0  0  0  0  0  0  0
    1.6645   24.0420  -11.6979 O   0  0  0  0  0  0  0  0  0  0  0  0
    0.7229   23.3007  -10.9668 C   0  0  0  0  0  0  0  0  0  0  0  0
   -2.5005   22.8181  -20.9066 C   0  0  0  0  0  0  0  0  0  0  0  0
   -2.0499   23.6708  -21.8964 C   0  0  0  0  0  0  0  0  0  0  0  0
   -2.8434   23.9215  -23.0060 C   0  0  0  0  0  0  0  0  0  0  0  0
   -4.0852   23.3458  -23.1662 C   0  0  0  0  0  0  0  0  0  0  0  0
   -4.5329   22.4955  -22.1778 C   0  0  0  0  0  0  0  0  0  0  0  0
   -3.7285   22.2501  -21.0670 C   0  0  0  0  0  0  0  0  0  0  0  0
   -4.8867   23.6405  -24.3556 C   0  0  0  0  0  0  0  0  0  0  0  0
   -6.2927   23.5323  -24.3704 N   0  0  0  0  0  0  0  0  0  0  0  0
   -4.2892   24.0082  -25.4143 O   0  0  0  0  0  0  0  0  0  0  0  0
   -6.7573   22.6356  -24.1116 H   0  0  0  0  0  0  0  0  0  0  0  0
   -6.8295   24.3912  -24.6517 H   0  0  0  0  0  0  0  0  0  0  0  0
 23  1  1  0  0  0
  1  2  2  0  0  0
  2  3  1  0  0  0
  3  4  2  0  0  0
  4  5  1  0  0  0
  5  6  2  0  0  0
  4  7  1  0  0  0
  7  8  2  0  0  0
  7  9  1  0  0  0
  9 12  1  0  0  0
 12 13  2  0  0  0
 13 14  1  0  0  0
 14 15  1  0  0  0
 14 16  2  0  0  0
 16 19  1  0  0  0
 19 20  1  0  0  0
 16 17  1  0  0  0
 17 21  1  0  0  0
 21 22  1  0  0  0
 17 18  2  0  0  0
  9 10  1  0  0  0
 10 11  1  0  0  0
 23 24  2  0  0  0
 24 25  1  0  0  0
 25 26  2  0  0  0
 26 29  1  0  0  0
 29 30  1  0  0  0
 29 31  2  0  0  0
 26 27  1  0  0  0
 27 28  2  0  0  0
 28 23  1  0  0  0
  6  1  1  0  0  0
 18 12  1  0  0  0
 11  3  1  0  0  0
 30 32  1  0  0  0
 30 33  1  0  0  0
M  END
> <minimizedAffinity>
-5.76458

> <CNNscore>
0.2403808534

> <CNNaffinity>
5.1027398109

> <CNN_VS>
1.2266010046

> <CNNaffinity_variance>
0.1476151198

$$$$
[H]c1c([H])c(-c2c([H])c([H])c3c(c2[H])C([H])([H])C([H])([H])N(c2c([H])c(Cl)c(OC([H])([H])[H])c(OC([H])([H])[H])c2[H])C3=O)c([H])c([H])c1C(=O)N([H])[H]


 33 36  0  0  0  0  0  0  0  0999 V2000
    0.3653   21.5317  -23.5836 C   0  0  0  0  0  0  0  0  0  0  0  0
   -0.3143   21.3837  -22.3854 C   0  0  0  0  0  0  0  0  0  0  0  0
    0.3752   20.9994  -21.2362 C   0  0  0  0  0  0  0  0  0  0  0  0
    1.7261   20.7651  -21.2784 C   0  0  0  0  0  0  0  0  0  0  0  0
    2.3945   20.9131  -22.4668 C   0  0  0  0  0  0  0  0  0  0  0  0
    1.7196   21.2865  -23.5805 C   0  0  0  0  0  0  0  0  0  0  0  0
    2.4777   20.3703  -20.1011 C   0  0  0  0  0  0  0  0  0  0  0  0
    3.7138   20.1551  -20.1377 O   0  0  0  0  0  0  0  0  0  0  0  0
    1.7477   20.2358  -18.8893 N   0  0  0  0  0  0  0  0  0  0  0  0
    0.5581   21.0602  -18.7689 C   0  0  0  0  0  0  0  0  0  0  0  0
   -0.3571   20.8310  -19.9370 C   0  0  0  0  0  0  0  0  0  0  0  0
    2.1900   19.3410  -17.8827 C   0  0  0  0  0  0  0  0  0  0  0  0
    2.8362   19.7986  -16.7420 C   0  0  0  0  0  0  0  0  0  0  0  0
    3.2599   18.9338  -15.7803 C   0  0  0  0  0  0  0  0  0  0  0  0
    4.0670   19.5866  -14.3714 Cl  0  0  0  0  0  0  0  0  0  0  0  0
    3.0592   17.5707  -15.9106 C   0  0  0  0  0  0  0  0  0  0  0  0
    2.4181   17.0796  -17.0357 C   0  0  0  0  0  0  0  0  0  0  0  0
    1.9936   17.9601  -18.0016 C   0  0  0  0  0  0  0  0  0  0  0  0
    3.5024   16.7327  -14.9174 O   0  0  0  0  0  0  0  0  0  0  0  0
    2.7209   16.3443  -13.8253 C   0  0  0  0  0  0  0  0  0  0  0  0
    2.2228   15.7180  -17.1565 O   0  0  0  0  0  0  0  0  0  0  0  0
    1.5562   15.2279  -18.2905 C   0  0  0  0  0  0  0  0  0  0  0  0
   -0.3436   21.9356  -24.8032 C   0  0  0  0  0  0  0  0  0  0  0  0
    0.3512   22.3919  -25.9072 C   0  0  0  0  0  0  0  0  0  0  0  0
   -0.3385   22.7708  -27.0493 C   0  0  0  0  0  0  0  0  0  0  0  0
   -1.7129   22.7106  -27.1313 C   0  0  0  0  0  0  0  0  0  0  0  0
   -2.4042   22.2551  -26.0291 C   0  0  0  0  0  0  0  0  0  0  0  0
   -1.7023   21.8769  -24.8865 C   0  0  0  0  0  0  0  0  0  0  0  0
   -2.3970   23.1211  -28.3591 C   0  0  0  0  0  0  0  0  0  0  0  0
   -3.7960   23.0350  -28.5145 N   0  0  0  0  0  0  0  0  0  0  0  0
   -1.7002   23.5726  -29.3202 O   0  0  0  0  0  0  0  0  0  0  0  0
   -4.2883   22.1256  -28.3817 H   0  0  0  0  0  0  0  0  0  0  0  0
   -4.2988   23.9230  -28.7666 H   0  0  0  0  0  0  0  0  0  0  0  0
 23  1  1  0  0  0
  1  2  2  0  0  0
  2  3  1  0  0  0
  3  4  2  0  0  0
  4  5  1  0  0  0
  5  6  2  0  0  0
  4  7  1  0  0  0
  7  8  2  0  0  0
  7  9  1  0  0  0
  9 12  1  0  0  0
 12 13  2  0  0  0
 13 14  1  0  0  0
 14 15  1  0  0  0
 14 16  2  0  0  0
 16 19  1  0  0  0
 19 20  1  0  0  0
 16 17  1  0  0  0
 17 21  1  0  0  0
 21 22  1  0  0  0
 17 18  2  0  0  0
  9 10  1  0  0  0
 10 11  1  0  0  0
 23 24  2  0  0  0
 24 25  1  0  0  0
 25 26  2  0  0  0
 26 29  1  0  0  0
 29 30  1  0  0  0
 29 31  2  0  0  0
 26 27  1  0  0  0
 27 28  2  0  0  0
 28 23  1  0  0  0
  6  1  1  0  0  0
 18 12  1  0  0  0
 11  3  1  0  0  0
 30 32  1  0  0  0
 30 33  1  0  0  0
M  END
> <minimizedAffinity>
-6.50018

> <CNNscore>
0.2298609763

> <CNNaffinity>
5.4606065750

> <CNN_VS>
1.2551803589

> <CNNaffinity_variance>
0.0572263002

$$$$
[H]c1c([H])c(S(=O)(=O)N([H])[C@]([H])(C(=O)N2C([H])([H])C([H])([H])N(c3c([H])c([H])c(Cl)c([H])c3N3C(=O)OC(C([H])([H])[H])(C([H])([H])C([H])([H])[H])C3=O)C([H])([H])C2([H])[H])C([H])([H])[H])c([H])c([H])c1F


 39 42  0  0  0  0  0  0  0  0999 V2000
   -6.6092   23.7082  -21.8975 N   0  0  0  0  0  0  0  0  0  0  0  0
   -6.0205   24.9478  -21.4390 C   0  0  0  0  0  0  0  0  0  0  0  0
   -4.7618   25.2646  -22.2140 C   0  0  0  0  0  0  0  0  0  0  0  0
   -4.6543   24.4801  -23.4208 N   0  0  0  0  0  0  0  0  0  0  0  0
   -5.8420   24.2612  -24.1884 C   0  0  0  0  0  0  0  0  0  0  0  0
   -6.8190   23.5041  -23.3130 C   0  0  0  0  0  0  0  0  0  0  0  0
   -3.4088   23.9772  -23.8318 C   0  0  0  0  0  0  0  0  0  0  0  0
   -2.3876   24.2764  -23.0945 O   0  0  0  0  0  0  0  0  0  0  0  0
   -6.0436   21.8221  -20.4983 C   0  0  0  0  0  0  0  0  0  0  0  0
   -6.5089   20.7926  -19.6576 C   0  0  0  0  0  0  0  0  0  0  0  0
   -7.8200   20.6031  -19.3670 C   0  0  0  0  0  0  0  0  0  0  0  0
   -8.2643   19.2887  -18.3100 Cl  0  0  0  0  0  0  0  0  0  0  0  0
   -8.7543   21.4499  -19.9125 C   0  0  0  0  0  0  0  0  0  0  0  0
   -8.3680   22.4767  -20.7428 C   0  0  0  0  0  0  0  0  0  0  0  0
   -7.0029   22.6469  -21.0248 C   0  0  0  0  0  0  0  0  0  0  0  0
   -2.3186   22.1522  -20.3355 C   0  0  0  0  0  0  0  0  0  0  0  0
   -1.3131   23.2450  -20.2196 C   0  0  0  0  0  0  0  0  0  0  0  0
   -2.5654   21.8297  -21.6895 O   0  0  0  0  0  0  0  0  0  0  0  0
   -3.9166   21.4963  -21.8608 C   0  0  0  0  0  0  0  0  0  0  0  0
   -4.3563   20.8816  -22.8717 O   0  0  0  0  0  0  0  0  0  0  0  0
   -4.6559   21.9564  -20.7419 N   0  0  0  0  0  0  0  0  0  0  0  0
   -3.6981   22.5755  -19.8966 C   0  0  0  0  0  0  0  0  0  0  0  0
   -3.9883   23.3451  -18.9460 O   0  0  0  0  0  0  0  0  0  0  0  0
   -0.4758   20.5243  -19.8587 C   0  0  0  0  0  0  0  0  0  0  0  0
   -1.8850   20.9192  -19.5684 C   0  0  0  0  0  0  0  0  0  0  0  0
   -3.1932   23.1397  -25.0411 C   0  0  0  0  0  0  0  0  0  0  0  0
   -1.8655   22.4111  -24.9005 C   0  0  0  0  0  0  0  0  0  0  0  0
   -3.1371   24.0391  -26.1862 N   0  0  0  0  0  0  0  0  0  0  0  0
   -3.8545   24.7631  -26.1456 H   0  0  0  0  0  0  0  0  0  0  0  0
   -2.9425   23.2272  -27.6706 S   0  0  0  0  0  0  0  0  0  0  0  0
   -3.5052   21.8262  -27.5039 O   0  0  0  0  0  0  0  0  0  0  0  0
   -1.5180   23.1897  -28.0780 O   0  0  0  0  0  0  0  0  0  0  0  0
   -3.8509   23.9979  -28.9450 C   0  0  0  0  0  0  0  0  0  0  0  0
   -3.5440   25.2410  -29.4538 C   0  0  0  0  0  0  0  0  0  0  0  0
   -4.2869   25.8332  -30.4737 C   0  0  0  0  0  0  0  0  0  0  0  0
   -5.3642   25.1678  -30.9990 C   0  0  0  0  0  0  0  0  0  0  0  0
   -6.0955   25.7406  -31.9969 F   0  0  0  0  0  0  0  0  0  0  0  0
   -5.6934   23.9269  -30.5105 C   0  0  0  0  0  0  0  0  0  0  0  0
   -4.9535   23.3563  -29.5070 C   0  0  0  0  0  0  0  0  0  0  0  0
 24 25  1  0  0  0
 25 16  1  0  0  0
 16 17  1  0  0  0
 16 18  1  0  0  0
 18 19  1  0  0  0
 19 20  2  0  0  0
 19 21  1  0  0  0
 21 22  1  0  0  0
 22 23  2  0  0  0
 21  9  1  0  0  0
  9 10  2  0  0  0
 10 11  1  0  0  0
 11 12  1  0  0  0
 11 13  2  0  0  0
 13 14  1  0  0  0
 14 15  2  0  0  0
 15  1  1  0  0  0
  1  2  1  0  0  0
  2  3  1  0  0  0
  3  4  1  0  0  0
  4  5  1  0  0  0
  5  6  1  0  0  0
  4  7  1  0  0  0
  7  8  2  0  0  0
  7 26  1  0  0  0
 26 27  1  0  0  0
 26 28  1  0  0  0
 28 30  1  0  0  0
 30 31  2  0  0  0
 30 32  2  0  0  0
 30 33  1  0  0  0
 33 34  2  0  0  0
 34 35  1  0  0  0
 35 36  2  0  0  0
 36 37  1  0  0  0
 36 38  1  0  0  0
 38 39  2  0  0  0
 22 16  1  0  0  0
 15  9  1  0  0  0
  6  1  1  0  0  0
 39 33  1  0  0  0
 28 29  1  0  0  0
M  END
> <minimizedAffinity>
-8.20151

> <CNNscore>
0.1322646141

> <CNNaffinity>
6.5574064255

> <CNN_VS>
0.8673128486

> <CNNaffinity_variance>
0.3539499342

$$$$
[H]c1c([H])c(S(=O)(=O)N([H])[C@]([H])(C(=O)N2C([H])([H])C([H])([H])N(c3c([H])c([H])c(Cl)c([H])c3N3C(=O)OC(C([H])([H])[H])(C([H])([H])C([H])([H])[H])C3=O)C([H])([H])C2([H])[H])C([H])([H])[H])c([H])c([H])c1F


 39 42  0  0  0  0  0  0  0  0999 V2000
   -6.2193   24.3994  -23.2653 N   0  0  0  0  0  0  0  0  0  0  0  0
   -6.8926   25.6679  -23.0886 C   0  0  0  0  0  0  0  0  0  0  0  0
   -6.7656   26.5219  -24.3293 C   0  0  0  0  0  0  0  0  0  0  0  0
   -6.3376   25.7558  -25.4754 N   0  0  0  0  0  0  0  0  0  0  0  0
   -6.8867   24.4462  -25.6517 C   0  0  0  0  0  0  0  0  0  0  0  0
   -6.4836   23.6159  -24.4508 C   0  0  0  0  0  0  0  0  0  0  0  0
   -5.4301   26.3040  -26.3968 C   0  0  0  0  0  0  0  0  0  0  0  0
   -5.0340   27.5162  -26.1737 O   0  0  0  0  0  0  0  0  0  0  0  0
   -5.7560   23.2427  -21.1960 C   0  0  0  0  0  0  0  0  0  0  0  0
   -4.7777   22.7466  -20.3127 C   0  0  0  0  0  0  0  0  0  0  0  0
   -3.4450   22.8562  -20.5389 C   0  0  0  0  0  0  0  0  0  0  0  0
   -2.3369   22.1980  -19.3637 Cl  0  0  0  0  0  0  0  0  0  0  0  0
   -3.0109   23.4802  -21.6833 C   0  0  0  0  0  0  0  0  0  0  0  0
   -3.9135   23.9881  -22.5890 C   0  0  0  0  0  0  0  0  0  0  0  0
   -5.2869   23.8591  -22.3263 C   0  0  0  0  0  0  0  0  0  0  0  0
   -9.3743   23.6111  -20.3111 C   0  0  0  0  0  0  0  0  0  0  0  0
  -10.2077   23.6593  -19.0774 C   0  0  0  0  0  0  0  0  0  0  0  0
   -9.2873   22.2932  -20.8149 O   0  0  0  0  0  0  0  0  0  0  0  0
   -8.0134   22.0745  -21.3584 C   0  0  0  0  0  0  0  0  0  0  0  0
   -7.7473   21.1192  -22.1393 O   0  0  0  0  0  0  0  0  0  0  0  0
   -7.1277   23.0773  -20.8891 N   0  0  0  0  0  0  0  0  0  0  0  0
   -7.9183   23.9025  -20.0469 C   0  0  0  0  0  0  0  0  0  0  0  0
   -7.4475   24.7306  -19.2267 O   0  0  0  0  0  0  0  0  0  0  0  0
  -11.3795   24.7674  -21.2679 C   0  0  0  0  0  0  0  0  0  0  0  0
   -9.9073   24.5501  -21.3746 C   0  0  0  0  0  0  0  0  0  0  0  0
   -4.9074   25.5927  -27.5931 C   0  0  0  0  0  0  0  0  0  0  0  0
   -6.0108   25.5172  -28.6374 C   0  0  0  0  0  0  0  0  0  0  0  0
   -4.5423   24.2467  -27.1712 N   0  0  0  0  0  0  0  0  0  0  0  0
   -4.3893   24.1843  -26.1646 H   0  0  0  0  0  0  0  0  0  0  0  0
   -3.3749   23.5200  -28.1762 S   0  0  0  0  0  0  0  0  0  0  0  0
   -2.8409   24.5935  -29.1087 O   0  0  0  0  0  0  0  0  0  0  0  0
   -3.9531   22.3865  -28.9360 O   0  0  0  0  0  0  0  0  0  0  0  0
   -2.0211   22.9203  -27.2537 C   0  0  0  0  0  0  0  0  0  0  0  0
   -0.7475   22.7960  -27.7644 C   0  0  0  0  0  0  0  0  0  0  0  0
    0.3168   22.3143  -27.0041 C   0  0  0  0  0  0  0  0  0  0  0  0
    0.1044   21.9470  -25.7005 C   0  0  0  0  0  0  0  0  0  0  0  0
    1.1406   21.4752  -24.9505 F   0  0  0  0  0  0  0  0  0  0  0  0
   -1.1556   22.0601  -25.1653 C   0  0  0  0  0  0  0  0  0  0  0  0
   -2.1934   22.5357  -25.9250 C   0  0  0  0  0  0  0  0  0  0  0  0
 24 25  1  0  0  0
 25 16  1  0  0  0
 16 17  1  0  0  0
 16 18  1  0  0  0
 18 19  1  0  0  0
 19 20  2  0  0  0
 19 21  1  0  0  0
 21 22  1  0  0  0
 22 23  2  0  0  0
 21  9  1  0  0  0
  9 10  2  0  0  0
 10 11  1  0  0  0
 11 12  1  0  0  0
 11 13  2  0  0  0
 13 14  1  0  0  0
 14 15  2  0  0  0
 15  1  1  0  0  0
  1  2  1  0  0  0
  2  3  1  0  0  0
  3  4  1  0  0  0
  4  5  1  0  0  0
  5  6  1  0  0  0
  4  7  1  0  0  0
  7  8  2  0  0  0
  7 26  1  0  0  0
 26 27  1  0  0  0
 26 28  1  0  0  0
 28 30  1  0  0  0
 30 31  2  0  0  0
 30 32  2  0  0  0
 30 33  1  0  0  0
 33 34  2  0  0  0
 34 35  1  0  0  0
 35 36  2  0  0  0
 36 37  1  0  0  0
 36 38  1  0  0  0
 38 39  2  0  0  0
 22 16  1  0  0  0
 15  9  1  0  0  0
  6  1  1  0  0  0
 39 33  1  0  0  0
 28 29  1  0  0  0
M  END
> <minimizedAffinity>
-9.26756

> <CNNscore>
0.1145084724

> <CNNaffinity>
6.3977370262

> <CNN_VS>
0.7325950861

> <CNNaffinity_variance>
0.8433111310

$$$$
[H]c1c([H])c(S(=O)(=O)N([H])[C@]([H])(C(=O)N2C([H])([H])C([H])([H])N(c3c([H])c([H])c(Cl)c([H])c3N3C(=O)OC(C([H])([H])[H])(C([H])([H])C([H])([H])[H])C3=O)C([H])([H])C2([H])[H])C([H])([H])[H])c([H])c([H])c1F


 39 42  0  0  0  0  0  0  0  0999 V2000
   -5.8458   24.1369  -23.0143 N   0  0  0  0  0  0  0  0  0  0  0  0
   -6.5652   25.3606  -22.7340 C   0  0  0  0  0  0  0  0  0  0  0  0
   -6.5929   26.2590  -23.9494 C   0  0  0  0  0  0  0  0  0  0  0  0
   -6.2294   25.5537  -25.1553 N   0  0  0  0  0  0  0  0  0  0  0  0
   -6.7239   24.2224  -25.3304 C   0  0  0  0  0  0  0  0  0  0  0  0
   -6.1736   23.3778  -24.1999 C   0  0  0  0  0  0  0  0  0  0  0  0
   -5.4367   26.1792  -26.1317 C   0  0  0  0  0  0  0  0  0  0  0  0
   -5.0852   27.4035  -25.9002 O   0  0  0  0  0  0  0  0  0  0  0  0
   -5.1002   23.2614  -20.8901 C   0  0  0  0  0  0  0  0  0  0  0  0
   -4.0235   22.7712  -20.1261 C   0  0  0  0  0  0  0  0  0  0  0  0
   -2.7622   22.6479  -20.6090 C   0  0  0  0  0  0  0  0  0  0  0  0
   -1.5175   22.0258  -19.5574 Cl  0  0  0  0  0  0  0  0  0  0  0  0
   -2.5053   23.0157  -21.9076 C   0  0  0  0  0  0  0  0  0  0  0  0
   -3.5117   23.5029  -22.7092 C   0  0  0  0  0  0  0  0  0  0  0  0
   -4.8072   23.6189  -22.1801 C   0  0  0  0  0  0  0  0  0  0  0  0
   -8.4709   22.6833  -19.3683 C   0  0  0  0  0  0  0  0  0  0  0  0
   -9.8693   22.4713  -19.8356 C   0  0  0  0  0  0  0  0  0  0  0  0
   -8.2213   24.0514  -19.1148 O   0  0  0  0  0  0  0  0  0  0  0  0
   -6.9035   24.3693  -19.4731 C   0  0  0  0  0  0  0  0  0  0  0  0
   -6.3117   25.4138  -19.0835 O   0  0  0  0  0  0  0  0  0  0  0  0
   -6.3892   23.3485  -20.3119 N   0  0  0  0  0  0  0  0  0  0  0  0
   -7.4463   22.4099  -20.4409 C   0  0  0  0  0  0  0  0  0  0  0  0
   -7.4885   21.5102  -21.3179 O   0  0  0  0  0  0  0  0  0  0  0  0
   -8.5616   20.4225  -18.2942 C   0  0  0  0  0  0  0  0  0  0  0  0
   -8.1681   21.8531  -18.1371 C   0  0  0  0  0  0  0  0  0  0  0  0
   -4.9863   25.5354  -27.3938 C   0  0  0  0  0  0  0  0  0  0  0  0
   -6.1457   25.5262  -28.3784 C   0  0  0  0  0  0  0  0  0  0  0  0
   -4.6101   24.1653  -27.0706 N   0  0  0  0  0  0  0  0  0  0  0  0
   -4.4444   24.0342  -26.0726 H   0  0  0  0  0  0  0  0  0  0  0  0
   -3.4520   23.5160  -28.1374 S   0  0  0  0  0  0  0  0  0  0  0  0
   -2.9696   24.6446  -29.0322 O   0  0  0  0  0  0  0  0  0  0  0  0
   -4.0218   22.4038  -28.9343 O   0  0  0  0  0  0  0  0  0  0  0  0
   -2.0599   22.9100  -27.2783 C   0  0  0  0  0  0  0  0  0  0  0  0
   -0.7949   22.8549  -27.8216 C   0  0  0  0  0  0  0  0  0  0  0  0
    0.3006   22.3664  -27.1117 C   0  0  0  0  0  0  0  0  0  0  0  0
    0.1292   21.9213  -25.8265 C   0  0  0  0  0  0  0  0  0  0  0  0
    1.1961   21.4423  -25.1258 F   0  0  0  0  0  0  0  0  0  0  0  0
   -1.1212   21.9643  -25.2597 C   0  0  0  0  0  0  0  0  0  0  0  0
   -2.1901   22.4475  -25.9698 C   0  0  0  0  0  0  0  0  0  0  0  0
 24 25  1  0  0  0
 25 16  1  0  0  0
 16 17  1  0  0  0
 16 18  1  0  0  0
 18 19  1  0  0  0
 19 20  2  0  0  0
 19 21  1  0  0  0
 21 22  1  0  0  0
 22 23  2  0  0  0
 21  9  1  0  0  0
  9 10  2  0  0  0
 10 11  1  0  0  0
 11 12  1  0  0  0
 11 13  2  0  0  0
 13 14  1  0  0  0
 14 15  2  0  0  0
 15  1  1  0  0  0
  1  2  1  0  0  0
  2  3  1  0  0  0
  3  4  1  0  0  0
  4  5  1  0  0  0
  5  6  1  0  0  0
  4  7  1  0  0  0
  7  8  2  0  0  0
  7 26  1  0  0  0
 26 27  1  0  0  0
 26 28  1  0  0  0
 28 30  1  0  0  0
 30 31  2  0  0  0
 30 32  2  0  0  0
 30 33  1  0  0  0
 33 34  2  0  0  0
 34 35  1  0  0  0
 35 36  2  0  0  0
 36 37  1  0  0  0
 36 38  1  0  0  0
 38 39  2  0  0  0
 22 16  1  0  0  0
 15  9  1  0  0  0
  6  1  1  0  0  0
 39 33  1  0  0  0
 28 29  1  0  0  0
M  END
> <minimizedAffinity>
-9.28271

> <CNNscore>
0.1143307015

> <CNNaffinity>
6.4316167831

> <CNN_VS>
0.7353312373

> <CNNaffinity_variance>
0.7535601854

$$$$
[H]c1c([H])c(S(=O)(=O)N([H])[C@]([H])(C(=O)N2C([H])([H])C([H])([H])N(c3c([H])c([H])c(Cl)c([H])c3N3C(=O)OC(C([H])([H])[H])(C([H])([H])C([H])([H])[H])C3=O)C([H])([H])C2([H])[H])C([H])([H])[H])c([H])c([H])c1F


 39 42  0  0  0  0  0  0  0  0999 V2000
   -3.6006   21.9942  -20.6254 N   0  0  0  0  0  0  0  0  0  0  0  0
   -4.7520   21.1360  -20.4487 C   0  0  0  0  0  0  0  0  0  0  0  0
   -4.7122   20.4531  -19.1006 C   0  0  0  0  0  0  0  0  0  0  0  0
   -3.7681   21.0755  -18.2035 N   0  0  0  0  0  0  0  0  0  0  0  0
   -3.6839   22.5040  -18.2014 C   0  0  0  0  0  0  0  0  0  0  0  0
   -3.2545   22.9386  -19.5874 C   0  0  0  0  0  0  0  0  0  0  0  0
   -2.9827   20.2903  -17.3434 C   0  0  0  0  0  0  0  0  0  0  0  0
   -3.1734   19.0105  -17.3862 O   0  0  0  0  0  0  0  0  0  0  0  0
   -3.2395   22.4633  -22.9673 C   0  0  0  0  0  0  0  0  0  0  0  0
   -2.3605   22.3914  -24.0652 C   0  0  0  0  0  0  0  0  0  0  0  0
   -1.1113   21.8693  -23.9868 C   0  0  0  0  0  0  0  0  0  0  0  0
   -0.1218   21.8398  -25.4229 Cl  0  0  0  0  0  0  0  0  0  0  0  0
   -0.6656   21.3815  -22.7823 C   0  0  0  0  0  0  0  0  0  0  0  0
   -1.4734   21.4207  -21.6692 C   0  0  0  0  0  0  0  0  0  0  0  0
   -2.7619   21.9673  -21.7825 C   0  0  0  0  0  0  0  0  0  0  0  0
   -6.2227   24.6587  -23.5076 C   0  0  0  0  0  0  0  0  0  0  0  0
   -7.1307   25.5062  -22.6854 C   0  0  0  0  0  0  0  0  0  0  0  0
   -6.7406   23.3514  -23.6534 O   0  0  0  0  0  0  0  0  0  0  0  0
   -5.6913   22.4213  -23.6555 C   0  0  0  0  0  0  0  0  0  0  0  0
   -5.8168   21.2353  -24.0690 O   0  0  0  0  0  0  0  0  0  0  0  0
   -4.5243   23.0335  -23.1327 N   0  0  0  0  0  0  0  0  0  0  0  0
   -4.9140   24.3621  -22.8191 C   0  0  0  0  0  0  0  0  0  0  0  0
   -4.2512   25.1373  -22.0842 O   0  0  0  0  0  0  0  0  0  0  0  0
   -5.8723   26.7687  -24.8108 C   0  0  0  0  0  0  0  0  0  0  0  0
   -5.9659   25.2806  -24.8656 C   0  0  0  0  0  0  0  0  0  0  0  0
   -1.9658   20.8279  -16.4015 C   0  0  0  0  0  0  0  0  0  0  0  0
   -2.6768   21.6200  -15.3149 C   0  0  0  0  0  0  0  0  0  0  0  0
   -1.0969   21.7158  -17.1629 N   0  0  0  0  0  0  0  0  0  0  0  0
   -1.5653   22.1102  -17.9788 H   0  0  0  0  0  0  0  0  0  0  0  0
    0.4675   21.0857  -17.4001 S   0  0  0  0  0  0  0  0  0  0  0  0
    0.6035   20.7390  -18.8726 O   0  0  0  0  0  0  0  0  0  0  0  0
    0.7024   19.8988  -16.5441 O   0  0  0  0  0  0  0  0  0  0  0  0
    1.6958   22.2694  -17.0349 C   0  0  0  0  0  0  0  0  0  0  0  0
    2.1899   22.4872  -15.7673 C   0  0  0  0  0  0  0  0  0  0  0  0
    3.1729   23.4396  -15.5038 C   0  0  0  0  0  0  0  0  0  0  0  0
    3.6755   24.1944  -16.5319 C   0  0  0  0  0  0  0  0  0  0  0  0
    4.6372   25.1278  -16.2820 F   0  0  0  0  0  0  0  0  0  0  0  0
    3.2009   23.9987  -17.8060 C   0  0  0  0  0  0  0  0  0  0  0  0
    2.2337   23.0580  -18.0507 C   0  0  0  0  0  0  0  0  0  0  0  0
 24 25  1  0  0  0
 25 16  1  0  0  0
 16 17  1  0  0  0
 16 18  1  0  0  0
 18 19  1  0  0  0
 19 20  2  0  0  0
 19 21  1  0  0  0
 21 22  1  0  0  0
 22 23  2  0  0  0
 21  9  1  0  0  0
  9 10  2  0  0  0
 10 11  1  0  0  0
 11 12  1  0  0  0
 11 13  2  0  0  0
 13 14  1  0  0  0
 14 15  2  0  0  0
 15  1  1  0  0  0
  1  2  1  0  0  0
  2  3  1  0  0  0
  3  4  1  0  0  0
  4  5  1  0  0  0
  5  6  1  0  0  0
  4  7  1  0  0  0
  7  8  2  0  0  0
  7 26  1  0  0  0
 26 27  1  0  0  0
 26 28  1  0  0  0
 28 30  1  0  0  0
 30 31  2  0  0  0
 30 32  2  0  0  0
 30 33  1  0  0  0
 33 34  2  0  0  0
 34 35  1  0  0  0
 35 36  2  0  0  0
 36 37  1  0  0  0
 36 38  1  0  0  0
 38 39  2  0  0  0
 22 16  1  0  0  0
 15  9  1  0  0  0
  6  1  1  0  0  0
 39 33  1  0  0  0
 28 29  1  0  0  0
M  END
> <minimizedAffinity>
-7.30659

> <CNNscore>
0.0920494497

> <CNNaffinity>
5.8359293938

> <CNN_VS>
0.5371940732

> <CNNaffinity_variance>
0.3690961003

$$$$
[H]c1c([H])c(S(=O)(=O)N([H])[C@]([H])(C(=O)N2C([H])([H])C([H])([H])N(c3c([H])c([H])c(Cl)c([H])c3N3C(=O)OC(C([H])([H])[H])(C([H])([H])C([H])([H])[H])C3=O)C([H])([H])C2([H])[H])C([H])([H])[H])c([H])c([H])c1F


 39 42  0  0  0  0  0  0  0  0999 V2000
   -4.9014   22.8339  -22.5231 N   0  0  0  0  0  0  0  0  0  0  0  0
   -6.0583   22.1947  -23.1118 C   0  0  0  0  0  0  0  0  0  0  0  0
   -6.9814   21.6608  -22.0403 C   0  0  0  0  0  0  0  0  0  0  0  0
   -6.6847   22.2155  -20.7411 N   0  0  0  0  0  0  0  0  0  0  0  0
   -6.3481   23.6041  -20.6640 C   0  0  0  0  0  0  0  0  0  0  0  0
   -5.0887   23.8152  -21.4786 C   0  0  0  0  0  0  0  0  0  0  0  0
   -6.7564   21.4102  -19.5925 C   0  0  0  0  0  0  0  0  0  0  0  0
   -7.1215   20.1801  -19.7651 O   0  0  0  0  0  0  0  0  0  0  0  0
   -3.0980   23.0062  -24.1208 C   0  0  0  0  0  0  0  0  0  0  0  0
   -1.7662   22.6776  -24.4399 C   0  0  0  0  0  0  0  0  0  0  0  0
   -0.9601   21.9563  -23.6219 C   0  0  0  0  0  0  0  0  0  0  0  0
    0.6718   21.6177  -24.1364 Cl  0  0  0  0  0  0  0  0  0  0  0  0
   -1.4526   21.5165  -22.4171 C   0  0  0  0  0  0  0  0  0  0  0  0
   -2.7454   21.8021  -22.0432 C   0  0  0  0  0  0  0  0  0  0  0  0
   -3.5555   22.5508  -22.9121 C   0  0  0  0  0  0  0  0  0  0  0  0
   -5.4443   24.3141  -26.7276 C   0  0  0  0  0  0  0  0  0  0  0  0
   -5.4310   24.5660  -28.1956 C   0  0  0  0  0  0  0  0  0  0  0  0
   -5.0658   25.4714  -26.0096 O   0  0  0  0  0  0  0  0  0  0  0  0
   -4.3218   25.1075  -24.8781 C   0  0  0  0  0  0  0  0  0  0  0  0
   -4.1160   25.8838  -23.9044 O   0  0  0  0  0  0  0  0  0  0  0  0
   -3.8686   23.7724  -25.0276 N   0  0  0  0  0  0  0  0  0  0  0  0
   -4.3691   23.3522  -26.2878 C   0  0  0  0  0  0  0  0  0  0  0  0
   -3.9596   22.3379  -26.9074 O   0  0  0  0  0  0  0  0  0  0  0  0
   -7.6290   24.9054  -25.6549 C   0  0  0  0  0  0  0  0  0  0  0  0
   -6.8012   23.8237  -26.2637 C   0  0  0  0  0  0  0  0  0  0  0  0
   -6.4473   21.8747  -18.2145 C   0  0  0  0  0  0  0  0  0  0  0  0
   -4.9745   21.6205  -17.9320 C   0  0  0  0  0  0  0  0  0  0  0  0
   -7.2625   21.0869  -17.2990 N   0  0  0  0  0  0  0  0  0  0  0  0
   -7.7284   20.3092  -17.7666 H   0  0  0  0  0  0  0  0  0  0  0  0
   -8.2111   22.0394  -16.2532 S   0  0  0  0  0  0  0  0  0  0  0  0
   -9.4658   22.4398  -17.0097 O   0  0  0  0  0  0  0  0  0  0  0  0
   -7.4621   23.2296  -15.7853 O   0  0  0  0  0  0  0  0  0  0  0  0
   -8.7222   21.1349  -14.8518 C   0  0  0  0  0  0  0  0  0  0  0  0
   -9.1664   19.8318  -14.9074 C   0  0  0  0  0  0  0  0  0  0  0  0
   -9.5682   19.1320  -13.7709 C   0  0  0  0  0  0  0  0  0  0  0  0
   -9.5258   19.7487  -12.5473 C   0  0  0  0  0  0  0  0  0  0  0  0
   -9.9170   19.0705  -11.4312 F   0  0  0  0  0  0  0  0  0  0  0  0
   -9.0875   21.0477  -12.4623 C   0  0  0  0  0  0  0  0  0  0  0  0
   -8.6951   21.7240  -13.5887 C   0  0  0  0  0  0  0  0  0  0  0  0
 24 25  1  0  0  0
 25 16  1  0  0  0
 16 17  1  0  0  0
 16 18  1  0  0  0
 18 19  1  0  0  0
 19 20  2  0  0  0
 19 21  1  0  0  0
 21 22  1  0  0  0
 22 23  2  0  0  0
 21  9  1  0  0  0
  9 10  2  0  0  0
 10 11  1  0  0  0
 11 12  1  0  0  0
 11 13  2  0  0  0
 13 14  1  0  0  0
 14 15  2  0  0  0
 15  1  1  0  0  0
  1  2  1  0  0  0
  2  3  1  0  0  0
  3  4  1  0  0  0
  4  5  1  0  0  0
  5  6  1  0  0  0
  4  7  1  0  0  0
  7  8  2  0  0  0
  7 26  1  0  0  0
 26 27  1  0  0  0
 26 28  1  0  0  0
 28 30  1  0  0  0
 30 31  2  0  0  0
 30 32  2  0  0  0
 30 33  1  0  0  0
 33 34  2  0  0  0
 34 35  1  0  0  0
 35 36  2  0  0  0
 36 37  1  0  0  0
 36 38  1  0  0  0
 38 39  2  0  0  0
 22 16  1  0  0  0
 15  9  1  0  0  0
  6  1  1  0  0  0
 39 33  1  0  0  0
 28 29  1  0  0  0
M  END
> <minimizedAffinity>
-7.35537

> <CNNscore>
0.0887663662

> <CNNaffinity>
5.9172949791

> <CNN_VS>
0.5252567530

> <CNNaffinity_variance>
0.0524066389

$$$$
[H]c1c([H])c(S(=O)(=O)N([H])[C@]([H])(C(=O)N2C([H])([H])C([H])([H])N(c3c([H])c([H])c(Cl)c([H])c3N3C(=O)OC(C([H])([H])[H])(C([H])([H])C([H])([H])[H])C3=O)C([H])([H])C2([H])[H])C([H])([H])[H])c([H])c([H])c1F


 39 42  0  0  0  0  0  0  0  0999 V2000
   -6.5023   21.4312  -18.0616 N   0  0  0  0  0  0  0  0  0  0  0  0
   -5.1354   21.7145  -17.6812 C   0  0  0  0  0  0  0  0  0  0  0  0
   -4.3211   22.1435  -18.8804 C   0  0  0  0  0  0  0  0  0  0  0  0
   -5.1544   22.5068  -20.0017 N   0  0  0  0  0  0  0  0  0  0  0  0
   -6.3490   23.2494  -19.7388 C   0  0  0  0  0  0  0  0  0  0  0  0
   -7.2323   22.3957  -18.8528 C   0  0  0  0  0  0  0  0  0  0  0  0
   -4.7760   22.1593  -21.3091 C   0  0  0  0  0  0  0  0  0  0  0  0
   -3.6505   21.5337  -21.4431 O   0  0  0  0  0  0  0  0  0  0  0  0
   -7.8764   20.1844  -16.5150 C   0  0  0  0  0  0  0  0  0  0  0  0
   -8.5216   18.9668  -16.2238 C   0  0  0  0  0  0  0  0  0  0  0  0
   -8.4878   17.8899  -17.0473 C   0  0  0  0  0  0  0  0  0  0  0  0
   -9.3303   16.4397  -16.5684 Cl  0  0  0  0  0  0  0  0  0  0  0  0
   -7.7932   17.9748  -18.2297 C   0  0  0  0  0  0  0  0  0  0  0  0
   -7.1398   19.1350  -18.5758 C   0  0  0  0  0  0  0  0  0  0  0  0
   -7.1932   20.2328  -17.7018 C   0  0  0  0  0  0  0  0  0  0  0  0
   -7.3162   23.0052  -14.1191 C   0  0  0  0  0  0  0  0  0  0  0  0
   -7.1370   23.1854  -12.6514 C   0  0  0  0  0  0  0  0  0  0  0  0
   -8.6740   23.1452  -14.4866 O   0  0  0  0  0  0  0  0  0  0  0  0
   -8.9794   22.2569  -15.5277 C   0  0  0  0  0  0  0  0  0  0  0  0
  -10.0053   22.3671  -16.2547 O   0  0  0  0  0  0  0  0  0  0  0  0
   -7.9703   21.2640  -15.6046 N   0  0  0  0  0  0  0  0  0  0  0  0
   -7.0516   21.5915  -14.5731 C   0  0  0  0  0  0  0  0  0  0  0  0
   -6.1732   20.8063  -14.1347 O   0  0  0  0  0  0  0  0  0  0  0  0
   -6.3626   25.3168  -14.2621 C   0  0  0  0  0  0  0  0  0  0  0  0
   -6.4532   23.9728  -14.9038 C   0  0  0  0  0  0  0  0  0  0  0  0
   -5.5720   22.4623  -22.5276 C   0  0  0  0  0  0  0  0  0  0  0  0
   -6.8952   21.7166  -22.4448 C   0  0  0  0  0  0  0  0  0  0  0  0
   -4.8111   21.9797  -23.6728 N   0  0  0  0  0  0  0  0  0  0  0  0
   -4.0414   21.3697  -23.3972 H   0  0  0  0  0  0  0  0  0  0  0  0
   -4.4616   23.1983  -24.8102 S   0  0  0  0  0  0  0  0  0  0  0  0
   -4.2979   24.5024  -24.0489 O   0  0  0  0  0  0  0  0  0  0  0  0
   -5.5316   23.3017  -25.8304 O   0  0  0  0  0  0  0  0  0  0  0  0
   -2.9548   22.8911  -25.6339 C   0  0  0  0  0  0  0  0  0  0  0  0
   -1.8044   22.4886  -24.9912 C   0  0  0  0  0  0  0  0  0  0  0  0
   -0.6135   22.2490  -25.6747 C   0  0  0  0  0  0  0  0  0  0  0  0
   -0.5696   22.4157  -27.0347 C   0  0  0  0  0  0  0  0  0  0  0  0
    0.5916   22.1831  -27.7101 F   0  0  0  0  0  0  0  0  0  0  0  0
   -1.7017   22.8166  -27.7013 C   0  0  0  0  0  0  0  0  0  0  0  0
   -2.8664   23.0486  -27.0160 C   0  0  0  0  0  0  0  0  0  0  0  0
 24 25  1  0  0  0
 25 16  1  0  0  0
 16 17  1  0  0  0
 16 18  1  0  0  0
 18 19  1  0  0  0
 19 20  2  0  0  0
 19 21  1  0  0  0
 21 22  1  0  0  0
 22 23  2  0  0  0
 21  9  1  0  0  0
  9 10  2  0  0  0
 10 11  1  0  0  0
 11 12  1  0  0  0
 11 13  2  0  0  0
 13 14  1  0  0  0
 14 15  2  0  0  0
 15  1  1  0  0  0
  1  2  1  0  0  0
  2  3  1  0  0  0
  3  4  1  0  0  0
  4  5  1  0  0  0
  5  6  1  0  0  0
  4  7  1  0  0  0
  7  8  2  0  0  0
  7 26  1  0  0  0
 26 27  1  0  0  0
 26 28  1  0  0  0
 28 30  1  0  0  0
 30 31  2  0  0  0
 30 32  2  0  0  0
 30 33  1  0  0  0
 33 34  2  0  0  0
 34 35  1  0  0  0
 35 36  2  0  0  0
 36 37  1  0  0  0
 36 38  1  0  0  0
 38 39  2  0  0  0
 22 16  1  0  0  0
 15  9  1  0  0  0
  6  1  1  0  0  0
 39 33  1  0  0  0
 28 29  1  0  0  0
M  END
> <minimizedAffinity>
-7.13787

> <CNNscore>
0.0885822102

> <CNNaffinity>
5.5850086212

> <CNN_VS>
0.4947324097

> <CNNaffinity_variance>
0.0686111301

$$$$
[H]c1c([H])c(S(=O)(=O)N([H])[C@]([H])(C(=O)N2C([H])([H])C([H])([H])N(c3c([H])c([H])c(Cl)c([H])c3N3C(=O)OC(C([H])([H])[H])(C([H])([H])C([H])([H])[H])C3=O)C([H])([H])C2([H])[H])C([H])([H])[H])c([H])c([H])c1F


 39 42  0  0  0  0  0  0  0  0999 V2000
   -6.2738   23.0567  -20.7716 N   0  0  0  0  0  0  0  0  0  0  0  0
   -5.3479   22.0917  -21.3238 C   0  0  0  0  0  0  0  0  0  0  0  0
   -5.2132   22.2699  -22.8189 C   0  0  0  0  0  0  0  0  0  0  0  0
   -5.7348   23.5400  -23.2643 N   0  0  0  0  0  0  0  0  0  0  0  0
   -5.4795   24.6925  -22.4556 C   0  0  0  0  0  0  0  0  0  0  0  0
   -6.1230   24.4549  -21.1051 C   0  0  0  0  0  0  0  0  0  0  0  0
   -6.4455   23.6309  -24.4725 C   0  0  0  0  0  0  0  0  0  0  0  0
   -6.5760   22.5388  -25.1554 O   0  0  0  0  0  0  0  0  0  0  0  0
   -7.1155   22.5794  -18.5583 C   0  0  0  0  0  0  0  0  0  0  0  0
   -8.2253   22.2254  -17.7668 C   0  0  0  0  0  0  0  0  0  0  0  0
   -9.4668   22.0209  -18.2729 C   0  0  0  0  0  0  0  0  0  0  0  0
  -10.7569   21.5862  -17.1826 Cl  0  0  0  0  0  0  0  0  0  0  0  0
   -9.6687   22.1623  -19.6245 C   0  0  0  0  0  0  0  0  0  0  0  0
   -8.6276   22.5064  -20.4555 C   0  0  0  0  0  0  0  0  0  0  0  0
   -7.3537   22.7112  -19.9013 C   0  0  0  0  0  0  0  0  0  0  0  0
   -3.5655   22.4725  -17.3766 C   0  0  0  0  0  0  0  0  0  0  0  0
   -2.7859   21.8217  -16.2869 C   0  0  0  0  0  0  0  0  0  0  0  0
   -4.0071   23.7579  -16.9881 O   0  0  0  0  0  0  0  0  0  0  0  0
   -5.2758   24.0092  -17.5296 C   0  0  0  0  0  0  0  0  0  0  0  0
   -5.7794   25.1638  -17.6096 O   0  0  0  0  0  0  0  0  0  0  0  0
   -5.8550   22.7846  -17.9484 N   0  0  0  0  0  0  0  0  0  0  0  0
   -4.8868   21.7939  -17.6382 C   0  0  0  0  0  0  0  0  0  0  0  0
   -5.1267   20.5606  -17.5979 O   0  0  0  0  0  0  0  0  0  0  0  0
   -1.2961   22.6967  -18.4124 C   0  0  0  0  0  0  0  0  0  0  0  0
   -2.7608   22.5543  -18.6582 C   0  0  0  0  0  0  0  0  0  0  0  0
   -7.0444   24.8817  -25.0082 C   0  0  0  0  0  0  0  0  0  0  0  0
   -8.4356   25.0497  -24.4166 C   0  0  0  0  0  0  0  0  0  0  0  0
   -7.1444   24.7293  -26.4539 N   0  0  0  0  0  0  0  0  0  0  0  0
   -7.3994   23.7800  -26.7266 H   0  0  0  0  0  0  0  0  0  0  0  0
   -5.8554   25.4553  -27.2977 S   0  0  0  0  0  0  0  0  0  0  0  0
   -5.4113   26.6692  -26.5001 O   0  0  0  0  0  0  0  0  0  0  0  0
   -6.2604   25.8335  -28.6723 O   0  0  0  0  0  0  0  0  0  0  0  0
   -4.4825   24.3849  -27.4121 C   0  0  0  0  0  0  0  0  0  0  0  0
   -4.1269   23.7241  -28.5677 C   0  0  0  0  0  0  0  0  0  0  0  0
   -3.0236   22.8748  -28.6313 C   0  0  0  0  0  0  0  0  0  0  0  0
   -2.2554   22.6798  -27.5127 C   0  0  0  0  0  0  0  0  0  0  0  0
   -1.1746   21.8506  -27.5673 F   0  0  0  0  0  0  0  0  0  0  0  0
   -2.5870   23.3257  -26.3466 C   0  0  0  0  0  0  0  0  0  0  0  0
   -3.6752   24.1585  -26.2986 C   0  0  0  0  0  0  0  0  0  0  0  0
 24 25  1  0  0  0
 25 16  1  0  0  0
 16 17  1  0  0  0
 16 18  1  0  0  0
 18 19  1  0  0  0
 19 20  2  0  0  0
 19 21  1  0  0  0
 21 22  1  0  0  0
 22 23  2  0  0  0
 21  9  1  0  0  0
  9 10  2  0  0  0
 10 11  1  0  0  0
 11 12  1  0  0  0
 11 13  2  0  0  0
 13 14  1  0  0  0
 14 15  2  0  0  0
 15  1  1  0  0  0
  1  2  1  0  0  0
  2  3  1  0  0  0
  3  4  1  0  0  0
  4  5  1  0  0  0
  5  6  1  0  0  0
  4  7  1  0  0  0
  7  8  2  0  0  0
  7 26  1  0  0  0
 26 27  1  0  0  0
 26 28  1  0  0  0
 28 30  1  0  0  0
 30 31  2  0  0  0
 30 32  2  0  0  0
 30 33  1  0  0  0
 33 34  2  0  0  0
 34 35  1  0  0  0
 35 36  2  0  0  0
 36 37  1  0  0  0
 36 38  1  0  0  0
 38 39  2  0  0  0
 22 16  1  0  0  0
 15  9  1  0  0  0
  6  1  1  0  0  0
 39 33  1  0  0  0
 28 29  1  0  0  0
M  END
> <minimizedAffinity>
-8.81730

> <CNNscore>
0.0869531780

> <CNNaffinity>
6.2486214638

> <CNN_VS>
0.5433375239

> <CNNaffinity_variance>
0.2274289578

$$$$
[H]c1c([H])c(S(=O)(=O)N([H])[C@]([H])(C(=O)N2C([H])([H])C([H])([H])N(c3c([H])c([H])c(Cl)c([H])c3N3C(=O)OC(C([H])([H])[H])(C([H])([H])C([H])([H])[H])C3=O)C([H])([H])C2([H])[H])C([H])([H])[H])c([H])c([H])c1F


 39 42  0  0  0  0  0  0  0  0999 V2000
   -4.6885   22.9516  -22.8442 N   0  0  0  0  0  0  0  0  0  0  0  0
   -5.8736   22.2538  -23.2936 C   0  0  0  0  0  0  0  0  0  0  0  0
   -6.7134   21.8076  -22.1185 C   0  0  0  0  0  0  0  0  0  0  0  0
   -6.3364   22.4759  -20.8959 N   0  0  0  0  0  0  0  0  0  0  0  0
   -6.0154   23.8688  -20.9626 C   0  0  0  0  0  0  0  0  0  0  0  0
   -4.8179   24.0186  -21.8779 C   0  0  0  0  0  0  0  0  0  0  0  0
   -6.3176   21.7733  -19.6798 C   0  0  0  0  0  0  0  0  0  0  0  0
   -6.6759   20.5298  -19.7197 O   0  0  0  0  0  0  0  0  0  0  0  0
   -2.9749   23.0697  -24.5426 C   0  0  0  0  0  0  0  0  0  0  0  0
   -1.6655   22.7214  -24.9266 C   0  0  0  0  0  0  0  0  0  0  0  0
   -0.8211   22.0121  -24.1372 C   0  0  0  0  0  0  0  0  0  0  0  0
    0.7771   21.6464  -24.7326 Cl  0  0  0  0  0  0  0  0  0  0  0  0
   -1.2496   21.6052  -22.8969 C   0  0  0  0  0  0  0  0  0  0  0  0
   -2.5176   21.9114  -22.4593 C   0  0  0  0  0  0  0  0  0  0  0  0
   -3.3684   22.6470  -23.2999 C   0  0  0  0  0  0  0  0  0  0  0  0
   -5.4402   24.3359  -27.0585 C   0  0  0  0  0  0  0  0  0  0  0  0
   -5.4930   24.5697  -28.5287 C   0  0  0  0  0  0  0  0  0  0  0  0
   -5.0355   25.5035  -26.3721 O   0  0  0  0  0  0  0  0  0  0  0  0
   -4.2406   25.1566  -25.2704 C   0  0  0  0  0  0  0  0  0  0  0  0
   -3.9954   25.9457  -24.3162 O   0  0  0  0  0  0  0  0  0  0  0  0
   -3.7884   23.8216  -25.4235 N   0  0  0  0  0  0  0  0  0  0  0  0
   -4.3422   23.3839  -26.6551 C   0  0  0  0  0  0  0  0  0  0  0  0
   -3.9559   22.3637  -27.2799 O   0  0  0  0  0  0  0  0  0  0  0  0
   -7.5404   24.9118  -25.8213 C   0  0  0  0  0  0  0  0  0  0  0  0
   -6.7730   23.8458  -26.5290 C   0  0  0  0  0  0  0  0  0  0  0  0
   -5.9216   22.3587  -18.3719 C   0  0  0  0  0  0  0  0  0  0  0  0
   -4.4831   21.9634  -18.0751 C   0  0  0  0  0  0  0  0  0  0  0  0
   -6.8022   21.7913  -17.3591 N   0  0  0  0  0  0  0  0  0  0  0  0
   -7.6475   21.3877  -17.7629 H   0  0  0  0  0  0  0  0  0  0  0  0
   -7.0003   22.7976  -15.9994 S   0  0  0  0  0  0  0  0  0  0  0  0
   -8.4291   22.6323  -15.5113 O   0  0  0  0  0  0  0  0  0  0  0  0
   -6.7056   24.2115  -16.3319 O   0  0  0  0  0  0  0  0  0  0  0  0
   -5.9511   22.3182  -14.6907 C   0  0  0  0  0  0  0  0  0  0  0  0
   -6.1922   21.2291  -13.8819 C   0  0  0  0  0  0  0  0  0  0  0  0
   -5.3359   20.8680  -12.8431 C   0  0  0  0  0  0  0  0  0  0  0  0
   -4.2100   21.6131  -12.6053 C   0  0  0  0  0  0  0  0  0  0  0  0
   -3.3676   21.2658  -11.5912 F   0  0  0  0  0  0  0  0  0  0  0  0
   -3.9449   22.7045  -13.3960 C   0  0  0  0  0  0  0  0  0  0  0  0
   -4.7962   23.0482  -14.4146 C   0  0  0  0  0  0  0  0  0  0  0  0
 24 25  1  0  0  0
 25 16  1  0  0  0
 16 17  1  0  0  0
 16 18  1  0  0  0
 18 19  1  0  0  0
 19 20  2  0  0  0
 19 21  1  0  0  0
 21 22  1  0  0  0
 22 23  2  0  0  0
 21  9  1  0  0  0
  9 10  2  0  0  0
 10 11  1  0  0  0
 11 12  1  0  0  0
 11 13  2  0  0  0
 13 14  1  0  0  0
 14 15  2  0  0  0
 15  1  1  0  0  0
  1  2  1  0  0  0
  2  3  1  0  0  0
  3  4  1  0  0  0
  4  5  1  0  0  0
  5  6  1  0  0  0
  4  7  1  0  0  0
  7  8  2  0  0  0
  7 26  1  0  0  0
 26 27  1  0  0  0
 26 28  1  0  0  0
 28 30  1  0  0  0
 30 31  2  0  0  0
 30 32  2  0  0  0
 30 33  1  0  0  0
 33 34  2  0  0  0
 34 35  1  0  0  0
 35 36  2  0  0  0
 36 37  1  0  0  0
 36 38  1  0  0  0
 38 39  2  0  0  0
 22 16  1  0  0  0
 15  9  1  0  0  0
  6  1  1  0  0  0
 39 33  1  0  0  0
 28 29  1  0  0  0
M  END
> <minimizedAffinity>
-7.47783

> <CNNscore>
0.0857021809

> <CNNaffinity>
6.0214705467

> <CNN_VS>
0.5160531402

> <CNNaffinity_variance>
0.1280761063

$$$$
[H]c1c([H])c(S(=O)(=O)N([H])[C@]([H])(C(=O)N2C([H])([H])C([H])([H])N(c3c([H])c([H])c(Cl)c([H])c3N3C(=O)OC(C([H])([H])[H])(C([H])([H])C([H])([H])[H])C3=O)C([H])([H])C2([H])[H])C([H])([H])[H])c([H])c([H])c1F


 39 42  0  0  0  0  0  0  0  0999 V2000
   -1.4244   22.1774  -21.4358 N   0  0  0  0  0  0  0  0  0  0  0  0
   -2.0297   21.0636  -20.7382 C   0  0  0  0  0  0  0  0  0  0  0  0
   -1.1805   20.6401  -19.5615 C   0  0  0  0  0  0  0  0  0  0  0  0
   -0.1993   21.6393  -19.2115 N   0  0  0  0  0  0  0  0  0  0  0  0
   -0.5945   23.0139  -19.2554 C   0  0  0  0  0  0  0  0  0  0  0  0
   -0.9867   23.3314  -20.6835 C   0  0  0  0  0  0  0  0  0  0  0  0
    1.0924   21.2567  -18.8139 C   0  0  0  0  0  0  0  0  0  0  0  0
    1.3321   19.9857  -18.7569 O   0  0  0  0  0  0  0  0  0  0  0  0
   -2.2483   22.6192  -23.6630 C   0  0  0  0  0  0  0  0  0  0  0  0
   -1.9788   22.6150  -25.0453 C   0  0  0  0  0  0  0  0  0  0  0  0
   -0.7873   22.2368  -25.5712 C   0  0  0  0  0  0  0  0  0  0  0  0
   -0.5828   22.2778  -27.3029 Cl  0  0  0  0  0  0  0  0  0  0  0  0
    0.2184   21.8347  -24.7260 C   0  0  0  0  0  0  0  0  0  0  0  0
    0.0221   21.8147  -23.3643 C   0  0  0  0  0  0  0  0  0  0  0  0
   -1.2229   22.2119  -22.8504 C   0  0  0  0  0  0  0  0  0  0  0  0
   -5.6388   22.9820  -22.1192 C   0  0  0  0  0  0  0  0  0  0  0  0
   -7.0563   22.7292  -22.5009 C   0  0  0  0  0  0  0  0  0  0  0  0
   -5.2627   24.3126  -22.4130 O   0  0  0  0  0  0  0  0  0  0  0  0
   -3.9258   24.3473  -22.8346 C   0  0  0  0  0  0  0  0  0  0  0  0
   -3.2366   25.4042  -22.8686 O   0  0  0  0  0  0  0  0  0  0  0  0
   -3.5168   23.0388  -23.1963 N   0  0  0  0  0  0  0  0  0  0  0  0
   -4.6566   22.2220  -22.9749 C   0  0  0  0  0  0  0  0  0  0  0  0
   -4.7911   21.0589  -23.4326 O   0  0  0  0  0  0  0  0  0  0  0  0
   -5.9311   23.7331  -19.7478 C   0  0  0  0  0  0  0  0  0  0  0  0
   -5.3981   22.6751  -20.6548 C   0  0  0  0  0  0  0  0  0  0  0  0
    2.1819   22.2035  -18.4578 C   0  0  0  0  0  0  0  0  0  0  0  0
    3.2982   22.0716  -19.4826 C   0  0  0  0  0  0  0  0  0  0  0  0
    2.6784   21.8177  -17.1434 N   0  0  0  0  0  0  0  0  0  0  0  0
    1.9479   21.4148  -16.5563 H   0  0  0  0  0  0  0  0  0  0  0  0
    3.6803   22.9958  -16.4301 S   0  0  0  0  0  0  0  0  0  0  0  0
    3.2544   24.3491  -16.9727 O   0  0  0  0  0  0  0  0  0  0  0  0
    5.1097   22.7275  -16.7156 O   0  0  0  0  0  0  0  0  0  0  0  0
    3.4736   23.0478  -14.6987 C   0  0  0  0  0  0  0  0  0  0  0  0
    4.3883   22.5312  -13.8071 C   0  0  0  0  0  0  0  0  0  0  0  0
    4.1981   22.5873  -12.4275 C   0  0  0  0  0  0  0  0  0  0  0  0
    3.0657   23.1739  -11.9246 C   0  0  0  0  0  0  0  0  0  0  0  0
    2.8728   23.2327  -10.5763 F   0  0  0  0  0  0  0  0  0  0  0  0
    2.1365   23.6971  -12.7905 C   0  0  0  0  0  0  0  0  0  0  0  0
    2.3367   23.6349  -14.1456 C   0  0  0  0  0  0  0  0  0  0  0  0
 24 25  1  0  0  0
 25 16  1  0  0  0
 16 17  1  0  0  0
 16 18  1  0  0  0
 18 19  1  0  0  0
 19 20  2  0  0  0
 19 21  1  0  0  0
 21 22  1  0  0  0
 22 23  2  0  0  0
 21  9  1  0  0  0
  9 10  2  0  0  0
 10 11  1  0  0  0
 11 12  1  0  0  0
 11 13  2  0  0  0
 13 14  1  0  0  0
 14 15  2  0  0  0
 15  1  1  0  0  0
  1  2  1  0  0  0
  2  3  1  0  0  0
  3  4  1  0  0  0
  4  5  1  0  0  0
  5  6  1  0  0  0
  4  7  1  0  0  0
  7  8  2  0  0  0
  7 26  1  0  0  0
 26 27  1  0  0  0
 26 28  1  0  0  0
 28 30  1  0  0  0
 30 31  2  0  0  0
 30 32  2  0  0  0
 30 33  1  0  0  0
 33 34  2  0  0  0
 34 35  1  0  0  0
 35 36  2  0  0  0
 36 37  1  0  0  0
 36 38  1  0  0  0
 38 39  2  0  0  0
 22 16  1  0  0  0
 15  9  1  0  0  0
  6  1  1  0  0  0
 39 33  1  0  0  0
 28 29  1  0  0  0
M  END
> <minimizedAffinity>
-7.14550

> <CNNscore>
0.0835252851

> <CNNaffinity>
5.7908210754

> <CNN_VS>
0.4836799800

> <CNNaffinity_variance>
0.2267048061

$$$$
[H]c1c([H])c([H])c(-c2c([H])c([H])c(-c3c([H])c([H])c([H])c([H])c3[C@]([H])(c3c([H])c([H])c(S(=O)(=O)N([H])C(=O)c4c([H])c([H])c5c(c4[H])OC([H])([H])O5)c([H])c3[H])N(C([H])([H])[H])C([H])([H])[H])c([H])c2[H])c([H])c1[H]


 44 49  0  0  0  0  0  0  0  0999 V2000
    1.1885   19.9651  -17.7241 C   0  0  0  0  0  0  0  0  0  0  0  0
   -0.2756   20.0333  -17.4110 C   0  0  0  0  0  0  0  0  0  0  0  0
   -0.7006   20.6855  -16.2829 C   0  0  0  0  0  0  0  0  0  0  0  0
   -2.0484   20.7601  -15.9430 C   0  0  0  0  0  0  0  0  0  0  0  0
   -2.9808   20.1683  -16.7526 C   0  0  0  0  0  0  0  0  0  0  0  0
   -2.5540   19.5151  -17.8820 C   0  0  0  0  0  0  0  0  0  0  0  0
   -1.2189   19.4423  -18.2165 C   0  0  0  0  0  0  0  0  0  0  0  0
   -4.6703   20.2787  -16.3112 S   0  0  0  0  0  0  0  0  0  0  0  0
   -4.9440   19.2439  -15.2465 O   0  0  0  0  0  0  0  0  0  0  0  0
   -5.5059   19.9214  -17.4936 O   0  0  0  0  0  0  0  0  0  0  0  0
   -5.0518   21.8052  -15.6394 N   0  0  0  0  0  0  0  0  0  0  0  0
   -6.3444   22.0330  -15.1095 C   0  0  0  0  0  0  0  0  0  0  0  0
   -7.1973   21.0867  -15.1453 O   0  0  0  0  0  0  0  0  0  0  0  0
   -4.3308   22.5279  -15.6334 H   0  0  0  0  0  0  0  0  0  0  0  0
   -6.7726   23.2771  -14.5228 C   0  0  0  0  0  0  0  0  0  0  0  0
   -5.9863   24.4002  -14.5795 C   0  0  0  0  0  0  0  0  0  0  0  0
   -6.4099   25.5672  -14.0135 C   0  0  0  0  0  0  0  0  0  0  0  0
   -7.6238   25.6533  -13.3760 C   0  0  0  0  0  0  0  0  0  0  0  0
   -8.2749   26.7169  -12.7266 O   0  0  0  0  0  0  0  0  0  0  0  0
   -9.6124   26.3044  -12.5114 C   0  0  0  0  0  0  0  0  0  0  0  0
   -9.5788   24.8949  -12.6200 O   0  0  0  0  0  0  0  0  0  0  0  0
   -8.4266   24.5356  -13.3092 C   0  0  0  0  0  0  0  0  0  0  0  0
   -7.9891   23.3443  -13.8897 C   0  0  0  0  0  0  0  0  0  0  0  0
    1.7871   21.3521  -17.5950 C   0  0  0  0  0  0  0  0  0  0  0  0
    2.6306   21.6397  -16.5479 C   0  0  0  0  0  0  0  0  0  0  0  0
    3.1700   22.8908  -16.3906 C   0  0  0  0  0  0  0  0  0  0  0  0
    2.8647   23.9032  -17.3049 C   0  0  0  0  0  0  0  0  0  0  0  0
    2.0311   23.6382  -18.3495 C   0  0  0  0  0  0  0  0  0  0  0  0
    1.4912   22.3464  -18.4895 C   0  0  0  0  0  0  0  0  0  0  0  0
    0.6383   22.1721  -19.6750 C   0  0  0  0  0  0  0  0  0  0  0  0
   -0.5565   22.8647  -19.8096 C   0  0  0  0  0  0  0  0  0  0  0  0
   -1.3352   22.7463  -20.9389 C   0  0  0  0  0  0  0  0  0  0  0  0
   -0.9602   21.9347  -21.9836 C   0  0  0  0  0  0  0  0  0  0  0  0
    0.2325   21.2398  -21.8557 C   0  0  0  0  0  0  0  0  0  0  0  0
    1.0180   21.3639  -20.7079 C   0  0  0  0  0  0  0  0  0  0  0  0
   -1.7872   21.8052  -23.1935 C   0  0  0  0  0  0  0  0  0  0  0  0
   -1.1909   22.0471  -24.4361 C   0  0  0  0  0  0  0  0  0  0  0  0
   -1.9348   21.9362  -25.5912 C   0  0  0  0  0  0  0  0  0  0  0  0
   -3.2682   21.5882  -25.5466 C   0  0  0  0  0  0  0  0  0  0  0  0
   -3.8376   21.3530  -24.2999 C   0  0  0  0  0  0  0  0  0  0  0  0
   -3.1152   21.4575  -23.1334 C   0  0  0  0  0  0  0  0  0  0  0  0
    1.3008   18.2003  -16.0344 C   0  0  0  0  0  0  0  0  0  0  0  0
    1.9184   19.0149  -16.9811 N   0  0  0  0  0  0  0  0  0  0  0  0
    2.9687   18.3669  -17.6835 C   0  0  0  0  0  0  0  0  0  0  0  0
 42 43  1  0  0  0
 43 44  1  0  0  0
 43  1  1  0  0  0
  1  2  1  0  0  0
  2  3  2  0  0  0
  3  4  1  0  0  0
  4  5  2  0  0  0
  5  6  1  0  0  0
  6  7  2  0  0  0
  5  8  1  0  0  0
  8  9  2  0  0  0
  8 10  2  0  0  0
  8 11  1  0  0  0
 11 12  1  0  0  0
 12 13  2  0  0  0
 12 15  1  0  0  0
 15 16  2  0  0  0
 16 17  1  0  0  0
 17 18  2  0  0  0
 18 19  1  0  0  0
 19 20  1  0  0  0
 20 21  1  0  0  0
 21 22  1  0  0  0
 22 23  2  0  0  0
  1 24  1  0  0  0
 24 25  2  0  0  0
 25 26  1  0  0  0
 26 27  2  0  0  0
 27 28  1  0  0  0
 28 29  2  0  0  0
 29 30  1  0  0  0
 30 31  2  0  0  0
 31 32  1  0  0  0
 32 33  2  0  0  0
 33 34  1  0  0  0
 34 35  2  0  0  0
 33 36  1  0  0  0
 36 37  2  0  0  0
 37 38  1  0  0  0
 38 39  2  0  0  0
 39 40  1  0  0  0
 40 41  2  0  0  0
  7  2  1  0  0  0
 23 15  1  0  0  0
 29 24  1  0  0  0
 35 30  1  0  0  0
 41 36  1  0  0  0
 22 18  1  0  0  0
 11 14  1  0  0  0
M  END
> <minimizedAffinity>
-6.65804

> <CNNscore>
0.3409013152

> <CNNaffinity>
6.3762216568

> <CNN_VS>
2.1736624241

> <CNNaffinity_variance>
0.1481825560

$$$$
[H]c1c([H])c([H])c(-c2c([H])c([H])c(-c3c([H])c([H])c([H])c([H])c3[C@]([H])(c3c([H])c([H])c(S(=O)(=O)N([H])C(=O)c4c([H])c([H])c5c(c4[H])OC([H])([H])O5)c([H])c3[H])N(C([H])([H])[H])C([H])([H])[H])c([H])c2[H])c([H])c1[H]


 44 49  0  0  0  0  0  0  0  0999 V2000
   -1.4870   20.1931  -18.4945 C   0  0  0  0  0  0  0  0  0  0  0  0
   -2.7087   20.7749  -17.8500 C   0  0  0  0  0  0  0  0  0  0  0  0
   -3.4659   21.6923  -18.5310 C   0  0  0  0  0  0  0  0  0  0  0  0
   -4.5988   22.2715  -17.9664 C   0  0  0  0  0  0  0  0  0  0  0  0
   -4.9733   21.9204  -16.6970 C   0  0  0  0  0  0  0  0  0  0  0  0
   -4.2141   21.0017  -16.0159 C   0  0  0  0  0  0  0  0  0  0  0  0
   -3.0925   20.4296  -16.5767 C   0  0  0  0  0  0  0  0  0  0  0  0
   -6.4039   22.6551  -16.0078 S   0  0  0  0  0  0  0  0  0  0  0  0
   -7.5082   21.6256  -16.0155 O   0  0  0  0  0  0  0  0  0  0  0  0
   -6.8452   23.7767  -16.8858 O   0  0  0  0  0  0  0  0  0  0  0  0
   -6.1576   23.1169  -14.3789 N   0  0  0  0  0  0  0  0  0  0  0  0
   -6.8479   24.2371  -13.8574 C   0  0  0  0  0  0  0  0  0  0  0  0
   -7.6429   24.8772  -14.6205 O   0  0  0  0  0  0  0  0  0  0  0  0
   -5.5116   22.5679  -13.8101 H   0  0  0  0  0  0  0  0  0  0  0  0
   -6.7150   24.7137  -12.5043 C   0  0  0  0  0  0  0  0  0  0  0  0
   -5.9361   24.0522  -11.5887 C   0  0  0  0  0  0  0  0  0  0  0  0
   -5.8277   24.5191  -10.3112 C   0  0  0  0  0  0  0  0  0  0  0  0
   -6.4879   25.6538   -9.9062 C   0  0  0  0  0  0  0  0  0  0  0  0
   -6.5388   26.3259   -8.6723 O   0  0  0  0  0  0  0  0  0  0  0  0
   -7.1423   27.5831   -8.9185 C   0  0  0  0  0  0  0  0  0  0  0  0
   -7.8187   27.4252  -10.1503 O   0  0  0  0  0  0  0  0  0  0  0  0
   -7.2746   26.3309  -10.8122 C   0  0  0  0  0  0  0  0  0  0  0  0
   -7.3823   25.8496  -12.1177 C   0  0  0  0  0  0  0  0  0  0  0  0
   -0.2854   21.0454  -18.1362 C   0  0  0  0  0  0  0  0  0  0  0  0
    0.1834   21.0603  -16.8438 C   0  0  0  0  0  0  0  0  0  0  0  0
    1.2539   21.8381  -16.4832 C   0  0  0  0  0  0  0  0  0  0  0  0
    1.8904   22.6367  -17.4379 C   0  0  0  0  0  0  0  0  0  0  0  0
    1.4411   22.6357  -18.7242 C   0  0  0  0  0  0  0  0  0  0  0  0
    0.3416   21.8284  -19.0692 C   0  0  0  0  0  0  0  0  0  0  0  0
   -0.0257   21.8821  -20.4924 C   0  0  0  0  0  0  0  0  0  0  0  0
   -0.9771   22.7792  -20.9564 C   0  0  0  0  0  0  0  0  0  0  0  0
   -1.2894   22.8713  -22.2942 C   0  0  0  0  0  0  0  0  0  0  0  0
   -0.6696   22.0760  -23.2290 C   0  0  0  0  0  0  0  0  0  0  0  0
    0.2821   21.1774  -22.7723 C   0  0  0  0  0  0  0  0  0  0  0  0
    0.5945   21.0885  -21.4142 C   0  0  0  0  0  0  0  0  0  0  0  0
   -0.9978   22.1708  -24.6600 C   0  0  0  0  0  0  0  0  0  0  0  0
   -2.3461   22.1843  -25.0341 C   0  0  0  0  0  0  0  0  0  0  0  0
   -2.6915   22.2713  -26.3656 C   0  0  0  0  0  0  0  0  0  0  0  0
   -1.7255   22.3460  -27.3466 C   0  0  0  0  0  0  0  0  0  0  0  0
   -0.3929   22.3308  -26.9494 C   0  0  0  0  0  0  0  0  0  0  0  0
   -0.0238   22.2446  -25.6266 C   0  0  0  0  0  0  0  0  0  0  0  0
   -2.3057   17.9255  -18.0824 C   0  0  0  0  0  0  0  0  0  0  0  0
   -1.2548   18.8297  -18.2210 N   0  0  0  0  0  0  0  0  0  0  0  0
   -0.1071   18.2696  -18.8419 C   0  0  0  0  0  0  0  0  0  0  0  0
 42 43  1  0  0  0
 43 44  1  0  0  0
 43  1  1  0  0  0
  1  2  1  0  0  0
  2  3  2  0  0  0
  3  4  1  0  0  0
  4  5  2  0  0  0
  5  6  1  0  0  0
  6  7  2  0  0  0
  5  8  1  0  0  0
  8  9  2  0  0  0
  8 10  2  0  0  0
  8 11  1  0  0  0
 11 12  1  0  0  0
 12 13  2  0  0  0
 12 15  1  0  0  0
 15 16  2  0  0  0
 16 17  1  0  0  0
 17 18  2  0  0  0
 18 19  1  0  0  0
 19 20  1  0  0  0
 20 21  1  0  0  0
 21 22  1  0  0  0
 22 23  2  0  0  0
  1 24  1  0  0  0
 24 25  2  0  0  0
 25 26  1  0  0  0
 26 27  2  0  0  0
 27 28  1  0  0  0
 28 29  2  0  0  0
 29 30  1  0  0  0
 30 31  2  0  0  0
 31 32  1  0  0  0
 32 33  2  0  0  0
 33 34  1  0  0  0
 34 35  2  0  0  0
 33 36  1  0  0  0
 36 37  2  0  0  0
 37 38  1  0  0  0
 38 39  2  0  0  0
 39 40  1  0  0  0
 40 41  2  0  0  0
  7  2  1  0  0  0
 23 15  1  0  0  0
 29 24  1  0  0  0
 35 30  1  0  0  0
 41 36  1  0  0  0
 22 18  1  0  0  0
 11 14  1  0  0  0
M  END
> <minimizedAffinity>
-7.42223

> <CNNscore>
0.3046192229

> <CNNaffinity>
6.0415759087

> <CNN_VS>
1.8403801918

> <CNNaffinity_variance>
0.0724735335

$$$$
[H]c1c([H])c([H])c(-c2c([H])c([H])c(-c3c([H])c([H])c([H])c([H])c3[C@]([H])(c3c([H])c([H])c(S(=O)(=O)N([H])C(=O)c4c([H])c([H])c5c(c4[H])OC([H])([H])O5)c([H])c3[H])N(C([H])([H])[H])C([H])([H])[H])c([H])c2[H])c([H])c1[H]


 44 49  0  0  0  0  0  0  0  0999 V2000
   -0.9500   17.4889  -16.2700 C   0  0  0  0  0  0  0  0  0  0  0  0
   -1.2178   18.7196  -17.0822 C   0  0  0  0  0  0  0  0  0  0  0  0
   -2.4751   18.9474  -17.5784 C   0  0  0  0  0  0  0  0  0  0  0  0
   -2.7663   20.0677  -18.3514 C   0  0  0  0  0  0  0  0  0  0  0  0
   -1.7752   20.9713  -18.6280 C   0  0  0  0  0  0  0  0  0  0  0  0
   -0.5165   20.7420  -18.1309 C   0  0  0  0  0  0  0  0  0  0  0  0
   -0.2303   19.6318  -17.3658 C   0  0  0  0  0  0  0  0  0  0  0  0
   -2.1631   22.3761  -19.5962 S   0  0  0  0  0  0  0  0  0  0  0  0
   -1.2531   23.5031  -19.1707 O   0  0  0  0  0  0  0  0  0  0  0  0
   -3.5596   22.8037  -19.2945 O   0  0  0  0  0  0  0  0  0  0  0  0
   -1.8765   22.0985  -21.2599 N   0  0  0  0  0  0  0  0  0  0  0  0
   -2.2466   23.0828  -22.2072 C   0  0  0  0  0  0  0  0  0  0  0  0
   -2.7869   24.1602  -21.7930 O   0  0  0  0  0  0  0  0  0  0  0  0
   -1.4383   21.2193  -21.5379 H   0  0  0  0  0  0  0  0  0  0  0  0
   -2.0534   22.9532  -23.6290 C   0  0  0  0  0  0  0  0  0  0  0  0
   -3.0591   23.2471  -24.5149 C   0  0  0  0  0  0  0  0  0  0  0  0
   -2.8556   23.1134  -25.8575 C   0  0  0  0  0  0  0  0  0  0  0  0
   -1.6503   22.6849  -26.3587 C   0  0  0  0  0  0  0  0  0  0  0  0
   -1.1981   22.4693  -27.6725 O   0  0  0  0  0  0  0  0  0  0  0  0
    0.2065   22.3062  -27.5974 C   0  0  0  0  0  0  0  0  0  0  0  0
    0.4619   21.9822  -26.2449 O   0  0  0  0  0  0  0  0  0  0  0  0
   -0.6290   22.3852  -25.4839 C   0  0  0  0  0  0  0  0  0  0  0  0
   -0.8419   22.5236  -24.1117 C   0  0  0  0  0  0  0  0  0  0  0  0
    0.2839   16.7960  -16.8140 C   0  0  0  0  0  0  0  0  0  0  0  0
    1.5321   17.1854  -16.3888 C   0  0  0  0  0  0  0  0  0  0  0  0
    2.6683   16.5939  -16.8790 C   0  0  0  0  0  0  0  0  0  0  0  0
    2.5705   15.5743  -17.8302 C   0  0  0  0  0  0  0  0  0  0  0  0
    1.3426   15.1738  -18.2642 C   0  0  0  0  0  0  0  0  0  0  0  0
    0.1920   15.7957  -17.7454 C   0  0  0  0  0  0  0  0  0  0  0  0
   -1.0740   15.2522  -18.2604 C   0  0  0  0  0  0  0  0  0  0  0  0
   -1.7269   14.2131  -17.6131 C   0  0  0  0  0  0  0  0  0  0  0  0
   -2.9378   13.7332  -18.0593 C   0  0  0  0  0  0  0  0  0  0  0  0
   -3.5525   14.2653  -19.1683 C   0  0  0  0  0  0  0  0  0  0  0  0
   -2.9056   15.3039  -19.8199 C   0  0  0  0  0  0  0  0  0  0  0  0
   -1.6776   15.7864  -19.3625 C   0  0  0  0  0  0  0  0  0  0  0  0
   -4.8470   13.7579  -19.6491 C   0  0  0  0  0  0  0  0  0  0  0  0
   -5.1984   12.4379  -19.3461 C   0  0  0  0  0  0  0  0  0  0  0  0
   -6.4030   11.9278  -19.7807 C   0  0  0  0  0  0  0  0  0  0  0  0
   -7.2776   12.6999  -20.5155 C   0  0  0  0  0  0  0  0  0  0  0  0
   -6.9055   14.0085  -20.8036 C   0  0  0  0  0  0  0  0  0  0  0  0
   -5.7086   14.5395  -20.3806 C   0  0  0  0  0  0  0  0  0  0  0  0
   -1.3222   18.8662  -14.2833 C   0  0  0  0  0  0  0  0  0  0  0  0
   -0.8566   17.6957  -14.8785 N   0  0  0  0  0  0  0  0  0  0  0  0
   -1.0477   16.5401  -14.0756 C   0  0  0  0  0  0  0  0  0  0  0  0
 42 43  1  0  0  0
 43 44  1  0  0  0
 43  1  1  0  0  0
  1  2  1  0  0  0
  2  3  2  0  0  0
  3  4  1  0  0  0
  4  5  2  0  0  0
  5  6  1  0  0  0
  6  7  2  0  0  0
  5  8  1  0  0  0
  8  9  2  0  0  0
  8 10  2  0  0  0
  8 11  1  0  0  0
 11 12  1  0  0  0
 12 13  2  0  0  0
 12 15  1  0  0  0
 15 16  2  0  0  0
 16 17  1  0  0  0
 17 18  2  0  0  0
 18 19  1  0  0  0
 19 20  1  0  0  0
 20 21  1  0  0  0
 21 22  1  0  0  0
 22 23  2  0  0  0
  1 24  1  0  0  0
 24 25  2  0  0  0
 25 26  1  0  0  0
 26 27  2  0  0  0
 27 28  1  0  0  0
 28 29  2  0  0  0
 29 30  1  0  0  0
 30 31  2  0  0  0
 31 32  1  0  0  0
 32 33  2  0  0  0
 33 34  1  0  0  0
 34 35  2  0  0  0
 33 36  1  0  0  0
 36 37  2  0  0  0
 37 38  1  0  0  0
 38 39  2  0  0  0
 39 40  1  0  0  0
 40 41  2  0  0  0
  7  2  1  0  0  0
 23 15  1  0  0  0
 29 24  1  0  0  0
 35 30  1  0  0  0
 41 36  1  0  0  0
 22 18  1  0  0  0
 11 14  1  0  0  0
M  END
> <minimizedAffinity>
-6.89892

> <CNNscore>
0.2967060506

> <CNNaffinity>
6.1672644615

> <CNN_VS>
1.8298647404

> <CNNaffinity_variance>
0.0764551610

$$$$
[H]c1c([H])c([H])c(-c2c([H])c([H])c(-c3c([H])c([H])c([H])c([H])c3[C@]([H])(c3c([H])c([H])c(S(=O)(=O)N([H])C(=O)c4c([H])c([H])c5c(c4[H])OC([H])([H])O5)c([H])c3[H])N(C([H])([H])[H])C([H])([H])[H])c([H])c2[H])c([H])c1[H]


 44 49  0  0  0  0  0  0  0  0999 V2000
    0.5900   20.1282  -17.6105 C   0  0  0  0  0  0  0  0  0  0  0  0
   -0.8776   20.4194  -17.5226 C   0  0  0  0  0  0  0  0  0  0  0  0
   -1.3377   21.3257  -16.6030 C   0  0  0  0  0  0  0  0  0  0  0  0
   -2.6931   21.6154  -16.4741 C   0  0  0  0  0  0  0  0  0  0  0  0
   -3.5973   20.9819  -17.2841 C   0  0  0  0  0  0  0  0  0  0  0  0
   -3.1354   20.0743  -18.2044 C   0  0  0  0  0  0  0  0  0  0  0  0
   -1.7928   19.7887  -18.3303 C   0  0  0  0  0  0  0  0  0  0  0  0
   -5.2957   21.3647  -17.1105 S   0  0  0  0  0  0  0  0  0  0  0  0
   -5.6929   22.2609  -18.2587 O   0  0  0  0  0  0  0  0  0  0  0  0
   -5.4919   22.1474  -15.8564 O   0  0  0  0  0  0  0  0  0  0  0  0
   -6.2742   19.9642  -17.2035 N   0  0  0  0  0  0  0  0  0  0  0  0
   -7.6593   20.0591  -16.9283 C   0  0  0  0  0  0  0  0  0  0  0  0
   -8.1463   21.1950  -16.6174 O   0  0  0  0  0  0  0  0  0  0  0  0
   -5.8339   19.0794  -17.4596 H   0  0  0  0  0  0  0  0  0  0  0  0
   -8.5735   18.9466  -16.9754 C   0  0  0  0  0  0  0  0  0  0  0  0
   -8.1733   17.7134  -17.4246 C   0  0  0  0  0  0  0  0  0  0  0  0
   -9.0570   16.6745  -17.4644 C   0  0  0  0  0  0  0  0  0  0  0  0
  -10.3609   16.8292  -17.0604 C   0  0  0  0  0  0  0  0  0  0  0  0
  -11.4439   15.9341  -17.0055 O   0  0  0  0  0  0  0  0  0  0  0  0
  -12.4556   16.5663  -16.2426 C   0  0  0  0  0  0  0  0  0  0  0  0
  -12.1229   17.9404  -16.2674 O   0  0  0  0  0  0  0  0  0  0  0  0
  -10.7805   18.0605  -16.6065 C   0  0  0  0  0  0  0  0  0  0  0  0
   -9.8730   19.1199  -16.5674 C   0  0  0  0  0  0  0  0  0  0  0  0
    1.3584   21.4331  -17.5373 C   0  0  0  0  0  0  0  0  0  0  0  0
    2.1610   21.6959  -16.4523 C   0  0  0  0  0  0  0  0  0  0  0  0
    2.8508   22.8765  -16.3458 C   0  0  0  0  0  0  0  0  0  0  0  0
    2.7451   23.8407  -17.3524 C   0  0  0  0  0  0  0  0  0  0  0  0
    1.9551   23.5992  -18.4359 C   0  0  0  0  0  0  0  0  0  0  0  0
    1.2582   22.3800  -18.5222 C   0  0  0  0  0  0  0  0  0  0  0  0
    0.4706   22.2190  -19.7539 C   0  0  0  0  0  0  0  0  0  0  0  0
   -0.6803   22.9620  -19.9740 C   0  0  0  0  0  0  0  0  0  0  0  0
   -1.3947   22.8547  -21.1462 C   0  0  0  0  0  0  0  0  0  0  0  0
   -0.9961   22.0044  -22.1506 C   0  0  0  0  0  0  0  0  0  0  0  0
    0.1532   21.2591  -21.9373 C   0  0  0  0  0  0  0  0  0  0  0  0
    0.8734   21.3721  -20.7464 C   0  0  0  0  0  0  0  0  0  0  0  0
   -1.7542   21.8865  -23.4059 C   0  0  0  0  0  0  0  0  0  0  0  0
   -1.1026   22.1860  -24.6075 C   0  0  0  0  0  0  0  0  0  0  0  0
   -1.7813   22.0876  -25.8031 C   0  0  0  0  0  0  0  0  0  0  0  0
   -3.1028   21.6959  -25.8396 C   0  0  0  0  0  0  0  0  0  0  0  0
   -3.7280   21.4037  -24.6323 C   0  0  0  0  0  0  0  0  0  0  0  0
   -3.0712   21.4948  -23.4266 C   0  0  0  0  0  0  0  0  0  0  0  0
    0.2622   18.6895  -15.6599 C   0  0  0  0  0  0  0  0  0  0  0  0
    1.0734   19.1895  -16.6763 N   0  0  0  0  0  0  0  0  0  0  0  0
    1.9880   18.2326  -17.1902 C   0  0  0  0  0  0  0  0  0  0  0  0
 42 43  1  0  0  0
 43 44  1  0  0  0
 43  1  1  0  0  0
  1  2  1  0  0  0
  2  3  2  0  0  0
  3  4  1  0  0  0
  4  5  2  0  0  0
  5  6  1  0  0  0
  6  7  2  0  0  0
  5  8  1  0  0  0
  8  9  2  0  0  0
  8 10  2  0  0  0
  8 11  1  0  0  0
 11 12  1  0  0  0
 12 13  2  0  0  0
 12 15  1  0  0  0
 15 16  2  0  0  0
 16 17  1  0  0  0
 17 18  2  0  0  0
 18 19  1  0  0  0
 19 20  1  0  0  0
 20 21  1  0  0  0
 21 22  1  0  0  0
 22 23  2  0  0  0
  1 24  1  0  0  0
 24 25  2  0  0  0
 25 26  1  0  0  0
 26 27  2  0  0  0
 27 28  1  0  0  0
 28 29  2  0  0  0
 29 30  1  0  0  0
 30 31  2  0  0  0
 31 32  1  0  0  0
 32 33  2  0  0  0
 33 34  1  0  0  0
 34 35  2  0  0  0
 33 36  1  0  0  0
 36 37  2  0  0  0
 37 38  1  0  0  0
 38 39  2  0  0  0
 39 40  1  0  0  0
 40 41  2  0  0  0
  7  2  1  0  0  0
 23 15  1  0  0  0
 29 24  1  0  0  0
 35 30  1  0  0  0
 41 36  1  0  0  0
 22 18  1  0  0  0
 11 14  1  0  0  0
M  END
> <minimizedAffinity>
-6.72847

> <CNNscore>
0.2912957072

> <CNNaffinity>
6.1405677795

> <CNN_VS>
1.7887210846

> <CNNaffinity_variance>
0.0585861318

$$$$
[H]c1c([H])c([H])c(-c2c([H])c([H])c(-c3c([H])c([H])c([H])c([H])c3[C@]([H])(c3c([H])c([H])c(S(=O)(=O)N([H])C(=O)c4c([H])c([H])c5c(c4[H])OC([H])([H])O5)c([H])c3[H])N(C([H])([H])[H])C([H])([H])[H])c([H])c2[H])c([H])c1[H]


 44 49  0  0  0  0  0  0  0  0999 V2000
   -6.7787   22.0023  -18.3642 C   0  0  0  0  0  0  0  0  0  0  0  0
   -5.4227   22.0504  -19.0006 C   0  0  0  0  0  0  0  0  0  0  0  0
   -5.2948   21.8304  -20.3474 C   0  0  0  0  0  0  0  0  0  0  0  0
   -4.0543   21.8486  -20.9786 C   0  0  0  0  0  0  0  0  0  0  0  0
   -2.9267   22.0921  -20.2409 C   0  0  0  0  0  0  0  0  0  0  0  0
   -3.0559   22.3120  -18.8922 C   0  0  0  0  0  0  0  0  0  0  0  0
   -4.2853   22.2933  -18.2691 C   0  0  0  0  0  0  0  0  0  0  0  0
   -1.3778   22.1170  -21.0542 S   0  0  0  0  0  0  0  0  0  0  0  0
   -1.2425   23.4437  -21.7620 O   0  0  0  0  0  0  0  0  0  0  0  0
   -1.3628   21.0576  -22.1037 O   0  0  0  0  0  0  0  0  0  0  0  0
   -0.0783   22.0023  -19.9472 N   0  0  0  0  0  0  0  0  0  0  0  0
    0.2498   23.1148  -19.1360 C   0  0  0  0  0  0  0  0  0  0  0  0
   -0.4380   24.1815  -19.2508 O   0  0  0  0  0  0  0  0  0  0  0  0
    0.4386   21.1236  -19.8933 H   0  0  0  0  0  0  0  0  0  0  0  0
    1.3221   23.1288  -18.1740 C   0  0  0  0  0  0  0  0  0  0  0  0
    1.3381   22.2607  -17.1115 C   0  0  0  0  0  0  0  0  0  0  0  0
    2.3618   22.2940  -16.2099 C   0  0  0  0  0  0  0  0  0  0  0  0
    3.3971   23.1881  -16.3364 C   0  0  0  0  0  0  0  0  0  0  0  0
    4.5451   23.4183  -15.5580 O   0  0  0  0  0  0  0  0  0  0  0  0
    5.3909   24.2606  -16.3198 C   0  0  0  0  0  0  0  0  0  0  0  0
    4.5420   24.8482  -17.2861 O   0  0  0  0  0  0  0  0  0  0  0  0
    3.3976   24.0674  -17.3971 C   0  0  0  0  0  0  0  0  0  0  0  0
    2.3486   24.0294  -18.3167 C   0  0  0  0  0  0  0  0  0  0  0  0
   -6.6160   21.8809  -16.8617 C   0  0  0  0  0  0  0  0  0  0  0  0
   -6.5682   23.0135  -16.0837 C   0  0  0  0  0  0  0  0  0  0  0  0
   -6.3989   22.9378  -14.7248 C   0  0  0  0  0  0  0  0  0  0  0  0
   -6.2708   21.6913  -14.1052 C   0  0  0  0  0  0  0  0  0  0  0  0
   -6.3158   20.5569  -14.8585 C   0  0  0  0  0  0  0  0  0  0  0  0
   -6.4912   20.6611  -16.2507 C   0  0  0  0  0  0  0  0  0  0  0  0
   -6.5626   19.3692  -16.9501 C   0  0  0  0  0  0  0  0  0  0  0  0
   -5.4162   18.7320  -17.4027 C   0  0  0  0  0  0  0  0  0  0  0  0
   -5.4698   17.4986  -18.0123 C   0  0  0  0  0  0  0  0  0  0  0  0
   -6.6651   16.8449  -18.1985 C   0  0  0  0  0  0  0  0  0  0  0  0
   -7.8145   17.4759  -17.7485 C   0  0  0  0  0  0  0  0  0  0  0  0
   -7.7538   18.7269  -17.1310 C   0  0  0  0  0  0  0  0  0  0  0  0
   -6.7288   15.5262  -18.8478 C   0  0  0  0  0  0  0  0  0  0  0  0
   -6.1602   15.3819  -20.1181 C   0  0  0  0  0  0  0  0  0  0  0  0
   -6.2017   14.1615  -20.7576 C   0  0  0  0  0  0  0  0  0  0  0  0
   -6.7981   13.0689  -20.1647 C   0  0  0  0  0  0  0  0  0  0  0  0
   -7.3559   13.2379  -18.9021 C   0  0  0  0  0  0  0  0  0  0  0  0
   -7.3267   14.4461  -18.2443 C   0  0  0  0  0  0  0  0  0  0  0  0
   -7.1547   24.2542  -19.2418 C   0  0  0  0  0  0  0  0  0  0  0  0
   -7.6416   23.0632  -18.7074 N   0  0  0  0  0  0  0  0  0  0  0  0
   -8.8997   22.6780  -19.2417 C   0  0  0  0  0  0  0  0  0  0  0  0
 42 43  1  0  0  0
 43 44  1  0  0  0
 43  1  1  0  0  0
  1  2  1  0  0  0
  2  3  2  0  0  0
  3  4  1  0  0  0
  4  5  2  0  0  0
  5  6  1  0  0  0
  6  7  2  0  0  0
  5  8  1  0  0  0
  8  9  2  0  0  0
  8 10  2  0  0  0
  8 11  1  0  0  0
 11 12  1  0  0  0
 12 13  2  0  0  0
 12 15  1  0  0  0
 15 16  2  0  0  0
 16 17  1  0  0  0
 17 18  2  0  0  0
 18 19  1  0  0  0
 19 20  1  0  0  0
 20 21  1  0  0  0
 21 22  1  0  0  0
 22 23  2  0  0  0
  1 24  1  0  0  0
 24 25  2  0  0  0
 25 26  1  0  0  0
 26 27  2  0  0  0
 27 28  1  0  0  0
 28 29  2  0  0  0
 29 30  1  0  0  0
 30 31  2  0  0  0
 31 32  1  0  0  0
 32 33  2  0  0  0
 33 34  1  0  0  0
 34 35  2  0  0  0
 33 36  1  0  0  0
 36 37  2  0  0  0
 37 38  1  0  0  0
 38 39  2  0  0  0
 39 40  1  0  0  0
 40 41  2  0  0  0
  7  2  1  0  0  0
 23 15  1  0  0  0
 29 24  1  0  0  0
 35 30  1  0  0  0
 41 36  1  0  0  0
 22 18  1  0  0  0
 11 14  1  0  0  0
M  END
> <minimizedAffinity>
-6.96384

> <CNNscore>
0.2627888024

> <CNNaffinity>
5.7595357895

> <CNN_VS>
1.5135414600

> <CNNaffinity_variance>
0.2471613139

$$$$
[H]c1c([H])c([H])c(-c2c([H])c([H])c(-c3c([H])c([H])c([H])c([H])c3[C@]([H])(c3c([H])c([H])c(S(=O)(=O)N([H])C(=O)c4c([H])c([H])c5c(c4[H])OC([H])([H])O5)c([H])c3[H])N(C([H])([H])[H])C([H])([H])[H])c([H])c2[H])c([H])c1[H]


 44 49  0  0  0  0  0  0  0  0999 V2000
   -1.5078   20.2934  -18.2572 C   0  0  0  0  0  0  0  0  0  0  0  0
   -2.7433   21.0770  -17.9320 C   0  0  0  0  0  0  0  0  0  0  0  0
   -3.8663   20.9281  -18.7035 C   0  0  0  0  0  0  0  0  0  0  0  0
   -5.0309   21.6471  -18.4494 C   0  0  0  0  0  0  0  0  0  0  0  0
   -5.0631   22.5289  -17.4022 C   0  0  0  0  0  0  0  0  0  0  0  0
   -3.9377   22.6774  -16.6305 C   0  0  0  0  0  0  0  0  0  0  0  0
   -2.7855   21.9646  -16.8840 C   0  0  0  0  0  0  0  0  0  0  0  0
   -6.5383   23.4183  -17.0958 S   0  0  0  0  0  0  0  0  0  0  0  0
   -7.3342   23.4600  -18.3781 O   0  0  0  0  0  0  0  0  0  0  0  0
   -6.1934   24.8270  -16.7489 O   0  0  0  0  0  0  0  0  0  0  0  0
   -7.5139   22.6437  -15.9230 N   0  0  0  0  0  0  0  0  0  0  0  0
   -7.2216   22.8118  -14.5484 C   0  0  0  0  0  0  0  0  0  0  0  0
   -6.2321   23.5433  -14.2168 O   0  0  0  0  0  0  0  0  0  0  0  0
   -8.2962   22.0708  -16.2425 H   0  0  0  0  0  0  0  0  0  0  0  0
   -7.9741   22.2064  -13.4793 C   0  0  0  0  0  0  0  0  0  0  0  0
   -8.1942   22.8691  -12.2982 C   0  0  0  0  0  0  0  0  0  0  0  0
   -8.9064   22.2752  -11.2973 C   0  0  0  0  0  0  0  0  0  0  0  0
   -9.4198   21.0088  -11.4393 C   0  0  0  0  0  0  0  0  0  0  0  0
  -10.1721   20.1936  -10.5755 O   0  0  0  0  0  0  0  0  0  0  0  0
  -10.6592   19.1161  -11.3547 C   0  0  0  0  0  0  0  0  0  0  0  0
   -9.8258   19.0891  -12.4968 O   0  0  0  0  0  0  0  0  0  0  0  0
   -9.2085   20.3283  -12.6185 C   0  0  0  0  0  0  0  0  0  0  0  0
   -8.4796   20.9400  -13.6394 C   0  0  0  0  0  0  0  0  0  0  0  0
   -0.2889   21.1157  -17.8875 C   0  0  0  0  0  0  0  0  0  0  0  0
    0.1820   21.1006  -16.5958 C   0  0  0  0  0  0  0  0  0  0  0  0
    1.2683   21.8511  -16.2247 C   0  0  0  0  0  0  0  0  0  0  0  0
    1.9192   22.6519  -17.1676 C   0  0  0  0  0  0  0  0  0  0  0  0
    1.4682   22.6805  -18.4530 C   0  0  0  0  0  0  0  0  0  0  0  0
    0.3522   21.9009  -18.8089 C   0  0  0  0  0  0  0  0  0  0  0  0
   -0.0160   21.9846  -20.2304 C   0  0  0  0  0  0  0  0  0  0  0  0
    0.5570   21.1427  -21.1727 C   0  0  0  0  0  0  0  0  0  0  0  0
    0.1804   21.1797  -22.4965 C   0  0  0  0  0  0  0  0  0  0  0  0
   -0.7822   22.0550  -22.9414 C   0  0  0  0  0  0  0  0  0  0  0  0
   -1.3589   22.8992  -22.0051 C   0  0  0  0  0  0  0  0  0  0  0  0
   -0.9728   22.8570  -20.6639 C   0  0  0  0  0  0  0  0  0  0  0  0
   -1.1900   22.0984  -24.3543 C   0  0  0  0  0  0  0  0  0  0  0  0
   -0.2024   22.2927  -25.3263 C   0  0  0  0  0  0  0  0  0  0  0  0
   -0.5472   22.3398  -26.6600 C   0  0  0  0  0  0  0  0  0  0  0  0
   -1.8591   22.1976  -27.0599 C   0  0  0  0  0  0  0  0  0  0  0  0
   -2.8219   22.0056  -26.0751 C   0  0  0  0  0  0  0  0  0  0  0  0
   -2.5018   21.9552  -24.7378 C   0  0  0  0  0  0  0  0  0  0  0  0
   -2.4309   18.5448  -16.8175 C   0  0  0  0  0  0  0  0  0  0  0  0
   -1.4505   19.0014  -17.6958 N   0  0  0  0  0  0  0  0  0  0  0  0
   -0.9414   17.9872  -18.5494 C   0  0  0  0  0  0  0  0  0  0  0  0
 42 43  1  0  0  0
 43 44  1  0  0  0
 43  1  1  0  0  0
  1  2  1  0  0  0
  2  3  2  0  0  0
  3  4  1  0  0  0
  4  5  2  0  0  0
  5  6  1  0  0  0
  6  7  2  0  0  0
  5  8  1  0  0  0
  8  9  2  0  0  0
  8 10  2  0  0  0
  8 11  1  0  0  0
 11 12  1  0  0  0
 12 13  2  0  0  0
 12 15  1  0  0  0
 15 16  2  0  0  0
 16 17  1  0  0  0
 17 18  2  0  0  0
 18 19  1  0  0  0
 19 20  1  0  0  0
 20 21  1  0  0  0
 21 22  1  0  0  0
 22 23  2  0  0  0
  1 24  1  0  0  0
 24 25  2  0  0  0
 25 26  1  0  0  0
 26 27  2  0  0  0
 27 28  1  0  0  0
 28 29  2  0  0  0
 29 30  1  0  0  0
 30 31  2  0  0  0
 31 32  1  0  0  0
 32 33  2  0  0  0
 33 34  1  0  0  0
 34 35  2  0  0  0
 33 36  1  0  0  0
 36 37  2  0  0  0
 37 38  1  0  0  0
 38 39  2  0  0  0
 39 40  1  0  0  0
 40 41  2  0  0  0
  7  2  1  0  0  0
 23 15  1  0  0  0
 29 24  1  0  0  0
 35 30  1  0  0  0
 41 36  1  0  0  0
 22 18  1  0  0  0
 11 14  1  0  0  0
M  END
> <minimizedAffinity>
-7.54404

> <CNNscore>
0.2277753204

> <CNNaffinity>
5.9476151466

> <CNN_VS>
1.3547199965

> <CNNaffinity_variance>
0.0677746758

$$$$
[H]c1c([H])c([H])c(-c2c([H])c([H])c(-c3c([H])c([H])c([H])c([H])c3[C@]([H])(c3c([H])c([H])c(S(=O)(=O)N([H])C(=O)c4c([H])c([H])c5c(c4[H])OC([H])([H])O5)c([H])c3[H])N(C([H])([H])[H])C([H])([H])[H])c([H])c2[H])c([H])c1[H]


 44 49  0  0  0  0  0  0  0  0999 V2000
   -0.1334   21.2927  -20.4325 C   0  0  0  0  0  0  0  0  0  0  0  0
    0.8677   21.9059  -19.5008 C   0  0  0  0  0  0  0  0  0  0  0  0
    1.9575   21.1787  -19.0983 C   0  0  0  0  0  0  0  0  0  0  0  0
    2.9040   21.7008  -18.2213 C   0  0  0  0  0  0  0  0  0  0  0  0
    2.7490   22.9747  -17.7434 C   0  0  0  0  0  0  0  0  0  0  0  0
    1.6570   23.7019  -18.1469 C   0  0  0  0  0  0  0  0  0  0  0  0
    0.7209   23.1829  -19.0153 C   0  0  0  0  0  0  0  0  0  0  0  0
    3.9530   23.6147  -16.6470 S   0  0  0  0  0  0  0  0  0  0  0  0
    4.5069   24.8833  -17.2496 O   0  0  0  0  0  0  0  0  0  0  0  0
    5.0835   22.6473  -16.5482 O   0  0  0  0  0  0  0  0  0  0  0  0
    3.2742   24.0314  -15.1328 N   0  0  0  0  0  0  0  0  0  0  0  0
    2.6036   23.0445  -14.3714 C   0  0  0  0  0  0  0  0  0  0  0  0
    2.5235   21.8607  -14.8364 O   0  0  0  0  0  0  0  0  0  0  0  0
    3.3690   24.9938  -14.8056 H   0  0  0  0  0  0  0  0  0  0  0  0
    1.9955   23.2851  -13.0877 C   0  0  0  0  0  0  0  0  0  0  0  0
    0.9947   22.4769  -12.6102 C   0  0  0  0  0  0  0  0  0  0  0  0
    0.4300   22.7255  -11.3932 C   0  0  0  0  0  0  0  0  0  0  0  0
    0.8413   23.7814  -10.6164 C   0  0  0  0  0  0  0  0  0  0  0  0
    0.4280   24.2404   -9.3533 O   0  0  0  0  0  0  0  0  0  0  0  0
    1.3925   25.1865   -8.9290 C   0  0  0  0  0  0  0  0  0  0  0  0
    2.0622   25.5766  -10.1117 O   0  0  0  0  0  0  0  0  0  0  0  0
    1.8449   24.6035  -11.0799 C   0  0  0  0  0  0  0  0  0  0  0  0
    2.4196   24.3452  -12.3252 C   0  0  0  0  0  0  0  0  0  0  0  0
    0.4082   21.3494  -21.8475 C   0  0  0  0  0  0  0  0  0  0  0  0
    1.6847   20.9116  -22.1108 C   0  0  0  0  0  0  0  0  0  0  0  0
    2.2115   20.9710  -23.3757 C   0  0  0  0  0  0  0  0  0  0  0  0
    1.4473   21.4847  -24.4274 C   0  0  0  0  0  0  0  0  0  0  0  0
    0.1799   21.9235  -24.1871 C   0  0  0  0  0  0  0  0  0  0  0  0
   -0.3380   21.8512  -22.8809 C   0  0  0  0  0  0  0  0  0  0  0  0
   -1.7271   22.3176  -22.7540 C   0  0  0  0  0  0  0  0  0  0  0  0
   -2.0170   23.6421  -22.4595 C   0  0  0  0  0  0  0  0  0  0  0  0
   -3.3144   24.0980  -22.3897 C   0  0  0  0  0  0  0  0  0  0  0  0
   -4.3800   23.2573  -22.6097 C   0  0  0  0  0  0  0  0  0  0  0  0
   -4.0974   21.9325  -22.9046 C   0  0  0  0  0  0  0  0  0  0  0  0
   -2.7796   21.4761  -22.9739 C   0  0  0  0  0  0  0  0  0  0  0  0
   -5.7683   23.7387  -22.5381 C   0  0  0  0  0  0  0  0  0  0  0  0
   -6.1092   24.8949  -23.2486 C   0  0  0  0  0  0  0  0  0  0  0  0
   -7.4002   25.3761  -23.2044 C   0  0  0  0  0  0  0  0  0  0  0  0
   -8.3724   24.7345  -22.4667 C   0  0  0  0  0  0  0  0  0  0  0  0
   -8.0087   23.5876  -21.7695 C   0  0  0  0  0  0  0  0  0  0  0  0
   -6.7267   23.0885  -21.7985 C   0  0  0  0  0  0  0  0  0  0  0  0
    0.1927   18.8687  -20.4432 C   0  0  0  0  0  0  0  0  0  0  0  0
   -0.5538   19.9911  -20.0908 N   0  0  0  0  0  0  0  0  0  0  0  0
   -1.1959   19.8684  -18.8302 C   0  0  0  0  0  0  0  0  0  0  0  0
 42 43  1  0  0  0
 43 44  1  0  0  0
 43  1  1  0  0  0
  1  2  1  0  0  0
  2  3  2  0  0  0
  3  4  1  0  0  0
  4  5  2  0  0  0
  5  6  1  0  0  0
  6  7  2  0  0  0
  5  8  1  0  0  0
  8  9  2  0  0  0
  8 10  2  0  0  0
  8 11  1  0  0  0
 11 12  1  0  0  0
 12 13  2  0  0  0
 12 15  1  0  0  0
 15 16  2  0  0  0
 16 17  1  0  0  0
 17 18  2  0  0  0
 18 19  1  0  0  0
 19 20  1  0  0  0
 20 21  1  0  0  0
 21 22  1  0  0  0
 22 23  2  0  0  0
  1 24  1  0  0  0
 24 25  2  0  0  0
 25 26  1  0  0  0
 26 27  2  0  0  0
 27 28  1  0  0  0
 28 29  2  0  0  0
 29 30  1  0  0  0
 30 31  2  0  0  0
 31 32  1  0  0  0
 32 33  2  0  0  0
 33 34  1  0  0  0
 34 35  2  0  0  0
 33 36  1  0  0  0
 36 37  2  0  0  0
 37 38  1  0  0  0
 38 39  2  0  0  0
 39 40  1  0  0  0
 40 41  2  0  0  0
  7  2  1  0  0  0
 23 15  1  0  0  0
 29 24  1  0  0  0
 35 30  1  0  0  0
 41 36  1  0  0  0
 22 18  1  0  0  0
 11 14  1  0  0  0
M  END
> <minimizedAffinity>
-8.42266

> <CNNscore>
0.2114790380

> <CNNaffinity>
6.0201048851

> <CNN_VS>
1.2731260061

> <CNNaffinity_variance>
0.2893132865

$$$$
[H]c1c([H])c([H])c(-c2c([H])c([H])c(-c3c([H])c([H])c([H])c([H])c3[C@]([H])(c3c([H])c([H])c(S(=O)(=O)N([H])C(=O)c4c([H])c([H])c5c(c4[H])OC([H])([H])O5)c([H])c3[H])N(C([H])([H])[H])C([H])([H])[H])c([H])c2[H])c([H])c1[H]


 44 49  0  0  0  0  0  0  0  0999 V2000
   -2.6119   21.2406  -15.7769 C   0  0  0  0  0  0  0  0  0  0  0  0
   -1.7888   21.0268  -17.0111 C   0  0  0  0  0  0  0  0  0  0  0  0
   -1.4814   22.0921  -17.8170 C   0  0  0  0  0  0  0  0  0  0  0  0
   -0.7342   21.9387  -18.9814 C   0  0  0  0  0  0  0  0  0  0  0  0
   -0.2908   20.6932  -19.3380 C   0  0  0  0  0  0  0  0  0  0  0  0
   -0.5995   19.6272  -18.5304 C   0  0  0  0  0  0  0  0  0  0  0  0
   -1.3398   19.7812  -17.3779 C   0  0  0  0  0  0  0  0  0  0  0  0
    0.6521   20.5227  -20.8019 S   0  0  0  0  0  0  0  0  0  0  0  0
    0.9716   19.0584  -20.9845 O   0  0  0  0  0  0  0  0  0  0  0  0
    1.9505   21.2356  -20.6296 O   0  0  0  0  0  0  0  0  0  0  0  0
   -0.2251   21.0224  -22.1832 N   0  0  0  0  0  0  0  0  0  0  0  0
    0.4713   21.3854  -23.3607 C   0  0  0  0  0  0  0  0  0  0  0  0
    1.7445   21.3287  -23.3622 O   0  0  0  0  0  0  0  0  0  0  0  0
   -1.2443   21.0474  -22.1293 H   0  0  0  0  0  0  0  0  0  0  0  0
   -0.1650   21.8212  -24.5775 C   0  0  0  0  0  0  0  0  0  0  0  0
   -1.5188   22.0368  -24.6365 C   0  0  0  0  0  0  0  0  0  0  0  0
   -2.1013   22.4456  -25.8007 C   0  0  0  0  0  0  0  0  0  0  0  0
   -1.3586   22.6518  -26.9379 C   0  0  0  0  0  0  0  0  0  0  0  0
   -1.7135   23.0638  -28.2345 O   0  0  0  0  0  0  0  0  0  0  0  0
   -0.5066   23.3745  -28.9070 C   0  0  0  0  0  0  0  0  0  0  0  0
    0.5016   22.7178  -28.1642 O   0  0  0  0  0  0  0  0  0  0  0  0
    0.0022   22.4401  -26.8973 C   0  0  0  0  0  0  0  0  0  0  0  0
    0.5935   22.0221  -25.7042 C   0  0  0  0  0  0  0  0  0  0  0  0
   -3.6792   20.1663  -15.7020 C   0  0  0  0  0  0  0  0  0  0  0  0
   -3.6994   19.2932  -14.6400 C   0  0  0  0  0  0  0  0  0  0  0  0
   -4.6378   18.2967  -14.5549 C   0  0  0  0  0  0  0  0  0  0  0  0
   -5.5983   18.1537  -15.5605 C   0  0  0  0  0  0  0  0  0  0  0  0
   -5.5953   19.0090  -16.6210 C   0  0  0  0  0  0  0  0  0  0  0  0
   -4.6227   20.0238  -16.6849 C   0  0  0  0  0  0  0  0  0  0  0  0
   -4.7451   20.9066  -17.8549 C   0  0  0  0  0  0  0  0  0  0  0  0
   -5.0575   22.2509  -17.7120 C   0  0  0  0  0  0  0  0  0  0  0  0
   -5.1234   23.0952  -18.7977 C   0  0  0  0  0  0  0  0  0  0  0  0
   -4.8815   22.6401  -20.0725 C   0  0  0  0  0  0  0  0  0  0  0  0
   -4.5686   21.2979  -20.2224 C   0  0  0  0  0  0  0  0  0  0  0  0
   -4.5033   20.4465  -19.1175 C   0  0  0  0  0  0  0  0  0  0  0  0
   -4.9488   23.5375  -21.2363 C   0  0  0  0  0  0  0  0  0  0  0  0
   -3.7581   23.8638  -21.8949 C   0  0  0  0  0  0  0  0  0  0  0  0
   -3.7823   24.7024  -22.9885 C   0  0  0  0  0  0  0  0  0  0  0  0
   -4.9682   25.2317  -23.4515 C   0  0  0  0  0  0  0  0  0  0  0  0
   -6.1378   24.8925  -22.7801 C   0  0  0  0  0  0  0  0  0  0  0  0
   -6.1385   24.0575  -21.6864 C   0  0  0  0  0  0  0  0  0  0  0  0
   -0.4916   21.4357  -14.5735 C   0  0  0  0  0  0  0  0  0  0  0  0
   -1.8807   21.3287  -14.5747 N   0  0  0  0  0  0  0  0  0  0  0  0
   -2.5042   22.0667  -13.5340 C   0  0  0  0  0  0  0  0  0  0  0  0
 42 43  1  0  0  0
 43 44  1  0  0  0
 43  1  1  0  0  0
  1  2  1  0  0  0
  2  3  2  0  0  0
  3  4  1  0  0  0
  4  5  2  0  0  0
  5  6  1  0  0  0
  6  7  2  0  0  0
  5  8  1  0  0  0
  8  9  2  0  0  0
  8 10  2  0  0  0
  8 11  1  0  0  0
 11 12  1  0  0  0
 12 13  2  0  0  0
 12 15  1  0  0  0
 15 16  2  0  0  0
 16 17  1  0  0  0
 17 18  2  0  0  0
 18 19  1  0  0  0
 19 20  1  0  0  0
 20 21  1  0  0  0
 21 22  1  0  0  0
 22 23  2  0  0  0
  1 24  1  0  0  0
 24 25  2  0  0  0
 25 26  1  0  0  0
 26 27  2  0  0  0
 27 28  1  0  0  0
 28 29  2  0  0  0
 29 30  1  0  0  0
 30 31  2  0  0  0
 31 32  1  0  0  0
 32 33  2  0  0  0
 33 34  1  0  0  0
 34 35  2  0  0  0
 33 36  1  0  0  0
 36 37  2  0  0  0
 37 38  1  0  0  0
 38 39  2  0  0  0
 39 40  1  0  0  0
 40 41  2  0  0  0
  7  2  1  0  0  0
 23 15  1  0  0  0
 29 24  1  0  0  0
 35 30  1  0  0  0
 41 36  1  0  0  0
 22 18  1  0  0  0
 11 14  1  0  0  0
M  END
> <minimizedAffinity>
-7.51911

> <CNNscore>
0.1825866997

> <CNNaffinity>
6.3447942734

> <CNN_VS>
1.1584750414

> <CNNaffinity_variance>
0.1442818791

$$$$
[H]c1c([H])c([H])c(-c2c([H])c([H])c(-c3c([H])c([H])c([H])c([H])c3[C@]([H])(c3c([H])c([H])c(S(=O)(=O)N([H])C(=O)c4c([H])c([H])c5c(c4[H])OC([H])([H])O5)c([H])c3[H])N(C([H])([H])[H])C([H])([H])[H])c([H])c2[H])c([H])c1[H]


 44 49  0  0  0  0  0  0  0  0999 V2000
   -7.0131   21.6849  -17.9903 C   0  0  0  0  0  0  0  0  0  0  0  0
   -5.6964   21.8131  -18.6945 C   0  0  0  0  0  0  0  0  0  0  0  0
   -4.6452   22.4279  -18.0655 C   0  0  0  0  0  0  0  0  0  0  0  0
   -3.4093   22.5844  -18.6866 C   0  0  0  0  0  0  0  0  0  0  0  0
   -3.2312   22.1143  -19.9603 C   0  0  0  0  0  0  0  0  0  0  0  0
   -4.2847   21.4992  -20.5894 C   0  0  0  0  0  0  0  0  0  0  0  0
   -5.5078   21.3454  -19.9726 C   0  0  0  0  0  0  0  0  0  0  0  0
   -1.6684   22.3154  -20.7209 S   0  0  0  0  0  0  0  0  0  0  0  0
   -0.7358   21.2707  -20.1567 O   0  0  0  0  0  0  0  0  0  0  0  0
   -1.1125   23.6471  -20.3447 O   0  0  0  0  0  0  0  0  0  0  0  0
   -1.7479   22.0593  -22.4107 N   0  0  0  0  0  0  0  0  0  0  0  0
   -2.3312   23.0459  -23.2411 C   0  0  0  0  0  0  0  0  0  0  0  0
   -2.7845   24.1093  -22.7044 O   0  0  0  0  0  0  0  0  0  0  0  0
   -1.3675   21.1909  -22.7894 H   0  0  0  0  0  0  0  0  0  0  0  0
   -2.4513   22.9337  -24.6723 C   0  0  0  0  0  0  0  0  0  0  0  0
   -1.4483   22.3851  -25.4311 C   0  0  0  0  0  0  0  0  0  0  0  0
   -1.5815   22.2922  -26.7859 C   0  0  0  0  0  0  0  0  0  0  0  0
   -2.7117   22.7403  -27.4256 C   0  0  0  0  0  0  0  0  0  0  0  0
   -3.0841   22.7576  -28.7813 O   0  0  0  0  0  0  0  0  0  0  0  0
   -4.4646   23.0706  -28.8199 C   0  0  0  0  0  0  0  0  0  0  0  0
   -4.7380   23.6588  -27.5633 O   0  0  0  0  0  0  0  0  0  0  0  0
   -3.7290   23.2941  -26.6797 C   0  0  0  0  0  0  0  0  0  0  0  0
   -3.5883   23.3868  -25.2944 C   0  0  0  0  0  0  0  0  0  0  0  0
   -6.7659   21.5442  -16.5011 C   0  0  0  0  0  0  0  0  0  0  0  0
   -6.7397   22.6628  -15.7020 C   0  0  0  0  0  0  0  0  0  0  0  0
   -6.4960   22.5708  -14.3555 C   0  0  0  0  0  0  0  0  0  0  0  0
   -6.2677   21.3220  -13.7705 C   0  0  0  0  0  0  0  0  0  0  0  0
   -6.2898   20.2013  -14.5452 C   0  0  0  0  0  0  0  0  0  0  0  0
   -6.5429   20.3220  -15.9240 C   0  0  0  0  0  0  0  0  0  0  0  0
   -6.5798   19.0416  -16.6468 C   0  0  0  0  0  0  0  0  0  0  0  0
   -7.7836   18.4249  -16.9564 C   0  0  0  0  0  0  0  0  0  0  0  0
   -7.8287   17.2527  -17.6774 C   0  0  0  0  0  0  0  0  0  0  0  0
   -6.6795   16.6427  -18.1222 C   0  0  0  0  0  0  0  0  0  0  0  0
   -5.4732   17.2537  -17.8165 C   0  0  0  0  0  0  0  0  0  0  0  0
   -5.4338   18.4424  -17.0848 C   0  0  0  0  0  0  0  0  0  0  0  0
   -6.7213   15.3911  -18.8943 C   0  0  0  0  0  0  0  0  0  0  0  0
   -7.2871   14.2593  -18.2970 C   0  0  0  0  0  0  0  0  0  0  0  0
   -7.3428   13.0689  -18.9897 C   0  0  0  0  0  0  0  0  0  0  0  0
   -6.8471   12.9698  -20.2725 C   0  0  0  0  0  0  0  0  0  0  0  0
   -6.2898   14.1085  -20.8441 C   0  0  0  0  0  0  0  0  0  0  0  0
   -6.2231   15.3075  -20.1723 C   0  0  0  0  0  0  0  0  0  0  0  0
   -7.6461   23.7459  -19.1452 C   0  0  0  0  0  0  0  0  0  0  0  0
   -7.9443   22.7069  -18.2663 N   0  0  0  0  0  0  0  0  0  0  0  0
   -9.3029   22.2969  -18.3179 C   0  0  0  0  0  0  0  0  0  0  0  0
 42 43  1  0  0  0
 43 44  1  0  0  0
 43  1  1  0  0  0
  1  2  1  0  0  0
  2  3  2  0  0  0
  3  4  1  0  0  0
  4  5  2  0  0  0
  5  6  1  0  0  0
  6  7  2  0  0  0
  5  8  1  0  0  0
  8  9  2  0  0  0
  8 10  2  0  0  0
  8 11  1  0  0  0
 11 12  1  0  0  0
 12 13  2  0  0  0
 12 15  1  0  0  0
 15 16  2  0  0  0
 16 17  1  0  0  0
 17 18  2  0  0  0
 18 19  1  0  0  0
 19 20  1  0  0  0
 20 21  1  0  0  0
 21 22  1  0  0  0
 22 23  2  0  0  0
  1 24  1  0  0  0
 24 25  2  0  0  0
 25 26  1  0  0  0
 26 27  2  0  0  0
 27 28  1  0  0  0
 28 29  2  0  0  0
 29 30  1  0  0  0
 30 31  2  0  0  0
 31 32  1  0  0  0
 32 33  2  0  0  0
 33 34  1  0  0  0
 34 35  2  0  0  0
 33 36  1  0  0  0
 36 37  2  0  0  0
 37 38  1  0  0  0
 38 39  2  0  0  0
 39 40  1  0  0  0
 40 41  2  0  0  0
  7  2  1  0  0  0
 23 15  1  0  0  0
 29 24  1  0  0  0
 35 30  1  0  0  0
 41 36  1  0  0  0
 22 18  1  0  0  0
 11 14  1  0  0  0
M  END
> <minimizedAffinity>
-7.44285

> <CNNscore>
0.1764530540

> <CNNaffinity>
6.2203459740

> <CNN_VS>
1.0975990295

> <CNNaffinity_variance>
0.1555720717

$$$$
[H]Oc1c([H])c(-c2c([H])c(O[H])c3c(-c4c(C5([H])C([H])([H])C5([H])[H])noc4C([H])([H])[H])nc([H])c([H])c3c2[H])c([H])c(C([H])([H])N([H])C([H])([H])[H])c1[H]


 33 37  0  0  0  0  0  0  0  0999 V2000
   -0.5441   22.0581  -24.9550 C   0  0  0  0  0  0  0  0  0  0  0  0
   -1.9039   22.2342  -24.8719 C   0  0  0  0  0  0  0  0  0  0  0  0
   -2.6791   22.7514  -25.9122 C   0  0  0  0  0  0  0  0  0  0  0  0
   -4.0350   22.9001  -25.7586 O   0  0  0  0  0  0  0  0  0  0  0  0
   -2.0742   23.1154  -27.1043 C   0  0  0  0  0  0  0  0  0  0  0  0
   -2.7554   23.6289  -28.1700 C   0  0  0  0  0  0  0  0  0  0  0  0
   -2.0997   23.9719  -29.3235 N   0  0  0  0  0  0  0  0  0  0  0  0
   -0.7889   23.7924  -29.3775 C   0  0  0  0  0  0  0  0  0  0  0  0
   -0.0454   23.2847  -28.3522 C   0  0  0  0  0  0  0  0  0  0  0  0
   -0.6969   22.9335  -27.1791 C   0  0  0  0  0  0  0  0  0  0  0  0
    0.0619   22.4149  -26.1281 C   0  0  0  0  0  0  0  0  0  0  0  0
   -4.4994   22.6441  -24.9054 H   0  0  0  0  0  0  0  0  0  0  0  0
    0.2619   20.6656  -21.6205 C   0  0  0  0  0  0  0  0  0  0  0  0
    1.6479   20.4962  -21.7493 C   0  0  0  0  0  0  0  0  0  0  0  0
    2.3065   20.8336  -22.9121 C   0  0  0  0  0  0  0  0  0  0  0  0
    3.6687   20.6663  -23.0369 O   0  0  0  0  0  0  0  0  0  0  0  0
    1.5926   21.3498  -23.9763 C   0  0  0  0  0  0  0  0  0  0  0  0
    0.2325   21.5099  -23.8337 C   0  0  0  0  0  0  0  0  0  0  0  0
   -0.4407   21.1805  -22.6864 C   0  0  0  0  0  0  0  0  0  0  0  0
    4.2858   21.4332  -22.7676 H   0  0  0  0  0  0  0  0  0  0  0  0
   -0.3184   20.2712  -20.3397 C   0  0  0  0  0  0  0  0  0  0  0  0
   -2.1447   20.5225  -18.8051 C   0  0  0  0  0  0  0  0  0  0  0  0
   -1.6403   20.8199  -20.1166 N   0  0  0  0  0  0  0  0  0  0  0  0
   -2.2737   20.3509  -20.8123 H   0  0  0  0  0  0  0  0  0  0  0  0
   -4.1993   23.8302  -28.1200 C   0  0  0  0  0  0  0  0  0  0  0  0
   -4.8690   24.7816  -27.3837 C   0  0  0  0  0  0  0  0  0  0  0  0
   -6.1865   24.5284  -27.6348 N   0  0  0  0  0  0  0  0  0  0  0  0
   -6.2898   23.5169  -28.4480 O   0  0  0  0  0  0  0  0  0  0  0  0
   -5.1144   23.0420  -28.7847 C   0  0  0  0  0  0  0  0  0  0  0  0
   -4.8276   21.8893  -29.6966 C   0  0  0  0  0  0  0  0  0  0  0  0
   -4.2660   25.8288  -26.5215 C   0  0  0  0  0  0  0  0  0  0  0  0
   -5.1074   26.9790  -26.1081 C   0  0  0  0  0  0  0  0  0  0  0  0
   -4.7102   25.9187  -25.1275 C   0  0  0  0  0  0  0  0  0  0  0  0
 22 23  1  0  0  0
 23 21  1  0  0  0
 21 13  1  0  0  0
 13 14  2  0  0  0
 14 15  1  0  0  0
 15 16  1  0  0  0
 15 17  2  0  0  0
 17 18  1  0  0  0
 18 19  2  0  0  0
 18  1  1  0  0  0
  1  2  2  0  0  0
  2  3  1  0  0  0
  3  4  1  0  0  0
  3  5  2  0  0  0
  5  6  1  0  0  0
  6  7  2  0  0  0
  7  8  1  0  0  0
  8  9  2  0  0  0
  9 10  1  0  0  0
 10 11  2  0  0  0
  6 25  1  0  0  0
 25 26  1  0  0  0
 26 27  2  0  0  0
 27 28  1  0  0  0
 28 29  1  0  0  0
 29 30  1  0  0  0
 26 31  1  0  0  0
 31 32  1  0  0  0
 32 33  1  0  0  0
 19 13  1  0  0  0
 11  1  1  0  0  0
 29 25  2  0  0  0
 33 31  1  0  0  0
 10  5  1  0  0  0
 23 24  1  0  0  0
 16 20  1  0  0  0
  4 12  1  0  0  0
M  END
> <minimizedAffinity>
-9.01544

> <CNNscore>
0.4776103497

> <CNNaffinity>
7.0241494179

> <CNN_VS>
3.3548064232

> <CNNaffinity_variance>
0.1583454609

$$$$
[H]Oc1c([H])c(-c2c([H])c(O[H])c3c(-c4c(C5([H])C([H])([H])C5([H])[H])noc4C([H])([H])[H])nc([H])c([H])c3c2[H])c([H])c(C([H])([H])N([H])C([H])([H])[H])c1[H]


 33 37  0  0  0  0  0  0  0  0999 V2000
   -0.8166   21.9488  -24.7506 C   0  0  0  0  0  0  0  0  0  0  0  0
   -2.1755   22.1415  -24.8034 C   0  0  0  0  0  0  0  0  0  0  0  0
   -2.8378   22.6593  -25.9188 C   0  0  0  0  0  0  0  0  0  0  0  0
   -4.2003   22.8252  -25.9008 O   0  0  0  0  0  0  0  0  0  0  0  0
   -2.1137   23.0064  -27.0478 C   0  0  0  0  0  0  0  0  0  0  0  0
   -2.6800   23.5192  -28.1791 C   0  0  0  0  0  0  0  0  0  0  0  0
   -1.9094   23.8450  -29.2646 N   0  0  0  0  0  0  0  0  0  0  0  0
   -0.6020   23.6496  -29.1876 C   0  0  0  0  0  0  0  0  0  0  0  0
    0.0303   23.1416  -28.0904 C   0  0  0  0  0  0  0  0  0  0  0  0
   -0.7382   22.8077  -26.9850 C   0  0  0  0  0  0  0  0  0  0  0  0
   -0.0933   22.2887  -25.8606 C   0  0  0  0  0  0  0  0  0  0  0  0
   -4.7498   22.5817  -25.0959 H   0  0  0  0  0  0  0  0  0  0  0  0
    1.8459   20.8011  -22.4481 C   0  0  0  0  0  0  0  0  0  0  0  0
    1.0701   20.3900  -21.3547 C   0  0  0  0  0  0  0  0  0  0  0  0
   -0.3046   20.4885  -21.3735 C   0  0  0  0  0  0  0  0  0  0  0  0
   -1.0654   20.0841  -20.2980 O   0  0  0  0  0  0  0  0  0  0  0  0
   -0.9375   21.0016  -22.4893 C   0  0  0  0  0  0  0  0  0  0  0  0
   -0.1613   21.4006  -23.5543 C   0  0  0  0  0  0  0  0  0  0  0  0
    1.2062   21.3111  -23.5551 C   0  0  0  0  0  0  0  0  0  0  0  0
   -1.3912   19.1177  -20.2608 H   0  0  0  0  0  0  0  0  0  0  0  0
    3.2911   20.6459  -22.3063 C   0  0  0  0  0  0  0  0  0  0  0  0
    4.6350   20.6689  -20.3196 C   0  0  0  0  0  0  0  0  0  0  0  0
    3.8510   21.4473  -21.2374 N   0  0  0  0  0  0  0  0  0  0  0  0
    3.0333   21.8361  -20.7032 H   0  0  0  0  0  0  0  0  0  0  0  0
   -4.1191   23.7379  -28.2734 C   0  0  0  0  0  0  0  0  0  0  0  0
   -4.8413   24.7241  -27.6396 C   0  0  0  0  0  0  0  0  0  0  0  0
   -6.1329   24.4757  -28.0046 N   0  0  0  0  0  0  0  0  0  0  0  0
   -6.1738   23.4349  -28.7856 O   0  0  0  0  0  0  0  0  0  0  0  0
   -4.9789   22.9348  -28.9918 C   0  0  0  0  0  0  0  0  0  0  0  0
   -4.6243   21.7448  -29.8290 C   0  0  0  0  0  0  0  0  0  0  0  0
   -4.3070   25.7970  -26.7638 C   0  0  0  0  0  0  0  0  0  0  0  0
   -5.2365   26.8485  -26.2820 C   0  0  0  0  0  0  0  0  0  0  0  0
   -4.7040   25.8014  -25.3528 C   0  0  0  0  0  0  0  0  0  0  0  0
 22 23  1  0  0  0
 23 21  1  0  0  0
 21 13  1  0  0  0
 13 14  2  0  0  0
 14 15  1  0  0  0
 15 16  1  0  0  0
 15 17  2  0  0  0
 17 18  1  0  0  0
 18 19  2  0  0  0
 18  1  1  0  0  0
  1  2  2  0  0  0
  2  3  1  0  0  0
  3  4  1  0  0  0
  3  5  2  0  0  0
  5  6  1  0  0  0
  6  7  2  0  0  0
  7  8  1  0  0  0
  8  9  2  0  0  0
  9 10  1  0  0  0
 10 11  2  0  0  0
  6 25  1  0  0  0
 25 26  1  0  0  0
 26 27  2  0  0  0
 27 28  1  0  0  0
 28 29  1  0  0  0
 29 30  1  0  0  0
 26 31  1  0  0  0
 31 32  1  0  0  0
 32 33  1  0  0  0
 19 13  1  0  0  0
 11  1  1  0  0  0
 29 25  2  0  0  0
 33 31  1  0  0  0
 10  5  1  0  0  0
 23 24  1  0  0  0
 16 20  1  0  0  0
  4 12  1  0  0  0
M  END
> <minimizedAffinity>
-9.38294

> <CNNscore>
0.4769411087

> <CNNaffinity>
7.0017442703

> <CNN_VS>
3.3394196033

> <CNNaffinity_variance>
0.2621736228

$$$$
[H]Oc1c([H])c(-c2c([H])c(O[H])c3c(-c4c(C5([H])C([H])([H])C5([H])[H])noc4C([H])([H])[H])nc([H])c([H])c3c2[H])c([H])c(C([H])([H])N([H])C([H])([H])[H])c1[H]


 33 37  0  0  0  0  0  0  0  0999 V2000
   -5.6661   22.2549  -22.4045 C   0  0  0  0  0  0  0  0  0  0  0  0
   -6.3648   23.1670  -23.1572 C   0  0  0  0  0  0  0  0  0  0  0  0
   -5.8620   23.7520  -24.3215 C   0  0  0  0  0  0  0  0  0  0  0  0
   -6.6173   24.6576  -25.0242 O   0  0  0  0  0  0  0  0  0  0  0  0
   -4.5944   23.4150  -24.7676 C   0  0  0  0  0  0  0  0  0  0  0  0
   -4.0265   23.9389  -25.8930 C   0  0  0  0  0  0  0  0  0  0  0  0
   -2.7664   23.5665  -26.2823 N   0  0  0  0  0  0  0  0  0  0  0  0
   -2.1143   22.6858  -25.5391 C   0  0  0  0  0  0  0  0  0  0  0  0
   -2.6200   22.1221  -24.4040 C   0  0  0  0  0  0  0  0  0  0  0  0
   -3.8944   22.4905  -23.9989 C   0  0  0  0  0  0  0  0  0  0  0  0
   -4.4135   21.9160  -22.8370 C   0  0  0  0  0  0  0  0  0  0  0  0
   -7.5394   24.9199  -24.7238 H   0  0  0  0  0  0  0  0  0  0  0  0
   -5.8767   20.5576  -19.1208 C   0  0  0  0  0  0  0  0  0  0  0  0
   -7.2651   20.5667  -18.9238 C   0  0  0  0  0  0  0  0  0  0  0  0
   -8.1176   21.1214  -19.8541 C   0  0  0  0  0  0  0  0  0  0  0  0
   -9.4818   21.1295  -19.6587 O   0  0  0  0  0  0  0  0  0  0  0  0
   -7.6004   21.6813  -21.0064 C   0  0  0  0  0  0  0  0  0  0  0  0
   -6.2352   21.6642  -21.1846 C   0  0  0  0  0  0  0  0  0  0  0  0
   -5.3709   21.1180  -20.2719 C   0  0  0  0  0  0  0  0  0  0  0  0
  -10.0330   20.3421  -20.0015 H   0  0  0  0  0  0  0  0  0  0  0  0
   -5.0808   19.9408  -18.0631 C   0  0  0  0  0  0  0  0  0  0  0  0
   -5.0358   17.5826  -18.4996 C   0  0  0  0  0  0  0  0  0  0  0  0
   -4.2953   18.8132  -18.5211 N   0  0  0  0  0  0  0  0  0  0  0  0
   -3.4996   18.7147  -17.8412 H   0  0  0  0  0  0  0  0  0  0  0  0
   -4.7369   24.9095  -26.7181 C   0  0  0  0  0  0  0  0  0  0  0  0
   -5.4012   24.6528  -27.8966 C   0  0  0  0  0  0  0  0  0  0  0  0
   -5.8476   25.8783  -28.2993 N   0  0  0  0  0  0  0  0  0  0  0  0
   -5.4810   26.7819  -27.4367 O   0  0  0  0  0  0  0  0  0  0  0  0
   -4.7991   26.2594  -26.4455 C   0  0  0  0  0  0  0  0  0  0  0  0
   -4.2130   26.9764  -25.2686 C   0  0  0  0  0  0  0  0  0  0  0  0
   -5.5731   23.3329  -28.5537 C   0  0  0  0  0  0  0  0  0  0  0  0
   -5.5885   23.2749  -30.0364 C   0  0  0  0  0  0  0  0  0  0  0  0
   -4.4232   22.7526  -29.2535 C   0  0  0  0  0  0  0  0  0  0  0  0
 22 23  1  0  0  0
 23 21  1  0  0  0
 21 13  1  0  0  0
 13 14  2  0  0  0
 14 15  1  0  0  0
 15 16  1  0  0  0
 15 17  2  0  0  0
 17 18  1  0  0  0
 18 19  2  0  0  0
 18  1  1  0  0  0
  1  2  2  0  0  0
  2  3  1  0  0  0
  3  4  1  0  0  0
  3  5  2  0  0  0
  5  6  1  0  0  0
  6  7  2  0  0  0
  7  8  1  0  0  0
  8  9  2  0  0  0
  9 10  1  0  0  0
 10 11  2  0  0  0
  6 25  1  0  0  0
 25 26  1  0  0  0
 26 27  2  0  0  0
 27 28  1  0  0  0
 28 29  1  0  0  0
 29 30  1  0  0  0
 26 31  1  0  0  0
 31 32  1  0  0  0
 32 33  1  0  0  0
 19 13  1  0  0  0
 11  1  1  0  0  0
 29 25  2  0  0  0
 33 31  1  0  0  0
 10  5  1  0  0  0
 23 24  1  0  0  0
 16 20  1  0  0  0
  4 12  1  0  0  0
M  END
> <minimizedAffinity>
-8.28738

> <CNNscore>
0.4287391901

> <CNNaffinity>
6.6221532822

> <CNN_VS>
2.8391766548

> <CNNaffinity_variance>
0.1060970277

$$$$
[H]Oc1c([H])c(-c2c([H])c(O[H])c3c(-c4c(C5([H])C([H])([H])C5([H])[H])noc4C([H])([H])[H])nc([H])c([H])c3c2[H])c([H])c(C([H])([H])N([H])C([H])([H])[H])c1[H]


 33 37  0  0  0  0  0  0  0  0999 V2000
   -0.4751   21.8509  -23.3096 C   0  0  0  0  0  0  0  0  0  0  0  0
   -1.5789   22.3281  -22.6457 C   0  0  0  0  0  0  0  0  0  0  0  0
   -2.7443   22.7482  -23.2907 C   0  0  0  0  0  0  0  0  0  0  0  0
   -3.8101   23.2147  -22.5621 O   0  0  0  0  0  0  0  0  0  0  0  0
   -2.8227   22.6930  -24.6728 C   0  0  0  0  0  0  0  0  0  0  0  0
   -3.9214   23.0838  -25.3824 C   0  0  0  0  0  0  0  0  0  0  0  0
   -3.9379   23.0066  -26.7505 N   0  0  0  0  0  0  0  0  0  0  0  0
   -2.8609   22.5432  -27.3661 C   0  0  0  0  0  0  0  0  0  0  0  0
   -1.7296   22.1354  -26.7213 C   0  0  0  0  0  0  0  0  0  0  0  0
   -1.7000   22.2085  -25.3365 C   0  0  0  0  0  0  0  0  0  0  0  0
   -0.5431   21.7928  -24.6745 C   0  0  0  0  0  0  0  0  0  0  0  0
   -3.7805   23.2653  -21.5592 H   0  0  0  0  0  0  0  0  0  0  0  0
    1.7851   20.9397  -20.5224 C   0  0  0  0  0  0  0  0  0  0  0  0
    2.9494   20.6251  -21.2379 C   0  0  0  0  0  0  0  0  0  0  0  0
    2.9910   20.7107  -22.6130 C   0  0  0  0  0  0  0  0  0  0  0  0
    4.1360   20.4009  -23.3145 O   0  0  0  0  0  0  0  0  0  0  0  0
    1.8663   21.1141  -23.3067 C   0  0  0  0  0  0  0  0  0  0  0  0
    0.7314   21.4194  -22.5892 C   0  0  0  0  0  0  0  0  0  0  0  0
    0.6697   21.3406  -21.2224 C   0  0  0  0  0  0  0  0  0  0  0  0
    4.8128   21.1409  -23.5040 H   0  0  0  0  0  0  0  0  0  0  0  0
    1.8675   20.8098  -19.0702 C   0  0  0  0  0  0  0  0  0  0  0  0
    2.3981   23.0385  -18.3597 C   0  0  0  0  0  0  0  0  0  0  0  0
    2.8573   21.6823  -18.4723 N   0  0  0  0  0  0  0  0  0  0  0  0
    3.6815   21.6812  -19.1250 H   0  0  0  0  0  0  0  0  0  0  0  0
   -5.1123   23.5954  -24.7133 C   0  0  0  0  0  0  0  0  0  0  0  0
   -5.4047   24.9163  -24.4572 C   0  0  0  0  0  0  0  0  0  0  0  0
   -6.5875   24.8685  -23.7777 N   0  0  0  0  0  0  0  0  0  0  0  0
   -6.9639   23.6295  -23.6426 O   0  0  0  0  0  0  0  0  0  0  0  0
   -6.1092   22.7993  -24.1910 C   0  0  0  0  0  0  0  0  0  0  0  0
   -6.1975   21.3052  -24.2393 C   0  0  0  0  0  0  0  0  0  0  0  0
   -4.5957   26.0995  -24.8438 C   0  0  0  0  0  0  0  0  0  0  0  0
   -4.5494   26.4909  -26.2744 C   0  0  0  0  0  0  0  0  0  0  0  0
   -5.3011   27.3111  -25.2716 C   0  0  0  0  0  0  0  0  0  0  0  0
 22 23  1  0  0  0
 23 21  1  0  0  0
 21 13  1  0  0  0
 13 14  2  0  0  0
 14 15  1  0  0  0
 15 16  1  0  0  0
 15 17  2  0  0  0
 17 18  1  0  0  0
 18 19  2  0  0  0
 18  1  1  0  0  0
  1  2  2  0  0  0
  2  3  1  0  0  0
  3  4  1  0  0  0
  3  5  2  0  0  0
  5  6  1  0  0  0
  6  7  2  0  0  0
  7  8  1  0  0  0
  8  9  2  0  0  0
  9 10  1  0  0  0
 10 11  2  0  0  0
  6 25  1  0  0  0
 25 26  1  0  0  0
 26 27  2  0  0  0
 27 28  1  0  0  0
 28 29  1  0  0  0
 29 30  1  0  0  0
 26 31  1  0  0  0
 31 32  1  0  0  0
 32 33  1  0  0  0
 19 13  1  0  0  0
 11  1  1  0  0  0
 29 25  2  0  0  0
 33 31  1  0  0  0
 10  5  1  0  0  0
 23 24  1  0  0  0
 16 20  1  0  0  0
  4 12  1  0  0  0
M  END
> <minimizedAffinity>
-8.68354

> <CNNscore>
0.3696105182

> <CNNaffinity>
6.3927168846

> <CNN_VS>
2.3628153801

> <CNNaffinity_variance>
0.0360522792

$$$$
[H]Oc1c([H])c(-c2c([H])c(O[H])c3c(-c4c(C5([H])C([H])([H])C5([H])[H])noc4C([H])([H])[H])nc([H])c([H])c3c2[H])c([H])c(C([H])([H])N([H])C([H])([H])[H])c1[H]


 33 37  0  0  0  0  0  0  0  0999 V2000
   -5.6365   22.2630  -22.9633 C   0  0  0  0  0  0  0  0  0  0  0  0
   -6.3801   23.0518  -23.8069 C   0  0  0  0  0  0  0  0  0  0  0  0
   -5.9032   23.5402  -25.0254 C   0  0  0  0  0  0  0  0  0  0  0  0
   -6.7031   24.3246  -25.8186 O   0  0  0  0  0  0  0  0  0  0  0  0
   -4.6160   23.2301  -25.4334 C   0  0  0  0  0  0  0  0  0  0  0  0
   -4.0710   23.6656  -26.6068 C   0  0  0  0  0  0  0  0  0  0  0  0
   -2.7898   23.3259  -26.9548 N   0  0  0  0  0  0  0  0  0  0  0  0
   -2.0945   22.5646  -26.1239 C   0  0  0  0  0  0  0  0  0  0  0  0
   -2.5752   22.0943  -24.9366 C   0  0  0  0  0  0  0  0  0  0  0  0
   -3.8706   22.4308  -24.5726 C   0  0  0  0  0  0  0  0  0  0  0  0
   -4.3644   21.9517  -23.3576 C   0  0  0  0  0  0  0  0  0  0  0  0
   -7.6402   24.5646  -25.5474 H   0  0  0  0  0  0  0  0  0  0  0  0
   -5.7752   20.8590  -19.5402 C   0  0  0  0  0  0  0  0  0  0  0  0
   -7.1613   20.8570  -19.3273 C   0  0  0  0  0  0  0  0  0  0  0  0
   -8.0355   21.3095  -20.2921 C   0  0  0  0  0  0  0  0  0  0  0  0
   -9.3973   21.3068  -20.0811 O   0  0  0  0  0  0  0  0  0  0  0  0
   -7.5429   21.7758  -21.4957 C   0  0  0  0  0  0  0  0  0  0  0  0
   -6.1796   21.7711  -21.6889 C   0  0  0  0  0  0  0  0  0  0  0  0
   -5.2940   21.3256  -20.7426 C   0  0  0  0  0  0  0  0  0  0  0  0
   -9.9351   20.4810  -20.3460 H   0  0  0  0  0  0  0  0  0  0  0  0
   -4.9548   20.3547  -18.4424 C   0  0  0  0  0  0  0  0  0  0  0  0
   -4.9550   17.9564  -18.4026 C   0  0  0  0  0  0  0  0  0  0  0  0
   -4.2354   19.1423  -18.7751 N   0  0  0  0  0  0  0  0  0  0  0  0
   -3.3484   19.1635  -18.2111 H   0  0  0  0  0  0  0  0  0  0  0  0
   -4.8290   24.5043  -27.5286 C   0  0  0  0  0  0  0  0  0  0  0  0
   -4.9734   25.8720  -27.4620 C   0  0  0  0  0  0  0  0  0  0  0  0
   -5.8026   26.1690  -28.5049 N   0  0  0  0  0  0  0  0  0  0  0  0
   -6.1218   25.0751  -29.1345 O   0  0  0  0  0  0  0  0  0  0  0  0
   -5.5618   24.0207  -28.5914 C   0  0  0  0  0  0  0  0  0  0  0  0
   -5.6909   22.5952  -29.0319 C   0  0  0  0  0  0  0  0  0  0  0  0
   -4.3563   26.7862  -26.4687 C   0  0  0  0  0  0  0  0  0  0  0  0
   -5.2449   27.5435  -25.5528 C   0  0  0  0  0  0  0  0  0  0  0  0
   -4.4064   26.4072  -25.0536 C   0  0  0  0  0  0  0  0  0  0  0  0
 22 23  1  0  0  0
 23 21  1  0  0  0
 21 13  1  0  0  0
 13 14  2  0  0  0
 14 15  1  0  0  0
 15 16  1  0  0  0
 15 17  2  0  0  0
 17 18  1  0  0  0
 18 19  2  0  0  0
 18  1  1  0  0  0
  1  2  2  0  0  0
  2  3  1  0  0  0
  3  4  1  0  0  0
  3  5  2  0  0  0
  5  6  1  0  0  0
  6  7  2  0  0  0
  7  8  1  0  0  0
  8  9  2  0  0  0
  9 10  1  0  0  0
 10 11  2  0  0  0
  6 25  1  0  0  0
 25 26  1  0  0  0
 26 27  2  0  0  0
 27 28  1  0  0  0
 28 29  1  0  0  0
 29 30  1  0  0  0
 26 31  1  0  0  0
 31 32  1  0  0  0
 32 33  1  0  0  0
 19 13  1  0  0  0
 11  1  1  0  0  0
 29 25  2  0  0  0
 33 31  1  0  0  0
 10  5  1  0  0  0
 23 24  1  0  0  0
 16 20  1  0  0  0
  4 12  1  0  0  0
M  END
> <minimizedAffinity>
-8.11285

> <CNNscore>
0.3524763584

> <CNNaffinity>
6.4982452393

> <CNN_VS>
2.2904777527

> <CNNaffinity_variance>
0.0896725655

$$$$
[H]Oc1c([H])c(-c2c([H])c(O[H])c3c(-c4c(C5([H])C([H])([H])C5([H])[H])noc4C([H])([H])[H])nc([H])c([H])c3c2[H])c([H])c(C([H])([H])N([H])C([H])([H])[H])c1[H]


 33 37  0  0  0  0  0  0  0  0999 V2000
    0.1517   21.7197  -24.4382 C   0  0  0  0  0  0  0  0  0  0  0  0
    1.5075   21.5007  -24.4159 C   0  0  0  0  0  0  0  0  0  0  0  0
    2.1927   21.0226  -23.2967 C   0  0  0  0  0  0  0  0  0  0  0  0
    3.5506   20.8275  -23.3464 O   0  0  0  0  0  0  0  0  0  0  0  0
    1.4963   20.7446  -22.1318 C   0  0  0  0  0  0  0  0  0  0  0  0
    2.0865   20.2760  -20.9935 C   0  0  0  0  0  0  0  0  0  0  0  0
    1.3431   20.0209  -19.8709 N   0  0  0  0  0  0  0  0  0  0  0  0
    0.0382   20.2406  -19.9187 C   0  0  0  0  0  0  0  0  0  0  0  0
   -0.6171   20.7073  -21.0209 C   0  0  0  0  0  0  0  0  0  0  0  0
    0.1237   20.9695  -22.1638 C   0  0  0  0  0  0  0  0  0  0  0  0
   -0.5444   21.4482  -23.2925 C   0  0  0  0  0  0  0  0  0  0  0  0
    4.0802   21.0206  -24.1779 H   0  0  0  0  0  0  0  0  0  0  0  0
   -2.5586   22.7796  -26.7270 C   0  0  0  0  0  0  0  0  0  0  0  0
   -1.8055   23.1537  -27.8492 C   0  0  0  0  0  0  0  0  0  0  0  0
   -0.4304   23.0595  -27.8537 C   0  0  0  0  0  0  0  0  0  0  0  0
    0.3081   23.4278  -28.9574 O   0  0  0  0  0  0  0  0  0  0  0  0
    0.2257   22.5876  -26.7331 C   0  0  0  0  0  0  0  0  0  0  0  0
   -0.5284   22.2245  -25.6397 C   0  0  0  0  0  0  0  0  0  0  0  0
   -1.8959   22.3107  -25.6153 C   0  0  0  0  0  0  0  0  0  0  0  0
    0.5137   22.7258  -29.6689 H   0  0  0  0  0  0  0  0  0  0  0  0
   -4.0068   22.9256  -26.8461 C   0  0  0  0  0  0  0  0  0  0  0  0
   -5.4822   23.3686  -28.6848 C   0  0  0  0  0  0  0  0  0  0  0  0
   -4.4050   23.8648  -27.8746 N   0  0  0  0  0  0  0  0  0  0  0  0
   -3.5691   23.9860  -28.5005 H   0  0  0  0  0  0  0  0  0  0  0  0
    3.5230   20.0309  -20.9312 C   0  0  0  0  0  0  0  0  0  0  0  0
    4.1879   18.9278  -21.4181 C   0  0  0  0  0  0  0  0  0  0  0  0
    5.4904   19.1470  -21.0735 N   0  0  0  0  0  0  0  0  0  0  0  0
    5.5898   20.2793  -20.4388 O   0  0  0  0  0  0  0  0  0  0  0  0
    4.4261   20.8719  -20.3167 C   0  0  0  0  0  0  0  0  0  0  0  0
    4.1394   22.1826  -19.6515 C   0  0  0  0  0  0  0  0  0  0  0  0
    3.5940   17.7783  -22.1457 C   0  0  0  0  0  0  0  0  0  0  0  0
    4.4582   16.6133  -22.4584 C   0  0  0  0  0  0  0  0  0  0  0  0
    3.3894   16.5255  -21.4127 C   0  0  0  0  0  0  0  0  0  0  0  0
 22 23  1  0  0  0
 23 21  1  0  0  0
 21 13  1  0  0  0
 13 14  2  0  0  0
 14 15  1  0  0  0
 15 16  1  0  0  0
 15 17  2  0  0  0
 17 18  1  0  0  0
 18 19  2  0  0  0
 18  1  1  0  0  0
  1  2  2  0  0  0
  2  3  1  0  0  0
  3  4  1  0  0  0
  3  5  2  0  0  0
  5  6  1  0  0  0
  6  7  2  0  0  0
  7  8  1  0  0  0
  8  9  2  0  0  0
  9 10  1  0  0  0
 10 11  2  0  0  0
  6 25  1  0  0  0
 25 26  1  0  0  0
 26 27  2  0  0  0
 27 28  1  0  0  0
 28 29  1  0  0  0
 29 30  1  0  0  0
 26 31  1  0  0  0
 31 32  1  0  0  0
 32 33  1  0  0  0
 19 13  1  0  0  0
 11  1  1  0  0  0
 29 25  2  0  0  0
 33 31  1  0  0  0
 10  5  1  0  0  0
 23 24  1  0  0  0
 16 20  1  0  0  0
  4 12  1  0  0  0
M  END
> <minimizedAffinity>
-8.89535

> <CNNscore>
0.3524445891

> <CNNaffinity>
6.3550629616

> <CNN_VS>
2.2398076057

> <CNNaffinity_variance>
0.1676062644

$$$$
[H]Oc1c([H])c(-c2c([H])c(O[H])c3c(-c4c(C5([H])C([H])([H])C5([H])[H])noc4C([H])([H])[H])nc([H])c([H])c3c2[H])c([H])c(C([H])([H])N([H])C([H])([H])[H])c1[H]


 33 37  0  0  0  0  0  0  0  0999 V2000
   -5.7497   22.1660  -22.8352 C   0  0  0  0  0  0  0  0  0  0  0  0
   -6.4337   23.0294  -23.6560 C   0  0  0  0  0  0  0  0  0  0  0  0
   -5.9389   23.4835  -24.8806 C   0  0  0  0  0  0  0  0  0  0  0  0
   -6.6783   24.3472  -25.6497 O   0  0  0  0  0  0  0  0  0  0  0  0
   -4.6952   23.0588  -25.3191 C   0  0  0  0  0  0  0  0  0  0  0  0
   -4.1366   23.4533  -26.5005 C   0  0  0  0  0  0  0  0  0  0  0  0
   -2.9003   22.9990  -26.8792 N   0  0  0  0  0  0  0  0  0  0  0  0
   -2.2621   22.1677  -26.0698 C   0  0  0  0  0  0  0  0  0  0  0  0
   -2.7597   21.7322  -24.8763 C   0  0  0  0  0  0  0  0  0  0  0  0
   -4.0100   22.1846  -24.4813 C   0  0  0  0  0  0  0  0  0  0  0  0
   -4.5208   21.7413  -23.2598 C   0  0  0  0  0  0  0  0  0  0  0  0
   -7.5829   24.6710  -25.3562 H   0  0  0  0  0  0  0  0  0  0  0  0
   -8.1769   21.5786  -20.1019 C   0  0  0  0  0  0  0  0  0  0  0  0
   -7.3644   20.8887  -19.1907 C   0  0  0  0  0  0  0  0  0  0  0  0
   -6.0415   20.6209  -19.4698 C   0  0  0  0  0  0  0  0  0  0  0  0
   -5.2445   19.9426  -18.5731 O   0  0  0  0  0  0  0  0  0  0  0  0
   -5.4985   21.0379  -20.6698 C   0  0  0  0  0  0  0  0  0  0  0  0
   -6.3096   21.7140  -21.5534 C   0  0  0  0  0  0  0  0  0  0  0  0
   -7.6269   21.9899  -21.2949 C   0  0  0  0  0  0  0  0  0  0  0  0
   -4.7235   20.4757  -17.8761 H   0  0  0  0  0  0  0  0  0  0  0  0
   -9.5604   21.8007  -19.6904 C   0  0  0  0  0  0  0  0  0  0  0  0
  -10.9764   23.6325  -20.3173 C   0  0  0  0  0  0  0  0  0  0  0  0
   -9.8820   23.1995  -19.4942 N   0  0  0  0  0  0  0  0  0  0  0  0
   -9.0307   23.7404  -19.7906 H   0  0  0  0  0  0  0  0  0  0  0  0
   -4.8319   24.3685  -27.3986 C   0  0  0  0  0  0  0  0  0  0  0  0
   -4.8973   25.7389  -27.2824 C   0  0  0  0  0  0  0  0  0  0  0  0
   -5.6935   26.1223  -28.3226 N   0  0  0  0  0  0  0  0  0  0  0  0
   -6.0674   25.0730  -28.9965 O   0  0  0  0  0  0  0  0  0  0  0  0
   -5.5771   23.9682  -28.4871 C   0  0  0  0  0  0  0  0  0  0  0  0
   -5.7831   22.5700  -28.9823 C   0  0  0  0  0  0  0  0  0  0  0  0
   -4.2413   26.5781  -26.2484 C   0  0  0  0  0  0  0  0  0  0  0  0
   -4.9382   27.8017  -25.7804 C   0  0  0  0  0  0  0  0  0  0  0  0
   -4.8188   26.5949  -24.9012 C   0  0  0  0  0  0  0  0  0  0  0  0
 22 23  1  0  0  0
 23 21  1  0  0  0
 21 13  1  0  0  0
 13 14  2  0  0  0
 14 15  1  0  0  0
 15 16  1  0  0  0
 15 17  2  0  0  0
 17 18  1  0  0  0
 18 19  2  0  0  0
 18  1  1  0  0  0
  1  2  2  0  0  0
  2  3  1  0  0  0
  3  4  1  0  0  0
  3  5  2  0  0  0
  5  6  1  0  0  0
  6  7  2  0  0  0
  7  8  1  0  0  0
  8  9  2  0  0  0
  9 10  1  0  0  0
 10 11  2  0  0  0
  6 25  1  0  0  0
 25 26  1  0  0  0
 26 27  2  0  0  0
 27 28  1  0  0  0
 28 29  1  0  0  0
 29 30  1  0  0  0
 26 31  1  0  0  0
 31 32  1  0  0  0
 32 33  1  0  0  0
 19 13  1  0  0  0
 11  1  1  0  0  0
 29 25  2  0  0  0
 33 31  1  0  0  0
 10  5  1  0  0  0
 23 24  1  0  0  0
 16 20  1  0  0  0
  4 12  1  0  0  0
M  END
> <minimizedAffinity>
-7.60437

> <CNNscore>
0.3045474291

> <CNNaffinity>
6.5871567726

> <CNN_VS>
2.0061016083

> <CNNaffinity_variance>
0.1936099678

$$$$
[H]Oc1c([H])c(-c2c([H])c(O[H])c3c(-c4c(C5([H])C([H])([H])C5([H])[H])noc4C([H])([H])[H])nc([H])c([H])c3c2[H])c([H])c(C([H])([H])N([H])C([H])([H])[H])c1[H]


 33 37  0  0  0  0  0  0  0  0999 V2000
   -5.7606   22.3540  -22.3185 C   0  0  0  0  0  0  0  0  0  0  0  0
   -6.4334   23.2723  -23.0871 C   0  0  0  0  0  0  0  0  0  0  0  0
   -5.9090   23.8326  -24.2541 C   0  0  0  0  0  0  0  0  0  0  0  0
   -6.6388   24.7462  -24.9731 O   0  0  0  0  0  0  0  0  0  0  0  0
   -4.6456   23.4627  -24.6862 C   0  0  0  0  0  0  0  0  0  0  0  0
   -4.0578   23.9610  -25.8130 C   0  0  0  0  0  0  0  0  0  0  0  0
   -2.8033   23.5567  -26.1881 N   0  0  0  0  0  0  0  0  0  0  0  0
   -2.1763   22.6706  -25.4297 C   0  0  0  0  0  0  0  0  0  0  0  0
   -2.7029   22.1314  -24.2921 C   0  0  0  0  0  0  0  0  0  0  0  0
   -3.9720   22.5323  -23.9014 C   0  0  0  0  0  0  0  0  0  0  0  0
   -4.5125   21.9828  -22.7371 C   0  0  0  0  0  0  0  0  0  0  0  0
   -7.5571   25.0320  -24.6830 H   0  0  0  0  0  0  0  0  0  0  0  0
   -8.2586   21.5148  -19.7179 C   0  0  0  0  0  0  0  0  0  0  0  0
   -7.4644   20.7587  -18.8438 C   0  0  0  0  0  0  0  0  0  0  0  0
   -6.1307   20.5283  -19.1047 C   0  0  0  0  0  0  0  0  0  0  0  0
   -5.3519   19.7848  -18.2445 O   0  0  0  0  0  0  0  0  0  0  0  0
   -5.5584   21.0501  -20.2487 C   0  0  0  0  0  0  0  0  0  0  0  0
   -6.3518   21.7902  -21.0964 C   0  0  0  0  0  0  0  0  0  0  0  0
   -7.6793   22.0304  -20.8552 C   0  0  0  0  0  0  0  0  0  0  0  0
   -4.8578   20.2625  -17.4900 H   0  0  0  0  0  0  0  0  0  0  0  0
   -9.6561   21.6879  -19.3308 C   0  0  0  0  0  0  0  0  0  0  0  0
  -10.9296   21.1815  -17.3622 C   0  0  0  0  0  0  0  0  0  0  0  0
  -10.1348   20.6542  -18.4360 N   0  0  0  0  0  0  0  0  0  0  0  0
   -9.2794   20.2161  -18.0099 H   0  0  0  0  0  0  0  0  0  0  0  0
   -4.7404   24.9372  -26.6549 C   0  0  0  0  0  0  0  0  0  0  0  0
   -5.3994   24.6817  -27.8366 C   0  0  0  0  0  0  0  0  0  0  0  0
   -5.8164   25.9117  -28.2563 N   0  0  0  0  0  0  0  0  0  0  0  0
   -5.4388   26.8168  -27.4000 O   0  0  0  0  0  0  0  0  0  0  0  0
   -4.7769   26.2909  -26.3972 C   0  0  0  0  0  0  0  0  0  0  0  0
   -4.1865   27.0082  -25.2226 C   0  0  0  0  0  0  0  0  0  0  0  0
   -5.5928   23.3586  -28.4813 C   0  0  0  0  0  0  0  0  0  0  0  0
   -5.6357   23.2906  -29.9630 C   0  0  0  0  0  0  0  0  0  0  0  0
   -4.4602   22.7649  -29.1978 C   0  0  0  0  0  0  0  0  0  0  0  0
 22 23  1  0  0  0
 23 21  1  0  0  0
 21 13  1  0  0  0
 13 14  2  0  0  0
 14 15  1  0  0  0
 15 16  1  0  0  0
 15 17  2  0  0  0
 17 18  1  0  0  0
 18 19  2  0  0  0
 18  1  1  0  0  0
  1  2  2  0  0  0
  2  3  1  0  0  0
  3  4  1  0  0  0
  3  5  2  0  0  0
  5  6  1  0  0  0
  6  7  2  0  0  0
  7  8  1  0  0  0
  8  9  2  0  0  0
  9 10  1  0  0  0
 10 11  2  0  0  0
  6 25  1  0  0  0
 25 26  1  0  0  0
 26 27  2  0  0  0
 27 28  1  0  0  0
 28 29  1  0  0  0
 29 30  1  0  0  0
 26 31  1  0  0  0
 31 32  1  0  0  0
 32 33  1  0  0  0
 19 13  1  0  0  0
 11  1  1  0  0  0
 29 25  2  0  0  0
 33 31  1  0  0  0
 10  5  1  0  0  0
 23 24  1  0  0  0
 16 20  1  0  0  0
  4 12  1  0  0  0
M  END
> <minimizedAffinity>
-8.14714

> <CNNscore>
0.2885746956

> <CNNaffinity>
6.5694146156

> <CNN_VS>
1.8957668543

> <CNNaffinity_variance>
0.2736664712

$$$$
[H]Oc1c([H])c(-c2c([H])c(O[H])c3c(-c4c(C5([H])C([H])([H])C5([H])[H])noc4C([H])([H])[H])nc([H])c([H])c3c2[H])c([H])c(C([H])([H])N([H])C([H])([H])[H])c1[H]


 33 37  0  0  0  0  0  0  0  0999 V2000
   -7.1371   22.9694  -22.2071 C   0  0  0  0  0  0  0  0  0  0  0  0
   -7.5014   23.9088  -23.1407 C   0  0  0  0  0  0  0  0  0  0  0  0
   -6.6780   24.3053  -24.1969 C   0  0  0  0  0  0  0  0  0  0  0  0
   -7.1082   25.2514  -25.0937 O   0  0  0  0  0  0  0  0  0  0  0  0
   -5.4212   23.7396  -24.3380 C   0  0  0  0  0  0  0  0  0  0  0  0
   -4.5535   24.0695  -25.3388 C   0  0  0  0  0  0  0  0  0  0  0  0
   -3.3216   23.4752  -25.4245 N   0  0  0  0  0  0  0  0  0  0  0  0
   -2.9950   22.5730  -24.5119 C   0  0  0  0  0  0  0  0  0  0  0  0
   -3.8115   22.1954  -23.4859 C   0  0  0  0  0  0  0  0  0  0  0  0
   -5.0611   22.7894  -23.3878 C   0  0  0  0  0  0  0  0  0  0  0  0
   -5.8980   22.4054  -22.3382 C   0  0  0  0  0  0  0  0  0  0  0  0
   -8.0145   25.6776  -25.0153 H   0  0  0  0  0  0  0  0  0  0  0  0
   -8.4864   21.1488  -19.2792 C   0  0  0  0  0  0  0  0  0  0  0  0
   -9.6845   21.8497  -19.0800 C   0  0  0  0  0  0  0  0  0  0  0  0
  -10.0429   22.9029  -19.8937 C   0  0  0  0  0  0  0  0  0  0  0  0
  -11.2206   23.5907  -19.6963 O   0  0  0  0  0  0  0  0  0  0  0  0
   -9.2093   23.2808  -20.9287 C   0  0  0  0  0  0  0  0  0  0  0  0
   -8.0368   22.5823  -21.1108 C   0  0  0  0  0  0  0  0  0  0  0  0
   -7.6626   21.5328  -20.3130 C   0  0  0  0  0  0  0  0  0  0  0  0
  -12.0641   23.2698  -20.1728 H   0  0  0  0  0  0  0  0  0  0  0  0
   -8.2198   20.0532  -18.3511 C   0  0  0  0  0  0  0  0  0  0  0  0
   -6.5078   18.3787  -18.4866 C   0  0  0  0  0  0  0  0  0  0  0  0
   -7.7625   18.8454  -19.0070 N   0  0  0  0  0  0  0  0  0  0  0  0
   -7.6111   19.0990  -20.0159 H   0  0  0  0  0  0  0  0  0  0  0  0
   -4.9042   25.0619  -26.3487 C   0  0  0  0  0  0  0  0  0  0  0  0
   -5.3578   24.8084  -27.6238 C   0  0  0  0  0  0  0  0  0  0  0  0
   -5.4920   26.0475  -28.1804 N   0  0  0  0  0  0  0  0  0  0  0  0
   -5.1488   26.9556  -27.3130 O   0  0  0  0  0  0  0  0  0  0  0  0
   -4.7792   26.4234  -26.1726 C   0  0  0  0  0  0  0  0  0  0  0  0
   -4.3192   27.1417  -24.9417 C   0  0  0  0  0  0  0  0  0  0  0  0
   -5.6274   23.4787  -28.2261 C   0  0  0  0  0  0  0  0  0  0  0  0
   -5.6507   23.3610  -29.7051 C   0  0  0  0  0  0  0  0  0  0  0  0
   -4.5248   22.7874  -28.9008 C   0  0  0  0  0  0  0  0  0  0  0  0
 22 23  1  0  0  0
 23 21  1  0  0  0
 21 13  1  0  0  0
 13 14  2  0  0  0
 14 15  1  0  0  0
 15 16  1  0  0  0
 15 17  2  0  0  0
 17 18  1  0  0  0
 18 19  2  0  0  0
 18  1  1  0  0  0
  1  2  2  0  0  0
  2  3  1  0  0  0
  3  4  1  0  0  0
  3  5  2  0  0  0
  5  6  1  0  0  0
  6  7  2  0  0  0
  7  8  1  0  0  0
  8  9  2  0  0  0
  9 10  1  0  0  0
 10 11  2  0  0  0
  6 25  1  0  0  0
 25 26  1  0  0  0
 26 27  2  0  0  0
 27 28  1  0  0  0
 28 29  1  0  0  0
 29 30  1  0  0  0
 26 31  1  0  0  0
 31 32  1  0  0  0
 32 33  1  0  0  0
 19 13  1  0  0  0
 11  1  1  0  0  0
 29 25  2  0  0  0
 33 31  1  0  0  0
 10  5  1  0  0  0
 23 24  1  0  0  0
 16 20  1  0  0  0
  4 12  1  0  0  0
M  END
> <minimizedAffinity>
-8.42278

> <CNNscore>
0.2783799171

> <CNNaffinity>
6.4842925072

> <CNN_VS>
1.8050968647

> <CNNaffinity_variance>
0.2395105362

$$$$
[H]c1nc2c(nc1N([H])c1c([H])c([H])c(S(=O)(=O)N([H])[H])c([H])c1[H])c(C(=O)N([H])[H])nn2C([H])(C([H])([H])[H])C([H])([H])[H]


 31 33  0  0  0  0  0  0  0  0999 V2000
    0.5672   21.6402  -23.3899 N   0  0  0  0  0  0  0  0  0  0  0  0
    0.8586   21.6516  -24.6710 N   0  0  0  0  0  0  0  0  0  0  0  0
   -0.1719   22.1655  -25.3941 C   0  0  0  0  0  0  0  0  0  0  0  0
   -1.1367   22.4750  -24.4439 C   0  0  0  0  0  0  0  0  0  0  0  0
   -2.3421   22.9996  -24.5596 N   0  0  0  0  0  0  0  0  0  0  0  0
   -3.1780   23.2435  -23.5047 C   0  0  0  0  0  0  0  0  0  0  0  0
   -2.6860   22.9026  -22.2688 C   0  0  0  0  0  0  0  0  0  0  0  0
   -1.4385   22.3599  -22.1446 N   0  0  0  0  0  0  0  0  0  0  0  0
   -0.6577   22.1407  -23.2037 C   0  0  0  0  0  0  0  0  0  0  0  0
   -0.2300   22.3420  -26.8331 C   0  0  0  0  0  0  0  0  0  0  0  0
   -1.4715   22.3529  -27.5092 N   0  0  0  0  0  0  0  0  0  0  0  0
    0.8203   22.4857  -27.4851 O   0  0  0  0  0  0  0  0  0  0  0  0
   -1.6269   21.6657  -28.2805 H   0  0  0  0  0  0  0  0  0  0  0  0
   -2.2529   23.0278  -27.2684 H   0  0  0  0  0  0  0  0  0  0  0  0
    2.8203   20.7720  -22.9616 C   0  0  0  0  0  0  0  0  0  0  0  0
    1.4715   21.1486  -22.3706 C   0  0  0  0  0  0  0  0  0  0  0  0
    0.8787   20.0151  -21.6012 C   0  0  0  0  0  0  0  0  0  0  0  0
   -4.4368   23.7740  -23.7915 N   0  0  0  0  0  0  0  0  0  0  0  0
   -4.6283   24.0607  -24.8137 H   0  0  0  0  0  0  0  0  0  0  0  0
   -5.5230   23.9922  -22.9086 C   0  0  0  0  0  0  0  0  0  0  0  0
   -5.6576   25.0297  -22.0245 C   0  0  0  0  0  0  0  0  0  0  0  0
   -6.7544   25.1467  -21.1622 C   0  0  0  0  0  0  0  0  0  0  0  0
   -7.7595   24.2080  -21.1689 C   0  0  0  0  0  0  0  0  0  0  0  0
   -7.6410   23.1627  -22.0492 C   0  0  0  0  0  0  0  0  0  0  0  0
   -6.5642   23.0464  -22.8962 C   0  0  0  0  0  0  0  0  0  0  0  0
   -9.0965   24.4051  -20.0761 S   0  0  0  0  0  0  0  0  0  0  0  0
  -10.5836   23.8965  -20.7428 N   0  0  0  0  0  0  0  0  0  0  0  0
   -9.2565   25.8515  -19.6534 O   0  0  0  0  0  0  0  0  0  0  0  0
   -8.8243   23.6247  -18.8254 O   0  0  0  0  0  0  0  0  0  0  0  0
  -10.5786   23.7887  -21.7733 H   0  0  0  0  0  0  0  0  0  0  0  0
  -11.0309   23.1115  -20.2294 H   0  0  0  0  0  0  0  0  0  0  0  0
 15 16  1  0  0  0
 16 17  1  0  0  0
 16  1  1  0  0  0
  1  2  1  0  0  0
  2  3  2  0  0  0
  3 10  1  0  0  0
 10 11  1  0  0  0
 10 12  2  0  0  0
  3  4  1  0  0  0
  4  5  2  0  0  0
  5  6  1  0  0  0
  6 18  1  0  0  0
 18 20  1  0  0  0
 20 21  2  0  0  0
 21 22  1  0  0  0
 22 23  2  0  0  0
 23 24  1  0  0  0
 24 25  2  0  0  0
 23 26  1  0  0  0
 26 27  1  0  0  0
 26 28  2  0  0  0
 26 29  2  0  0  0
  6  7  2  0  0  0
  7  8  1  0  0  0
  8  9  2  0  0  0
  9  1  1  0  0  0
  9  4  1  0  0  0
 25 20  1  0  0  0
 11 13  1  0  0  0
 11 14  1  0  0  0
 18 19  1  0  0  0
 27 30  1  0  0  0
 27 31  1  0  0  0
M  END
> <minimizedAffinity>
-6.72424

> <CNNscore>
0.4513047934

> <CNNaffinity>
6.1199064255

> <CNN_VS>
2.7619431019

> <CNNaffinity_variance>
0.1471230835

$$$$
[H]c1nc2c(nc1N([H])c1c([H])c([H])c(S(=O)(=O)N([H])[H])c([H])c1[H])c(C(=O)N([H])[H])nn2C([H])(C([H])([H])[H])C([H])([H])[H]


 31 33  0  0  0  0  0  0  0  0999 V2000
   -4.7233   24.3570  -27.8939 N   0  0  0  0  0  0  0  0  0  0  0  0
   -5.2784   24.7129  -26.7574 N   0  0  0  0  0  0  0  0  0  0  0  0
   -4.4809   24.3801  -25.7076 C   0  0  0  0  0  0  0  0  0  0  0  0
   -3.3732   23.7818  -26.2946 C   0  0  0  0  0  0  0  0  0  0  0  0
   -2.2780   23.2643  -25.7709 N   0  0  0  0  0  0  0  0  0  0  0  0
   -1.2668   22.7052  -26.5030 C   0  0  0  0  0  0  0  0  0  0  0  0
   -1.4510   22.7061  -27.8638 C   0  0  0  0  0  0  0  0  0  0  0  0
   -2.5830   23.2415  -28.4099 N   0  0  0  0  0  0  0  0  0  0  0  0
   -3.5434   23.7772  -27.6549 C   0  0  0  0  0  0  0  0  0  0  0  0
   -4.7461   24.6077  -24.2994 C   0  0  0  0  0  0  0  0  0  0  0  0
   -4.5088   25.8732  -23.7156 N   0  0  0  0  0  0  0  0  0  0  0  0
   -5.1872   23.6835  -23.5921 O   0  0  0  0  0  0  0  0  0  0  0  0
   -3.8646   25.9327  -22.8954 H   0  0  0  0  0  0  0  0  0  0  0  0
   -4.9557   26.7657  -24.0733 H   0  0  0  0  0  0  0  0  0  0  0  0
   -5.5207   23.2777  -29.9464 C   0  0  0  0  0  0  0  0  0  0  0  0
   -5.3378   24.5812  -29.1863 C   0  0  0  0  0  0  0  0  0  0  0  0
   -4.5810   25.5816  -29.9956 C   0  0  0  0  0  0  0  0  0  0  0  0
   -0.1850   22.1705  -25.8014 N   0  0  0  0  0  0  0  0  0  0  0  0
    0.7461   22.0684  -26.3366 H   0  0  0  0  0  0  0  0  0  0  0  0
   -0.1372   21.7347  -24.4543 C   0  0  0  0  0  0  0  0  0  0  0  0
   -1.2091   21.5308  -23.6263 C   0  0  0  0  0  0  0  0  0  0  0  0
   -1.0647   21.1307  -22.2924 C   0  0  0  0  0  0  0  0  0  0  0  0
    0.1818   20.9215  -21.7503 C   0  0  0  0  0  0  0  0  0  0  0  0
    1.2664   21.1202  -22.5662 C   0  0  0  0  0  0  0  0  0  0  0  0
    1.1259   21.5136  -23.8761 C   0  0  0  0  0  0  0  0  0  0  0  0
    0.2997   20.4255  -20.0887 S   0  0  0  0  0  0  0  0  0  0  0  0
    1.5760   21.1916  -19.2528 N   0  0  0  0  0  0  0  0  0  0  0  0
    0.5104   18.9295  -19.9719 O   0  0  0  0  0  0  0  0  0  0  0  0
   -0.9949   20.7276  -19.3957 O   0  0  0  0  0  0  0  0  0  0  0  0
    2.2828   21.6394  -19.8639 H   0  0  0  0  0  0  0  0  0  0  0  0
    1.2661   21.7765  -18.4517 H   0  0  0  0  0  0  0  0  0  0  0  0
 15 16  1  0  0  0
 16 17  1  0  0  0
 16  1  1  0  0  0
  1  2  1  0  0  0
  2  3  2  0  0  0
  3 10  1  0  0  0
 10 11  1  0  0  0
 10 12  2  0  0  0
  3  4  1  0  0  0
  4  5  2  0  0  0
  5  6  1  0  0  0
  6 18  1  0  0  0
 18 20  1  0  0  0
 20 21  2  0  0  0
 21 22  1  0  0  0
 22 23  2  0  0  0
 23 24  1  0  0  0
 24 25  2  0  0  0
 23 26  1  0  0  0
 26 27  1  0  0  0
 26 28  2  0  0  0
 26 29  2  0  0  0
  6  7  2  0  0  0
  7  8  1  0  0  0
  8  9  2  0  0  0
  9  1  1  0  0  0
  9  4  1  0  0  0
 25 20  1  0  0  0
 11 13  1  0  0  0
 11 14  1  0  0  0
 18 19  1  0  0  0
 27 30  1  0  0  0
 27 31  1  0  0  0
M  END
> <minimizedAffinity>
-7.39602

> <CNNscore>
0.4015227556

> <CNNaffinity>
6.5931000710

> <CNN_VS>
2.6472797394

> <CNNaffinity_variance>
0.1484505087

$$$$
[H]c1nc2c(nc1N([H])c1c([H])c([H])c(S(=O)(=O)N([H])[H])c([H])c1[H])c(C(=O)N([H])[H])nn2C([H])(C([H])([H])[H])C([H])([H])[H]


 31 33  0  0  0  0  0  0  0  0999 V2000
   -5.0693   25.3602  -28.5168 N   0  0  0  0  0  0  0  0  0  0  0  0
   -5.5167   26.1300  -27.5506 N   0  0  0  0  0  0  0  0  0  0  0  0
   -4.9385   25.7992  -26.3653 C   0  0  0  0  0  0  0  0  0  0  0  0
   -4.0862   24.7487  -26.6808 C   0  0  0  0  0  0  0  0  0  0  0  0
   -3.2699   24.0296  -25.9337 N   0  0  0  0  0  0  0  0  0  0  0  0
   -2.4871   23.0142  -26.4100 C   0  0  0  0  0  0  0  0  0  0  0  0
   -2.5942   22.7660  -27.7563 C   0  0  0  0  0  0  0  0  0  0  0  0
   -3.4375   23.5085  -28.5333 N   0  0  0  0  0  0  0  0  0  0  0  0
   -4.1822   24.4909  -28.0238 C   0  0  0  0  0  0  0  0  0  0  0  0
   -5.1732   26.4170  -25.0736 C   0  0  0  0  0  0  0  0  0  0  0  0
   -4.1300   26.5266  -24.1258 N   0  0  0  0  0  0  0  0  0  0  0  0
   -6.3024   26.8572  -24.7905 O   0  0  0  0  0  0  0  0  0  0  0  0
   -4.2690   26.1084  -23.1786 H   0  0  0  0  0  0  0  0  0  0  0  0
   -3.2119   27.0145  -24.3333 H   0  0  0  0  0  0  0  0  0  0  0  0
   -5.9093   24.1251  -30.4616 C   0  0  0  0  0  0  0  0  0  0  0  0
   -5.5031   25.4753  -29.8941 C   0  0  0  0  0  0  0  0  0  0  0  0
   -4.4728   26.1370  -30.7480 C   0  0  0  0  0  0  0  0  0  0  0  0
   -1.6979   22.3244  -25.4881 N   0  0  0  0  0  0  0  0  0  0  0  0
   -1.0445   21.5586  -25.8759 H   0  0  0  0  0  0  0  0  0  0  0  0
   -1.6322   22.4941  -24.0832 C   0  0  0  0  0  0  0  0  0  0  0  0
   -2.3512   23.3900  -23.3371 C   0  0  0  0  0  0  0  0  0  0  0  0
   -2.1954   23.5119  -21.9511 C   0  0  0  0  0  0  0  0  0  0  0  0
   -1.2987   22.7220  -21.2705 C   0  0  0  0  0  0  0  0  0  0  0  0
   -0.5710   21.8184  -22.0023 C   0  0  0  0  0  0  0  0  0  0  0  0
   -0.7227   21.6981  -23.3636 C   0  0  0  0  0  0  0  0  0  0  0  0
   -1.1480   22.9177  -19.5501 S   0  0  0  0  0  0  0  0  0  0  0  0
   -2.6556   23.0338  -18.7573 N   0  0  0  0  0  0  0  0  0  0  0  0
   -0.3525   24.1596  -19.2025 O   0  0  0  0  0  0  0  0  0  0  0  0
   -0.3854   21.7544  -18.9910 O   0  0  0  0  0  0  0  0  0  0  0  0
   -3.4550   23.2438  -19.3820 H   0  0  0  0  0  0  0  0  0  0  0  0
   -2.8325   22.2734  -18.0715 H   0  0  0  0  0  0  0  0  0  0  0  0
 15 16  1  0  0  0
 16 17  1  0  0  0
 16  1  1  0  0  0
  1  2  1  0  0  0
  2  3  2  0  0  0
  3 10  1  0  0  0
 10 11  1  0  0  0
 10 12  2  0  0  0
  3  4  1  0  0  0
  4  5  2  0  0  0
  5  6  1  0  0  0
  6 18  1  0  0  0
 18 20  1  0  0  0
 20 21  2  0  0  0
 21 22  1  0  0  0
 22 23  2  0  0  0
 23 24  1  0  0  0
 24 25  2  0  0  0
 23 26  1  0  0  0
 26 27  1  0  0  0
 26 28  2  0  0  0
 26 29  2  0  0  0
  6  7  2  0  0  0
  7  8  1  0  0  0
  8  9  2  0  0  0
  9  1  1  0  0  0
  9  4  1  0  0  0
 25 20  1  0  0  0
 11 13  1  0  0  0
 11 14  1  0  0  0
 18 19  1  0  0  0
 27 30  1  0  0  0
 27 31  1  0  0  0
M  END
> <minimizedAffinity>
-8.53270

> <CNNscore>
0.3874074519

> <CNNaffinity>
6.5152444839

> <CNN_VS>
2.5240542889

> <CNNaffinity_variance>
0.0471769758

$$$$
[H]c1nc2c(nc1N([H])c1c([H])c([H])c(S(=O)(=O)N([H])[H])c([H])c1[H])c(C(=O)N([H])[H])nn2C([H])(C([H])([H])[H])C([H])([H])[H]


 31 33  0  0  0  0  0  0  0  0999 V2000
   -4.4065   24.9066  -28.1176 N   0  0  0  0  0  0  0  0  0  0  0  0
   -4.8441   25.9490  -27.4481 N   0  0  0  0  0  0  0  0  0  0  0  0
   -4.5882   25.8096  -26.1200 C   0  0  0  0  0  0  0  0  0  0  0  0
   -3.9485   24.5805  -26.0212 C   0  0  0  0  0  0  0  0  0  0  0  0
   -3.4692   23.9247  -24.9811 N   0  0  0  0  0  0  0  0  0  0  0  0
   -2.8579   22.7035  -25.0585 C   0  0  0  0  0  0  0  0  0  0  0  0
   -2.7624   22.1683  -26.3195 C   0  0  0  0  0  0  0  0  0  0  0  0
   -3.2568   22.8443  -27.3989 N   0  0  0  0  0  0  0  0  0  0  0  0
   -3.8452   24.0350  -27.2746 C   0  0  0  0  0  0  0  0  0  0  0  0
   -4.9176   26.7456  -25.0614 C   0  0  0  0  0  0  0  0  0  0  0  0
   -3.9032   27.3038  -24.2502 N   0  0  0  0  0  0  0  0  0  0  0  0
   -6.1035   27.0648  -24.8600 O   0  0  0  0  0  0  0  0  0  0  0  0
   -3.9646   27.1774  -23.2150 H   0  0  0  0  0  0  0  0  0  0  0  0
   -3.0819   27.8455  -24.6456 H   0  0  0  0  0  0  0  0  0  0  0  0
   -4.8874   26.0957  -30.2077 C   0  0  0  0  0  0  0  0  0  0  0  0
   -4.5364   24.7692  -29.5538 C   0  0  0  0  0  0  0  0  0  0  0  0
   -5.5145   23.7041  -29.9242 C   0  0  0  0  0  0  0  0  0  0  0  0
   -2.4308   22.1217  -23.8637 N   0  0  0  0  0  0  0  0  0  0  0  0
   -3.1856   21.9101  -23.1226 H   0  0  0  0  0  0  0  0  0  0  0  0
   -1.1157   21.7608  -23.4801 C   0  0  0  0  0  0  0  0  0  0  0  0
    0.0278   21.9598  -24.2074 C   0  0  0  0  0  0  0  0  0  0  0  0
    1.2863   21.5374  -23.7623 C   0  0  0  0  0  0  0  0  0  0  0  0
    1.4277   20.8950  -22.5546 C   0  0  0  0  0  0  0  0  0  0  0  0
    0.2925   20.6885  -21.8128 C   0  0  0  0  0  0  0  0  0  0  0  0
   -0.9440   21.1023  -22.2490 C   0  0  0  0  0  0  0  0  0  0  0  0
    3.0146   20.3933  -22.0538 S   0  0  0  0  0  0  0  0  0  0  0  0
    3.8181   21.5668  -21.1094 N   0  0  0  0  0  0  0  0  0  0  0  0
    3.8980   20.0830  -23.2452 O   0  0  0  0  0  0  0  0  0  0  0  0
    2.8996   19.1221  -21.2676 O   0  0  0  0  0  0  0  0  0  0  0  0
    3.4083   22.5168  -21.1636 H   0  0  0  0  0  0  0  0  0  0  0  0
    4.0471   21.2503  -20.1464 H   0  0  0  0  0  0  0  0  0  0  0  0
 15 16  1  0  0  0
 16 17  1  0  0  0
 16  1  1  0  0  0
  1  2  1  0  0  0
  2  3  2  0  0  0
  3 10  1  0  0  0
 10 11  1  0  0  0
 10 12  2  0  0  0
  3  4  1  0  0  0
  4  5  2  0  0  0
  5  6  1  0  0  0
  6 18  1  0  0  0
 18 20  1  0  0  0
 20 21  2  0  0  0
 21 22  1  0  0  0
 22 23  2  0  0  0
 23 24  1  0  0  0
 24 25  2  0  0  0
 23 26  1  0  0  0
 26 27  1  0  0  0
 26 28  2  0  0  0
 26 29  2  0  0  0
  6  7  2  0  0  0
  7  8  1  0  0  0
  8  9  2  0  0  0
  9  1  1  0  0  0
  9  4  1  0  0  0
 25 20  1  0  0  0
 11 13  1  0  0  0
 11 14  1  0  0  0
 18 19  1  0  0  0
 27 30  1  0  0  0
 27 31  1  0  0  0
M  END
> <minimizedAffinity>
-8.51461

> <CNNscore>
0.2950161695

> <CNNaffinity>
6.3675971031

> <CNN_VS>
1.8785440922

> <CNNaffinity_variance>
0.0517432392

$$$$
[H]c1nc2c(nc1N([H])c1c([H])c([H])c(S(=O)(=O)N([H])[H])c([H])c1[H])c(C(=O)N([H])[H])nn2C([H])(C([H])([H])[H])C([H])([H])[H]


 31 33  0  0  0  0  0  0  0  0999 V2000
    1.7919   21.1122  -22.7682 N   0  0  0  0  0  0  0  0  0  0  0  0
    1.6882   21.4913  -24.0220 N   0  0  0  0  0  0  0  0  0  0  0  0
    0.3991   21.7978  -24.3268 C   0  0  0  0  0  0  0  0  0  0  0  0
   -0.2952   21.5746  -23.1445 C   0  0  0  0  0  0  0  0  0  0  0  0
   -1.5732   21.7047  -22.8424 N   0  0  0  0  0  0  0  0  0  0  0  0
   -2.1017   21.4390  -21.6091 C   0  0  0  0  0  0  0  0  0  0  0  0
   -1.2052   21.0120  -20.6606 C   0  0  0  0  0  0  0  0  0  0  0  0
    0.1188   20.8766  -20.9691 N   0  0  0  0  0  0  0  0  0  0  0  0
    0.5891   21.1487  -22.1874 C   0  0  0  0  0  0  0  0  0  0  0  0
   -0.1143   22.2533  -25.6051 C   0  0  0  0  0  0  0  0  0  0  0  0
    0.7671   22.5971  -26.6556 N   0  0  0  0  0  0  0  0  0  0  0  0
   -1.3423   22.3448  -25.7854 O   0  0  0  0  0  0  0  0  0  0  0  0
    0.7029   23.5542  -27.0692 H   0  0  0  0  0  0  0  0  0  0  0  0
    1.4912   21.9264  -27.0430 H   0  0  0  0  0  0  0  0  0  0  0  0
    3.1838   19.2104  -22.0906 C   0  0  0  0  0  0  0  0  0  0  0  0
    3.0445   20.7227  -22.1537 C   0  0  0  0  0  0  0  0  0  0  0  0
    3.2192   21.3421  -20.8068 C   0  0  0  0  0  0  0  0  0  0  0  0
   -3.4801   21.5947  -21.4533 N   0  0  0  0  0  0  0  0  0  0  0  0
   -3.9575   21.0070  -20.6848 H   0  0  0  0  0  0  0  0  0  0  0  0
   -4.3592   22.4362  -22.1784 C   0  0  0  0  0  0  0  0  0  0  0  0
   -5.2934   22.0383  -23.0977 C   0  0  0  0  0  0  0  0  0  0  0  0
   -6.0988   22.9472  -23.7944 C   0  0  0  0  0  0  0  0  0  0  0  0
   -5.9830   24.3005  -23.5792 C   0  0  0  0  0  0  0  0  0  0  0  0
   -5.0528   24.7163  -22.6608 C   0  0  0  0  0  0  0  0  0  0  0  0
   -4.2609   23.8248  -21.9763 C   0  0  0  0  0  0  0  0  0  0  0  0
   -7.0094   25.3814  -24.4732 S   0  0  0  0  0  0  0  0  0  0  0  0
   -8.6473   25.2897  -24.0005 N   0  0  0  0  0  0  0  0  0  0  0  0
   -6.9470   25.0994  -25.9607 O   0  0  0  0  0  0  0  0  0  0  0  0
   -6.5202   26.7860  -24.2862 O   0  0  0  0  0  0  0  0  0  0  0  0
   -8.8902   24.4447  -23.4522 H   0  0  0  0  0  0  0  0  0  0  0  0
   -9.0267   26.1772  -23.6154 H   0  0  0  0  0  0  0  0  0  0  0  0
 15 16  1  0  0  0
 16 17  1  0  0  0
 16  1  1  0  0  0
  1  2  1  0  0  0
  2  3  2  0  0  0
  3 10  1  0  0  0
 10 11  1  0  0  0
 10 12  2  0  0  0
  3  4  1  0  0  0
  4  5  2  0  0  0
  5  6  1  0  0  0
  6 18  1  0  0  0
 18 20  1  0  0  0
 20 21  2  0  0  0
 21 22  1  0  0  0
 22 23  2  0  0  0
 23 24  1  0  0  0
 24 25  2  0  0  0
 23 26  1  0  0  0
 26 27  1  0  0  0
 26 28  2  0  0  0
 26 29  2  0  0  0
  6  7  2  0  0  0
  7  8  1  0  0  0
  8  9  2  0  0  0
  9  1  1  0  0  0
  9  4  1  0  0  0
 25 20  1  0  0  0
 11 13  1  0  0  0
 11 14  1  0  0  0
 18 19  1  0  0  0
 27 30  1  0  0  0
 27 31  1  0  0  0
M  END
> <minimizedAffinity>
-6.92284

> <CNNscore>
0.2845584750

> <CNNaffinity>
6.1530137062

> <CNN_VS>
1.7508921623

> <CNNaffinity_variance>
0.1001422778

$$$$
[H]c1nc2c(nc1N([H])c1c([H])c([H])c(S(=O)(=O)N([H])[H])c([H])c1[H])c(C(=O)N([H])[H])nn2C([H])(C([H])([H])[H])C([H])([H])[H]


 31 33  0  0  0  0  0  0  0  0999 V2000
   -4.8782   25.2298  -29.2462 N   0  0  0  0  0  0  0  0  0  0  0  0
   -5.5429   26.0001  -28.4149 N   0  0  0  0  0  0  0  0  0  0  0  0
   -5.1657   25.7603  -27.1308 C   0  0  0  0  0  0  0  0  0  0  0  0
   -4.2013   24.7662  -27.2367 C   0  0  0  0  0  0  0  0  0  0  0  0
   -3.4853   24.1407  -26.3215 N   0  0  0  0  0  0  0  0  0  0  0  0
   -2.5625   23.1701  -26.5995 C   0  0  0  0  0  0  0  0  0  0  0  0
   -2.4093   22.8626  -27.9290 C   0  0  0  0  0  0  0  0  0  0  0  0
   -3.1480   23.5084  -28.8796 N   0  0  0  0  0  0  0  0  0  0  0  0
   -4.0370   24.4503  -28.5605 C   0  0  0  0  0  0  0  0  0  0  0  0
   -5.6697   26.4079  -25.9342 C   0  0  0  0  0  0  0  0  0  0  0  0
   -6.8122   25.9069  -25.2692 N   0  0  0  0  0  0  0  0  0  0  0  0
   -5.0951   27.4155  -25.4831 O   0  0  0  0  0  0  0  0  0  0  0  0
   -7.6263   26.5452  -25.1238 H   0  0  0  0  0  0  0  0  0  0  0  0
   -6.8802   24.9112  -24.9111 H   0  0  0  0  0  0  0  0  0  0  0  0
   -5.6137   26.5987  -31.1432 C   0  0  0  0  0  0  0  0  0  0  0  0
   -5.0647   25.2584  -30.6824 C   0  0  0  0  0  0  0  0  0  0  0  0
   -5.9189   24.1289  -31.1547 C   0  0  0  0  0  0  0  0  0  0  0  0
   -1.9065   22.5784  -25.5187 N   0  0  0  0  0  0  0  0  0  0  0  0
   -0.9347   22.1501  -25.7081 H   0  0  0  0  0  0  0  0  0  0  0  0
   -2.3475   22.4604  -24.1777 C   0  0  0  0  0  0  0  0  0  0  0  0
   -3.3708   21.6711  -23.7238 C   0  0  0  0  0  0  0  0  0  0  0  0
   -3.7614   21.6437  -22.3796 C   0  0  0  0  0  0  0  0  0  0  0  0
   -3.1210   22.4216  -21.4436 C   0  0  0  0  0  0  0  0  0  0  0  0
   -2.0929   23.2174  -21.8810 C   0  0  0  0  0  0  0  0  0  0  0  0
   -1.7087   23.2456  -23.2009 C   0  0  0  0  0  0  0  0  0  0  0  0
   -3.6492   22.3465  -19.7895 S   0  0  0  0  0  0  0  0  0  0  0  0
   -4.0416   20.7631  -19.2858 N   0  0  0  0  0  0  0  0  0  0  0  0
   -4.8696   23.2146  -19.5589 O   0  0  0  0  0  0  0  0  0  0  0  0
   -2.5675   22.8910  -18.9060 O   0  0  0  0  0  0  0  0  0  0  0  0
   -4.1825   20.0882  -20.0592 H   0  0  0  0  0  0  0  0  0  0  0  0
   -3.4524   20.4089  -18.5065 H   0  0  0  0  0  0  0  0  0  0  0  0
 15 16  1  0  0  0
 16 17  1  0  0  0
 16  1  1  0  0  0
  1  2  1  0  0  0
  2  3  2  0  0  0
  3 10  1  0  0  0
 10 11  1  0  0  0
 10 12  2  0  0  0
  3  4  1  0  0  0
  4  5  2  0  0  0
  5  6  1  0  0  0
  6 18  1  0  0  0
 18 20  1  0  0  0
 20 21  2  0  0  0
 21 22  1  0  0  0
 22 23  2  0  0  0
 23 24  1  0  0  0
 24 25  2  0  0  0
 23 26  1  0  0  0
 26 27  1  0  0  0
 26 28  2  0  0  0
 26 29  2  0  0  0
  6  7  2  0  0  0
  7  8  1  0  0  0
  8  9  2  0  0  0
  9  1  1  0  0  0
  9  4  1  0  0  0
 25 20  1  0  0  0
 11 13  1  0  0  0
 11 14  1  0  0  0
 18 19  1  0  0  0
 27 30  1  0  0  0
 27 31  1  0  0  0
M  END
> <minimizedAffinity>
-8.05068

> <CNNscore>
0.2822790444

> <CNNaffinity>
6.5228490829

> <CNN_VS>
1.8412636518

> <CNNaffinity_variance>
0.0273761656

$$$$
[H]c1nc2c(nc1N([H])c1c([H])c([H])c(S(=O)(=O)N([H])[H])c([H])c1[H])c(C(=O)N([H])[H])nn2C([H])(C([H])([H])[H])C([H])([H])[H]


 31 33  0  0  0  0  0  0  0  0999 V2000
    0.0007   21.2417  -20.3258 N   0  0  0  0  0  0  0  0  0  0  0  0
    1.2835   20.9850  -20.4474 N   0  0  0  0  0  0  0  0  0  0  0  0
    1.6546   20.9969  -21.7554 C   0  0  0  0  0  0  0  0  0  0  0  0
    0.4820   21.2855  -22.4419 C   0  0  0  0  0  0  0  0  0  0  0  0
    0.2342   21.4245  -23.7306 N   0  0  0  0  0  0  0  0  0  0  0  0
   -0.9981   21.7142  -24.2487 C   0  0  0  0  0  0  0  0  0  0  0  0
   -2.0076   21.8590  -23.3292 C   0  0  0  0  0  0  0  0  0  0  0  0
   -1.7551   21.7167  -21.9941 N   0  0  0  0  0  0  0  0  0  0  0  0
   -0.5350   21.4342  -21.5347 C   0  0  0  0  0  0  0  0  0  0  0  0
    2.9817   20.7591  -22.2917 C   0  0  0  0  0  0  0  0  0  0  0  0
    3.2872   21.0854  -23.6328 N   0  0  0  0  0  0  0  0  0  0  0  0
    3.8650   20.2629  -21.5689 O   0  0  0  0  0  0  0  0  0  0  0  0
    3.6507   20.3333  -24.2601 H   0  0  0  0  0  0  0  0  0  0  0  0
    3.1637   22.0602  -24.0312 H   0  0  0  0  0  0  0  0  0  0  0  0
    0.2074   21.8816  -17.9676 C   0  0  0  0  0  0  0  0  0  0  0  0
   -0.6844   21.2969  -19.0507 C   0  0  0  0  0  0  0  0  0  0  0  0
   -1.2233   19.9634  -18.6509 C   0  0  0  0  0  0  0  0  0  0  0  0
   -1.1076   21.7987  -25.6378 N   0  0  0  0  0  0  0  0  0  0  0  0
   -0.4100   21.2193  -26.2221 H   0  0  0  0  0  0  0  0  0  0  0  0
   -2.0282   22.5545  -26.4046 C   0  0  0  0  0  0  0  0  0  0  0  0
   -2.0449   22.6754  -27.7689 C   0  0  0  0  0  0  0  0  0  0  0  0
   -2.9756   23.4756  -28.4425 C   0  0  0  0  0  0  0  0  0  0  0  0
   -3.9284   24.1845  -27.7490 C   0  0  0  0  0  0  0  0  0  0  0  0
   -3.9265   24.0739  -26.3817 C   0  0  0  0  0  0  0  0  0  0  0  0
   -3.0128   23.2888  -25.7190 C   0  0  0  0  0  0  0  0  0  0  0  0
   -5.0577   25.1613  -28.6385 S   0  0  0  0  0  0  0  0  0  0  0  0
   -4.3682   25.8852  -30.0224 N   0  0  0  0  0  0  0  0  0  0  0  0
   -5.6262   26.2714  -27.7779 O   0  0  0  0  0  0  0  0  0  0  0  0
   -6.2188   24.3093  -29.0545 O   0  0  0  0  0  0  0  0  0  0  0  0
   -3.3321   25.8910  -30.0339 H   0  0  0  0  0  0  0  0  0  0  0  0
   -4.8075   25.5909  -30.9170 H   0  0  0  0  0  0  0  0  0  0  0  0
 15 16  1  0  0  0
 16 17  1  0  0  0
 16  1  1  0  0  0
  1  2  1  0  0  0
  2  3  2  0  0  0
  3 10  1  0  0  0
 10 11  1  0  0  0
 10 12  2  0  0  0
  3  4  1  0  0  0
  4  5  2  0  0  0
  5  6  1  0  0  0
  6 18  1  0  0  0
 18 20  1  0  0  0
 20 21  2  0  0  0
 21 22  1  0  0  0
 22 23  2  0  0  0
 23 24  1  0  0  0
 24 25  2  0  0  0
 23 26  1  0  0  0
 26 27  1  0  0  0
 26 28  2  0  0  0
 26 29  2  0  0  0
  6  7  2  0  0  0
  7  8  1  0  0  0
  8  9  2  0  0  0
  9  1  1  0  0  0
  9  4  1  0  0  0
 25 20  1  0  0  0
 11 13  1  0  0  0
 11 14  1  0  0  0
 18 19  1  0  0  0
 27 30  1  0  0  0
 27 31  1  0  0  0
M  END
> <minimizedAffinity>
-7.56835

> <CNNscore>
0.2611329556

> <CNNaffinity>
6.1861777306

> <CNN_VS>
1.6154148579

> <CNNaffinity_variance>
0.0794223025

$$$$
[H]c1nc2c(nc1N([H])c1c([H])c([H])c(S(=O)(=O)N([H])[H])c([H])c1[H])c(C(=O)N([H])[H])nn2C([H])(C([H])([H])[H])C([H])([H])[H]


 31 33  0  0  0  0  0  0  0  0999 V2000
   -2.0455   22.6177  -27.1248 N   0  0  0  0  0  0  0  0  0  0  0  0
   -2.7114   23.2603  -28.0575 N   0  0  0  0  0  0  0  0  0  0  0  0
   -4.0076   23.4381  -27.6871 C   0  0  0  0  0  0  0  0  0  0  0  0
   -4.0904   22.8455  -26.4335 C   0  0  0  0  0  0  0  0  0  0  0  0
   -5.0992   22.7133  -25.5931 N   0  0  0  0  0  0  0  0  0  0  0  0
   -5.0099   22.0920  -24.3778 C   0  0  0  0  0  0  0  0  0  0  0  0
   -3.7719   21.5905  -24.0591 C   0  0  0  0  0  0  0  0  0  0  0  0
   -2.7248   21.7259  -24.9260 N   0  0  0  0  0  0  0  0  0  0  0  0
   -2.8595   22.3412  -26.1019 C   0  0  0  0  0  0  0  0  0  0  0  0
   -5.0525   24.1002  -28.4455 C   0  0  0  0  0  0  0  0  0  0  0  0
   -4.9601   25.4774  -28.7510 N   0  0  0  0  0  0  0  0  0  0  0  0
   -6.0431   23.4549  -28.8342 O   0  0  0  0  0  0  0  0  0  0  0  0
   -5.7343   26.1099  -28.4478 H   0  0  0  0  0  0  0  0  0  0  0  0
   -4.1395   25.8978  -29.2745 H   0  0  0  0  0  0  0  0  0  0  0  0
    0.1098   22.6116  -25.9553 C   0  0  0  0  0  0  0  0  0  0  0  0
   -0.6406   22.2823  -27.2354 C   0  0  0  0  0  0  0  0  0  0  0  0
   -0.0059   22.9308  -28.4207 C   0  0  0  0  0  0  0  0  0  0  0  0
   -6.1748   22.0039  -23.6138 N   0  0  0  0  0  0  0  0  0  0  0  0
   -6.4906   21.0179  -23.3107 H   0  0  0  0  0  0  0  0  0  0  0  0
   -7.0184   23.0516  -23.1696 C   0  0  0  0  0  0  0  0  0  0  0  0
   -7.3314   24.1928  -23.8596 C   0  0  0  0  0  0  0  0  0  0  0  0
   -8.1501   25.1950  -23.3254 C   0  0  0  0  0  0  0  0  0  0  0  0
   -8.6837   25.0714  -22.0639 C   0  0  0  0  0  0  0  0  0  0  0  0
   -8.3812   23.9340  -21.3593 C   0  0  0  0  0  0  0  0  0  0  0  0
   -7.5769   22.9492  -21.8825 C   0  0  0  0  0  0  0  0  0  0  0  0
   -9.6931   26.3476  -21.4530 S   0  0  0  0  0  0  0  0  0  0  0  0
  -10.5330   27.1809  -22.6837 N   0  0  0  0  0  0  0  0  0  0  0  0
   -8.8848   27.3694  -20.6793 O   0  0  0  0  0  0  0  0  0  0  0  0
  -10.6819   25.7682  -20.4866 O   0  0  0  0  0  0  0  0  0  0  0  0
  -10.1598   27.0287  -23.6382 H   0  0  0  0  0  0  0  0  0  0  0  0
  -11.5674   27.1143  -22.6096 H   0  0  0  0  0  0  0  0  0  0  0  0
 15 16  1  0  0  0
 16 17  1  0  0  0
 16  1  1  0  0  0
  1  2  1  0  0  0
  2  3  2  0  0  0
  3 10  1  0  0  0
 10 11  1  0  0  0
 10 12  2  0  0  0
  3  4  1  0  0  0
  4  5  2  0  0  0
  5  6  1  0  0  0
  6 18  1  0  0  0
 18 20  1  0  0  0
 20 21  2  0  0  0
 21 22  1  0  0  0
 22 23  2  0  0  0
 23 24  1  0  0  0
 24 25  2  0  0  0
 23 26  1  0  0  0
 26 27  1  0  0  0
 26 28  2  0  0  0
 26 29  2  0  0  0
  6  7  2  0  0  0
  7  8  1  0  0  0
  8  9  2  0  0  0
  9  1  1  0  0  0
  9  4  1  0  0  0
 25 20  1  0  0  0
 11 13  1  0  0  0
 11 14  1  0  0  0
 18 19  1  0  0  0
 27 30  1  0  0  0
 27 31  1  0  0  0
M  END
> <minimizedAffinity>
-8.06248

> <CNNscore>
0.1806033254

> <CNNaffinity>
6.0227637291

> <CNN_VS>
1.0877311230

> <CNNaffinity_variance>
0.3418750167

$$$$
[H]c1nc2c(nc1N([H])c1c([H])c([H])c(S(=O)(=O)N([H])[H])c([H])c1[H])c(C(=O)N([H])[H])nn2C([H])(C([H])([H])[H])C([H])([H])[H]


 31 33  0  0  0  0  0  0  0  0999 V2000
   -3.9981   23.2407  -27.7169 N   0  0  0  0  0  0  0  0  0  0  0  0
   -2.9484   22.6820  -27.1581 N   0  0  0  0  0  0  0  0  0  0  0  0
   -3.1324   22.5456  -25.8178 C   0  0  0  0  0  0  0  0  0  0  0  0
   -4.3974   23.0721  -25.5900 C   0  0  0  0  0  0  0  0  0  0  0  0
   -5.1032   23.2057  -24.4830 N   0  0  0  0  0  0  0  0  0  0  0  0
   -6.3549   23.7549  -24.4319 C   0  0  0  0  0  0  0  0  0  0  0  0
   -6.8645   24.1793  -25.6343 C   0  0  0  0  0  0  0  0  0  0  0  0
   -6.1374   24.0422  -26.7827 N   0  0  0  0  0  0  0  0  0  0  0  0
   -4.9191   23.4990  -26.7838 C   0  0  0  0  0  0  0  0  0  0  0  0
   -2.2036   21.9758  -24.8596 C   0  0  0  0  0  0  0  0  0  0  0  0
   -2.6231   21.6632  -23.5463 N   0  0  0  0  0  0  0  0  0  0  0  0
   -1.0240   21.7576  -25.1908 O   0  0  0  0  0  0  0  0  0  0  0  0
   -2.1135   22.0942  -22.7427 H   0  0  0  0  0  0  0  0  0  0  0  0
   -3.4325   21.0102  -23.3400 H   0  0  0  0  0  0  0  0  0  0  0  0
   -4.0475   25.0081  -29.4160 C   0  0  0  0  0  0  0  0  0  0  0  0
   -4.0951   23.5150  -29.1359 C   0  0  0  0  0  0  0  0  0  0  0  0
   -5.3054   22.8857  -29.7424 C   0  0  0  0  0  0  0  0  0  0  0  0
   -6.9618   23.8559  -23.1789 N   0  0  0  0  0  0  0  0  0  0  0  0
   -7.5854   24.7184  -23.0028 H   0  0  0  0  0  0  0  0  0  0  0  0
   -6.8726   22.9638  -22.0822 C   0  0  0  0  0  0  0  0  0  0  0  0
   -5.7234   22.4494  -21.5427 C   0  0  0  0  0  0  0  0  0  0  0  0
   -5.7325   21.5428  -20.4759 C   0  0  0  0  0  0  0  0  0  0  0  0
   -6.9171   21.1254  -19.9157 C   0  0  0  0  0  0  0  0  0  0  0  0
   -8.0777   21.6317  -20.4432 C   0  0  0  0  0  0  0  0  0  0  0  0
   -8.0701   22.5217  -21.4913 C   0  0  0  0  0  0  0  0  0  0  0  0
   -6.8669   19.9986  -18.5934 S   0  0  0  0  0  0  0  0  0  0  0  0
   -8.0002   18.7318  -18.7530 N   0  0  0  0  0  0  0  0  0  0  0  0
   -7.1346   20.6867  -17.2702 O   0  0  0  0  0  0  0  0  0  0  0  0
   -5.4882   19.4176  -18.4988 O   0  0  0  0  0  0  0  0  0  0  0  0
   -8.7502   18.9103  -19.4452 H   0  0  0  0  0  0  0  0  0  0  0  0
   -7.5724   17.7868  -18.8150 H   0  0  0  0  0  0  0  0  0  0  0  0
 15 16  1  0  0  0
 16 17  1  0  0  0
 16  1  1  0  0  0
  1  2  1  0  0  0
  2  3  2  0  0  0
  3 10  1  0  0  0
 10 11  1  0  0  0
 10 12  2  0  0  0
  3  4  1  0  0  0
  4  5  2  0  0  0
  5  6  1  0  0  0
  6 18  1  0  0  0
 18 20  1  0  0  0
 20 21  2  0  0  0
 21 22  1  0  0  0
 22 23  2  0  0  0
 23 24  1  0  0  0
 24 25  2  0  0  0
 23 26  1  0  0  0
 26 27  1  0  0  0
 26 28  2  0  0  0
 26 29  2  0  0  0
  6  7  2  0  0  0
  7  8  1  0  0  0
  8  9  2  0  0  0
  9  1  1  0  0  0
  9  4  1  0  0  0
 25 20  1  0  0  0
 11 13  1  0  0  0
 11 14  1  0  0  0
 18 19  1  0  0  0
 27 30  1  0  0  0
 27 31  1  0  0  0
M  END
> <minimizedAffinity>
-6.99489

> <CNNscore>
0.1673903167

> <CNNaffinity>
5.9830284119

> <CNN_VS>
1.0015009642

> <CNNaffinity_variance>
0.1795616001

$$$$
[H]OC(=O)[C@]1([H])O[C@@]([H])(n2c3c([H])c([H])c([H])c([H])c3c3c([H])c([H])c([H])c([H])c32)[C@]([H])(O[H])[C@]1([H])O[H]


 26 29  0  0  0  0  0  0  0  0999 V2000
   -2.4234   22.0975  -22.2983 C   0  0  0  0  0  0  0  0  0  0  0  0
   -2.1166   22.6442  -23.5128 O   0  0  0  0  0  0  0  0  0  0  0  0
   -3.2531   22.6381  -24.2879 C   0  0  0  0  0  0  0  0  0  0  0  0
   -3.8354   21.2611  -23.9668 C   0  0  0  0  0  0  0  0  0  0  0  0
   -5.1573   21.1568  -24.3438 O   0  0  0  0  0  0  0  0  0  0  0  0
   -3.6827   21.2886  -22.4389 C   0  0  0  0  0  0  0  0  0  0  0  0
   -4.8021   21.9588  -21.9582 O   0  0  0  0  0  0  0  0  0  0  0  0
   -5.7928   21.2800  -23.5951 H   0  0  0  0  0  0  0  0  0  0  0  0
   -4.7319   22.9396  -22.0571 H   0  0  0  0  0  0  0  0  0  0  0  0
   -3.0128   22.8256  -25.6792 N   0  0  0  0  0  0  0  0  0  0  0  0
   -1.8760   22.7280  -26.3688 C   0  0  0  0  0  0  0  0  0  0  0  0
   -0.6063   22.4259  -25.9852 C   0  0  0  0  0  0  0  0  0  0  0  0
    0.4174   22.3932  -26.9369 C   0  0  0  0  0  0  0  0  0  0  0  0
    0.1640   22.6601  -28.2492 C   0  0  0  0  0  0  0  0  0  0  0  0
   -1.1070   22.9666  -28.6578 C   0  0  0  0  0  0  0  0  0  0  0  0
   -2.0999   22.9941  -27.7100 C   0  0  0  0  0  0  0  0  0  0  0  0
   -3.4454   23.2675  -27.8375 C   0  0  0  0  0  0  0  0  0  0  0  0
   -4.2268   23.5949  -28.9196 C   0  0  0  0  0  0  0  0  0  0  0  0
   -5.5737   23.8243  -28.7823 C   0  0  0  0  0  0  0  0  0  0  0  0
   -6.1234   23.7156  -27.5156 C   0  0  0  0  0  0  0  0  0  0  0  0
   -5.3415   23.3875  -26.4301 C   0  0  0  0  0  0  0  0  0  0  0  0
   -3.9774   23.1554  -26.5704 C   0  0  0  0  0  0  0  0  0  0  0  0
   -3.1792   22.9310  -20.0294 O   0  0  0  0  0  0  0  0  0  0  0  0
   -2.5310   23.1264  -21.2357 C   0  0  0  0  0  0  0  0  0  0  0  0
   -1.9989   24.2427  -21.4492 O   0  0  0  0  0  0  0  0  0  0  0  0
   -3.8775   23.6048  -19.7413 H   0  0  0  0  0  0  0  0  0  0  0  0
 23 24  1  0  0  0
 24 25  2  0  0  0
 24  1  1  0  0  0
  1  2  1  0  0  0
  2  3  1  0  0  0
  3  4  1  0  0  0
  4  5  1  0  0  0
  4  6  1  0  0  0
  6  7  1  0  0  0
  3 10  1  0  0  0
 10 11  1  0  0  0
 11 12  2  0  0  0
 12 13  1  0  0  0
 13 14  2  0  0  0
 14 15  1  0  0  0
 15 16  2  0  0  0
 16 17  1  0  0  0
 17 18  2  0  0  0
 18 19  1  0  0  0
 19 20  2  0  0  0
 20 21  1  0  0  0
 21 22  2  0  0  0
  6  1  1  0  0  0
 22 10  1  0  0  0
 16 11  1  0  0  0
 22 17  1  0  0  0
 23 26  1  0  0  0
  5  8  1  0  0  0
  7  9  1  0  0  0
M  END
> <minimizedAffinity>
-8.73379

> <CNNscore>
0.4219139814

> <CNNaffinity>
5.0778465271

> <CNN_VS>
2.1424143314

> <CNNaffinity_variance>
0.1179923788

$$$$
[H]OC(=O)[C@]1([H])O[C@@]([H])(n2c3c([H])c([H])c([H])c([H])c3c3c([H])c([H])c([H])c([H])c32)[C@]([H])(O[H])[C@]1([H])O[H]


 26 29  0  0  0  0  0  0  0  0999 V2000
   -0.3410   20.3810  -20.6456 C   0  0  0  0  0  0  0  0  0  0  0  0
   -0.6929   20.4174  -21.9658 O   0  0  0  0  0  0  0  0  0  0  0  0
   -0.7882   21.7347  -22.3506 C   0  0  0  0  0  0  0  0  0  0  0  0
   -1.4938   22.3558  -21.1444 C   0  0  0  0  0  0  0  0  0  0  0  0
   -1.3856   23.7300  -21.1317 O   0  0  0  0  0  0  0  0  0  0  0  0
   -0.6625   21.7119  -20.0250 C   0  0  0  0  0  0  0  0  0  0  0  0
    0.4622   22.5160  -19.8778 O   0  0  0  0  0  0  0  0  0  0  0  0
   -0.6787   24.0653  -20.5255 H   0  0  0  0  0  0  0  0  0  0  0  0
    1.1417   22.3541  -20.5769 H   0  0  0  0  0  0  0  0  0  0  0  0
   -1.4961   21.9379  -23.5697 N   0  0  0  0  0  0  0  0  0  0  0  0
   -1.0315   22.1953  -24.7925 C   0  0  0  0  0  0  0  0  0  0  0  0
    0.2341   22.3448  -25.2683 C   0  0  0  0  0  0  0  0  0  0  0  0
    0.4385   22.6160  -26.6246 C   0  0  0  0  0  0  0  0  0  0  0  0
   -0.6138   22.7339  -27.4827 C   0  0  0  0  0  0  0  0  0  0  0  0
   -1.8966   22.5873  -27.0254 C   0  0  0  0  0  0  0  0  0  0  0  0
   -2.0788   22.3212  -25.6908 C   0  0  0  0  0  0  0  0  0  0  0  0
   -3.2394   22.1294  -24.9714 C   0  0  0  0  0  0  0  0  0  0  0  0
   -4.5658   22.1386  -25.3310 C   0  0  0  0  0  0  0  0  0  0  0  0
   -5.5561   21.9150  -24.4065 C   0  0  0  0  0  0  0  0  0  0  0  0
   -5.1768   21.6790  -23.0953 C   0  0  0  0  0  0  0  0  0  0  0  0
   -3.8478   21.6695  -22.7334 C   0  0  0  0  0  0  0  0  0  0  0  0
   -2.8457   21.8961  -23.6707 C   0  0  0  0  0  0  0  0  0  0  0  0
    2.0634   20.1796  -21.4152 O   0  0  0  0  0  0  0  0  0  0  0  0
    1.0803   20.0013  -20.4585 C   0  0  0  0  0  0  0  0  0  0  0  0
    1.4064   19.4862  -19.3616 O   0  0  0  0  0  0  0  0  0  0  0  0
    2.6411   19.3878  -21.6678 H   0  0  0  0  0  0  0  0  0  0  0  0
 23 24  1  0  0  0
 24 25  2  0  0  0
 24  1  1  0  0  0
  1  2  1  0  0  0
  2  3  1  0  0  0
  3  4  1  0  0  0
  4  5  1  0  0  0
  4  6  1  0  0  0
  6  7  1  0  0  0
  3 10  1  0  0  0
 10 11  1  0  0  0
 11 12  2  0  0  0
 12 13  1  0  0  0
 13 14  2  0  0  0
 14 15  1  0  0  0
 15 16  2  0  0  0
 16 17  1  0  0  0
 17 18  2  0  0  0
 18 19  1  0  0  0
 19 20  2  0  0  0
 20 21  1  0  0  0
 21 22  2  0  0  0
  6  1  1  0  0  0
 22 10  1  0  0  0
 16 11  1  0  0  0
 22 17  1  0  0  0
 23 26  1  0  0  0
  5  8  1  0  0  0
  7  9  1  0  0  0
M  END
> <minimizedAffinity>
-8.00321

> <CNNscore>
0.3782816529

> <CNNaffinity>
4.6383328438

> <CNN_VS>
1.7545962334

> <CNNaffinity_variance>
0.1078755409

$$$$
[H]OC(=O)[C@]1([H])O[C@@]([H])(n2c3c([H])c([H])c([H])c([H])c3c3c([H])c([H])c([H])c([H])c32)[C@]([H])(O[H])[C@]1([H])O[H]


 26 29  0  0  0  0  0  0  0  0999 V2000
   -0.2736   20.4231  -20.6438 C   0  0  0  0  0  0  0  0  0  0  0  0
   -0.7145   20.4534  -21.9371 O   0  0  0  0  0  0  0  0  0  0  0  0
   -0.8771   21.7684  -22.3067 C   0  0  0  0  0  0  0  0  0  0  0  0
   -1.5194   22.3619  -21.0521 C   0  0  0  0  0  0  0  0  0  0  0  0
   -1.4542   23.7388  -21.0384 O   0  0  0  0  0  0  0  0  0  0  0  0
   -0.5948   21.7406  -19.9949 C   0  0  0  0  0  0  0  0  0  0  0  0
    0.5112   22.5798  -19.9186 O   0  0  0  0  0  0  0  0  0  0  0  0
   -0.7192   24.0942  -20.4790 H   0  0  0  0  0  0  0  0  0  0  0  0
    1.1471   22.4424  -20.6626 H   0  0  0  0  0  0  0  0  0  0  0  0
   -1.6714   21.9537  -23.4743 N   0  0  0  0  0  0  0  0  0  0  0  0
   -2.9976   21.9642  -23.6105 C   0  0  0  0  0  0  0  0  0  0  0  0
   -4.0027   21.8065  -22.7074 C   0  0  0  0  0  0  0  0  0  0  0  0
   -5.3334   21.8646  -23.1324 C   0  0  0  0  0  0  0  0  0  0  0  0
   -5.6427   22.0776  -24.4426 C   0  0  0  0  0  0  0  0  0  0  0  0
   -4.6468   22.2390  -25.3691 C   0  0  0  0  0  0  0  0  0  0  0  0
   -3.3458   22.1791  -24.9342 C   0  0  0  0  0  0  0  0  0  0  0  0
   -2.1656   22.3052  -25.6360 C   0  0  0  0  0  0  0  0  0  0  0  0
   -1.8961   22.5265  -26.9653 C   0  0  0  0  0  0  0  0  0  0  0  0
   -0.6054   22.6138  -27.4256 C   0  0  0  0  0  0  0  0  0  0  0  0
    0.4210   22.4716  -26.5064 C   0  0  0  0  0  0  0  0  0  0  0  0
    0.1525   22.2498  -25.1737 C   0  0  0  0  0  0  0  0  0  0  0  0
   -1.1553   22.1615  -24.7088 C   0  0  0  0  0  0  0  0  0  0  0  0
    1.9974   19.9310  -21.6508 O   0  0  0  0  0  0  0  0  0  0  0  0
    1.1683   20.0884  -20.5547 C   0  0  0  0  0  0  0  0  0  0  0  0
    1.6626   19.9396  -19.4108 O   0  0  0  0  0  0  0  0  0  0  0  0
    2.5508   19.0864  -21.7208 H   0  0  0  0  0  0  0  0  0  0  0  0
 23 24  1  0  0  0
 24 25  2  0  0  0
 24  1  1  0  0  0
  1  2  1  0  0  0
  2  3  1  0  0  0
  3  4  1  0  0  0
  4  5  1  0  0  0
  4  6  1  0  0  0
  6  7  1  0  0  0
  3 10  1  0  0  0
 10 11  1  0  0  0
 11 12  2  0  0  0
 12 13  1  0  0  0
 13 14  2  0  0  0
 14 15  1  0  0  0
 15 16  2  0  0  0
 16 17  1  0  0  0
 17 18  2  0  0  0
 18 19  1  0  0  0
 19 20  2  0  0  0
 20 21  1  0  0  0
 21 22  2  0  0  0
  6  1  1  0  0  0
 22 10  1  0  0  0
 16 11  1  0  0  0
 22 17  1  0  0  0
 23 26  1  0  0  0
  5  8  1  0  0  0
  7  9  1  0  0  0
M  END
> <minimizedAffinity>
-7.95573

> <CNNscore>
0.3562107980

> <CNNaffinity>
4.5801377296

> <CNN_VS>
1.6314945221

> <CNNaffinity_variance>
0.1267932355

$$$$
[H]OC(=O)[C@]1([H])O[C@@]([H])(n2c3c([H])c([H])c([H])c([H])c3c3c([H])c([H])c([H])c([H])c32)[C@]([H])(O[H])[C@]1([H])O[H]


 26 29  0  0  0  0  0  0  0  0999 V2000
   -3.6350   23.0780  -21.9313 C   0  0  0  0  0  0  0  0  0  0  0  0
   -3.2563   23.5009  -23.1746 O   0  0  0  0  0  0  0  0  0  0  0  0
   -3.9652   22.7821  -24.1091 C   0  0  0  0  0  0  0  0  0  0  0  0
   -3.9209   21.3753  -23.5113 C   0  0  0  0  0  0  0  0  0  0  0  0
   -4.8618   20.5418  -24.0775 O   0  0  0  0  0  0  0  0  0  0  0  0
   -4.2741   21.7232  -22.0577 C   0  0  0  0  0  0  0  0  0  0  0  0
   -5.6624   21.7831  -22.0090 O   0  0  0  0  0  0  0  0  0  0  0  0
   -5.6781   20.4363  -23.5281 H   0  0  0  0  0  0  0  0  0  0  0  0
   -6.0215   22.6274  -22.3764 H   0  0  0  0  0  0  0  0  0  0  0  0
   -3.4238   22.8404  -25.4252 N   0  0  0  0  0  0  0  0  0  0  0  0
   -4.0303   23.0882  -26.5863 C   0  0  0  0  0  0  0  0  0  0  0  0
   -5.3280   23.3595  -26.8912 C   0  0  0  0  0  0  0  0  0  0  0  0
   -5.6964   23.5843  -28.2211 C   0  0  0  0  0  0  0  0  0  0  0  0
   -4.7731   23.5359  -29.2225 C   0  0  0  0  0  0  0  0  0  0  0  0
   -3.4609   23.2644  -28.9384 C   0  0  0  0  0  0  0  0  0  0  0  0
   -3.1169   23.0463  -27.6273 C   0  0  0  0  0  0  0  0  0  0  0  0
   -1.8918   22.7575  -27.0643 C   0  0  0  0  0  0  0  0  0  0  0  0
   -0.6384   22.5944  -27.6038 C   0  0  0  0  0  0  0  0  0  0  0  0
    0.4456   22.3040  -26.8125 C   0  0  0  0  0  0  0  0  0  0  0  0
    0.2372   22.1797  -25.4488 C   0  0  0  0  0  0  0  0  0  0  0  0
   -1.0185   22.3429  -24.9065 C   0  0  0  0  0  0  0  0  0  0  0  0
   -2.1155   22.6370  -25.7091 C   0  0  0  0  0  0  0  0  0  0  0  0
   -4.7927   25.3226  -21.7438 O   0  0  0  0  0  0  0  0  0  0  0  0
   -4.5204   24.0572  -21.2557 C   0  0  0  0  0  0  0  0  0  0  0  0
   -5.0537   23.7113  -20.1736 O   0  0  0  0  0  0  0  0  0  0  0  0
   -4.6600   26.1163  -21.1297 H   0  0  0  0  0  0  0  0  0  0  0  0
 23 24  1  0  0  0
 24 25  2  0  0  0
 24  1  1  0  0  0
  1  2  1  0  0  0
  2  3  1  0  0  0
  3  4  1  0  0  0
  4  5  1  0  0  0
  4  6  1  0  0  0
  6  7  1  0  0  0
  3 10  1  0  0  0
 10 11  1  0  0  0
 11 12  2  0  0  0
 12 13  1  0  0  0
 13 14  2  0  0  0
 14 15  1  0  0  0
 15 16  2  0  0  0
 16 17  1  0  0  0
 17 18  2  0  0  0
 18 19  1  0  0  0
 19 20  2  0  0  0
 20 21  1  0  0  0
 21 22  2  0  0  0
  6  1  1  0  0  0
 22 10  1  0  0  0
 16 11  1  0  0  0
 22 17  1  0  0  0
 23 26  1  0  0  0
  5  8  1  0  0  0
  7  9  1  0  0  0
M  END
> <minimizedAffinity>
-9.43624

> <CNNscore>
0.2934845388

> <CNNaffinity>
4.7671332359

> <CNN_VS>
1.3990799189

> <CNNaffinity_variance>
0.2446719110

$$$$
[H]OC(=O)[C@]1([H])O[C@@]([H])(n2c3c([H])c([H])c([H])c([H])c3c3c([H])c([H])c([H])c([H])c32)[C@]([H])(O[H])[C@]1([H])O[H]


 26 29  0  0  0  0  0  0  0  0999 V2000
   -5.6372   22.6834  -22.5807 C   0  0  0  0  0  0  0  0  0  0  0  0
   -4.9217   22.2332  -23.6546 O   0  0  0  0  0  0  0  0  0  0  0  0
   -3.8975   23.1201  -23.8929 C   0  0  0  0  0  0  0  0  0  0  0  0
   -4.6026   24.4625  -23.6949 C   0  0  0  0  0  0  0  0  0  0  0  0
   -3.7080   25.4982  -23.5286 O   0  0  0  0  0  0  0  0  0  0  0  0
   -5.3527   24.1475  -22.3924 C   0  0  0  0  0  0  0  0  0  0  0  0
   -4.4458   24.3855  -21.3657 O   0  0  0  0  0  0  0  0  0  0  0  0
   -3.5745   25.7571  -22.5827 H   0  0  0  0  0  0  0  0  0  0  0  0
   -3.7933   23.6516  -21.2545 H   0  0  0  0  0  0  0  0  0  0  0  0
   -3.3020   22.9934  -25.1805 N   0  0  0  0  0  0  0  0  0  0  0  0
   -2.0419   22.7129  -25.5132 C   0  0  0  0  0  0  0  0  0  0  0  0
   -0.9393   22.4619  -24.7570 C   0  0  0  0  0  0  0  0  0  0  0  0
    0.2829   22.1913  -25.3798 C   0  0  0  0  0  0  0  0  0  0  0  0
    0.3893   22.1746  -26.7385 C   0  0  0  0  0  0  0  0  0  0  0  0
   -0.7078   22.4246  -27.5195 C   0  0  0  0  0  0  0  0  0  0  0  0
   -1.8998   22.6883  -26.8912 C   0  0  0  0  0  0  0  0  0  0  0  0
   -3.1420   22.9694  -27.4199 C   0  0  0  0  0  0  0  0  0  0  0  0
   -3.5970   23.0782  -28.7120 C   0  0  0  0  0  0  0  0  0  0  0  0
   -4.9104   23.3740  -28.9823 C   0  0  0  0  0  0  0  0  0  0  0  0
   -5.7664   23.5601  -27.9092 C   0  0  0  0  0  0  0  0  0  0  0  0
   -5.3118   23.4513  -26.6136 C   0  0  0  0  0  0  0  0  0  0  0  0
   -3.9813   23.1518  -26.3412 C   0  0  0  0  0  0  0  0  0  0  0  0
   -4.1740   21.2223  -21.1184 O   0  0  0  0  0  0  0  0  0  0  0  0
   -5.3597   21.8940  -21.3563 C   0  0  0  0  0  0  0  0  0  0  0  0
   -6.2604   21.8348  -20.4844 O   0  0  0  0  0  0  0  0  0  0  0  0
   -4.2160   20.2440  -20.8620 H   0  0  0  0  0  0  0  0  0  0  0  0
 23 24  1  0  0  0
 24 25  2  0  0  0
 24  1  1  0  0  0
  1  2  1  0  0  0
  2  3  1  0  0  0
  3  4  1  0  0  0
  4  5  1  0  0  0
  4  6  1  0  0  0
  6  7  1  0  0  0
  3 10  1  0  0  0
 10 11  1  0  0  0
 11 12  2  0  0  0
 12 13  1  0  0  0
 13 14  2  0  0  0
 14 15  1  0  0  0
 15 16  2  0  0  0
 16 17  1  0  0  0
 17 18  2  0  0  0
 18 19  1  0  0  0
 19 20  2  0  0  0
 20 21  1  0  0  0
 21 22  2  0  0  0
  6  1  1  0  0  0
 22 10  1  0  0  0
 16 11  1  0  0  0
 22 17  1  0  0  0
 23 26  1  0  0  0
  5  8  1  0  0  0
  7  9  1  0  0  0
M  END
> <minimizedAffinity>
-9.30593

> <CNNscore>
0.2929675877

> <CNNaffinity>
4.8514008522

> <CNN_VS>
1.4213031530

> <CNNaffinity_variance>
0.1709417403

$$$$
[H]OC(=O)[C@]1([H])O[C@@]([H])(n2c3c([H])c([H])c([H])c([H])c3c3c([H])c([H])c([H])c([H])c32)[C@]([H])(O[H])[C@]1([H])O[H]


 26 29  0  0  0  0  0  0  0  0999 V2000
   -5.6859   22.7580  -22.5717 C   0  0  0  0  0  0  0  0  0  0  0  0
   -5.0226   22.3005  -23.6757 O   0  0  0  0  0  0  0  0  0  0  0  0
   -3.9976   23.1742  -23.9557 C   0  0  0  0  0  0  0  0  0  0  0  0
   -4.6756   24.5255  -23.7260 C   0  0  0  0  0  0  0  0  0  0  0  0
   -3.7610   25.5488  -23.5960 O   0  0  0  0  0  0  0  0  0  0  0  0
   -5.3741   24.2178  -22.3934 C   0  0  0  0  0  0  0  0  0  0  0  0
   -4.4215   24.4415  -21.4056 O   0  0  0  0  0  0  0  0  0  0  0  0
   -3.5841   25.8039  -22.6563 H   0  0  0  0  0  0  0  0  0  0  0  0
   -3.7748   23.6987  -21.3233 H   0  0  0  0  0  0  0  0  0  0  0  0
   -3.4589   23.0423  -25.2676 N   0  0  0  0  0  0  0  0  0  0  0  0
   -4.0574   23.1709  -26.4519 C   0  0  0  0  0  0  0  0  0  0  0  0
   -5.3422   23.4620  -26.7912 C   0  0  0  0  0  0  0  0  0  0  0  0
   -5.7046   23.5356  -28.1396 C   0  0  0  0  0  0  0  0  0  0  0  0
   -4.7882   23.3196  -29.1250 C   0  0  0  0  0  0  0  0  0  0  0  0
   -3.4890   23.0250  -28.8063 C   0  0  0  0  0  0  0  0  0  0  0  0
   -3.1507   22.9568  -27.4774 C   0  0  0  0  0  0  0  0  0  0  0  0
   -1.9382   22.6840  -26.8800 C   0  0  0  0  0  0  0  0  0  0  0  0
   -0.6957   22.3966  -27.3922 C   0  0  0  0  0  0  0  0  0  0  0  0
    0.3764   22.1574  -26.5684 C   0  0  0  0  0  0  0  0  0  0  0  0
    0.1674   22.2144  -25.2003 C   0  0  0  0  0  0  0  0  0  0  0  0
   -1.0773   22.5023  -24.6854 C   0  0  0  0  0  0  0  0  0  0  0  0
   -2.1625   22.7444  -25.5209 C   0  0  0  0  0  0  0  0  0  0  0  0
   -4.1891   21.2605  -21.1822 O   0  0  0  0  0  0  0  0  0  0  0  0
   -5.3676   21.9624  -21.3614 C   0  0  0  0  0  0  0  0  0  0  0  0
   -6.2244   21.9269  -20.4452 O   0  0  0  0  0  0  0  0  0  0  0  0
   -4.2432   20.2837  -20.9222 H   0  0  0  0  0  0  0  0  0  0  0  0
 23 24  1  0  0  0
 24 25  2  0  0  0
 24  1  1  0  0  0
  1  2  1  0  0  0
  2  3  1  0  0  0
  3  4  1  0  0  0
  4  5  1  0  0  0
  4  6  1  0  0  0
  6  7  1  0  0  0
  3 10  1  0  0  0
 10 11  1  0  0  0
 11 12  2  0  0  0
 12 13  1  0  0  0
 13 14  2  0  0  0
 14 15  1  0  0  0
 15 16  2  0  0  0
 16 17  1  0  0  0
 17 18  2  0  0  0
 18 19  1  0  0  0
 19 20  2  0  0  0
 20 21  1  0  0  0
 21 22  2  0  0  0
  6  1  1  0  0  0
 22 10  1  0  0  0
 16 11  1  0  0  0
 22 17  1  0  0  0
 23 26  1  0  0  0
  5  8  1  0  0  0
  7  9  1  0  0  0
M  END
> <minimizedAffinity>
-9.30353

> <CNNscore>
0.2871266901

> <CNNaffinity>
4.8547849655

> <CNN_VS>
1.3939383030

> <CNNaffinity_variance>
0.1804991513

$$$$
[H]OC(=O)[C@]1([H])O[C@@]([H])(n2c3c([H])c([H])c([H])c([H])c3c3c([H])c([H])c([H])c([H])c32)[C@]([H])(O[H])[C@]1([H])O[H]


 26 29  0  0  0  0  0  0  0  0999 V2000
   -2.6838   22.2778  -21.0773 C   0  0  0  0  0  0  0  0  0  0  0  0
   -2.4328   22.8206  -22.3063 O   0  0  0  0  0  0  0  0  0  0  0  0
   -3.5598   23.4929  -22.7191 C   0  0  0  0  0  0  0  0  0  0  0  0
   -4.6657   22.5247  -22.2974 C   0  0  0  0  0  0  0  0  0  0  0  0
   -5.9046   23.1290  -22.2795 O   0  0  0  0  0  0  0  0  0  0  0  0
   -4.1722   22.2028  -20.8792 C   0  0  0  0  0  0  0  0  0  0  0  0
   -4.6533   23.2255  -20.0693 O   0  0  0  0  0  0  0  0  0  0  0  0
   -6.1978   23.4029  -21.3748 H   0  0  0  0  0  0  0  0  0  0  0  0
   -4.1221   24.0554  -20.1458 H   0  0  0  0  0  0  0  0  0  0  0  0
   -3.5864   23.7893  -24.1120 N   0  0  0  0  0  0  0  0  0  0  0  0
   -3.0141   23.1481  -25.1311 C   0  0  0  0  0  0  0  0  0  0  0  0
   -2.2383   22.0317  -25.1786 C   0  0  0  0  0  0  0  0  0  0  0  0
   -1.7622   21.5689  -26.4091 C   0  0  0  0  0  0  0  0  0  0  0  0
   -2.0634   22.2203  -27.5677 C   0  0  0  0  0  0  0  0  0  0  0  0
   -2.8429   23.3463  -27.5434 C   0  0  0  0  0  0  0  0  0  0  0  0
   -3.3018   23.7866  -26.3266 C   0  0  0  0  0  0  0  0  0  0  0  0
   -4.0910   24.8729  -26.0125 C   0  0  0  0  0  0  0  0  0  0  0  0
   -4.6686   25.8534  -26.7829 C   0  0  0  0  0  0  0  0  0  0  0  0
   -5.4271   26.8489  -26.2180 C   0  0  0  0  0  0  0  0  0  0  0  0
   -5.5933   26.8353  -24.8430 C   0  0  0  0  0  0  0  0  0  0  0  0
   -5.0149   25.8532  -24.0694 C   0  0  0  0  0  0  0  0  0  0  0  0
   -4.2469   24.8455  -24.6428 C   0  0  0  0  0  0  0  0  0  0  0  0
   -2.3587   22.9389  -18.6543 O   0  0  0  0  0  0  0  0  0  0  0  0
   -2.0081   23.0258  -19.9896 C   0  0  0  0  0  0  0  0  0  0  0  0
   -1.0591   23.7837  -20.3057 O   0  0  0  0  0  0  0  0  0  0  0  0
   -2.5366   23.7953  -18.1448 H   0  0  0  0  0  0  0  0  0  0  0  0
 23 24  1  0  0  0
 24 25  2  0  0  0
 24  1  1  0  0  0
  1  2  1  0  0  0
  2  3  1  0  0  0
  3  4  1  0  0  0
  4  5  1  0  0  0
  4  6  1  0  0  0
  6  7  1  0  0  0
  3 10  1  0  0  0
 10 11  1  0  0  0
 11 12  2  0  0  0
 12 13  1  0  0  0
 13 14  2  0  0  0
 14 15  1  0  0  0
 15 16  2  0  0  0
 16 17  1  0  0  0
 17 18  2  0  0  0
 18 19  1  0  0  0
 19 20  2  0  0  0
 20 21  1  0  0  0
 21 22  2  0  0  0
  6  1  1  0  0  0
 22 10  1  0  0  0
 16 11  1  0  0  0
 22 17  1  0  0  0
 23 26  1  0  0  0
  5  8  1  0  0  0
  7  9  1  0  0  0
M  END
> <minimizedAffinity>
-8.08495

> <CNNscore>
0.2689928710

> <CNNaffinity>
4.7155418396

> <CNN_VS>
1.2684471607

> <CNNaffinity_variance>
0.1808167845

$$$$
[H]OC(=O)[C@]1([H])O[C@@]([H])(n2c3c([H])c([H])c([H])c([H])c3c3c([H])c([H])c([H])c([H])c32)[C@]([H])(O[H])[C@]1([H])O[H]


 26 29  0  0  0  0  0  0  0  0999 V2000
   -2.2195   21.5681  -21.8070 C   0  0  0  0  0  0  0  0  0  0  0  0
   -2.2272   21.5032  -23.1721 O   0  0  0  0  0  0  0  0  0  0  0  0
   -2.1616   22.7857  -23.6652 C   0  0  0  0  0  0  0  0  0  0  0  0
   -3.1173   23.5238  -22.7269 C   0  0  0  0  0  0  0  0  0  0  0  0
   -2.9519   24.8910  -22.7893 O   0  0  0  0  0  0  0  0  0  0  0  0
   -2.6241   22.9542  -21.3887 C   0  0  0  0  0  0  0  0  0  0  0  0
   -1.5360   23.7380  -21.0212 O   0  0  0  0  0  0  0  0  0  0  0  0
   -2.4048   25.2571  -22.0503 H   0  0  0  0  0  0  0  0  0  0  0  0
   -0.7112   23.5004  -21.5111 H   0  0  0  0  0  0  0  0  0  0  0  0
   -2.5309   22.9049  -25.0356 N   0  0  0  0  0  0  0  0  0  0  0  0
   -3.7347   23.0760  -25.5823 C   0  0  0  0  0  0  0  0  0  0  0  0
   -4.9728   23.1905  -25.0304 C   0  0  0  0  0  0  0  0  0  0  0  0
   -6.0875   23.3667  -25.8559 C   0  0  0  0  0  0  0  0  0  0  0  0
   -5.9543   23.4261  -27.2110 C   0  0  0  0  0  0  0  0  0  0  0  0
   -4.7173   23.3131  -27.7883 C   0  0  0  0  0  0  0  0  0  0  0  0
   -3.6339   23.1406  -26.9627 C   0  0  0  0  0  0  0  0  0  0  0  0
   -2.2962   23.0007  -27.2664 C   0  0  0  0  0  0  0  0  0  0  0  0
   -1.6123   22.9865  -28.4583 C   0  0  0  0  0  0  0  0  0  0  0  0
   -0.2487   22.8289  -28.4955 C   0  0  0  0  0  0  0  0  0  0  0  0
    0.4195   22.6840  -27.2908 C   0  0  0  0  0  0  0  0  0  0  0  0
   -0.2646   22.6980  -26.0954 C   0  0  0  0  0  0  0  0  0  0  0  0
   -1.6456   22.8577  -26.0591 C   0  0  0  0  0  0  0  0  0  0  0  0
    0.2754   21.1573  -21.9513 O   0  0  0  0  0  0  0  0  0  0  0  0
   -0.9097   21.1681  -21.2378 C   0  0  0  0  0  0  0  0  0  0  0  0
   -0.8801   20.8185  -20.0329 O   0  0  0  0  0  0  0  0  0  0  0  0
    0.8356   20.3142  -21.9448 H   0  0  0  0  0  0  0  0  0  0  0  0
 23 24  1  0  0  0
 24 25  2  0  0  0
 24  1  1  0  0  0
  1  2  1  0  0  0
  2  3  1  0  0  0
  3  4  1  0  0  0
  4  5  1  0  0  0
  4  6  1  0  0  0
  6  7  1  0  0  0
  3 10  1  0  0  0
 10 11  1  0  0  0
 11 12  2  0  0  0
 12 13  1  0  0  0
 13 14  2  0  0  0
 14 15  1  0  0  0
 15 16  2  0  0  0
 16 17  1  0  0  0
 17 18  2  0  0  0
 18 19  1  0  0  0
 19 20  2  0  0  0
 20 21  1  0  0  0
 21 22  2  0  0  0
  6  1  1  0  0  0
 22 10  1  0  0  0
 16 11  1  0  0  0
 22 17  1  0  0  0
 23 26  1  0  0  0
  5  8  1  0  0  0
  7  9  1  0  0  0
M  END
> <minimizedAffinity>
-8.37783

> <CNNscore>
0.2670198977

> <CNNaffinity>
4.6562876701

> <CNN_VS>
1.2433214188

> <CNNaffinity_variance>
0.2314386666

$$$$
[H]OC(=O)[C@]1([H])O[C@@]([H])(n2c3c([H])c([H])c([H])c([H])c3c3c([H])c([H])c([H])c([H])c32)[C@]([H])(O[H])[C@]1([H])O[H]


 26 29  0  0  0  0  0  0  0  0999 V2000
   -4.5977   23.2751  -22.1186 C   0  0  0  0  0  0  0  0  0  0  0  0
   -3.3961   23.4406  -22.7486 O   0  0  0  0  0  0  0  0  0  0  0  0
   -3.3726   22.6226  -23.8543 C   0  0  0  0  0  0  0  0  0  0  0  0
   -4.0078   21.3451  -23.3037 C   0  0  0  0  0  0  0  0  0  0  0  0
   -4.4220   20.4975  -24.3089 O   0  0  0  0  0  0  0  0  0  0  0  0
   -5.1992   21.9714  -22.5642 C   0  0  0  0  0  0  0  0  0  0  0  0
   -6.1920   22.1433  -23.5223 O   0  0  0  0  0  0  0  0  0  0  0  0
   -5.3918   20.5531  -24.4982 H   0  0  0  0  0  0  0  0  0  0  0  0
   -6.0372   22.9335  -24.0954 H   0  0  0  0  0  0  0  0  0  0  0  0
   -2.0723   22.4052  -24.3932 N   0  0  0  0  0  0  0  0  0  0  0  0
   -1.6255   22.5766  -25.6375 C   0  0  0  0  0  0  0  0  0  0  0  0
   -2.2436   23.0033  -26.7717 C   0  0  0  0  0  0  0  0  0  0  0  0
   -1.5210   23.0905  -27.9655 C   0  0  0  0  0  0  0  0  0  0  0  0
   -0.2013   22.7535  -28.0128 C   0  0  0  0  0  0  0  0  0  0  0  0
    0.4413   22.3214  -26.8830 C   0  0  0  0  0  0  0  0  0  0  0  0
   -0.2835   22.2420  -25.7196 C   0  0  0  0  0  0  0  0  0  0  0  0
    0.1014   21.8467  -24.4558 C   0  0  0  0  0  0  0  0  0  0  0  0
    1.3009   21.4117  -23.9452 C   0  0  0  0  0  0  0  0  0  0  0  0
    1.4296   21.0700  -22.6215 C   0  0  0  0  0  0  0  0  0  0  0  0
    0.3099   21.1772  -21.8131 C   0  0  0  0  0  0  0  0  0  0  0  0
   -0.8929   21.6130  -22.3235 C   0  0  0  0  0  0  0  0  0  0  0  0
   -1.0220   21.9588  -23.6643 C   0  0  0  0  0  0  0  0  0  0  0  0
   -5.1756   25.5425  -23.0875 O   0  0  0  0  0  0  0  0  0  0  0  0
   -5.5089   24.4226  -22.3470 C   0  0  0  0  0  0  0  0  0  0  0  0
   -6.6530   24.3695  -21.8341 O   0  0  0  0  0  0  0  0  0  0  0  0
   -5.3101   26.4551  -22.6706 H   0  0  0  0  0  0  0  0  0  0  0  0
 23 24  1  0  0  0
 24 25  2  0  0  0
 24  1  1  0  0  0
  1  2  1  0  0  0
  2  3  1  0  0  0
  3  4  1  0  0  0
  4  5  1  0  0  0
  4  6  1  0  0  0
  6  7  1  0  0  0
  3 10  1  0  0  0
 10 11  1  0  0  0
 11 12  2  0  0  0
 12 13  1  0  0  0
 13 14  2  0  0  0
 14 15  1  0  0  0
 15 16  2  0  0  0
 16 17  1  0  0  0
 17 18  2  0  0  0
 18 19  1  0  0  0
 19 20  2  0  0  0
 20 21  1  0  0  0
 21 22  2  0  0  0
  6  1  1  0  0  0
 22 10  1  0  0  0
 16 11  1  0  0  0
 22 17  1  0  0  0
 23 26  1  0  0  0
  5  8  1  0  0  0
  7  9  1  0  0  0
M  END
> <minimizedAffinity>
-8.43949

> <CNNscore>
0.2612777352

> <CNNaffinity>
4.5044150352

> <CNN_VS>
1.1769033670

> <CNNaffinity_variance>
0.2228168249

$$$$
[H]c1c([H])c(-c2c([H])c(C(F)(F)F)c([H])c(C(F)(F)F)c2[H])c([H])c([H])c1C(=O)N([H])c1c([H])c([H])c(C(F)(F)F)c(C(F)(F)F)c1[H]


 38 40  0  0  0  0  0  0  0  0999 V2000
   -3.8181   22.1820  -24.4603 C   0  0  0  0  0  0  0  0  0  0  0  0
   -2.9286   22.0584  -23.3938 C   0  0  0  0  0  0  0  0  0  0  0  0
   -3.2897   21.8429  -22.1047 C   0  0  0  0  0  0  0  0  0  0  0  0
   -4.6627   21.7388  -21.8303 C   0  0  0  0  0  0  0  0  0  0  0  0
   -5.5555   21.8495  -22.8275 C   0  0  0  0  0  0  0  0  0  0  0  0
   -5.1605   22.0754  -24.1768 C   0  0  0  0  0  0  0  0  0  0  0  0
   -3.2773   22.4466  -25.7918 C   0  0  0  0  0  0  0  0  0  0  0  0
   -4.1796   22.7166  -26.8325 C   0  0  0  0  0  0  0  0  0  0  0  0
   -3.7653   23.0129  -28.1084 C   0  0  0  0  0  0  0  0  0  0  0  0
   -2.4289   23.0598  -28.4156 C   0  0  0  0  0  0  0  0  0  0  0  0
   -1.5208   22.7959  -27.4004 C   0  0  0  0  0  0  0  0  0  0  0  0
   -1.9610   22.4937  -26.1055 C   0  0  0  0  0  0  0  0  0  0  0  0
   -4.7982   23.3021  -29.1655 C   0  0  0  0  0  0  0  0  0  0  0  0
   -4.3627   24.4274  -29.8842 F   0  0  0  0  0  0  0  0  0  0  0  0
   -4.8027   22.2356  -30.0331 F   0  0  0  0  0  0  0  0  0  0  0  0
   -6.0218   23.5488  -28.6192 F   0  0  0  0  0  0  0  0  0  0  0  0
   -0.0697   22.8413  -27.7247 C   0  0  0  0  0  0  0  0  0  0  0  0
    0.6274   23.6457  -26.8329 F   0  0  0  0  0  0  0  0  0  0  0  0
    0.4359   21.5717  -27.7857 F   0  0  0  0  0  0  0  0  0  0  0  0
   -0.0097   23.4241  -29.0061 F   0  0  0  0  0  0  0  0  0  0  0  0
   -5.0002   21.5714  -20.3842 C   0  0  0  0  0  0  0  0  0  0  0  0
   -5.9480   22.2199  -19.9617 O   0  0  0  0  0  0  0  0  0  0  0  0
   -4.1896   20.6764  -19.6768 N   0  0  0  0  0  0  0  0  0  0  0  0
   -3.4004   20.2315  -20.2615 H   0  0  0  0  0  0  0  0  0  0  0  0
   -4.2363   20.2752  -18.3492 C   0  0  0  0  0  0  0  0  0  0  0  0
   -3.3931   20.7275  -17.3899 C   0  0  0  0  0  0  0  0  0  0  0  0
   -3.4590   20.3357  -16.0249 C   0  0  0  0  0  0  0  0  0  0  0  0
   -4.4157   19.4546  -15.6202 C   0  0  0  0  0  0  0  0  0  0  0  0
   -5.2931   18.9867  -16.6249 C   0  0  0  0  0  0  0  0  0  0  0  0
   -5.2096   19.3759  -17.9198 C   0  0  0  0  0  0  0  0  0  0  0  0
   -2.4984   20.9104  -15.0959 C   0  0  0  0  0  0  0  0  0  0  0  0
   -3.0144   21.8473  -14.2029 F   0  0  0  0  0  0  0  0  0  0  0  0
   -1.5698   21.6947  -15.8179 F   0  0  0  0  0  0  0  0  0  0  0  0
   -1.6716   20.0063  -14.4559 F   0  0  0  0  0  0  0  0  0  0  0  0
   -4.5804   19.0089  -14.2563 C   0  0  0  0  0  0  0  0  0  0  0  0
   -5.7357   18.1532  -14.2240 F   0  0  0  0  0  0  0  0  0  0  0  0
   -4.9470   19.9535  -13.3166 F   0  0  0  0  0  0  0  0  0  0  0  0
   -3.6122   18.1196  -13.7881 F   0  0  0  0  0  0  0  0  0  0  0  0
  1  7  1  0  0  0
  7  8  2  0  0  0
  8  9  1  0  0  0
  9 13  1  0  0  0
 13 14  1  0  0  0
 13 15  1  0  0  0
 13 16  1  0  0  0
  9 10  2  0  0  0
 10 11  1  0  0  0
 11 17  1  0  0  0
 17 18  1  0  0  0
 17 19  1  0  0  0
 17 20  1  0  0  0
 11 12  2  0  0  0
  1  2  2  0  0  0
  2  3  1  0  0  0
  3  4  2  0  0  0
  4 21  1  0  0  0
 21 22  2  0  0  0
 21 23  1  0  0  0
 23 25  1  0  0  0
 25 26  2  0  0  0
 26 27  1  0  0  0
 27 31  1  0  0  0
 31 32  1  0  0  0
 31 33  1  0  0  0
 31 34  1  0  0  0
 27 28  2  0  0  0
 28 35  1  0  0  0
 35 36  1  0  0  0
 35 37  1  0  0  0
 35 38  1  0  0  0
 28 29  1  0  0  0
 29 30  2  0  0  0
  4  5  1  0  0  0
  5  6  2  0  0  0
  6  1  1  0  0  0
 12  7  1  0  0  0
 30 25  1  0  0  0
 23 24  1  0  0  0
M  END
> <minimizedAffinity>
-8.33314

> <CNNscore>
0.3416736424

> <CNNaffinity>
6.0633478165

> <CNN_VS>
2.0716860294

> <CNNaffinity_variance>
0.2286629379

$$$$
[H]c1c([H])c(-c2c([H])c(C(F)(F)F)c([H])c(C(F)(F)F)c2[H])c([H])c([H])c1C(=O)N([H])c1c([H])c([H])c(C(F)(F)F)c(C(F)(F)F)c1[H]


 38 40  0  0  0  0  0  0  0  0999 V2000
   -4.3696   22.1571  -24.3449 C   0  0  0  0  0  0  0  0  0  0  0  0
   -3.7759   22.1051  -23.0845 C   0  0  0  0  0  0  0  0  0  0  0  0
   -4.4423   21.8974  -21.9221 C   0  0  0  0  0  0  0  0  0  0  0  0
   -5.8333   21.7237  -22.0005 C   0  0  0  0  0  0  0  0  0  0  0  0
   -6.4473   21.7640  -23.1943 C   0  0  0  0  0  0  0  0  0  0  0  0
   -5.7333   21.9827  -24.4067 C   0  0  0  0  0  0  0  0  0  0  0  0
   -3.5212   22.4228  -25.5046 C   0  0  0  0  0  0  0  0  0  0  0  0
   -4.1201   22.9576  -26.6559 C   0  0  0  0  0  0  0  0  0  0  0  0
   -3.3992   23.2748  -27.7816 C   0  0  0  0  0  0  0  0  0  0  0  0
   -2.0417   23.0796  -27.8197 C   0  0  0  0  0  0  0  0  0  0  0  0
   -1.4308   22.5517  -26.6914 C   0  0  0  0  0  0  0  0  0  0  0  0
   -2.1815   22.2323  -25.5529 C   0  0  0  0  0  0  0  0  0  0  0  0
   -4.1167   23.8560  -28.9713 C   0  0  0  0  0  0  0  0  0  0  0  0
   -5.1164   24.7135  -28.4837 F   0  0  0  0  0  0  0  0  0  0  0  0
   -3.2093   24.6288  -29.6566 F   0  0  0  0  0  0  0  0  0  0  0  0
   -4.6788   22.8845  -29.7438 F   0  0  0  0  0  0  0  0  0  0  0  0
    0.0403   22.3335  -26.7245 C   0  0  0  0  0  0  0  0  0  0  0  0
    0.4190   21.5754  -27.8246 F   0  0  0  0  0  0  0  0  0  0  0  0
    0.6927   23.5347  -26.6702 F   0  0  0  0  0  0  0  0  0  0  0  0
    0.3182   21.6040  -25.5515 F   0  0  0  0  0  0  0  0  0  0  0  0
   -6.5192   21.5686  -20.6819 C   0  0  0  0  0  0  0  0  0  0  0  0
   -7.6731   21.1618  -20.7063 O   0  0  0  0  0  0  0  0  0  0  0  0
   -5.7506   21.9020  -19.5609 N   0  0  0  0  0  0  0  0  0  0  0  0
   -4.7577   22.2546  -19.7897 H   0  0  0  0  0  0  0  0  0  0  0  0
   -6.0619   21.8556  -18.2094 C   0  0  0  0  0  0  0  0  0  0  0  0
   -5.8444   22.8763  -17.3453 C   0  0  0  0  0  0  0  0  0  0  0  0
   -6.1881   22.8371  -15.9664 C   0  0  0  0  0  0  0  0  0  0  0  0
   -6.7743   21.7223  -15.4476 C   0  0  0  0  0  0  0  0  0  0  0  0
   -6.9996   20.6610  -16.3537 C   0  0  0  0  0  0  0  0  0  0  0  0
   -6.6628   20.7233  -17.6643 C   0  0  0  0  0  0  0  0  0  0  0  0
   -5.9110   24.0111  -15.1534 C   0  0  0  0  0  0  0  0  0  0  0  0
   -7.0307   24.6690  -14.6487 F   0  0  0  0  0  0  0  0  0  0  0  0
   -5.3419   25.0148  -15.9704 F   0  0  0  0  0  0  0  0  0  0  0  0
   -4.9409   23.8498  -14.1821 F   0  0  0  0  0  0  0  0  0  0  0  0
   -7.1797   21.5889  -14.0677 C   0  0  0  0  0  0  0  0  0  0  0  0
   -7.7338   20.2710  -13.9118 F   0  0  0  0  0  0  0  0  0  0  0  0
   -8.2458   22.3568  -13.6392 F   0  0  0  0  0  0  0  0  0  0  0  0
   -6.1437   21.5236  -13.1352 F   0  0  0  0  0  0  0  0  0  0  0  0
  1  7  1  0  0  0
  7  8  2  0  0  0
  8  9  1  0  0  0
  9 13  1  0  0  0
 13 14  1  0  0  0
 13 15  1  0  0  0
 13 16  1  0  0  0
  9 10  2  0  0  0
 10 11  1  0  0  0
 11 17  1  0  0  0
 17 18  1  0  0  0
 17 19  1  0  0  0
 17 20  1  0  0  0
 11 12  2  0  0  0
  1  2  2  0  0  0
  2  3  1  0  0  0
  3  4  2  0  0  0
  4 21  1  0  0  0
 21 22  2  0  0  0
 21 23  1  0  0  0
 23 25  1  0  0  0
 25 26  2  0  0  0
 26 27  1  0  0  0
 27 31  1  0  0  0
 31 32  1  0  0  0
 31 33  1  0  0  0
 31 34  1  0  0  0
 27 28  2  0  0  0
 28 35  1  0  0  0
 35 36  1  0  0  0
 35 37  1  0  0  0
 35 38  1  0  0  0
 28 29  1  0  0  0
 29 30  2  0  0  0
  4  5  1  0  0  0
  5  6  2  0  0  0
  6  1  1  0  0  0
 12  7  1  0  0  0
 30 25  1  0  0  0
 23 24  1  0  0  0
M  END
> <minimizedAffinity>
-8.91189

> <CNNscore>
0.3241465986

> <CNNaffinity>
5.9047803879

> <CNN_VS>
1.9140144587

> <CNNaffinity_variance>
0.1651940942

$$$$
[H]c1c([H])c(-c2c([H])c(C(F)(F)F)c([H])c(C(F)(F)F)c2[H])c([H])c([H])c1C(=O)N([H])c1c([H])c([H])c(C(F)(F)F)c(C(F)(F)F)c1[H]


 38 40  0  0  0  0  0  0  0  0999 V2000
   -4.6019   22.2159  -24.3047 C   0  0  0  0  0  0  0  0  0  0  0  0
   -3.9055   22.1403  -23.0992 C   0  0  0  0  0  0  0  0  0  0  0  0
   -4.4698   21.8840  -21.8932 C   0  0  0  0  0  0  0  0  0  0  0  0
   -5.8588   21.6819  -21.8630 C   0  0  0  0  0  0  0  0  0  0  0  0
   -6.5697   21.7435  -23.0008 C   0  0  0  0  0  0  0  0  0  0  0  0
   -5.9623   22.0132  -24.2602 C   0  0  0  0  0  0  0  0  0  0  0  0
   -3.8572   22.5340  -25.5210 C   0  0  0  0  0  0  0  0  0  0  0  0
   -2.4654   22.3521  -25.5133 C   0  0  0  0  0  0  0  0  0  0  0  0
   -1.6854   22.5887  -26.6191 C   0  0  0  0  0  0  0  0  0  0  0  0
   -2.2506   23.0161  -27.7940 C   0  0  0  0  0  0  0  0  0  0  0  0
   -3.6252   23.2020  -27.8220 C   0  0  0  0  0  0  0  0  0  0  0  0
   -4.4050   22.9576  -26.6845 C   0  0  0  0  0  0  0  0  0  0  0  0
   -0.1999   22.3575  -26.5310 C   0  0  0  0  0  0  0  0  0  0  0  0
    0.0459   21.6385  -25.3497 F   0  0  0  0  0  0  0  0  0  0  0  0
    0.1498   21.5484  -27.5860 F   0  0  0  0  0  0  0  0  0  0  0  0
    0.4916   23.5314  -26.5087 F   0  0  0  0  0  0  0  0  0  0  0  0
   -4.2467   23.6683  -29.0906 C   0  0  0  0  0  0  0  0  0  0  0  0
   -3.4578   24.6177  -29.7264 F   0  0  0  0  0  0  0  0  0  0  0  0
   -4.5248   22.5982  -29.8962 F   0  0  0  0  0  0  0  0  0  0  0  0
   -5.4557   24.2731  -28.6931 F   0  0  0  0  0  0  0  0  0  0  0  0
   -6.4307   21.4732  -20.4982 C   0  0  0  0  0  0  0  0  0  0  0  0
   -7.5574   20.9992  -20.4403 O   0  0  0  0  0  0  0  0  0  0  0  0
   -5.5986   21.8403  -19.4346 N   0  0  0  0  0  0  0  0  0  0  0  0
   -4.6485   22.2533  -19.7334 H   0  0  0  0  0  0  0  0  0  0  0  0
   -5.8014   21.7619  -18.0640 C   0  0  0  0  0  0  0  0  0  0  0  0
   -5.7739   22.8300  -17.2308 C   0  0  0  0  0  0  0  0  0  0  0  0
   -6.0081   22.7518  -15.8307 C   0  0  0  0  0  0  0  0  0  0  0  0
   -6.2808   21.5467  -15.2575 C   0  0  0  0  0  0  0  0  0  0  0  0
   -6.3090   20.4361  -16.1315 C   0  0  0  0  0  0  0  0  0  0  0  0
   -6.0825   20.5370  -17.4633 C   0  0  0  0  0  0  0  0  0  0  0  0
   -5.9621   23.9814  -15.0547 C   0  0  0  0  0  0  0  0  0  0  0  0
   -7.1880   24.4281  -14.5657 F   0  0  0  0  0  0  0  0  0  0  0  0
   -5.5938   25.0500  -15.9038 F   0  0  0  0  0  0  0  0  0  0  0  0
   -4.9810   24.0381  -14.0827 F   0  0  0  0  0  0  0  0  0  0  0  0
   -6.5525   21.3626  -13.8509 C   0  0  0  0  0  0  0  0  0  0  0  0
   -6.8516   19.9700  -13.6532 F   0  0  0  0  0  0  0  0  0  0  0  0
   -7.7028   21.9362  -13.3433 F   0  0  0  0  0  0  0  0  0  0  0  0
   -5.4549   21.4937  -12.9992 F   0  0  0  0  0  0  0  0  0  0  0  0
  1  7  1  0  0  0
  7  8  2  0  0  0
  8  9  1  0  0  0
  9 13  1  0  0  0
 13 14  1  0  0  0
 13 15  1  0  0  0
 13 16  1  0  0  0
  9 10  2  0  0  0
 10 11  1  0  0  0
 11 17  1  0  0  0
 17 18  1  0  0  0
 17 19  1  0  0  0
 17 20  1  0  0  0
 11 12  2  0  0  0
  1  2  2  0  0  0
  2  3  1  0  0  0
  3  4  2  0  0  0
  4 21  1  0  0  0
 21 22  2  0  0  0
 21 23  1  0  0  0
 23 25  1  0  0  0
 25 26  2  0  0  0
 26 27  1  0  0  0
 27 31  1  0  0  0
 31 32  1  0  0  0
 31 33  1  0  0  0
 31 34  1  0  0  0
 27 28  2  0  0  0
 28 35  1  0  0  0
 35 36  1  0  0  0
 35 37  1  0  0  0
 35 38  1  0  0  0
 28 29  1  0  0  0
 29 30  2  0  0  0
  4  5  1  0  0  0
  5  6  2  0  0  0
  6  1  1  0  0  0
 12  7  1  0  0  0
 30 25  1  0  0  0
 23 24  1  0  0  0
M  END
> <minimizedAffinity>
-8.62563

> <CNNscore>
0.3055979908

> <CNNaffinity>
5.9066748619

> <CNN_VS>
1.8050680161

> <CNNaffinity_variance>
0.1779488027

$$$$
[H]c1c([H])c(-c2c([H])c(C(F)(F)F)c([H])c(C(F)(F)F)c2[H])c([H])c([H])c1C(=O)N([H])c1c([H])c([H])c(C(F)(F)F)c(C(F)(F)F)c1[H]


 38 40  0  0  0  0  0  0  0  0999 V2000
   -3.8481   22.2746  -24.4598 C   0  0  0  0  0  0  0  0  0  0  0  0
   -2.8925   22.3632  -23.4485 C   0  0  0  0  0  0  0  0  0  0  0  0
   -3.1325   22.1354  -22.1336 C   0  0  0  0  0  0  0  0  0  0  0  0
   -4.4429   21.7858  -21.7702 C   0  0  0  0  0  0  0  0  0  0  0  0
   -5.3954   21.6866  -22.7118 C   0  0  0  0  0  0  0  0  0  0  0  0
   -5.1275   21.9287  -24.0892 C   0  0  0  0  0  0  0  0  0  0  0  0
   -3.4437   22.5828  -25.8298 C   0  0  0  0  0  0  0  0  0  0  0  0
   -2.0728   22.5881  -26.1314 C   0  0  0  0  0  0  0  0  0  0  0  0
   -1.5982   22.8299  -27.3977 C   0  0  0  0  0  0  0  0  0  0  0  0
   -2.4641   23.0761  -28.4330 C   0  0  0  0  0  0  0  0  0  0  0  0
   -3.8234   23.0752  -28.1553 C   0  0  0  0  0  0  0  0  0  0  0  0
   -4.2898   22.8285  -26.8579 C   0  0  0  0  0  0  0  0  0  0  0  0
   -0.1120   22.8059  -27.6399 C   0  0  0  0  0  0  0  0  0  0  0  0
    0.3170   21.4759  -27.4992 F   0  0  0  0  0  0  0  0  0  0  0  0
    0.0931   23.1685  -28.9501 F   0  0  0  0  0  0  0  0  0  0  0  0
    0.5547   23.6014  -26.7570 F   0  0  0  0  0  0  0  0  0  0  0  0
   -4.7699   23.3443  -29.2710 C   0  0  0  0  0  0  0  0  0  0  0  0
   -4.4159   24.4870  -29.9760 F   0  0  0  0  0  0  0  0  0  0  0  0
   -4.8671   22.2438  -30.0776 F   0  0  0  0  0  0  0  0  0  0  0  0
   -6.0103   23.5648  -28.6398 F   0  0  0  0  0  0  0  0  0  0  0  0
   -4.6601   21.6157  -20.3015 C   0  0  0  0  0  0  0  0  0  0  0  0
   -5.3997   22.4247  -19.7573 O   0  0  0  0  0  0  0  0  0  0  0  0
   -3.9919   20.5346  -19.7157 N   0  0  0  0  0  0  0  0  0  0  0  0
   -3.3794   19.9663  -20.3972 H   0  0  0  0  0  0  0  0  0  0  0  0
   -3.9885   20.0818  -18.4039 C   0  0  0  0  0  0  0  0  0  0  0  0
   -4.6381   18.9696  -17.9835 C   0  0  0  0  0  0  0  0  0  0  0  0
   -4.6120   18.4923  -16.6446 C   0  0  0  0  0  0  0  0  0  0  0  0
   -3.9001   19.1681  -15.7002 C   0  0  0  0  0  0  0  0  0  0  0  0
   -3.2238   20.3272  -16.1445 C   0  0  0  0  0  0  0  0  0  0  0  0
   -3.2642   20.7613  -17.4270 C   0  0  0  0  0  0  0  0  0  0  0  0
   -5.3442   17.2747  -16.3327 C   0  0  0  0  0  0  0  0  0  0  0  0
   -4.5626   16.1373  -16.1411 F   0  0  0  0  0  0  0  0  0  0  0  0
   -6.1145   16.8981  -17.4567 F   0  0  0  0  0  0  0  0  0  0  0  0
   -6.3104   17.3934  -15.3514 F   0  0  0  0  0  0  0  0  0  0  0  0
   -3.7928   18.7569  -14.3198 C   0  0  0  0  0  0  0  0  0  0  0  0
   -5.0669   19.0051  -13.7008 F   0  0  0  0  0  0  0  0  0  0  0  0
   -2.9693   19.4999  -13.4953 F   0  0  0  0  0  0  0  0  0  0  0  0
   -3.6864   17.3825  -14.1032 F   0  0  0  0  0  0  0  0  0  0  0  0
  1  7  1  0  0  0
  7  8  2  0  0  0
  8  9  1  0  0  0
  9 13  1  0  0  0
 13 14  1  0  0  0
 13 15  1  0  0  0
 13 16  1  0  0  0
  9 10  2  0  0  0
 10 11  1  0  0  0
 11 17  1  0  0  0
 17 18  1  0  0  0
 17 19  1  0  0  0
 17 20  1  0  0  0
 11 12  2  0  0  0
  1  2  2  0  0  0
  2  3  1  0  0  0
  3  4  2  0  0  0
  4 21  1  0  0  0
 21 22  2  0  0  0
 21 23  1  0  0  0
 23 25  1  0  0  0
 25 26  2  0  0  0
 26 27  1  0  0  0
 27 31  1  0  0  0
 31 32  1  0  0  0
 31 33  1  0  0  0
 31 34  1  0  0  0
 27 28  2  0  0  0
 28 35  1  0  0  0
 35 36  1  0  0  0
 35 37  1  0  0  0
 35 38  1  0  0  0
 28 29  1  0  0  0
 29 30  2  0  0  0
  4  5  1  0  0  0
  5  6  2  0  0  0
  6  1  1  0  0  0
 12  7  1  0  0  0
 30 25  1  0  0  0
 23 24  1  0  0  0
M  END
> <minimizedAffinity>
-8.21105

> <CNNscore>
0.2868130207

> <CNNaffinity>
6.0023231506

> <CNN_VS>
1.7215443850

> <CNNaffinity_variance>
0.2354625762

$$$$
[H]c1c([H])c(-c2c([H])c(C(F)(F)F)c([H])c(C(F)(F)F)c2[H])c([H])c([H])c1C(=O)N([H])c1c([H])c([H])c(C(F)(F)F)c(C(F)(F)F)c1[H]


 38 40  0  0  0  0  0  0  0  0999 V2000
   -3.3276   22.4289  -18.8599 C   0  0  0  0  0  0  0  0  0  0  0  0
   -2.5318   22.4235  -20.0046 C   0  0  0  0  0  0  0  0  0  0  0  0
   -2.9788   22.6725  -21.2602 C   0  0  0  0  0  0  0  0  0  0  0  0
   -4.3457   22.9550  -21.4120 C   0  0  0  0  0  0  0  0  0  0  0  0
   -5.1496   22.9730  -20.3363 C   0  0  0  0  0  0  0  0  0  0  0  0
   -4.6648   22.7097  -19.0235 C   0  0  0  0  0  0  0  0  0  0  0  0
   -2.7057   22.1079  -17.5771 C   0  0  0  0  0  0  0  0  0  0  0  0
   -3.4468   22.3318  -16.4062 C   0  0  0  0  0  0  0  0  0  0  0  0
   -2.9615   22.0269  -15.1577 C   0  0  0  0  0  0  0  0  0  0  0  0
   -1.7126   21.4788  -15.0084 C   0  0  0  0  0  0  0  0  0  0  0  0
   -0.9642   21.2496  -16.1540 C   0  0  0  0  0  0  0  0  0  0  0  0
   -1.4740   21.5683  -17.4190 C   0  0  0  0  0  0  0  0  0  0  0  0
   -3.8256   22.2876  -13.9521 C   0  0  0  0  0  0  0  0  0  0  0  0
   -2.9721   22.5928  -12.8793 F   0  0  0  0  0  0  0  0  0  0  0  0
   -4.5695   23.4123  -14.2196 F   0  0  0  0  0  0  0  0  0  0  0  0
   -4.5916   21.2051  -13.6385 F   0  0  0  0  0  0  0  0  0  0  0  0
    0.3924   20.6585  -16.0019 C   0  0  0  0  0  0  0  0  0  0  0  0
    1.0090   20.4731  -17.2322 F   0  0  0  0  0  0  0  0  0  0  0  0
    1.1437   21.4241  -15.1529 F   0  0  0  0  0  0  0  0  0  0  0  0
    0.1675   19.3993  -15.4109 F   0  0  0  0  0  0  0  0  0  0  0  0
   -4.7902   23.1517  -22.8251 C   0  0  0  0  0  0  0  0  0  0  0  0
   -5.9222   22.7790  -23.1029 O   0  0  0  0  0  0  0  0  0  0  0  0
   -3.8530   23.7535  -23.6725 N   0  0  0  0  0  0  0  0  0  0  0  0
   -2.9095   23.9821  -23.2033 H   0  0  0  0  0  0  0  0  0  0  0  0
   -3.9420   24.0975  -25.0139 C   0  0  0  0  0  0  0  0  0  0  0  0
   -3.3073   23.4347  -26.0108 C   0  0  0  0  0  0  0  0  0  0  0  0
   -3.4204   23.7721  -27.3872 C   0  0  0  0  0  0  0  0  0  0  0  0
   -4.2068   24.8185  -27.7639 C   0  0  0  0  0  0  0  0  0  0  0  0
   -4.8671   25.5058  -26.7200 C   0  0  0  0  0  0  0  0  0  0  0  0
   -4.7430   25.1642  -25.4150 C   0  0  0  0  0  0  0  0  0  0  0  0
   -2.6942   22.9661  -28.3561 C   0  0  0  0  0  0  0  0  0  0  0  0
   -1.8787   23.6755  -29.2354 F   0  0  0  0  0  0  0  0  0  0  0  0
   -3.6170   22.3731  -29.2480 F   0  0  0  0  0  0  0  0  0  0  0  0
   -2.0414   21.8604  -27.8442 F   0  0  0  0  0  0  0  0  0  0  0  0
   -4.4048   25.2297  -29.1343 C   0  0  0  0  0  0  0  0  0  0  0  0
   -5.3377   26.3239  -29.1205 F   0  0  0  0  0  0  0  0  0  0  0  0
   -5.0655   24.3531  -29.9739 F   0  0  0  0  0  0  0  0  0  0  0  0
   -3.3152   25.8533  -29.7436 F   0  0  0  0  0  0  0  0  0  0  0  0
  1  7  1  0  0  0
  7  8  2  0  0  0
  8  9  1  0  0  0
  9 13  1  0  0  0
 13 14  1  0  0  0
 13 15  1  0  0  0
 13 16  1  0  0  0
  9 10  2  0  0  0
 10 11  1  0  0  0
 11 17  1  0  0  0
 17 18  1  0  0  0
 17 19  1  0  0  0
 17 20  1  0  0  0
 11 12  2  0  0  0
  1  2  2  0  0  0
  2  3  1  0  0  0
  3  4  2  0  0  0
  4 21  1  0  0  0
 21 22  2  0  0  0
 21 23  1  0  0  0
 23 25  1  0  0  0
 25 26  2  0  0  0
 26 27  1  0  0  0
 27 31  1  0  0  0
 31 32  1  0  0  0
 31 33  1  0  0  0
 31 34  1  0  0  0
 27 28  2  0  0  0
 28 35  1  0  0  0
 35 36  1  0  0  0
 35 37  1  0  0  0
 35 38  1  0  0  0
 28 29  1  0  0  0
 29 30  2  0  0  0
  4  5  1  0  0  0
  5  6  2  0  0  0
  6  1  1  0  0  0
 12  7  1  0  0  0
 30 25  1  0  0  0
 23 24  1  0  0  0
M  END
> <minimizedAffinity>
-7.93338

> <CNNscore>
0.2677387595

> <CNNaffinity>
5.8636484146

> <CNN_VS>
1.5699259043

> <CNNaffinity_variance>
0.7752989531

$$$$
[H]c1c([H])c(-c2c([H])c(C(F)(F)F)c([H])c(C(F)(F)F)c2[H])c([H])c([H])c1C(=O)N([H])c1c([H])c([H])c(C(F)(F)F)c(C(F)(F)F)c1[H]


 38 40  0  0  0  0  0  0  0  0999 V2000
   -4.6149   22.1869  -24.0274 C   0  0  0  0  0  0  0  0  0  0  0  0
   -4.1688   22.4251  -22.7281 C   0  0  0  0  0  0  0  0  0  0  0  0
   -4.9205   22.2704  -21.6103 C   0  0  0  0  0  0  0  0  0  0  0  0
   -6.2458   21.8394  -21.7810 C   0  0  0  0  0  0  0  0  0  0  0  0
   -6.7174   21.5959  -23.0147 C   0  0  0  0  0  0  0  0  0  0  0  0
   -5.9152   21.7626  -24.1793 C   0  0  0  0  0  0  0  0  0  0  0  0
   -3.6948   22.4311  -25.1360 C   0  0  0  0  0  0  0  0  0  0  0  0
   -2.3229   22.2318  -24.9155 C   0  0  0  0  0  0  0  0  0  0  0  0
   -1.3856   22.4000  -25.9057 C   0  0  0  0  0  0  0  0  0  0  0  0
   -1.7650   22.7725  -27.1706 C   0  0  0  0  0  0  0  0  0  0  0  0
   -3.1168   22.9744  -27.4088 C   0  0  0  0  0  0  0  0  0  0  0  0
   -4.0586   22.8002  -26.3869 C   0  0  0  0  0  0  0  0  0  0  0  0
    0.0662   22.1545  -25.5896 C   0  0  0  0  0  0  0  0  0  0  0  0
    0.1181   21.3852  -24.4157 F   0  0  0  0  0  0  0  0  0  0  0  0
    0.5808   21.3875  -26.6079 F   0  0  0  0  0  0  0  0  0  0  0  0
    0.7456   23.3214  -25.4068 F   0  0  0  0  0  0  0  0  0  0  0  0
   -3.5374   23.3815  -28.7764 C   0  0  0  0  0  0  0  0  0  0  0  0
   -4.8145   23.9267  -28.7763 F   0  0  0  0  0  0  0  0  0  0  0  0
   -2.6097   24.2282  -29.3185 F   0  0  0  0  0  0  0  0  0  0  0  0
   -3.5546   22.1818  -29.5152 F   0  0  0  0  0  0  0  0  0  0  0  0
   -7.0431   21.7550  -20.5200 C   0  0  0  0  0  0  0  0  0  0  0  0
   -7.9921   22.5206  -20.4165 O   0  0  0  0  0  0  0  0  0  0  0  0
   -6.6117   20.7940  -19.5986 N   0  0  0  0  0  0  0  0  0  0  0  0
   -5.7362   20.2440  -19.9045 H   0  0  0  0  0  0  0  0  0  0  0  0
   -7.1255   20.4404  -18.3589 C   0  0  0  0  0  0  0  0  0  0  0  0
   -6.7125   20.9772  -17.1854 C   0  0  0  0  0  0  0  0  0  0  0  0
   -7.2581   20.6332  -15.9185 C   0  0  0  0  0  0  0  0  0  0  0  0
   -8.2592   19.7127  -15.8414 C   0  0  0  0  0  0  0  0  0  0  0  0
   -8.6867   19.1567  -17.0687 C   0  0  0  0  0  0  0  0  0  0  0  0
   -8.1502   19.5017  -18.2638 C   0  0  0  0  0  0  0  0  0  0  0  0
   -6.7301   21.2979  -14.7373 C   0  0  0  0  0  0  0  0  0  0  0  0
   -6.5738   20.4893  -13.6135 F   0  0  0  0  0  0  0  0  0  0  0  0
   -7.6779   22.2393  -14.2745 F   0  0  0  0  0  0  0  0  0  0  0  0
   -5.6177   22.0918  -14.9455 F   0  0  0  0  0  0  0  0  0  0  0  0
   -8.8941   19.3090  -14.6085 C   0  0  0  0  0  0  0  0  0  0  0  0
  -10.0265   18.4948  -14.9588 F   0  0  0  0  0  0  0  0  0  0  0  0
   -9.5177   20.2903  -13.8614 F   0  0  0  0  0  0  0  0  0  0  0  0
   -8.1792   18.3996  -13.8280 F   0  0  0  0  0  0  0  0  0  0  0  0
  1  7  1  0  0  0
  7  8  2  0  0  0
  8  9  1  0  0  0
  9 13  1  0  0  0
 13 14  1  0  0  0
 13 15  1  0  0  0
 13 16  1  0  0  0
  9 10  2  0  0  0
 10 11  1  0  0  0
 11 17  1  0  0  0
 17 18  1  0  0  0
 17 19  1  0  0  0
 17 20  1  0  0  0
 11 12  2  0  0  0
  1  2  2  0  0  0
  2  3  1  0  0  0
  3  4  2  0  0  0
  4 21  1  0  0  0
 21 22  2  0  0  0
 21 23  1  0  0  0
 23 25  1  0  0  0
 25 26  2  0  0  0
 26 27  1  0  0  0
 27 31  1  0  0  0
 31 32  1  0  0  0
 31 33  1  0  0  0
 31 34  1  0  0  0
 27 28  2  0  0  0
 28 35  1  0  0  0
 35 36  1  0  0  0
 35 37  1  0  0  0
 35 38  1  0  0  0
 28 29  1  0  0  0
 29 30  2  0  0  0
  4  5  1  0  0  0
  5  6  2  0  0  0
  6  1  1  0  0  0
 12  7  1  0  0  0
 30 25  1  0  0  0
 23 24  1  0  0  0
M  END
> <minimizedAffinity>
-7.97616

> <CNNscore>
0.2653024197

> <CNNaffinity>
5.7590417862

> <CNN_VS>
1.5278877020

> <CNNaffinity_variance>
0.1726698577

$$$$
[H]c1c([H])c(-c2c([H])c(C(F)(F)F)c([H])c(C(F)(F)F)c2[H])c([H])c([H])c1C(=O)N([H])c1c([H])c([H])c(C(F)(F)F)c(C(F)(F)F)c1[H]


 38 40  0  0  0  0  0  0  0  0999 V2000
   -5.7054   22.9905  -23.2902 C   0  0  0  0  0  0  0  0  0  0  0  0
   -7.0085   23.4366  -23.0739 C   0  0  0  0  0  0  0  0  0  0  0  0
   -7.7867   23.0762  -22.0238 C   0  0  0  0  0  0  0  0  0  0  0  0
   -7.2336   22.1865  -21.0890 C   0  0  0  0  0  0  0  0  0  0  0  0
   -5.9807   21.7324  -21.2562 C   0  0  0  0  0  0  0  0  0  0  0  0
   -5.1755   22.1208  -22.3646 C   0  0  0  0  0  0  0  0  0  0  0  0
   -5.0036   23.4433  -24.4892 C   0  0  0  0  0  0  0  0  0  0  0  0
   -3.8193   22.7835  -24.8535 C   0  0  0  0  0  0  0  0  0  0  0  0
   -3.1101   23.1131  -25.9829 C   0  0  0  0  0  0  0  0  0  0  0  0
   -3.5444   24.1158  -26.8127 C   0  0  0  0  0  0  0  0  0  0  0  0
   -4.7132   24.7801  -26.4699 C   0  0  0  0  0  0  0  0  0  0  0  0
   -5.4228   24.4322  -25.3136 C   0  0  0  0  0  0  0  0  0  0  0  0
   -1.8547   22.3478  -26.3089 C   0  0  0  0  0  0  0  0  0  0  0  0
   -1.5544   21.5381  -25.2012 F   0  0  0  0  0  0  0  0  0  0  0  0
   -2.1480   21.5136  -27.3616 F   0  0  0  0  0  0  0  0  0  0  0  0
   -0.8091   23.1827  -26.5669 F   0  0  0  0  0  0  0  0  0  0  0  0
   -5.1903   25.8709  -27.3619 C   0  0  0  0  0  0  0  0  0  0  0  0
   -6.4226   25.5670  -27.9251 F   0  0  0  0  0  0  0  0  0  0  0  0
   -5.2069   27.0577  -26.6818 F   0  0  0  0  0  0  0  0  0  0  0  0
   -4.2258   25.9398  -28.3868 F   0  0  0  0  0  0  0  0  0  0  0  0
   -8.1624   21.7731  -19.9938 C   0  0  0  0  0  0  0  0  0  0  0  0
   -9.3436   22.0592  -20.1367 O   0  0  0  0  0  0  0  0  0  0  0  0
   -7.5678   21.0922  -18.9255 N   0  0  0  0  0  0  0  0  0  0  0  0
   -6.5003   20.9689  -19.0139 H   0  0  0  0  0  0  0  0  0  0  0  0
   -8.1288   20.5569  -17.7746 C   0  0  0  0  0  0  0  0  0  0  0  0
   -8.5767   19.2823  -17.6710 C   0  0  0  0  0  0  0  0  0  0  0  0
   -9.1270   18.7275  -16.4834 C   0  0  0  0  0  0  0  0  0  0  0  0
   -9.2245   19.4940  -15.3617 C   0  0  0  0  0  0  0  0  0  0  0  0
   -8.7550   20.8225  -15.4752 C   0  0  0  0  0  0  0  0  0  0  0  0
   -8.2342   21.3277  -16.6192 C   0  0  0  0  0  0  0  0  0  0  0  0
   -9.5569   17.3380  -16.5069 C   0  0  0  0  0  0  0  0  0  0  0  0
   -8.7912   16.4602  -15.7424 F   0  0  0  0  0  0  0  0  0  0  0  0
   -9.3645   16.8169  -17.8070 F   0  0  0  0  0  0  0  0  0  0  0  0
  -10.9092   17.1277  -16.3125 F   0  0  0  0  0  0  0  0  0  0  0  0
   -9.7484   19.0211  -14.1015 C   0  0  0  0  0  0  0  0  0  0  0  0
   -9.6235   20.0981  -13.1569 F   0  0  0  0  0  0  0  0  0  0  0  0
   -9.0376   18.0341  -13.4455 F   0  0  0  0  0  0  0  0  0  0  0  0
  -11.1289   18.8226  -14.0552 F   0  0  0  0  0  0  0  0  0  0  0  0
  1  7  1  0  0  0
  7  8  2  0  0  0
  8  9  1  0  0  0
  9 13  1  0  0  0
 13 14  1  0  0  0
 13 15  1  0  0  0
 13 16  1  0  0  0
  9 10  2  0  0  0
 10 11  1  0  0  0
 11 17  1  0  0  0
 17 18  1  0  0  0
 17 19  1  0  0  0
 17 20  1  0  0  0
 11 12  2  0  0  0
  1  2  2  0  0  0
  2  3  1  0  0  0
  3  4  2  0  0  0
  4 21  1  0  0  0
 21 22  2  0  0  0
 21 23  1  0  0  0
 23 25  1  0  0  0
 25 26  2  0  0  0
 26 27  1  0  0  0
 27 31  1  0  0  0
 31 32  1  0  0  0
 31 33  1  0  0  0
 31 34  1  0  0  0
 27 28  2  0  0  0
 28 35  1  0  0  0
 35 36  1  0  0  0
 35 37  1  0  0  0
 35 38  1  0  0  0
 28 29  1  0  0  0
 29 30  2  0  0  0
  4  5  1  0  0  0
  5  6  2  0  0  0
  6  1  1  0  0  0
 12  7  1  0  0  0
 30 25  1  0  0  0
 23 24  1  0  0  0
M  END
> <minimizedAffinity>
-7.58812

> <CNNscore>
0.2637504339

> <CNNaffinity>
5.6425089836

> <CNN_VS>
1.4882141352

> <CNNaffinity_variance>
0.3110901713

$$$$
[H]c1c([H])c(-c2c([H])c(C(F)(F)F)c([H])c(C(F)(F)F)c2[H])c([H])c([H])c1C(=O)N([H])c1c([H])c([H])c(C(F)(F)F)c(C(F)(F)F)c1[H]


 38 40  0  0  0  0  0  0  0  0999 V2000
   -4.1272   22.3801  -24.5812 C   0  0  0  0  0  0  0  0  0  0  0  0
   -3.4570   22.7863  -23.4281 C   0  0  0  0  0  0  0  0  0  0  0  0
   -3.9425   22.6686  -22.1676 C   0  0  0  0  0  0  0  0  0  0  0  0
   -5.2156   22.0953  -22.0197 C   0  0  0  0  0  0  0  0  0  0  0  0
   -5.8967   21.6876  -23.1030 C   0  0  0  0  0  0  0  0  0  0  0  0
   -5.3730   21.8177  -24.4208 C   0  0  0  0  0  0  0  0  0  0  0  0
   -3.4865   22.6039  -25.8752 C   0  0  0  0  0  0  0  0  0  0  0  0
   -4.3000   22.9381  -26.9692 C   0  0  0  0  0  0  0  0  0  0  0  0
   -3.7863   23.2029  -28.2155 C   0  0  0  0  0  0  0  0  0  0  0  0
   -2.4334   23.1526  -28.4384 C   0  0  0  0  0  0  0  0  0  0  0  0
   -1.6121   22.8240  -27.3696 C   0  0  0  0  0  0  0  0  0  0  0  0
   -2.1532   22.5553  -26.1060 C   0  0  0  0  0  0  0  0  0  0  0  0
   -4.7274   23.5656  -29.3339 C   0  0  0  0  0  0  0  0  0  0  0  0
   -5.9363   23.9790  -28.7507 F   0  0  0  0  0  0  0  0  0  0  0  0
   -4.1899   24.6523  -29.9821 F   0  0  0  0  0  0  0  0  0  0  0  0
   -4.9533   22.5090  -30.1640 F   0  0  0  0  0  0  0  0  0  0  0  0
   -0.1441   22.7639  -27.6025 C   0  0  0  0  0  0  0  0  0  0  0  0
    0.5428   23.6206  -26.7524 F   0  0  0  0  0  0  0  0  0  0  0  0
    0.2927   21.4714  -27.5035 F   0  0  0  0  0  0  0  0  0  0  0  0
    0.0241   23.2076  -28.9292 F   0  0  0  0  0  0  0  0  0  0  0  0
   -5.7245   22.0565  -20.6152 C   0  0  0  0  0  0  0  0  0  0  0  0
   -6.8034   21.5077  -20.4357 O   0  0  0  0  0  0  0  0  0  0  0  0
   -4.8947   22.6513  -19.6579 N   0  0  0  0  0  0  0  0  0  0  0  0
   -3.9938   23.0882  -20.0581 H   0  0  0  0  0  0  0  0  0  0  0  0
   -5.0472   22.7717  -18.2839 C   0  0  0  0  0  0  0  0  0  0  0  0
   -4.2821   22.1194  -17.3756 C   0  0  0  0  0  0  0  0  0  0  0  0
   -4.4222   22.2641  -15.9683 C   0  0  0  0  0  0  0  0  0  0  0  0
   -5.3720   23.1015  -15.4664 C   0  0  0  0  0  0  0  0  0  0  0  0
   -6.1667   23.7799  -16.4184 C   0  0  0  0  0  0  0  0  0  0  0  0
   -6.0131   23.6250  -17.7553 C   0  0  0  0  0  0  0  0  0  0  0  0
   -3.5231   21.5135  -15.1056 C   0  0  0  0  0  0  0  0  0  0  0  0
   -2.6402   22.2800  -14.3477 F   0  0  0  0  0  0  0  0  0  0  0  0
   -2.6286   20.7682  -15.9074 F   0  0  0  0  0  0  0  0  0  0  0  0
   -4.1145   20.5242  -14.3426 F   0  0  0  0  0  0  0  0  0  0  0  0
   -5.5823   23.3342  -14.0565 C   0  0  0  0  0  0  0  0  0  0  0  0
   -6.6474   24.2930  -13.9369 F   0  0  0  0  0  0  0  0  0  0  0  0
   -4.5825   23.9884  -13.3621 F   0  0  0  0  0  0  0  0  0  0  0  0
   -6.1375   22.2712  -13.3429 F   0  0  0  0  0  0  0  0  0  0  0  0
  1  7  1  0  0  0
  7  8  2  0  0  0
  8  9  1  0  0  0
  9 13  1  0  0  0
 13 14  1  0  0  0
 13 15  1  0  0  0
 13 16  1  0  0  0
  9 10  2  0  0  0
 10 11  1  0  0  0
 11 17  1  0  0  0
 17 18  1  0  0  0
 17 19  1  0  0  0
 17 20  1  0  0  0
 11 12  2  0  0  0
  1  2  2  0  0  0
  2  3  1  0  0  0
  3  4  2  0  0  0
  4 21  1  0  0  0
 21 22  2  0  0  0
 21 23  1  0  0  0
 23 25  1  0  0  0
 25 26  2  0  0  0
 26 27  1  0  0  0
 27 31  1  0  0  0
 31 32  1  0  0  0
 31 33  1  0  0  0
 31 34  1  0  0  0
 27 28  2  0  0  0
 28 35  1  0  0  0
 35 36  1  0  0  0
 35 37  1  0  0  0
 35 38  1  0  0  0
 28 29  1  0  0  0
 29 30  2  0  0  0
  4  5  1  0  0  0
  5  6  2  0  0  0
  6  1  1  0  0  0
 12  7  1  0  0  0
 30 25  1  0  0  0
 23 24  1  0  0  0
M  END
> <minimizedAffinity>
-8.87508

> <CNNscore>
0.2621189654

> <CNNaffinity>
5.9444999695

> <CNN_VS>
1.5581661463

> <CNNaffinity_variance>
0.1985349804

$$$$
[H]c1c([H])c(-c2c([H])c(C(F)(F)F)c([H])c(C(F)(F)F)c2[H])c([H])c([H])c1C(=O)N([H])c1c([H])c([H])c(C(F)(F)F)c(C(F)(F)F)c1[H]


 38 40  0  0  0  0  0  0  0  0999 V2000
   -3.7426   23.0410  -24.3668 C   0  0  0  0  0  0  0  0  0  0  0  0
   -3.9059   21.8148  -23.7237 C   0  0  0  0  0  0  0  0  0  0  0  0
   -4.2098   21.6627  -22.4111 C   0  0  0  0  0  0  0  0  0  0  0  0
   -4.3694   22.8307  -21.6484 C   0  0  0  0  0  0  0  0  0  0  0  0
   -4.2234   24.0338  -22.2271 C   0  0  0  0  0  0  0  0  0  0  0  0
   -3.9044   24.1772  -23.6074 C   0  0  0  0  0  0  0  0  0  0  0  0
   -3.3821   23.0428  -25.7829 C   0  0  0  0  0  0  0  0  0  0  0  0
   -2.0258   22.9180  -26.1221 C   0  0  0  0  0  0  0  0  0  0  0  0
   -1.5936   22.8725  -27.4254 C   0  0  0  0  0  0  0  0  0  0  0  0
   -2.4901   22.9455  -28.4615 C   0  0  0  0  0  0  0  0  0  0  0  0
   -3.8356   23.0692  -28.1469 C   0  0  0  0  0  0  0  0  0  0  0  0
   -4.2585   23.1158  -26.8124 C   0  0  0  0  0  0  0  0  0  0  0  0
   -0.1210   22.7253  -27.7042 C   0  0  0  0  0  0  0  0  0  0  0  0
    0.0936   23.0911  -29.0431 F   0  0  0  0  0  0  0  0  0  0  0  0
    0.5362   23.6408  -26.9166 F   0  0  0  0  0  0  0  0  0  0  0  0
    0.3042   21.4467  -27.5015 F   0  0  0  0  0  0  0  0  0  0  0  0
   -4.8149   23.1522  -29.2637 C   0  0  0  0  0  0  0  0  0  0  0  0
   -4.6553   24.3209  -29.9963 F   0  0  0  0  0  0  0  0  0  0  0  0
   -4.7298   22.0322  -30.0445 F   0  0  0  0  0  0  0  0  0  0  0  0
   -6.0739   23.1794  -28.6315 F   0  0  0  0  0  0  0  0  0  0  0  0
   -4.6343   22.5977  -20.1963 C   0  0  0  0  0  0  0  0  0  0  0  0
   -3.7839   22.9951  -19.4111 O   0  0  0  0  0  0  0  0  0  0  0  0
   -5.8408   21.9532  -19.9006 N   0  0  0  0  0  0  0  0  0  0  0  0
   -6.4249   21.6812  -20.7651 H   0  0  0  0  0  0  0  0  0  0  0  0
   -6.4007   21.6064  -18.6791 C   0  0  0  0  0  0  0  0  0  0  0  0
   -5.9638   20.5817  -17.9079 C   0  0  0  0  0  0  0  0  0  0  0  0
   -6.5214   20.2441  -16.6445 C   0  0  0  0  0  0  0  0  0  0  0  0
   -7.5583   20.9738  -16.1468 C   0  0  0  0  0  0  0  0  0  0  0  0
   -8.0095   22.0421  -16.9551 C   0  0  0  0  0  0  0  0  0  0  0  0
   -7.4607   22.3437  -18.1563 C   0  0  0  0  0  0  0  0  0  0  0  0
   -5.9454   19.1260  -15.9137 C   0  0  0  0  0  0  0  0  0  0  0  0
   -4.8673   18.4965  -16.5325 F   0  0  0  0  0  0  0  0  0  0  0  0
   -6.8890   18.0745  -15.8592 F   0  0  0  0  0  0  0  0  0  0  0  0
   -5.6945   19.3538  -14.5736 F   0  0  0  0  0  0  0  0  0  0  0  0
   -8.1814   20.7264  -14.8675 C   0  0  0  0  0  0  0  0  0  0  0  0
   -9.2944   21.6298  -14.7536 F   0  0  0  0  0  0  0  0  0  0  0  0
   -7.4687   21.0692  -13.7342 F   0  0  0  0  0  0  0  0  0  0  0  0
   -8.8502   19.5078  -14.7445 F   0  0  0  0  0  0  0  0  0  0  0  0
  1  7  1  0  0  0
  7  8  2  0  0  0
  8  9  1  0  0  0
  9 13  1  0  0  0
 13 14  1  0  0  0
 13 15  1  0  0  0
 13 16  1  0  0  0
  9 10  2  0  0  0
 10 11  1  0  0  0
 11 17  1  0  0  0
 17 18  1  0  0  0
 17 19  1  0  0  0
 17 20  1  0  0  0
 11 12  2  0  0  0
  1  2  2  0  0  0
  2  3  1  0  0  0
  3  4  2  0  0  0
  4 21  1  0  0  0
 21 22  2  0  0  0
 21 23  1  0  0  0
 23 25  1  0  0  0
 25 26  2  0  0  0
 26 27  1  0  0  0
 27 31  1  0  0  0
 31 32  1  0  0  0
 31 33  1  0  0  0
 31 34  1  0  0  0
 27 28  2  0  0  0
 28 35  1  0  0  0
 35 36  1  0  0  0
 35 37  1  0  0  0
 35 38  1  0  0  0
 28 29  1  0  0  0
 29 30  2  0  0  0
  4  5  1  0  0  0
  5  6  2  0  0  0
  6  1  1  0  0  0
 12  7  1  0  0  0
 30 25  1  0  0  0
 23 24  1  0  0  0
M  END
> <minimizedAffinity>
-8.60251

> <CNNscore>
0.2464153767

> <CNNaffinity>
5.8753862381

> <CNN_VS>
1.4477854967

> <CNNaffinity_variance>
0.4440250397

$$$$
[H]OC([H])([H])C(C#Cc1nc(N([H])C([H])([H])c2c([H])c([H])c(S(=O)(=O)C([H])([H])[H])c([H])c2[H])c2nc([H])c(-c3c([H])nn([H])c3[H])n2c1[H])(C([H])([H])[H])C([H])([H])[H]


 36 39  0  0  0  0  0  0  0  0999 V2000
   -1.1724   21.3959  -22.9580 C   0  0  0  0  0  0  0  0  0  0  0  0
   -1.0968   21.8146  -24.2875 C   0  0  0  0  0  0  0  0  0  0  0  0
   -2.2030   22.1513  -24.9685 N   0  0  0  0  0  0  0  0  0  0  0  0
   -2.4608   22.5802  -26.2191 C   0  0  0  0  0  0  0  0  0  0  0  0
   -3.8605   22.7555  -26.3001 C   0  0  0  0  0  0  0  0  0  0  0  0
   -4.3756   22.4370  -25.1366 N   0  0  0  0  0  0  0  0  0  0  0  0
   -3.3762   22.0687  -24.3214 C   0  0  0  0  0  0  0  0  0  0  0  0
   -3.4843   21.6605  -23.0139 C   0  0  0  0  0  0  0  0  0  0  0  0
   -2.3673   21.3299  -22.3555 N   0  0  0  0  0  0  0  0  0  0  0  0
   -1.5314   22.8264  -27.2949 C   0  0  0  0  0  0  0  0  0  0  0  0
   -0.1449   22.6750  -27.1529 C   0  0  0  0  0  0  0  0  0  0  0  0
    0.4799   22.9677  -28.3041 N   0  0  0  0  0  0  0  0  0  0  0  0
   -0.4446   23.3005  -29.1800 N   0  0  0  0  0  0  0  0  0  0  0  0
   -1.6876   23.2184  -28.5736 C   0  0  0  0  0  0  0  0  0  0  0  0
   -0.2681   23.5753  -30.1522 H   0  0  0  0  0  0  0  0  0  0  0  0
    1.0278   20.7510  -21.6375 C   0  0  0  0  0  0  0  0  0  0  0  0
    0.0151   21.0379  -22.2375 C   0  0  0  0  0  0  0  0  0  0  0  0
    2.5277   21.5523  -19.9336 C   0  0  0  0  0  0  0  0  0  0  0  0
    2.2618   20.4208  -20.9274 C   0  0  0  0  0  0  0  0  0  0  0  0
    2.1087   19.1630  -20.1282 C   0  0  0  0  0  0  0  0  0  0  0  0
    3.4368   20.2899  -21.8612 C   0  0  0  0  0  0  0  0  0  0  0  0
    3.4363   21.4295  -22.6778 O   0  0  0  0  0  0  0  0  0  0  0  0
    4.1655   21.3835  -23.3290 H   0  0  0  0  0  0  0  0  0  0  0  0
   -4.7304   21.5772  -22.3405 N   0  0  0  0  0  0  0  0  0  0  0  0
   -5.5455   21.1980  -22.8610 H   0  0  0  0  0  0  0  0  0  0  0  0
   -4.9076   21.9963  -20.9694 C   0  0  0  0  0  0  0  0  0  0  0  0
   -6.1006   22.8843  -20.8786 C   0  0  0  0  0  0  0  0  0  0  0  0
   -5.9970   24.2321  -20.6241 C   0  0  0  0  0  0  0  0  0  0  0  0
   -7.1068   25.0443  -20.5422 C   0  0  0  0  0  0  0  0  0  0  0  0
   -8.3429   24.4618  -20.7250 C   0  0  0  0  0  0  0  0  0  0  0  0
   -8.4723   23.1214  -20.9797 C   0  0  0  0  0  0  0  0  0  0  0  0
   -7.3649   22.3112  -21.0613 C   0  0  0  0  0  0  0  0  0  0  0  0
   -9.7613   25.4538  -20.6289 S   0  0  0  0  0  0  0  0  0  0  0  0
   -9.2917   27.1563  -20.5206 C   0  0  0  0  0  0  0  0  0  0  0  0
  -10.6043   25.1201  -19.4129 O   0  0  0  0  0  0  0  0  0  0  0  0
  -10.6460   25.2074  -21.8316 O   0  0  0  0  0  0  0  0  0  0  0  0
 18 19  1  0  0  0
 19 20  1  0  0  0
 19 21  1  0  0  0
 21 22  1  0  0  0
 19 16  1  0  0  0
 16 17  3  0  0  0
 17  1  1  0  0  0
  1  2  2  0  0  0
  2  3  1  0  0  0
  3  4  1  0  0  0
  4  5  2  0  0  0
  5  6  1  0  0  0
  6  7  2  0  0  0
  7  8  1  0  0  0
  8 24  1  0  0  0
 24 26  1  0  0  0
 26 27  1  0  0  0
 27 28  2  0  0  0
 28 29  1  0  0  0
 29 30  2  0  0  0
 30 31  1  0  0  0
 31 32  2  0  0  0
 30 33  1  0  0  0
 33 34  1  0  0  0
 33 35  2  0  0  0
 33 36  2  0  0  0
  8  9  2  0  0  0
  4 10  1  0  0  0
 10 11  1  0  0  0
 11 12  2  0  0  0
 12 13  1  0  0  0
 13 14  1  0  0  0
  9  1  1  0  0  0
 14 10  2  0  0  0
  7  3  1  0  0  0
 32 27  1  0  0  0
 22 23  1  0  0  0
 24 25  1  0  0  0
 13 15  1  0  0  0
M  END
> <minimizedAffinity>
-7.81721

> <CNNscore>
0.7437022924

> <CNNaffinity>
7.2969732285

> <CNN_VS>
5.4267759323

> <CNNaffinity_variance>
0.0738177896

$$$$
[H]OC([H])([H])C(C#Cc1nc(N([H])C([H])([H])c2c([H])c([H])c(S(=O)(=O)C([H])([H])[H])c([H])c2[H])c2nc([H])c(-c3c([H])nn([H])c3[H])n2c1[H])(C([H])([H])[H])C([H])([H])[H]


 36 39  0  0  0  0  0  0  0  0999 V2000
   -2.0882   21.4189  -23.1673 C   0  0  0  0  0  0  0  0  0  0  0  0
   -1.7592   21.8520  -24.4530 C   0  0  0  0  0  0  0  0  0  0  0  0
   -2.7126   22.2304  -25.3182 N   0  0  0  0  0  0  0  0  0  0  0  0
   -2.7253   22.6828  -26.5870 C   0  0  0  0  0  0  0  0  0  0  0  0
   -4.0814   22.9011  -26.9189 C   0  0  0  0  0  0  0  0  0  0  0  0
   -4.8091   22.5834  -25.8750 N   0  0  0  0  0  0  0  0  0  0  0  0
   -3.9861   22.1749  -24.8979 C   0  0  0  0  0  0  0  0  0  0  0  0
   -4.3428   21.7535  -23.6396 C   0  0  0  0  0  0  0  0  0  0  0  0
   -3.3746   21.3812  -22.7944 N   0  0  0  0  0  0  0  0  0  0  0  0
   -1.6084   22.9147  -27.4705 C   0  0  0  0  0  0  0  0  0  0  0  0
   -0.2762   22.7152  -27.0820 C   0  0  0  0  0  0  0  0  0  0  0  0
    0.5564   23.0047  -28.0939 N   0  0  0  0  0  0  0  0  0  0  0  0
   -0.1825   23.3815  -29.1160 N   0  0  0  0  0  0  0  0  0  0  0  0
   -1.5170   23.3313  -28.7476 C   0  0  0  0  0  0  0  0  0  0  0  0
    0.1765   23.6652  -30.0339 H   0  0  0  0  0  0  0  0  0  0  0  0
   -0.1845   20.6902  -21.4806 C   0  0  0  0  0  0  0  0  0  0  0  0
   -1.0628   21.0163  -22.2487 C   0  0  0  0  0  0  0  0  0  0  0  0
    0.4088   19.0872  -19.7855 C   0  0  0  0  0  0  0  0  0  0  0  0
    0.8908   20.3107  -20.5663 C   0  0  0  0  0  0  0  0  0  0  0  0
    2.1198   19.8958  -21.3156 C   0  0  0  0  0  0  0  0  0  0  0  0
    1.2325   21.4160  -19.6014 C   0  0  0  0  0  0  0  0  0  0  0  0
    0.0649   21.7018  -18.8800 O   0  0  0  0  0  0  0  0  0  0  0  0
    0.2211   22.4385  -18.2549 H   0  0  0  0  0  0  0  0  0  0  0  0
   -5.6929   21.6992  -23.2066 N   0  0  0  0  0  0  0  0  0  0  0  0
   -6.1670   20.7751  -23.1917 H   0  0  0  0  0  0  0  0  0  0  0  0
   -6.4276   22.8708  -22.7888 C   0  0  0  0  0  0  0  0  0  0  0  0
   -7.0490   22.6115  -21.4597 C   0  0  0  0  0  0  0  0  0  0  0  0
   -8.2016   21.8744  -21.3174 C   0  0  0  0  0  0  0  0  0  0  0  0
   -8.7679   21.6404  -20.0835 C   0  0  0  0  0  0  0  0  0  0  0  0
   -8.1393   22.1726  -18.9779 C   0  0  0  0  0  0  0  0  0  0  0  0
   -6.9900   22.9104  -19.0935 C   0  0  0  0  0  0  0  0  0  0  0  0
   -6.4253   23.1437  -20.3248 C   0  0  0  0  0  0  0  0  0  0  0  0
   -8.8239   21.8983  -17.4091 S   0  0  0  0  0  0  0  0  0  0  0  0
   -8.8710   20.1613  -17.0750 C   0  0  0  0  0  0  0  0  0  0  0  0
  -10.2387   22.4355  -17.3069 O   0  0  0  0  0  0  0  0  0  0  0  0
   -8.0201   22.6341  -16.3592 O   0  0  0  0  0  0  0  0  0  0  0  0
 18 19  1  0  0  0
 19 20  1  0  0  0
 19 21  1  0  0  0
 21 22  1  0  0  0
 19 16  1  0  0  0
 16 17  3  0  0  0
 17  1  1  0  0  0
  1  2  2  0  0  0
  2  3  1  0  0  0
  3  4  1  0  0  0
  4  5  2  0  0  0
  5  6  1  0  0  0
  6  7  2  0  0  0
  7  8  1  0  0  0
  8 24  1  0  0  0
 24 26  1  0  0  0
 26 27  1  0  0  0
 27 28  2  0  0  0
 28 29  1  0  0  0
 29 30  2  0  0  0
 30 31  1  0  0  0
 31 32  2  0  0  0
 30 33  1  0  0  0
 33 34  1  0  0  0
 33 35  2  0  0  0
 33 36  2  0  0  0
  8  9  2  0  0  0
  4 10  1  0  0  0
 10 11  1  0  0  0
 11 12  2  0  0  0
 12 13  1  0  0  0
 13 14  1  0  0  0
  9  1  1  0  0  0
 14 10  2  0  0  0
  7  3  1  0  0  0
 32 27  1  0  0  0
 22 23  1  0  0  0
 24 25  1  0  0  0
 13 15  1  0  0  0
M  END
> <minimizedAffinity>
-7.27483

> <CNNscore>
0.7176139355

> <CNNaffinity>
7.2520775795

> <CNN_VS>
5.2041921616

> <CNNaffinity_variance>
0.1136923805

$$$$
[H]OC([H])([H])C(C#Cc1nc(N([H])C([H])([H])c2c([H])c([H])c(S(=O)(=O)C([H])([H])[H])c([H])c2[H])c2nc([H])c(-c3c([H])nn([H])c3[H])n2c1[H])(C([H])([H])[H])C([H])([H])[H]


 36 39  0  0  0  0  0  0  0  0999 V2000
   -0.0835   21.0812  -22.3677 C   0  0  0  0  0  0  0  0  0  0  0  0
   -0.2146   21.5036  -23.6918 C   0  0  0  0  0  0  0  0  0  0  0  0
   -1.4179   21.8056  -24.2033 N   0  0  0  0  0  0  0  0  0  0  0  0
   -1.8676   22.2276  -25.4010 C   0  0  0  0  0  0  0  0  0  0  0  0
   -3.2691   22.3583  -25.2772 C   0  0  0  0  0  0  0  0  0  0  0  0
   -3.5998   22.0221  -24.0533 N   0  0  0  0  0  0  0  0  0  0  0  0
   -2.4817   21.6850  -23.3937 C   0  0  0  0  0  0  0  0  0  0  0  0
   -2.3862   21.2720  -22.0866 C   0  0  0  0  0  0  0  0  0  0  0  0
   -1.1758   20.9765  -21.5989 N   0  0  0  0  0  0  0  0  0  0  0  0
   -1.1122   22.5045  -26.5986 C   0  0  0  0  0  0  0  0  0  0  0  0
    0.2812   22.3665  -26.6689 C   0  0  0  0  0  0  0  0  0  0  0  0
    0.7237   22.6877  -27.8945 N   0  0  0  0  0  0  0  0  0  0  0  0
   -0.3245   23.0261  -28.6152 N   0  0  0  0  0  0  0  0  0  0  0  0
   -1.4617   22.9184  -27.8314 C   0  0  0  0  0  0  0  0  0  0  0  0
   -0.2982   23.3209  -29.5972 H   0  0  0  0  0  0  0  0  0  0  0  0
    2.3038   20.5060  -21.3827 C   0  0  0  0  0  0  0  0  0  0  0  0
    1.2065   20.7604  -21.8290 C   0  0  0  0  0  0  0  0  0  0  0  0
    4.2181   21.5355  -20.3483 C   0  0  0  0  0  0  0  0  0  0  0  0
    3.6370   20.2162  -20.8585 C   0  0  0  0  0  0  0  0  0  0  0  0
    3.5695   19.2851  -19.6869 C   0  0  0  0  0  0  0  0  0  0  0  0
    4.5491   19.6429  -21.9117 C   0  0  0  0  0  0  0  0  0  0  0  0
    4.2750   18.2699  -21.9836 O   0  0  0  0  0  0  0  0  0  0  0  0
    4.8638   17.8377  -22.6350 H   0  0  0  0  0  0  0  0  0  0  0  0
   -3.5183   21.1484  -21.2403 N   0  0  0  0  0  0  0  0  0  0  0  0
   -4.0092   20.2335  -21.2073 H   0  0  0  0  0  0  0  0  0  0  0  0
   -4.0105   22.2375  -20.4289 C   0  0  0  0  0  0  0  0  0  0  0  0
   -4.8588   23.1296  -21.2682 C   0  0  0  0  0  0  0  0  0  0  0  0
   -4.4526   24.3876  -21.6481 C   0  0  0  0  0  0  0  0  0  0  0  0
   -5.2450   25.2045  -22.4246 C   0  0  0  0  0  0  0  0  0  0  0  0
   -6.4747   24.7203  -22.8171 C   0  0  0  0  0  0  0  0  0  0  0  0
   -6.9021   23.4704  -22.4517 C   0  0  0  0  0  0  0  0  0  0  0  0
   -6.1113   22.6557  -21.6769 C   0  0  0  0  0  0  0  0  0  0  0  0
   -7.4983   25.7210  -23.7949 S   0  0  0  0  0  0  0  0  0  0  0  0
   -8.1208   24.7827  -25.1598 C   0  0  0  0  0  0  0  0  0  0  0  0
   -6.7545   26.9210  -24.3492 O   0  0  0  0  0  0  0  0  0  0  0  0
   -8.6275   26.2794  -22.9566 O   0  0  0  0  0  0  0  0  0  0  0  0
 18 19  1  0  0  0
 19 20  1  0  0  0
 19 21  1  0  0  0
 21 22  1  0  0  0
 19 16  1  0  0  0
 16 17  3  0  0  0
 17  1  1  0  0  0
  1  2  2  0  0  0
  2  3  1  0  0  0
  3  4  1  0  0  0
  4  5  2  0  0  0
  5  6  1  0  0  0
  6  7  2  0  0  0
  7  8  1  0  0  0
  8 24  1  0  0  0
 24 26  1  0  0  0
 26 27  1  0  0  0
 27 28  2  0  0  0
 28 29  1  0  0  0
 29 30  2  0  0  0
 30 31  1  0  0  0
 31 32  2  0  0  0
 30 33  1  0  0  0
 33 34  1  0  0  0
 33 35  2  0  0  0
 33 36  2  0  0  0
  8  9  2  0  0  0
  4 10  1  0  0  0
 10 11  1  0  0  0
 11 12  2  0  0  0
 12 13  1  0  0  0
 13 14  1  0  0  0
  9  1  1  0  0  0
 14 10  2  0  0  0
  7  3  1  0  0  0
 32 27  1  0  0  0
 22 23  1  0  0  0
 24 25  1  0  0  0
 13 15  1  0  0  0
M  END
> <minimizedAffinity>
-7.08736

> <CNNscore>
0.7099366188

> <CNNaffinity>
7.3960266113

> <CNN_VS>
5.2507100105

> <CNNaffinity_variance>
0.0842987895

$$$$
[H]OC([H])([H])C(C#Cc1nc(N([H])C([H])([H])c2c([H])c([H])c(S(=O)(=O)C([H])([H])[H])c([H])c2[H])c2nc([H])c(-c3c([H])nn([H])c3[H])n2c1[H])(C([H])([H])[H])C([H])([H])[H]


 36 39  0  0  0  0  0  0  0  0999 V2000
   -1.1524   21.4158  -22.8458 C   0  0  0  0  0  0  0  0  0  0  0  0
   -1.0569   21.8178  -24.1792 C   0  0  0  0  0  0  0  0  0  0  0  0
   -2.1525   22.1483  -24.8800 N   0  0  0  0  0  0  0  0  0  0  0  0
   -2.3914   22.5623  -26.1394 C   0  0  0  0  0  0  0  0  0  0  0  0
   -3.7895   22.7394  -26.2426 C   0  0  0  0  0  0  0  0  0  0  0  0
   -4.3219   22.4363  -25.0828 N   0  0  0  0  0  0  0  0  0  0  0  0
   -3.3350   22.0761  -24.2489 C   0  0  0  0  0  0  0  0  0  0  0  0
   -3.4627   21.6843  -22.9381 C   0  0  0  0  0  0  0  0  0  0  0  0
   -2.3560   21.3596  -22.2598 N   0  0  0  0  0  0  0  0  0  0  0  0
   -1.4462   22.7933  -27.2048 C   0  0  0  0  0  0  0  0  0  0  0  0
   -0.0646   22.6128  -27.0492 C   0  0  0  0  0  0  0  0  0  0  0  0
    0.5778   22.8968  -28.1929 N   0  0  0  0  0  0  0  0  0  0  0  0
   -0.3306   23.2519  -29.0768 N   0  0  0  0  0  0  0  0  0  0  0  0
   -1.5811   23.1932  -28.4834 C   0  0  0  0  0  0  0  0  0  0  0  0
   -0.1386   23.5267  -30.0460 H   0  0  0  0  0  0  0  0  0  0  0  0
    1.0066   20.7677  -21.4605 C   0  0  0  0  0  0  0  0  0  0  0  0
    0.0239   21.0643  -22.1040 C   0  0  0  0  0  0  0  0  0  0  0  0
    2.4275   21.5670  -19.6894 C   0  0  0  0  0  0  0  0  0  0  0  0
    2.1799   20.4146  -20.6637 C   0  0  0  0  0  0  0  0  0  0  0  0
    1.9277   19.1900  -19.8386 C   0  0  0  0  0  0  0  0  0  0  0  0
    3.4048   20.2097  -21.5165 C   0  0  0  0  0  0  0  0  0  0  0  0
    3.6172   21.4051  -22.2173 O   0  0  0  0  0  0  0  0  0  0  0  0
    4.3879   21.3189  -22.8143 H   0  0  0  0  0  0  0  0  0  0  0  0
   -4.7185   21.6118  -22.2817 N   0  0  0  0  0  0  0  0  0  0  0  0
   -5.0442   20.6845  -21.9457 H   0  0  0  0  0  0  0  0  0  0  0  0
   -5.5549   22.7695  -22.0644 C   0  0  0  0  0  0  0  0  0  0  0  0
   -5.7969   22.9319  -20.6032 C   0  0  0  0  0  0  0  0  0  0  0  0
   -7.0413   23.2158  -20.0905 C   0  0  0  0  0  0  0  0  0  0  0  0
   -7.2543   23.3640  -18.7375 C   0  0  0  0  0  0  0  0  0  0  0  0
   -6.1705   23.2179  -17.8979 C   0  0  0  0  0  0  0  0  0  0  0  0
   -4.9208   22.9351  -18.3843 C   0  0  0  0  0  0  0  0  0  0  0  0
   -4.7087   22.7873  -19.7343 C   0  0  0  0  0  0  0  0  0  0  0  0
   -6.4015   23.3976  -16.1892 S   0  0  0  0  0  0  0  0  0  0  0  0
   -5.1649   22.4770  -15.3207 C   0  0  0  0  0  0  0  0  0  0  0  0
   -7.7615   22.8934  -15.7456 O   0  0  0  0  0  0  0  0  0  0  0  0
   -6.3554   24.8626  -15.8133 O   0  0  0  0  0  0  0  0  0  0  0  0
 18 19  1  0  0  0
 19 20  1  0  0  0
 19 21  1  0  0  0
 21 22  1  0  0  0
 19 16  1  0  0  0
 16 17  3  0  0  0
 17  1  1  0  0  0
  1  2  2  0  0  0
  2  3  1  0  0  0
  3  4  1  0  0  0
  4  5  2  0  0  0
  5  6  1  0  0  0
  6  7  2  0  0  0
  7  8  1  0  0  0
  8 24  1  0  0  0
 24 26  1  0  0  0
 26 27  1  0  0  0
 27 28  2  0  0  0
 28 29  1  0  0  0
 29 30  2  0  0  0
 30 31  1  0  0  0
 31 32  2  0  0  0
 30 33  1  0  0  0
 33 34  1  0  0  0
 33 35  2  0  0  0
 33 36  2  0  0  0
  8  9  2  0  0  0
  4 10  1  0  0  0
 10 11  1  0  0  0
 11 12  2  0  0  0
 12 13  1  0  0  0
 13 14  1  0  0  0
  9  1  1  0  0  0
 14 10  2  0  0  0
  7  3  1  0  0  0
 32 27  1  0  0  0
 22 23  1  0  0  0
 24 25  1  0  0  0
 13 15  1  0  0  0
M  END
> <minimizedAffinity>
-7.39847

> <CNNscore>
0.6009497046

> <CNNaffinity>
7.1245574951

> <CNN_VS>
4.2815008163

> <CNNaffinity_variance>
0.0744239241

$$$$
[H]OC([H])([H])C(C#Cc1nc(N([H])C([H])([H])c2c([H])c([H])c(S(=O)(=O)C([H])([H])[H])c([H])c2[H])c2nc([H])c(-c3c([H])nn([H])c3[H])n2c1[H])(C([H])([H])[H])C([H])([H])[H]


 36 39  0  0  0  0  0  0  0  0999 V2000
   -4.8145   23.5975  -24.9171 C   0  0  0  0  0  0  0  0  0  0  0  0
   -4.9426   23.9798  -26.2536 C   0  0  0  0  0  0  0  0  0  0  0  0
   -4.0173   23.6335  -27.1617 N   0  0  0  0  0  0  0  0  0  0  0  0
   -3.8532   23.8374  -28.4831 C   0  0  0  0  0  0  0  0  0  0  0  0
   -2.6455   23.1958  -28.8387 C   0  0  0  0  0  0  0  0  0  0  0  0
   -2.1447   22.6489  -27.7568 N   0  0  0  0  0  0  0  0  0  0  0  0
   -2.9713   22.9096  -26.7332 C   0  0  0  0  0  0  0  0  0  0  0  0
   -2.8161   22.5177  -25.4254 C   0  0  0  0  0  0  0  0  0  0  0  0
   -3.7517   22.8749  -24.5381 N   0  0  0  0  0  0  0  0  0  0  0  0
   -4.7084   24.5576  -29.3950 C   0  0  0  0  0  0  0  0  0  0  0  0
   -4.7488   25.9577  -29.4560 C   0  0  0  0  0  0  0  0  0  0  0  0
   -5.6264   26.3620  -30.3873 N   0  0  0  0  0  0  0  0  0  0  0  0
   -6.1519   25.2830  -30.9278 N   0  0  0  0  0  0  0  0  0  0  0  0
   -5.5969   24.1646  -30.3274 C   0  0  0  0  0  0  0  0  0  0  0  0
   -6.8574   25.2766  -31.6722 H   0  0  0  0  0  0  0  0  0  0  0  0
   -6.6352   24.2829  -23.1239 C   0  0  0  0  0  0  0  0  0  0  0  0
   -5.8083   23.9719  -23.9530 C   0  0  0  0  0  0  0  0  0  0  0  0
   -8.7659   25.3619  -22.8228 C   0  0  0  0  0  0  0  0  0  0  0  0
   -7.6191   24.6474  -22.1065 C   0  0  0  0  0  0  0  0  0  0  0  0
   -8.2008   23.4314  -21.4529 C   0  0  0  0  0  0  0  0  0  0  0  0
   -7.0397   25.5604  -21.0574 C   0  0  0  0  0  0  0  0  0  0  0  0
   -5.6472   25.4065  -21.1083 O   0  0  0  0  0  0  0  0  0  0  0  0
   -5.2173   25.9573  -20.4230 H   0  0  0  0  0  0  0  0  0  0  0  0
   -1.7057   21.7523  -24.9843 N   0  0  0  0  0  0  0  0  0  0  0  0
   -1.8728   20.7717  -24.6853 H   0  0  0  0  0  0  0  0  0  0  0  0
   -0.3620   22.2806  -24.9356 C   0  0  0  0  0  0  0  0  0  0  0  0
    0.3579   21.6828  -23.7762 C   0  0  0  0  0  0  0  0  0  0  0  0
    1.7108   21.4349  -23.7983 C   0  0  0  0  0  0  0  0  0  0  0  0
    2.3668   20.8818  -22.7205 C   0  0  0  0  0  0  0  0  0  0  0  0
    1.6203   20.5787  -21.6018 C   0  0  0  0  0  0  0  0  0  0  0  0
    0.2712   20.8162  -21.5552 C   0  0  0  0  0  0  0  0  0  0  0  0
   -0.3830   21.3680  -22.6307 C   0  0  0  0  0  0  0  0  0  0  0  0
    2.4128   19.8815  -20.2267 S   0  0  0  0  0  0  0  0  0  0  0  0
    1.3730   18.6465  -19.5024 C   0  0  0  0  0  0  0  0  0  0  0  0
    2.7209   20.9192  -19.1643 O   0  0  0  0  0  0  0  0  0  0  0  0
    3.7462   19.2977  -20.6404 O   0  0  0  0  0  0  0  0  0  0  0  0
 18 19  1  0  0  0
 19 20  1  0  0  0
 19 21  1  0  0  0
 21 22  1  0  0  0
 19 16  1  0  0  0
 16 17  3  0  0  0
 17  1  1  0  0  0
  1  2  2  0  0  0
  2  3  1  0  0  0
  3  4  1  0  0  0
  4  5  2  0  0  0
  5  6  1  0  0  0
  6  7  2  0  0  0
  7  8  1  0  0  0
  8 24  1  0  0  0
 24 26  1  0  0  0
 26 27  1  0  0  0
 27 28  2  0  0  0
 28 29  1  0  0  0
 29 30  2  0  0  0
 30 31  1  0  0  0
 31 32  2  0  0  0
 30 33  1  0  0  0
 33 34  1  0  0  0
 33 35  2  0  0  0
 33 36  2  0  0  0
  8  9  2  0  0  0
  4 10  1  0  0  0
 10 11  1  0  0  0
 11 12  2  0  0  0
 12 13  1  0  0  0
 13 14  1  0  0  0
  9  1  1  0  0  0
 14 10  2  0  0  0
  7  3  1  0  0  0
 32 27  1  0  0  0
 22 23  1  0  0  0
 24 25  1  0  0  0
 13 15  1  0  0  0
M  END
> <minimizedAffinity>
-8.41949

> <CNNscore>
0.4507534802

> <CNNaffinity>
7.3576569557

> <CNN_VS>
3.3164894581

> <CNNaffinity_variance>
0.0704898983

$$$$
[H]OC([H])([H])C(C#Cc1nc(N([H])C([H])([H])c2c([H])c([H])c(S(=O)(=O)C([H])([H])[H])c([H])c2[H])c2nc([H])c(-c3c([H])nn([H])c3[H])n2c1[H])(C([H])([H])[H])C([H])([H])[H]


 36 39  0  0  0  0  0  0  0  0999 V2000
   -2.5455   23.0019  -22.8143 C   0  0  0  0  0  0  0  0  0  0  0  0
   -2.0883   22.9856  -24.1332 C   0  0  0  0  0  0  0  0  0  0  0  0
   -2.8807   23.3781  -25.1426 N   0  0  0  0  0  0  0  0  0  0  0  0
   -2.7454   23.4779  -26.4792 C   0  0  0  0  0  0  0  0  0  0  0  0
   -3.9767   23.9685  -26.9690 C   0  0  0  0  0  0  0  0  0  0  0  0
   -4.7792   24.1399  -25.9459 N   0  0  0  0  0  0  0  0  0  0  0  0
   -4.1219   23.7838  -24.8322 C   0  0  0  0  0  0  0  0  0  0  0  0
   -4.6018   23.8117  -23.5450 C   0  0  0  0  0  0  0  0  0  0  0  0
   -3.7933   23.4156  -22.5552 N   0  0  0  0  0  0  0  0  0  0  0  0
   -1.5971   23.1608  -27.2931 C   0  0  0  0  0  0  0  0  0  0  0  0
   -0.4067   22.6446  -26.7621 C   0  0  0  0  0  0  0  0  0  0  0  0
    0.4933   22.4421  -27.7369 N   0  0  0  0  0  0  0  0  0  0  0  0
   -0.0667   22.8054  -28.8713 N   0  0  0  0  0  0  0  0  0  0  0  0
   -1.3534   23.2500  -28.6144 C   0  0  0  0  0  0  0  0  0  0  0  0
    0.3811   22.7641  -29.7931 H   0  0  0  0  0  0  0  0  0  0  0  0
   -0.9729   22.2431  -20.8265 C   0  0  0  0  0  0  0  0  0  0  0  0
   -1.6919   22.5807  -21.7413 C   0  0  0  0  0  0  0  0  0  0  0  0
    1.1414   21.2098  -20.3197 C   0  0  0  0  0  0  0  0  0  0  0  0
   -0.1045   21.8589  -19.7155 C   0  0  0  0  0  0  0  0  0  0  0  0
    0.3562   23.0588  -18.9460 C   0  0  0  0  0  0  0  0  0  0  0  0
   -0.7735   20.8830  -18.7829 C   0  0  0  0  0  0  0  0  0  0  0  0
   -1.3033   19.8576  -19.5788 O   0  0  0  0  0  0  0  0  0  0  0  0
   -1.7791   19.2062  -19.0246 H   0  0  0  0  0  0  0  0  0  0  0  0
   -5.9162   24.2427  -23.2293 N   0  0  0  0  0  0  0  0  0  0  0  0
   -6.0404   25.2005  -22.8469 H   0  0  0  0  0  0  0  0  0  0  0  0
   -7.0795   23.4071  -23.4180 C   0  0  0  0  0  0  0  0  0  0  0  0
   -7.5859   22.9645  -22.0885 C   0  0  0  0  0  0  0  0  0  0  0  0
   -7.1046   21.8431  -21.4538 C   0  0  0  0  0  0  0  0  0  0  0  0
   -7.5798   21.4426  -20.2243 C   0  0  0  0  0  0  0  0  0  0  0  0
   -8.5657   22.2072  -19.6376 C   0  0  0  0  0  0  0  0  0  0  0  0
   -9.0616   23.3288  -20.2497 C   0  0  0  0  0  0  0  0  0  0  0  0
   -8.5872   23.7280  -21.4765 C   0  0  0  0  0  0  0  0  0  0  0  0
   -9.1873   21.7331  -18.0904 S   0  0  0  0  0  0  0  0  0  0  0  0
  -10.9293   22.0379  -18.0292 C   0  0  0  0  0  0  0  0  0  0  0  0
   -8.5350   22.5029  -16.9580 O   0  0  0  0  0  0  0  0  0  0  0  0
   -8.8797   20.2735  -17.8357 O   0  0  0  0  0  0  0  0  0  0  0  0
 18 19  1  0  0  0
 19 20  1  0  0  0
 19 21  1  0  0  0
 21 22  1  0  0  0
 19 16  1  0  0  0
 16 17  3  0  0  0
 17  1  1  0  0  0
  1  2  2  0  0  0
  2  3  1  0  0  0
  3  4  1  0  0  0
  4  5  2  0  0  0
  5  6  1  0  0  0
  6  7  2  0  0  0
  7  8  1  0  0  0
  8 24  1  0  0  0
 24 26  1  0  0  0
 26 27  1  0  0  0
 27 28  2  0  0  0
 28 29  1  0  0  0
 29 30  2  0  0  0
 30 31  1  0  0  0
 31 32  2  0  0  0
 30 33  1  0  0  0
 33 34  1  0  0  0
 33 35  2  0  0  0
 33 36  2  0  0  0
  8  9  2  0  0  0
  4 10  1  0  0  0
 10 11  1  0  0  0
 11 12  2  0  0  0
 12 13  1  0  0  0
 13 14  1  0  0  0
  9  1  1  0  0  0
 14 10  2  0  0  0
  7  3  1  0  0  0
 32 27  1  0  0  0
 22 23  1  0  0  0
 24 25  1  0  0  0
 13 15  1  0  0  0
M  END
> <minimizedAffinity>
-6.86586

> <CNNscore>
0.4339156747

> <CNNaffinity>
7.1208701134

> <CNN_VS>
3.0898571014

> <CNNaffinity_variance>
0.1775401980

$$$$
[H]OC([H])([H])C(C#Cc1nc(N([H])C([H])([H])c2c([H])c([H])c(S(=O)(=O)C([H])([H])[H])c([H])c2[H])c2nc([H])c(-c3c([H])nn([H])c3[H])n2c1[H])(C([H])([H])[H])C([H])([H])[H]


 36 39  0  0  0  0  0  0  0  0999 V2000
   -2.3508   21.8070  -22.5470 C   0  0  0  0  0  0  0  0  0  0  0  0
   -2.6518   22.1314  -23.8710 C   0  0  0  0  0  0  0  0  0  0  0  0
   -1.6937   22.1539  -24.8104 N   0  0  0  0  0  0  0  0  0  0  0  0
   -1.6574   22.4177  -26.1309 C   0  0  0  0  0  0  0  0  0  0  0  0
   -0.3115   22.2614  -26.5319 C   0  0  0  0  0  0  0  0  0  0  0  0
    0.3879   21.9214  -25.4757 N   0  0  0  0  0  0  0  0  0  0  0  0
   -0.4434   21.8536  -24.4253 C   0  0  0  0  0  0  0  0  0  0  0  0
   -0.1146   21.5305  -23.1309 C   0  0  0  0  0  0  0  0  0  0  0  0
   -1.0869   21.5146  -22.2119 N   0  0  0  0  0  0  0  0  0  0  0  0
   -2.7444   22.7889  -27.0041 C   0  0  0  0  0  0  0  0  0  0  0  0
   -2.5524   23.1664  -28.3405 C   0  0  0  0  0  0  0  0  0  0  0  0
   -3.7274   23.4592  -28.9192 N   0  0  0  0  0  0  0  0  0  0  0  0
   -4.6663   23.2862  -28.0131 N   0  0  0  0  0  0  0  0  0  0  0  0
   -4.0767   22.8738  -26.8292 C   0  0  0  0  0  0  0  0  0  0  0  0
   -5.6699   23.4342  -28.1640 H   0  0  0  0  0  0  0  0  0  0  0  0
   -4.2648   21.7631  -20.7208 C   0  0  0  0  0  0  0  0  0  0  0  0
   -3.3810   21.7853  -21.5492 C   0  0  0  0  0  0  0  0  0  0  0  0
   -5.5437   23.1698  -19.2442 C   0  0  0  0  0  0  0  0  0  0  0  0
   -5.3475   21.7363  -19.7394 C   0  0  0  0  0  0  0  0  0  0  0  0
   -6.6390   21.3090  -20.3667 C   0  0  0  0  0  0  0  0  0  0  0  0
   -5.0307   20.8426  -18.5686 C   0  0  0  0  0  0  0  0  0  0  0  0
   -4.5240   19.6463  -19.0954 O   0  0  0  0  0  0  0  0  0  0  0  0
   -4.3282   19.0121  -18.3762 H   0  0  0  0  0  0  0  0  0  0  0  0
    1.2111   21.2148  -22.7359 N   0  0  0  0  0  0  0  0  0  0  0  0
    1.9958   21.6057  -23.2932 H   0  0  0  0  0  0  0  0  0  0  0  0
    1.5091   20.3774  -21.5972 C   0  0  0  0  0  0  0  0  0  0  0  0
    2.2217   21.1852  -20.5678 C   0  0  0  0  0  0  0  0  0  0  0  0
    1.5546   21.8770  -19.5837 C   0  0  0  0  0  0  0  0  0  0  0  0
    2.2233   22.6210  -18.6365 C   0  0  0  0  0  0  0  0  0  0  0  0
    3.6001   22.6544  -18.7018 C   0  0  0  0  0  0  0  0  0  0  0  0
    4.2877   21.9737  -19.6725 C   0  0  0  0  0  0  0  0  0  0  0  0
    3.6202   21.2315  -20.6175 C   0  0  0  0  0  0  0  0  0  0  0  0
    4.4745   23.5806  -17.5260 S   0  0  0  0  0  0  0  0  0  0  0  0
    4.7439   22.6017  -16.0767 C   0  0  0  0  0  0  0  0  0  0  0  0
    3.7206   24.8311  -17.1156 O   0  0  0  0  0  0  0  0  0  0  0  0
    5.7850   24.0563  -18.1142 O   0  0  0  0  0  0  0  0  0  0  0  0
 18 19  1  0  0  0
 19 20  1  0  0  0
 19 21  1  0  0  0
 21 22  1  0  0  0
 19 16  1  0  0  0
 16 17  3  0  0  0
 17  1  1  0  0  0
  1  2  2  0  0  0
  2  3  1  0  0  0
  3  4  1  0  0  0
  4  5  2  0  0  0
  5  6  1  0  0  0
  6  7  2  0  0  0
  7  8  1  0  0  0
  8 24  1  0  0  0
 24 26  1  0  0  0
 26 27  1  0  0  0
 27 28  2  0  0  0
 28 29  1  0  0  0
 29 30  2  0  0  0
 30 31  1  0  0  0
 31 32  2  0  0  0
 30 33  1  0  0  0
 33 34  1  0  0  0
 33 35  2  0  0  0
 33 36  2  0  0  0
  8  9  2  0  0  0
  4 10  1  0  0  0
 10 11  1  0  0  0
 11 12  2  0  0  0
 12 13  1  0  0  0
 13 14  1  0  0  0
  9  1  1  0  0  0
 14 10  2  0  0  0
  7  3  1  0  0  0
 32 27  1  0  0  0
 22 23  1  0  0  0
 24 25  1  0  0  0
 13 15  1  0  0  0
M  END
> <minimizedAffinity>
-7.09928

> <CNNscore>
0.3718253672

> <CNNaffinity>
6.8761415482

> <CNN_VS>
2.5567238331

> <CNNaffinity_variance>
0.2561474442

$$$$
[H]OC([H])([H])C(C#Cc1nc(N([H])C([H])([H])c2c([H])c([H])c(S(=O)(=O)C([H])([H])[H])c([H])c2[H])c2nc([H])c(-c3c([H])nn([H])c3[H])n2c1[H])(C([H])([H])[H])C([H])([H])[H]


 36 39  0  0  0  0  0  0  0  0999 V2000
   -3.6747   23.3856  -21.8880 C   0  0  0  0  0  0  0  0  0  0  0  0
   -2.9783   23.1155  -23.0673 C   0  0  0  0  0  0  0  0  0  0  0  0
   -1.7581   22.5579  -23.0354 N   0  0  0  0  0  0  0  0  0  0  0  0
   -0.8551   22.1834  -23.9621 C   0  0  0  0  0  0  0  0  0  0  0  0
    0.2466   21.6529  -23.2539 C   0  0  0  0  0  0  0  0  0  0  0  0
   -0.0242   21.7250  -21.9726 N   0  0  0  0  0  0  0  0  0  0  0  0
   -1.2399   22.2734  -21.8303 C   0  0  0  0  0  0  0  0  0  0  0  0
   -1.8993   22.5267  -20.6517 C   0  0  0  0  0  0  0  0  0  0  0  0
   -3.1148   23.0831  -20.7089 N   0  0  0  0  0  0  0  0  0  0  0  0
   -0.9465   22.2826  -25.3986 C   0  0  0  0  0  0  0  0  0  0  0  0
    0.1616   22.5477  -26.2155 C   0  0  0  0  0  0  0  0  0  0  0  0
   -0.2048   22.5858  -27.5061 N   0  0  0  0  0  0  0  0  0  0  0  0
   -1.5000   22.3566  -27.5544 N   0  0  0  0  0  0  0  0  0  0  0  0
   -1.9708   22.1682  -26.2651 C   0  0  0  0  0  0  0  0  0  0  0  0
   -2.0644   22.3240  -28.4101 H   0  0  0  0  0  0  0  0  0  0  0  0
   -6.0836   24.4781  -21.9492 C   0  0  0  0  0  0  0  0  0  0  0  0
   -4.9786   23.9817  -21.9312 C   0  0  0  0  0  0  0  0  0  0  0  0
   -8.4039   23.9502  -21.5854 C   0  0  0  0  0  0  0  0  0  0  0  0
   -7.4224   25.0645  -21.9509 C   0  0  0  0  0  0  0  0  0  0  0  0
   -7.5524   26.1246  -20.9006 C   0  0  0  0  0  0  0  0  0  0  0  0
   -7.7915   25.6336  -23.2961 C   0  0  0  0  0  0  0  0  0  0  0  0
   -9.1918   25.6731  -23.3508 O   0  0  0  0  0  0  0  0  0  0  0  0
   -9.4904   26.0084  -24.2204 H   0  0  0  0  0  0  0  0  0  0  0  0
   -1.3410   22.2214  -19.3835 N   0  0  0  0  0  0  0  0  0  0  0  0
   -0.7524   22.9410  -18.9200 H   0  0  0  0  0  0  0  0  0  0  0  0
   -1.5580   20.9580  -18.7175 C   0  0  0  0  0  0  0  0  0  0  0  0
   -2.0175   21.2117  -17.3231 C   0  0  0  0  0  0  0  0  0  0  0  0
   -1.1595   21.1805  -16.2484 C   0  0  0  0  0  0  0  0  0  0  0  0
   -1.5948   21.4166  -14.9628 C   0  0  0  0  0  0  0  0  0  0  0  0
   -2.9337   21.6893  -14.7789 C   0  0  0  0  0  0  0  0  0  0  0  0
   -3.8084   21.7261  -15.8333 C   0  0  0  0  0  0  0  0  0  0  0  0
   -3.3738   21.4904  -17.1158 C   0  0  0  0  0  0  0  0  0  0  0  0
   -3.5167   21.9915  -13.1745 S   0  0  0  0  0  0  0  0  0  0  0  0
   -4.6759   23.3280  -13.2036 C   0  0  0  0  0  0  0  0  0  0  0  0
   -2.3940   22.3631  -12.2248 O   0  0  0  0  0  0  0  0  0  0  0  0
   -4.1451   20.7366  -12.6087 O   0  0  0  0  0  0  0  0  0  0  0  0
 18 19  1  0  0  0
 19 20  1  0  0  0
 19 21  1  0  0  0
 21 22  1  0  0  0
 19 16  1  0  0  0
 16 17  3  0  0  0
 17  1  1  0  0  0
  1  2  2  0  0  0
  2  3  1  0  0  0
  3  4  1  0  0  0
  4  5  2  0  0  0
  5  6  1  0  0  0
  6  7  2  0  0  0
  7  8  1  0  0  0
  8 24  1  0  0  0
 24 26  1  0  0  0
 26 27  1  0  0  0
 27 28  2  0  0  0
 28 29  1  0  0  0
 29 30  2  0  0  0
 30 31  1  0  0  0
 31 32  2  0  0  0
 30 33  1  0  0  0
 33 34  1  0  0  0
 33 35  2  0  0  0
 33 36  2  0  0  0
  8  9  2  0  0  0
  4 10  1  0  0  0
 10 11  1  0  0  0
 11 12  2  0  0  0
 12 13  1  0  0  0
 13 14  1  0  0  0
  9  1  1  0  0  0
 14 10  2  0  0  0
  7  3  1  0  0  0
 32 27  1  0  0  0
 22 23  1  0  0  0
 24 25  1  0  0  0
 13 15  1  0  0  0
M  END
> <minimizedAffinity>
-6.13960

> <CNNscore>
0.3681786358

> <CNNaffinity>
6.6512804031

> <CNN_VS>
2.4488594532

> <CNNaffinity_variance>
0.2614499032

$$$$
[H]OC([H])([H])C(C#Cc1nc(N([H])C([H])([H])c2c([H])c([H])c(S(=O)(=O)C([H])([H])[H])c([H])c2[H])c2nc([H])c(-c3c([H])nn([H])c3[H])n2c1[H])(C([H])([H])[H])C([H])([H])[H]


 36 39  0  0  0  0  0  0  0  0999 V2000
   -5.2143   23.9577  -24.8563 C   0  0  0  0  0  0  0  0  0  0  0  0
   -5.2817   24.2365  -26.2225 C   0  0  0  0  0  0  0  0  0  0  0  0
   -4.2782   23.8963  -27.0460 N   0  0  0  0  0  0  0  0  0  0  0  0
   -4.0435   24.0198  -28.3667 C   0  0  0  0  0  0  0  0  0  0  0  0
   -2.7744   23.4445  -28.6016 C   0  0  0  0  0  0  0  0  0  0  0  0
   -2.3085   23.0113  -27.4546 N   0  0  0  0  0  0  0  0  0  0  0  0
   -3.2153   23.2814  -26.5039 C   0  0  0  0  0  0  0  0  0  0  0  0
   -3.1185   22.9931  -25.1640 C   0  0  0  0  0  0  0  0  0  0  0  0
   -4.1316   23.3419  -24.3627 N   0  0  0  0  0  0  0  0  0  0  0  0
   -4.8850   24.6115  -29.3783 C   0  0  0  0  0  0  0  0  0  0  0  0
   -5.0881   25.9944  -29.4863 C   0  0  0  0  0  0  0  0  0  0  0  0
   -5.9118   26.2696  -30.5096 N   0  0  0  0  0  0  0  0  0  0  0  0
   -6.2468   25.1238  -31.0642 N   0  0  0  0  0  0  0  0  0  0  0  0
   -5.6228   24.0942  -30.3788 C   0  0  0  0  0  0  0  0  0  0  0  0
   -6.8692   25.0163  -31.8722 H   0  0  0  0  0  0  0  0  0  0  0  0
   -7.1895   24.6312  -23.2298 C   0  0  0  0  0  0  0  0  0  0  0  0
   -6.2915   24.3248  -23.9831 C   0  0  0  0  0  0  0  0  0  0  0  0
   -8.5251   23.7706  -21.4214 C   0  0  0  0  0  0  0  0  0  0  0  0
   -8.2598   24.9921  -22.3023 C   0  0  0  0  0  0  0  0  0  0  0  0
   -7.8380   26.1050  -21.3925 C   0  0  0  0  0  0  0  0  0  0  0  0
   -9.5280   25.3752  -23.0198 C   0  0  0  0  0  0  0  0  0  0  0  0
   -9.6830   26.7594  -22.8611 O   0  0  0  0  0  0  0  0  0  0  0  0
  -10.5123   27.0611  -23.2843 H   0  0  0  0  0  0  0  0  0  0  0  0
   -1.9894   22.3425  -24.6026 N   0  0  0  0  0  0  0  0  0  0  0  0
   -1.0795   22.4241  -25.0969 H   0  0  0  0  0  0  0  0  0  0  0  0
   -2.0563   21.5770  -23.3793 C   0  0  0  0  0  0  0  0  0  0  0  0
   -0.6735   21.2815  -22.9097 C   0  0  0  0  0  0  0  0  0  0  0  0
    0.4367   21.5473  -23.6770 C   0  0  0  0  0  0  0  0  0  0  0  0
    1.7112   21.2702  -23.2332 C   0  0  0  0  0  0  0  0  0  0  0  0
    1.8466   20.7108  -21.9804 C   0  0  0  0  0  0  0  0  0  0  0  0
    0.7561   20.4366  -21.1969 C   0  0  0  0  0  0  0  0  0  0  0  0
   -0.5153   20.7132  -21.6400 C   0  0  0  0  0  0  0  0  0  0  0  0
    3.4356   20.3488  -21.3894 S   0  0  0  0  0  0  0  0  0  0  0  0
    3.3269   19.1814  -20.0642 C   0  0  0  0  0  0  0  0  0  0  0  0
    4.1418   21.5863  -20.8695 O   0  0  0  0  0  0  0  0  0  0  0  0
    4.2964   19.8178  -22.5149 O   0  0  0  0  0  0  0  0  0  0  0  0
 18 19  1  0  0  0
 19 20  1  0  0  0
 19 21  1  0  0  0
 21 22  1  0  0  0
 19 16  1  0  0  0
 16 17  3  0  0  0
 17  1  1  0  0  0
  1  2  2  0  0  0
  2  3  1  0  0  0
  3  4  1  0  0  0
  4  5  2  0  0  0
  5  6  1  0  0  0
  6  7  2  0  0  0
  7  8  1  0  0  0
  8 24  1  0  0  0
 24 26  1  0  0  0
 26 27  1  0  0  0
 27 28  2  0  0  0
 28 29  1  0  0  0
 29 30  2  0  0  0
 30 31  1  0  0  0
 31 32  2  0  0  0
 30 33  1  0  0  0
 33 34  1  0  0  0
 33 35  2  0  0  0
 33 36  2  0  0  0
  8  9  2  0  0  0
  4 10  1  0  0  0
 10 11  1  0  0  0
 11 12  2  0  0  0
 12 13  1  0  0  0
 13 14  1  0  0  0
  9  1  1  0  0  0
 14 10  2  0  0  0
  7  3  1  0  0  0
 32 27  1  0  0  0
 22 23  1  0  0  0
 24 25  1  0  0  0
 13 15  1  0  0  0
M  END
> <minimizedAffinity>
-8.50236

> <CNNscore>
0.3522381186

> <CNNaffinity>
7.2607727051

> <CNN_VS>
2.5575208664

> <CNNaffinity_variance>
0.1877365112

$$$$
[H]C(=O)[C@@]([H])(N([H])C(=O)[C@@]([H])(N([H])C(=O)[C@@]([H])(N([H])C(=O)OC([H])([H])c1c([H])c([H])c([H])c([H])c1[H])C([H])([H])C([H])(C([H])([H])[H])C([H])([H])[H])C([H])([H])C([H])(C([H])([H])[H])C([H])([H])[H])C([H])([H])C([H])(C([H])([H])[H])C([H])([H])[H]


 37 37  0  0  0  0  0  0  0  0999 V2000
   -2.4894   22.0215  -23.6396 N   0  0  0  0  0  0  0  0  0  0  0  0
   -1.9737   22.5270  -22.4110 C   0  0  0  0  0  0  0  0  0  0  0  0
   -1.4395   23.6498  -22.3282 O   0  0  0  0  0  0  0  0  0  0  0  0
   -2.9501   21.0790  -23.6784 H   0  0  0  0  0  0  0  0  0  0  0  0
   -2.3937   22.8209  -24.8250 C   0  0  0  0  0  0  0  0  0  0  0  0
   -3.6884   23.4068  -25.2320 C   0  0  0  0  0  0  0  0  0  0  0  0
   -4.6509   23.3708  -24.4381 O   0  0  0  0  0  0  0  0  0  0  0  0
   -3.8846   24.0113  -26.4935 N   0  0  0  0  0  0  0  0  0  0  0  0
   -3.0849   24.0429  -27.1610 H   0  0  0  0  0  0  0  0  0  0  0  0
   -5.1293   24.6028  -26.9467 C   0  0  0  0  0  0  0  0  0  0  0  0
   -5.5908   23.9096  -28.1999 C   0  0  0  0  0  0  0  0  0  0  0  0
   -6.1534   24.5727  -29.0703 O   0  0  0  0  0  0  0  0  0  0  0  0
   -4.9692   26.0657  -27.2624 C   0  0  0  0  0  0  0  0  0  0  0  0
   -5.4400   26.8785  -26.0895 C   0  0  0  0  0  0  0  0  0  0  0  0
   -4.2851   27.2018  -25.1546 C   0  0  0  0  0  0  0  0  0  0  0  0
   -6.4426   26.0518  -25.2871 C   0  0  0  0  0  0  0  0  0  0  0  0
   -1.6511   22.1804  -25.9351 C   0  0  0  0  0  0  0  0  0  0  0  0
    0.3082   22.2769  -27.5399 C   0  0  0  0  0  0  0  0  0  0  0  0
   -0.2538   22.5745  -26.1912 C   0  0  0  0  0  0  0  0  0  0  0  0
    0.6048   21.7870  -25.1806 C   0  0  0  0  0  0  0  0  0  0  0  0
   -2.0734   21.6899  -21.1820 C   0  0  0  0  0  0  0  0  0  0  0  0
   -1.3464   22.3437  -20.1131 N   0  0  0  0  0  0  0  0  0  0  0  0
   -0.2335   21.6444  -19.5233 C   0  0  0  0  0  0  0  0  0  0  0  0
    0.1039   20.5022  -19.9235 O   0  0  0  0  0  0  0  0  0  0  0  0
   -1.6344   23.2791  -19.8019 H   0  0  0  0  0  0  0  0  0  0  0  0
    0.5031   22.2052  -18.4968 O   0  0  0  0  0  0  0  0  0  0  0  0
    1.5039   21.5470  -17.7562 C   0  0  0  0  0  0  0  0  0  0  0  0
    2.4606   22.5353  -17.2308 C   0  0  0  0  0  0  0  0  0  0  0  0
    2.5645   22.7354  -15.8487 C   0  0  0  0  0  0  0  0  0  0  0  0
    3.4558   23.6470  -15.3238 C   0  0  0  0  0  0  0  0  0  0  0  0
    4.2711   24.3875  -16.1562 C   0  0  0  0  0  0  0  0  0  0  0  0
    4.1835   24.2055  -17.5083 C   0  0  0  0  0  0  0  0  0  0  0  0
    3.2944   23.2972  -18.0139 C   0  0  0  0  0  0  0  0  0  0  0  0
   -3.4922   21.5009  -20.7454 C   0  0  0  0  0  0  0  0  0  0  0  0
   -3.9803   22.7665  -20.0884 C   0  0  0  0  0  0  0  0  0  0  0  0
   -4.5360   22.5671  -18.7123 C   0  0  0  0  0  0  0  0  0  0  0  0
   -5.0181   23.4570  -20.9474 C   0  0  0  0  0  0  0  0  0  0  0  0
 18 19  1  0  0  0
 19 20  1  0  0  0
 19 17  1  0  0  0
 17  5  1  0  0  0
  5  1  1  0  0  0
  1  2  1  0  0  0
  2  3  2  0  0  0
  2 21  1  0  0  0
 21 34  1  0  0  0
 34 35  1  0  0  0
 35 36  1  0  0  0
 35 37  1  0  0  0
 21 22  1  0  0  0
 22 23  1  0  0  0
 23 24  2  0  0  0
 23 26  1  0  0  0
 26 27  1  0  0  0
 27 28  1  0  0  0
 28 29  2  0  0  0
 29 30  1  0  0  0
 30 31  2  0  0  0
 31 32  1  0  0  0
 32 33  2  0  0  0
  5  6  1  0  0  0
  6  7  2  0  0  0
  6  8  1  0  0  0
  8 10  1  0  0  0
 10 13  1  0  0  0
 13 14  1  0  0  0
 14 15  1  0  0  0
 14 16  1  0  0  0
 10 11  1  0  0  0
 11 12  2  0  0  0
 33 28  1  0  0  0
  1  4  1  0  0  0
 22 25  1  0  0  0
  8  9  1  0  0  0
M  END
> <minimizedAffinity>
-6.63005

> <CNNscore>
0.2403135151

> <CNNaffinity>
6.1494812965

> <CNN_VS>
1.4778034687

> <CNNaffinity_variance>
0.2961900532

$$$$
[H]C(=O)[C@@]([H])(N([H])C(=O)[C@@]([H])(N([H])C(=O)[C@@]([H])(N([H])C(=O)OC([H])([H])c1c([H])c([H])c([H])c([H])c1[H])C([H])([H])C([H])(C([H])([H])[H])C([H])([H])[H])C([H])([H])C([H])(C([H])([H])[H])C([H])([H])[H])C([H])([H])C([H])(C([H])([H])[H])C([H])([H])[H]


 37 37  0  0  0  0  0  0  0  0999 V2000
   -6.9996   23.7401  -21.9646 N   0  0  0  0  0  0  0  0  0  0  0  0
   -5.8376   24.5170  -21.6866 C   0  0  0  0  0  0  0  0  0  0  0  0
   -5.6727   25.0959  -20.5955 O   0  0  0  0  0  0  0  0  0  0  0  0
   -7.1060   23.2484  -22.8860 H   0  0  0  0  0  0  0  0  0  0  0  0
   -8.0188   23.6159  -20.9650 C   0  0  0  0  0  0  0  0  0  0  0  0
   -8.2048   22.2250  -20.5001 C   0  0  0  0  0  0  0  0  0  0  0  0
   -8.4297   21.3268  -21.3371 O   0  0  0  0  0  0  0  0  0  0  0  0
   -8.1383   21.8658  -19.1356 N   0  0  0  0  0  0  0  0  0  0  0  0
   -7.9522   22.6118  -18.4321 H   0  0  0  0  0  0  0  0  0  0  0  0
   -8.3108   20.5202  -18.6214 C   0  0  0  0  0  0  0  0  0  0  0  0
   -9.4872   20.4850  -17.6840 C   0  0  0  0  0  0  0  0  0  0  0  0
  -10.5183   21.0743  -18.0056 O   0  0  0  0  0  0  0  0  0  0  0  0
   -7.0999   20.0555  -17.8579 C   0  0  0  0  0  0  0  0  0  0  0  0
   -6.3994   18.9853  -18.6465 C   0  0  0  0  0  0  0  0  0  0  0  0
   -7.0739   17.6367  -18.4498 C   0  0  0  0  0  0  0  0  0  0  0  0
   -4.9696   18.8463  -18.1277 C   0  0  0  0  0  0  0  0  0  0  0  0
   -9.2846   24.3114  -21.2939 C   0  0  0  0  0  0  0  0  0  0  0  0
   -8.9374   26.7285  -20.6150 C   0  0  0  0  0  0  0  0  0  0  0  0
   -9.2475   25.7334  -21.6814 C   0  0  0  0  0  0  0  0  0  0  0  0
  -10.6616   26.0739  -22.1941 C   0  0  0  0  0  0  0  0  0  0  0  0
   -4.7823   24.6449  -22.7311 C   0  0  0  0  0  0  0  0  0  0  0  0
   -4.1883   23.3426  -22.9546 N   0  0  0  0  0  0  0  0  0  0  0  0
   -2.8140   23.1488  -22.5684 C   0  0  0  0  0  0  0  0  0  0  0  0
   -2.1465   24.0775  -22.0484 O   0  0  0  0  0  0  0  0  0  0  0  0
   -4.7506   22.5944  -23.3774 H   0  0  0  0  0  0  0  0  0  0  0  0
   -2.1810   21.9342  -22.7556 O   0  0  0  0  0  0  0  0  0  0  0  0
   -0.8735   21.7628  -23.2501 C   0  0  0  0  0  0  0  0  0  0  0  0
   -0.8503   22.0468  -24.6946 C   0  0  0  0  0  0  0  0  0  0  0  0
   -2.0011   21.8337  -25.4634 C   0  0  0  0  0  0  0  0  0  0  0  0
   -2.0152   22.0973  -26.8167 C   0  0  0  0  0  0  0  0  0  0  0  0
   -0.8863   22.5809  -27.4473 C   0  0  0  0  0  0  0  0  0  0  0  0
    0.2465   22.7951  -26.7126 C   0  0  0  0  0  0  0  0  0  0  0  0
    0.2449   22.5289  -25.3709 C   0  0  0  0  0  0  0  0  0  0  0  0
   -5.3348   25.1442  -24.0289 C   0  0  0  0  0  0  0  0  0  0  0  0
   -4.2096   25.6973  -24.8655 C   0  0  0  0  0  0  0  0  0  0  0  0
   -4.2862   27.1750  -25.0948 C   0  0  0  0  0  0  0  0  0  0  0  0
   -4.1310   24.9911  -26.2022 C   0  0  0  0  0  0  0  0  0  0  0  0
 18 19  1  0  0  0
 19 20  1  0  0  0
 19 17  1  0  0  0
 17  5  1  0  0  0
  5  1  1  0  0  0
  1  2  1  0  0  0
  2  3  2  0  0  0
  2 21  1  0  0  0
 21 34  1  0  0  0
 34 35  1  0  0  0
 35 36  1  0  0  0
 35 37  1  0  0  0
 21 22  1  0  0  0
 22 23  1  0  0  0
 23 24  2  0  0  0
 23 26  1  0  0  0
 26 27  1  0  0  0
 27 28  1  0  0  0
 28 29  2  0  0  0
 29 30  1  0  0  0
 30 31  2  0  0  0
 31 32  1  0  0  0
 32 33  2  0  0  0
  5  6  1  0  0  0
  6  7  2  0  0  0
  6  8  1  0  0  0
  8 10  1  0  0  0
 10 13  1  0  0  0
 13 14  1  0  0  0
 14 15  1  0  0  0
 14 16  1  0  0  0
 10 11  1  0  0  0
 11 12  2  0  0  0
 33 28  1  0  0  0
  1  4  1  0  0  0
 22 25  1  0  0  0
  8  9  1  0  0  0
M  END
> <minimizedAffinity>
-6.88054

> <CNNscore>
0.2285107225

> <CNNaffinity>
5.7417268753

> <CNN_VS>
1.3120461702

> <CNNaffinity_variance>
0.3334636390

$$$$
[H]C(=O)[C@@]([H])(N([H])C(=O)[C@@]([H])(N([H])C(=O)[C@@]([H])(N([H])C(=O)OC([H])([H])c1c([H])c([H])c([H])c([H])c1[H])C([H])([H])C([H])(C([H])([H])[H])C([H])([H])[H])C([H])([H])C([H])(C([H])([H])[H])C([H])([H])[H])C([H])([H])C([H])(C([H])([H])[H])C([H])([H])[H]


 37 37  0  0  0  0  0  0  0  0999 V2000
   -3.8708   23.3909  -23.2787 N   0  0  0  0  0  0  0  0  0  0  0  0
   -2.4661   23.3664  -23.0393 C   0  0  0  0  0  0  0  0  0  0  0  0
   -1.8899   24.2553  -22.3830 O   0  0  0  0  0  0  0  0  0  0  0  0
   -4.3342   22.6203  -23.8205 H   0  0  0  0  0  0  0  0  0  0  0  0
   -4.6554   24.4692  -22.7543 C   0  0  0  0  0  0  0  0  0  0  0  0
   -5.5224   24.0583  -21.6297 C   0  0  0  0  0  0  0  0  0  0  0  0
   -5.0602   24.0611  -20.4702 O   0  0  0  0  0  0  0  0  0  0  0  0
   -6.8647   23.6586  -21.8133 N   0  0  0  0  0  0  0  0  0  0  0  0
   -7.2556   23.6529  -22.7793 H   0  0  0  0  0  0  0  0  0  0  0  0
   -7.7619   23.2473  -20.7500 C   0  0  0  0  0  0  0  0  0  0  0  0
   -8.4056   21.9362  -21.1116 C   0  0  0  0  0  0  0  0  0  0  0  0
   -7.8206   21.1843  -21.8901 O   0  0  0  0  0  0  0  0  0  0  0  0
   -8.8595   24.2526  -20.5263 C   0  0  0  0  0  0  0  0  0  0  0  0
   -8.7093   25.3757  -21.5132 C   0  0  0  0  0  0  0  0  0  0  0  0
   -8.6616   26.7195  -20.8030 C   0  0  0  0  0  0  0  0  0  0  0  0
   -9.9346   25.3986  -22.4246 C   0  0  0  0  0  0  0  0  0  0  0  0
   -5.3519   25.2745  -23.7839 C   0  0  0  0  0  0  0  0  0  0  0  0
   -4.9213   26.0860  -26.1461 C   0  0  0  0  0  0  0  0  0  0  0  0
   -5.1560   24.9503  -25.2087 C   0  0  0  0  0  0  0  0  0  0  0  0
   -6.4571   24.2657  -25.6744 C   0  0  0  0  0  0  0  0  0  0  0  0
   -1.6548   22.2439  -23.5896 C   0  0  0  0  0  0  0  0  0  0  0  0
   -1.5122   22.4297  -25.0193 N   0  0  0  0  0  0  0  0  0  0  0  0
   -2.5266   21.8762  -25.8795 C   0  0  0  0  0  0  0  0  0  0  0  0
   -3.5109   21.2533  -25.4087 O   0  0  0  0  0  0  0  0  0  0  0  0
   -0.7029   22.9451  -25.3856 H   0  0  0  0  0  0  0  0  0  0  0  0
   -2.4536   22.0113  -27.2533 O   0  0  0  0  0  0  0  0  0  0  0  0
   -2.1408   23.1998  -27.9411 C   0  0  0  0  0  0  0  0  0  0  0  0
   -3.3342   23.6881  -28.6521 C   0  0  0  0  0  0  0  0  0  0  0  0
   -4.4916   22.9008  -28.6893 C   0  0  0  0  0  0  0  0  0  0  0  0
   -5.6285   23.3322  -29.3393 C   0  0  0  0  0  0  0  0  0  0  0  0
   -5.6499   24.5590  -29.9720 C   0  0  0  0  0  0  0  0  0  0  0  0
   -4.5291   25.3413  -29.9460 C   0  0  0  0  0  0  0  0  0  0  0  0
   -3.4089   24.8995  -29.2969 C   0  0  0  0  0  0  0  0  0  0  0  0
   -0.2897   22.1864  -22.9795 C   0  0  0  0  0  0  0  0  0  0  0  0
   -0.1844   20.9540  -22.1181 C   0  0  0  0  0  0  0  0  0  0  0  0
   -0.9602   21.0324  -20.8397 C   0  0  0  0  0  0  0  0  0  0  0  0
    1.2616   20.6360  -21.8025 C   0  0  0  0  0  0  0  0  0  0  0  0
 18 19  1  0  0  0
 19 20  1  0  0  0
 19 17  1  0  0  0
 17  5  1  0  0  0
  5  1  1  0  0  0
  1  2  1  0  0  0
  2  3  2  0  0  0
  2 21  1  0  0  0
 21 34  1  0  0  0
 34 35  1  0  0  0
 35 36  1  0  0  0
 35 37  1  0  0  0
 21 22  1  0  0  0
 22 23  1  0  0  0
 23 24  2  0  0  0
 23 26  1  0  0  0
 26 27  1  0  0  0
 27 28  1  0  0  0
 28 29  2  0  0  0
 29 30  1  0  0  0
 30 31  2  0  0  0
 31 32  1  0  0  0
 32 33  2  0  0  0
  5  6  1  0  0  0
  6  7  2  0  0  0
  6  8  1  0  0  0
  8 10  1  0  0  0
 10 13  1  0  0  0
 13 14  1  0  0  0
 14 15  1  0  0  0
 14 16  1  0  0  0
 10 11  1  0  0  0
 11 12  2  0  0  0
 33 28  1  0  0  0
  1  4  1  0  0  0
 22 25  1  0  0  0
  8  9  1  0  0  0
M  END
> <minimizedAffinity>
-7.15222

> <CNNscore>
0.2274869084

> <CNNaffinity>
6.2154045105

> <CNN_VS>
1.4139231443

> <CNNaffinity_variance>
0.5002299547

$$$$
[H]C(=O)[C@@]([H])(N([H])C(=O)[C@@]([H])(N([H])C(=O)[C@@]([H])(N([H])C(=O)OC([H])([H])c1c([H])c([H])c([H])c([H])c1[H])C([H])([H])C([H])(C([H])([H])[H])C([H])([H])[H])C([H])([H])C([H])(C([H])([H])[H])C([H])([H])[H])C([H])([H])C([H])(C([H])([H])[H])C([H])([H])[H]


 37 37  0  0  0  0  0  0  0  0999 V2000
   -4.8306   23.6278  -25.8715 N   0  0  0  0  0  0  0  0  0  0  0  0
   -3.8995   24.0848  -24.8941 C   0  0  0  0  0  0  0  0  0  0  0  0
   -3.8765   25.2677  -24.5025 O   0  0  0  0  0  0  0  0  0  0  0  0
   -4.8399   22.6218  -26.1715 H   0  0  0  0  0  0  0  0  0  0  0  0
   -5.7737   24.5504  -26.4306 C   0  0  0  0  0  0  0  0  0  0  0  0
   -7.0161   24.6578  -25.6366 C   0  0  0  0  0  0  0  0  0  0  0  0
   -8.1184   24.6283  -26.2214 O   0  0  0  0  0  0  0  0  0  0  0  0
   -7.0086   24.7940  -24.2307 N   0  0  0  0  0  0  0  0  0  0  0  0
   -6.0911   24.8207  -23.7372 H   0  0  0  0  0  0  0  0  0  0  0  0
   -8.1932   24.9021  -23.4002 C   0  0  0  0  0  0  0  0  0  0  0  0
   -8.2590   26.2764  -22.7910 C   0  0  0  0  0  0  0  0  0  0  0  0
   -8.5482   26.3828  -21.5999 O   0  0  0  0  0  0  0  0  0  0  0  0
   -8.1799   23.9009  -22.2766 C   0  0  0  0  0  0  0  0  0  0  0  0
   -6.8106   23.2905  -22.1750 C   0  0  0  0  0  0  0  0  0  0  0  0
   -6.8759   21.7802  -22.3401 C   0  0  0  0  0  0  0  0  0  0  0  0
   -6.2525   23.5607  -20.7793 C   0  0  0  0  0  0  0  0  0  0  0  0
   -6.0048   24.3817  -27.8839 C   0  0  0  0  0  0  0  0  0  0  0  0
   -4.3918   25.1244  -29.6924 C   0  0  0  0  0  0  0  0  0  0  0  0
   -4.8664   24.0590  -28.7633 C   0  0  0  0  0  0  0  0  0  0  0  0
   -5.3304   22.8857  -29.6503 C   0  0  0  0  0  0  0  0  0  0  0  0
   -2.9191   23.1214  -24.3182 C   0  0  0  0  0  0  0  0  0  0  0  0
   -3.2844   22.8517  -22.9425 N   0  0  0  0  0  0  0  0  0  0  0  0
   -2.4895   23.4492  -21.9002 C   0  0  0  0  0  0  0  0  0  0  0  0
   -1.5093   24.1872  -22.1707 O   0  0  0  0  0  0  0  0  0  0  0  0
   -4.0913   22.2491  -22.7408 H   0  0  0  0  0  0  0  0  0  0  0  0
   -2.7772   23.2325  -20.5656 O   0  0  0  0  0  0  0  0  0  0  0  0
   -2.4274   22.0827  -19.8315 C   0  0  0  0  0  0  0  0  0  0  0  0
   -0.9697   22.0515  -19.6267 C   0  0  0  0  0  0  0  0  0  0  0  0
   -0.3535   23.0515  -18.8643 C   0  0  0  0  0  0  0  0  0  0  0  0
    1.0080   23.0470  -18.6466 C   0  0  0  0  0  0  0  0  0  0  0  0
    1.7986   22.0487  -19.1796 C   0  0  0  0  0  0  0  0  0  0  0  0
    1.2143   21.0641  -19.9266 C   0  0  0  0  0  0  0  0  0  0  0  0
   -0.1376   21.0822  -20.1337 C   0  0  0  0  0  0  0  0  0  0  0  0
   -2.8990   21.8261  -25.0672 C   0  0  0  0  0  0  0  0  0  0  0  0
   -1.6247   21.7369  -25.8672 C   0  0  0  0  0  0  0  0  0  0  0  0
   -0.4255   22.3056  -25.1740 C   0  0  0  0  0  0  0  0  0  0  0  0
   -1.7835   22.4077  -27.2149 C   0  0  0  0  0  0  0  0  0  0  0  0
 18 19  1  0  0  0
 19 20  1  0  0  0
 19 17  1  0  0  0
 17  5  1  0  0  0
  5  1  1  0  0  0
  1  2  1  0  0  0
  2  3  2  0  0  0
  2 21  1  0  0  0
 21 34  1  0  0  0
 34 35  1  0  0  0
 35 36  1  0  0  0
 35 37  1  0  0  0
 21 22  1  0  0  0
 22 23  1  0  0  0
 23 24  2  0  0  0
 23 26  1  0  0  0
 26 27  1  0  0  0
 27 28  1  0  0  0
 28 29  2  0  0  0
 29 30  1  0  0  0
 30 31  2  0  0  0
 31 32  1  0  0  0
 32 33  2  0  0  0
  5  6  1  0  0  0
  6  7  2  0  0  0
  6  8  1  0  0  0
  8 10  1  0  0  0
 10 13  1  0  0  0
 13 14  1  0  0  0
 14 15  1  0  0  0
 14 16  1  0  0  0
 10 11  1  0  0  0
 11 12  2  0  0  0
 33 28  1  0  0  0
  1  4  1  0  0  0
 22 25  1  0  0  0
  8  9  1  0  0  0
M  END
> <minimizedAffinity>
-6.67319

> <CNNscore>
0.2265167534

> <CNNaffinity>
6.3070554733

> <CNN_VS>
1.4286537170

> <CNNaffinity_variance>
0.3884059787

$$$$
[H]C(=O)[C@@]([H])(N([H])C(=O)[C@@]([H])(N([H])C(=O)[C@@]([H])(N([H])C(=O)OC([H])([H])c1c([H])c([H])c([H])c([H])c1[H])C([H])([H])C([H])(C([H])([H])[H])C([H])([H])[H])C([H])([H])C([H])(C([H])([H])[H])C([H])([H])[H])C([H])([H])C([H])(C([H])([H])[H])C([H])([H])[H]


 37 37  0  0  0  0  0  0  0  0999 V2000
   -4.5333   22.5172  -22.5032 N   0  0  0  0  0  0  0  0  0  0  0  0
   -4.8695   23.7315  -21.8372 C   0  0  0  0  0  0  0  0  0  0  0  0
   -4.1186   24.7259  -21.8526 O   0  0  0  0  0  0  0  0  0  0  0  0
   -5.1918   21.6998  -22.4889 H   0  0  0  0  0  0  0  0  0  0  0  0
   -3.2929   22.4249  -23.2146 C   0  0  0  0  0  0  0  0  0  0  0  0
   -3.4745   22.2104  -24.6659 C   0  0  0  0  0  0  0  0  0  0  0  0
   -3.8654   21.0975  -25.0740 O   0  0  0  0  0  0  0  0  0  0  0  0
   -3.2218   23.2212  -25.6198 N   0  0  0  0  0  0  0  0  0  0  0  0
   -2.8938   24.1519  -25.2849 H   0  0  0  0  0  0  0  0  0  0  0  0
   -3.3833   23.0696  -27.0535 C   0  0  0  0  0  0  0  0  0  0  0  0
   -2.0314   22.9620  -27.7052 C   0  0  0  0  0  0  0  0  0  0  0  0
   -1.2823   22.0465  -27.3669 O   0  0  0  0  0  0  0  0  0  0  0  0
   -4.0952   24.2477  -27.6622 C   0  0  0  0  0  0  0  0  0  0  0  0
   -4.0872   24.1104  -29.1586 C   0  0  0  0  0  0  0  0  0  0  0  0
   -4.0951   25.4753  -29.8289 C   0  0  0  0  0  0  0  0  0  0  0  0
   -5.3637   23.3942  -29.5950 C   0  0  0  0  0  0  0  0  0  0  0  0
   -2.2998   21.5172  -22.5951 C   0  0  0  0  0  0  0  0  0  0  0  0
   -0.1461   21.7547  -23.9101 C   0  0  0  0  0  0  0  0  0  0  0  0
   -0.8727   21.8869  -22.6147 C   0  0  0  0  0  0  0  0  0  0  0  0
   -0.1707   20.9351  -21.6249 C   0  0  0  0  0  0  0  0  0  0  0  0
   -6.1596   23.8207  -21.0966 C   0  0  0  0  0  0  0  0  0  0  0  0
   -6.1139   22.9103  -19.9705 N   0  0  0  0  0  0  0  0  0  0  0  0
   -6.7303   21.6168  -20.1189 C   0  0  0  0  0  0  0  0  0  0  0  0
   -7.2890   21.2809  -21.1930 O   0  0  0  0  0  0  0  0  0  0  0  0
   -5.6495   23.2010  -19.1018 H   0  0  0  0  0  0  0  0  0  0  0  0
   -6.7286   20.6988  -19.0853 O   0  0  0  0  0  0  0  0  0  0  0  0
   -7.6732   20.6423  -18.0423 C   0  0  0  0  0  0  0  0  0  0  0  0
   -8.0940   19.2472  -17.8316 C   0  0  0  0  0  0  0  0  0  0  0  0
   -7.3756   18.2063  -18.4328 C   0  0  0  0  0  0  0  0  0  0  0  0
   -7.7384   16.8888  -18.2491 C   0  0  0  0  0  0  0  0  0  0  0  0
   -8.8258   16.5655  -17.4625 C   0  0  0  0  0  0  0  0  0  0  0  0
   -9.5390   17.5687  -16.8676 C   0  0  0  0  0  0  0  0  0  0  0  0
   -9.1667   18.8709  -17.0592 C   0  0  0  0  0  0  0  0  0  0  0  0
   -6.4164   25.2017  -20.5809 C   0  0  0  0  0  0  0  0  0  0  0  0
   -7.5924   25.7933  -21.3149 C   0  0  0  0  0  0  0  0  0  0  0  0
   -8.6312   26.3971  -20.4214 C   0  0  0  0  0  0  0  0  0  0  0  0
   -8.2462   24.7623  -22.2101 C   0  0  0  0  0  0  0  0  0  0  0  0
 18 19  1  0  0  0
 19 20  1  0  0  0
 19 17  1  0  0  0
 17  5  1  0  0  0
  5  1  1  0  0  0
  1  2  1  0  0  0
  2  3  2  0  0  0
  2 21  1  0  0  0
 21 34  1  0  0  0
 34 35  1  0  0  0
 35 36  1  0  0  0
 35 37  1  0  0  0
 21 22  1  0  0  0
 22 23  1  0  0  0
 23 24  2  0  0  0
 23 26  1  0  0  0
 26 27  1  0  0  0
 27 28  1  0  0  0
 28 29  2  0  0  0
 29 30  1  0  0  0
 30 31  2  0  0  0
 31 32  1  0  0  0
 32 33  2  0  0  0
  5  6  1  0  0  0
  6  7  2  0  0  0
  6  8  1  0  0  0
  8 10  1  0  0  0
 10 13  1  0  0  0
 13 14  1  0  0  0
 14 15  1  0  0  0
 14 16  1  0  0  0
 10 11  1  0  0  0
 11 12  2  0  0  0
 33 28  1  0  0  0
  1  4  1  0  0  0
 22 25  1  0  0  0
  8  9  1  0  0  0
M  END
> <minimizedAffinity>
-6.28597

> <CNNscore>
0.2050669044

> <CNNaffinity>
5.9222893715

> <CNN_VS>
1.2144654989

> <CNNaffinity_variance>
0.1319595128

$$$$
[H]C(=O)[C@@]([H])(N([H])C(=O)[C@@]([H])(N([H])C(=O)[C@@]([H])(N([H])C(=O)OC([H])([H])c1c([H])c([H])c([H])c([H])c1[H])C([H])([H])C([H])(C([H])([H])[H])C([H])([H])[H])C([H])([H])C([H])(C([H])([H])[H])C([H])([H])[H])C([H])([H])C([H])(C([H])([H])[H])C([H])([H])[H]


 37 37  0  0  0  0  0  0  0  0999 V2000
   -2.7892   22.5244  -23.5284 N   0  0  0  0  0  0  0  0  0  0  0  0
   -2.2514   23.0640  -22.3239 C   0  0  0  0  0  0  0  0  0  0  0  0
   -1.4926   24.0524  -22.3212 O   0  0  0  0  0  0  0  0  0  0  0  0
   -3.4401   21.7012  -23.5014 H   0  0  0  0  0  0  0  0  0  0  0  0
   -2.4511   23.1288  -24.7828 C   0  0  0  0  0  0  0  0  0  0  0  0
   -3.5999   23.7974  -25.4296 C   0  0  0  0  0  0  0  0  0  0  0  0
   -4.0352   24.8638  -24.9487 O   0  0  0  0  0  0  0  0  0  0  0  0
   -4.2324   23.2755  -26.5798 N   0  0  0  0  0  0  0  0  0  0  0  0
   -3.8743   22.3846  -26.9848 H   0  0  0  0  0  0  0  0  0  0  0  0
   -5.3602   23.8868  -27.2573 C   0  0  0  0  0  0  0  0  0  0  0  0
   -6.6389   23.4811  -26.5758 C   0  0  0  0  0  0  0  0  0  0  0  0
   -7.6017   24.2457  -26.6200 O   0  0  0  0  0  0  0  0  0  0  0  0
   -5.4481   23.4537  -28.6960 C   0  0  0  0  0  0  0  0  0  0  0  0
   -5.4774   24.6705  -29.5772 C   0  0  0  0  0  0  0  0  0  0  0  0
   -5.8061   24.2929  -31.0132 C   0  0  0  0  0  0  0  0  0  0  0  0
   -4.0872   25.3027  -29.5917 C   0  0  0  0  0  0  0  0  0  0  0  0
   -1.6775   22.2535  -25.6935 C   0  0  0  0  0  0  0  0  0  0  0  0
    0.2939   22.1521  -27.2832 C   0  0  0  0  0  0  0  0  0  0  0  0
   -0.2609   22.5619  -25.9612 C   0  0  0  0  0  0  0  0  0  0  0  0
    0.5516   21.7994  -24.8950 C   0  0  0  0  0  0  0  0  0  0  0  0
   -2.6044   22.4294  -21.0225 C   0  0  0  0  0  0  0  0  0  0  0  0
   -3.9512   21.9030  -21.1113 N   0  0  0  0  0  0  0  0  0  0  0  0
   -4.9692   22.5026  -20.2870 C   0  0  0  0  0  0  0  0  0  0  0  0
   -4.7034   23.4575  -19.5150 O   0  0  0  0  0  0  0  0  0  0  0  0
   -4.1504   21.1246  -21.7509 H   0  0  0  0  0  0  0  0  0  0  0  0
   -6.2748   22.0493  -20.3167 O   0  0  0  0  0  0  0  0  0  0  0  0
   -7.0457   21.8565  -21.4794 C   0  0  0  0  0  0  0  0  0  0  0  0
   -7.7707   23.0965  -21.8031 C   0  0  0  0  0  0  0  0  0  0  0  0
   -7.3793   23.8620  -22.9084 C   0  0  0  0  0  0  0  0  0  0  0  0
   -8.0420   25.0237  -23.2435 C   0  0  0  0  0  0  0  0  0  0  0  0
   -9.1139   25.4600  -22.4908 C   0  0  0  0  0  0  0  0  0  0  0  0
   -9.5101   24.7254  -21.4081 C   0  0  0  0  0  0  0  0  0  0  0  0
   -8.8426   23.5750  -21.0883 C   0  0  0  0  0  0  0  0  0  0  0  0
   -1.6775   21.3070  -20.6757 C   0  0  0  0  0  0  0  0  0  0  0  0
   -0.8436   21.7041  -19.4847 C   0  0  0  0  0  0  0  0  0  0  0  0
   -1.2773   22.9796  -18.8313 C   0  0  0  0  0  0  0  0  0  0  0  0
    0.6193   21.8108  -19.8593 C   0  0  0  0  0  0  0  0  0  0  0  0
 18 19  1  0  0  0
 19 20  1  0  0  0
 19 17  1  0  0  0
 17  5  1  0  0  0
  5  1  1  0  0  0
  1  2  1  0  0  0
  2  3  2  0  0  0
  2 21  1  0  0  0
 21 34  1  0  0  0
 34 35  1  0  0  0
 35 36  1  0  0  0
 35 37  1  0  0  0
 21 22  1  0  0  0
 22 23  1  0  0  0
 23 24  2  0  0  0
 23 26  1  0  0  0
 26 27  1  0  0  0
 27 28  1  0  0  0
 28 29  2  0  0  0
 29 30  1  0  0  0
 30 31  2  0  0  0
 31 32  1  0  0  0
 32 33  2  0  0  0
  5  6  1  0  0  0
  6  7  2  0  0  0
  6  8  1  0  0  0
  8 10  1  0  0  0
 10 13  1  0  0  0
 13 14  1  0  0  0
 14 15  1  0  0  0
 14 16  1  0  0  0
 10 11  1  0  0  0
 11 12  2  0  0  0
 33 28  1  0  0  0
  1  4  1  0  0  0
 22 25  1  0  0  0
  8  9  1  0  0  0
M  END
> <minimizedAffinity>
-7.39973

> <CNNscore>
0.2002900392

> <CNNaffinity>
5.9349260330

> <CNN_VS>
1.1887065172

> <CNNaffinity_variance>
1.0404967070

$$$$
[H]C(=O)[C@@]([H])(N([H])C(=O)[C@@]([H])(N([H])C(=O)[C@@]([H])(N([H])C(=O)OC([H])([H])c1c([H])c([H])c([H])c([H])c1[H])C([H])([H])C([H])(C([H])([H])[H])C([H])([H])[H])C([H])([H])C([H])(C([H])([H])[H])C([H])([H])[H])C([H])([H])C([H])(C([H])([H])[H])C([H])([H])[H]


 37 37  0  0  0  0  0  0  0  0999 V2000
   -2.3057   21.9702  -24.4537 N   0  0  0  0  0  0  0  0  0  0  0  0
   -1.8339   22.6196  -23.2761 C   0  0  0  0  0  0  0  0  0  0  0  0
   -1.4757   23.8132  -23.2755 O   0  0  0  0  0  0  0  0  0  0  0  0
   -2.6176   20.9683  -24.4230 H   0  0  0  0  0  0  0  0  0  0  0  0
   -2.3722   22.7034  -25.6830 C   0  0  0  0  0  0  0  0  0  0  0  0
   -3.7090   23.2799  -25.9396 C   0  0  0  0  0  0  0  0  0  0  0  0
   -4.7256   22.6184  -25.6448 O   0  0  0  0  0  0  0  0  0  0  0  0
   -3.8865   24.5600  -26.5099 N   0  0  0  0  0  0  0  0  0  0  0  0
   -3.0413   25.1162  -26.7594 H   0  0  0  0  0  0  0  0  0  0  0  0
   -5.1708   25.1770  -26.7829 C   0  0  0  0  0  0  0  0  0  0  0  0
   -5.2278   25.6078  -28.2234 C   0  0  0  0  0  0  0  0  0  0  0  0
   -6.1780   25.2414  -28.9138 O   0  0  0  0  0  0  0  0  0  0  0  0
   -5.3970   26.3954  -25.9288 C   0  0  0  0  0  0  0  0  0  0  0  0
   -6.3607   26.0548  -24.8275 C   0  0  0  0  0  0  0  0  0  0  0  0
   -5.6345   25.4387  -23.6419 C   0  0  0  0  0  0  0  0  0  0  0  0
   -7.3442   25.0046  -25.3400 C   0  0  0  0  0  0  0  0  0  0  0  0
   -1.7917   21.9961  -26.8479 C   0  0  0  0  0  0  0  0  0  0  0  0
    0.4901   22.8807  -26.1886 C   0  0  0  0  0  0  0  0  0  0  0  0
   -0.3842   22.2397  -27.2125 C   0  0  0  0  0  0  0  0  0  0  0  0
   -0.4149   23.2002  -28.4188 C   0  0  0  0  0  0  0  0  0  0  0  0
   -1.7642   21.8512  -22.0010 C   0  0  0  0  0  0  0  0  0  0  0  0
   -3.0935   21.3819  -21.6671 N   0  0  0  0  0  0  0  0  0  0  0  0
   -3.8721   22.1570  -20.7353 C   0  0  0  0  0  0  0  0  0  0  0  0
   -3.4181   23.2126  -20.2272 O   0  0  0  0  0  0  0  0  0  0  0  0
   -3.4492   20.5188  -22.0954 H   0  0  0  0  0  0  0  0  0  0  0  0
   -5.1464   21.7675  -20.3675 O   0  0  0  0  0  0  0  0  0  0  0  0
   -5.9389   22.3915  -19.3847 C   0  0  0  0  0  0  0  0  0  0  0  0
   -6.7692   23.4352  -20.0087 C   0  0  0  0  0  0  0  0  0  0  0  0
   -7.6362   23.0998  -21.0559 C   0  0  0  0  0  0  0  0  0  0  0  0
   -8.4331   24.0515  -21.6562 C   0  0  0  0  0  0  0  0  0  0  0  0
   -8.3928   25.3653  -21.2342 C   0  0  0  0  0  0  0  0  0  0  0  0
   -7.5523   25.7111  -20.2130 C   0  0  0  0  0  0  0  0  0  0  0  0
   -6.7679   24.7557  -19.6274 C   0  0  0  0  0  0  0  0  0  0  0  0
   -0.8554   20.6673  -22.1082 C   0  0  0  0  0  0  0  0  0  0  0  0
    0.4540   20.9861  -21.4332 C   0  0  0  0  0  0  0  0  0  0  0  0
    1.3107   19.7883  -21.1620 C   0  0  0  0  0  0  0  0  0  0  0  0
    0.2271   21.7373  -20.1387 C   0  0  0  0  0  0  0  0  0  0  0  0
 18 19  1  0  0  0
 19 20  1  0  0  0
 19 17  1  0  0  0
 17  5  1  0  0  0
  5  1  1  0  0  0
  1  2  1  0  0  0
  2  3  2  0  0  0
  2 21  1  0  0  0
 21 34  1  0  0  0
 34 35  1  0  0  0
 35 36  1  0  0  0
 35 37  1  0  0  0
 21 22  1  0  0  0
 22 23  1  0  0  0
 23 24  2  0  0  0
 23 26  1  0  0  0
 26 27  1  0  0  0
 27 28  1  0  0  0
 28 29  2  0  0  0
 29 30  1  0  0  0
 30 31  2  0  0  0
 31 32  1  0  0  0
 32 33  2  0  0  0
  5  6  1  0  0  0
  6  7  2  0  0  0
  6  8  1  0  0  0
  8 10  1  0  0  0
 10 13  1  0  0  0
 13 14  1  0  0  0
 14 15  1  0  0  0
 14 16  1  0  0  0
 10 11  1  0  0  0
 11 12  2  0  0  0
 33 28  1  0  0  0
  1  4  1  0  0  0
 22 25  1  0  0  0
  8  9  1  0  0  0
M  END
> <minimizedAffinity>
-6.59646

> <CNNscore>
0.1930676699

> <CNNaffinity>
5.9497852325

> <CNN_VS>
1.1487112045

> <CNNaffinity_variance>
0.7986941338

$$$$
[H]C(=O)[C@@]([H])(N([H])C(=O)[C@@]([H])(N([H])C(=O)[C@@]([H])(N([H])C(=O)OC([H])([H])c1c([H])c([H])c([H])c([H])c1[H])C([H])([H])C([H])(C([H])([H])[H])C([H])([H])[H])C([H])([H])C([H])(C([H])([H])[H])C([H])([H])[H])C([H])([H])C([H])(C([H])([H])[H])C([H])([H])[H]


 37 37  0  0  0  0  0  0  0  0999 V2000
   -4.4979   23.0355  -23.3909 N   0  0  0  0  0  0  0  0  0  0  0  0
   -4.6874   23.9325  -22.2998 C   0  0  0  0  0  0  0  0  0  0  0  0
   -3.8553   24.8155  -22.0154 O   0  0  0  0  0  0  0  0  0  0  0  0
   -5.2229   22.3114  -23.6195 H   0  0  0  0  0  0  0  0  0  0  0  0
   -3.3147   23.1417  -24.1920 C   0  0  0  0  0  0  0  0  0  0  0  0
   -3.5869   23.6252  -25.5622 C   0  0  0  0  0  0  0  0  0  0  0  0
   -2.6768   23.5852  -26.4154 O   0  0  0  0  0  0  0  0  0  0  0  0
   -4.8454   24.1359  -25.9505 N   0  0  0  0  0  0  0  0  0  0  0  0
   -5.6086   24.1732  -25.2419 H   0  0  0  0  0  0  0  0  0  0  0  0
   -5.1708   24.6223  -27.2780 C   0  0  0  0  0  0  0  0  0  0  0  0
   -6.3533   25.5496  -27.2000 C   0  0  0  0  0  0  0  0  0  0  0  0
   -7.3833   25.1512  -26.6576 O   0  0  0  0  0  0  0  0  0  0  0  0
   -5.5289   23.4976  -28.2118 C   0  0  0  0  0  0  0  0  0  0  0  0
   -4.7678   23.6614  -29.4970 C   0  0  0  0  0  0  0  0  0  0  0  0
   -3.8093   24.8391  -29.4139 C   0  0  0  0  0  0  0  0  0  0  0  0
   -5.7560   23.9719  -30.6194 C   0  0  0  0  0  0  0  0  0  0  0  0
   -2.4339   21.9519  -24.1411 C   0  0  0  0  0  0  0  0  0  0  0  0
    0.0213   21.8423  -24.7604 C   0  0  0  0  0  0  0  0  0  0  0  0
   -1.0261   22.1125  -23.7340 C   0  0  0  0  0  0  0  0  0  0  0  0
   -0.7910   21.0972  -22.5972 C   0  0  0  0  0  0  0  0  0  0  0  0
   -5.9186   23.8154  -21.4683 C   0  0  0  0  0  0  0  0  0  0  0  0
   -5.6416   22.9413  -20.3468 N   0  0  0  0  0  0  0  0  0  0  0  0
   -6.3468   21.6872  -20.2741 C   0  0  0  0  0  0  0  0  0  0  0  0
   -7.1759   21.3542  -21.1574 O   0  0  0  0  0  0  0  0  0  0  0  0
   -4.9578   23.2288  -19.6364 H   0  0  0  0  0  0  0  0  0  0  0  0
   -6.1360   20.8055  -19.2306 O   0  0  0  0  0  0  0  0  0  0  0  0
   -7.1296   20.0263  -18.6070 C   0  0  0  0  0  0  0  0  0  0  0  0
   -6.6738   18.6297  -18.5095 C   0  0  0  0  0  0  0  0  0  0  0  0
   -7.6145   17.5950  -18.4360 C   0  0  0  0  0  0  0  0  0  0  0  0
   -7.2210   16.2762  -18.3521 C   0  0  0  0  0  0  0  0  0  0  0  0
   -5.8808   15.9453  -18.3389 C   0  0  0  0  0  0  0  0  0  0  0  0
   -4.9481   16.9423  -18.4099 C   0  0  0  0  0  0  0  0  0  0  0  0
   -5.3541   18.2459  -18.4928 C   0  0  0  0  0  0  0  0  0  0  0  0
   -6.3660   25.1413  -20.9383 C   0  0  0  0  0  0  0  0  0  0  0  0
   -7.8065   25.3665  -21.3206 C   0  0  0  0  0  0  0  0  0  0  0  0
   -8.7777   25.1538  -20.2010 C   0  0  0  0  0  0  0  0  0  0  0  0
   -8.1991   24.4908  -22.4914 C   0  0  0  0  0  0  0  0  0  0  0  0
 18 19  1  0  0  0
 19 20  1  0  0  0
 19 17  1  0  0  0
 17  5  1  0  0  0
  5  1  1  0  0  0
  1  2  1  0  0  0
  2  3  2  0  0  0
  2 21  1  0  0  0
 21 34  1  0  0  0
 34 35  1  0  0  0
 35 36  1  0  0  0
 35 37  1  0  0  0
 21 22  1  0  0  0
 22 23  1  0  0  0
 23 24  2  0  0  0
 23 26  1  0  0  0
 26 27  1  0  0  0
 27 28  1  0  0  0
 28 29  2  0  0  0
 29 30  1  0  0  0
 30 31  2  0  0  0
 31 32  1  0  0  0
 32 33  2  0  0  0
  5  6  1  0  0  0
  6  7  2  0  0  0
  6  8  1  0  0  0
  8 10  1  0  0  0
 10 13  1  0  0  0
 13 14  1  0  0  0
 14 15  1  0  0  0
 14 16  1  0  0  0
 10 11  1  0  0  0
 11 12  2  0  0  0
 33 28  1  0  0  0
  1  4  1  0  0  0
 22 25  1  0  0  0
  8  9  1  0  0  0
M  END
> <minimizedAffinity>
-6.40375

> <CNNscore>
0.1910534203

> <CNNaffinity>
6.0729513168

> <CNN_VS>
1.1602581739

> <CNNaffinity_variance>
0.1460231841

$$$$
[H]C(=O)[C@@]([H])(N([H])C(=O)[C@@]([H])(N([H])C(=O)[C@@]([H])(N([H])C(=O)OC([H])([H])c1c([H])c([H])c([H])c([H])c1[H])C([H])([H])C([H])(C([H])([H])[H])C([H])([H])[H])C([H])([H])C([H])(C([H])([H])[H])C([H])([H])[H])C([H])([H])C([H])(C([H])([H])[H])C([H])([H])[H]


 37 37  0  0  0  0  0  0  0  0999 V2000
   -2.5331   22.1959  -23.5003 N   0  0  0  0  0  0  0  0  0  0  0  0
   -2.1076   22.9102  -22.3428 C   0  0  0  0  0  0  0  0  0  0  0  0
   -1.6372   24.0622  -22.4104 O   0  0  0  0  0  0  0  0  0  0  0  0
   -2.9418   21.2328  -23.4138 H   0  0  0  0  0  0  0  0  0  0  0  0
   -2.4186   22.8119  -24.7890 C   0  0  0  0  0  0  0  0  0  0  0  0
   -3.7233   23.2197  -25.3517 C   0  0  0  0  0  0  0  0  0  0  0  0
   -4.7727   22.8810  -24.7669 O   0  0  0  0  0  0  0  0  0  0  0  0
   -3.8339   23.9837  -26.5347 N   0  0  0  0  0  0  0  0  0  0  0  0
   -2.9611   24.2681  -27.0280 H   0  0  0  0  0  0  0  0  0  0  0  0
   -5.0841   24.4137  -27.1321 C   0  0  0  0  0  0  0  0  0  0  0  0
   -5.0444   24.1701  -28.6164 C   0  0  0  0  0  0  0  0  0  0  0  0
   -6.0748   23.8122  -29.1854 O   0  0  0  0  0  0  0  0  0  0  0  0
   -5.3309   25.8821  -26.9131 C   0  0  0  0  0  0  0  0  0  0  0  0
   -6.4439   26.0530  -25.9182 C   0  0  0  0  0  0  0  0  0  0  0  0
   -5.8934   26.2066  -24.5090 C   0  0  0  0  0  0  0  0  0  0  0  0
   -7.3072   24.7931  -25.9226 C   0  0  0  0  0  0  0  0  0  0  0  0
   -1.5589   22.0748  -25.7439 C   0  0  0  0  0  0  0  0  0  0  0  0
    0.3956   22.2921  -27.3428 C   0  0  0  0  0  0  0  0  0  0  0  0
   -0.1856   22.5492  -25.9938 C   0  0  0  0  0  0  0  0  0  0  0  0
    0.7138   21.8058  -24.9855 C   0  0  0  0  0  0  0  0  0  0  0  0
   -2.2265   22.2633  -21.0055 C   0  0  0  0  0  0  0  0  0  0  0  0
   -3.5028   21.5821  -20.9296 N   0  0  0  0  0  0  0  0  0  0  0  0
   -4.6618   22.3529  -20.5579 C   0  0  0  0  0  0  0  0  0  0  0  0
   -4.5747   23.5815  -20.3099 O   0  0  0  0  0  0  0  0  0  0  0  0
   -3.5552   20.5782  -21.1396 H   0  0  0  0  0  0  0  0  0  0  0  0
   -5.9108   21.7685  -20.4616 O   0  0  0  0  0  0  0  0  0  0  0  0
   -6.8229   21.6121  -21.5232 C   0  0  0  0  0  0  0  0  0  0  0  0
   -7.8227   22.6920  -21.4789 C   0  0  0  0  0  0  0  0  0  0  0  0
   -7.6970   23.7912  -22.3373 C   0  0  0  0  0  0  0  0  0  0  0  0
   -8.6203   24.8152  -22.3268 C   0  0  0  0  0  0  0  0  0  0  0  0
   -9.6967   24.7780  -21.4632 C   0  0  0  0  0  0  0  0  0  0  0  0
   -9.8357   23.7126  -20.6179 C   0  0  0  0  0  0  0  0  0  0  0  0
   -8.9115   22.7045  -20.6402 C   0  0  0  0  0  0  0  0  0  0  0  0
   -1.1393   21.2632  -20.7672 C   0  0  0  0  0  0  0  0  0  0  0  0
   -0.0047   21.9312  -20.0335 C   0  0  0  0  0  0  0  0  0  0  0  0
    0.8858   20.9842  -19.2904 C   0  0  0  0  0  0  0  0  0  0  0  0
   -0.5238   22.9807  -19.0740 C   0  0  0  0  0  0  0  0  0  0  0  0
 18 19  1  0  0  0
 19 20  1  0  0  0
 19 17  1  0  0  0
 17  5  1  0  0  0
  5  1  1  0  0  0
  1  2  1  0  0  0
  2  3  2  0  0  0
  2 21  1  0  0  0
 21 34  1  0  0  0
 34 35  1  0  0  0
 35 36  1  0  0  0
 35 37  1  0  0  0
 21 22  1  0  0  0
 22 23  1  0  0  0
 23 24  2  0  0  0
 23 26  1  0  0  0
 26 27  1  0  0  0
 27 28  1  0  0  0
 28 29  2  0  0  0
 29 30  1  0  0  0
 30 31  2  0  0  0
 31 32  1  0  0  0
 32 33  2  0  0  0
  5  6  1  0  0  0
  6  7  2  0  0  0
  6  8  1  0  0  0
  8 10  1  0  0  0
 10 13  1  0  0  0
 13 14  1  0  0  0
 14 15  1  0  0  0
 14 16  1  0  0  0
 10 11  1  0  0  0
 11 12  2  0  0  0
 33 28  1  0  0  0
  1  4  1  0  0  0
 22 25  1  0  0  0
  8  9  1  0  0  0
M  END
> <minimizedAffinity>
-6.88137

> <CNNscore>
0.1671987772

> <CNNaffinity>
6.1734418869

> <CNN_VS>
1.0321919918

> <CNNaffinity_variance>
0.4288636744

$$$$
[H]OC(=O)[C@]1([H])N(S(=O)(=O)c2c([H])c([H])c(OC([H])([H])[H])c([H])c2[H])[C@]([H])(C([H])([H])[H])C([H])(C([H])([H])[H])C1([H])[H]


 22 23  0  0  0  0  0  0  0  0999 V2000
   -5.9889   23.9139  -24.6171 N   0  0  0  0  0  0  0  0  0  0  0  0
   -5.6075   25.2121  -24.1037 C   0  0  0  0  0  0  0  0  0  0  0  0
   -6.7120   25.8695  -23.3234 C   0  0  0  0  0  0  0  0  0  0  0  0
   -5.1685   26.0307  -25.2991 C   0  0  0  0  0  0  0  0  0  0  0  0
   -4.1372   27.0332  -24.8130 C   0  0  0  0  0  0  0  0  0  0  0  0
   -4.5028   24.9576  -26.1545 C   0  0  0  0  0  0  0  0  0  0  0  0
   -5.4433   23.7927  -25.9389 C   0  0  0  0  0  0  0  0  0  0  0  0
   -6.4874   23.8708  -26.9963 C   0  0  0  0  0  0  0  0  0  0  0  0
   -6.2530   23.6770  -28.2142 O   0  0  0  0  0  0  0  0  0  0  0  0
   -7.7803   24.1715  -26.6215 O   0  0  0  0  0  0  0  0  0  0  0  0
   -8.2565   25.0017  -26.9779 H   0  0  0  0  0  0  0  0  0  0  0  0
   -5.2895   22.6793  -23.6106 S   0  0  0  0  0  0  0  0  0  0  0  0
   -5.7757   21.3300  -24.1221 O   0  0  0  0  0  0  0  0  0  0  0  0
   -5.7908   22.7977  -22.2065 O   0  0  0  0  0  0  0  0  0  0  0  0
   -3.5540   22.6953  -23.6835 C   0  0  0  0  0  0  0  0  0  0  0  0
   -2.8948   21.8910  -24.5830 C   0  0  0  0  0  0  0  0  0  0  0  0
   -1.5156   21.8657  -24.6819 C   0  0  0  0  0  0  0  0  0  0  0  0
   -0.7527   22.6560  -23.8714 C   0  0  0  0  0  0  0  0  0  0  0  0
   -1.3861   23.4750  -22.9576 C   0  0  0  0  0  0  0  0  0  0  0  0
   -2.7834   23.4910  -22.8676 C   0  0  0  0  0  0  0  0  0  0  0  0
    0.6277   22.6062  -23.9969 O   0  0  0  0  0  0  0  0  0  0  0  0
    1.2750   21.3509  -24.1044 C   0  0  0  0  0  0  0  0  0  0  0  0
  1 12  1  0  0  0
 12 13  2  0  0  0
 12 15  1  0  0  0
 15 16  2  0  0  0
 16 17  1  0  0  0
 17 18  2  0  0  0
 18 21  1  0  0  0
 21 22  1  0  0  0
 18 19  1  0  0  0
 19 20  2  0  0  0
 12 14  2  0  0  0
  1  2  1  0  0  0
  2  3  1  0  0  0
  2  4  1  0  0  0
  4  5  1  0  0  0
  4  6  1  0  0  0
  6  7  1  0  0  0
  7  8  1  0  0  0
  8  9  2  0  0  0
  8 10  1  0  0  0
  7  1  1  0  0  0
 20 15  1  0  0  0
 10 11  1  0  0  0
M  END
> <minimizedAffinity>
-6.27696

> <CNNscore>
0.6080550551

> <CNNaffinity>
5.6303572655

> <CNN_VS>
3.4235672951

> <CNNaffinity_variance>
0.1300685704

$$$$
[H]OC(=O)[C@]1([H])N(S(=O)(=O)c2c([H])c([H])c(OC([H])([H])[H])c([H])c2[H])[C@]([H])(C([H])([H])[H])C([H])(C([H])([H])[H])C1([H])[H]


 22 23  0  0  0  0  0  0  0  0999 V2000
   -5.8045   23.9206  -23.5029 N   0  0  0  0  0  0  0  0  0  0  0  0
   -4.8652   24.9161  -23.9730 C   0  0  0  0  0  0  0  0  0  0  0  0
   -3.9510   25.4045  -22.8836 C   0  0  0  0  0  0  0  0  0  0  0  0
   -5.6922   26.0270  -24.5844 C   0  0  0  0  0  0  0  0  0  0  0  0
   -4.8541   26.6761  -25.6712 C   0  0  0  0  0  0  0  0  0  0  0  0
   -6.8356   25.2286  -25.2022 C   0  0  0  0  0  0  0  0  0  0  0  0
   -7.0663   24.1823  -24.1345 C   0  0  0  0  0  0  0  0  0  0  0  0
   -8.0735   24.7357  -23.1890 C   0  0  0  0  0  0  0  0  0  0  0  0
   -7.9878   24.6188  -21.9421 O   0  0  0  0  0  0  0  0  0  0  0  0
   -9.1579   25.4125  -23.7069 O   0  0  0  0  0  0  0  0  0  0  0  0
  -10.1128   25.0898  -23.5420 H   0  0  0  0  0  0  0  0  0  0  0  0
   -5.2526   22.3454  -23.9930 S   0  0  0  0  0  0  0  0  0  0  0  0
   -6.4381   21.6019  -24.5934 O   0  0  0  0  0  0  0  0  0  0  0  0
   -4.8179   21.5465  -22.8058 O   0  0  0  0  0  0  0  0  0  0  0  0
   -4.0064   22.4458  -25.1992 C   0  0  0  0  0  0  0  0  0  0  0  0
   -2.7099   22.1186  -24.8791 C   0  0  0  0  0  0  0  0  0  0  0  0
   -1.6809   22.1812  -25.8011 C   0  0  0  0  0  0  0  0  0  0  0  0
   -1.9289   22.5783  -27.0834 C   0  0  0  0  0  0  0  0  0  0  0  0
   -3.2215   22.9134  -27.4352 C   0  0  0  0  0  0  0  0  0  0  0  0
   -4.2542   22.8458  -26.4919 C   0  0  0  0  0  0  0  0  0  0  0  0
   -0.8741   22.6298  -27.9826 O   0  0  0  0  0  0  0  0  0  0  0  0
    0.4563   22.6665  -27.4982 C   0  0  0  0  0  0  0  0  0  0  0  0
  1 12  1  0  0  0
 12 13  2  0  0  0
 12 15  1  0  0  0
 15 16  2  0  0  0
 16 17  1  0  0  0
 17 18  2  0  0  0
 18 21  1  0  0  0
 21 22  1  0  0  0
 18 19  1  0  0  0
 19 20  2  0  0  0
 12 14  2  0  0  0
  1  2  1  0  0  0
  2  3  1  0  0  0
  2  4  1  0  0  0
  4  5  1  0  0  0
  4  6  1  0  0  0
  6  7  1  0  0  0
  7  8  1  0  0  0
  8  9  2  0  0  0
  8 10  1  0  0  0
  7  1  1  0  0  0
 20 15  1  0  0  0
 10 11  1  0  0  0
M  END
> <minimizedAffinity>
-6.72749

> <CNNscore>
0.4639284611

> <CNNaffinity>
5.2733182907

> <CNN_VS>
2.4464423656

> <CNNaffinity_variance>
0.1109495983

$$$$
[H]OC(=O)[C@]1([H])N(S(=O)(=O)c2c([H])c([H])c(OC([H])([H])[H])c([H])c2[H])[C@]([H])(C([H])([H])[H])C([H])(C([H])([H])[H])C1([H])[H]


 22 23  0  0  0  0  0  0  0  0999 V2000
   -4.4646   23.5734  -24.1210 N   0  0  0  0  0  0  0  0  0  0  0  0
   -5.1938   24.3146  -25.1276 C   0  0  0  0  0  0  0  0  0  0  0  0
   -4.4202   25.4951  -25.6461 C   0  0  0  0  0  0  0  0  0  0  0  0
   -6.5107   24.7106  -24.4944 C   0  0  0  0  0  0  0  0  0  0  0  0
   -7.5402   24.8119  -25.6056 C   0  0  0  0  0  0  0  0  0  0  0  0
   -6.7897   23.4906  -23.6226 C   0  0  0  0  0  0  0  0  0  0  0  0
   -5.4016   23.1810  -23.1073 C   0  0  0  0  0  0  0  0  0  0  0  0
   -5.2243   23.9424  -21.8411 C   0  0  0  0  0  0  0  0  0  0  0  0
   -6.0590   23.9278  -20.9036 O   0  0  0  0  0  0  0  0  0  0  0  0
   -4.0848   24.7041  -21.6871 O   0  0  0  0  0  0  0  0  0  0  0  0
   -4.1370   25.7142  -21.5456 H   0  0  0  0  0  0  0  0  0  0  0  0
   -3.7963   22.1404  -24.8463 S   0  0  0  0  0  0  0  0  0  0  0  0
   -3.9971   22.2430  -26.3523 O   0  0  0  0  0  0  0  0  0  0  0  0
   -4.5514   20.9264  -24.4073 O   0  0  0  0  0  0  0  0  0  0  0  0
   -2.0938   21.9939  -24.5335 C   0  0  0  0  0  0  0  0  0  0  0  0
   -1.6524   21.6112  -23.2890 C   0  0  0  0  0  0  0  0  0  0  0  0
   -0.3091   21.4793  -22.9875 C   0  0  0  0  0  0  0  0  0  0  0  0
    0.6376   21.7309  -23.9383 C   0  0  0  0  0  0  0  0  0  0  0  0
    0.2251   22.1173  -25.1983 C   0  0  0  0  0  0  0  0  0  0  0  0
   -1.1382   22.2471  -25.4904 C   0  0  0  0  0  0  0  0  0  0  0  0
    1.9758   21.5891  -23.6026 O   0  0  0  0  0  0  0  0  0  0  0  0
    2.3284   20.9398  -22.3941 C   0  0  0  0  0  0  0  0  0  0  0  0
  1 12  1  0  0  0
 12 13  2  0  0  0
 12 15  1  0  0  0
 15 16  2  0  0  0
 16 17  1  0  0  0
 17 18  2  0  0  0
 18 21  1  0  0  0
 21 22  1  0  0  0
 18 19  1  0  0  0
 19 20  2  0  0  0
 12 14  2  0  0  0
  1  2  1  0  0  0
  2  3  1  0  0  0
  2  4  1  0  0  0
  4  5  1  0  0  0
  4  6  1  0  0  0
  6  7  1  0  0  0
  7  8  1  0  0  0
  8  9  2  0  0  0
  8 10  1  0  0  0
  7  1  1  0  0  0
 20 15  1  0  0  0
 10 11  1  0  0  0
M  END
> <minimizedAffinity>
-6.80880

> <CNNscore>
0.3877313733

> <CNNaffinity>
5.1420221329

> <CNN_VS>
1.9937232733

> <CNNaffinity_variance>
0.3419752717

$$$$
[H]OC(=O)[C@]1([H])N(S(=O)(=O)c2c([H])c([H])c(OC([H])([H])[H])c([H])c2[H])[C@]([H])(C([H])([H])[H])C([H])(C([H])([H])[H])C1([H])[H]


 22 23  0  0  0  0  0  0  0  0999 V2000
   -5.8154   24.1227  -23.7158 N   0  0  0  0  0  0  0  0  0  0  0  0
   -6.9208   25.0315  -23.9315 C   0  0  0  0  0  0  0  0  0  0  0  0
   -6.4895   26.3188  -24.5780 C   0  0  0  0  0  0  0  0  0  0  0  0
   -7.5677   25.2441  -22.5794 C   0  0  0  0  0  0  0  0  0  0  0  0
   -9.0378   25.5390  -22.8171 C   0  0  0  0  0  0  0  0  0  0  0  0
   -7.3978   23.8615  -21.9581 C   0  0  0  0  0  0  0  0  0  0  0  0
   -6.0103   23.4981  -22.4385 C   0  0  0  0  0  0  0  0  0  0  0  0
   -5.0494   23.9864  -21.4124 C   0  0  0  0  0  0  0  0  0  0  0  0
   -5.2668   23.9245  -20.1775 O   0  0  0  0  0  0  0  0  0  0  0  0
   -3.8578   24.5357  -21.8374 O   0  0  0  0  0  0  0  0  0  0  0  0
   -3.6091   25.5009  -21.6144 H   0  0  0  0  0  0  0  0  0  0  0  0
   -5.8445   22.8937  -24.9467 S   0  0  0  0  0  0  0  0  0  0  0  0
   -6.9492   23.2478  -25.9331 O   0  0  0  0  0  0  0  0  0  0  0  0
   -6.2182   21.5696  -24.3605 O   0  0  0  0  0  0  0  0  0  0  0  0
   -4.3427   22.8177  -25.8166 C   0  0  0  0  0  0  0  0  0  0  0  0
   -3.2361   22.2481  -25.2323 C   0  0  0  0  0  0  0  0  0  0  0  0
   -2.0176   22.1622  -25.8807 C   0  0  0  0  0  0  0  0  0  0  0  0
   -1.8758   22.6511  -27.1473 C   0  0  0  0  0  0  0  0  0  0  0  0
   -2.9697   23.2291  -27.7609 C   0  0  0  0  0  0  0  0  0  0  0  0
   -4.1978   23.3099  -27.0931 C   0  0  0  0  0  0  0  0  0  0  0  0
   -0.6400   22.5488  -27.7686 O   0  0  0  0  0  0  0  0  0  0  0  0
    0.4999   22.1987  -27.0042 C   0  0  0  0  0  0  0  0  0  0  0  0
  1 12  1  0  0  0
 12 13  2  0  0  0
 12 15  1  0  0  0
 15 16  2  0  0  0
 16 17  1  0  0  0
 17 18  2  0  0  0
 18 21  1  0  0  0
 21 22  1  0  0  0
 18 19  1  0  0  0
 19 20  2  0  0  0
 12 14  2  0  0  0
  1  2  1  0  0  0
  2  3  1  0  0  0
  2  4  1  0  0  0
  4  5  1  0  0  0
  4  6  1  0  0  0
  6  7  1  0  0  0
  7  8  1  0  0  0
  8  9  2  0  0  0
  8 10  1  0  0  0
  7  1  1  0  0  0
 20 15  1  0  0  0
 10 11  1  0  0  0
M  END
> <minimizedAffinity>
-7.08329

> <CNNscore>
0.3566870987

> <CNNaffinity>
5.1833486557

> <CNN_VS>
1.8488335609

> <CNNaffinity_variance>
0.2255206853

$$$$
[H]OC(=O)[C@]1([H])N(S(=O)(=O)c2c([H])c([H])c(OC([H])([H])[H])c([H])c2[H])[C@]([H])(C([H])([H])[H])C([H])(C([H])([H])[H])C1([H])[H]


 22 23  0  0  0  0  0  0  0  0999 V2000
   -3.7461   23.8825  -26.2838 N   0  0  0  0  0  0  0  0  0  0  0  0
   -3.7811   23.1605  -27.5375 C   0  0  0  0  0  0  0  0  0  0  0  0
   -2.4551   23.1737  -28.2464 C   0  0  0  0  0  0  0  0  0  0  0  0
   -4.8893   23.7853  -28.3581 C   0  0  0  0  0  0  0  0  0  0  0  0
   -5.4437   22.7083  -29.2732 C   0  0  0  0  0  0  0  0  0  0  0  0
   -5.8992   24.1257  -27.2669 C   0  0  0  0  0  0  0  0  0  0  0  0
   -4.9813   24.6031  -26.1635 C   0  0  0  0  0  0  0  0  0  0  0  0
   -4.8058   26.0698  -26.3433 C   0  0  0  0  0  0  0  0  0  0  0  0
   -5.3481   26.7221  -27.2688 O   0  0  0  0  0  0  0  0  0  0  0  0
   -4.0066   26.7501  -25.4484 O   0  0  0  0  0  0  0  0  0  0  0  0
   -3.1730   27.2527  -25.7573 H   0  0  0  0  0  0  0  0  0  0  0  0
   -3.6378   22.7406  -24.9758 S   0  0  0  0  0  0  0  0  0  0  0  0
   -4.3394   21.4621  -25.4137 O   0  0  0  0  0  0  0  0  0  0  0  0
   -4.3856   23.2373  -23.7797 O   0  0  0  0  0  0  0  0  0  0  0  0
   -1.9881   22.3523  -24.5945 C   0  0  0  0  0  0  0  0  0  0  0  0
   -1.0097   22.4876  -25.5509 C   0  0  0  0  0  0  0  0  0  0  0  0
    0.3178   22.1924  -25.2996 C   0  0  0  0  0  0  0  0  0  0  0  0
    0.7029   21.7485  -24.0675 C   0  0  0  0  0  0  0  0  0  0  0  0
   -0.2572   21.6024  -23.0858 C   0  0  0  0  0  0  0  0  0  0  0  0
   -1.5980   21.9048  -23.3534 C   0  0  0  0  0  0  0  0  0  0  0  0
    2.0422   21.4616  -23.8493 O   0  0  0  0  0  0  0  0  0  0  0  0
    2.4319   20.8110  -22.6530 C   0  0  0  0  0  0  0  0  0  0  0  0
  1 12  1  0  0  0
 12 13  2  0  0  0
 12 15  1  0  0  0
 15 16  2  0  0  0
 16 17  1  0  0  0
 17 18  2  0  0  0
 18 21  1  0  0  0
 21 22  1  0  0  0
 18 19  1  0  0  0
 19 20  2  0  0  0
 12 14  2  0  0  0
  1  2  1  0  0  0
  2  3  1  0  0  0
  2  4  1  0  0  0
  4  5  1  0  0  0
  4  6  1  0  0  0
  6  7  1  0  0  0
  7  8  1  0  0  0
  8  9  2  0  0  0
  8 10  1  0  0  0
  7  1  1  0  0  0
 20 15  1  0  0  0
 10 11  1  0  0  0
M  END
> <minimizedAffinity>
-7.01591

> <CNNscore>
0.3195557594

> <CNNaffinity>
5.3926749229

> <CNN_VS>
1.7232602835

> <CNNaffinity_variance>
0.0713056251

$$$$
[H]OC(=O)[C@]1([H])N(S(=O)(=O)c2c([H])c([H])c(OC([H])([H])[H])c([H])c2[H])[C@]([H])(C([H])([H])[H])C([H])(C([H])([H])[H])C1([H])[H]


 22 23  0  0  0  0  0  0  0  0999 V2000
   -5.3245   24.0268  -23.9260 N   0  0  0  0  0  0  0  0  0  0  0  0
   -4.2972   25.0225  -24.1440 C   0  0  0  0  0  0  0  0  0  0  0  0
   -3.2337   24.9943  -23.0814 C   0  0  0  0  0  0  0  0  0  0  0  0
   -5.0078   26.3568  -24.2251 C   0  0  0  0  0  0  0  0  0  0  0  0
   -4.1819   27.2610  -25.1224 C   0  0  0  0  0  0  0  0  0  0  0  0
   -6.3011   25.9526  -24.9254 C   0  0  0  0  0  0  0  0  0  0  0  0
   -6.5857   24.6241  -24.2606 C   0  0  0  0  0  0  0  0  0  0  0  0
   -7.4202   24.9044  -23.0608 C   0  0  0  0  0  0  0  0  0  0  0  0
   -8.4874   25.5644  -23.1004 O   0  0  0  0  0  0  0  0  0  0  0  0
   -7.0019   24.4148  -21.8411 O   0  0  0  0  0  0  0  0  0  0  0  0
   -6.7952   25.0406  -21.0609 H   0  0  0  0  0  0  0  0  0  0  0  0
   -5.0447   22.6818  -24.9934 S   0  0  0  0  0  0  0  0  0  0  0  0
   -6.2218   21.7254  -24.8566 O   0  0  0  0  0  0  0  0  0  0  0  0
   -3.8333   21.9148  -24.5681 O   0  0  0  0  0  0  0  0  0  0  0  0
   -4.9440   23.1862  -26.6526 C   0  0  0  0  0  0  0  0  0  0  0  0
   -6.0906   23.3538  -27.3926 C   0  0  0  0  0  0  0  0  0  0  0  0
   -6.0662   23.7536  -28.7163 C   0  0  0  0  0  0  0  0  0  0  0  0
   -4.8766   23.9988  -29.3395 C   0  0  0  0  0  0  0  0  0  0  0  0
   -3.7074   23.8392  -28.6222 C   0  0  0  0  0  0  0  0  0  0  0  0
   -3.7461   23.4338  -27.2824 C   0  0  0  0  0  0  0  0  0  0  0  0
   -4.8880   24.3982  -30.6677 O   0  0  0  0  0  0  0  0  0  0  0  0
   -4.7492   25.7714  -30.9859 C   0  0  0  0  0  0  0  0  0  0  0  0
  1 12  1  0  0  0
 12 13  2  0  0  0
 12 15  1  0  0  0
 15 16  2  0  0  0
 16 17  1  0  0  0
 17 18  2  0  0  0
 18 21  1  0  0  0
 21 22  1  0  0  0
 18 19  1  0  0  0
 19 20  2  0  0  0
 12 14  2  0  0  0
  1  2  1  0  0  0
  2  3  1  0  0  0
  2  4  1  0  0  0
  4  5  1  0  0  0
  4  6  1  0  0  0
  6  7  1  0  0  0
  7  8  1  0  0  0
  8  9  2  0  0  0
  8 10  1  0  0  0
  7  1  1  0  0  0
 20 15  1  0  0  0
 10 11  1  0  0  0
M  END
> <minimizedAffinity>
-6.12957

> <CNNscore>
0.3069060147

> <CNNaffinity>
5.1980667114

> <CNN_VS>
1.5953179598

> <CNNaffinity_variance>
0.1168699116

$$$$
[H]OC(=O)[C@]1([H])N(S(=O)(=O)c2c([H])c([H])c(OC([H])([H])[H])c([H])c2[H])[C@]([H])(C([H])([H])[H])C([H])(C([H])([H])[H])C1([H])[H]


 22 23  0  0  0  0  0  0  0  0999 V2000
   -4.1711   23.9478  -24.3764 N   0  0  0  0  0  0  0  0  0  0  0  0
   -5.1729   24.8227  -24.9468 C   0  0  0  0  0  0  0  0  0  0  0  0
   -4.6967   26.2443  -25.0624 C   0  0  0  0  0  0  0  0  0  0  0  0
   -6.4031   24.6869  -24.0751 C   0  0  0  0  0  0  0  0  0  0  0  0
   -7.6152   24.9509  -24.9504 C   0  0  0  0  0  0  0  0  0  0  0  0
   -6.3302   23.2099  -23.7017 C   0  0  0  0  0  0  0  0  0  0  0  0
   -4.8421   23.0389  -23.4913 C   0  0  0  0  0  0  0  0  0  0  0  0
   -4.5658   23.3299  -22.0583 C   0  0  0  0  0  0  0  0  0  0  0  0
   -5.0717   22.6793  -21.1113 O   0  0  0  0  0  0  0  0  0  0  0  0
   -3.7100   24.3673  -21.7521 O   0  0  0  0  0  0  0  0  0  0  0  0
   -4.0223   25.1669  -21.1990 H   0  0  0  0  0  0  0  0  0  0  0  0
   -3.4254   23.0323  -25.6540 S   0  0  0  0  0  0  0  0  0  0  0  0
   -3.7701   21.5648  -25.4385 O   0  0  0  0  0  0  0  0  0  0  0  0
   -1.9352   23.1269  -25.5693 O   0  0  0  0  0  0  0  0  0  0  0  0
   -4.0179   23.5063  -27.2167 C   0  0  0  0  0  0  0  0  0  0  0  0
   -5.2559   23.0847  -27.6410 C   0  0  0  0  0  0  0  0  0  0  0  0
   -5.7744   23.4331  -28.8749 C   0  0  0  0  0  0  0  0  0  0  0  0
   -5.0558   24.2231  -29.7253 C   0  0  0  0  0  0  0  0  0  0  0  0
   -3.8086   24.6624  -29.3272 C   0  0  0  0  0  0  0  0  0  0  0  0
   -3.2953   24.3022  -28.0751 C   0  0  0  0  0  0  0  0  0  0  0  0
   -5.6054   24.5536  -30.9551 O   0  0  0  0  0  0  0  0  0  0  0  0
   -5.4552   25.8696  -31.4569 C   0  0  0  0  0  0  0  0  0  0  0  0
  1 12  1  0  0  0
 12 13  2  0  0  0
 12 15  1  0  0  0
 15 16  2  0  0  0
 16 17  1  0  0  0
 17 18  2  0  0  0
 18 21  1  0  0  0
 21 22  1  0  0  0
 18 19  1  0  0  0
 19 20  2  0  0  0
 12 14  2  0  0  0
  1  2  1  0  0  0
  2  3  1  0  0  0
  2  4  1  0  0  0
  4  5  1  0  0  0
  4  6  1  0  0  0
  6  7  1  0  0  0
  7  8  1  0  0  0
  8  9  2  0  0  0
  8 10  1  0  0  0
  7  1  1  0  0  0
 20 15  1  0  0  0
 10 11  1  0  0  0
M  END
> <minimizedAffinity>
-6.69629

> <CNNscore>
0.3039280474

> <CNNaffinity>
5.4334745407

> <CNN_VS>
1.6513853073

> <CNNaffinity_variance>
0.0924363285

$$$$
[H]OC(=O)[C@]1([H])N(S(=O)(=O)c2c([H])c([H])c(OC([H])([H])[H])c([H])c2[H])[C@]([H])(C([H])([H])[H])C([H])(C([H])([H])[H])C1([H])[H]


 22 23  0  0  0  0  0  0  0  0999 V2000
   -5.8979   24.4062  -23.8217 N   0  0  0  0  0  0  0  0  0  0  0  0
   -5.3222   24.9546  -25.0310 C   0  0  0  0  0  0  0  0  0  0  0  0
   -4.1639   25.8719  -24.7523 C   0  0  0  0  0  0  0  0  0  0  0  0
   -6.4518   25.6452  -25.7652 C   0  0  0  0  0  0  0  0  0  0  0  0
   -6.1357   25.5871  -27.2490 C   0  0  0  0  0  0  0  0  0  0  0  0
   -7.6185   24.7200  -25.4349 C   0  0  0  0  0  0  0  0  0  0  0  0
   -7.3231   24.3886  -23.9889 C   0  0  0  0  0  0  0  0  0  0  0  0
   -8.0078   25.4139  -23.1556 C   0  0  0  0  0  0  0  0  0  0  0  0
   -9.2550   25.4807  -23.0290 O   0  0  0  0  0  0  0  0  0  0  0  0
   -7.2346   26.3396  -22.4867 O   0  0  0  0  0  0  0  0  0  0  0  0
   -7.3290   27.3402  -22.6685 H   0  0  0  0  0  0  0  0  0  0  0  0
   -5.3405   22.7706  -23.6206 S   0  0  0  0  0  0  0  0  0  0  0  0
   -6.2640   21.8617  -24.4205 O   0  0  0  0  0  0  0  0  0  0  0  0
   -5.4683   22.3422  -22.1935 O   0  0  0  0  0  0  0  0  0  0  0  0
   -3.7225   22.5633  -24.2180 C   0  0  0  0  0  0  0  0  0  0  0  0
   -3.5140   22.1096  -25.4991 C   0  0  0  0  0  0  0  0  0  0  0  0
   -2.2473   21.9273  -26.0234 C   0  0  0  0  0  0  0  0  0  0  0  0
   -1.1437   22.1988  -25.2671 C   0  0  0  0  0  0  0  0  0  0  0  0
   -1.3210   22.6561  -23.9762 C   0  0  0  0  0  0  0  0  0  0  0  0
   -2.6091   22.8363  -23.4575 C   0  0  0  0  0  0  0  0  0  0  0  0
    0.1119   22.0050  -25.8237 O   0  0  0  0  0  0  0  0  0  0  0  0
    0.3257   22.3112  -27.1900 C   0  0  0  0  0  0  0  0  0  0  0  0
  1 12  1  0  0  0
 12 13  2  0  0  0
 12 15  1  0  0  0
 15 16  2  0  0  0
 16 17  1  0  0  0
 17 18  2  0  0  0
 18 21  1  0  0  0
 21 22  1  0  0  0
 18 19  1  0  0  0
 19 20  2  0  0  0
 12 14  2  0  0  0
  1  2  1  0  0  0
  2  3  1  0  0  0
  2  4  1  0  0  0
  4  5  1  0  0  0
  4  6  1  0  0  0
  6  7  1  0  0  0
  7  8  1  0  0  0
  8  9  2  0  0  0
  8 10  1  0  0  0
  7  1  1  0  0  0
 20 15  1  0  0  0
 10 11  1  0  0  0
M  END
> <minimizedAffinity>
-6.89699

> <CNNscore>
0.2577641904

> <CNNaffinity>
5.1171932220

> <CNN_VS>
1.3190292120

> <CNNaffinity_variance>
0.0946185961

$$$$
[H]OC(=O)[C@]1([H])N(S(=O)(=O)c2c([H])c([H])c(OC([H])([H])[H])c([H])c2[H])[C@]([H])(C([H])([H])[H])C([H])(C([H])([H])[H])C1([H])[H]


 22 23  0  0  0  0  0  0  0  0999 V2000
   -3.9801   24.2620  -27.5847 N   0  0  0  0  0  0  0  0  0  0  0  0
   -3.9989   24.1946  -29.0302 C   0  0  0  0  0  0  0  0  0  0  0  0
   -3.1748   25.2787  -29.6677 C   0  0  0  0  0  0  0  0  0  0  0  0
   -5.4552   24.2492  -29.4402 C   0  0  0  0  0  0  0  0  0  0  0  0
   -5.5908   23.4904  -30.7481 C   0  0  0  0  0  0  0  0  0  0  0  0
   -6.1043   23.4666  -28.3033 C   0  0  0  0  0  0  0  0  0  0  0  0
   -5.3038   23.9614  -27.1191 C   0  0  0  0  0  0  0  0  0  0  0  0
   -6.0064   25.1596  -26.5850 C   0  0  0  0  0  0  0  0  0  0  0  0
   -7.2538   25.2981  -26.6121 O   0  0  0  0  0  0  0  0  0  0  0  0
   -5.2504   26.1715  -26.0311 O   0  0  0  0  0  0  0  0  0  0  0  0
   -5.2665   27.1173  -26.4160 H   0  0  0  0  0  0  0  0  0  0  0  0
   -2.8875   23.0530  -26.9757 S   0  0  0  0  0  0  0  0  0  0  0  0
   -1.4747   23.6138  -27.0652 O   0  0  0  0  0  0  0  0  0  0  0  0
   -2.9089   21.8371  -27.8463 O   0  0  0  0  0  0  0  0  0  0  0  0
   -3.2151   22.6670  -25.3139 C   0  0  0  0  0  0  0  0  0  0  0  0
   -3.7803   21.4573  -24.9861 C   0  0  0  0  0  0  0  0  0  0  0  0
   -4.0613   21.1006  -23.6798 C   0  0  0  0  0  0  0  0  0  0  0  0
   -3.7791   21.9585  -22.6561 C   0  0  0  0  0  0  0  0  0  0  0  0
   -3.2108   23.1814  -22.9539 C   0  0  0  0  0  0  0  0  0  0  0  0
   -2.9315   23.5303  -24.2809 C   0  0  0  0  0  0  0  0  0  0  0  0
   -4.0736   21.5694  -21.3578 O   0  0  0  0  0  0  0  0  0  0  0  0
   -4.7318   22.4740  -20.4891 C   0  0  0  0  0  0  0  0  0  0  0  0
  1 12  1  0  0  0
 12 13  2  0  0  0
 12 15  1  0  0  0
 15 16  2  0  0  0
 16 17  1  0  0  0
 17 18  2  0  0  0
 18 21  1  0  0  0
 21 22  1  0  0  0
 18 19  1  0  0  0
 19 20  2  0  0  0
 12 14  2  0  0  0
  1  2  1  0  0  0
  2  3  1  0  0  0
  2  4  1  0  0  0
  4  5  1  0  0  0
  4  6  1  0  0  0
  6  7  1  0  0  0
  7  8  1  0  0  0
  8  9  2  0  0  0
  8 10  1  0  0  0
  7  1  1  0  0  0
 20 15  1  0  0  0
 10 11  1  0  0  0
M  END
> <minimizedAffinity>
-5.79422

> <CNNscore>
0.2504081428

> <CNNaffinity>
5.2855229378

> <CNN_VS>
1.3235379457

> <CNNaffinity_variance>
0.1201676354

$$$$
[H]c1nc(N([H])C2([H])C([H])([H])C2([H])[H])c2c([H])c([H])n(C(=O)N3C([H])([H])C([H])([H])C([H])(C([H])([H])C([H])([H])N=S(=O)(N([H])[H])C([H])([H])[H])C([H])([H])C3([H])[H])c2n1


 31 34  0  0  0  0  0  0  0  0999 V2000
   -4.0918   22.2975  -24.8677 C   0  0  0  0  0  0  0  0  0  0  0  0
   -3.0715   21.9991  -25.9602 C   0  0  0  0  0  0  0  0  0  0  0  0
   -1.8264   22.8561  -25.7531 C   0  0  0  0  0  0  0  0  0  0  0  0
   -1.2788   22.4684  -24.4093 N   0  0  0  0  0  0  0  0  0  0  0  0
   -2.2169   22.7365  -23.3702 C   0  0  0  0  0  0  0  0  0  0  0  0
   -3.5491   23.3229  -23.9431 C   0  0  0  0  0  0  0  0  0  0  0  0
   -0.0166   21.9385  -24.3824 C   0  0  0  0  0  0  0  0  0  0  0  0
    0.4995   21.8672  -25.6182 O   0  0  0  0  0  0  0  0  0  0  0  0
    0.8674   21.4564  -23.4127 N   0  0  0  0  0  0  0  0  0  0  0  0
    2.1207   20.9667  -23.7116 C   0  0  0  0  0  0  0  0  0  0  0  0
    2.7610   20.5694  -22.5785 C   0  0  0  0  0  0  0  0  0  0  0  0
    1.9041   20.8083  -21.5358 C   0  0  0  0  0  0  0  0  0  0  0  0
    2.0226   20.6052  -20.1886 C   0  0  0  0  0  0  0  0  0  0  0  0
    1.0210   20.9298  -19.3624 N   0  0  0  0  0  0  0  0  0  0  0  0
   -0.1154   21.4650  -19.8875 C   0  0  0  0  0  0  0  0  0  0  0  0
   -0.2091   21.6538  -21.1996 N   0  0  0  0  0  0  0  0  0  0  0  0
    0.7322   21.3602  -22.0776 C   0  0  0  0  0  0  0  0  0  0  0  0
    3.2390   20.0383  -19.6786 N   0  0  0  0  0  0  0  0  0  0  0  0
    3.4501   19.0501  -19.8813 H   0  0  0  0  0  0  0  0  0  0  0  0
    4.1574   20.8193  -18.8980 C   0  0  0  0  0  0  0  0  0  0  0  0
    4.4039   22.2286  -19.3256 C   0  0  0  0  0  0  0  0  0  0  0  0
    5.4650   21.1837  -19.4943 C   0  0  0  0  0  0  0  0  0  0  0  0
   -5.4452   22.5323  -25.4256 C   0  0  0  0  0  0  0  0  0  0  0  0
   -5.7309   23.8609  -26.0031 C   0  0  0  0  0  0  0  0  0  0  0  0
   -5.3234   23.0646  -29.6305 C   0  0  0  0  0  0  0  0  0  0  0  0
   -5.5375   24.4274  -28.5083 S   0  0  0  0  0  0  0  0  0  0  0  0
   -6.3676   25.7167  -29.2986 N   0  0  0  0  0  0  0  0  0  0  0  0
   -4.2345   24.9606  -28.0184 O   0  0  0  0  0  0  0  0  0  0  0  0
   -6.3148   23.9051  -27.2789 N   0  0  0  0  0  0  0  0  0  0  0  0
   -5.9324   26.6422  -29.1277 H   0  0  0  0  0  0  0  0  0  0  0  0
   -7.3760   25.6860  -29.0773 H   0  0  0  0  0  0  0  0  0  0  0  0
 25 26  1  0  0  0
 26 27  1  0  0  0
 26 28  2  0  0  0
 26 29  2  0  0  0
 29 24  1  0  0  0
 24 23  1  0  0  0
 23  1  1  0  0  0
  1  2  1  0  0  0
  2  3  1  0  0  0
  3  4  1  0  0  0
  4  5  1  0  0  0
  5  6  1  0  0  0
  4  7  1  0  0  0
  7  8  2  0  0  0
  7  9  1  0  0  0
  9 10  1  0  0  0
 10 11  2  0  0  0
 11 12  1  0  0  0
 12 13  2  0  0  0
 13 18  1  0  0  0
 18 20  1  0  0  0
 20 21  1  0  0  0
 21 22  1  0  0  0
 13 14  1  0  0  0
 14 15  2  0  0  0
 15 16  1  0  0  0
 16 17  2  0  0  0
  6  1  1  0  0  0
 17  9  1  0  0  0
 17 12  1  0  0  0
 22 20  1  0  0  0
 27 30  1  0  0  0
 27 31  1  0  0  0
 18 19  1  0  0  0
M  END
> <minimizedAffinity>
-7.06264

> <CNNscore>
0.3841177821

> <CNNaffinity>
6.5516920090

> <CNN_VS>
2.5166213512

> <CNNaffinity_variance>
0.3010905385

$$$$
[H]c1nc(N([H])C2([H])C([H])([H])C2([H])[H])c2c([H])c([H])n(C(=O)N3C([H])([H])C([H])([H])C([H])(C([H])([H])C([H])([H])N=S(=O)(N([H])[H])C([H])([H])[H])C([H])([H])C3([H])[H])c2n1


 31 34  0  0  0  0  0  0  0  0999 V2000
   -4.0651   21.7136  -23.9951 C   0  0  0  0  0  0  0  0  0  0  0  0
   -3.1433   21.5665  -25.2002 C   0  0  0  0  0  0  0  0  0  0  0  0
   -1.9728   22.5373  -25.0775 C   0  0  0  0  0  0  0  0  0  0  0  0
   -1.2495   22.1529  -23.8186 N   0  0  0  0  0  0  0  0  0  0  0  0
   -2.0927   22.2805  -22.6765 C   0  0  0  0  0  0  0  0  0  0  0  0
   -3.5294   22.7504  -23.0791 C   0  0  0  0  0  0  0  0  0  0  0  0
    0.0541   21.7546  -23.9482 C   0  0  0  0  0  0  0  0  0  0  0  0
    0.4396   21.7874  -25.2323 O   0  0  0  0  0  0  0  0  0  0  0  0
    1.0795   21.3262  -23.1002 N   0  0  0  0  0  0  0  0  0  0  0  0
    2.3354   20.9803  -23.5506 C   0  0  0  0  0  0  0  0  0  0  0  0
    3.1290   20.6045  -22.5109 C   0  0  0  0  0  0  0  0  0  0  0  0
    2.3693   20.7113  -21.3751 C   0  0  0  0  0  0  0  0  0  0  0  0
    2.6504   20.4662  -20.0594 C   0  0  0  0  0  0  0  0  0  0  0  0
    1.7160   20.6522  -19.1194 N   0  0  0  0  0  0  0  0  0  0  0  0
    0.4832   21.0892  -19.4972 C   0  0  0  0  0  0  0  0  0  0  0  0
    0.2317   21.3211  -20.7814 N   0  0  0  0  0  0  0  0  0  0  0  0
    1.0978   21.1619  -21.7650 C   0  0  0  0  0  0  0  0  0  0  0  0
    3.9638   20.0065  -19.7064 N   0  0  0  0  0  0  0  0  0  0  0  0
    4.2814   19.0913  -20.0582 H   0  0  0  0  0  0  0  0  0  0  0  0
    4.8337   20.7946  -18.8787 C   0  0  0  0  0  0  0  0  0  0  0  0
    4.8825   22.2656  -19.1304 C   0  0  0  0  0  0  0  0  0  0  0  0
    6.0460   21.3915  -19.4887 C   0  0  0  0  0  0  0  0  0  0  0  0
   -5.4868   21.8310  -24.3988 C   0  0  0  0  0  0  0  0  0  0  0  0
   -6.5169   21.6062  -23.3649 C   0  0  0  0  0  0  0  0  0  0  0  0
   -6.7748   22.5911  -19.7703 C   0  0  0  0  0  0  0  0  0  0  0  0
   -7.7325   22.4671  -21.2636 S   0  0  0  0  0  0  0  0  0  0  0  0
   -8.9849   23.6535  -21.2606 N   0  0  0  0  0  0  0  0  0  0  0  0
   -8.3755   21.1300  -21.4081 O   0  0  0  0  0  0  0  0  0  0  0  0
   -6.7666   22.6470  -22.4565 N   0  0  0  0  0  0  0  0  0  0  0  0
   -9.9042   23.2710  -21.5499 H   0  0  0  0  0  0  0  0  0  0  0  0
   -8.6947   24.4859  -21.7987 H   0  0  0  0  0  0  0  0  0  0  0  0
 25 26  1  0  0  0
 26 27  1  0  0  0
 26 28  2  0  0  0
 26 29  2  0  0  0
 29 24  1  0  0  0
 24 23  1  0  0  0
 23  1  1  0  0  0
  1  2  1  0  0  0
  2  3  1  0  0  0
  3  4  1  0  0  0
  4  5  1  0  0  0
  5  6  1  0  0  0
  4  7  1  0  0  0
  7  8  2  0  0  0
  7  9  1  0  0  0
  9 10  1  0  0  0
 10 11  2  0  0  0
 11 12  1  0  0  0
 12 13  2  0  0  0
 13 18  1  0  0  0
 18 20  1  0  0  0
 20 21  1  0  0  0
 21 22  1  0  0  0
 13 14  1  0  0  0
 14 15  2  0  0  0
 15 16  1  0  0  0
 16 17  2  0  0  0
  6  1  1  0  0  0
 17  9  1  0  0  0
 17 12  1  0  0  0
 22 20  1  0  0  0
 27 30  1  0  0  0
 27 31  1  0  0  0
 18 19  1  0  0  0
M  END
> <minimizedAffinity>
-6.39484

> <CNNscore>
0.3761433363

> <CNNaffinity>
6.0397806168

> <CNN_VS>
2.2718231678

> <CNNaffinity_variance>
0.0608716197

$$$$
[H]c1nc(N([H])C2([H])C([H])([H])C2([H])[H])c2c([H])c([H])n(C(=O)N3C([H])([H])C([H])([H])C([H])(C([H])([H])C([H])([H])N=S(=O)(N([H])[H])C([H])([H])[H])C([H])([H])C3([H])[H])c2n1


 31 34  0  0  0  0  0  0  0  0999 V2000
   -5.1564   24.2046  -25.6920 C   0  0  0  0  0  0  0  0  0  0  0  0
   -5.6792   23.9082  -24.2911 C   0  0  0  0  0  0  0  0  0  0  0  0
   -5.4381   22.4412  -23.9488 C   0  0  0  0  0  0  0  0  0  0  0  0
   -3.9499   22.2454  -24.0014 N   0  0  0  0  0  0  0  0  0  0  0  0
   -3.4367   22.5189  -25.3027 C   0  0  0  0  0  0  0  0  0  0  0  0
   -4.5716   22.9737  -26.2784 C   0  0  0  0  0  0  0  0  0  0  0  0
   -3.3341   21.8512  -22.8438 C   0  0  0  0  0  0  0  0  0  0  0  0
   -4.2243   21.7149  -21.8499 O   0  0  0  0  0  0  0  0  0  0  0  0
   -2.0318   21.5561  -22.4299 N   0  0  0  0  0  0  0  0  0  0  0  0
   -1.7180   21.1724  -21.1438 C   0  0  0  0  0  0  0  0  0  0  0  0
   -0.3810   20.9485  -21.0249 C   0  0  0  0  0  0  0  0  0  0  0  0
    0.1716   21.1926  -22.2552 C   0  0  0  0  0  0  0  0  0  0  0  0
    1.4597   21.1261  -22.7096 C   0  0  0  0  0  0  0  0  0  0  0  0
    1.7462   21.4197  -23.9835 N   0  0  0  0  0  0  0  0  0  0  0  0
    0.7331   21.7848  -24.8165 C   0  0  0  0  0  0  0  0  0  0  0  0
   -0.5114   21.8429  -24.3538 N   0  0  0  0  0  0  0  0  0  0  0  0
   -0.8735   21.5693  -23.1141 C   0  0  0  0  0  0  0  0  0  0  0  0
    2.4964   20.7364  -21.7962 N   0  0  0  0  0  0  0  0  0  0  0  0
    2.6843   21.3299  -20.9749 H   0  0  0  0  0  0  0  0  0  0  0  0
    3.2683   19.5437  -22.0071 C   0  0  0  0  0  0  0  0  0  0  0  0
    3.4356   18.6144  -20.8503 C   0  0  0  0  0  0  0  0  0  0  0  0
    4.5915   19.4282  -21.3482 C   0  0  0  0  0  0  0  0  0  0  0  0
   -6.1512   24.9410  -26.5081 C   0  0  0  0  0  0  0  0  0  0  0  0
   -5.6471   25.7988  -27.5993 C   0  0  0  0  0  0  0  0  0  0  0  0
   -5.8009   24.2258  -30.9846 C   0  0  0  0  0  0  0  0  0  0  0  0
   -5.5523   25.7886  -30.1732 S   0  0  0  0  0  0  0  0  0  0  0  0
   -6.0955   27.0728  -31.1890 N   0  0  0  0  0  0  0  0  0  0  0  0
   -4.1160   26.0356  -29.8598 O   0  0  0  0  0  0  0  0  0  0  0  0
   -6.3179   25.7475  -28.8314 N   0  0  0  0  0  0  0  0  0  0  0  0
   -5.4238   27.8612  -31.2374 H   0  0  0  0  0  0  0  0  0  0  0  0
   -7.0526   27.3596  -30.9274 H   0  0  0  0  0  0  0  0  0  0  0  0
 25 26  1  0  0  0
 26 27  1  0  0  0
 26 28  2  0  0  0
 26 29  2  0  0  0
 29 24  1  0  0  0
 24 23  1  0  0  0
 23  1  1  0  0  0
  1  2  1  0  0  0
  2  3  1  0  0  0
  3  4  1  0  0  0
  4  5  1  0  0  0
  5  6  1  0  0  0
  4  7  1  0  0  0
  7  8  2  0  0  0
  7  9  1  0  0  0
  9 10  1  0  0  0
 10 11  2  0  0  0
 11 12  1  0  0  0
 12 13  2  0  0  0
 13 18  1  0  0  0
 18 20  1  0  0  0
 20 21  1  0  0  0
 21 22  1  0  0  0
 13 14  1  0  0  0
 14 15  2  0  0  0
 15 16  1  0  0  0
 16 17  2  0  0  0
  6  1  1  0  0  0
 17  9  1  0  0  0
 17 12  1  0  0  0
 22 20  1  0  0  0
 27 30  1  0  0  0
 27 31  1  0  0  0
 18 19  1  0  0  0
M  END
> <minimizedAffinity>
-7.71943

> <CNNscore>
0.3341416717

> <CNNaffinity>
6.9226188660

> <CNN_VS>
2.3131353855

> <CNNaffinity_variance>
0.5710805655

$$$$
[H]c1nc(N([H])C2([H])C([H])([H])C2([H])[H])c2c([H])c([H])n(C(=O)N3C([H])([H])C([H])([H])C([H])(C([H])([H])C([H])([H])N=S(=O)(N([H])[H])C([H])([H])[H])C([H])([H])C3([H])[H])c2n1


 31 34  0  0  0  0  0  0  0  0999 V2000
   -2.1151   22.6537  -21.1039 C   0  0  0  0  0  0  0  0  0  0  0  0
   -0.8688   22.4767  -21.9635 C   0  0  0  0  0  0  0  0  0  0  0  0
   -1.1148   21.3997  -23.0156 C   0  0  0  0  0  0  0  0  0  0  0  0
   -2.2586   21.8959  -23.8529 N   0  0  0  0  0  0  0  0  0  0  0  0
   -3.4366   22.0712  -23.0699 C   0  0  0  0  0  0  0  0  0  0  0  0
   -3.1773   21.7268  -21.5662 C   0  0  0  0  0  0  0  0  0  0  0  0
   -2.0118   22.0975  -25.1845 C   0  0  0  0  0  0  0  0  0  0  0  0
   -0.7395   21.7996  -25.4865 O   0  0  0  0  0  0  0  0  0  0  0  0
   -2.7323   22.5289  -26.3022 N   0  0  0  0  0  0  0  0  0  0  0  0
   -2.1809   22.6312  -27.5613 C   0  0  0  0  0  0  0  0  0  0  0  0
   -3.1079   23.0731  -28.4542 C   0  0  0  0  0  0  0  0  0  0  0  0
   -4.2730   23.2571  -27.7560 C   0  0  0  0  0  0  0  0  0  0  0  0
   -5.5139   23.6830  -28.1419 C   0  0  0  0  0  0  0  0  0  0  0  0
   -6.5067   23.7788  -27.2495 N   0  0  0  0  0  0  0  0  0  0  0  0
   -6.2583   23.4447  -25.9533 C   0  0  0  0  0  0  0  0  0  0  0  0
   -5.0450   23.0332  -25.6002 N   0  0  0  0  0  0  0  0  0  0  0  0
   -4.0165   22.9126  -26.4191 C   0  0  0  0  0  0  0  0  0  0  0  0
   -5.7308   24.0248  -29.5192 N   0  0  0  0  0  0  0  0  0  0  0  0
   -5.9308   23.2710  -30.1930 H   0  0  0  0  0  0  0  0  0  0  0  0
   -5.6743   25.3878  -29.9684 C   0  0  0  0  0  0  0  0  0  0  0  0
   -5.4221   25.6277  -31.4205 C   0  0  0  0  0  0  0  0  0  0  0  0
   -4.3680   25.9393  -30.4017 C   0  0  0  0  0  0  0  0  0  0  0  0
   -1.7926   22.6516  -19.6568 C   0  0  0  0  0  0  0  0  0  0  0  0
   -0.5314   23.2911  -19.2316 C   0  0  0  0  0  0  0  0  0  0  0  0
    2.1060   22.6545  -16.6631 C   0  0  0  0  0  0  0  0  0  0  0  0
    1.8879   23.0237  -18.3890 S   0  0  0  0  0  0  0  0  0  0  0  0
    3.1862   22.3509  -19.3041 N   0  0  0  0  0  0  0  0  0  0  0  0
    1.8627   24.4912  -18.6498 O   0  0  0  0  0  0  0  0  0  0  0  0
    0.5179   22.4538  -18.8211 N   0  0  0  0  0  0  0  0  0  0  0  0
    3.5763   23.0138  -19.9995 H   0  0  0  0  0  0  0  0  0  0  0  0
    2.9095   21.4417  -19.7085 H   0  0  0  0  0  0  0  0  0  0  0  0
 25 26  1  0  0  0
 26 27  1  0  0  0
 26 28  2  0  0  0
 26 29  2  0  0  0
 29 24  1  0  0  0
 24 23  1  0  0  0
 23  1  1  0  0  0
  1  2  1  0  0  0
  2  3  1  0  0  0
  3  4  1  0  0  0
  4  5  1  0  0  0
  5  6  1  0  0  0
  4  7  1  0  0  0
  7  8  2  0  0  0
  7  9  1  0  0  0
  9 10  1  0  0  0
 10 11  2  0  0  0
 11 12  1  0  0  0
 12 13  2  0  0  0
 13 18  1  0  0  0
 18 20  1  0  0  0
 20 21  1  0  0  0
 21 22  1  0  0  0
 13 14  1  0  0  0
 14 15  2  0  0  0
 15 16  1  0  0  0
 16 17  2  0  0  0
  6  1  1  0  0  0
 17  9  1  0  0  0
 17 12  1  0  0  0
 22 20  1  0  0  0
 27 30  1  0  0  0
 27 31  1  0  0  0
 18 19  1  0  0  0
M  END
> <minimizedAffinity>
-8.39085

> <CNNscore>
0.2548665106

> <CNNaffinity>
6.2893104553

> <CNN_VS>
1.6029345989

> <CNNaffinity_variance>
0.1060823202

$$$$
[H]c1nc(N([H])C2([H])C([H])([H])C2([H])[H])c2c([H])c([H])n(C(=O)N3C([H])([H])C([H])([H])C([H])(C([H])([H])C([H])([H])N=S(=O)(N([H])[H])C([H])([H])[H])C([H])([H])C3([H])[H])c2n1


 31 34  0  0  0  0  0  0  0  0999 V2000
   -2.3608   22.6304  -20.9606 C   0  0  0  0  0  0  0  0  0  0  0  0
   -1.0849   22.4637  -21.7780 C   0  0  0  0  0  0  0  0  0  0  0  0
   -1.2893   21.3901  -22.8426 C   0  0  0  0  0  0  0  0  0  0  0  0
   -2.4066   21.8843  -23.7162 N   0  0  0  0  0  0  0  0  0  0  0  0
   -3.6114   22.0500  -22.9730 C   0  0  0  0  0  0  0  0  0  0  0  0
   -3.4016   21.7001  -21.4628 C   0  0  0  0  0  0  0  0  0  0  0  0
   -2.1157   22.0932  -25.0377 C   0  0  0  0  0  0  0  0  0  0  0  0
   -0.8322   21.8032  -25.2974 O   0  0  0  0  0  0  0  0  0  0  0  0
   -2.7999   22.5259  -26.1774 N   0  0  0  0  0  0  0  0  0  0  0  0
   -2.2066   22.6368  -27.4165 C   0  0  0  0  0  0  0  0  0  0  0  0
   -3.1050   23.0779  -28.3385 C   0  0  0  0  0  0  0  0  0  0  0  0
   -4.2941   23.2527  -27.6796 C   0  0  0  0  0  0  0  0  0  0  0  0
   -5.5234   23.6740  -28.1057 C   0  0  0  0  0  0  0  0  0  0  0  0
   -6.5465   23.7606  -27.2473 N   0  0  0  0  0  0  0  0  0  0  0  0
   -6.3406   23.4219  -25.9448 C   0  0  0  0  0  0  0  0  0  0  0  0
   -5.1378   23.0151  -25.5524 N   0  0  0  0  0  0  0  0  0  0  0  0
   -4.0814   22.9035  -26.3363 C   0  0  0  0  0  0  0  0  0  0  0  0
   -5.6951   24.0209  -29.4882 N   0  0  0  0  0  0  0  0  0  0  0  0
   -5.8774   23.2701  -30.1702 H   0  0  0  0  0  0  0  0  0  0  0  0
   -5.6177   25.3849  -29.9312 C   0  0  0  0  0  0  0  0  0  0  0  0
   -5.4312   25.6280  -31.3926 C   0  0  0  0  0  0  0  0  0  0  0  0
   -4.3179   25.8982  -30.4264 C   0  0  0  0  0  0  0  0  0  0  0  0
   -2.0877   22.6234  -19.5034 C   0  0  0  0  0  0  0  0  0  0  0  0
   -1.7392   21.3337  -18.8744 C   0  0  0  0  0  0  0  0  0  0  0  0
    1.8971   21.2188  -19.7241 C   0  0  0  0  0  0  0  0  0  0  0  0
    0.5784   20.2257  -19.0628 S   0  0  0  0  0  0  0  0  0  0  0  0
    1.2132   19.0642  -17.9566 N   0  0  0  0  0  0  0  0  0  0  0  0
   -0.1535   19.4836  -20.1285 O   0  0  0  0  0  0  0  0  0  0  0  0
   -0.4323   21.1788  -18.3858 N   0  0  0  0  0  0  0  0  0  0  0  0
    0.8250   18.1138  -18.1018 H   0  0  0  0  0  0  0  0  0  0  0  0
    1.1238   19.4042  -16.9855 H   0  0  0  0  0  0  0  0  0  0  0  0
 25 26  1  0  0  0
 26 27  1  0  0  0
 26 28  2  0  0  0
 26 29  2  0  0  0
 29 24  1  0  0  0
 24 23  1  0  0  0
 23  1  1  0  0  0
  1  2  1  0  0  0
  2  3  1  0  0  0
  3  4  1  0  0  0
  4  5  1  0  0  0
  5  6  1  0  0  0
  4  7  1  0  0  0
  7  8  2  0  0  0
  7  9  1  0  0  0
  9 10  1  0  0  0
 10 11  2  0  0  0
 11 12  1  0  0  0
 12 13  2  0  0  0
 13 18  1  0  0  0
 18 20  1  0  0  0
 20 21  1  0  0  0
 21 22  1  0  0  0
 13 14  1  0  0  0
 14 15  2  0  0  0
 15 16  1  0  0  0
 16 17  2  0  0  0
  6  1  1  0  0  0
 17  9  1  0  0  0
 17 12  1  0  0  0
 22 20  1  0  0  0
 27 30  1  0  0  0
 27 31  1  0  0  0
 18 19  1  0  0  0
M  END
> <minimizedAffinity>
-7.73549

> <CNNscore>
0.1715737283

> <CNNaffinity>
6.3034739494

> <CNN_VS>
1.0815105438

> <CNNaffinity_variance>
0.1632122397

$$$$
[H]c1nc(N([H])C2([H])C([H])([H])C2([H])[H])c2c([H])c([H])n(C(=O)N3C([H])([H])C([H])([H])C([H])(C([H])([H])C([H])([H])N=S(=O)(N([H])[H])C([H])([H])[H])C([H])([H])C3([H])[H])c2n1


 31 34  0  0  0  0  0  0  0  0999 V2000
   -5.3530   25.5427  -25.7002 C   0  0  0  0  0  0  0  0  0  0  0  0
   -4.7864   24.1494  -25.4524 C   0  0  0  0  0  0  0  0  0  0  0  0
   -4.4552   23.9815  -23.9727 C   0  0  0  0  0  0  0  0  0  0  0  0
   -5.7539   24.1537  -23.2382 N   0  0  0  0  0  0  0  0  0  0  0  0
   -6.3050   25.4500  -23.4563 C   0  0  0  0  0  0  0  0  0  0  0  0
   -5.4100   26.2941  -24.4223 C   0  0  0  0  0  0  0  0  0  0  0  0
   -6.1966   23.0881  -22.5010 C   0  0  0  0  0  0  0  0  0  0  0  0
   -5.3432   22.0572  -22.5890 O   0  0  0  0  0  0  0  0  0  0  0  0
   -7.2954   22.7957  -21.6879 N   0  0  0  0  0  0  0  0  0  0  0  0
   -7.4657   21.5813  -21.0585 C   0  0  0  0  0  0  0  0  0  0  0  0
   -8.6176   21.5763  -20.3339 C   0  0  0  0  0  0  0  0  0  0  0  0
   -9.1954   22.8079  -20.5015 C   0  0  0  0  0  0  0  0  0  0  0  0
  -10.3502   23.3517  -20.0107 C   0  0  0  0  0  0  0  0  0  0  0  0
  -10.7001   24.6035  -20.3295 N   0  0  0  0  0  0  0  0  0  0  0  0
   -9.8863   25.3236  -21.1496 C   0  0  0  0  0  0  0  0  0  0  0  0
   -8.7688   24.7755  -21.6152 N   0  0  0  0  0  0  0  0  0  0  0  0
   -8.3559   23.5504  -21.3475 C   0  0  0  0  0  0  0  0  0  0  0  0
  -11.1782   22.5560  -19.1491 N   0  0  0  0  0  0  0  0  0  0  0  0
  -11.8380   21.8871  -19.5727 H   0  0  0  0  0  0  0  0  0  0  0  0
  -11.1018   22.6763  -17.7200 C   0  0  0  0  0  0  0  0  0  0  0  0
  -10.1089   21.8197  -17.0058 C   0  0  0  0  0  0  0  0  0  0  0  0
  -11.5776   21.5467  -16.8857 C   0  0  0  0  0  0  0  0  0  0  0  0
   -4.6984   26.2079  -26.8522 C   0  0  0  0  0  0  0  0  0  0  0  0
   -4.5744   25.4434  -28.1094 C   0  0  0  0  0  0  0  0  0  0  0  0
   -5.9572   24.2342  -31.3627 C   0  0  0  0  0  0  0  0  0  0  0  0
   -5.3768   25.7019  -30.5433 S   0  0  0  0  0  0  0  0  0  0  0  0
   -6.1826   27.0888  -31.1780 N   0  0  0  0  0  0  0  0  0  0  0  0
   -3.9116   25.9052  -30.7281 O   0  0  0  0  0  0  0  0  0  0  0  0
   -5.6317   25.5258  -29.0293 N   0  0  0  0  0  0  0  0  0  0  0  0
   -5.5362   27.8736  -31.3819 H   0  0  0  0  0  0  0  0  0  0  0  0
   -6.9769   27.3531  -30.5730 H   0  0  0  0  0  0  0  0  0  0  0  0
 25 26  1  0  0  0
 26 27  1  0  0  0
 26 28  2  0  0  0
 26 29  2  0  0  0
 29 24  1  0  0  0
 24 23  1  0  0  0
 23  1  1  0  0  0
  1  2  1  0  0  0
  2  3  1  0  0  0
  3  4  1  0  0  0
  4  5  1  0  0  0
  5  6  1  0  0  0
  4  7  1  0  0  0
  7  8  2  0  0  0
  7  9  1  0  0  0
  9 10  1  0  0  0
 10 11  2  0  0  0
 11 12  1  0  0  0
 12 13  2  0  0  0
 13 18  1  0  0  0
 18 20  1  0  0  0
 20 21  1  0  0  0
 21 22  1  0  0  0
 13 14  1  0  0  0
 14 15  2  0  0  0
 15 16  1  0  0  0
 16 17  2  0  0  0
  6  1  1  0  0  0
 17  9  1  0  0  0
 17 12  1  0  0  0
 22 20  1  0  0  0
 27 30  1  0  0  0
 27 31  1  0  0  0
 18 19  1  0  0  0
M  END
> <minimizedAffinity>
-7.33565

> <CNNscore>
0.1708945930

> <CNNaffinity>
6.0141425133

> <CNN_VS>
1.0277844667

> <CNNaffinity_variance>
0.1310792267

$$$$
[H]c1nc(N([H])C2([H])C([H])([H])C2([H])[H])c2c([H])c([H])n(C(=O)N3C([H])([H])C([H])([H])C([H])(C([H])([H])C([H])([H])N=S(=O)(N([H])[H])C([H])([H])[H])C([H])([H])C3([H])[H])c2n1


 31 34  0  0  0  0  0  0  0  0999 V2000
   -6.0338   22.3921  -17.0150 C   0  0  0  0  0  0  0  0  0  0  0  0
   -6.8986   21.3020  -17.6375 C   0  0  0  0  0  0  0  0  0  0  0  0
   -7.8249   21.9119  -18.6852 C   0  0  0  0  0  0  0  0  0  0  0  0
   -6.9270   22.5208  -19.7238 N   0  0  0  0  0  0  0  0  0  0  0  0
   -6.1060   23.5430  -19.1646 C   0  0  0  0  0  0  0  0  0  0  0  0
   -6.3611   23.7022  -17.6295 C   0  0  0  0  0  0  0  0  0  0  0  0
   -7.0253   22.0262  -20.9968 C   0  0  0  0  0  0  0  0  0  0  0  0
   -7.9443   21.0516  -21.0624 O   0  0  0  0  0  0  0  0  0  0  0  0
   -6.4240   22.2689  -22.2353 N   0  0  0  0  0  0  0  0  0  0  0  0
   -6.7501   21.5749  -23.3807 C   0  0  0  0  0  0  0  0  0  0  0  0
   -6.0124   22.0190  -24.4345 C   0  0  0  0  0  0  0  0  0  0  0  0
   -5.1999   23.0142  -23.9568 C   0  0  0  0  0  0  0  0  0  0  0  0
   -4.2638   23.8031  -24.5662 C   0  0  0  0  0  0  0  0  0  0  0  0
   -3.5905   24.7228  -23.8647 N   0  0  0  0  0  0  0  0  0  0  0  0
   -3.8547   24.8576  -22.5360 C   0  0  0  0  0  0  0  0  0  0  0  0
   -4.7685   24.0803  -21.9641 N   0  0  0  0  0  0  0  0  0  0  0  0
   -5.4726   23.1529  -22.5864 C   0  0  0  0  0  0  0  0  0  0  0  0
   -4.0175   23.6265  -25.9695 N   0  0  0  0  0  0  0  0  0  0  0  0
   -4.3656   24.3381  -26.6287 H   0  0  0  0  0  0  0  0  0  0  0  0
   -3.3005   22.4846  -26.4641 C   0  0  0  0  0  0  0  0  0  0  0  0
   -2.0298   22.1133  -25.7732 C   0  0  0  0  0  0  0  0  0  0  0  0
   -2.0048   22.7025  -27.1510 C   0  0  0  0  0  0  0  0  0  0  0  0
   -6.0313   22.3166  -15.5344 C   0  0  0  0  0  0  0  0  0  0  0  0
   -6.6739   21.1464  -14.9036 C   0  0  0  0  0  0  0  0  0  0  0  0
   -9.2870   19.9228  -12.5302 C   0  0  0  0  0  0  0  0  0  0  0  0
   -8.8443   21.3265  -13.5282 S   0  0  0  0  0  0  0  0  0  0  0  0
   -9.4411   22.7748  -12.8057 N   0  0  0  0  0  0  0  0  0  0  0  0
   -9.4129   21.2386  -14.9034 O   0  0  0  0  0  0  0  0  0  0  0  0
   -7.3049   21.3384  -13.6643 N   0  0  0  0  0  0  0  0  0  0  0  0
   -9.9036   23.4051  -13.4869 H   0  0  0  0  0  0  0  0  0  0  0  0
   -8.6995   23.2347  -12.2533 H   0  0  0  0  0  0  0  0  0  0  0  0
 25 26  1  0  0  0
 26 27  1  0  0  0
 26 28  2  0  0  0
 26 29  2  0  0  0
 29 24  1  0  0  0
 24 23  1  0  0  0
 23  1  1  0  0  0
  1  2  1  0  0  0
  2  3  1  0  0  0
  3  4  1  0  0  0
  4  5  1  0  0  0
  5  6  1  0  0  0
  4  7  1  0  0  0
  7  8  2  0  0  0
  7  9  1  0  0  0
  9 10  1  0  0  0
 10 11  2  0  0  0
 11 12  1  0  0  0
 12 13  2  0  0  0
 13 18  1  0  0  0
 18 20  1  0  0  0
 20 21  1  0  0  0
 21 22  1  0  0  0
 13 14  1  0  0  0
 14 15  2  0  0  0
 15 16  1  0  0  0
 16 17  2  0  0  0
  6  1  1  0  0  0
 17  9  1  0  0  0
 17 12  1  0  0  0
 22 20  1  0  0  0
 27 30  1  0  0  0
 27 31  1  0  0  0
 18 19  1  0  0  0
M  END
> <minimizedAffinity>
-6.01302

> <CNNscore>
0.1705466509

> <CNNaffinity>
5.3114771843

> <CNN_VS>
0.9058546424

> <CNNaffinity_variance>
0.1376306117

$$$$
[H]c1nc(N([H])C2([H])C([H])([H])C2([H])[H])c2c([H])c([H])n(C(=O)N3C([H])([H])C([H])([H])C([H])(C([H])([H])C([H])([H])N=S(=O)(N([H])[H])C([H])([H])[H])C([H])([H])C3([H])[H])c2n1


 31 34  0  0  0  0  0  0  0  0999 V2000
   -1.8449   22.6711  -20.0497 C   0  0  0  0  0  0  0  0  0  0  0  0
   -0.5731   22.2088  -20.7513 C   0  0  0  0  0  0  0  0  0  0  0  0
   -0.9154   21.1581  -21.8032 C   0  0  0  0  0  0  0  0  0  0  0  0
   -1.8318   21.8372  -22.7803 N   0  0  0  0  0  0  0  0  0  0  0  0
   -3.0288   22.2807  -22.1464 C   0  0  0  0  0  0  0  0  0  0  0  0
   -3.0160   21.9578  -20.6159 C   0  0  0  0  0  0  0  0  0  0  0  0
   -1.4011   21.9260  -24.0770 C   0  0  0  0  0  0  0  0  0  0  0  0
   -0.1914   21.3648  -24.2196 O   0  0  0  0  0  0  0  0  0  0  0  0
   -1.8878   22.4440  -25.2808 N   0  0  0  0  0  0  0  0  0  0  0  0
   -1.1895   22.3775  -26.4673 C   0  0  0  0  0  0  0  0  0  0  0  0
   -1.9000   22.9573  -27.4728 C   0  0  0  0  0  0  0  0  0  0  0  0
   -3.0732   23.4029  -26.9218 C   0  0  0  0  0  0  0  0  0  0  0  0
   -4.1490   24.0526  -27.4609 C   0  0  0  0  0  0  0  0  0  0  0  0
   -5.1947   24.3858  -26.6948 N   0  0  0  0  0  0  0  0  0  0  0  0
   -5.1671   24.0660  -25.3718 C   0  0  0  0  0  0  0  0  0  0  0  0
   -4.1115   23.4344  -24.8688 N   0  0  0  0  0  0  0  0  0  0  0  0
   -3.0445   23.0730  -25.5572 C   0  0  0  0  0  0  0  0  0  0  0  0
   -4.1353   24.3701  -28.8609 N   0  0  0  0  0  0  0  0  0  0  0  0
   -3.2686   24.2167  -29.3970 H   0  0  0  0  0  0  0  0  0  0  0  0
   -5.2996   24.8928  -29.5197 C   0  0  0  0  0  0  0  0  0  0  0  0
   -5.7289   24.2360  -30.7902 C   0  0  0  0  0  0  0  0  0  0  0  0
   -5.1263   25.6082  -30.8067 C   0  0  0  0  0  0  0  0  0  0  0  0
   -1.6940   22.6679  -18.5748 C   0  0  0  0  0  0  0  0  0  0  0  0
   -0.4669   22.0718  -18.0095 C   0  0  0  0  0  0  0  0  0  0  0  0
   -0.9398   21.4455  -14.3568 C   0  0  0  0  0  0  0  0  0  0  0  0
    0.2013   21.1675  -15.6922 S   0  0  0  0  0  0  0  0  0  0  0  0
    1.0904   19.7155  -15.4148 N   0  0  0  0  0  0  0  0  0  0  0  0
    1.1833   22.2804  -15.8315 O   0  0  0  0  0  0  0  0  0  0  0  0
   -0.6160   21.1054  -17.0023 N   0  0  0  0  0  0  0  0  0  0  0  0
    2.1070   19.8251  -15.5873 H   0  0  0  0  0  0  0  0  0  0  0  0
    0.6654   18.9280  -15.9305 H   0  0  0  0  0  0  0  0  0  0  0  0
 25 26  1  0  0  0
 26 27  1  0  0  0
 26 28  2  0  0  0
 26 29  2  0  0  0
 29 24  1  0  0  0
 24 23  1  0  0  0
 23  1  1  0  0  0
  1  2  1  0  0  0
  2  3  1  0  0  0
  3  4  1  0  0  0
  4  5  1  0  0  0
  5  6  1  0  0  0
  4  7  1  0  0  0
  7  8  2  0  0  0
  7  9  1  0  0  0
  9 10  1  0  0  0
 10 11  2  0  0  0
 11 12  1  0  0  0
 12 13  2  0  0  0
 13 18  1  0  0  0
 18 20  1  0  0  0
 20 21  1  0  0  0
 21 22  1  0  0  0
 13 14  1  0  0  0
 14 15  2  0  0  0
 15 16  1  0  0  0
 16 17  2  0  0  0
  6  1  1  0  0  0
 17  9  1  0  0  0
 17 12  1  0  0  0
 22 20  1  0  0  0
 27 30  1  0  0  0
 27 31  1  0  0  0
 18 19  1  0  0  0
M  END
> <minimizedAffinity>
-7.07737

> <CNNscore>
0.1560966969

> <CNNaffinity>
6.1218996048

> <CNN_VS>
0.9556083083

> <CNNaffinity_variance>
0.5800948739

$$$$
[H]c1nc(N([H])C2([H])C([H])([H])C2([H])[H])c2c([H])c([H])n(C(=O)N3C([H])([H])C([H])([H])C([H])(C([H])([H])C([H])([H])N=S(=O)(N([H])[H])C([H])([H])[H])C([H])([H])C3([H])[H])c2n1


 31 34  0  0  0  0  0  0  0  0999 V2000
    1.9716   21.7648  -19.1184 C   0  0  0  0  0  0  0  0  0  0  0  0
    2.9769   21.4968  -20.2325 C   0  0  0  0  0  0  0  0  0  0  0  0
    2.4026   20.4794  -21.2136 C   0  0  0  0  0  0  0  0  0  0  0  0
    1.1582   21.1059  -21.7748 N   0  0  0  0  0  0  0  0  0  0  0  0
    0.2025   21.3681  -20.7504 C   0  0  0  0  0  0  0  0  0  0  0  0
    0.7482   20.9562  -19.3434 C   0  0  0  0  0  0  0  0  0  0  0  0
    1.1273   21.3229  -23.1263 C   0  0  0  0  0  0  0  0  0  0  0  0
    2.2675   20.9155  -23.7031 O   0  0  0  0  0  0  0  0  0  0  0  0
    0.2265   21.8532  -24.0545 N   0  0  0  0  0  0  0  0  0  0  0  0
    0.4974   21.9405  -25.4032 C   0  0  0  0  0  0  0  0  0  0  0  0
   -0.5539   22.4941  -26.0666 C   0  0  0  0  0  0  0  0  0  0  0  0
   -1.5148   22.7662  -25.1278 C   0  0  0  0  0  0  0  0  0  0  0  0
   -2.7619   23.3184  -25.2278 C   0  0  0  0  0  0  0  0  0  0  0  0
   -3.5218   23.4807  -24.1381 N   0  0  0  0  0  0  0  0  0  0  0  0
   -3.0308   23.0863  -22.9311 C   0  0  0  0  0  0  0  0  0  0  0  0
   -1.8163   22.5520  -22.8569 N   0  0  0  0  0  0  0  0  0  0  0  0
   -1.0081   22.3594  -23.8830 C   0  0  0  0  0  0  0  0  0  0  0  0
   -3.2392   23.7199  -26.5208 N   0  0  0  0  0  0  0  0  0  0  0  0
   -3.0110   24.6647  -26.8636 H   0  0  0  0  0  0  0  0  0  0  0  0
   -4.0221   22.8339  -27.3362 C   0  0  0  0  0  0  0  0  0  0  0  0
   -3.9016   22.9702  -28.8183 C   0  0  0  0  0  0  0  0  0  0  0  0
   -5.1531   23.3965  -28.1126 C   0  0  0  0  0  0  0  0  0  0  0  0
    2.6001   21.6893  -17.7778 C   0  0  0  0  0  0  0  0  0  0  0  0
    1.8375   22.2178  -16.6291 C   0  0  0  0  0  0  0  0  0  0  0  0
    3.6319   22.0273  -13.3577 C   0  0  0  0  0  0  0  0  0  0  0  0
    2.2207   22.7719  -14.1430 S   0  0  0  0  0  0  0  0  0  0  0  0
    1.8645   24.2875  -13.4002 N   0  0  0  0  0  0  0  0  0  0  0  0
    1.0037   21.9177  -14.0358 O   0  0  0  0  0  0  0  0  0  0  0  0
    2.5469   22.9253  -15.6458 N   0  0  0  0  0  0  0  0  0  0  0  0
    0.8548   24.4117  -13.1996 H   0  0  0  0  0  0  0  0  0  0  0  0
    2.2769   25.0621  -13.9449 H   0  0  0  0  0  0  0  0  0  0  0  0
 25 26  1  0  0  0
 26 27  1  0  0  0
 26 28  2  0  0  0
 26 29  2  0  0  0
 29 24  1  0  0  0
 24 23  1  0  0  0
 23  1  1  0  0  0
  1  2  1  0  0  0
  2  3  1  0  0  0
  3  4  1  0  0  0
  4  5  1  0  0  0
  5  6  1  0  0  0
  4  7  1  0  0  0
  7  8  2  0  0  0
  7  9  1  0  0  0
  9 10  1  0  0  0
 10 11  2  0  0  0
 11 12  1  0  0  0
 12 13  2  0  0  0
 13 18  1  0  0  0
 18 20  1  0  0  0
 20 21  1  0  0  0
 21 22  1  0  0  0
 13 14  1  0  0  0
 14 15  2  0  0  0
 15 16  1  0  0  0
 16 17  2  0  0  0
  6  1  1  0  0  0
 17  9  1  0  0  0
 17 12  1  0  0  0
 22 20  1  0  0  0
 27 30  1  0  0  0
 27 31  1  0  0  0
 18 19  1  0  0  0
M  END
> <minimizedAffinity>
-6.76181

> <CNNscore>
0.1529167145

> <CNNaffinity>
5.6502337456

> <CNN_VS>
0.8640151620

> <CNNaffinity_variance>
0.1842422634

$$$$
[H]OC(=O)C([H])([H])[C@@]([H])(C(=O)O[H])N([H])S(=O)(=O)c1c([H])c([H])c(OC([H])([H])[H])c([H])c1[H]


 23 23  0  0  0  0  0  0  0  0999 V2000
   -5.8692   24.3878  -24.0085 N   0  0  0  0  0  0  0  0  0  0  0  0
   -6.4624   24.1791  -23.1938 H   0  0  0  0  0  0  0  0  0  0  0  0
   -5.9625   23.0871  -25.1156 S   0  0  0  0  0  0  0  0  0  0  0  0
   -6.4383   21.8726  -24.3617 O   0  0  0  0  0  0  0  0  0  0  0  0
   -6.9627   23.3642  -26.2153 O   0  0  0  0  0  0  0  0  0  0  0  0
   -1.9301   22.4458  -27.0611 C   0  0  0  0  0  0  0  0  0  0  0  0
   -2.2066   21.7894  -25.8861 C   0  0  0  0  0  0  0  0  0  0  0  0
   -3.4519   22.0039  -25.3077 C   0  0  0  0  0  0  0  0  0  0  0  0
   -4.4065   22.8321  -25.8508 C   0  0  0  0  0  0  0  0  0  0  0  0
   -4.0658   23.4658  -27.0382 C   0  0  0  0  0  0  0  0  0  0  0  0
   -2.8437   23.2840  -27.6485 C   0  0  0  0  0  0  0  0  0  0  0  0
    0.4792   22.3448  -26.8525 C   0  0  0  0  0  0  0  0  0  0  0  0
   -0.6673   22.2209  -27.6369 O   0  0  0  0  0  0  0  0  0  0  0  0
   -4.5308   24.7920  -23.7085 C   0  0  0  0  0  0  0  0  0  0  0  0
   -4.3356   24.7914  -22.2433 C   0  0  0  0  0  0  0  0  0  0  0  0
   -5.1373   25.5646  -21.4253 O   0  0  0  0  0  0  0  0  0  0  0  0
   -3.4313   24.0791  -21.7467 O   0  0  0  0  0  0  0  0  0  0  0  0
   -4.8985   25.7818  -20.4656 H   0  0  0  0  0  0  0  0  0  0  0  0
   -4.1830   26.1391  -24.3144 C   0  0  0  0  0  0  0  0  0  0  0  0
   -5.3319   26.7044  -25.0700 C   0  0  0  0  0  0  0  0  0  0  0  0
   -6.4091   27.1601  -24.3260 O   0  0  0  0  0  0  0  0  0  0  0  0
   -5.3923   26.7954  -26.3033 O   0  0  0  0  0  0  0  0  0  0  0  0
   -6.3820   28.1496  -24.0405 H   0  0  0  0  0  0  0  0  0  0  0  0
 12 13  1  0  0  0
 13  6  1  0  0  0
  6  7  2  0  0  0
  7  8  1  0  0  0
  8  9  2  0  0  0
  9 10  1  0  0  0
 10 11  2  0  0  0
  9  3  1  0  0  0
  3  4  2  0  0  0
  3  5  2  0  0  0
  3  1  1  0  0  0
  1 14  1  0  0  0
 14 19  1  0  0  0
 19 20  1  0  0  0
 20 21  1  0  0  0
 20 22  2  0  0  0
 14 15  1  0  0  0
 15 16  1  0  0  0
 15 17  2  0  0  0
 11  6  1  0  0  0
  1  2  1  0  0  0
 21 23  1  0  0  0
 16 18  1  0  0  0
M  END
> <minimizedAffinity>
-6.69399

> <CNNscore>
0.3530491590

> <CNNaffinity>
4.9569396973

> <CNN_VS>
1.7500433922

> <CNNaffinity_variance>
0.0817519873

$$$$
[H]OC(=O)C([H])([H])[C@@]([H])(C(=O)O[H])N([H])S(=O)(=O)c1c([H])c([H])c(OC([H])([H])[H])c([H])c1[H]


 23 23  0  0  0  0  0  0  0  0999 V2000
   -5.5856   23.1383  -22.9594 N   0  0  0  0  0  0  0  0  0  0  0  0
   -4.6147   23.4736  -22.8946 H   0  0  0  0  0  0  0  0  0  0  0  0
   -5.8408   22.4611  -24.5094 S   0  0  0  0  0  0  0  0  0  0  0  0
   -6.3744   21.0648  -24.3208 O   0  0  0  0  0  0  0  0  0  0  0  0
   -6.8701   23.2424  -25.2945 O   0  0  0  0  0  0  0  0  0  0  0  0
   -1.9857   22.5183  -26.8739 C   0  0  0  0  0  0  0  0  0  0  0  0
   -2.0260   21.8110  -25.6966 C   0  0  0  0  0  0  0  0  0  0  0  0
   -3.2216   21.8098  -24.9882 C   0  0  0  0  0  0  0  0  0  0  0  0
   -4.3503   22.4754  -25.4066 C   0  0  0  0  0  0  0  0  0  0  0  0
   -4.2446   23.1711  -26.6035 C   0  0  0  0  0  0  0  0  0  0  0  0
   -3.0804   23.2011  -27.3403 C   0  0  0  0  0  0  0  0  0  0  0  0
    0.4322   22.4067  -26.8844 C   0  0  0  0  0  0  0  0  0  0  0  0
   -0.7709   22.5121  -27.5819 O   0  0  0  0  0  0  0  0  0  0  0  0
   -6.5895   24.0798  -22.5714 C   0  0  0  0  0  0  0  0  0  0  0  0
   -6.0108   25.0467  -21.6148 C   0  0  0  0  0  0  0  0  0  0  0  0
   -6.7515   26.1238  -21.1667 O   0  0  0  0  0  0  0  0  0  0  0  0
   -4.8355   24.8798  -21.2115 O   0  0  0  0  0  0  0  0  0  0  0  0
   -6.3360   26.9272  -20.7117 H   0  0  0  0  0  0  0  0  0  0  0  0
   -7.8251   23.4074  -22.0023 C   0  0  0  0  0  0  0  0  0  0  0  0
   -7.4682   22.4358  -20.9349 C   0  0  0  0  0  0  0  0  0  0  0  0
   -7.6081   22.8643  -19.6240 O   0  0  0  0  0  0  0  0  0  0  0  0
   -7.0597   21.2840  -21.1335 O   0  0  0  0  0  0  0  0  0  0  0  0
   -8.5226   22.6927  -19.1817 H   0  0  0  0  0  0  0  0  0  0  0  0
 12 13  1  0  0  0
 13  6  1  0  0  0
  6  7  2  0  0  0
  7  8  1  0  0  0
  8  9  2  0  0  0
  9 10  1  0  0  0
 10 11  2  0  0  0
  9  3  1  0  0  0
  3  4  2  0  0  0
  3  5  2  0  0  0
  3  1  1  0  0  0
  1 14  1  0  0  0
 14 19  1  0  0  0
 19 20  1  0  0  0
 20 21  1  0  0  0
 20 22  2  0  0  0
 14 15  1  0  0  0
 15 16  1  0  0  0
 15 17  2  0  0  0
 11  6  1  0  0  0
  1  2  1  0  0  0
 21 23  1  0  0  0
 16 18  1  0  0  0
M  END
> <minimizedAffinity>
-5.71645

> <CNNscore>
0.3483554125

> <CNNaffinity>
4.7388739586

> <CNN_VS>
1.6508123875

> <CNNaffinity_variance>
0.0835444033

$$$$
[H]OC(=O)C([H])([H])[C@@]([H])(C(=O)O[H])N([H])S(=O)(=O)c1c([H])c([H])c(OC([H])([H])[H])c([H])c1[H]


 23 23  0  0  0  0  0  0  0  0999 V2000
   -2.0461   21.8178  -25.1657 N   0  0  0  0  0  0  0  0  0  0  0  0
   -2.1790   21.1966  -25.9754 H   0  0  0  0  0  0  0  0  0  0  0  0
   -3.4582   22.7575  -24.9445 S   0  0  0  0  0  0  0  0  0  0  0  0
   -4.5695   21.8295  -24.5277 O   0  0  0  0  0  0  0  0  0  0  0  0
   -3.2788   23.7798  -23.8448 O   0  0  0  0  0  0  0  0  0  0  0  0
   -4.4461   24.9964  -28.7481 C   0  0  0  0  0  0  0  0  0  0  0  0
   -4.0475   23.6847  -28.8404 C   0  0  0  0  0  0  0  0  0  0  0  0
   -3.7486   23.0191  -27.6575 C   0  0  0  0  0  0  0  0  0  0  0  0
   -3.8327   23.6061  -26.4164 C   0  0  0  0  0  0  0  0  0  0  0  0
   -4.2413   24.9328  -26.3910 C   0  0  0  0  0  0  0  0  0  0  0  0
   -4.5481   25.6334  -27.5374 C   0  0  0  0  0  0  0  0  0  0  0  0
   -5.5518   25.0318  -30.9010 C   0  0  0  0  0  0  0  0  0  0  0  0
   -4.7459   25.6592  -29.9513 O   0  0  0  0  0  0  0  0  0  0  0  0
   -0.8398   22.5857  -25.1701 C   0  0  0  0  0  0  0  0  0  0  0  0
   -0.1925   22.4735  -26.4942 C   0  0  0  0  0  0  0  0  0  0  0  0
    1.0072   23.1105  -26.7482 O   0  0  0  0  0  0  0  0  0  0  0  0
   -0.7447   21.7914  -27.3895 O   0  0  0  0  0  0  0  0  0  0  0  0
    1.3636   23.2616  -27.6839 H   0  0  0  0  0  0  0  0  0  0  0  0
    0.1063   22.1844  -24.0536 C   0  0  0  0  0  0  0  0  0  0  0  0
   -0.6376   21.8336  -22.8150 C   0  0  0  0  0  0  0  0  0  0  0  0
   -1.1709   22.8840  -22.0845 O   0  0  0  0  0  0  0  0  0  0  0  0
   -0.8117   20.6816  -22.3959 O   0  0  0  0  0  0  0  0  0  0  0  0
   -2.1305   23.1695  -22.3276 H   0  0  0  0  0  0  0  0  0  0  0  0
 12 13  1  0  0  0
 13  6  1  0  0  0
  6  7  2  0  0  0
  7  8  1  0  0  0
  8  9  2  0  0  0
  9 10  1  0  0  0
 10 11  2  0  0  0
  9  3  1  0  0  0
  3  4  2  0  0  0
  3  5  2  0  0  0
  3  1  1  0  0  0
  1 14  1  0  0  0
 14 19  1  0  0  0
 19 20  1  0  0  0
 20 21  1  0  0  0
 20 22  2  0  0  0
 14 15  1  0  0  0
 15 16  1  0  0  0
 15 17  2  0  0  0
 11  6  1  0  0  0
  1  2  1  0  0  0
 21 23  1  0  0  0
 16 18  1  0  0  0
M  END
> <minimizedAffinity>
-5.97918

> <CNNscore>
0.2874851525

> <CNNaffinity>
4.6191182137

> <CNN_VS>
1.3279279470

> <CNNaffinity_variance>
0.1338973939

$$$$
[H]OC(=O)C([H])([H])[C@@]([H])(C(=O)O[H])N([H])S(=O)(=O)c1c([H])c([H])c(OC([H])([H])[H])c([H])c1[H]


 23 23  0  0  0  0  0  0  0  0999 V2000
   -3.1439   23.5042  -27.8646 N   0  0  0  0  0  0  0  0  0  0  0  0
   -2.9618   22.5895  -28.2998 H   0  0  0  0  0  0  0  0  0  0  0  0
   -3.3484   23.2908  -26.1797 S   0  0  0  0  0  0  0  0  0  0  0  0
   -3.8045   24.6045  -25.6002 O   0  0  0  0  0  0  0  0  0  0  0  0
   -4.4135   22.2616  -25.8752 O   0  0  0  0  0  0  0  0  0  0  0  0
    0.5515   21.8715  -24.3818 C   0  0  0  0  0  0  0  0  0  0  0  0
   -0.4865   22.1866  -23.5386 C   0  0  0  0  0  0  0  0  0  0  0  0
   -1.6739   22.6212  -24.1155 C   0  0  0  0  0  0  0  0  0  0  0  0
   -1.8539   22.7484  -25.4732 C   0  0  0  0  0  0  0  0  0  0  0  0
   -0.7674   22.4145  -26.2706 C   0  0  0  0  0  0  0  0  0  0  0  0
    0.4294   21.9791  -25.7440 C   0  0  0  0  0  0  0  0  0  0  0  0
    1.7249   20.9258  -22.4878 C   0  0  0  0  0  0  0  0  0  0  0  0
    1.7475   21.4329  -23.7867 O   0  0  0  0  0  0  0  0  0  0  0  0
   -4.1773   24.2816  -28.4748 C   0  0  0  0  0  0  0  0  0  0  0  0
   -5.3335   23.4108  -28.7743 C   0  0  0  0  0  0  0  0  0  0  0  0
   -6.5211   23.5536  -28.0825 O   0  0  0  0  0  0  0  0  0  0  0  0
   -5.2263   22.5367  -29.6667 O   0  0  0  0  0  0  0  0  0  0  0  0
   -7.2454   22.8461  -28.0791 H   0  0  0  0  0  0  0  0  0  0  0  0
   -3.6967   25.0124  -29.7149 C   0  0  0  0  0  0  0  0  0  0  0  0
   -4.7876   25.8183  -30.3239 C   0  0  0  0  0  0  0  0  0  0  0  0
   -5.6844   26.4193  -29.4543 O   0  0  0  0  0  0  0  0  0  0  0  0
   -4.9486   25.9879  -31.5398 O   0  0  0  0  0  0  0  0  0  0  0  0
   -5.4461   27.3699  -29.1364 H   0  0  0  0  0  0  0  0  0  0  0  0
 12 13  1  0  0  0
 13  6  1  0  0  0
  6  7  2  0  0  0
  7  8  1  0  0  0
  8  9  2  0  0  0
  9 10  1  0  0  0
 10 11  2  0  0  0
  9  3  1  0  0  0
  3  4  2  0  0  0
  3  5  2  0  0  0
  3  1  1  0  0  0
  1 14  1  0  0  0
 14 19  1  0  0  0
 19 20  1  0  0  0
 20 21  1  0  0  0
 20 22  2  0  0  0
 14 15  1  0  0  0
 15 16  1  0  0  0
 15 17  2  0  0  0
 11  6  1  0  0  0
  1  2  1  0  0  0
 21 23  1  0  0  0
 16 18  1  0  0  0
M  END
> <minimizedAffinity>
-6.57809

> <CNNscore>
0.2680366635

> <CNNaffinity>
4.7254934311

> <CNN_VS>
1.2666054964

> <CNNaffinity_variance>
0.0732253641

$$$$
[H]OC(=O)C([H])([H])[C@@]([H])(C(=O)O[H])N([H])S(=O)(=O)c1c([H])c([H])c(OC([H])([H])[H])c([H])c1[H]


 23 23  0  0  0  0  0  0  0  0999 V2000
   -5.2138   23.4625  -23.3391 N   0  0  0  0  0  0  0  0  0  0  0  0
   -4.5675   24.1867  -23.6812 H   0  0  0  0  0  0  0  0  0  0  0  0
   -4.5015   21.9242  -23.5686 S   0  0  0  0  0  0  0  0  0  0  0  0
   -4.1237   21.3838  -22.2139 O   0  0  0  0  0  0  0  0  0  0  0  0
   -5.4731   20.9499  -24.1955 O   0  0  0  0  0  0  0  0  0  0  0  0
   -0.8957   22.2999  -26.2729 C   0  0  0  0  0  0  0  0  0  0  0  0
   -2.1487   22.3966  -26.8284 C   0  0  0  0  0  0  0  0  0  0  0  0
   -3.2403   22.2767  -25.9766 C   0  0  0  0  0  0  0  0  0  0  0  0
   -3.1243   22.0686  -24.6219 C   0  0  0  0  0  0  0  0  0  0  0  0
   -1.8318   21.9802  -24.1227 C   0  0  0  0  0  0  0  0  0  0  0  0
   -0.7193   22.0927  -24.9283 C   0  0  0  0  0  0  0  0  0  0  0  0
    0.0344   23.0567  -28.3755 C   0  0  0  0  0  0  0  0  0  0  0  0
    0.2008   22.4228  -27.1444 O   0  0  0  0  0  0  0  0  0  0  0  0
   -6.5547   23.5532  -23.8274 C   0  0  0  0  0  0  0  0  0  0  0  0
   -6.5804   24.4089  -25.0324 C   0  0  0  0  0  0  0  0  0  0  0  0
   -7.7523   24.5927  -25.7412 O   0  0  0  0  0  0  0  0  0  0  0  0
   -5.5236   24.9696  -25.4074 O   0  0  0  0  0  0  0  0  0  0  0  0
   -7.7741   24.9628  -26.6834 H   0  0  0  0  0  0  0  0  0  0  0  0
   -7.5232   24.0524  -22.7711 C   0  0  0  0  0  0  0  0  0  0  0  0
   -7.1924   25.4384  -22.3467 C   0  0  0  0  0  0  0  0  0  0  0  0
   -5.9877   25.6219  -21.6859 O   0  0  0  0  0  0  0  0  0  0  0  0
   -7.9101   26.4286  -22.5405 O   0  0  0  0  0  0  0  0  0  0  0  0
   -5.1699   25.8328  -22.2759 H   0  0  0  0  0  0  0  0  0  0  0  0
 12 13  1  0  0  0
 13  6  1  0  0  0
  6  7  2  0  0  0
  7  8  1  0  0  0
  8  9  2  0  0  0
  9 10  1  0  0  0
 10 11  2  0  0  0
  9  3  1  0  0  0
  3  4  2  0  0  0
  3  5  2  0  0  0
  3  1  1  0  0  0
  1 14  1  0  0  0
 14 19  1  0  0  0
 19 20  1  0  0  0
 20 21  1  0  0  0
 20 22  2  0  0  0
 14 15  1  0  0  0
 15 16  1  0  0  0
 15 17  2  0  0  0
 11  6  1  0  0  0
  1  2  1  0  0  0
 21 23  1  0  0  0
 16 18  1  0  0  0
M  END
> <minimizedAffinity>
-5.73675

> <CNNscore>
0.2613528371

> <CNNaffinity>
4.7718510628

> <CNN_VS>
1.2471368313

> <CNNaffinity_variance>
0.1456480920

$$$$
[H]OC(=O)C([H])([H])[C@@]([H])(C(=O)O[H])N([H])S(=O)(=O)c1c([H])c([H])c(OC([H])([H])[H])c([H])c1[H]


 23 23  0  0  0  0  0  0  0  0999 V2000
   -6.1233   25.2369  -25.0916 N   0  0  0  0  0  0  0  0  0  0  0  0
   -6.3546   26.2347  -25.1915 H   0  0  0  0  0  0  0  0  0  0  0  0
   -6.0941   24.5121  -26.6408 S   0  0  0  0  0  0  0  0  0  0  0  0
   -7.2087   23.5000  -26.6979 O   0  0  0  0  0  0  0  0  0  0  0  0
   -6.3410   25.5273  -27.7339 O   0  0  0  0  0  0  0  0  0  0  0  0
   -2.0509   22.6336  -27.4023 C   0  0  0  0  0  0  0  0  0  0  0  0
   -2.5994   22.5300  -26.1468 C   0  0  0  0  0  0  0  0  0  0  0  0
   -3.8420   23.1165  -25.9381 C   0  0  0  0  0  0  0  0  0  0  0  0
   -4.5374   23.7864  -26.9177 C   0  0  0  0  0  0  0  0  0  0  0  0
   -3.9292   23.8558  -28.1639 C   0  0  0  0  0  0  0  0  0  0  0  0
   -2.6987   23.2898  -28.4181 C   0  0  0  0  0  0  0  0  0  0  0  0
    0.3008   22.4694  -26.8535 C   0  0  0  0  0  0  0  0  0  0  0  0
   -0.7937   22.0364  -27.6015 O   0  0  0  0  0  0  0  0  0  0  0  0
   -6.9046   24.5164  -24.1349 C   0  0  0  0  0  0  0  0  0  0  0  0
   -7.9614   25.4005  -23.5999 C   0  0  0  0  0  0  0  0  0  0  0  0
   -9.2852   25.2051  -23.9451 O   0  0  0  0  0  0  0  0  0  0  0  0
   -7.6442   26.3342  -22.8257 O   0  0  0  0  0  0  0  0  0  0  0  0
  -10.0008   25.9075  -23.8043 H   0  0  0  0  0  0  0  0  0  0  0  0
   -6.0581   23.9265  -23.0221 C   0  0  0  0  0  0  0  0  0  0  0  0
   -4.9792   24.8628  -22.6098 C   0  0  0  0  0  0  0  0  0  0  0  0
   -5.1534   25.5308  -21.4077 O   0  0  0  0  0  0  0  0  0  0  0  0
   -3.9480   25.0845  -23.2583 O   0  0  0  0  0  0  0  0  0  0  0  0
   -4.7808   25.0652  -20.5676 H   0  0  0  0  0  0  0  0  0  0  0  0
 12 13  1  0  0  0
 13  6  1  0  0  0
  6  7  2  0  0  0
  7  8  1  0  0  0
  8  9  2  0  0  0
  9 10  1  0  0  0
 10 11  2  0  0  0
  9  3  1  0  0  0
  3  4  2  0  0  0
  3  5  2  0  0  0
  3  1  1  0  0  0
  1 14  1  0  0  0
 14 19  1  0  0  0
 19 20  1  0  0  0
 20 21  1  0  0  0
 20 22  2  0  0  0
 14 15  1  0  0  0
 15 16  1  0  0  0
 15 17  2  0  0  0
 11  6  1  0  0  0
  1  2  1  0  0  0
 21 23  1  0  0  0
 16 18  1  0  0  0
M  END
> <minimizedAffinity>
-6.50700

> <CNNscore>
0.2568060160

> <CNNaffinity>
5.0488204956

> <CNN_VS>
1.2965674400

> <CNNaffinity_variance>
0.0883179083

$$$$
[H]OC(=O)C([H])([H])[C@@]([H])(C(=O)O[H])N([H])S(=O)(=O)c1c([H])c([H])c(OC([H])([H])[H])c([H])c1[H]


 23 23  0  0  0  0  0  0  0  0999 V2000
   -4.6582   24.4449  -26.3170 N   0  0  0  0  0  0  0  0  0  0  0  0
   -4.1258   24.3141  -25.4461 H   0  0  0  0  0  0  0  0  0  0  0  0
   -6.3305   24.3502  -25.9694 S   0  0  0  0  0  0  0  0  0  0  0  0
   -6.8605   25.7566  -25.8647 O   0  0  0  0  0  0  0  0  0  0  0  0
   -7.0899   23.6560  -27.0776 O   0  0  0  0  0  0  0  0  0  0  0  0
   -6.9435   21.9740  -22.1702 C   0  0  0  0  0  0  0  0  0  0  0  0
   -7.4536   23.2480  -22.2400 C   0  0  0  0  0  0  0  0  0  0  0  0
   -7.2510   23.9577  -23.4176 C   0  0  0  0  0  0  0  0  0  0  0  0
   -6.5725   23.4495  -24.5008 C   0  0  0  0  0  0  0  0  0  0  0  0
   -6.0821   22.1575  -24.3670 C   0  0  0  0  0  0  0  0  0  0  0  0
   -6.2582   21.4154  -23.2192 C   0  0  0  0  0  0  0  0  0  0  0  0
   -8.2914   21.5285  -20.2097 C   0  0  0  0  0  0  0  0  0  0  0  0
   -7.1549   21.2658  -20.9741 O   0  0  0  0  0  0  0  0  0  0  0  0
   -4.2525   23.6249  -27.4160 C   0  0  0  0  0  0  0  0  0  0  0  0
   -3.0756   22.8228  -27.0204 C   0  0  0  0  0  0  0  0  0  0  0  0
   -1.8598   22.9960  -27.6538 O   0  0  0  0  0  0  0  0  0  0  0  0
   -3.1912   21.9795  -26.1000 O   0  0  0  0  0  0  0  0  0  0  0  0
   -1.1046   22.3245  -27.5899 H   0  0  0  0  0  0  0  0  0  0  0  0
   -3.9777   24.4326  -28.6709 C   0  0  0  0  0  0  0  0  0  0  0  0
   -5.2027   25.1302  -29.1435 C   0  0  0  0  0  0  0  0  0  0  0  0
   -6.1088   24.3800  -29.8767 O   0  0  0  0  0  0  0  0  0  0  0  0
   -5.4664   26.3210  -28.9298 O   0  0  0  0  0  0  0  0  0  0  0  0
   -6.8449   23.8991  -29.3397 H   0  0  0  0  0  0  0  0  0  0  0  0
 12 13  1  0  0  0
 13  6  1  0  0  0
  6  7  2  0  0  0
  7  8  1  0  0  0
  8  9  2  0  0  0
  9 10  1  0  0  0
 10 11  2  0  0  0
  9  3  1  0  0  0
  3  4  2  0  0  0
  3  5  2  0  0  0
  3  1  1  0  0  0
  1 14  1  0  0  0
 14 19  1  0  0  0
 19 20  1  0  0  0
 20 21  1  0  0  0
 20 22  2  0  0  0
 14 15  1  0  0  0
 15 16  1  0  0  0
 15 17  2  0  0  0
 11  6  1  0  0  0
  1  2  1  0  0  0
 21 23  1  0  0  0
 16 18  1  0  0  0
M  END
> <minimizedAffinity>
-5.88557

> <CNNscore>
0.2265446037

> <CNNaffinity>
4.5995874405

> <CNN_VS>
1.0420117378

> <CNNaffinity_variance>
0.0957789570

$$$$
[H]OC(=O)C([H])([H])[C@@]([H])(C(=O)O[H])N([H])S(=O)(=O)c1c([H])c([H])c(OC([H])([H])[H])c([H])c1[H]


 23 23  0  0  0  0  0  0  0  0999 V2000
   -5.1953   25.0513  -21.9793 N   0  0  0  0  0  0  0  0  0  0  0  0
   -5.1054   26.0744  -22.0448 H   0  0  0  0  0  0  0  0  0  0  0  0
   -4.1393   24.3238  -23.1114 S   0  0  0  0  0  0  0  0  0  0  0  0
   -2.7282   24.6785  -22.7204 O   0  0  0  0  0  0  0  0  0  0  0  0
   -4.2550   22.8163  -23.0902 O   0  0  0  0  0  0  0  0  0  0  0  0
   -5.1477   25.7167  -27.2946 C   0  0  0  0  0  0  0  0  0  0  0  0
   -5.1499   26.6379  -26.2751 C   0  0  0  0  0  0  0  0  0  0  0  0
   -4.8378   26.1847  -24.9989 C   0  0  0  0  0  0  0  0  0  0  0  0
   -4.5313   24.8743  -24.7146 C   0  0  0  0  0  0  0  0  0  0  0  0
   -4.5463   23.9934  -25.7877 C   0  0  0  0  0  0  0  0  0  0  0  0
   -4.8497   24.3965  -27.0702 C   0  0  0  0  0  0  0  0  0  0  0  0
   -4.7189   25.7520  -29.6766 C   0  0  0  0  0  0  0  0  0  0  0  0
   -5.4647   26.1868  -28.5812 O   0  0  0  0  0  0  0  0  0  0  0  0
   -6.5319   24.5458  -22.0332 C   0  0  0  0  0  0  0  0  0  0  0  0
   -7.4569   25.6434  -22.3860 C   0  0  0  0  0  0  0  0  0  0  0  0
   -7.5176   26.7889  -21.6156 O   0  0  0  0  0  0  0  0  0  0  0  0
   -8.1898   25.5249  -23.3963 O   0  0  0  0  0  0  0  0  0  0  0  0
   -8.2825   27.4500  -21.6705 H   0  0  0  0  0  0  0  0  0  0  0  0
   -6.9458   23.8643  -20.7421 C   0  0  0  0  0  0  0  0  0  0  0  0
   -6.0675   24.2680  -19.6124 C   0  0  0  0  0  0  0  0  0  0  0  0
   -6.3148   25.5042  -19.0360 O   0  0  0  0  0  0  0  0  0  0  0  0
   -5.1415   23.5844  -19.1561 O   0  0  0  0  0  0  0  0  0  0  0  0
   -6.9784   25.5170  -18.2480 H   0  0  0  0  0  0  0  0  0  0  0  0
 12 13  1  0  0  0
 13  6  1  0  0  0
  6  7  2  0  0  0
  7  8  1  0  0  0
  8  9  2  0  0  0
  9 10  1  0  0  0
 10 11  2  0  0  0
  9  3  1  0  0  0
  3  4  2  0  0  0
  3  5  2  0  0  0
  3  1  1  0  0  0
  1 14  1  0  0  0
 14 19  1  0  0  0
 19 20  1  0  0  0
 20 21  1  0  0  0
 20 22  2  0  0  0
 14 15  1  0  0  0
 15 16  1  0  0  0
 15 17  2  0  0  0
 11  6  1  0  0  0
  1  2  1  0  0  0
 21 23  1  0  0  0
 16 18  1  0  0  0
M  END
> <minimizedAffinity>
-5.74000

> <CNNscore>
0.2236660272

> <CNNaffinity>
4.8881592751

> <CNN_VS>
1.0933151245

> <CNNaffinity_variance>
0.1848309338

$$$$
[H]OC(=O)C([H])([H])[C@@]([H])(C(=O)O[H])N([H])S(=O)(=O)c1c([H])c([H])c(OC([H])([H])[H])c([H])c1[H]


 23 23  0  0  0  0  0  0  0  0999 V2000
   -6.3995   23.3629  -24.2827 N   0  0  0  0  0  0  0  0  0  0  0  0
   -5.7617   22.5826  -24.0740 H   0  0  0  0  0  0  0  0  0  0  0  0
   -6.0491   23.9691  -25.8434 S   0  0  0  0  0  0  0  0  0  0  0  0
   -7.1350   23.4985  -26.7758 O   0  0  0  0  0  0  0  0  0  0  0  0
   -6.0502   25.4810  -25.8654 O   0  0  0  0  0  0  0  0  0  0  0  0
   -1.9475   22.5394  -27.1037 C   0  0  0  0  0  0  0  0  0  0  0  0
   -2.7786   23.0783  -28.0559 C   0  0  0  0  0  0  0  0  0  0  0  0
   -4.0339   23.5092  -27.6437 C   0  0  0  0  0  0  0  0  0  0  0  0
   -4.4754   23.4216  -26.3439 C   0  0  0  0  0  0  0  0  0  0  0  0
   -3.5887   22.8678  -25.4303 C   0  0  0  0  0  0  0  0  0  0  0  0
   -2.3342   22.4268  -25.7923 C   0  0  0  0  0  0  0  0  0  0  0  0
    0.4111   22.2104  -26.6702 C   0  0  0  0  0  0  0  0  0  0  0  0
   -0.6801   22.1071  -27.5326 O   0  0  0  0  0  0  0  0  0  0  0  0
   -6.4816   24.3768  -23.2777 C   0  0  0  0  0  0  0  0  0  0  0  0
   -5.3195   24.2636  -22.3714 C   0  0  0  0  0  0  0  0  0  0  0  0
   -4.7796   25.3867  -21.7742 O   0  0  0  0  0  0  0  0  0  0  0  0
   -4.8254   23.1332  -22.1482 O   0  0  0  0  0  0  0  0  0  0  0  0
   -3.8613   25.3965  -21.3478 H   0  0  0  0  0  0  0  0  0  0  0  0
   -7.7904   24.3277  -22.5111 C   0  0  0  0  0  0  0  0  0  0  0  0
   -8.8444   25.1269  -23.1900 C   0  0  0  0  0  0  0  0  0  0  0  0
   -8.8153   25.1558  -24.5757 O   0  0  0  0  0  0  0  0  0  0  0  0
   -9.7360   25.7609  -22.6102 O   0  0  0  0  0  0  0  0  0  0  0  0
   -9.3548   24.4238  -25.0599 H   0  0  0  0  0  0  0  0  0  0  0  0
 12 13  1  0  0  0
 13  6  1  0  0  0
  6  7  2  0  0  0
  7  8  1  0  0  0
  8  9  2  0  0  0
  9 10  1  0  0  0
 10 11  2  0  0  0
  9  3  1  0  0  0
  3  4  2  0  0  0
  3  5  2  0  0  0
  3  1  1  0  0  0
  1 14  1  0  0  0
 14 19  1  0  0  0
 19 20  1  0  0  0
 20 21  1  0  0  0
 20 22  2  0  0  0
 14 15  1  0  0  0
 15 16  1  0  0  0
 15 17  2  0  0  0
 11  6  1  0  0  0
  1  2  1  0  0  0
 21 23  1  0  0  0
 16 18  1  0  0  0
M  END
> <minimizedAffinity>
-6.16964

> <CNNscore>
0.2172199488

> <CNNaffinity>
4.7343587875

> <CNN_VS>
1.0283972025

> <CNNaffinity_variance>
0.1210000142

$$$$
[H]O[C@]1([H])[C@]([H])(O[H])[C@@]([H])(O[H])[C@]1([H])C([H])([H])OP(=O)(O[H])OP(=O)(O[H])OC([H])([H])[C@@]1([H])OC(=O)[C@]1([H])O[H]


 30 31  0  0  0  0  0  0  0  0999 V2000
   -4.2683   22.2871  -25.2512 P   0  0  0  0  0  0  0  0  0  0  0  0
   -5.6911   21.7014  -24.5435 O   0  0  0  0  0  0  0  0  0  0  0  0
   -3.2508   21.1470  -25.2291 O   0  0  0  0  0  0  0  0  0  0  0  0
   -6.3350   22.4507  -24.4801 H   0  0  0  0  0  0  0  0  0  0  0  0
   -3.7176   23.5748  -24.2842 O   0  0  0  0  0  0  0  0  0  0  0  0
   -4.3085   23.3596  -22.7345 P   0  0  0  0  0  0  0  0  0  0  0  0
   -3.4799   24.4044  -21.7028 O   0  0  0  0  0  0  0  0  0  0  0  0
   -4.1099   21.8994  -22.3180 O   0  0  0  0  0  0  0  0  0  0  0  0
   -2.9632   23.8688  -21.0721 H   0  0  0  0  0  0  0  0  0  0  0  0
   -5.9713   23.6716  -22.6367 O   0  0  0  0  0  0  0  0  0  0  0  0
   -6.1708   24.4784  -21.5186 C   0  0  0  0  0  0  0  0  0  0  0  0
   -8.1960   23.6964  -18.6370 O   0  0  0  0  0  0  0  0  0  0  0  0
   -7.2201   24.4685  -19.2603 C   0  0  0  0  0  0  0  0  0  0  0  0
   -6.4239   23.6522  -20.2749 C   0  0  0  0  0  0  0  0  0  0  0  0
   -5.3626   23.7484  -19.3477 O   0  0  0  0  0  0  0  0  0  0  0  0
   -5.9835   24.5896  -18.4490 C   0  0  0  0  0  0  0  0  0  0  0  0
   -5.7259   25.2241  -17.3979 O   0  0  0  0  0  0  0  0  0  0  0  0
   -8.3600   22.8832  -19.1792 H   0  0  0  0  0  0  0  0  0  0  0  0
   -4.4789   22.7405  -26.8401 O   0  0  0  0  0  0  0  0  0  0  0  0
   -5.2944   23.8274  -27.0183 C   0  0  0  0  0  0  0  0  0  0  0  0
   -5.5917   24.0019  -28.4864 C   0  0  0  0  0  0  0  0  0  0  0  0
   -5.5948   25.4384  -28.9636 C   0  0  0  0  0  0  0  0  0  0  0  0
   -6.8354   26.0052  -29.1303 O   0  0  0  0  0  0  0  0  0  0  0  0
   -4.9724   24.9168  -30.2664 C   0  0  0  0  0  0  0  0  0  0  0  0
   -4.0012   25.7227  -30.8049 O   0  0  0  0  0  0  0  0  0  0  0  0
   -4.4322   23.7562  -29.4194 C   0  0  0  0  0  0  0  0  0  0  0  0
   -3.1775   23.9917  -28.9197 O   0  0  0  0  0  0  0  0  0  0  0  0
   -7.0117   26.5775  -28.3391 H   0  0  0  0  0  0  0  0  0  0  0  0
   -3.2865   25.1261  -31.1970 H   0  0  0  0  0  0  0  0  0  0  0  0
   -2.8889   24.9255  -29.0699 H   0  0  0  0  0  0  0  0  0  0  0  0
 12 13  1  0  0  0
 13 14  1  0  0  0
 14 11  1  0  0  0
 11 10  1  0  0  0
 10  6  1  0  0  0
  6  7  1  0  0  0
  6  8  2  0  0  0
  6  5  1  0  0  0
  5  1  1  0  0  0
  1  2  1  0  0  0
  1  3  2  0  0  0
  1 19  1  0  0  0
 19 20  1  0  0  0
 20 21  1  0  0  0
 21 22  1  0  0  0
 22 23  1  0  0  0
 22 24  1  0  0  0
 24 25  1  0  0  0
 24 26  1  0  0  0
 26 27  1  0  0  0
 14 15  1  0  0  0
 15 16  1  0  0  0
 16 17  2  0  0  0
 16 13  1  0  0  0
 26 21  1  0  0  0
 12 18  1  0  0  0
  7  9  1  0  0  0
  2  4  1  0  0  0
 23 28  1  0  0  0
 25 29  1  0  0  0
 27 30  1  0  0  0
M  END
> <minimizedAffinity>
-6.13513

> <CNNscore>
0.3039520085

> <CNNaffinity>
3.9915428162

> <CNN_VS>
1.2132374048

> <CNNaffinity_variance>
0.3983173370

$$$$
[H]O[C@]1([H])[C@]([H])(O[H])[C@@]([H])(O[H])[C@]1([H])C([H])([H])OP(=O)(O[H])OP(=O)(O[H])OC([H])([H])[C@@]1([H])OC(=O)[C@]1([H])O[H]


 30 31  0  0  0  0  0  0  0  0999 V2000
   -4.2179   23.4613  -28.2441 P   0  0  0  0  0  0  0  0  0  0  0  0
   -4.9627   24.9811  -28.3055 O   0  0  0  0  0  0  0  0  0  0  0  0
   -4.7561   22.6472  -29.4202 O   0  0  0  0  0  0  0  0  0  0  0  0
   -4.6832   25.4938  -27.5061 H   0  0  0  0  0  0  0  0  0  0  0  0
   -4.6780   22.7334  -26.7761 O   0  0  0  0  0  0  0  0  0  0  0  0
   -4.9094   23.9392  -25.6405 P   0  0  0  0  0  0  0  0  0  0  0  0
   -6.4687   24.5517  -25.8299 O   0  0  0  0  0  0  0  0  0  0  0  0
   -3.8575   25.0330  -25.8457 O   0  0  0  0  0  0  0  0  0  0  0  0
   -6.4016   25.4832  -26.1118 H   0  0  0  0  0  0  0  0  0  0  0  0
   -4.7159   23.3692  -24.0564 O   0  0  0  0  0  0  0  0  0  0  0  0
   -5.9392   22.8307  -23.6633 C   0  0  0  0  0  0  0  0  0  0  0  0
   -8.5967   23.6898  -21.3796 O   0  0  0  0  0  0  0  0  0  0  0  0
   -7.8071   23.9836  -22.4874 C   0  0  0  0  0  0  0  0  0  0  0  0
   -6.4013   23.4073  -22.3414 C   0  0  0  0  0  0  0  0  0  0  0  0
   -5.9926   24.7491  -22.1747 O   0  0  0  0  0  0  0  0  0  0  0  0
   -7.2129   25.3416  -22.4211 C   0  0  0  0  0  0  0  0  0  0  0  0
   -7.7117   26.4853  -22.5511 O   0  0  0  0  0  0  0  0  0  0  0  0
   -8.1856   22.9398  -20.8791 H   0  0  0  0  0  0  0  0  0  0  0  0
   -2.5628   23.5482  -28.4101 O   0  0  0  0  0  0  0  0  0  0  0  0
   -1.8785   22.5050  -27.8428 C   0  0  0  0  0  0  0  0  0  0  0  0
   -1.2239   22.9646  -26.5644 C   0  0  0  0  0  0  0  0  0  0  0  0
   -1.0830   21.8916  -25.5060 C   0  0  0  0  0  0  0  0  0  0  0  0
   -2.0079   21.9350  -24.4907 O   0  0  0  0  0  0  0  0  0  0  0  0
    0.2606   22.5422  -25.1477 C   0  0  0  0  0  0  0  0  0  0  0  0
    1.2657   21.6595  -24.8425 O   0  0  0  0  0  0  0  0  0  0  0  0
    0.2819   23.0476  -26.5970 C   0  0  0  0  0  0  0  0  0  0  0  0
    0.9283   22.1962  -27.4554 O   0  0  0  0  0  0  0  0  0  0  0  0
   -2.6933   21.2430  -24.6806 H   0  0  0  0  0  0  0  0  0  0  0  0
    2.1279   22.0316  -25.2151 H   0  0  0  0  0  0  0  0  0  0  0  0
    1.1481   21.3335  -27.0250 H   0  0  0  0  0  0  0  0  0  0  0  0
 12 13  1  0  0  0
 13 14  1  0  0  0
 14 11  1  0  0  0
 11 10  1  0  0  0
 10  6  1  0  0  0
  6  7  1  0  0  0
  6  8  2  0  0  0
  6  5  1  0  0  0
  5  1  1  0  0  0
  1  2  1  0  0  0
  1  3  2  0  0  0
  1 19  1  0  0  0
 19 20  1  0  0  0
 20 21  1  0  0  0
 21 22  1  0  0  0
 22 23  1  0  0  0
 22 24  1  0  0  0
 24 25  1  0  0  0
 24 26  1  0  0  0
 26 27  1  0  0  0
 14 15  1  0  0  0
 15 16  1  0  0  0
 16 17  2  0  0  0
 16 13  1  0  0  0
 26 21  1  0  0  0
 12 18  1  0  0  0
  7  9  1  0  0  0
  2  4  1  0  0  0
 23 28  1  0  0  0
 25 29  1  0  0  0
 27 30  1  0  0  0
M  END
> <minimizedAffinity>
-6.12875

> <CNNscore>
0.2773571908

> <CNNaffinity>
4.0723538399

> <CNN_VS>
1.1294965744

> <CNNaffinity_variance>
0.3055335879

$$$$
[H]O[C@]1([H])[C@]([H])(O[H])[C@@]([H])(O[H])[C@]1([H])C([H])([H])OP(=O)(O[H])OP(=O)(O[H])OC([H])([H])[C@@]1([H])OC(=O)[C@]1([H])O[H]


 30 31  0  0  0  0  0  0  0  0999 V2000
   -5.7135   25.6237  -27.1329 P   0  0  0  0  0  0  0  0  0  0  0  0
   -6.4608   25.8189  -28.6401 O   0  0  0  0  0  0  0  0  0  0  0  0
   -5.5344   27.0183  -26.5341 O   0  0  0  0  0  0  0  0  0  0  0  0
   -6.5141   24.9312  -29.0750 H   0  0  0  0  0  0  0  0  0  0  0  0
   -4.1926   24.9130  -27.4128 O   0  0  0  0  0  0  0  0  0  0  0  0
   -4.3041   23.9508  -28.7762 P   0  0  0  0  0  0  0  0  0  0  0  0
   -4.2241   24.9469  -30.1342 O   0  0  0  0  0  0  0  0  0  0  0  0
   -5.6230   23.1738  -28.7380 O   0  0  0  0  0  0  0  0  0  0  0  0
   -5.0768   24.8945  -30.6052 H   0  0  0  0  0  0  0  0  0  0  0  0
   -3.0628   22.7993  -28.8476 O   0  0  0  0  0  0  0  0  0  0  0  0
   -2.1719   23.0941  -27.8179 C   0  0  0  0  0  0  0  0  0  0  0  0
   -3.5102   21.2076  -25.0490 O   0  0  0  0  0  0  0  0  0  0  0  0
   -2.8026   22.2992  -25.5438 C   0  0  0  0  0  0  0  0  0  0  0  0
   -2.0629   21.9494  -26.8324 C   0  0  0  0  0  0  0  0  0  0  0  0
   -0.8916   22.0334  -26.0475 O   0  0  0  0  0  0  0  0  0  0  0  0
   -1.4853   22.4727  -24.8833 C   0  0  0  0  0  0  0  0  0  0  0  0
   -1.1650   22.8643  -23.7353 O   0  0  0  0  0  0  0  0  0  0  0  0
   -3.6220   20.5398  -25.7726 H   0  0  0  0  0  0  0  0  0  0  0  0
   -6.6352   24.7352  -26.0674 O   0  0  0  0  0  0  0  0  0  0  0  0
   -5.9589   24.2958  -24.9593 C   0  0  0  0  0  0  0  0  0  0  0  0
   -6.8805   24.3084  -23.7657 C   0  0  0  0  0  0  0  0  0  0  0  0
   -6.2247   24.7229  -22.4660 C   0  0  0  0  0  0  0  0  0  0  0  0
   -5.9035   23.6969  -21.6102 O   0  0  0  0  0  0  0  0  0  0  0  0
   -7.5463   25.4246  -22.1226 C   0  0  0  0  0  0  0  0  0  0  0  0
   -7.4096   26.6353  -21.4916 O   0  0  0  0  0  0  0  0  0  0  0  0
   -7.7652   25.5236  -23.6387 C   0  0  0  0  0  0  0  0  0  0  0  0
   -7.2902   26.6915  -24.1770 O   0  0  0  0  0  0  0  0  0  0  0  0
   -4.9309   23.5232  -21.7031 H   0  0  0  0  0  0  0  0  0  0  0  0
   -8.1328   27.2489  -21.8394 H   0  0  0  0  0  0  0  0  0  0  0  0
   -6.7600   27.2111  -23.5238 H   0  0  0  0  0  0  0  0  0  0  0  0
 12 13  1  0  0  0
 13 14  1  0  0  0
 14 11  1  0  0  0
 11 10  1  0  0  0
 10  6  1  0  0  0
  6  7  1  0  0  0
  6  8  2  0  0  0
  6  5  1  0  0  0
  5  1  1  0  0  0
  1  2  1  0  0  0
  1  3  2  0  0  0
  1 19  1  0  0  0
 19 20  1  0  0  0
 20 21  1  0  0  0
 21 22  1  0  0  0
 22 23  1  0  0  0
 22 24  1  0  0  0
 24 25  1  0  0  0
 24 26  1  0  0  0
 26 27  1  0  0  0
 14 15  1  0  0  0
 15 16  1  0  0  0
 16 17  2  0  0  0
 16 13  1  0  0  0
 26 21  1  0  0  0
 12 18  1  0  0  0
  7  9  1  0  0  0
  2  4  1  0  0  0
 23 28  1  0  0  0
 25 29  1  0  0  0
 27 30  1  0  0  0
M  END
> <minimizedAffinity>
-6.56691

> <CNNscore>
0.2752281129

> <CNNaffinity>
4.2201251984

> <CNN_VS>
1.1614971161

> <CNNaffinity_variance>
0.4279275537

$$$$
[H]O[C@]1([H])[C@]([H])(O[H])[C@@]([H])(O[H])[C@]1([H])C([H])([H])OP(=O)(O[H])OP(=O)(O[H])OC([H])([H])[C@@]1([H])OC(=O)[C@]1([H])O[H]


 30 31  0  0  0  0  0  0  0  0999 V2000
   -4.8111   23.7726  -26.5538 P   0  0  0  0  0  0  0  0  0  0  0  0
   -4.5954   25.4464  -26.6961 O   0  0  0  0  0  0  0  0  0  0  0  0
   -5.1866   23.2467  -27.9388 O   0  0  0  0  0  0  0  0  0  0  0  0
   -4.4274   25.8134  -25.7921 H   0  0  0  0  0  0  0  0  0  0  0  0
   -6.0982   23.5207  -25.4692 O   0  0  0  0  0  0  0  0  0  0  0  0
   -6.0828   24.7530  -24.3387 P   0  0  0  0  0  0  0  0  0  0  0  0
   -6.9145   26.0711  -24.9818 O   0  0  0  0  0  0  0  0  0  0  0  0
   -4.6321   25.1204  -24.0137 O   0  0  0  0  0  0  0  0  0  0  0  0
   -6.2843   26.8070  -25.0960 H   0  0  0  0  0  0  0  0  0  0  0  0
   -6.8058   24.2880  -22.8782 O   0  0  0  0  0  0  0  0  0  0  0  0
   -5.8431   23.5947  -22.1479 C   0  0  0  0  0  0  0  0  0  0  0  0
   -8.3953   21.1158  -21.5501 O   0  0  0  0  0  0  0  0  0  0  0  0
   -7.5226   22.0948  -21.0845 C   0  0  0  0  0  0  0  0  0  0  0  0
   -6.2481   22.1529  -21.9224 C   0  0  0  0  0  0  0  0  0  0  0  0
   -5.6150   21.5937  -20.7903 O   0  0  0  0  0  0  0  0  0  0  0  0
   -6.7001   21.6293  -19.9405 C   0  0  0  0  0  0  0  0  0  0  0  0
   -6.9827   21.3985  -18.7402 O   0  0  0  0  0  0  0  0  0  0  0  0
   -8.1440   20.8730  -22.4774 H   0  0  0  0  0  0  0  0  0  0  0  0
   -3.4243   22.9829  -26.0767 O   0  0  0  0  0  0  0  0  0  0  0  0
   -2.3235   23.2499  -26.8483 C   0  0  0  0  0  0  0  0  0  0  0  0
   -1.2375   22.2486  -26.5445 C   0  0  0  0  0  0  0  0  0  0  0  0
    0.1613   22.8258  -26.5085 C   0  0  0  0  0  0  0  0  0  0  0  0
    0.9243   22.6017  -27.6291 O   0  0  0  0  0  0  0  0  0  0  0  0
    0.4437   21.8456  -25.3612 C   0  0  0  0  0  0  0  0  0  0  0  0
    1.2181   22.3515  -24.3478 O   0  0  0  0  0  0  0  0  0  0  0  0
   -1.0660   21.8957  -25.0879 C   0  0  0  0  0  0  0  0  0  0  0  0
   -1.4171   22.8561  -24.1749 O   0  0  0  0  0  0  0  0  0  0  0  0
    0.9131   23.4336  -28.1700 H   0  0  0  0  0  0  0  0  0  0  0  0
    0.8691   21.9786  -23.4761 H   0  0  0  0  0  0  0  0  0  0  0  0
   -0.6582   23.4496  -23.9520 H   0  0  0  0  0  0  0  0  0  0  0  0
 12 13  1  0  0  0
 13 14  1  0  0  0
 14 11  1  0  0  0
 11 10  1  0  0  0
 10  6  1  0  0  0
  6  7  1  0  0  0
  6  8  2  0  0  0
  6  5  1  0  0  0
  5  1  1  0  0  0
  1  2  1  0  0  0
  1  3  2  0  0  0
  1 19  1  0  0  0
 19 20  1  0  0  0
 20 21  1  0  0  0
 21 22  1  0  0  0
 22 23  1  0  0  0
 22 24  1  0  0  0
 24 25  1  0  0  0
 24 26  1  0  0  0
 26 27  1  0  0  0
 14 15  1  0  0  0
 15 16  1  0  0  0
 16 17  2  0  0  0
 16 13  1  0  0  0
 26 21  1  0  0  0
 12 18  1  0  0  0
  7  9  1  0  0  0
  2  4  1  0  0  0
 23 28  1  0  0  0
 25 29  1  0  0  0
 27 30  1  0  0  0
M  END
> <minimizedAffinity>
-6.22259

> <CNNscore>
0.2595803142

> <CNNaffinity>
3.9207935333

> <CNN_VS>
1.0177608728

> <CNNaffinity_variance>
0.0947769657

$$$$
[H]O[C@]1([H])[C@]([H])(O[H])[C@@]([H])(O[H])[C@]1([H])C([H])([H])OP(=O)(O[H])OP(=O)(O[H])OC([H])([H])[C@@]1([H])OC(=O)[C@]1([H])O[H]


 30 31  0  0  0  0  0  0  0  0999 V2000
   -5.7320   25.1368  -24.7534 P   0  0  0  0  0  0  0  0  0  0  0  0
   -4.7739   25.7330  -23.4905 O   0  0  0  0  0  0  0  0  0  0  0  0
   -6.9215   26.0846  -24.9036 O   0  0  0  0  0  0  0  0  0  0  0  0
   -4.0403   25.0881  -23.3294 H   0  0  0  0  0  0  0  0  0  0  0  0
   -6.2759   23.5929  -24.2877 O   0  0  0  0  0  0  0  0  0  0  0  0
   -6.4403   23.5724  -22.6235 P   0  0  0  0  0  0  0  0  0  0  0  0
   -7.3697   22.2309  -22.2004 O   0  0  0  0  0  0  0  0  0  0  0  0
   -7.1076   24.8729  -22.1672 O   0  0  0  0  0  0  0  0  0  0  0  0
   -8.2042   22.5465  -21.8058 H   0  0  0  0  0  0  0  0  0  0  0  0
   -4.9422   23.4918  -21.8354 O   0  0  0  0  0  0  0  0  0  0  0  0
   -4.5198   22.1656  -21.8948 C   0  0  0  0  0  0  0  0  0  0  0  0
   -1.3234   23.7372  -22.4684 O   0  0  0  0  0  0  0  0  0  0  0  0
   -2.5848   23.3551  -22.9155 C   0  0  0  0  0  0  0  0  0  0  0  0
   -3.0497   22.0655  -22.2442 C   0  0  0  0  0  0  0  0  0  0  0  0
   -2.8430   21.4686  -23.5076 O   0  0  0  0  0  0  0  0  0  0  0  0
   -2.5355   22.6189  -24.2028 C   0  0  0  0  0  0  0  0  0  0  0  0
   -2.3009   22.9926  -25.3771 O   0  0  0  0  0  0  0  0  0  0  0  0
   -1.1264   23.2691  -21.6175 H   0  0  0  0  0  0  0  0  0  0  0  0
   -4.9284   25.1059  -26.2120 O   0  0  0  0  0  0  0  0  0  0  0  0
   -5.6670   25.5488  -27.2781 C   0  0  0  0  0  0  0  0  0  0  0  0
   -4.9695   25.1831  -28.5641 C   0  0  0  0  0  0  0  0  0  0  0  0
   -5.4198   23.8741  -29.1766 C   0  0  0  0  0  0  0  0  0  0  0  0
   -4.5818   22.8045  -28.9719 O   0  0  0  0  0  0  0  0  0  0  0  0
   -5.2385   24.5500  -30.5430 C   0  0  0  0  0  0  0  0  0  0  0  0
   -6.1971   24.2364  -31.4733 O   0  0  0  0  0  0  0  0  0  0  0  0
   -5.4847   25.8723  -29.8032 C   0  0  0  0  0  0  0  0  0  0  0  0
   -6.8028   26.2492  -29.7967 O   0  0  0  0  0  0  0  0  0  0  0  0
   -4.9695   22.2561  -28.2414 H   0  0  0  0  0  0  0  0  0  0  0  0
   -6.3870   25.0682  -32.0143 H   0  0  0  0  0  0  0  0  0  0  0  0
   -7.3929   25.5366  -30.1457 H   0  0  0  0  0  0  0  0  0  0  0  0
 12 13  1  0  0  0
 13 14  1  0  0  0
 14 11  1  0  0  0
 11 10  1  0  0  0
 10  6  1  0  0  0
  6  7  1  0  0  0
  6  8  2  0  0  0
  6  5  1  0  0  0
  5  1  1  0  0  0
  1  2  1  0  0  0
  1  3  2  0  0  0
  1 19  1  0  0  0
 19 20  1  0  0  0
 20 21  1  0  0  0
 21 22  1  0  0  0
 22 23  1  0  0  0
 22 24  1  0  0  0
 24 25  1  0  0  0
 24 26  1  0  0  0
 26 27  1  0  0  0
 14 15  1  0  0  0
 15 16  1  0  0  0
 16 17  2  0  0  0
 16 13  1  0  0  0
 26 21  1  0  0  0
 12 18  1  0  0  0
  7  9  1  0  0  0
  2  4  1  0  0  0
 23 28  1  0  0  0
 25 29  1  0  0  0
 27 30  1  0  0  0
M  END
> <minimizedAffinity>
-6.13373

> <CNNscore>
0.2399214953

> <CNNaffinity>
4.1207137108

> <CNN_VS>
0.9886478186

> <CNNaffinity_variance>
0.1799806207

$$$$
[H]O[C@]1([H])[C@]([H])(O[H])[C@@]([H])(O[H])[C@]1([H])C([H])([H])OP(=O)(O[H])OP(=O)(O[H])OC([H])([H])[C@@]1([H])OC(=O)[C@]1([H])O[H]


 30 31  0  0  0  0  0  0  0  0999 V2000
   -4.7604   23.4944  -25.3640 P   0  0  0  0  0  0  0  0  0  0  0  0
   -4.8170   25.1552  -25.6909 O   0  0  0  0  0  0  0  0  0  0  0  0
   -6.1913   22.9664  -25.4610 O   0  0  0  0  0  0  0  0  0  0  0  0
   -3.9093   25.5269  -25.5564 H   0  0  0  0  0  0  0  0  0  0  0  0
   -4.1820   23.3133  -23.7736 O   0  0  0  0  0  0  0  0  0  0  0  0
   -5.3429   23.8982  -22.7214 P   0  0  0  0  0  0  0  0  0  0  0  0
   -4.5827   24.3204  -21.2770 O   0  0  0  0  0  0  0  0  0  0  0  0
   -6.4046   22.8188  -22.4920 O   0  0  0  0  0  0  0  0  0  0  0  0
   -4.9160   23.7353  -20.5711 H   0  0  0  0  0  0  0  0  0  0  0  0
   -6.1505   25.2492  -23.3495 O   0  0  0  0  0  0  0  0  0  0  0  0
   -7.4267   25.2590  -22.7909 C   0  0  0  0  0  0  0  0  0  0  0  0
   -7.4745   25.3812  -19.1854 O   0  0  0  0  0  0  0  0  0  0  0  0
   -8.1327   25.2351  -20.4029 C   0  0  0  0  0  0  0  0  0  0  0  0
   -7.4636   26.0549  -21.5030 C   0  0  0  0  0  0  0  0  0  0  0  0
   -8.6054   26.8826  -21.4221 O   0  0  0  0  0  0  0  0  0  0  0  0
   -9.3179   26.1200  -20.5211 C   0  0  0  0  0  0  0  0  0  0  0  0
  -10.4480   26.0896  -19.9772 O   0  0  0  0  0  0  0  0  0  0  0  0
   -6.5653   25.7393  -19.3503 H   0  0  0  0  0  0  0  0  0  0  0  0
   -3.8393   22.6520  -26.4668 O   0  0  0  0  0  0  0  0  0  0  0  0
   -2.6651   23.2670  -26.8152 C   0  0  0  0  0  0  0  0  0  0  0  0
   -1.5194   22.3001  -26.6521 C   0  0  0  0  0  0  0  0  0  0  0  0
   -0.1453   22.9224  -26.7779 C   0  0  0  0  0  0  0  0  0  0  0  0
    0.4851   22.7291  -27.9835 O   0  0  0  0  0  0  0  0  0  0  0  0
    0.3030   21.9459  -25.6814 C   0  0  0  0  0  0  0  0  0  0  0  0
    1.1765   22.4714  -24.7630 O   0  0  0  0  0  0  0  0  0  0  0  0
   -1.1640   21.9453  -25.2297 C   0  0  0  0  0  0  0  0  0  0  0  0
   -1.4338   22.8891  -24.2726 O   0  0  0  0  0  0  0  0  0  0  0  0
    0.3830   23.5629  -28.5116 H   0  0  0  0  0  0  0  0  0  0  0  0
    0.9461   22.0828  -23.8594 H   0  0  0  0  0  0  0  0  0  0  0  0
   -0.6729   23.5058  -24.1364 H   0  0  0  0  0  0  0  0  0  0  0  0
 12 13  1  0  0  0
 13 14  1  0  0  0
 14 11  1  0  0  0
 11 10  1  0  0  0
 10  6  1  0  0  0
  6  7  1  0  0  0
  6  8  2  0  0  0
  6  5  1  0  0  0
  5  1  1  0  0  0
  1  2  1  0  0  0
  1  3  2  0  0  0
  1 19  1  0  0  0
 19 20  1  0  0  0
 20 21  1  0  0  0
 21 22  1  0  0  0
 22 23  1  0  0  0
 22 24  1  0  0  0
 24 25  1  0  0  0
 24 26  1  0  0  0
 26 27  1  0  0  0
 14 15  1  0  0  0
 15 16  1  0  0  0
 16 17  2  0  0  0
 16 13  1  0  0  0
 26 21  1  0  0  0
 12 18  1  0  0  0
  7  9  1  0  0  0
  2  4  1  0  0  0
 23 28  1  0  0  0
 25 29  1  0  0  0
 27 30  1  0  0  0
M  END
> <minimizedAffinity>
-6.50450

> <CNNscore>
0.2315569073

> <CNNaffinity>
4.0297069550

> <CNN_VS>
0.9331064820

> <CNNaffinity_variance>
0.2006373852

$$$$
[H]O[C@]1([H])[C@]([H])(O[H])[C@@]([H])(O[H])[C@]1([H])C([H])([H])OP(=O)(O[H])OP(=O)(O[H])OC([H])([H])[C@@]1([H])OC(=O)[C@]1([H])O[H]


 30 31  0  0  0  0  0  0  0  0999 V2000
   -4.2703   22.8670  -24.0585 P   0  0  0  0  0  0  0  0  0  0  0  0
   -5.0015   22.6451  -25.5700 O   0  0  0  0  0  0  0  0  0  0  0  0
   -4.1962   21.4960  -23.3874 O   0  0  0  0  0  0  0  0  0  0  0  0
   -5.1270   23.5349  -25.9852 H   0  0  0  0  0  0  0  0  0  0  0  0
   -5.2791   23.9000  -23.1575 O   0  0  0  0  0  0  0  0  0  0  0  0
   -5.8681   25.0845  -24.1807 P   0  0  0  0  0  0  0  0  0  0  0  0
   -6.4657   26.3482  -23.2380 O   0  0  0  0  0  0  0  0  0  0  0  0
   -6.9670   24.4866  -25.0638 O   0  0  0  0  0  0  0  0  0  0  0  0
   -7.4287   26.4105  -23.3812 H   0  0  0  0  0  0  0  0  0  0  0  0
   -4.6727   25.6770  -25.2257 O   0  0  0  0  0  0  0  0  0  0  0  0
   -5.3278   26.3219  -26.2724 C   0  0  0  0  0  0  0  0  0  0  0  0
   -5.5343   26.2295  -29.8731 O   0  0  0  0  0  0  0  0  0  0  0  0
   -5.8455   25.6953  -28.6263 C   0  0  0  0  0  0  0  0  0  0  0  0
   -4.7318   25.9504  -27.6142 C   0  0  0  0  0  0  0  0  0  0  0  0
   -4.4771   24.5649  -27.7174 O   0  0  0  0  0  0  0  0  0  0  0  0
   -5.5413   24.2459  -28.5339 C   0  0  0  0  0  0  0  0  0  0  0  0
   -6.0934   23.2370  -29.0349 O   0  0  0  0  0  0  0  0  0  0  0  0
   -4.8117   26.8993  -29.7668 H   0  0  0  0  0  0  0  0  0  0  0  0
   -2.7154   23.4528  -24.1752 O   0  0  0  0  0  0  0  0  0  0  0  0
   -1.7382   22.5300  -23.9069 C   0  0  0  0  0  0  0  0  0  0  0  0
   -1.2422   21.9281  -25.1975 C   0  0  0  0  0  0  0  0  0  0  0  0
   -1.3525   22.8381  -26.4021 C   0  0  0  0  0  0  0  0  0  0  0  0
   -2.4100   22.5844  -27.2421 O   0  0  0  0  0  0  0  0  0  0  0  0
   -0.0254   22.2292  -26.8762 C   0  0  0  0  0  0  0  0  0  0  0  0
    0.8435   23.1194  -27.4552 O   0  0  0  0  0  0  0  0  0  0  0  0
    0.2534   21.9480  -25.3931 C   0  0  0  0  0  0  0  0  0  0  0  0
    0.9433   22.9576  -24.7732 O   0  0  0  0  0  0  0  0  0  0  0  0
   -3.1171   23.2514  -27.0429 H   0  0  0  0  0  0  0  0  0  0  0  0
    1.7801   22.8632  -27.1766 H   0  0  0  0  0  0  0  0  0  0  0  0
    1.0216   23.7588  -25.3475 H   0  0  0  0  0  0  0  0  0  0  0  0
 12 13  1  0  0  0
 13 14  1  0  0  0
 14 11  1  0  0  0
 11 10  1  0  0  0
 10  6  1  0  0  0
  6  7  1  0  0  0
  6  8  2  0  0  0
  6  5  1  0  0  0
  5  1  1  0  0  0
  1  2  1  0  0  0
  1  3  2  0  0  0
  1 19  1  0  0  0
 19 20  1  0  0  0
 20 21  1  0  0  0
 21 22  1  0  0  0
 22 23  1  0  0  0
 22 24  1  0  0  0
 24 25  1  0  0  0
 24 26  1  0  0  0
 26 27  1  0  0  0
 14 15  1  0  0  0
 15 16  1  0  0  0
 16 17  2  0  0  0
 16 13  1  0  0  0
 26 21  1  0  0  0
 12 18  1  0  0  0
  7  9  1  0  0  0
  2  4  1  0  0  0
 23 28  1  0  0  0
 25 29  1  0  0  0
 27 30  1  0  0  0
M  END
> <minimizedAffinity>
-6.79804

> <CNNscore>
0.2177221626

> <CNNaffinity>
3.9423439503

> <CNN_VS>
0.8583356738

> <CNNaffinity_variance>
0.1624202281

$$$$
[H]O[C@]1([H])[C@]([H])(O[H])[C@@]([H])(O[H])[C@]1([H])C([H])([H])OP(=O)(O[H])OP(=O)(O[H])OC([H])([H])[C@@]1([H])OC(=O)[C@]1([H])O[H]


 30 31  0  0  0  0  0  0  0  0999 V2000
   -5.7522   25.6038  -25.9424 P   0  0  0  0  0  0  0  0  0  0  0  0
   -6.7261   24.6379  -26.9359 O   0  0  0  0  0  0  0  0  0  0  0  0
   -5.3815   26.8490  -26.7470 O   0  0  0  0  0  0  0  0  0  0  0  0
   -6.9112   23.7915  -26.4570 H   0  0  0  0  0  0  0  0  0  0  0  0
   -4.3512   24.7064  -25.5841 O   0  0  0  0  0  0  0  0  0  0  0  0
   -4.6292   23.1095  -25.9962 P   0  0  0  0  0  0  0  0  0  0  0  0
   -4.6987   23.0018  -27.6774 O   0  0  0  0  0  0  0  0  0  0  0  0
   -5.9417   22.6457  -25.3582 O   0  0  0  0  0  0  0  0  0  0  0  0
   -5.6009   22.7313  -27.9315 H   0  0  0  0  0  0  0  0  0  0  0  0
   -3.4152   22.0800  -25.4149 O   0  0  0  0  0  0  0  0  0  0  0  0
   -2.4566   21.9699  -26.4198 C   0  0  0  0  0  0  0  0  0  0  0  0
    0.8993   23.0372  -27.2039 O   0  0  0  0  0  0  0  0  0  0  0  0
    0.0216   22.1655  -26.5661 C   0  0  0  0  0  0  0  0  0  0  0  0
   -1.2684   22.8709  -26.1558 C   0  0  0  0  0  0  0  0  0  0  0  0
   -0.7848   22.7397  -24.8351 O   0  0  0  0  0  0  0  0  0  0  0  0
    0.3356   21.9910  -25.1265 C   0  0  0  0  0  0  0  0  0  0  0  0
    1.2644   21.3897  -24.5350 O   0  0  0  0  0  0  0  0  0  0  0  0
    0.3969   23.8337  -27.5125 H   0  0  0  0  0  0  0  0  0  0  0  0
   -6.5410   26.1125  -24.5663 O   0  0  0  0  0  0  0  0  0  0  0  0
   -7.5777   25.3065  -24.1739 C   0  0  0  0  0  0  0  0  0  0  0  0
   -7.2573   24.6838  -22.8384 C   0  0  0  0  0  0  0  0  0  0  0  0
   -5.8121   24.8193  -22.4089 C   0  0  0  0  0  0  0  0  0  0  0  0
   -5.0341   23.7003  -22.5839 O   0  0  0  0  0  0  0  0  0  0  0  0
   -6.3427   24.9868  -20.9781 C   0  0  0  0  0  0  0  0  0  0  0  0
   -5.6780   25.9190  -20.2218 O   0  0  0  0  0  0  0  0  0  0  0  0
   -7.6321   25.5052  -21.6299 C   0  0  0  0  0  0  0  0  0  0  0  0
   -7.6459   26.8668  -21.7896 O   0  0  0  0  0  0  0  0  0  0  0  0
   -4.4947   23.8364  -23.4056 H   0  0  0  0  0  0  0  0  0  0  0  0
   -6.3590   26.3913  -19.6442 H   0  0  0  0  0  0  0  0  0  0  0  0
   -6.7663   27.2716  -21.5890 H   0  0  0  0  0  0  0  0  0  0  0  0
 12 13  1  0  0  0
 13 14  1  0  0  0
 14 11  1  0  0  0
 11 10  1  0  0  0
 10  6  1  0  0  0
  6  7  1  0  0  0
  6  8  2  0  0  0
  6  5  1  0  0  0
  5  1  1  0  0  0
  1  2  1  0  0  0
  1  3  2  0  0  0
  1 19  1  0  0  0
 19 20  1  0  0  0
 20 21  1  0  0  0
 21 22  1  0  0  0
 22 23  1  0  0  0
 22 24  1  0  0  0
 24 25  1  0  0  0
 24 26  1  0  0  0
 26 27  1  0  0  0
 14 15  1  0  0  0
 15 16  1  0  0  0
 16 17  2  0  0  0
 16 13  1  0  0  0
 26 21  1  0  0  0
 12 18  1  0  0  0
  7  9  1  0  0  0
  2  4  1  0  0  0
 23 28  1  0  0  0
 25 29  1  0  0  0
 27 30  1  0  0  0
M  END
> <minimizedAffinity>
-6.68025

> <CNNscore>
0.2103237361

> <CNNaffinity>
4.0611443520

> <CNN_VS>
0.8541550636

> <CNNaffinity_variance>
0.3211619258

$$$$
[H]O[C@]1([H])[C@]([H])(O[H])[C@@]([H])(O[H])[C@]1([H])C([H])([H])OP(=O)(O[H])OP(=O)(O[H])OC([H])([H])[C@@]1([H])OC(=O)[C@]1([H])O[H]


 30 31  0  0  0  0  0  0  0  0999 V2000
   -6.3013   25.4635  -24.9496 P   0  0  0  0  0  0  0  0  0  0  0  0
   -7.2110   25.1540  -26.3442 O   0  0  0  0  0  0  0  0  0  0  0  0
   -6.3603   26.9697  -24.6973 O   0  0  0  0  0  0  0  0  0  0  0  0
   -7.1193   24.1933  -26.5651 H   0  0  0  0  0  0  0  0  0  0  0  0
   -4.6991   24.9929  -25.2783 O   0  0  0  0  0  0  0  0  0  0  0  0
   -4.6191   23.3233  -25.2236 P   0  0  0  0  0  0  0  0  0  0  0  0
   -6.1728   22.7116  -25.4568 O   0  0  0  0  0  0  0  0  0  0  0  0
   -4.0525   22.8902  -23.8685 O   0  0  0  0  0  0  0  0  0  0  0  0
   -6.4491   22.2534  -24.6410 H   0  0  0  0  0  0  0  0  0  0  0  0
   -3.5821   22.6951  -26.4076 O   0  0  0  0  0  0  0  0  0  0  0  0
   -2.5462   22.0448  -25.7407 C   0  0  0  0  0  0  0  0  0  0  0  0
    0.7853   22.8685  -26.8535 O   0  0  0  0  0  0  0  0  0  0  0  0
   -0.0786   22.1105  -26.0687 C   0  0  0  0  0  0  0  0  0  0  0  0
   -1.3088   22.9136  -25.6545 C   0  0  0  0  0  0  0  0  0  0  0  0
   -0.7397   22.9015  -24.3617 O   0  0  0  0  0  0  0  0  0  0  0  0
    0.3281   22.0756  -24.6421 C   0  0  0  0  0  0  0  0  0  0  0  0
    1.2721   21.4988  -24.0504 O   0  0  0  0  0  0  0  0  0  0  0  0
    0.2935   23.6498  -27.2137 H   0  0  0  0  0  0  0  0  0  0  0  0
   -6.9141   24.7046  -23.5994 O   0  0  0  0  0  0  0  0  0  0  0  0
   -7.8777   25.4171  -22.9345 C   0  0  0  0  0  0  0  0  0  0  0  0
   -7.3201   25.9274  -21.6296 C   0  0  0  0  0  0  0  0  0  0  0  0
   -8.2492   25.7772  -20.4441 C   0  0  0  0  0  0  0  0  0  0  0  0
   -8.9114   26.9188  -20.0614 O   0  0  0  0  0  0  0  0  0  0  0  0
   -6.9960   25.4791  -19.6089 C   0  0  0  0  0  0  0  0  0  0  0  0
   -7.1524   24.4955  -18.6651 O   0  0  0  0  0  0  0  0  0  0  0  0
   -6.3637   24.9993  -20.9227 C   0  0  0  0  0  0  0  0  0  0  0  0
   -6.5309   23.6565  -21.1428 O   0  0  0  0  0  0  0  0  0  0  0  0
   -9.8358   26.8622  -20.4177 H   0  0  0  0  0  0  0  0  0  0  0  0
   -6.2936   23.9649  -18.6261 H   0  0  0  0  0  0  0  0  0  0  0  0
   -7.1521   23.2493  -20.4900 H   0  0  0  0  0  0  0  0  0  0  0  0
 12 13  1  0  0  0
 13 14  1  0  0  0
 14 11  1  0  0  0
 11 10  1  0  0  0
 10  6  1  0  0  0
  6  7  1  0  0  0
  6  8  2  0  0  0
  6  5  1  0  0  0
  5  1  1  0  0  0
  1  2  1  0  0  0
  1  3  2  0  0  0
  1 19  1  0  0  0
 19 20  1  0  0  0
 20 21  1  0  0  0
 21 22  1  0  0  0
 22 23  1  0  0  0
 22 24  1  0  0  0
 24 25  1  0  0  0
 24 26  1  0  0  0
 26 27  1  0  0  0
 14 15  1  0  0  0
 15 16  1  0  0  0
 16 17  2  0  0  0
 16 13  1  0  0  0
 26 21  1  0  0  0
 12 18  1  0  0  0
  7  9  1  0  0  0
  2  4  1  0  0  0
 23 28  1  0  0  0
 25 29  1  0  0  0
 27 30  1  0  0  0
M  END
> <minimizedAffinity>
-6.06057

> <CNNscore>
0.1989585757

> <CNNaffinity>
3.9500458241

> <CNN_VS>
0.7858954668

> <CNNaffinity_variance>
0.2130067796

$$$$
[H]c1nc(N([H])C([H])([H])[H])nc(-c2c([H])c([H])c(N([H])c3nn(C([H])([H])[H])c(C([H])([H])[H])c3C(=O)N3C([H])([H])C4([H])C([H])([H])N(C(C([H])([H])[H])(C([H])([H])[H])C([H])([H])[H])C([H])([H])C4(C([H])([H])[H])C3([H])[H])c([H])c2Cl)c1[H]


 40 44  0  0  0  0  0  0  0  0999 V2000
    0.2870   21.5266  -20.7262 C   0  0  0  0  0  0  0  0  0  0  0  0
    1.4480   20.9031  -21.0348 N   0  0  0  0  0  0  0  0  0  0  0  0
    1.6950   20.9368  -22.2917 N   0  0  0  0  0  0  0  0  0  0  0  0
    2.8640   20.3536  -22.9592 C   0  0  0  0  0  0  0  0  0  0  0  0
    0.6644   21.6128  -22.8816 C   0  0  0  0  0  0  0  0  0  0  0  0
    0.6600   21.8837  -24.3208 C   0  0  0  0  0  0  0  0  0  0  0  0
   -0.2642   22.0119  -21.9329 C   0  0  0  0  0  0  0  0  0  0  0  0
   -1.4490   22.8023  -22.0026 C   0  0  0  0  0  0  0  0  0  0  0  0
   -1.6032   23.5701  -20.9109 O   0  0  0  0  0  0  0  0  0  0  0  0
   -2.4980   22.9800  -22.9165 N   0  0  0  0  0  0  0  0  0  0  0  0
   -3.5440   24.0173  -22.5812 C   0  0  0  0  0  0  0  0  0  0  0  0
   -4.8056   23.5424  -23.2044 C   0  0  0  0  0  0  0  0  0  0  0  0
   -5.5014   24.6846  -23.9786 C   0  0  0  0  0  0  0  0  0  0  0  0
   -4.8542   24.6280  -25.2429 N   0  0  0  0  0  0  0  0  0  0  0  0
   -4.7452   23.2516  -25.5612 C   0  0  0  0  0  0  0  0  0  0  0  0
   -4.3865   22.5847  -24.2560 C   0  0  0  0  0  0  0  0  0  0  0  0
   -5.1604   21.2744  -24.1590 C   0  0  0  0  0  0  0  0  0  0  0  0
   -2.8921   22.3657  -24.1278 C   0  0  0  0  0  0  0  0  0  0  0  0
   -5.2869   25.5186  -26.2467 C   0  0  0  0  0  0  0  0  0  0  0  0
   -4.5029   25.3020  -27.5172 C   0  0  0  0  0  0  0  0  0  0  0  0
   -6.7561   25.3802  -26.5914 C   0  0  0  0  0  0  0  0  0  0  0  0
   -4.9866   26.9660  -25.8242 C   0  0  0  0  0  0  0  0  0  0  0  0
   -0.1855   21.6074  -19.3970 N   0  0  0  0  0  0  0  0  0  0  0  0
   -1.1880   21.5149  -19.1800 H   0  0  0  0  0  0  0  0  0  0  0  0
    2.4167   22.2654  -16.0720 C   0  0  0  0  0  0  0  0  0  0  0  0
    1.4900   21.2005  -16.0893 C   0  0  0  0  0  0  0  0  0  0  0  0
    0.6374   20.9909  -17.1528 C   0  0  0  0  0  0  0  0  0  0  0  0
    0.6414   21.7985  -18.2481 C   0  0  0  0  0  0  0  0  0  0  0  0
    1.5467   22.8456  -18.2360 C   0  0  0  0  0  0  0  0  0  0  0  0
    2.4184   23.0704  -17.1594 C   0  0  0  0  0  0  0  0  0  0  0  0
    3.4671   24.4883  -17.2545 Cl  0  0  0  0  0  0  0  0  0  0  0  0
    3.2953   22.9982  -12.6007 C   0  0  0  0  0  0  0  0  0  0  0  0
    4.6107   22.6938  -12.4928 N   0  0  0  0  0  0  0  0  0  0  0  0
    5.2535   22.2564  -13.5567 C   0  0  0  0  0  0  0  0  0  0  0  0
    4.5531   22.1202  -14.7681 C   0  0  0  0  0  0  0  0  0  0  0  0
    3.2409   22.4225  -14.8875 C   0  0  0  0  0  0  0  0  0  0  0  0
    2.6343   22.8729  -13.7340 N   0  0  0  0  0  0  0  0  0  0  0  0
    2.2436   24.8739  -11.3120 C   0  0  0  0  0  0  0  0  0  0  0  0
    2.5968   23.4697  -11.4571 N   0  0  0  0  0  0  0  0  0  0  0  0
    2.3331   22.8075  -10.7134 H   0  0  0  0  0  0  0  0  0  0  0  0
 38 39  1  0  0  0
 39 32  1  0  0  0
 32 33  2  0  0  0
 33 34  1  0  0  0
 34 35  2  0  0  0
 35 36  1  0  0  0
 36 37  2  0  0  0
 36 25  1  0  0  0
 25 26  2  0  0  0
 26 27  1  0  0  0
 27 28  2  0  0  0
 28 23  1  0  0  0
 23  1  1  0  0  0
  1  2  2  0  0  0
  2  3  1  0  0  0
  3  4  1  0  0  0
  3  5  1  0  0  0
  5  6  1  0  0  0
  5  7  2  0  0  0
  7  8  1  0  0  0
  8  9  2  0  0  0
  8 10  1  0  0  0
 10 11  1  0  0  0
 11 12  1  0  0  0
 12 13  1  0  0  0
 13 14  1  0  0  0
 14 15  1  0  0  0
 15 16  1  0  0  0
 16 17  1  0  0  0
 16 18  1  0  0  0
 14 19  1  0  0  0
 19 20  1  0  0  0
 19 21  1  0  0  0
 19 22  1  0  0  0
 28 29  1  0  0  0
 29 30  2  0  0  0
 30 31  1  0  0  0
 37 32  1  0  0  0
 30 25  1  0  0  0
  7  1  1  0  0  0
 18 10  1  0  0  0
 16 12  1  0  0  0
 39 40  1  0  0  0
 23 24  1  0  0  0
M  END
> <minimizedAffinity>
-8.29590

> <CNNscore>
0.1260944605

> <CNNaffinity>
6.2490310669

> <CNN_VS>
0.7879682183

> <CNNaffinity_variance>
0.1503457129

$$$$
[H]c1nc(N([H])C([H])([H])[H])nc(-c2c([H])c([H])c(N([H])c3nn(C([H])([H])[H])c(C([H])([H])[H])c3C(=O)N3C([H])([H])C4([H])C([H])([H])N(C(C([H])([H])[H])(C([H])([H])[H])C([H])([H])[H])C([H])([H])C4(C([H])([H])[H])C3([H])[H])c([H])c2Cl)c1[H]


 40 44  0  0  0  0  0  0  0  0999 V2000
    0.0049   21.1076  -21.1625 C   0  0  0  0  0  0  0  0  0  0  0  0
    1.3215   20.8160  -21.0464 N   0  0  0  0  0  0  0  0  0  0  0  0
    1.8770   21.4630  -20.0900 N   0  0  0  0  0  0  0  0  0  0  0  0
    3.2883   21.3838  -19.6976 C   0  0  0  0  0  0  0  0  0  0  0  0
    0.9068   22.2354  -19.5162 C   0  0  0  0  0  0  0  0  0  0  0  0
    1.1928   23.0666  -18.3448 C   0  0  0  0  0  0  0  0  0  0  0  0
   -0.3076   22.0515  -20.1590 C   0  0  0  0  0  0  0  0  0  0  0  0
   -1.6247   22.5375  -19.9094 C   0  0  0  0  0  0  0  0  0  0  0  0
   -1.8760   23.6713  -20.5848 O   0  0  0  0  0  0  0  0  0  0  0  0
   -2.7238   22.1381  -19.1350 N   0  0  0  0  0  0  0  0  0  0  0  0
   -3.9851   22.9631  -19.2406 C   0  0  0  0  0  0  0  0  0  0  0  0
   -4.6606   22.8483  -17.9230 C   0  0  0  0  0  0  0  0  0  0  0  0
   -6.1630   22.5326  -18.1000 C   0  0  0  0  0  0  0  0  0  0  0  0
   -6.1596   21.1164  -18.2229 N   0  0  0  0  0  0  0  0  0  0  0  0
   -5.2421   20.6453  -17.2514 C   0  0  0  0  0  0  0  0  0  0  0  0
   -4.0970   21.6268  -17.2993 C   0  0  0  0  0  0  0  0  0  0  0  0
   -3.6332   21.8918  -15.8710 C   0  0  0  0  0  0  0  0  0  0  0  0
   -2.9644   21.1283  -18.1747 C   0  0  0  0  0  0  0  0  0  0  0  0
   -7.4018   20.4615  -18.3488 C   0  0  0  0  0  0  0  0  0  0  0  0
   -8.2320   20.6625  -17.1054 C   0  0  0  0  0  0  0  0  0  0  0  0
   -8.2260   20.9406  -19.5267 C   0  0  0  0  0  0  0  0  0  0  0  0
   -7.1826   18.9432  -18.4514 C   0  0  0  0  0  0  0  0  0  0  0  0
   -0.8061   20.5118  -22.1544 N   0  0  0  0  0  0  0  0  0  0  0  0
   -1.0141   19.5033  -22.1393 H   0  0  0  0  0  0  0  0  0  0  0  0
   -2.4795   22.7031  -25.4191 C   0  0  0  0  0  0  0  0  0  0  0  0
   -3.2798   22.2245  -24.3591 C   0  0  0  0  0  0  0  0  0  0  0  0
   -2.7486   21.5043  -23.3097 C   0  0  0  0  0  0  0  0  0  0  0  0
   -1.4211   21.2147  -23.2351 C   0  0  0  0  0  0  0  0  0  0  0  0
   -0.6314   21.6798  -24.2726 C   0  0  0  0  0  0  0  0  0  0  0  0
   -1.1601   22.4122  -25.3466 C   0  0  0  0  0  0  0  0  0  0  0  0
   -0.0423   22.8767  -26.6327 Cl  0  0  0  0  0  0  0  0  0  0  0  0
   -4.4330   25.2964  -27.0976 C   0  0  0  0  0  0  0  0  0  0  0  0
   -4.3931   24.9786  -28.4137 N   0  0  0  0  0  0  0  0  0  0  0  0
   -3.7408   23.8970  -28.7891 C   0  0  0  0  0  0  0  0  0  0  0  0
   -3.1080   23.1089  -27.8119 C   0  0  0  0  0  0  0  0  0  0  0  0
   -3.1426   23.4158  -26.4957 C   0  0  0  0  0  0  0  0  0  0  0  0
   -3.8420   24.5607  -26.1775 N   0  0  0  0  0  0  0  0  0  0  0  0
   -4.7842   27.1620  -25.4602 C   0  0  0  0  0  0  0  0  0  0  0  0
   -5.1342   26.4614  -26.6867 N   0  0  0  0  0  0  0  0  0  0  0  0
   -5.9066   26.8209  -27.2658 H   0  0  0  0  0  0  0  0  0  0  0  0
 38 39  1  0  0  0
 39 32  1  0  0  0
 32 33  2  0  0  0
 33 34  1  0  0  0
 34 35  2  0  0  0
 35 36  1  0  0  0
 36 37  2  0  0  0
 36 25  1  0  0  0
 25 26  2  0  0  0
 26 27  1  0  0  0
 27 28  2  0  0  0
 28 23  1  0  0  0
 23  1  1  0  0  0
  1  2  2  0  0  0
  2  3  1  0  0  0
  3  4  1  0  0  0
  3  5  1  0  0  0
  5  6  1  0  0  0
  5  7  2  0  0  0
  7  8  1  0  0  0
  8  9  2  0  0  0
  8 10  1  0  0  0
 10 11  1  0  0  0
 11 12  1  0  0  0
 12 13  1  0  0  0
 13 14  1  0  0  0
 14 15  1  0  0  0
 15 16  1  0  0  0
 16 17  1  0  0  0
 16 18  1  0  0  0
 14 19  1  0  0  0
 19 20  1  0  0  0
 19 21  1  0  0  0
 19 22  1  0  0  0
 28 29  1  0  0  0
 29 30  2  0  0  0
 30 31  1  0  0  0
 37 32  1  0  0  0
 30 25  1  0  0  0
  7  1  1  0  0  0
 18 10  1  0  0  0
 16 12  1  0  0  0
 39 40  1  0  0  0
 23 24  1  0  0  0
M  END
> <minimizedAffinity>
-8.46488

> <CNNscore>
0.1042167991

> <CNNaffinity>
6.8652968407

> <CNN_VS>
0.7154792547

> <CNNaffinity_variance>
0.0770609900

$$$$
[H]c1nc(N([H])C([H])([H])[H])nc(-c2c([H])c([H])c(N([H])c3nn(C([H])([H])[H])c(C([H])([H])[H])c3C(=O)N3C([H])([H])C4([H])C([H])([H])N(C(C([H])([H])[H])(C([H])([H])[H])C([H])([H])[H])C([H])([H])C4(C([H])([H])[H])C3([H])[H])c([H])c2Cl)c1[H]


 40 44  0  0  0  0  0  0  0  0999 V2000
   -1.2181   22.3539  -24.8413 C   0  0  0  0  0  0  0  0  0  0  0  0
   -0.3072   22.6308  -25.8033 N   0  0  0  0  0  0  0  0  0  0  0  0
   -0.8510   22.7855  -26.9532 N   0  0  0  0  0  0  0  0  0  0  0  0
   -0.1519   23.0891  -28.2066 C   0  0  0  0  0  0  0  0  0  0  0  0
   -2.1956   22.6105  -26.7840 C   0  0  0  0  0  0  0  0  0  0  0  0
   -3.1287   22.7765  -27.9005 C   0  0  0  0  0  0  0  0  0  0  0  0
   -2.4887   22.3315  -25.4581 C   0  0  0  0  0  0  0  0  0  0  0  0
   -3.7126   22.1559  -24.7477 C   0  0  0  0  0  0  0  0  0  0  0  0
   -3.9770   20.8585  -24.5198 O   0  0  0  0  0  0  0  0  0  0  0  0
   -4.7142   22.9902  -24.2303 N   0  0  0  0  0  0  0  0  0  0  0  0
   -5.8386   22.3337  -23.4640 C   0  0  0  0  0  0  0  0  0  0  0  0
   -7.0303   23.1965  -23.6668 C   0  0  0  0  0  0  0  0  0  0  0  0
   -7.7463   23.4709  -22.3251 C   0  0  0  0  0  0  0  0  0  0  0  0
   -7.0230   24.5863  -21.8215 N   0  0  0  0  0  0  0  0  0  0  0  0
   -6.8129   25.4441  -22.9296 C   0  0  0  0  0  0  0  0  0  0  0  0
   -6.4929   24.5165  -24.0758 C   0  0  0  0  0  0  0  0  0  0  0  0
   -7.1911   25.0411  -25.3259 C   0  0  0  0  0  0  0  0  0  0  0  0
   -4.9982   24.3745  -24.2847 C   0  0  0  0  0  0  0  0  0  0  0  0
   -7.4480   25.1533  -20.6027 C   0  0  0  0  0  0  0  0  0  0  0  0
   -8.1576   26.4615  -20.8489 C   0  0  0  0  0  0  0  0  0  0  0  0
   -8.3916   24.2668  -19.8151 C   0  0  0  0  0  0  0  0  0  0  0  0
   -6.2266   25.5084  -19.7390 C   0  0  0  0  0  0  0  0  0  0  0  0
   -0.8407   22.1407  -23.4964 N   0  0  0  0  0  0  0  0  0  0  0  0
   -1.4417   22.4469  -22.7181 H   0  0  0  0  0  0  0  0  0  0  0  0
    2.6865   20.1953  -22.0702 C   0  0  0  0  0  0  0  0  0  0  0  0
    2.6724   20.9041  -23.2911 C   0  0  0  0  0  0  0  0  0  0  0  0
    1.5339   21.5221  -23.7643 C   0  0  0  0  0  0  0  0  0  0  0  0
    0.3582   21.4852  -23.0802 C   0  0  0  0  0  0  0  0  0  0  0  0
    0.3653   20.7900  -21.8832 C   0  0  0  0  0  0  0  0  0  0  0  0
    1.5166   20.1557  -21.3917 C   0  0  0  0  0  0  0  0  0  0  0  0
    1.3548   19.2459  -19.8866 Cl  0  0  0  0  0  0  0  0  0  0  0  0
    5.5218   17.8931  -22.2121 C   0  0  0  0  0  0  0  0  0  0  0  0
    6.3185   18.2424  -21.1739 N   0  0  0  0  0  0  0  0  0  0  0  0
    5.9432   19.2299  -20.3863 C   0  0  0  0  0  0  0  0  0  0  0  0
    4.7291   19.8880  -20.6493 C   0  0  0  0  0  0  0  0  0  0  0  0
    3.9256   19.5468  -21.6816 C   0  0  0  0  0  0  0  0  0  0  0  0
    4.3824   18.5063  -22.4627 N   0  0  0  0  0  0  0  0  0  0  0  0
    5.5813   15.4478  -22.7613 C   0  0  0  0  0  0  0  0  0  0  0  0
    5.9211   16.8297  -23.0651 N   0  0  0  0  0  0  0  0  0  0  0  0
    6.4621   17.0368  -23.9169 H   0  0  0  0  0  0  0  0  0  0  0  0
 38 39  1  0  0  0
 39 32  1  0  0  0
 32 33  2  0  0  0
 33 34  1  0  0  0
 34 35  2  0  0  0
 35 36  1  0  0  0
 36 37  2  0  0  0
 36 25  1  0  0  0
 25 26  2  0  0  0
 26 27  1  0  0  0
 27 28  2  0  0  0
 28 23  1  0  0  0
 23  1  1  0  0  0
  1  2  2  0  0  0
  2  3  1  0  0  0
  3  4  1  0  0  0
  3  5  1  0  0  0
  5  6  1  0  0  0
  5  7  2  0  0  0
  7  8  1  0  0  0
  8  9  2  0  0  0
  8 10  1  0  0  0
 10 11  1  0  0  0
 11 12  1  0  0  0
 12 13  1  0  0  0
 13 14  1  0  0  0
 14 15  1  0  0  0
 15 16  1  0  0  0
 16 17  1  0  0  0
 16 18  1  0  0  0
 14 19  1  0  0  0
 19 20  1  0  0  0
 19 21  1  0  0  0
 19 22  1  0  0  0
 28 29  1  0  0  0
 29 30  2  0  0  0
 30 31  1  0  0  0
 37 32  1  0  0  0
 30 25  1  0  0  0
  7  1  1  0  0  0
 18 10  1  0  0  0
 16 12  1  0  0  0
 39 40  1  0  0  0
 23 24  1  0  0  0
M  END
> <minimizedAffinity>
-8.92151

> <CNNscore>
0.1011915132

> <CNNaffinity>
6.8064470291

> <CNN_VS>
0.6887546778

> <CNNaffinity_variance>
0.1304494888

$$$$
[H]c1nc(N([H])C([H])([H])[H])nc(-c2c([H])c([H])c(N([H])c3nn(C([H])([H])[H])c(C([H])([H])[H])c3C(=O)N3C([H])([H])C4([H])C([H])([H])N(C(C([H])([H])[H])(C([H])([H])[H])C([H])([H])[H])C([H])([H])C4(C([H])([H])[H])C3([H])[H])c([H])c2Cl)c1[H]


 40 44  0  0  0  0  0  0  0  0999 V2000
   -1.4914   21.4839  -23.4600 C   0  0  0  0  0  0  0  0  0  0  0  0
   -0.3678   21.8072  -24.1420 N   0  0  0  0  0  0  0  0  0  0  0  0
   -0.6279   22.2884  -25.3007 N   0  0  0  0  0  0  0  0  0  0  0  0
    0.3566   22.7336  -26.2931 C   0  0  0  0  0  0  0  0  0  0  0  0
   -1.9882   22.3019  -25.4297 C   0  0  0  0  0  0  0  0  0  0  0  0
   -2.6315   22.8500  -26.6258 C   0  0  0  0  0  0  0  0  0  0  0  0
   -2.5919   21.7991  -24.2875 C   0  0  0  0  0  0  0  0  0  0  0  0
   -3.9526   21.6776  -23.8787 C   0  0  0  0  0  0  0  0  0  0  0  0
   -4.6776   20.9664  -24.7581 O   0  0  0  0  0  0  0  0  0  0  0  0
   -4.7297   22.1147  -22.7961 N   0  0  0  0  0  0  0  0  0  0  0  0
   -6.1727   21.6695  -22.7515 C   0  0  0  0  0  0  0  0  0  0  0  0
   -6.9120   22.7479  -22.0470 C   0  0  0  0  0  0  0  0  0  0  0  0
   -7.8427   22.1598  -20.9625 C   0  0  0  0  0  0  0  0  0  0  0  0
   -6.9657   22.0333  -19.8509 N   0  0  0  0  0  0  0  0  0  0  0  0
   -6.1883   23.2177  -19.8339 C   0  0  0  0  0  0  0  0  0  0  0  0
   -5.8825   23.4952  -21.2852 C   0  0  0  0  0  0  0  0  0  0  0  0
   -5.9950   24.9978  -21.5198 C   0  0  0  0  0  0  0  0  0  0  0  0
   -4.5202   22.9643  -21.6850 C   0  0  0  0  0  0  0  0  0  0  0  0
   -7.5040   21.5642  -18.6351 C   0  0  0  0  0  0  0  0  0  0  0  0
   -6.5091   21.7411  -17.5151 C   0  0  0  0  0  0  0  0  0  0  0  0
   -8.7810   22.2682  -18.2228 C   0  0  0  0  0  0  0  0  0  0  0  0
   -7.7517   20.0494  -18.7248 C   0  0  0  0  0  0  0  0  0  0  0  0
   -1.4417   20.9319  -22.1602 N   0  0  0  0  0  0  0  0  0  0  0  0
   -2.0226   20.1218  -21.9015 H   0  0  0  0  0  0  0  0  0  0  0  0
    1.1327   22.1589  -18.9779 C   0  0  0  0  0  0  0  0  0  0  0  0
   -0.0146   22.9014  -19.3322 C   0  0  0  0  0  0  0  0  0  0  0  0
   -0.8418   22.5190  -20.3673 C   0  0  0  0  0  0  0  0  0  0  0  0
   -0.6001   21.4023  -21.1064 C   0  0  0  0  0  0  0  0  0  0  0  0
    0.5246   20.6711  -20.7649 C   0  0  0  0  0  0  0  0  0  0  0  0
    1.3750   21.0505  -19.7149 C   0  0  0  0  0  0  0  0  0  0  0  0
    2.8110   20.0589  -19.4430 Cl  0  0  0  0  0  0  0  0  0  0  0  0
    3.7206   24.1176  -17.2972 C   0  0  0  0  0  0  0  0  0  0  0  0
    3.5802   23.8394  -15.9790 N   0  0  0  0  0  0  0  0  0  0  0  0
    2.6463   22.9895  -15.6026 C   0  0  0  0  0  0  0  0  0  0  0  0
    1.8268   22.3997  -16.5809 C   0  0  0  0  0  0  0  0  0  0  0  0
    1.9591   22.6689  -17.8991 C   0  0  0  0  0  0  0  0  0  0  0  0
    2.9555   23.5671  -18.2184 N   0  0  0  0  0  0  0  0  0  0  0  0
    6.1158   24.6240  -17.8374 C   0  0  0  0  0  0  0  0  0  0  0  0
    4.7253   25.0335  -17.7092 N   0  0  0  0  0  0  0  0  0  0  0  0
    4.4685   26.0080  -17.9225 H   0  0  0  0  0  0  0  0  0  0  0  0
 38 39  1  0  0  0
 39 32  1  0  0  0
 32 33  2  0  0  0
 33 34  1  0  0  0
 34 35  2  0  0  0
 35 36  1  0  0  0
 36 37  2  0  0  0
 36 25  1  0  0  0
 25 26  2  0  0  0
 26 27  1  0  0  0
 27 28  2  0  0  0
 28 23  1  0  0  0
 23  1  1  0  0  0
  1  2  2  0  0  0
  2  3  1  0  0  0
  3  4  1  0  0  0
  3  5  1  0  0  0
  5  6  1  0  0  0
  5  7  2  0  0  0
  7  8  1  0  0  0
  8  9  2  0  0  0
  8 10  1  0  0  0
 10 11  1  0  0  0
 11 12  1  0  0  0
 12 13  1  0  0  0
 13 14  1  0  0  0
 14 15  1  0  0  0
 15 16  1  0  0  0
 16 17  1  0  0  0
 16 18  1  0  0  0
 14 19  1  0  0  0
 19 20  1  0  0  0
 19 21  1  0  0  0
 19 22  1  0  0  0
 28 29  1  0  0  0
 29 30  2  0  0  0
 30 31  1  0  0  0
 37 32  1  0  0  0
 30 25  1  0  0  0
  7  1  1  0  0  0
 18 10  1  0  0  0
 16 12  1  0  0  0
 39 40  1  0  0  0
 23 24  1  0  0  0
M  END
> <minimizedAffinity>
-8.45284

> <CNNscore>
0.0627922043

> <CNNaffinity>
5.9730601311

> <CNN_VS>
0.3750616014

> <CNNaffinity_variance>
0.8051826358

$$$$
[H]c1nc(N([H])C([H])([H])[H])nc(-c2c([H])c([H])c(N([H])c3nn(C([H])([H])[H])c(C([H])([H])[H])c3C(=O)N3C([H])([H])C4([H])C([H])([H])N(C(C([H])([H])[H])(C([H])([H])[H])C([H])([H])[H])C([H])([H])C4(C([H])([H])[H])C3([H])[H])c([H])c2Cl)c1[H]


 40 44  0  0  0  0  0  0  0  0999 V2000
   -0.9973   22.4435  -24.3241 C   0  0  0  0  0  0  0  0  0  0  0  0
   -0.0316   22.6762  -25.2435 N   0  0  0  0  0  0  0  0  0  0  0  0
   -0.4938   22.6817  -26.4386 N   0  0  0  0  0  0  0  0  0  0  0  0
    0.2818   22.8990  -27.6647 C   0  0  0  0  0  0  0  0  0  0  0  0
   -1.8363   22.4445  -26.3469 C   0  0  0  0  0  0  0  0  0  0  0  0
   -2.6892   22.4412  -27.5374 C   0  0  0  0  0  0  0  0  0  0  0  0
   -2.2144   22.2831  -25.0229 C   0  0  0  0  0  0  0  0  0  0  0  0
   -3.4778   22.1070  -24.3858 C   0  0  0  0  0  0  0  0  0  0  0  0
   -3.7472   20.8105  -24.1586 O   0  0  0  0  0  0  0  0  0  0  0  0
   -4.5144   22.9400  -23.9400 N   0  0  0  0  0  0  0  0  0  0  0  0
   -5.6789   22.2843  -23.2353 C   0  0  0  0  0  0  0  0  0  0  0  0
   -6.8617   23.1361  -23.5202 C   0  0  0  0  0  0  0  0  0  0  0  0
   -7.6594   23.4209  -22.2276 C   0  0  0  0  0  0  0  0  0  0  0  0
   -6.9752   24.5473  -21.6947 N   0  0  0  0  0  0  0  0  0  0  0  0
   -6.7040   25.3936  -22.7983 C   0  0  0  0  0  0  0  0  0  0  0  0
   -6.3091   24.4551  -23.9118 C   0  0  0  0  0  0  0  0  0  0  0  0
   -6.9337   24.9600  -25.2081 C   0  0  0  0  0  0  0  0  0  0  0  0
   -4.8037   24.3215  -24.0282 C   0  0  0  0  0  0  0  0  0  0  0  0
   -7.4770   25.1253  -20.5107 C   0  0  0  0  0  0  0  0  0  0  0  0
   -8.5070   24.2224  -19.8787 C   0  0  0  0  0  0  0  0  0  0  0  0
   -6.4120   25.3982  -19.4677 C   0  0  0  0  0  0  0  0  0  0  0  0
   -8.2248   26.4271  -20.8425 C   0  0  0  0  0  0  0  0  0  0  0  0
   -0.7126   22.3896  -22.9411 N   0  0  0  0  0  0  0  0  0  0  0  0
   -1.0302   23.1314  -22.3012 H   0  0  0  0  0  0  0  0  0  0  0  0
    1.5491   19.2344  -21.1552 C   0  0  0  0  0  0  0  0  0  0  0  0
    0.1666   19.3853  -20.9125 C   0  0  0  0  0  0  0  0  0  0  0  0
   -0.5665   20.4096  -21.4742 C   0  0  0  0  0  0  0  0  0  0  0  0
    0.0011   21.3336  -22.2963 C   0  0  0  0  0  0  0  0  0  0  0  0
    1.3570   21.1919  -22.5365 C   0  0  0  0  0  0  0  0  0  0  0  0
    2.1142   20.1550  -21.9698 C   0  0  0  0  0  0  0  0  0  0  0  0
    3.8474   20.1449  -22.3093 Cl  0  0  0  0  0  0  0  0  0  0  0  0
    3.1374   17.3553  -18.4524 C   0  0  0  0  0  0  0  0  0  0  0  0
    3.4564   16.1543  -18.9912 N   0  0  0  0  0  0  0  0  0  0  0  0
    3.1773   15.9298  -20.2592 C   0  0  0  0  0  0  0  0  0  0  0  0
    2.5579   16.9438  -21.0108 C   0  0  0  0  0  0  0  0  0  0  0  0
    2.2365   18.1465  -20.4837 C   0  0  0  0  0  0  0  0  0  0  0  0
    2.5574   18.3094  -19.1526 N   0  0  0  0  0  0  0  0  0  0  0  0
    4.4803   16.8642  -16.3931 C   0  0  0  0  0  0  0  0  0  0  0  0
    3.4354   17.6031  -17.0857 N   0  0  0  0  0  0  0  0  0  0  0  0
    2.9034   18.3195  -16.5711 H   0  0  0  0  0  0  0  0  0  0  0  0
 38 39  1  0  0  0
 39 32  1  0  0  0
 32 33  2  0  0  0
 33 34  1  0  0  0
 34 35  2  0  0  0
 35 36  1  0  0  0
 36 37  2  0  0  0
 36 25  1  0  0  0
 25 26  2  0  0  0
 26 27  1  0  0  0
 27 28  2  0  0  0
 28 23  1  0  0  0
 23  1  1  0  0  0
  1  2  2  0  0  0
  2  3  1  0  0  0
  3  4  1  0  0  0
  3  5  1  0  0  0
  5  6  1  0  0  0
  5  7  2  0  0  0
  7  8  1  0  0  0
  8  9  2  0  0  0
  8 10  1  0  0  0
 10 11  1  0  0  0
 11 12  1  0  0  0
 12 13  1  0  0  0
 13 14  1  0  0  0
 14 15  1  0  0  0
 15 16  1  0  0  0
 16 17  1  0  0  0
 16 18  1  0  0  0
 14 19  1  0  0  0
 19 20  1  0  0  0
 19 21  1  0  0  0
 19 22  1  0  0  0
 28 29  1  0  0  0
 29 30  2  0  0  0
 30 31  1  0  0  0
 37 32  1  0  0  0
 30 25  1  0  0  0
  7  1  1  0  0  0
 18 10  1  0  0  0
 16 12  1  0  0  0
 39 40  1  0  0  0
 23 24  1  0  0  0
M  END
> <minimizedAffinity>
-7.81159

> <CNNscore>
0.0597933829

> <CNNaffinity>
6.5778260231

> <CNN_VS>
0.3933104575

> <CNNaffinity_variance>
0.0318457596

$$$$
[H]c1nc(N([H])C([H])([H])[H])nc(-c2c([H])c([H])c(N([H])c3nn(C([H])([H])[H])c(C([H])([H])[H])c3C(=O)N3C([H])([H])C4([H])C([H])([H])N(C(C([H])([H])[H])(C([H])([H])[H])C([H])([H])[H])C([H])([H])C4(C([H])([H])[H])C3([H])[H])c([H])c2Cl)c1[H]


 40 44  0  0  0  0  0  0  0  0999 V2000
   -1.3633   21.4095  -23.9965 C   0  0  0  0  0  0  0  0  0  0  0  0
   -0.2785   21.7162  -24.7457 N   0  0  0  0  0  0  0  0  0  0  0  0
   -0.5928   22.3516  -25.8131 N   0  0  0  0  0  0  0  0  0  0  0  0
    0.3383   22.8274  -26.8421 C   0  0  0  0  0  0  0  0  0  0  0  0
   -1.9518   22.4941  -25.8056 C   0  0  0  0  0  0  0  0  0  0  0  0
   -2.6431   23.2321  -26.8650 C   0  0  0  0  0  0  0  0  0  0  0  0
   -2.4976   21.9117  -24.6722 C   0  0  0  0  0  0  0  0  0  0  0  0
   -3.8224   21.8568  -24.1476 C   0  0  0  0  0  0  0  0  0  0  0  0
   -4.2897   20.5981  -24.0994 O   0  0  0  0  0  0  0  0  0  0  0  0
   -4.7653   22.7807  -23.6739 N   0  0  0  0  0  0  0  0  0  0  0  0
   -6.0656   22.2324  -23.1344 C   0  0  0  0  0  0  0  0  0  0  0  0
   -7.0886   23.2779  -23.3917 C   0  0  0  0  0  0  0  0  0  0  0  0
   -7.9443   23.5333  -22.1305 C   0  0  0  0  0  0  0  0  0  0  0  0
   -7.1558   24.4783  -21.4191 N   0  0  0  0  0  0  0  0  0  0  0  0
   -6.6762   25.3920  -22.3901 C   0  0  0  0  0  0  0  0  0  0  0  0
   -6.3248   24.5347  -23.5811 C   0  0  0  0  0  0  0  0  0  0  0  0
   -6.7608   25.2684  -24.8449 C   0  0  0  0  0  0  0  0  0  0  0  0
   -4.8488   24.1911  -23.6116 C   0  0  0  0  0  0  0  0  0  0  0  0
   -7.6692   24.9896  -20.2097 C   0  0  0  0  0  0  0  0  0  0  0  0
   -8.7629   24.0952  -19.6813 C   0  0  0  0  0  0  0  0  0  0  0  0
   -6.6286   25.1277  -19.1167 C   0  0  0  0  0  0  0  0  0  0  0  0
   -8.3409   26.3494  -20.4620 C   0  0  0  0  0  0  0  0  0  0  0  0
   -1.2519   20.7050  -22.7767 N   0  0  0  0  0  0  0  0  0  0  0  0
   -1.6916   19.7823  -22.6509 H   0  0  0  0  0  0  0  0  0  0  0  0
    0.7824   22.2209  -19.3381 C   0  0  0  0  0  0  0  0  0  0  0  0
    1.4546   21.4695  -20.3265 C   0  0  0  0  0  0  0  0  0  0  0  0
    0.8013   20.9652  -21.4314 C   0  0  0  0  0  0  0  0  0  0  0  0
   -0.5296   21.1641  -21.6331 C   0  0  0  0  0  0  0  0  0  0  0  0
   -1.1946   21.8986  -20.6664 C   0  0  0  0  0  0  0  0  0  0  0  0
   -0.5416   22.4158  -19.5369 C   0  0  0  0  0  0  0  0  0  0  0  0
   -1.5350   23.2707  -18.3531 Cl  0  0  0  0  0  0  0  0  0  0  0  0
    2.0202   22.3659  -15.9022 C   0  0  0  0  0  0  0  0  0  0  0  0
    2.9896   23.3118  -15.9108 N   0  0  0  0  0  0  0  0  0  0  0  0
    3.2551   23.9425  -17.0369 C   0  0  0  0  0  0  0  0  0  0  0  0
    2.5238   23.6131  -18.1916 C   0  0  0  0  0  0  0  0  0  0  0  0
    1.5533   22.6720  -18.1940 C   0  0  0  0  0  0  0  0  0  0  0  0
    1.3313   22.0538  -16.9816 N   0  0  0  0  0  0  0  0  0  0  0  0
    0.9345   20.4634  -14.6828 C   0  0  0  0  0  0  0  0  0  0  0  0
    1.7297   21.6821  -14.6914 N   0  0  0  0  0  0  0  0  0  0  0  0
    2.0873   22.0530  -13.7994 H   0  0  0  0  0  0  0  0  0  0  0  0
 38 39  1  0  0  0
 39 32  1  0  0  0
 32 33  2  0  0  0
 33 34  1  0  0  0
 34 35  2  0  0  0
 35 36  1  0  0  0
 36 37  2  0  0  0
 36 25  1  0  0  0
 25 26  2  0  0  0
 26 27  1  0  0  0
 27 28  2  0  0  0
 28 23  1  0  0  0
 23  1  1  0  0  0
  1  2  2  0  0  0
  2  3  1  0  0  0
  3  4  1  0  0  0
  3  5  1  0  0  0
  5  6  1  0  0  0
  5  7  2  0  0  0
  7  8  1  0  0  0
  8  9  2  0  0  0
  8 10  1  0  0  0
 10 11  1  0  0  0
 11 12  1  0  0  0
 12 13  1  0  0  0
 13 14  1  0  0  0
 14 15  1  0  0  0
 15 16  1  0  0  0
 16 17  1  0  0  0
 16 18  1  0  0  0
 14 19  1  0  0  0
 19 20  1  0  0  0
 19 21  1  0  0  0
 19 22  1  0  0  0
 28 29  1  0  0  0
 29 30  2  0  0  0
 30 31  1  0  0  0
 37 32  1  0  0  0
 30 25  1  0  0  0
  7  1  1  0  0  0
 18 10  1  0  0  0
 16 12  1  0  0  0
 39 40  1  0  0  0
 23 24  1  0  0  0
M  END
> <minimizedAffinity>
-8.29458

> <CNNscore>
0.0585538223

> <CNNaffinity>
6.4607758522

> <CNN_VS>
0.3783031106

> <CNNaffinity_variance>
0.2364434302

$$$$
[H]c1nc(N([H])C([H])([H])[H])nc(-c2c([H])c([H])c(N([H])c3nn(C([H])([H])[H])c(C([H])([H])[H])c3C(=O)N3C([H])([H])C4([H])C([H])([H])N(C(C([H])([H])[H])(C([H])([H])[H])C([H])([H])[H])C([H])([H])C4(C([H])([H])[H])C3([H])[H])c([H])c2Cl)c1[H]


 40 44  0  0  0  0  0  0  0  0999 V2000
   -0.8095   22.2425  -24.6868 C   0  0  0  0  0  0  0  0  0  0  0  0
    0.0483   22.5766  -25.6791 N   0  0  0  0  0  0  0  0  0  0  0  0
   -0.5514   22.7488  -26.7983 N   0  0  0  0  0  0  0  0  0  0  0  0
    0.0809   23.1117  -28.0713 C   0  0  0  0  0  0  0  0  0  0  0  0
   -1.8812   22.5270  -26.5753 C   0  0  0  0  0  0  0  0  0  0  0  0
   -2.8684   22.6973  -27.6436 C   0  0  0  0  0  0  0  0  0  0  0  0
   -2.1055   22.1990  -25.2471 C   0  0  0  0  0  0  0  0  0  0  0  0
   -3.2902   21.9640  -24.4891 C   0  0  0  0  0  0  0  0  0  0  0  0
   -3.3748   20.6885  -24.0756 O   0  0  0  0  0  0  0  0  0  0  0  0
   -4.3930   22.7218  -24.0688 N   0  0  0  0  0  0  0  0  0  0  0  0
   -5.4135   22.0363  -23.1906 C   0  0  0  0  0  0  0  0  0  0  0  0
   -6.7124   22.6946  -23.4825 C   0  0  0  0  0  0  0  0  0  0  0  0
   -7.4515   23.0584  -22.1749 C   0  0  0  0  0  0  0  0  0  0  0  0
   -6.8836   24.3205  -21.8503 N   0  0  0  0  0  0  0  0  0  0  0  0
   -6.7981   25.0327  -23.0722 C   0  0  0  0  0  0  0  0  0  0  0  0
   -6.3615   24.0031  -24.0852 C   0  0  0  0  0  0  0  0  0  0  0  0
   -7.1315   24.2470  -25.3786 C   0  0  0  0  0  0  0  0  0  0  0  0
   -4.8626   24.0340  -24.3090 C   0  0  0  0  0  0  0  0  0  0  0  0
   -7.3748   24.9927  -20.7125 C   0  0  0  0  0  0  0  0  0  0  0  0
   -7.8785   26.3644  -21.0871 C   0  0  0  0  0  0  0  0  0  0  0  0
   -8.5100   24.2665  -20.0192 C   0  0  0  0  0  0  0  0  0  0  0  0
   -6.2294   25.2370  -19.7165 C   0  0  0  0  0  0  0  0  0  0  0  0
   -0.3655   22.0008  -23.3674 N   0  0  0  0  0  0  0  0  0  0  0  0
    0.6003   21.6989  -23.1758 H   0  0  0  0  0  0  0  0  0  0  0  0
   -2.7688   22.2880  -19.8458 C   0  0  0  0  0  0  0  0  0  0  0  0
   -2.7639   23.3046  -20.8254 C   0  0  0  0  0  0  0  0  0  0  0  0
   -1.9799   23.2250  -21.9573 C   0  0  0  0  0  0  0  0  0  0  0  0
   -1.1664   22.1604  -22.1955 C   0  0  0  0  0  0  0  0  0  0  0  0
   -1.1656   21.1613  -21.2375 C   0  0  0  0  0  0  0  0  0  0  0  0
   -1.9575   21.2312  -20.0809 C   0  0  0  0  0  0  0  0  0  0  0  0
   -1.7967   19.9154  -18.9138 Cl  0  0  0  0  0  0  0  0  0  0  0  0
   -5.7254   22.1735  -17.7000 C   0  0  0  0  0  0  0  0  0  0  0  0
   -5.3240   22.6822  -16.5106 N   0  0  0  0  0  0  0  0  0  0  0  0
   -4.0791   23.0940  -16.3806 C   0  0  0  0  0  0  0  0  0  0  0  0
   -3.2089   22.9918  -17.4801 C   0  0  0  0  0  0  0  0  0  0  0  0
   -3.5992   22.4872  -18.6720 C   0  0  0  0  0  0  0  0  0  0  0  0
   -4.9139   22.0760  -18.7340 N   0  0  0  0  0  0  0  0  0  0  0  0
   -8.0296   21.8594  -16.7637 C   0  0  0  0  0  0  0  0  0  0  0  0
   -7.0661   21.7274  -17.8462 N   0  0  0  0  0  0  0  0  0  0  0  0
   -7.3663   21.3015  -18.7348 H   0  0  0  0  0  0  0  0  0  0  0  0
 38 39  1  0  0  0
 39 32  1  0  0  0
 32 33  2  0  0  0
 33 34  1  0  0  0
 34 35  2  0  0  0
 35 36  1  0  0  0
 36 37  2  0  0  0
 36 25  1  0  0  0
 25 26  2  0  0  0
 26 27  1  0  0  0
 27 28  2  0  0  0
 28 23  1  0  0  0
 23  1  1  0  0  0
  1  2  2  0  0  0
  2  3  1  0  0  0
  3  4  1  0  0  0
  3  5  1  0  0  0
  5  6  1  0  0  0
  5  7  2  0  0  0
  7  8  1  0  0  0
  8  9  2  0  0  0
  8 10  1  0  0  0
 10 11  1  0  0  0
 11 12  1  0  0  0
 12 13  1  0  0  0
 13 14  1  0  0  0
 14 15  1  0  0  0
 15 16  1  0  0  0
 16 17  1  0  0  0
 16 18  1  0  0  0
 14 19  1  0  0  0
 19 20  1  0  0  0
 19 21  1  0  0  0
 19 22  1  0  0  0
 28 29  1  0  0  0
 29 30  2  0  0  0
 30 31  1  0  0  0
 37 32  1  0  0  0
 30 25  1  0  0  0
  7  1  1  0  0  0
 18 10  1  0  0  0
 16 12  1  0  0  0
 39 40  1  0  0  0
 23 24  1  0  0  0
M  END
> <minimizedAffinity>
-7.74072

> <CNNscore>
0.0529040806

> <CNNaffinity>
6.5476698875

> <CNN_VS>
0.3463984430

> <CNNaffinity_variance>
0.2798098922

$$$$
[H]c1nc(N([H])C([H])([H])[H])nc(-c2c([H])c([H])c(N([H])c3nn(C([H])([H])[H])c(C([H])([H])[H])c3C(=O)N3C([H])([H])C4([H])C([H])([H])N(C(C([H])([H])[H])(C([H])([H])[H])C([H])([H])[H])C([H])([H])C4(C([H])([H])[H])C3([H])[H])c([H])c2Cl)c1[H]


 40 44  0  0  0  0  0  0  0  0999 V2000
   -4.7844   25.1210  -28.3563 C   0  0  0  0  0  0  0  0  0  0  0  0
   -5.5322   25.4949  -29.4207 N   0  0  0  0  0  0  0  0  0  0  0  0
   -5.6516   24.5535  -30.2817 N   0  0  0  0  0  0  0  0  0  0  0  0
   -6.3904   24.6273  -31.5469 C   0  0  0  0  0  0  0  0  0  0  0  0
   -4.9597   23.4800  -29.7957 C   0  0  0  0  0  0  0  0  0  0  0  0
   -4.9377   22.2036  -30.5134 C   0  0  0  0  0  0  0  0  0  0  0  0
   -4.3843   23.7835  -28.5715 C   0  0  0  0  0  0  0  0  0  0  0  0
   -3.6513   23.0120  -27.6224 C   0  0  0  0  0  0  0  0  0  0  0  0
   -2.5270   22.5028  -28.1530 O   0  0  0  0  0  0  0  0  0  0  0  0
   -3.8058   22.6439  -26.2779 N   0  0  0  0  0  0  0  0  0  0  0  0
   -2.6952   21.8379  -25.6458 C   0  0  0  0  0  0  0  0  0  0  0  0
   -3.3406   20.9981  -24.6047 C   0  0  0  0  0  0  0  0  0  0  0  0
   -2.5566   21.0702  -23.2749 C   0  0  0  0  0  0  0  0  0  0  0  0
   -3.0978   22.2375  -22.6704 N   0  0  0  0  0  0  0  0  0  0  0  0
   -4.4951   22.1792  -22.8975 C   0  0  0  0  0  0  0  0  0  0  0  0
   -4.6319   21.6644  -24.3093 C   0  0  0  0  0  0  0  0  0  0  0  0
   -5.7925   20.6761  -24.3486 C   0  0  0  0  0  0  0  0  0  0  0  0
   -4.8204   22.7925  -25.3040 C   0  0  0  0  0  0  0  0  0  0  0  0
   -2.6391   22.5882  -21.3841 C   0  0  0  0  0  0  0  0  0  0  0  0
   -1.8247   23.8566  -21.4426 C   0  0  0  0  0  0  0  0  0  0  0  0
   -3.7525   22.8101  -20.3803 C   0  0  0  0  0  0  0  0  0  0  0  0
   -1.6763   21.5093  -20.8619 C   0  0  0  0  0  0  0  0  0  0  0  0
   -4.5182   26.0034  -27.2853 N   0  0  0  0  0  0  0  0  0  0  0  0
   -3.8749   26.7998  -27.3968 H   0  0  0  0  0  0  0  0  0  0  0  0
   -6.4355   25.7576  -23.4743 C   0  0  0  0  0  0  0  0  0  0  0  0
   -5.0670   26.0824  -23.5966 C   0  0  0  0  0  0  0  0  0  0  0  0
   -4.4385   26.1494  -24.8224 C   0  0  0  0  0  0  0  0  0  0  0  0
   -5.1024   25.9074  -25.9854 C   0  0  0  0  0  0  0  0  0  0  0  0
   -6.4442   25.5865  -25.8716 C   0  0  0  0  0  0  0  0  0  0  0  0
   -7.0947   25.5136  -24.6303 C   0  0  0  0  0  0  0  0  0  0  0  0
   -8.7910   25.0218  -24.6375 Cl  0  0  0  0  0  0  0  0  0  0  0  0
   -8.5955   26.5145  -20.6247 C   0  0  0  0  0  0  0  0  0  0  0  0
   -8.2576   25.6143  -19.6707 N   0  0  0  0  0  0  0  0  0  0  0  0
   -7.3011   24.7443  -19.9250 C   0  0  0  0  0  0  0  0  0  0  0  0
   -6.6632   24.7791  -21.1773 C   0  0  0  0  0  0  0  0  0  0  0  0
   -6.9913   25.6740  -22.1360 C   0  0  0  0  0  0  0  0  0  0  0  0
   -8.0003   26.5518  -21.8000 N   0  0  0  0  0  0  0  0  0  0  0  0
  -10.8848   27.4260  -21.0866 C   0  0  0  0  0  0  0  0  0  0  0  0
   -9.6262   27.4546  -20.3567 N   0  0  0  0  0  0  0  0  0  0  0  0
   -9.4837   28.1726  -19.6319 H   0  0  0  0  0  0  0  0  0  0  0  0
 38 39  1  0  0  0
 39 32  1  0  0  0
 32 33  2  0  0  0
 33 34  1  0  0  0
 34 35  2  0  0  0
 35 36  1  0  0  0
 36 37  2  0  0  0
 36 25  1  0  0  0
 25 26  2  0  0  0
 26 27  1  0  0  0
 27 28  2  0  0  0
 28 23  1  0  0  0
 23  1  1  0  0  0
  1  2  2  0  0  0
  2  3  1  0  0  0
  3  4  1  0  0  0
  3  5  1  0  0  0
  5  6  1  0  0  0
  5  7  2  0  0  0
  7  8  1  0  0  0
  8  9  2  0  0  0
  8 10  1  0  0  0
 10 11  1  0  0  0
 11 12  1  0  0  0
 12 13  1  0  0  0
 13 14  1  0  0  0
 14 15  1  0  0  0
 15 16  1  0  0  0
 16 17  1  0  0  0
 16 18  1  0  0  0
 14 19  1  0  0  0
 19 20  1  0  0  0
 19 21  1  0  0  0
 19 22  1  0  0  0
 28 29  1  0  0  0
 29 30  2  0  0  0
 30 31  1  0  0  0
 37 32  1  0  0  0
 30 25  1  0  0  0
  7  1  1  0  0  0
 18 10  1  0  0  0
 16 12  1  0  0  0
 39 40  1  0  0  0
 23 24  1  0  0  0
M  END
> <minimizedAffinity>
-8.08542

> <CNNscore>
0.0519121028

> <CNNaffinity>
6.7919931412

> <CNN_VS>
0.3525866568

> <CNNaffinity_variance>
0.4674434066

$$$$
[H]c1nc(N([H])C([H])([H])[H])nc(-c2c([H])c([H])c(N([H])c3nn(C([H])([H])[H])c(C([H])([H])[H])c3C(=O)N3C([H])([H])C4([H])C([H])([H])N(C(C([H])([H])[H])(C([H])([H])[H])C([H])([H])[H])C([H])([H])C4(C([H])([H])[H])C3([H])[H])c([H])c2Cl)c1[H]


 40 44  0  0  0  0  0  0  0  0999 V2000
   -4.2416   21.4794  -20.5037 C   0  0  0  0  0  0  0  0  0  0  0  0
   -5.0071   20.7089  -19.6960 N   0  0  0  0  0  0  0  0  0  0  0  0
   -6.2521   20.9962  -19.7925 N   0  0  0  0  0  0  0  0  0  0  0  0
   -7.3469   20.3566  -19.0546 C   0  0  0  0  0  0  0  0  0  0  0  0
   -6.3573   22.0071  -20.7058 C   0  0  0  0  0  0  0  0  0  0  0  0
   -7.6630   22.5412  -21.0992 C   0  0  0  0  0  0  0  0  0  0  0  0
   -5.1075   22.3578  -21.1922 C   0  0  0  0  0  0  0  0  0  0  0  0
   -4.6758   23.2683  -22.2011 C   0  0  0  0  0  0  0  0  0  0  0  0
   -3.7030   24.0820  -21.7578 O   0  0  0  0  0  0  0  0  0  0  0  0
   -5.0102   23.5362  -23.5367 N   0  0  0  0  0  0  0  0  0  0  0  0
   -4.2056   24.5932  -24.2562 C   0  0  0  0  0  0  0  0  0  0  0  0
   -5.1213   25.1906  -25.2614 C   0  0  0  0  0  0  0  0  0  0  0  0
   -4.4335   25.2915  -26.6416 C   0  0  0  0  0  0  0  0  0  0  0  0
   -4.6708   24.0017  -27.1902 N   0  0  0  0  0  0  0  0  0  0  0  0
   -6.0133   23.6841  -26.8668 C   0  0  0  0  0  0  0  0  0  0  0  0
   -6.1963   24.1881  -25.4564 C   0  0  0  0  0  0  0  0  0  0  0  0
   -7.5785   24.8232  -25.3501 C   0  0  0  0  0  0  0  0  0  0  0  0
   -6.0047   23.0846  -24.4350 C   0  0  0  0  0  0  0  0  0  0  0  0
   -4.2160   23.7474  -28.5003 C   0  0  0  0  0  0  0  0  0  0  0  0
   -3.9747   25.0424  -29.2353 C   0  0  0  0  0  0  0  0  0  0  0  0
   -2.9290   22.9491  -28.5537 C   0  0  0  0  0  0  0  0  0  0  0  0
   -5.3105   23.0224  -29.3005 C   0  0  0  0  0  0  0  0  0  0  0  0
   -2.8367   21.3380  -20.5565 N   0  0  0  0  0  0  0  0  0  0  0  0
   -2.3490   21.1805  -21.4498 H   0  0  0  0  0  0  0  0  0  0  0  0
   -0.0932   21.6219  -17.2927 C   0  0  0  0  0  0  0  0  0  0  0  0
   -1.2071   20.7555  -17.2521 C   0  0  0  0  0  0  0  0  0  0  0  0
   -2.1044   20.6694  -18.2959 C   0  0  0  0  0  0  0  0  0  0  0  0
   -1.9666   21.4144  -19.4263 C   0  0  0  0  0  0  0  0  0  0  0  0
   -0.8772   22.2673  -19.4711 C   0  0  0  0  0  0  0  0  0  0  0  0
    0.0419   22.3652  -18.4150 C   0  0  0  0  0  0  0  0  0  0  0  0
    1.3410   23.5496  -18.5850 Cl  0  0  0  0  0  0  0  0  0  0  0  0
    0.9305   22.1783  -13.8284 C   0  0  0  0  0  0  0  0  0  0  0  0
    2.2109   21.7419  -13.7593 N   0  0  0  0  0  0  0  0  0  0  0  0
    2.7830   21.2688  -14.8479 C   0  0  0  0  0  0  0  0  0  0  0  0
    2.0461   21.2328  -16.0447 C   0  0  0  0  0  0  0  0  0  0  0  0
    0.7684   21.6671  -16.1254 C   0  0  0  0  0  0  0  0  0  0  0  0
    0.2355   22.1473  -14.9478 N   0  0  0  0  0  0  0  0  0  0  0  0
    0.1106   21.8558  -11.4813 C   0  0  0  0  0  0  0  0  0  0  0  0
    0.3081   22.6889  -12.6580 N   0  0  0  0  0  0  0  0  0  0  0  0
   -0.0113   23.6680  -12.6377 H   0  0  0  0  0  0  0  0  0  0  0  0
 38 39  1  0  0  0
 39 32  1  0  0  0
 32 33  2  0  0  0
 33 34  1  0  0  0
 34 35  2  0  0  0
 35 36  1  0  0  0
 36 37  2  0  0  0
 36 25  1  0  0  0
 25 26  2  0  0  0
 26 27  1  0  0  0
 27 28  2  0  0  0
 28 23  1  0  0  0
 23  1  1  0  0  0
  1  2  2  0  0  0
  2  3  1  0  0  0
  3  4  1  0  0  0
  3  5  1  0  0  0
  5  6  1  0  0  0
  5  7  2  0  0  0
  7  8  1  0  0  0
  8  9  2  0  0  0
  8 10  1  0  0  0
 10 11  1  0  0  0
 11 12  1  0  0  0
 12 13  1  0  0  0
 13 14  1  0  0  0
 14 15  1  0  0  0
 15 16  1  0  0  0
 16 17  1  0  0  0
 16 18  1  0  0  0
 14 19  1  0  0  0
 19 20  1  0  0  0
 19 21  1  0  0  0
 19 22  1  0  0  0
 28 29  1  0  0  0
 29 30  2  0  0  0
 30 31  1  0  0  0
 37 32  1  0  0  0
 30 25  1  0  0  0
  7  1  1  0  0  0
 18 10  1  0  0  0
 16 12  1  0  0  0
 39 40  1  0  0  0
 23 24  1  0  0  0
M  END
> <minimizedAffinity>
-8.18555

> <CNNscore>
0.0513345823

> <CNNaffinity>
6.2595314980

> <CNN_VS>
0.3213304281

> <CNNaffinity_variance>
0.1993426085

$$$$
[H]c1nn([H])c(-c2c([H])c([H])c(Oc3c([H])c([H])c(N4C([H])([H])C([H])([H])OC([H])([H])C4([H])[H])c([H])c3Cl)c([H])c2[H])c1C#N


 28 31  0  0  0  0  0  0  0  0999 V2000
   -0.3205   20.8580  -21.1191 O   0  0  0  0  0  0  0  0  0  0  0  0
   -1.2448   22.9936  -19.1079 Cl  0  0  0  0  0  0  0  0  0  0  0  0
    0.3732   22.4150  -19.3893 C   0  0  0  0  0  0  0  0  0  0  0  0
    1.3861   22.9876  -18.6093 C   0  0  0  0  0  0  0  0  0  0  0  0
    2.6968   22.5987  -18.7600 C   0  0  0  0  0  0  0  0  0  0  0  0
    2.9400   21.6118  -19.7269 C   0  0  0  0  0  0  0  0  0  0  0  0
    1.9603   21.0446  -20.4948 C   0  0  0  0  0  0  0  0  0  0  0  0
    0.6184   21.4544  -20.3286 C   0  0  0  0  0  0  0  0  0  0  0  0
    3.7628   23.1389  -18.0057 N   0  0  0  0  0  0  0  0  0  0  0  0
    3.5812   24.3974  -17.3049 C   0  0  0  0  0  0  0  0  0  0  0  0
    4.9872   24.8931  -16.9707 C   0  0  0  0  0  0  0  0  0  0  0  0
    5.8407   24.7683  -18.0380 O   0  0  0  0  0  0  0  0  0  0  0  0
    6.0444   23.4957  -18.5033 C   0  0  0  0  0  0  0  0  0  0  0  0
    5.0442   22.5079  -17.8833 C   0  0  0  0  0  0  0  0  0  0  0  0
   -0.8692   21.2655  -22.2928 C   0  0  0  0  0  0  0  0  0  0  0  0
   -0.0165   21.5225  -23.3495 C   0  0  0  0  0  0  0  0  0  0  0  0
   -0.5168   21.9424  -24.5834 C   0  0  0  0  0  0  0  0  0  0  0  0
   -1.8345   22.1169  -24.8118 C   0  0  0  0  0  0  0  0  0  0  0  0
   -2.6941   21.8584  -23.7481 C   0  0  0  0  0  0  0  0  0  0  0  0
   -2.2036   21.4476  -22.5404 C   0  0  0  0  0  0  0  0  0  0  0  0
   -2.4582   22.5002  -26.0654 C   0  0  0  0  0  0  0  0  0  0  0  0
   -3.8081   22.6141  -26.2800 N   0  0  0  0  0  0  0  0  0  0  0  0
   -3.9989   22.9321  -27.5204 N   0  0  0  0  0  0  0  0  0  0  0  0
   -2.8573   23.0484  -28.1908 C   0  0  0  0  0  0  0  0  0  0  0  0
   -1.8571   22.7682  -27.2503 C   0  0  0  0  0  0  0  0  0  0  0  0
   -4.4966   22.4581  -25.5117 H   0  0  0  0  0  0  0  0  0  0  0  0
   -0.4659   22.7685  -27.6274 C   0  0  0  0  0  0  0  0  0  0  0  0
    0.6392   22.7736  -27.9577 N   0  0  0  0  0  0  0  0  0  0  0  0
  2  3  1  0  0  0
  3  4  2  0  0  0
  4  5  1  0  0  0
  5  6  2  0  0  0
  6  7  1  0  0  0
  7  8  2  0  0  0
  8  1  1  0  0  0
  1 15  1  0  0  0
 15 16  2  0  0  0
 16 17  1  0  0  0
 17 18  2  0  0  0
 18 19  1  0  0  0
 19 20  2  0  0  0
 18 21  1  0  0  0
 21 22  1  0  0  0
 22 23  1  0  0  0
 23 24  2  0  0  0
 24 25  1  0  0  0
 25 27  1  0  0  0
 27 28  3  0  0  0
  5  9  1  0  0  0
  9 10  1  0  0  0
 10 11  1  0  0  0
 11 12  1  0  0  0
 12 13  1  0  0  0
 13 14  1  0  0  0
  8  3  1  0  0  0
 20 15  1  0  0  0
 25 21  2  0  0  0
 14  9  1  0  0  0
 22 26  1  0  0  0
M  END
> <minimizedAffinity>
-8.05870

> <CNNscore>
0.7121711969

> <CNNaffinity>
6.4482827187

> <CNN_VS>
4.5922813416

> <CNNaffinity_variance>
0.1605341434

$$$$
[H]c1nn([H])c(-c2c([H])c([H])c(Oc3c([H])c([H])c(N4C([H])([H])C([H])([H])OC([H])([H])C4([H])[H])c([H])c3Cl)c([H])c2[H])c1C#N


 28 31  0  0  0  0  0  0  0  0999 V2000
   -0.6567   21.1259  -20.9860 O   0  0  0  0  0  0  0  0  0  0  0  0
    2.0608   19.7723  -21.4790 Cl  0  0  0  0  0  0  0  0  0  0  0  0
    1.7019   21.0974  -20.4079 C   0  0  0  0  0  0  0  0  0  0  0  0
    2.7765   21.6172  -19.6750 C   0  0  0  0  0  0  0  0  0  0  0  0
    2.5930   22.6626  -18.8002 C   0  0  0  0  0  0  0  0  0  0  0  0
    1.2847   23.1585  -18.6976 C   0  0  0  0  0  0  0  0  0  0  0  0
    0.2268   22.6602  -19.4075 C   0  0  0  0  0  0  0  0  0  0  0  0
    0.4309   21.5861  -20.3023 C   0  0  0  0  0  0  0  0  0  0  0  0
    3.6349   23.2294  -18.0319 N   0  0  0  0  0  0  0  0  0  0  0  0
    4.9791   22.6910  -18.1367 C   0  0  0  0  0  0  0  0  0  0  0  0
    5.7312   23.2106  -16.9126 C   0  0  0  0  0  0  0  0  0  0  0  0
    4.9853   23.0941  -15.7666 O   0  0  0  0  0  0  0  0  0  0  0  0
    3.8028   23.7858  -15.7421 C   0  0  0  0  0  0  0  0  0  0  0  0
    3.4460   24.3306  -17.1337 C   0  0  0  0  0  0  0  0  0  0  0  0
   -1.1168   21.4442  -22.2236 C   0  0  0  0  0  0  0  0  0  0  0  0
   -2.4647   21.7158  -22.3613 C   0  0  0  0  0  0  0  0  0  0  0  0
   -3.0007   22.0516  -23.6059 C   0  0  0  0  0  0  0  0  0  0  0  0
   -2.2495   22.1301  -24.7233 C   0  0  0  0  0  0  0  0  0  0  0  0
   -0.8917   21.8567  -24.5855 C   0  0  0  0  0  0  0  0  0  0  0  0
   -0.3677   21.5278  -23.3668 C   0  0  0  0  0  0  0  0  0  0  0  0
   -2.6973   22.5172  -26.0488 C   0  0  0  0  0  0  0  0  0  0  0  0
   -4.0056   22.6479  -26.4397 N   0  0  0  0  0  0  0  0  0  0  0  0
   -4.0269   22.9642  -27.6950 N   0  0  0  0  0  0  0  0  0  0  0  0
   -2.8054   23.0634  -28.2091 C   0  0  0  0  0  0  0  0  0  0  0  0
   -1.9417   22.7734  -27.1445 C   0  0  0  0  0  0  0  0  0  0  0  0
   -4.7913   22.5036  -25.7686 H   0  0  0  0  0  0  0  0  0  0  0  0
   -0.5131   22.7543  -27.3349 C   0  0  0  0  0  0  0  0  0  0  0  0
    0.6269   22.7156  -27.5058 N   0  0  0  0  0  0  0  0  0  0  0  0
  2  3  1  0  0  0
  3  4  2  0  0  0
  4  5  1  0  0  0
  5  6  2  0  0  0
  6  7  1  0  0  0
  7  8  2  0  0  0
  8  1  1  0  0  0
  1 15  1  0  0  0
 15 16  2  0  0  0
 16 17  1  0  0  0
 17 18  2  0  0  0
 18 19  1  0  0  0
 19 20  2  0  0  0
 18 21  1  0  0  0
 21 22  1  0  0  0
 22 23  1  0  0  0
 23 24  2  0  0  0
 24 25  1  0  0  0
 25 27  1  0  0  0
 27 28  3  0  0  0
  5  9  1  0  0  0
  9 10  1  0  0  0
 10 11  1  0  0  0
 11 12  1  0  0  0
 12 13  1  0  0  0
 13 14  1  0  0  0
  8  3  1  0  0  0
 20 15  1  0  0  0
 25 21  2  0  0  0
 14  9  1  0  0  0
 22 26  1  0  0  0
M  END
> <minimizedAffinity>
-7.61347

> <CNNscore>
0.5829367638

> <CNNaffinity>
6.2883138657

> <CNN_VS>
3.6656892300

> <CNNaffinity_variance>
0.2130765021

$$$$
[H]c1nn([H])c(-c2c([H])c([H])c(Oc3c([H])c([H])c(N4C([H])([H])C([H])([H])OC([H])([H])C4([H])[H])c([H])c3Cl)c([H])c2[H])c1C#N


 28 31  0  0  0  0  0  0  0  0999 V2000
   -0.1304   20.9337  -21.2052 O   0  0  0  0  0  0  0  0  0  0  0  0
   -1.1561   23.0379  -19.2101 Cl  0  0  0  0  0  0  0  0  0  0  0  0
    0.4757   22.4686  -19.4235 C   0  0  0  0  0  0  0  0  0  0  0  0
    1.4487   23.0336  -18.5891 C   0  0  0  0  0  0  0  0  0  0  0  0
    2.7665   22.6512  -18.6838 C   0  0  0  0  0  0  0  0  0  0  0  0
    3.0585   21.6787  -19.6518 C   0  0  0  0  0  0  0  0  0  0  0  0
    2.1180   21.1191  -20.4724 C   0  0  0  0  0  0  0  0  0  0  0  0
    0.7682   21.5220  -20.3635 C   0  0  0  0  0  0  0  0  0  0  0  0
    3.7940   23.1843  -17.8730 N   0  0  0  0  0  0  0  0  0  0  0  0
    3.5278   24.3512  -17.0512 C   0  0  0  0  0  0  0  0  0  0  0  0
    4.8971   24.9052  -16.6610 C   0  0  0  0  0  0  0  0  0  0  0  0
    5.7562   24.9459  -17.7304 O   0  0  0  0  0  0  0  0  0  0  0  0
    6.0456   23.7430  -18.3191 C   0  0  0  0  0  0  0  0  0  0  0  0
    5.1155   22.6326  -17.8067 C   0  0  0  0  0  0  0  0  0  0  0  0
   -0.5365   21.2951  -22.4499 C   0  0  0  0  0  0  0  0  0  0  0  0
   -1.8952   21.3413  -22.6978 C   0  0  0  0  0  0  0  0  0  0  0  0
   -2.3782   21.7073  -23.9555 C   0  0  0  0  0  0  0  0  0  0  0  0
   -1.5639   22.0317  -24.9804 C   0  0  0  0  0  0  0  0  0  0  0  0
   -0.1952   21.9854  -24.7316 C   0  0  0  0  0  0  0  0  0  0  0  0
    0.2770   21.6268  -23.5003 C   0  0  0  0  0  0  0  0  0  0  0  0
   -1.9632   22.4718  -26.3049 C   0  0  0  0  0  0  0  0  0  0  0  0
   -1.1202   22.6469  -27.3726 N   0  0  0  0  0  0  0  0  0  0  0  0
   -1.8147   23.0850  -28.3736 N   0  0  0  0  0  0  0  0  0  0  0  0
   -3.1004   23.2279  -28.0690 C   0  0  0  0  0  0  0  0  0  0  0  0
   -3.1993   22.8319  -26.7286 C   0  0  0  0  0  0  0  0  0  0  0  0
   -0.1015   22.4322  -27.3030 H   0  0  0  0  0  0  0  0  0  0  0  0
   -4.4610   22.8820  -26.0334 C   0  0  0  0  0  0  0  0  0  0  0  0
   -5.4804   22.9424  -25.4972 N   0  0  0  0  0  0  0  0  0  0  0  0
  2  3  1  0  0  0
  3  4  2  0  0  0
  4  5  1  0  0  0
  5  6  2  0  0  0
  6  7  1  0  0  0
  7  8  2  0  0  0
  8  1  1  0  0  0
  1 15  1  0  0  0
 15 16  2  0  0  0
 16 17  1  0  0  0
 17 18  2  0  0  0
 18 19  1  0  0  0
 19 20  2  0  0  0
 18 21  1  0  0  0
 21 22  1  0  0  0
 22 23  1  0  0  0
 23 24  2  0  0  0
 24 25  1  0  0  0
 25 27  1  0  0  0
 27 28  3  0  0  0
  5  9  1  0  0  0
  9 10  1  0  0  0
 10 11  1  0  0  0
 11 12  1  0  0  0
 12 13  1  0  0  0
 13 14  1  0  0  0
  8  3  1  0  0  0
 20 15  1  0  0  0
 25 21  2  0  0  0
 14  9  1  0  0  0
 22 26  1  0  0  0
M  END
> <minimizedAffinity>
-7.82898

> <CNNscore>
0.3095406592

> <CNNaffinity>
6.0371584892

> <CNN_VS>
1.8687460423

> <CNNaffinity_variance>
0.1514307112

$$$$
[H]c1nn([H])c(-c2c([H])c([H])c(Oc3c([H])c([H])c(N4C([H])([H])C([H])([H])OC([H])([H])C4([H])[H])c([H])c3Cl)c([H])c2[H])c1C#N


 28 31  0  0  0  0  0  0  0  0999 V2000
   -3.6082   21.7399  -21.2070 O   0  0  0  0  0  0  0  0  0  0  0  0
   -2.9867   21.2435  -18.2358 Cl  0  0  0  0  0  0  0  0  0  0  0  0
   -4.5401   21.5096  -18.9762 C   0  0  0  0  0  0  0  0  0  0  0  0
   -5.6500   21.4966  -18.1217 C   0  0  0  0  0  0  0  0  0  0  0  0
   -6.9196   21.6942  -18.6124 C   0  0  0  0  0  0  0  0  0  0  0  0
   -7.0204   21.9046  -19.9957 C   0  0  0  0  0  0  0  0  0  0  0  0
   -5.9449   21.9199  -20.8409 C   0  0  0  0  0  0  0  0  0  0  0  0
   -4.6467   21.7154  -20.3221 C   0  0  0  0  0  0  0  0  0  0  0  0
   -8.0783   21.6908  -17.8033 N   0  0  0  0  0  0  0  0  0  0  0  0
   -8.0456   21.0421  -16.5048 C   0  0  0  0  0  0  0  0  0  0  0  0
   -9.5062   20.8450  -16.1024 C   0  0  0  0  0  0  0  0  0  0  0  0
  -10.2622   20.3622  -17.1409 O   0  0  0  0  0  0  0  0  0  0  0  0
  -10.3343   21.1554  -18.2558 C   0  0  0  0  0  0  0  0  0  0  0  0
   -9.3152   22.3033  -18.1909 C   0  0  0  0  0  0  0  0  0  0  0  0
   -3.5941   22.0038  -22.5392 C   0  0  0  0  0  0  0  0  0  0  0  0
   -3.3885   23.3113  -22.9364 C   0  0  0  0  0  0  0  0  0  0  0  0
   -3.3605   23.6489  -24.2908 C   0  0  0  0  0  0  0  0  0  0  0  0
   -3.5279   22.7372  -25.2704 C   0  0  0  0  0  0  0  0  0  0  0  0
   -3.7351   21.4200  -24.8713 C   0  0  0  0  0  0  0  0  0  0  0  0
   -3.7626   21.0902  -23.5453 C   0  0  0  0  0  0  0  0  0  0  0  0
   -3.4671   22.9747  -26.7013 C   0  0  0  0  0  0  0  0  0  0  0  0
   -4.5442   23.2270  -27.5121 N   0  0  0  0  0  0  0  0  0  0  0  0
   -4.1198   23.3458  -28.7295 N   0  0  0  0  0  0  0  0  0  0  0  0
   -2.8030   23.1910  -28.8201 C   0  0  0  0  0  0  0  0  0  0  0  0
   -2.3774   22.9496  -27.5070 C   0  0  0  0  0  0  0  0  0  0  0  0
   -5.5108   23.3002  -27.1263 H   0  0  0  0  0  0  0  0  0  0  0  0
   -0.9885   22.6998  -27.2135 C   0  0  0  0  0  0  0  0  0  0  0  0
    0.1208   22.4736  -26.9929 N   0  0  0  0  0  0  0  0  0  0  0  0
  2  3  1  0  0  0
  3  4  2  0  0  0
  4  5  1  0  0  0
  5  6  2  0  0  0
  6  7  1  0  0  0
  7  8  2  0  0  0
  8  1  1  0  0  0
  1 15  1  0  0  0
 15 16  2  0  0  0
 16 17  1  0  0  0
 17 18  2  0  0  0
 18 19  1  0  0  0
 19 20  2  0  0  0
 18 21  1  0  0  0
 21 22  1  0  0  0
 22 23  1  0  0  0
 23 24  2  0  0  0
 24 25  1  0  0  0
 25 27  1  0  0  0
 27 28  3  0  0  0
  5  9  1  0  0  0
  9 10  1  0  0  0
 10 11  1  0  0  0
 11 12  1  0  0  0
 12 13  1  0  0  0
 13 14  1  0  0  0
  8  3  1  0  0  0
 20 15  1  0  0  0
 25 21  2  0  0  0
 14  9  1  0  0  0
 22 26  1  0  0  0
M  END
> <minimizedAffinity>
-6.18449

> <CNNscore>
0.2604948580

> <CNNaffinity>
6.0217165947

> <CNN_VS>
1.5686261654

> <CNNaffinity_variance>
0.5851542354

$$$$
[H]c1nn([H])c(-c2c([H])c([H])c(Oc3c([H])c([H])c(N4C([H])([H])C([H])([H])OC([H])([H])C4([H])[H])c([H])c3Cl)c([H])c2[H])c1C#N


 28 31  0  0  0  0  0  0  0  0999 V2000
   -5.9272   22.0895  -23.1732 O   0  0  0  0  0  0  0  0  0  0  0  0
   -8.0934   24.0212  -22.1552 Cl  0  0  0  0  0  0  0  0  0  0  0  0
   -6.8698   23.1984  -21.2290 C   0  0  0  0  0  0  0  0  0  0  0  0
   -6.8620   23.4406  -19.8493 C   0  0  0  0  0  0  0  0  0  0  0  0
   -5.9320   22.8394  -19.0335 C   0  0  0  0  0  0  0  0  0  0  0  0
   -5.0150   21.9874  -19.6668 C   0  0  0  0  0  0  0  0  0  0  0  0
   -5.0119   21.7422  -21.0126 C   0  0  0  0  0  0  0  0  0  0  0  0
   -5.9734   22.3671  -21.8379 C   0  0  0  0  0  0  0  0  0  0  0  0
   -5.8710   23.0441  -17.6365 N   0  0  0  0  0  0  0  0  0  0  0  0
   -6.9723   22.6066  -16.7978 C   0  0  0  0  0  0  0  0  0  0  0  0
   -6.7969   23.3372  -15.4675 C   0  0  0  0  0  0  0  0  0  0  0  0
   -6.4996   24.6646  -15.6484 O   0  0  0  0  0  0  0  0  0  0  0  0
   -5.3408   24.9375  -16.3268 C   0  0  0  0  0  0  0  0  0  0  0  0
   -4.7632   23.6708  -16.9768 C   0  0  0  0  0  0  0  0  0  0  0  0
   -4.9093   22.2178  -24.0633 C   0  0  0  0  0  0  0  0  0  0  0  0
   -4.6396   23.4794  -24.5585 C   0  0  0  0  0  0  0  0  0  0  0  0
   -3.6053   23.6794  -25.4747 C   0  0  0  0  0  0  0  0  0  0  0  0
   -2.8244   22.6740  -25.9198 C   0  0  0  0  0  0  0  0  0  0  0  0
   -3.0954   21.4029  -25.4216 C   0  0  0  0  0  0  0  0  0  0  0  0
   -4.1081   21.2077  -24.5250 C   0  0  0  0  0  0  0  0  0  0  0  0
   -1.6975   22.7829  -26.8285 C   0  0  0  0  0  0  0  0  0  0  0  0
   -1.7772   23.1058  -28.1592 N   0  0  0  0  0  0  0  0  0  0  0  0
   -0.5841   23.0677  -28.6607 N   0  0  0  0  0  0  0  0  0  0  0  0
    0.3309   22.7356  -27.7560 C   0  0  0  0  0  0  0  0  0  0  0  0
   -0.3880   22.5496  -26.5677 C   0  0  0  0  0  0  0  0  0  0  0  0
   -2.6896   23.3359  -28.6100 H   0  0  0  0  0  0  0  0  0  0  0  0
    0.2785   22.1460  -25.3551 C   0  0  0  0  0  0  0  0  0  0  0  0
    0.8174   21.7961  -24.3972 N   0  0  0  0  0  0  0  0  0  0  0  0
  2  3  1  0  0  0
  3  4  2  0  0  0
  4  5  1  0  0  0
  5  6  2  0  0  0
  6  7  1  0  0  0
  7  8  2  0  0  0
  8  1  1  0  0  0
  1 15  1  0  0  0
 15 16  2  0  0  0
 16 17  1  0  0  0
 17 18  2  0  0  0
 18 19  1  0  0  0
 19 20  2  0  0  0
 18 21  1  0  0  0
 21 22  1  0  0  0
 22 23  1  0  0  0
 23 24  2  0  0  0
 24 25  1  0  0  0
 25 27  1  0  0  0
 27 28  3  0  0  0
  5  9  1  0  0  0
  9 10  1  0  0  0
 10 11  1  0  0  0
 11 12  1  0  0  0
 12 13  1  0  0  0
 13 14  1  0  0  0
  8  3  1  0  0  0
 20 15  1  0  0  0
 25 21  2  0  0  0
 14  9  1  0  0  0
 22 26  1  0  0  0
M  END
> <minimizedAffinity>
-7.27964

> <CNNscore>
0.2497210503

> <CNNaffinity>
5.9768190384

> <CNN_VS>
1.4925374985

> <CNNaffinity_variance>
0.0929307491

$$$$
[H]c1nn([H])c(-c2c([H])c([H])c(Oc3c([H])c([H])c(N4C([H])([H])C([H])([H])OC([H])([H])C4([H])[H])c([H])c3Cl)c([H])c2[H])c1C#N


 28 31  0  0  0  0  0  0  0  0999 V2000
   -6.9164   21.9504  -22.4244 O   0  0  0  0  0  0  0  0  0  0  0  0
   -5.6535   24.6391  -21.6270 Cl  0  0  0  0  0  0  0  0  0  0  0  0
   -6.2192   23.3680  -20.5799 C   0  0  0  0  0  0  0  0  0  0  0  0
   -6.0857   23.5869  -19.2028 C   0  0  0  0  0  0  0  0  0  0  0  0
   -6.5005   22.6404  -18.2952 C   0  0  0  0  0  0  0  0  0  0  0  0
   -7.0533   21.4693  -18.8345 C   0  0  0  0  0  0  0  0  0  0  0  0
   -7.1895   21.2432  -20.1768 C   0  0  0  0  0  0  0  0  0  0  0  0
   -6.7587   22.2248  -21.0970 C   0  0  0  0  0  0  0  0  0  0  0  0
   -6.3916   22.8010  -16.8954 N   0  0  0  0  0  0  0  0  0  0  0  0
   -7.4424   22.2953  -16.0305 C   0  0  0  0  0  0  0  0  0  0  0  0
   -7.2407   22.9875  -14.6836 C   0  0  0  0  0  0  0  0  0  0  0  0
   -6.9985   24.3304  -14.8298 O   0  0  0  0  0  0  0  0  0  0  0  0
   -5.8781   24.6683  -15.5425 C   0  0  0  0  0  0  0  0  0  0  0  0
   -5.2817   23.4462  -16.2574 C   0  0  0  0  0  0  0  0  0  0  0  0
   -6.0550   22.1056  -23.4629 C   0  0  0  0  0  0  0  0  0  0  0  0
   -6.3813   23.0261  -24.4406 C   0  0  0  0  0  0  0  0  0  0  0  0
   -5.5375   23.2350  -25.5330 C   0  0  0  0  0  0  0  0  0  0  0  0
   -4.3779   22.5654  -25.6940 C   0  0  0  0  0  0  0  0  0  0  0  0
   -4.0484   21.6380  -24.7098 C   0  0  0  0  0  0  0  0  0  0  0  0
   -4.8750   21.4338  -23.6407 C   0  0  0  0  0  0  0  0  0  0  0  0
   -3.4103   22.7429  -26.7615 C   0  0  0  0  0  0  0  0  0  0  0  0
   -2.0499   22.6286  -26.6290 N   0  0  0  0  0  0  0  0  0  0  0  0
   -1.5046   22.8934  -27.7730 N   0  0  0  0  0  0  0  0  0  0  0  0
   -2.4065   23.1878  -28.7036 C   0  0  0  0  0  0  0  0  0  0  0  0
   -3.6426   23.0918  -28.0505 C   0  0  0  0  0  0  0  0  0  0  0  0
   -1.6118   22.3620  -25.7203 H   0  0  0  0  0  0  0  0  0  0  0  0
   -4.8717   23.3765  -28.7475 C   0  0  0  0  0  0  0  0  0  0  0  0
   -5.8516   23.6336  -29.2988 N   0  0  0  0  0  0  0  0  0  0  0  0
  2  3  1  0  0  0
  3  4  2  0  0  0
  4  5  1  0  0  0
  5  6  2  0  0  0
  6  7  1  0  0  0
  7  8  2  0  0  0
  8  1  1  0  0  0
  1 15  1  0  0  0
 15 16  2  0  0  0
 16 17  1  0  0  0
 17 18  2  0  0  0
 18 19  1  0  0  0
 19 20  2  0  0  0
 18 21  1  0  0  0
 21 22  1  0  0  0
 22 23  1  0  0  0
 23 24  2  0  0  0
 24 25  1  0  0  0
 25 27  1  0  0  0
 27 28  3  0  0  0
  5  9  1  0  0  0
  9 10  1  0  0  0
 10 11  1  0  0  0
 11 12  1  0  0  0
 12 13  1  0  0  0
 13 14  1  0  0  0
  8  3  1  0  0  0
 20 15  1  0  0  0
 25 21  2  0  0  0
 14  9  1  0  0  0
 22 26  1  0  0  0
M  END
> <minimizedAffinity>
-6.95267

> <CNNscore>
0.1863744408

> <CNNaffinity>
6.0506095886

> <CNN_VS>
1.1276789904

> <CNNaffinity_variance>
0.4313710630

$$$$
[H]c1nn([H])c(-c2c([H])c([H])c(Oc3c([H])c([H])c(N4C([H])([H])C([H])([H])OC([H])([H])C4([H])[H])c([H])c3Cl)c([H])c2[H])c1C#N


 28 31  0  0  0  0  0  0  0  0999 V2000
   -6.5850   23.7550  -22.0633 O   0  0  0  0  0  0  0  0  0  0  0  0
   -4.4556   22.7527  -20.0831 Cl  0  0  0  0  0  0  0  0  0  0  0  0
   -6.1391   22.3143  -20.1598 C   0  0  0  0  0  0  0  0  0  0  0  0
   -6.5884   21.3909  -19.2071 C   0  0  0  0  0  0  0  0  0  0  0  0
   -7.9008   20.9798  -19.1882 C   0  0  0  0  0  0  0  0  0  0  0  0
   -8.7362   21.5382  -20.1671 C   0  0  0  0  0  0  0  0  0  0  0  0
   -8.3102   22.4407  -21.1027 C   0  0  0  0  0  0  0  0  0  0  0  0
   -6.9590   22.8535  -21.1097 C   0  0  0  0  0  0  0  0  0  0  0  0
   -8.4143   20.0509  -18.2551 N   0  0  0  0  0  0  0  0  0  0  0  0
   -9.5249   20.4306  -17.4006 C   0  0  0  0  0  0  0  0  0  0  0  0
   -9.5439   19.4082  -16.2655 C   0  0  0  0  0  0  0  0  0  0  0  0
   -8.2868   19.1733  -15.7677 O   0  0  0  0  0  0  0  0  0  0  0  0
   -7.3722   18.6638  -16.6517 C   0  0  0  0  0  0  0  0  0  0  0  0
   -7.8972   18.7235  -18.0944 C   0  0  0  0  0  0  0  0  0  0  0  0
   -5.8146   23.5952  -23.1704 C   0  0  0  0  0  0  0  0  0  0  0  0
   -5.2341   24.7218  -23.7213 C   0  0  0  0  0  0  0  0  0  0  0  0
   -4.4293   24.6256  -24.8580 C   0  0  0  0  0  0  0  0  0  0  0  0
   -4.1755   23.4516  -25.4715 C   0  0  0  0  0  0  0  0  0  0  0  0
   -4.7598   22.3164  -24.9172 C   0  0  0  0  0  0  0  0  0  0  0  0
   -5.5478   22.4113  -23.8046 C   0  0  0  0  0  0  0  0  0  0  0  0
   -3.3172   23.2377  -26.6224 C   0  0  0  0  0  0  0  0  0  0  0  0
   -1.9679   22.9957  -26.5743 N   0  0  0  0  0  0  0  0  0  0  0  0
   -1.5272   22.8978  -27.7878 N   0  0  0  0  0  0  0  0  0  0  0  0
   -2.4922   23.0576  -28.6874 C   0  0  0  0  0  0  0  0  0  0  0  0
   -3.6534   23.2788  -27.9349 C   0  0  0  0  0  0  0  0  0  0  0  0
   -1.4615   22.9136  -25.6658 H   0  0  0  0  0  0  0  0  0  0  0  0
   -4.9176   23.5275  -28.5809 C   0  0  0  0  0  0  0  0  0  0  0  0
   -5.9205   23.7548  -29.1033 N   0  0  0  0  0  0  0  0  0  0  0  0
  2  3  1  0  0  0
  3  4  2  0  0  0
  4  5  1  0  0  0
  5  6  2  0  0  0
  6  7  1  0  0  0
  7  8  2  0  0  0
  8  1  1  0  0  0
  1 15  1  0  0  0
 15 16  2  0  0  0
 16 17  1  0  0  0
 17 18  2  0  0  0
 18 19  1  0  0  0
 19 20  2  0  0  0
 18 21  1  0  0  0
 21 22  1  0  0  0
 22 23  1  0  0  0
 23 24  2  0  0  0
 24 25  1  0  0  0
 25 27  1  0  0  0
 27 28  3  0  0  0
  5  9  1  0  0  0
  9 10  1  0  0  0
 10 11  1  0  0  0
 11 12  1  0  0  0
 12 13  1  0  0  0
 13 14  1  0  0  0
  8  3  1  0  0  0
 20 15  1  0  0  0
 25 21  2  0  0  0
 14  9  1  0  0  0
 22 26  1  0  0  0
M  END
> <minimizedAffinity>
-6.48773

> <CNNscore>
0.1785991341

> <CNNaffinity>
6.0247526169

> <CNN_VS>
1.0760155916

> <CNNaffinity_variance>
0.5781804323

$$$$
[H]c1nn([H])c(-c2c([H])c([H])c(Oc3c([H])c([H])c(N4C([H])([H])C([H])([H])OC([H])([H])C4([H])[H])c([H])c3Cl)c([H])c2[H])c1C#N


 28 31  0  0  0  0  0  0  0  0999 V2000
   -6.8024   24.1786  -22.0710 O   0  0  0  0  0  0  0  0  0  0  0  0
   -9.5065   23.4879  -20.7782 Cl  0  0  0  0  0  0  0  0  0  0  0  0
   -7.9142   23.2994  -20.0990 C   0  0  0  0  0  0  0  0  0  0  0  0
   -7.8460   22.7699  -18.8039 C   0  0  0  0  0  0  0  0  0  0  0  0
   -6.6338   22.5861  -18.1806 C   0  0  0  0  0  0  0  0  0  0  0  0
   -5.4990   22.9576  -18.9170 C   0  0  0  0  0  0  0  0  0  0  0  0
   -5.5518   23.4754  -20.1820 C   0  0  0  0  0  0  0  0  0  0  0  0
   -6.8044   23.6585  -20.8094 C   0  0  0  0  0  0  0  0  0  0  0  0
   -6.4989   22.0586  -16.8765 N   0  0  0  0  0  0  0  0  0  0  0  0
   -5.3848   21.1801  -16.5687 C   0  0  0  0  0  0  0  0  0  0  0  0
   -5.7612   20.4720  -15.2683 C   0  0  0  0  0  0  0  0  0  0  0  0
   -7.0591   20.0266  -15.2857 O   0  0  0  0  0  0  0  0  0  0  0  0
   -8.0259   20.9872  -15.4269 C   0  0  0  0  0  0  0  0  0  0  0  0
   -7.4136   22.3432  -15.8099 C   0  0  0  0  0  0  0  0  0  0  0  0
   -5.9616   23.9533  -23.1136 C   0  0  0  0  0  0  0  0  0  0  0  0
   -6.0756   22.7521  -23.7872 C   0  0  0  0  0  0  0  0  0  0  0  0
   -5.2431   22.4596  -24.8690 C   0  0  0  0  0  0  0  0  0  0  0  0
   -4.2992   23.3153  -25.3116 C   0  0  0  0  0  0  0  0  0  0  0  0
   -4.1836   24.5255  -24.6338 C   0  0  0  0  0  0  0  0  0  0  0  0
   -4.9988   24.8110  -23.5746 C   0  0  0  0  0  0  0  0  0  0  0  0
   -3.4207   23.1296  -26.4523 C   0  0  0  0  0  0  0  0  0  0  0  0
   -2.0708   22.8955  -26.3867 N   0  0  0  0  0  0  0  0  0  0  0  0
   -1.6097   22.8243  -27.5944 N   0  0  0  0  0  0  0  0  0  0  0  0
   -2.5610   22.9955  -28.5065 C   0  0  0  0  0  0  0  0  0  0  0  0
   -3.7357   23.1943  -27.7690 C   0  0  0  0  0  0  0  0  0  0  0  0
   -1.5787   22.7989  -25.4718 H   0  0  0  0  0  0  0  0  0  0  0  0
   -4.9909   23.4474  -28.4308 C   0  0  0  0  0  0  0  0  0  0  0  0
   -6.0094   23.6345  -28.9387 N   0  0  0  0  0  0  0  0  0  0  0  0
  2  3  1  0  0  0
  3  4  2  0  0  0
  4  5  1  0  0  0
  5  6  2  0  0  0
  6  7  1  0  0  0
  7  8  2  0  0  0
  8  1  1  0  0  0
  1 15  1  0  0  0
 15 16  2  0  0  0
 16 17  1  0  0  0
 17 18  2  0  0  0
 18 19  1  0  0  0
 19 20  2  0  0  0
 18 21  1  0  0  0
 21 22  1  0  0  0
 22 23  1  0  0  0
 23 24  2  0  0  0
 24 25  1  0  0  0
 25 27  1  0  0  0
 27 28  3  0  0  0
  5  9  1  0  0  0
  9 10  1  0  0  0
 10 11  1  0  0  0
 11 12  1  0  0  0
 12 13  1  0  0  0
 13 14  1  0  0  0
  8  3  1  0  0  0
 20 15  1  0  0  0
 25 21  2  0  0  0
 14  9  1  0  0  0
 22 26  1  0  0  0
M  END
> <minimizedAffinity>
-6.22295

> <CNNscore>
0.1712547988

> <CNNaffinity>
5.9772109985

> <CNN_VS>
1.0236260891

> <CNNaffinity_variance>
0.7509137392

$$$$
[H]c1nn([H])c(-c2c([H])c([H])c(Oc3c([H])c([H])c(N4C([H])([H])C([H])([H])OC([H])([H])C4([H])[H])c([H])c3Cl)c([H])c2[H])c1C#N


 28 31  0  0  0  0  0  0  0  0999 V2000
   -3.0755   22.6650  -25.0206 O   0  0  0  0  0  0  0  0  0  0  0  0
   -0.5391   22.8497  -26.7506 Cl  0  0  0  0  0  0  0  0  0  0  0  0
   -0.6777   22.2899  -25.1075 C   0  0  0  0  0  0  0  0  0  0  0  0
    0.5063   21.8683  -24.4891 C   0  0  0  0  0  0  0  0  0  0  0  0
    0.4990   21.4063  -23.1936 C   0  0  0  0  0  0  0  0  0  0  0  0
   -0.7486   21.3883  -22.5523 C   0  0  0  0  0  0  0  0  0  0  0  0
   -1.9118   21.7972  -23.1446 C   0  0  0  0  0  0  0  0  0  0  0  0
   -1.8885   22.2694  -24.4760 C   0  0  0  0  0  0  0  0  0  0  0  0
    1.6580   20.9658  -22.5156 N   0  0  0  0  0  0  0  0  0  0  0  0
    2.8882   20.7563  -23.2576 C   0  0  0  0  0  0  0  0  0  0  0  0
    3.7773   19.9025  -22.3550 C   0  0  0  0  0  0  0  0  0  0  0  0
    3.0822   18.8651  -21.7859 O   0  0  0  0  0  0  0  0  0  0  0  0
    2.0325   19.2128  -20.9768 C   0  0  0  0  0  0  0  0  0  0  0  0
    1.6993   20.7070  -21.1061 C   0  0  0  0  0  0  0  0  0  0  0  0
   -4.1517   23.2613  -24.4452 C   0  0  0  0  0  0  0  0  0  0  0  0
   -4.0295   24.5835  -24.0625 C   0  0  0  0  0  0  0  0  0  0  0  0
   -5.0990   25.2553  -23.4676 C   0  0  0  0  0  0  0  0  0  0  0  0
   -6.2899   24.6654  -23.2375 C   0  0  0  0  0  0  0  0  0  0  0  0
   -6.4139   23.3336  -23.6225 C   0  0  0  0  0  0  0  0  0  0  0  0
   -5.3663   22.6766  -24.2046 C   0  0  0  0  0  0  0  0  0  0  0  0
   -7.4750   25.2859  -22.6737 C   0  0  0  0  0  0  0  0  0  0  0  0
   -8.5909   25.6568  -23.3798 N   0  0  0  0  0  0  0  0  0  0  0  0
   -9.4253   26.2138  -22.5614 N   0  0  0  0  0  0  0  0  0  0  0  0
   -8.9580   26.2554  -21.3180 C   0  0  0  0  0  0  0  0  0  0  0  0
   -7.6937   25.6553  -21.3880 C   0  0  0  0  0  0  0  0  0  0  0  0
   -8.6720   25.4762  -24.4042 H   0  0  0  0  0  0  0  0  0  0  0  0
   -6.8604   25.5465  -20.2170 C   0  0  0  0  0  0  0  0  0  0  0  0
   -6.2176   25.4654  -19.2627 N   0  0  0  0  0  0  0  0  0  0  0  0
  2  3  1  0  0  0
  3  4  2  0  0  0
  4  5  1  0  0  0
  5  6  2  0  0  0
  6  7  1  0  0  0
  7  8  2  0  0  0
  8  1  1  0  0  0
  1 15  1  0  0  0
 15 16  2  0  0  0
 16 17  1  0  0  0
 17 18  2  0  0  0
 18 19  1  0  0  0
 19 20  2  0  0  0
 18 21  1  0  0  0
 21 22  1  0  0  0
 22 23  1  0  0  0
 23 24  2  0  0  0
 24 25  1  0  0  0
 25 27  1  0  0  0
 27 28  3  0  0  0
  5  9  1  0  0  0
  9 10  1  0  0  0
 10 11  1  0  0  0
 11 12  1  0  0  0
 12 13  1  0  0  0
 13 14  1  0  0  0
  8  3  1  0  0  0
 20 15  1  0  0  0
 25 21  2  0  0  0
 14  9  1  0  0  0
 22 26  1  0  0  0
M  END
> <minimizedAffinity>
-7.74712

> <CNNscore>
0.1664782614

> <CNNaffinity>
5.9059476852

> <CNN_VS>
0.9832118750

> <CNNaffinity_variance>
0.0243531317

$$$$
[H]c1c([H])c([H])c(C([H])([H])[C@@]([H])(C(=O)N([H])[H])N([H])C(=O)[C@@]([H])(N([H])C(=O)[C@@]([H])(N([H])C(=O)c2c([H])c([H])c(C#N)c([H])c2[H])C([H])([H])[H])C([H])([H])C([H])(C([H])([H])[H])C([H])([H])[H])c([H])c1[H]


 40 41  0  0  0  0  0  0  0  0999 V2000
   -4.2286   24.7254  -28.5196 C   0  0  0  0  0  0  0  0  0  0  0  0
   -4.6071   25.6012  -27.4613 N   0  0  0  0  0  0  0  0  0  0  0  0
   -5.8622   25.7845  -26.8799 C   0  0  0  0  0  0  0  0  0  0  0  0
   -6.8673   25.1566  -27.2704 O   0  0  0  0  0  0  0  0  0  0  0  0
   -3.8284   26.2196  -27.0356 H   0  0  0  0  0  0  0  0  0  0  0  0
   -6.0932   26.7494  -25.7441 C   0  0  0  0  0  0  0  0  0  0  0  0
   -4.8006   27.4993  -25.5448 C   0  0  0  0  0  0  0  0  0  0  0  0
   -6.5080   26.0603  -24.5475 N   0  0  0  0  0  0  0  0  0  0  0  0
   -5.7641   25.0426  -23.9306 C   0  0  0  0  0  0  0  0  0  0  0  0
   -4.6668   24.7253  -24.4739 O   0  0  0  0  0  0  0  0  0  0  0  0
   -7.4119   26.3513  -24.1357 H   0  0  0  0  0  0  0  0  0  0  0  0
   -6.1439   24.3277  -22.7284 C   0  0  0  0  0  0  0  0  0  0  0  0
   -5.4838   24.5059  -21.5286 C   0  0  0  0  0  0  0  0  0  0  0  0
   -5.8154   23.8483  -20.3676 C   0  0  0  0  0  0  0  0  0  0  0  0
   -6.8712   22.9512  -20.3873 C   0  0  0  0  0  0  0  0  0  0  0  0
   -7.5618   22.7385  -21.5616 C   0  0  0  0  0  0  0  0  0  0  0  0
   -7.1949   23.4208  -22.7058 C   0  0  0  0  0  0  0  0  0  0  0  0
   -7.2250   22.2604  -19.1756 C   0  0  0  0  0  0  0  0  0  0  0  0
   -7.5157   21.6782  -18.1942 N   0  0  0  0  0  0  0  0  0  0  0  0
   -3.2028   23.7425  -28.1623 C   0  0  0  0  0  0  0  0  0  0  0  0
   -3.1872   22.6520  -28.8259 O   0  0  0  0  0  0  0  0  0  0  0  0
   -2.2413   23.9172  -27.1465 N   0  0  0  0  0  0  0  0  0  0  0  0
   -2.2400   24.8021  -26.6057 H   0  0  0  0  0  0  0  0  0  0  0  0
   -1.2413   22.8830  -26.8397 C   0  0  0  0  0  0  0  0  0  0  0  0
   -0.2537   22.7876  -27.9245 C   0  0  0  0  0  0  0  0  0  0  0  0
   -0.3339   23.4950  -29.1508 N   0  0  0  0  0  0  0  0  0  0  0  0
    0.7731   22.0159  -27.7968 O   0  0  0  0  0  0  0  0  0  0  0  0
    0.5188   23.9610  -29.5428 H   0  0  0  0  0  0  0  0  0  0  0  0
   -1.2133   23.5831  -29.7027 H   0  0  0  0  0  0  0  0  0  0  0  0
   -1.9967   21.6490  -26.5096 C   0  0  0  0  0  0  0  0  0  0  0  0
   -2.5973   21.5977  -25.1584 C   0  0  0  0  0  0  0  0  0  0  0  0
   -3.9381   21.3027  -24.9958 C   0  0  0  0  0  0  0  0  0  0  0  0
   -4.5205   21.2446  -23.7592 C   0  0  0  0  0  0  0  0  0  0  0  0
   -3.7436   21.4878  -22.6514 C   0  0  0  0  0  0  0  0  0  0  0  0
   -2.4005   21.7851  -22.7842 C   0  0  0  0  0  0  0  0  0  0  0  0
   -1.8266   21.8407  -24.0278 C   0  0  0  0  0  0  0  0  0  0  0  0
   -3.8216   25.4045  -29.8073 C   0  0  0  0  0  0  0  0  0  0  0  0
   -5.6199   26.6861  -30.9857 C   0  0  0  0  0  0  0  0  0  0  0  0
   -4.8346   25.3933  -30.8903 C   0  0  0  0  0  0  0  0  0  0  0  0
   -5.7905   24.2321  -30.7237 C   0  0  0  0  0  0  0  0  0  0  0  0
 38 39  1  0  0  0
 39 40  1  0  0  0
 39 37  1  0  0  0
 37  1  1  0  0  0
  1  2  1  0  0  0
  2  3  1  0  0  0
  3  4  2  0  0  0
  3  6  1  0  0  0
  6  7  1  0  0  0
  6  8  1  0  0  0
  8  9  1  0  0  0
  9 10  2  0  0  0
  9 12  1  0  0  0
 12 13  2  0  0  0
 13 14  1  0  0  0
 14 15  2  0  0  0
 15 16  1  0  0  0
 16 17  2  0  0  0
 15 18  1  0  0  0
 18 19  3  0  0  0
  1 20  1  0  0  0
 20 21  2  0  0  0
 20 22  1  0  0  0
 22 24  1  0  0  0
 24 30  1  0  0  0
 30 31  1  0  0  0
 31 32  2  0  0  0
 32 33  1  0  0  0
 33 34  2  0  0  0
 34 35  1  0  0  0
 35 36  2  0  0  0
 24 25  1  0  0  0
 25 26  1  0  0  0
 25 27  2  0  0  0
 17 12  1  0  0  0
 36 31  1  0  0  0
  2  5  1  0  0  0
  8 11  1  0  0  0
 22 23  1  0  0  0
 26 28  1  0  0  0
 26 29  1  0  0  0
M  END
> <minimizedAffinity>
-8.23253

> <CNNscore>
0.6849971414

> <CNNaffinity>
7.2548637390

> <CNN_VS>
4.9695611000

> <CNNaffinity_variance>
0.0881569013

$$$$
[H]c1c([H])c([H])c(C([H])([H])[C@@]([H])(C(=O)N([H])[H])N([H])C(=O)[C@@]([H])(N([H])C(=O)[C@@]([H])(N([H])C(=O)c2c([H])c([H])c(C#N)c([H])c2[H])C([H])([H])[H])C([H])([H])C([H])(C([H])([H])[H])C([H])([H])[H])c([H])c1[H]


 40 41  0  0  0  0  0  0  0  0999 V2000
   -2.6966   21.7477  -20.6675 C   0  0  0  0  0  0  0  0  0  0  0  0
   -2.0974   21.3820  -21.9075 N   0  0  0  0  0  0  0  0  0  0  0  0
   -1.4364   22.1883  -22.8347 C   0  0  0  0  0  0  0  0  0  0  0  0
   -1.3041   23.4172  -22.6633 O   0  0  0  0  0  0  0  0  0  0  0  0
   -2.1521   20.3390  -22.1886 H   0  0  0  0  0  0  0  0  0  0  0  0
   -0.8377   21.6359  -24.1039 C   0  0  0  0  0  0  0  0  0  0  0  0
    0.6513   21.8519  -24.0086 C   0  0  0  0  0  0  0  0  0  0  0  0
   -1.4022   22.2705  -25.2689 N   0  0  0  0  0  0  0  0  0  0  0  0
   -2.7415   22.1340  -25.6650 C   0  0  0  0  0  0  0  0  0  0  0  0
   -3.4811   21.4048  -24.9429 O   0  0  0  0  0  0  0  0  0  0  0  0
   -0.7623   22.8585  -25.8313 H   0  0  0  0  0  0  0  0  0  0  0  0
   -3.3476   22.7553  -26.8257 C   0  0  0  0  0  0  0  0  0  0  0  0
   -4.7079   22.9764  -26.9140 C   0  0  0  0  0  0  0  0  0  0  0  0
   -5.3191   23.5641  -27.9964 C   0  0  0  0  0  0  0  0  0  0  0  0
   -4.5375   23.9629  -29.0687 C   0  0  0  0  0  0  0  0  0  0  0  0
   -3.1737   23.7635  -29.0281 C   0  0  0  0  0  0  0  0  0  0  0  0
   -2.6004   23.1689  -27.9204 C   0  0  0  0  0  0  0  0  0  0  0  0
   -5.1699   24.5800  -30.2043 C   0  0  0  0  0  0  0  0  0  0  0  0
   -5.7009   25.0707  -31.1338 N   0  0  0  0  0  0  0  0  0  0  0  0
   -4.0023   22.4009  -20.7886 C   0  0  0  0  0  0  0  0  0  0  0  0
   -4.2802   23.3067  -19.9331 O   0  0  0  0  0  0  0  0  0  0  0  0
   -4.9627   22.1006  -21.7757 N   0  0  0  0  0  0  0  0  0  0  0  0
   -4.7449   21.3714  -22.4803 H   0  0  0  0  0  0  0  0  0  0  0  0
   -6.2575   22.7961  -21.8342 C   0  0  0  0  0  0  0  0  0  0  0  0
   -7.2553   22.0906  -21.0170 C   0  0  0  0  0  0  0  0  0  0  0  0
   -7.4251   22.2704  -19.6207 N   0  0  0  0  0  0  0  0  0  0  0  0
   -8.0521   21.2363  -21.5660 O   0  0  0  0  0  0  0  0  0  0  0  0
   -8.3881   22.3648  -19.2186 H   0  0  0  0  0  0  0  0  0  0  0  0
   -6.6291   22.3160  -18.9500 H   0  0  0  0  0  0  0  0  0  0  0  0
   -6.5753   22.9778  -23.2724 C   0  0  0  0  0  0  0  0  0  0  0  0
   -6.0460   24.2067  -23.9037 C   0  0  0  0  0  0  0  0  0  0  0  0
   -4.7379   24.5995  -23.6899 C   0  0  0  0  0  0  0  0  0  0  0  0
   -4.2194   25.7286  -24.2627 C   0  0  0  0  0  0  0  0  0  0  0  0
   -5.0288   26.4892  -25.0729 C   0  0  0  0  0  0  0  0  0  0  0  0
   -6.3405   26.1206  -25.3043 C   0  0  0  0  0  0  0  0  0  0  0  0
   -6.8501   24.9873  -24.7255 C   0  0  0  0  0  0  0  0  0  0  0  0
   -1.8262   22.5716  -19.7462 C   0  0  0  0  0  0  0  0  0  0  0  0
   -2.1845   21.8921  -17.3640 C   0  0  0  0  0  0  0  0  0  0  0  0
   -1.2707   21.8552  -18.5726 C   0  0  0  0  0  0  0  0  0  0  0  0
    0.0876   22.4064  -18.1966 C   0  0  0  0  0  0  0  0  0  0  0  0
 38 39  1  0  0  0
 39 40  1  0  0  0
 39 37  1  0  0  0
 37  1  1  0  0  0
  1  2  1  0  0  0
  2  3  1  0  0  0
  3  4  2  0  0  0
  3  6  1  0  0  0
  6  7  1  0  0  0
  6  8  1  0  0  0
  8  9  1  0  0  0
  9 10  2  0  0  0
  9 12  1  0  0  0
 12 13  2  0  0  0
 13 14  1  0  0  0
 14 15  2  0  0  0
 15 16  1  0  0  0
 16 17  2  0  0  0
 15 18  1  0  0  0
 18 19  3  0  0  0
  1 20  1  0  0  0
 20 21  2  0  0  0
 20 22  1  0  0  0
 22 24  1  0  0  0
 24 30  1  0  0  0
 30 31  1  0  0  0
 31 32  2  0  0  0
 32 33  1  0  0  0
 33 34  2  0  0  0
 34 35  1  0  0  0
 35 36  2  0  0  0
 24 25  1  0  0  0
 25 26  1  0  0  0
 25 27  2  0  0  0
 17 12  1  0  0  0
 36 31  1  0  0  0
  2  5  1  0  0  0
  8 11  1  0  0  0
 22 23  1  0  0  0
 26 28  1  0  0  0
 26 29  1  0  0  0
M  END
> <minimizedAffinity>
-7.90534

> <CNNscore>
0.3324765265

> <CNNaffinity>
6.6005315781

> <CNN_VS>
2.1945219040

> <CNNaffinity_variance>
0.1450772583

$$$$
[H]c1c([H])c([H])c(C([H])([H])[C@@]([H])(C(=O)N([H])[H])N([H])C(=O)[C@@]([H])(N([H])C(=O)[C@@]([H])(N([H])C(=O)c2c([H])c([H])c(C#N)c([H])c2[H])C([H])([H])[H])C([H])([H])C([H])(C([H])([H])[H])C([H])([H])[H])c([H])c1[H]


 40 41  0  0  0  0  0  0  0  0999 V2000
   -4.6179   23.2326  -22.9817 C   0  0  0  0  0  0  0  0  0  0  0  0
   -3.6077   22.6323  -22.1759 N   0  0  0  0  0  0  0  0  0  0  0  0
   -2.3187   23.0893  -21.8991 C   0  0  0  0  0  0  0  0  0  0  0  0
   -1.8791   24.1530  -22.3811 O   0  0  0  0  0  0  0  0  0  0  0  0
   -3.8532   21.6902  -21.7047 H   0  0  0  0  0  0  0  0  0  0  0  0
   -1.3693   22.3348  -21.0026 C   0  0  0  0  0  0  0  0  0  0  0  0
   -0.6125   21.3751  -21.8853 C   0  0  0  0  0  0  0  0  0  0  0  0
   -2.0757   21.6543  -19.9459 N   0  0  0  0  0  0  0  0  0  0  0  0
   -2.3014   22.2022  -18.6738 C   0  0  0  0  0  0  0  0  0  0  0  0
   -1.8485   23.3641  -18.4618 O   0  0  0  0  0  0  0  0  0  0  0  0
   -2.4297   20.7060  -20.1619 H   0  0  0  0  0  0  0  0  0  0  0  0
   -3.0070   21.5534  -17.5867 C   0  0  0  0  0  0  0  0  0  0  0  0
   -2.8994   21.9859  -16.2796 C   0  0  0  0  0  0  0  0  0  0  0  0
   -3.5538   21.3985  -15.2227 C   0  0  0  0  0  0  0  0  0  0  0  0
   -4.3724   20.3078  -15.4680 C   0  0  0  0  0  0  0  0  0  0  0  0
   -4.5125   19.8382  -16.7568 C   0  0  0  0  0  0  0  0  0  0  0  0
   -3.8363   20.4586  -17.7898 C   0  0  0  0  0  0  0  0  0  0  0  0
   -5.0617   19.6888  -14.3670 C   0  0  0  0  0  0  0  0  0  0  0  0
   -5.6427   19.1897  -13.4726 N   0  0  0  0  0  0  0  0  0  0  0  0
   -4.4185   23.0818  -24.4252 C   0  0  0  0  0  0  0  0  0  0  0  0
   -5.2899   22.4021  -25.0640 O   0  0  0  0  0  0  0  0  0  0  0  0
   -3.3411   23.6310  -25.1494 N   0  0  0  0  0  0  0  0  0  0  0  0
   -2.6309   24.1912  -24.6420 H   0  0  0  0  0  0  0  0  0  0  0  0
   -3.2028   23.4351  -26.6007 C   0  0  0  0  0  0  0  0  0  0  0  0
   -1.8501   22.9604  -26.9267 C   0  0  0  0  0  0  0  0  0  0  0  0
   -0.9084   22.4958  -25.9738 N   0  0  0  0  0  0  0  0  0  0  0  0
   -1.4474   22.9509  -28.1530 O   0  0  0  0  0  0  0  0  0  0  0  0
   -0.3555   21.6266  -26.1654 H   0  0  0  0  0  0  0  0  0  0  0  0
   -0.7265   22.9786  -25.0686 H   0  0  0  0  0  0  0  0  0  0  0  0
   -3.6431   24.6989  -27.2419 C   0  0  0  0  0  0  0  0  0  0  0  0
   -4.3515   24.5588  -28.5333 C   0  0  0  0  0  0  0  0  0  0  0  0
   -4.3489   25.5917  -29.4522 C   0  0  0  0  0  0  0  0  0  0  0  0
   -4.9917   25.4901  -30.6556 C   0  0  0  0  0  0  0  0  0  0  0  0
   -5.6572   24.3243  -30.9522 C   0  0  0  0  0  0  0  0  0  0  0  0
   -5.6765   23.2754  -30.0526 C   0  0  0  0  0  0  0  0  0  0  0  0
   -5.0291   23.3875  -28.8495 C   0  0  0  0  0  0  0  0  0  0  0  0
   -4.9067   24.6857  -22.6816 C   0  0  0  0  0  0  0  0  0  0  0  0
   -6.0803   24.5668  -20.4740 C   0  0  0  0  0  0  0  0  0  0  0  0
   -6.1611   24.9535  -21.9372 C   0  0  0  0  0  0  0  0  0  0  0  0
   -7.3334   24.2473  -22.5829 C   0  0  0  0  0  0  0  0  0  0  0  0
 38 39  1  0  0  0
 39 40  1  0  0  0
 39 37  1  0  0  0
 37  1  1  0  0  0
  1  2  1  0  0  0
  2  3  1  0  0  0
  3  4  2  0  0  0
  3  6  1  0  0  0
  6  7  1  0  0  0
  6  8  1  0  0  0
  8  9  1  0  0  0
  9 10  2  0  0  0
  9 12  1  0  0  0
 12 13  2  0  0  0
 13 14  1  0  0  0
 14 15  2  0  0  0
 15 16  1  0  0  0
 16 17  2  0  0  0
 15 18  1  0  0  0
 18 19  3  0  0  0
  1 20  1  0  0  0
 20 21  2  0  0  0
 20 22  1  0  0  0
 22 24  1  0  0  0
 24 30  1  0  0  0
 30 31  1  0  0  0
 31 32  2  0  0  0
 32 33  1  0  0  0
 33 34  2  0  0  0
 34 35  1  0  0  0
 35 36  2  0  0  0
 24 25  1  0  0  0
 25 26  1  0  0  0
 25 27  2  0  0  0
 17 12  1  0  0  0
 36 31  1  0  0  0
  2  5  1  0  0  0
  8 11  1  0  0  0
 22 23  1  0  0  0
 26 28  1  0  0  0
 26 29  1  0  0  0
M  END
> <minimizedAffinity>
-6.78178

> <CNNscore>
0.2342867553

> <CNNaffinity>
6.1432189941

> <CNN_VS>
1.4392747879

> <CNNaffinity_variance>
0.4175888896

$$$$
[H]c1c([H])c([H])c(C([H])([H])[C@@]([H])(C(=O)N([H])[H])N([H])C(=O)[C@@]([H])(N([H])C(=O)[C@@]([H])(N([H])C(=O)c2c([H])c([H])c(C#N)c([H])c2[H])C([H])([H])[H])C([H])([H])C([H])(C([H])([H])[H])C([H])([H])[H])c([H])c1[H]


 40 41  0  0  0  0  0  0  0  0999 V2000
   -3.9226   21.8985  -22.6175 C   0  0  0  0  0  0  0  0  0  0  0  0
   -2.7452   21.5084  -21.9162 N   0  0  0  0  0  0  0  0  0  0  0  0
   -1.5289   22.1820  -21.7998 C   0  0  0  0  0  0  0  0  0  0  0  0
   -1.3283   23.2806  -22.3565 O   0  0  0  0  0  0  0  0  0  0  0  0
   -2.7772   20.5609  -21.3954 H   0  0  0  0  0  0  0  0  0  0  0  0
   -0.3755   21.6340  -20.9975 C   0  0  0  0  0  0  0  0  0  0  0  0
   -0.0150   20.3052  -21.6116 C   0  0  0  0  0  0  0  0  0  0  0  0
   -0.7200   21.5089  -19.6030 N   0  0  0  0  0  0  0  0  0  0  0  0
    0.1599   21.7983  -18.5487 C   0  0  0  0  0  0  0  0  0  0  0  0
    1.3209   22.1903  -18.8626 O   0  0  0  0  0  0  0  0  0  0  0  0
   -1.6800   21.1855  -19.3908 H   0  0  0  0  0  0  0  0  0  0  0  0
   -0.1472   21.6878  -17.1366 C   0  0  0  0  0  0  0  0  0  0  0  0
    0.8183   21.8399  -16.1611 C   0  0  0  0  0  0  0  0  0  0  0  0
    0.5659   21.7443  -14.8129 C   0  0  0  0  0  0  0  0  0  0  0  0
   -0.7280   21.4803  -14.3936 C   0  0  0  0  0  0  0  0  0  0  0  0
   -1.7276   21.3201  -15.3298 C   0  0  0  0  0  0  0  0  0  0  0  0
   -1.4298   21.4243  -16.6751 C   0  0  0  0  0  0  0  0  0  0  0  0
   -1.0001   21.3803  -12.9841 C   0  0  0  0  0  0  0  0  0  0  0  0
   -1.2091   21.2845  -11.8293 N   0  0  0  0  0  0  0  0  0  0  0  0
   -3.7720   21.9697  -24.0730 C   0  0  0  0  0  0  0  0  0  0  0  0
   -4.1358   20.9473  -24.7452 O   0  0  0  0  0  0  0  0  0  0  0  0
   -3.2584   23.0792  -24.7746 N   0  0  0  0  0  0  0  0  0  0  0  0
   -2.9663   23.9181  -24.2393 H   0  0  0  0  0  0  0  0  0  0  0  0
   -3.1322   23.0787  -26.2400 C   0  0  0  0  0  0  0  0  0  0  0  0
   -1.7396   22.8201  -26.6341 C   0  0  0  0  0  0  0  0  0  0  0  0
   -1.2432   22.9327  -27.9576 N   0  0  0  0  0  0  0  0  0  0  0  0
   -0.8739   22.4600  -25.7470 O   0  0  0  0  0  0  0  0  0  0  0  0
   -0.3265   23.4086  -28.1338 H   0  0  0  0  0  0  0  0  0  0  0  0
   -1.7476   22.5611  -28.7901 H   0  0  0  0  0  0  0  0  0  0  0  0
   -3.7403   24.3455  -26.7173 C   0  0  0  0  0  0  0  0  0  0  0  0
   -4.3567   24.3034  -28.0616 C   0  0  0  0  0  0  0  0  0  0  0  0
   -4.3616   25.4261  -28.8683 C   0  0  0  0  0  0  0  0  0  0  0  0
   -4.9207   25.4165  -30.1169 C   0  0  0  0  0  0  0  0  0  0  0  0
   -5.4921   24.2532  -30.5755 C   0  0  0  0  0  0  0  0  0  0  0  0
   -5.5016   23.1157  -29.7907 C   0  0  0  0  0  0  0  0  0  0  0  0
   -4.9386   23.1360  -28.5410 C   0  0  0  0  0  0  0  0  0  0  0  0
   -4.5704   23.1760  -22.1342 C   0  0  0  0  0  0  0  0  0  0  0  0
   -5.3325   22.7043  -19.7973 C   0  0  0  0  0  0  0  0  0  0  0  0
   -5.7317   23.0072  -21.2277 C   0  0  0  0  0  0  0  0  0  0  0  0
   -6.6592   21.9240  -21.7340 C   0  0  0  0  0  0  0  0  0  0  0  0
 38 39  1  0  0  0
 39 40  1  0  0  0
 39 37  1  0  0  0
 37  1  1  0  0  0
  1  2  1  0  0  0
  2  3  1  0  0  0
  3  4  2  0  0  0
  3  6  1  0  0  0
  6  7  1  0  0  0
  6  8  1  0  0  0
  8  9  1  0  0  0
  9 10  2  0  0  0
  9 12  1  0  0  0
 12 13  2  0  0  0
 13 14  1  0  0  0
 14 15  2  0  0  0
 15 16  1  0  0  0
 16 17  2  0  0  0
 15 18  1  0  0  0
 18 19  3  0  0  0
  1 20  1  0  0  0
 20 21  2  0  0  0
 20 22  1  0  0  0
 22 24  1  0  0  0
 24 30  1  0  0  0
 30 31  1  0  0  0
 31 32  2  0  0  0
 32 33  1  0  0  0
 33 34  2  0  0  0
 34 35  1  0  0  0
 35 36  2  0  0  0
 24 25  1  0  0  0
 25 26  1  0  0  0
 25 27  2  0  0  0
 17 12  1  0  0  0
 36 31  1  0  0  0
  2  5  1  0  0  0
  8 11  1  0  0  0
 22 23  1  0  0  0
 26 28  1  0  0  0
 26 29  1  0  0  0
M  END
> <minimizedAffinity>
-6.71786

> <CNNscore>
0.2342278510

> <CNNaffinity>
6.1166749001

> <CNN_VS>
1.4326956272

> <CNNaffinity_variance>
0.1955354214

$$$$
[H]c1c([H])c([H])c(C([H])([H])[C@@]([H])(C(=O)N([H])[H])N([H])C(=O)[C@@]([H])(N([H])C(=O)[C@@]([H])(N([H])C(=O)c2c([H])c([H])c(C#N)c([H])c2[H])C([H])([H])[H])C([H])([H])C([H])(C([H])([H])[H])C([H])([H])[H])c([H])c1[H]


 40 41  0  0  0  0  0  0  0  0999 V2000
   -5.3669   24.3272  -26.5122 C   0  0  0  0  0  0  0  0  0  0  0  0
   -6.2987   24.5240  -25.4523 N   0  0  0  0  0  0  0  0  0  0  0  0
   -6.6613   23.6483  -24.4283 C   0  0  0  0  0  0  0  0  0  0  0  0
   -6.1749   22.5028  -24.3379 O   0  0  0  0  0  0  0  0  0  0  0  0
   -6.8076   25.4779  -25.4189 H   0  0  0  0  0  0  0  0  0  0  0  0
   -7.6618   24.0211  -23.3631 C   0  0  0  0  0  0  0  0  0  0  0  0
   -8.2439   25.3526  -23.7644 C   0  0  0  0  0  0  0  0  0  0  0  0
   -7.0458   24.0713  -22.0605 N   0  0  0  0  0  0  0  0  0  0  0  0
   -7.2272   23.0950  -21.0689 C   0  0  0  0  0  0  0  0  0  0  0  0
   -7.9813   22.1206  -21.3554 O   0  0  0  0  0  0  0  0  0  0  0  0
   -6.4363   24.8854  -21.8680 H   0  0  0  0  0  0  0  0  0  0  0  0
   -6.6259   23.1071  -19.7502 C   0  0  0  0  0  0  0  0  0  0  0  0
   -6.2312   21.9476  -19.1125 C   0  0  0  0  0  0  0  0  0  0  0  0
   -5.6561   21.9186  -17.8639 C   0  0  0  0  0  0  0  0  0  0  0  0
   -5.4547   23.1148  -17.1943 C   0  0  0  0  0  0  0  0  0  0  0  0
   -5.8323   24.2999  -17.7894 C   0  0  0  0  0  0  0  0  0  0  0  0
   -6.4071   24.2834  -19.0459 C   0  0  0  0  0  0  0  0  0  0  0  0
   -4.8520   23.0924  -15.8879 C   0  0  0  0  0  0  0  0  0  0  0  0
   -4.3544   23.0552  -14.8213 N   0  0  0  0  0  0  0  0  0  0  0  0
   -3.9791   24.1443  -26.0800 C   0  0  0  0  0  0  0  0  0  0  0  0
   -3.4783   25.0522  -25.3354 O   0  0  0  0  0  0  0  0  0  0  0  0
   -3.1677   23.0450  -26.4265 N   0  0  0  0  0  0  0  0  0  0  0  0
   -3.5664   22.2979  -27.0252 H   0  0  0  0  0  0  0  0  0  0  0  0
   -1.7782   22.9292  -25.9579 C   0  0  0  0  0  0  0  0  0  0  0  0
   -0.8610   22.8066  -27.1002 C   0  0  0  0  0  0  0  0  0  0  0  0
    0.5140   22.4757  -26.9968 N   0  0  0  0  0  0  0  0  0  0  0  0
   -1.2931   23.0083  -28.2997 O   0  0  0  0  0  0  0  0  0  0  0  0
    0.9349   21.7769  -27.6544 H   0  0  0  0  0  0  0  0  0  0  0  0
    1.1506   22.8962  -26.2873 H   0  0  0  0  0  0  0  0  0  0  0  0
   -1.7585   21.8304  -24.9606 C   0  0  0  0  0  0  0  0  0  0  0  0
   -2.2102   22.1837  -23.5967 C   0  0  0  0  0  0  0  0  0  0  0  0
   -3.2390   21.4843  -22.9937 C   0  0  0  0  0  0  0  0  0  0  0  0
   -3.6759   21.7856  -21.7327 C   0  0  0  0  0  0  0  0  0  0  0  0
   -3.0695   22.8148  -21.0522 C   0  0  0  0  0  0  0  0  0  0  0  0
   -2.0388   23.5311  -21.6305 C   0  0  0  0  0  0  0  0  0  0  0  0
   -1.6085   23.2211  -22.8945 C   0  0  0  0  0  0  0  0  0  0  0  0
   -5.4005   25.3706  -27.6055 C   0  0  0  0  0  0  0  0  0  0  0  0
   -5.5866   23.3655  -29.0921 C   0  0  0  0  0  0  0  0  0  0  0  0
   -5.3166   24.8536  -28.9929 C   0  0  0  0  0  0  0  0  0  0  0  0
   -3.9679   25.1647  -29.6046 C   0  0  0  0  0  0  0  0  0  0  0  0
 38 39  1  0  0  0
 39 40  1  0  0  0
 39 37  1  0  0  0
 37  1  1  0  0  0
  1  2  1  0  0  0
  2  3  1  0  0  0
  3  4  2  0  0  0
  3  6  1  0  0  0
  6  7  1  0  0  0
  6  8  1  0  0  0
  8  9  1  0  0  0
  9 10  2  0  0  0
  9 12  1  0  0  0
 12 13  2  0  0  0
 13 14  1  0  0  0
 14 15  2  0  0  0
 15 16  1  0  0  0
 16 17  2  0  0  0
 15 18  1  0  0  0
 18 19  3  0  0  0
  1 20  1  0  0  0
 20 21  2  0  0  0
 20 22  1  0  0  0
 22 24  1  0  0  0
 24 30  1  0  0  0
 30 31  1  0  0  0
 31 32  2  0  0  0
 32 33  1  0  0  0
 33 34  2  0  0  0
 34 35  1  0  0  0
 35 36  2  0  0  0
 24 25  1  0  0  0
 25 26  1  0  0  0
 25 27  2  0  0  0
 17 12  1  0  0  0
 36 31  1  0  0  0
  2  5  1  0  0  0
  8 11  1  0  0  0
 22 23  1  0  0  0
 26 28  1  0  0  0
 26 29  1  0  0  0
M  END
> <minimizedAffinity>
-6.87488

> <CNNscore>
0.2149374634

> <CNNaffinity>
6.4404907227

> <CNN_VS>
1.3843027353

> <CNNaffinity_variance>
0.0993765146

$$$$
[H]c1c([H])c([H])c(C([H])([H])[C@@]([H])(C(=O)N([H])[H])N([H])C(=O)[C@@]([H])(N([H])C(=O)[C@@]([H])(N([H])C(=O)c2c([H])c([H])c(C#N)c([H])c2[H])C([H])([H])[H])C([H])([H])C([H])(C([H])([H])[H])C([H])([H])[H])c([H])c1[H]


 40 41  0  0  0  0  0  0  0  0999 V2000
   -2.5431   22.5967  -23.6440 C   0  0  0  0  0  0  0  0  0  0  0  0
   -2.0985   22.0645  -22.3993 N   0  0  0  0  0  0  0  0  0  0  0  0
   -1.7336   22.7417  -21.2352 C   0  0  0  0  0  0  0  0  0  0  0  0
   -1.7483   23.9875  -21.1655 O   0  0  0  0  0  0  0  0  0  0  0  0
   -2.0257   20.9879  -22.3254 H   0  0  0  0  0  0  0  0  0  0  0  0
   -1.2976   22.0209  -19.9843 C   0  0  0  0  0  0  0  0  0  0  0  0
   -2.4708   22.0498  -19.0380 C   0  0  0  0  0  0  0  0  0  0  0  0
   -0.1248   22.6316  -19.4096 N   0  0  0  0  0  0  0  0  0  0  0  0
    0.9573   21.9097  -18.8829 C   0  0  0  0  0  0  0  0  0  0  0  0
    0.8785   20.6479  -18.9238 O   0  0  0  0  0  0  0  0  0  0  0  0
   -0.1012   23.6663  -19.3965 H   0  0  0  0  0  0  0  0  0  0  0  0
    2.1531   22.4842  -18.2992 C   0  0  0  0  0  0  0  0  0  0  0  0
    2.3404   23.8490  -18.2028 C   0  0  0  0  0  0  0  0  0  0  0  0
    3.4588   24.4313  -17.6546 C   0  0  0  0  0  0  0  0  0  0  0  0
    4.4652   23.6136  -17.1663 C   0  0  0  0  0  0  0  0  0  0  0  0
    4.3251   22.2439  -17.2399 C   0  0  0  0  0  0  0  0  0  0  0  0
    3.1842   21.7005  -17.7991 C   0  0  0  0  0  0  0  0  0  0  0  0
    5.6380   24.2158  -16.5898 C   0  0  0  0  0  0  0  0  0  0  0  0
    6.5917   24.7030  -16.1002 N   0  0  0  0  0  0  0  0  0  0  0  0
   -3.9827   22.8578  -23.7180 C   0  0  0  0  0  0  0  0  0  0  0  0
   -4.7630   21.9211  -23.3395 O   0  0  0  0  0  0  0  0  0  0  0  0
   -4.5590   24.0608  -24.1735 N   0  0  0  0  0  0  0  0  0  0  0  0
   -3.9345   24.8314  -24.4768 H   0  0  0  0  0  0  0  0  0  0  0  0
   -6.0166   24.2516  -24.2240 C   0  0  0  0  0  0  0  0  0  0  0  0
   -6.4481   24.5398  -25.5995 C   0  0  0  0  0  0  0  0  0  0  0  0
   -7.7066   25.0915  -25.9496 N   0  0  0  0  0  0  0  0  0  0  0  0
   -5.6601   24.2862  -26.5898 O   0  0  0  0  0  0  0  0  0  0  0  0
   -7.7617   25.8593  -26.6605 H   0  0  0  0  0  0  0  0  0  0  0  0
   -8.6061   24.7721  -25.5321 H   0  0  0  0  0  0  0  0  0  0  0  0
   -6.3466   25.2648  -23.1911 C   0  0  0  0  0  0  0  0  0  0  0  0
   -6.8596   24.7389  -21.9068 C   0  0  0  0  0  0  0  0  0  0  0  0
   -7.5776   23.5582  -21.8672 C   0  0  0  0  0  0  0  0  0  0  0  0
   -8.0614   23.0456  -20.6946 C   0  0  0  0  0  0  0  0  0  0  0  0
   -7.8227   23.7301  -19.5265 C   0  0  0  0  0  0  0  0  0  0  0  0
   -7.1079   24.9128  -19.5364 C   0  0  0  0  0  0  0  0  0  0  0  0
   -6.6274   25.4179  -20.7167 C   0  0  0  0  0  0  0  0  0  0  0  0
   -2.1293   21.8122  -24.8682 C   0  0  0  0  0  0  0  0  0  0  0  0
   -1.9920   22.4325  -27.2891 C   0  0  0  0  0  0  0  0  0  0  0  0
   -1.3926   22.5754  -25.9045 C   0  0  0  0  0  0  0  0  0  0  0  0
    0.0649   22.1697  -25.9400 C   0  0  0  0  0  0  0  0  0  0  0  0
 38 39  1  0  0  0
 39 40  1  0  0  0
 39 37  1  0  0  0
 37  1  1  0  0  0
  1  2  1  0  0  0
  2  3  1  0  0  0
  3  4  2  0  0  0
  3  6  1  0  0  0
  6  7  1  0  0  0
  6  8  1  0  0  0
  8  9  1  0  0  0
  9 10  2  0  0  0
  9 12  1  0  0  0
 12 13  2  0  0  0
 13 14  1  0  0  0
 14 15  2  0  0  0
 15 16  1  0  0  0
 16 17  2  0  0  0
 15 18  1  0  0  0
 18 19  3  0  0  0
  1 20  1  0  0  0
 20 21  2  0  0  0
 20 22  1  0  0  0
 22 24  1  0  0  0
 24 30  1  0  0  0
 30 31  1  0  0  0
 31 32  2  0  0  0
 32 33  1  0  0  0
 33 34  2  0  0  0
 34 35  1  0  0  0
 35 36  2  0  0  0
 24 25  1  0  0  0
 25 26  1  0  0  0
 25 27  2  0  0  0
 17 12  1  0  0  0
 36 31  1  0  0  0
  2  5  1  0  0  0
  8 11  1  0  0  0
 22 23  1  0  0  0
 26 28  1  0  0  0
 26 29  1  0  0  0
M  END
> <minimizedAffinity>
-6.93271

> <CNNscore>
0.2110523432

> <CNNaffinity>
5.7989983559

> <CNN_VS>
1.2238922119

> <CNNaffinity_variance>
0.2692100108

$$$$
[H]c1c([H])c([H])c(C([H])([H])[C@@]([H])(C(=O)N([H])[H])N([H])C(=O)[C@@]([H])(N([H])C(=O)[C@@]([H])(N([H])C(=O)c2c([H])c([H])c(C#N)c([H])c2[H])C([H])([H])[H])C([H])([H])C([H])(C([H])([H])[H])C([H])([H])[H])c([H])c1[H]


 40 41  0  0  0  0  0  0  0  0999 V2000
   -6.1593   22.9487  -24.2330 C   0  0  0  0  0  0  0  0  0  0  0  0
   -6.6576   23.7143  -23.1394 N   0  0  0  0  0  0  0  0  0  0  0  0
   -7.3483   23.2812  -22.0071 C   0  0  0  0  0  0  0  0  0  0  0  0
   -7.6352   22.0799  -21.8297 O   0  0  0  0  0  0  0  0  0  0  0  0
   -6.4883   24.7821  -23.1723 H   0  0  0  0  0  0  0  0  0  0  0  0
   -7.7954   24.2285  -20.9221 C   0  0  0  0  0  0  0  0  0  0  0  0
   -7.7354   25.6161  -21.5086 C   0  0  0  0  0  0  0  0  0  0  0  0
   -6.9718   24.1034  -19.7453 N   0  0  0  0  0  0  0  0  0  0  0  0
   -7.3924   23.4901  -18.5552 C   0  0  0  0  0  0  0  0  0  0  0  0
   -8.5691   23.0265  -18.5344 O   0  0  0  0  0  0  0  0  0  0  0  0
   -6.0160   24.4960  -19.8056 H   0  0  0  0  0  0  0  0  0  0  0  0
   -6.5965   23.3424  -17.3529 C   0  0  0  0  0  0  0  0  0  0  0  0
   -7.0122   22.5682  -16.2877 C   0  0  0  0  0  0  0  0  0  0  0  0
   -6.2852   22.4021  -15.1325 C   0  0  0  0  0  0  0  0  0  0  0  0
   -5.0623   23.0430  -15.0161 C   0  0  0  0  0  0  0  0  0  0  0  0
   -4.6036   23.8277  -16.0529 C   0  0  0  0  0  0  0  0  0  0  0  0
   -5.3667   23.9673  -17.1964 C   0  0  0  0  0  0  0  0  0  0  0  0
   -4.2951   22.8726  -13.8107 C   0  0  0  0  0  0  0  0  0  0  0  0
   -3.6830   22.7385  -12.8137 N   0  0  0  0  0  0  0  0  0  0  0  0
   -4.9067   22.2390  -23.9619 C   0  0  0  0  0  0  0  0  0  0  0  0
   -4.8095   21.0441  -24.4005 O   0  0  0  0  0  0  0  0  0  0  0  0
   -3.8124   22.7804  -23.2575 N   0  0  0  0  0  0  0  0  0  0  0  0
   -3.8774   23.7528  -22.9027 H   0  0  0  0  0  0  0  0  0  0  0  0
   -2.5846   22.0063  -23.0190 C   0  0  0  0  0  0  0  0  0  0  0  0
   -2.5123   21.5808  -21.6136 C   0  0  0  0  0  0  0  0  0  0  0  0
   -3.6288   21.1869  -20.8332 N   0  0  0  0  0  0  0  0  0  0  0  0
   -1.3740   21.5510  -21.0059 O   0  0  0  0  0  0  0  0  0  0  0  0
   -3.5673   20.3370  -20.2235 H   0  0  0  0  0  0  0  0  0  0  0  0
   -4.5329   21.7048  -20.8279 H   0  0  0  0  0  0  0  0  0  0  0  0
   -1.4600   22.8290  -23.5297 C   0  0  0  0  0  0  0  0  0  0  0  0
   -1.0898   22.6144  -24.9460 C   0  0  0  0  0  0  0  0  0  0  0  0
    0.2332   22.4430  -25.3086 C   0  0  0  0  0  0  0  0  0  0  0  0
    0.6055   22.2392  -26.6092 C   0  0  0  0  0  0  0  0  0  0  0  0
   -0.3697   22.2054  -27.5776 C   0  0  0  0  0  0  0  0  0  0  0  0
   -1.7002   22.3738  -27.2439 C   0  0  0  0  0  0  0  0  0  0  0  0
   -2.0627   22.5773  -25.9376 C   0  0  0  0  0  0  0  0  0  0  0  0
   -6.0186   23.6992  -25.5376 C   0  0  0  0  0  0  0  0  0  0  0  0
   -6.2072   26.1827  -25.2901 C   0  0  0  0  0  0  0  0  0  0  0  0
   -5.2901   24.9888  -25.4643 C   0  0  0  0  0  0  0  0  0  0  0  0
   -4.4245   25.1905  -26.6891 C   0  0  0  0  0  0  0  0  0  0  0  0
 38 39  1  0  0  0
 39 40  1  0  0  0
 39 37  1  0  0  0
 37  1  1  0  0  0
  1  2  1  0  0  0
  2  3  1  0  0  0
  3  4  2  0  0  0
  3  6  1  0  0  0
  6  7  1  0  0  0
  6  8  1  0  0  0
  8  9  1  0  0  0
  9 10  2  0  0  0
  9 12  1  0  0  0
 12 13  2  0  0  0
 13 14  1  0  0  0
 14 15  2  0  0  0
 15 16  1  0  0  0
 16 17  2  0  0  0
 15 18  1  0  0  0
 18 19  3  0  0  0
  1 20  1  0  0  0
 20 21  2  0  0  0
 20 22  1  0  0  0
 22 24  1  0  0  0
 24 30  1  0  0  0
 30 31  1  0  0  0
 31 32  2  0  0  0
 32 33  1  0  0  0
 33 34  2  0  0  0
 34 35  1  0  0  0
 35 36  2  0  0  0
 24 25  1  0  0  0
 25 26  1  0  0  0
 25 27  2  0  0  0
 17 12  1  0  0  0
 36 31  1  0  0  0
  2  5  1  0  0  0
  8 11  1  0  0  0
 22 23  1  0  0  0
 26 28  1  0  0  0
 26 29  1  0  0  0
M  END
> <minimizedAffinity>
-6.83400

> <CNNscore>
0.2084929645

> <CNNaffinity>
5.6365861893

> <CNN_VS>
1.1751885414

> <CNNaffinity_variance>
0.2666244805

$$$$
[H]c1c([H])c([H])c(C([H])([H])[C@@]([H])(C(=O)N([H])[H])N([H])C(=O)[C@@]([H])(N([H])C(=O)[C@@]([H])(N([H])C(=O)c2c([H])c([H])c(C#N)c([H])c2[H])C([H])([H])[H])C([H])([H])C([H])(C([H])([H])[H])C([H])([H])[H])c([H])c1[H]


 40 41  0  0  0  0  0  0  0  0999 V2000
   -6.6355   23.8569  -23.6801 C   0  0  0  0  0  0  0  0  0  0  0  0
   -5.9498   23.3262  -22.5494 N   0  0  0  0  0  0  0  0  0  0  0  0
   -6.2248   22.1695  -21.8192 C   0  0  0  0  0  0  0  0  0  0  0  0
   -7.1887   21.4278  -22.0981 O   0  0  0  0  0  0  0  0  0  0  0  0
   -5.0945   23.8825  -22.1904 H   0  0  0  0  0  0  0  0  0  0  0  0
   -5.3818   21.7348  -20.6467 C   0  0  0  0  0  0  0  0  0  0  0  0
   -5.3454   22.8966  -19.6867 C   0  0  0  0  0  0  0  0  0  0  0  0
   -4.0605   21.3412  -21.0688 N   0  0  0  0  0  0  0  0  0  0  0  0
   -3.0262   22.2459  -21.3537 C   0  0  0  0  0  0  0  0  0  0  0  0
   -3.2902   23.4765  -21.2270 O   0  0  0  0  0  0  0  0  0  0  0  0
   -3.8873   20.3248  -21.1592 H   0  0  0  0  0  0  0  0  0  0  0  0
   -1.6863   21.8920  -21.7780 C   0  0  0  0  0  0  0  0  0  0  0  0
   -1.1837   22.2637  -23.0094 C   0  0  0  0  0  0  0  0  0  0  0  0
    0.0813   21.9490  -23.4464 C   0  0  0  0  0  0  0  0  0  0  0  0
    0.9118   21.2165  -22.6136 C   0  0  0  0  0  0  0  0  0  0  0  0
    0.4557   20.8216  -21.3738 C   0  0  0  0  0  0  0  0  0  0  0  0
   -0.8232   21.1595  -20.9742 C   0  0  0  0  0  0  0  0  0  0  0  0
    2.2377   20.8847  -23.0636 C   0  0  0  0  0  0  0  0  0  0  0  0
    3.3157   20.6107  -23.4500 N   0  0  0  0  0  0  0  0  0  0  0  0
   -6.0279   23.5302  -24.9724 C   0  0  0  0  0  0  0  0  0  0  0  0
   -6.8211   23.2614  -25.9358 O   0  0  0  0  0  0  0  0  0  0  0  0
   -4.6411   23.4932  -25.2221 N   0  0  0  0  0  0  0  0  0  0  0  0
   -3.9873   23.7167  -24.4486 H   0  0  0  0  0  0  0  0  0  0  0  0
   -4.1010   23.1525  -26.5472 C   0  0  0  0  0  0  0  0  0  0  0  0
   -2.9481   22.2501  -26.4138 C   0  0  0  0  0  0  0  0  0  0  0  0
   -1.7290   22.3909  -27.1241 N   0  0  0  0  0  0  0  0  0  0  0  0
   -3.0058   21.2439  -25.6073 O   0  0  0  0  0  0  0  0  0  0  0  0
   -0.8156   22.2766  -26.6236 H   0  0  0  0  0  0  0  0  0  0  0  0
   -1.6832   22.6072  -28.1423 H   0  0  0  0  0  0  0  0  0  0  0  0
   -3.8691   24.4375  -27.2525 C   0  0  0  0  0  0  0  0  0  0  0  0
   -4.4550   24.5495  -28.6064 C   0  0  0  0  0  0  0  0  0  0  0  0
   -5.1757   23.5021  -29.1494 C   0  0  0  0  0  0  0  0  0  0  0  0
   -5.7320   23.5778  -30.3970 C   0  0  0  0  0  0  0  0  0  0  0  0
   -5.5651   24.7317  -31.1255 C   0  0  0  0  0  0  0  0  0  0  0  0
   -4.8494   25.7945  -30.6077 C   0  0  0  0  0  0  0  0  0  0  0  0
   -4.2961   25.7085  -29.3565 C   0  0  0  0  0  0  0  0  0  0  0  0
   -6.9063   25.3434  -23.6338 C   0  0  0  0  0  0  0  0  0  0  0  0
   -7.3728   25.9240  -21.2442 C   0  0  0  0  0  0  0  0  0  0  0  0
   -7.9241   25.7830  -22.6490 C   0  0  0  0  0  0  0  0  0  0  0  0
   -9.1063   24.8385  -22.6358 C   0  0  0  0  0  0  0  0  0  0  0  0
 38 39  1  0  0  0
 39 40  1  0  0  0
 39 37  1  0  0  0
 37  1  1  0  0  0
  1  2  1  0  0  0
  2  3  1  0  0  0
  3  4  2  0  0  0
  3  6  1  0  0  0
  6  7  1  0  0  0
  6  8  1  0  0  0
  8  9  1  0  0  0
  9 10  2  0  0  0
  9 12  1  0  0  0
 12 13  2  0  0  0
 13 14  1  0  0  0
 14 15  2  0  0  0
 15 16  1  0  0  0
 16 17  2  0  0  0
 15 18  1  0  0  0
 18 19  3  0  0  0
  1 20  1  0  0  0
 20 21  2  0  0  0
 20 22  1  0  0  0
 22 24  1  0  0  0
 24 30  1  0  0  0
 30 31  1  0  0  0
 31 32  2  0  0  0
 32 33  1  0  0  0
 33 34  2  0  0  0
 34 35  1  0  0  0
 35 36  2  0  0  0
 24 25  1  0  0  0
 25 26  1  0  0  0
 25 27  2  0  0  0
 17 12  1  0  0  0
 36 31  1  0  0  0
  2  5  1  0  0  0
  8 11  1  0  0  0
 22 23  1  0  0  0
 26 28  1  0  0  0
 26 29  1  0  0  0
M  END
> <minimizedAffinity>
-8.13874

> <CNNscore>
0.2040139735

> <CNNaffinity>
6.4028825760

> <CNN_VS>
1.3062775135

> <CNNaffinity_variance>
0.1229066700

$$$$
[H]c1c([H])c([H])c(C([H])([H])[C@@]([H])(C(=O)N([H])[H])N([H])C(=O)[C@@]([H])(N([H])C(=O)[C@@]([H])(N([H])C(=O)c2c([H])c([H])c(C#N)c([H])c2[H])C([H])([H])[H])C([H])([H])C([H])(C([H])([H])[H])C([H])([H])[H])c([H])c1[H]


 40 41  0  0  0  0  0  0  0  0999 V2000
   -6.7924   23.8777  -23.8819 C   0  0  0  0  0  0  0  0  0  0  0  0
   -5.9198   23.6937  -22.7706 N   0  0  0  0  0  0  0  0  0  0  0  0
   -5.8821   22.6478  -21.8479 C   0  0  0  0  0  0  0  0  0  0  0  0
   -6.6854   21.6944  -21.8994 O   0  0  0  0  0  0  0  0  0  0  0  0
   -5.1762   24.4604  -22.6001 H   0  0  0  0  0  0  0  0  0  0  0  0
   -4.8734   22.5946  -20.7280 C   0  0  0  0  0  0  0  0  0  0  0  0
   -3.7169   21.7664  -21.2274 C   0  0  0  0  0  0  0  0  0  0  0  0
   -5.4523   22.0452  -19.5272 N   0  0  0  0  0  0  0  0  0  0  0  0
   -5.3392   22.6375  -18.2599 C   0  0  0  0  0  0  0  0  0  0  0  0
   -4.6849   23.7177  -18.1887 O   0  0  0  0  0  0  0  0  0  0  0  0
   -5.9796   21.1606  -19.6305 H   0  0  0  0  0  0  0  0  0  0  0  0
   -5.9066   22.1197  -17.0309 C   0  0  0  0  0  0  0  0  0  0  0  0
   -6.7328   22.8795  -16.2263 C   0  0  0  0  0  0  0  0  0  0  0  0
   -7.2912   22.4235  -15.0556 C   0  0  0  0  0  0  0  0  0  0  0  0
   -7.0180   21.1283  -14.6462 C   0  0  0  0  0  0  0  0  0  0  0  0
   -6.1982   20.3300  -15.4156 C   0  0  0  0  0  0  0  0  0  0  0  0
   -5.6578   20.8285  -16.5856 C   0  0  0  0  0  0  0  0  0  0  0  0
   -7.6001   20.6437  -13.4228 C   0  0  0  0  0  0  0  0  0  0  0  0
   -8.0651   20.2595  -12.4115 N   0  0  0  0  0  0  0  0  0  0  0  0
   -6.1247   23.9043  -25.1856 C   0  0  0  0  0  0  0  0  0  0  0  0
   -6.7372   23.3576  -26.1631 O   0  0  0  0  0  0  0  0  0  0  0  0
   -4.8650   24.4869  -25.4318 N   0  0  0  0  0  0  0  0  0  0  0  0
   -4.3613   24.9402  -24.6465 H   0  0  0  0  0  0  0  0  0  0  0  0
   -4.2525   24.4728  -26.7690 C   0  0  0  0  0  0  0  0  0  0  0  0
   -5.1628   25.0722  -27.7556 C   0  0  0  0  0  0  0  0  0  0  0  0
   -5.6926   24.3906  -28.8805 N   0  0  0  0  0  0  0  0  0  0  0  0
   -5.5301   26.3033  -27.6309 O   0  0  0  0  0  0  0  0  0  0  0  0
   -6.7070   24.4910  -29.1231 H   0  0  0  0  0  0  0  0  0  0  0  0
   -5.1198   23.7783  -29.4990 H   0  0  0  0  0  0  0  0  0  0  0  0
   -3.8164   23.0767  -27.0198 C   0  0  0  0  0  0  0  0  0  0  0  0
   -2.3835   22.7924  -26.7853 C   0  0  0  0  0  0  0  0  0  0  0  0
   -1.9415   22.3890  -25.5391 C   0  0  0  0  0  0  0  0  0  0  0  0
   -0.6237   22.1156  -25.2931 C   0  0  0  0  0  0  0  0  0  0  0  0
    0.2808   22.2484  -26.3198 C   0  0  0  0  0  0  0  0  0  0  0  0
   -0.1327   22.6500  -27.5758 C   0  0  0  0  0  0  0  0  0  0  0  0
   -1.4555   22.9214  -27.8117 C   0  0  0  0  0  0  0  0  0  0  0  0
   -7.7185   25.0687  -23.7874 C   0  0  0  0  0  0  0  0  0  0  0  0
  -10.0234   25.4826  -22.9038 C   0  0  0  0  0  0  0  0  0  0  0  0
   -8.5874   25.1161  -22.5866 C   0  0  0  0  0  0  0  0  0  0  0  0
   -8.0352   26.0788  -21.5580 C   0  0  0  0  0  0  0  0  0  0  0  0
 38 39  1  0  0  0
 39 40  1  0  0  0
 39 37  1  0  0  0
 37  1  1  0  0  0
  1  2  1  0  0  0
  2  3  1  0  0  0
  3  4  2  0  0  0
  3  6  1  0  0  0
  6  7  1  0  0  0
  6  8  1  0  0  0
  8  9  1  0  0  0
  9 10  2  0  0  0
  9 12  1  0  0  0
 12 13  2  0  0  0
 13 14  1  0  0  0
 14 15  2  0  0  0
 15 16  1  0  0  0
 16 17  2  0  0  0
 15 18  1  0  0  0
 18 19  3  0  0  0
  1 20  1  0  0  0
 20 21  2  0  0  0
 20 22  1  0  0  0
 22 24  1  0  0  0
 24 30  1  0  0  0
 30 31  1  0  0  0
 31 32  2  0  0  0
 32 33  1  0  0  0
 33 34  2  0  0  0
 34 35  1  0  0  0
 35 36  2  0  0  0
 24 25  1  0  0  0
 25 26  1  0  0  0
 25 27  2  0  0  0
 17 12  1  0  0  0
 36 31  1  0  0  0
  2  5  1  0  0  0
  8 11  1  0  0  0
 22 23  1  0  0  0
 26 28  1  0  0  0
 26 29  1  0  0  0
M  END
> <minimizedAffinity>
-7.03307

> <CNNscore>
0.2039352953

> <CNNaffinity>
6.0413770676

> <CNN_VS>
1.2320500612

> <CNNaffinity_variance>
0.2451941073

$$$$
[H]OC(=O)[C@@]1([H])N(C(=O)[C@@]2([H])N(C(=O)[C@@]3([H])N(C(=O)[C@@]([H])(N([H])[H])C([H])([H])c4c([H])n([H])c5c([H])c([H])c([H])c([H])c45)C([H])([H])C([H])([H])C3([H])[H])C([H])([H])C([H])([H])C2([H])[H])C([H])([H])C([H])([H])C1([H])[H]


 40 44  0  0  0  0  0  0  0  0999 V2000
   -1.1399   22.1345  -24.8682 C   0  0  0  0  0  0  0  0  0  0  0  0
   -0.9310   22.7663  -25.9785 O   0  0  0  0  0  0  0  0  0  0  0  0
   -2.4427   22.0693  -24.3207 N   0  0  0  0  0  0  0  0  0  0  0  0
   -2.9215   21.4141  -23.1584 C   0  0  0  0  0  0  0  0  0  0  0  0
   -4.3994   21.2141  -23.3872 C   0  0  0  0  0  0  0  0  0  0  0  0
   -4.6274   21.6538  -24.8443 C   0  0  0  0  0  0  0  0  0  0  0  0
   -3.5618   22.7633  -24.9257 C   0  0  0  0  0  0  0  0  0  0  0  0
   -3.9721   23.9457  -24.1794 C   0  0  0  0  0  0  0  0  0  0  0  0
   -3.2429   24.4305  -23.2880 O   0  0  0  0  0  0  0  0  0  0  0  0
   -5.2152   24.5648  -24.4612 N   0  0  0  0  0  0  0  0  0  0  0  0
   -5.7652   25.7405  -23.7694 C   0  0  0  0  0  0  0  0  0  0  0  0
   -7.2021   25.8482  -24.1616 C   0  0  0  0  0  0  0  0  0  0  0  0
   -7.5236   24.4940  -24.7760 C   0  0  0  0  0  0  0  0  0  0  0  0
   -6.1892   24.2070  -25.4726 C   0  0  0  0  0  0  0  0  0  0  0  0
   -6.1623   25.1147  -26.6460 C   0  0  0  0  0  0  0  0  0  0  0  0
   -6.5797   26.2928  -26.4760 O   0  0  0  0  0  0  0  0  0  0  0  0
   -5.6817   24.6399  -27.8805 N   0  0  0  0  0  0  0  0  0  0  0  0
   -5.6161   25.3756  -29.1537 C   0  0  0  0  0  0  0  0  0  0  0  0
   -5.3690   24.3610  -30.2319 C   0  0  0  0  0  0  0  0  0  0  0  0
   -5.4839   23.0345  -29.5704 C   0  0  0  0  0  0  0  0  0  0  0  0
   -5.1293   23.3224  -28.1170 C   0  0  0  0  0  0  0  0  0  0  0  0
   -3.6446   23.4290  -28.0259 C   0  0  0  0  0  0  0  0  0  0  0  0
   -2.9060   22.3138  -28.3719 O   0  0  0  0  0  0  0  0  0  0  0  0
   -3.1375   24.5049  -27.6467 O   0  0  0  0  0  0  0  0  0  0  0  0
   -1.9148   22.4063  -28.5570 H   0  0  0  0  0  0  0  0  0  0  0  0
    1.2015   21.6301  -25.1763 N   0  0  0  0  0  0  0  0  0  0  0  0
    0.0877   21.5419  -24.3046 C   0  0  0  0  0  0  0  0  0  0  0  0
    1.3332   20.7851  -25.7866 H   0  0  0  0  0  0  0  0  0  0  0  0
    2.0935   21.9291  -24.7563 H   0  0  0  0  0  0  0  0  0  0  0  0
    0.3787   22.0543  -22.9071 C   0  0  0  0  0  0  0  0  0  0  0  0
    0.6646   20.9005  -22.0281 C   0  0  0  0  0  0  0  0  0  0  0  0
   -0.2137   20.2209  -21.2242 C   0  0  0  0  0  0  0  0  0  0  0  0
    0.4069   19.2285  -20.5699 N   0  0  0  0  0  0  0  0  0  0  0  0
    1.7147   19.2610  -20.9538 C   0  0  0  0  0  0  0  0  0  0  0  0
    2.7530   18.4499  -20.5638 C   0  0  0  0  0  0  0  0  0  0  0  0
    3.9970   18.6883  -21.1014 C   0  0  0  0  0  0  0  0  0  0  0  0
    4.2172   19.7093  -22.0091 C   0  0  0  0  0  0  0  0  0  0  0  0
    3.1567   20.5079  -22.3824 C   0  0  0  0  0  0  0  0  0  0  0  0
    1.8949   20.3044  -21.8691 C   0  0  0  0  0  0  0  0  0  0  0  0
   -0.0033   18.5376  -19.8845 H   0  0  0  0  0  0  0  0  0  0  0  0
 26 27  1  0  0  0
 27 30  1  0  0  0
 30 31  1  0  0  0
 31 32  2  0  0  0
 32 33  1  0  0  0
 33 34  1  0  0  0
 34 35  2  0  0  0
 35 36  1  0  0  0
 36 37  2  0  0  0
 37 38  1  0  0  0
 38 39  2  0  0  0
 27  1  1  0  0  0
  1  2  2  0  0  0
  1  3  1  0  0  0
  3  4  1  0  0  0
  4  5  1  0  0  0
  5  6  1  0  0  0
  6  7  1  0  0  0
  7  8  1  0  0  0
  8  9  2  0  0  0
  8 10  1  0  0  0
 10 11  1  0  0  0
 11 12  1  0  0  0
 12 13  1  0  0  0
 13 14  1  0  0  0
 14 15  1  0  0  0
 15 16  2  0  0  0
 15 17  1  0  0  0
 17 18  1  0  0  0
 18 19  1  0  0  0
 19 20  1  0  0  0
 20 21  1  0  0  0
 21 22  1  0  0  0
 22 23  1  0  0  0
 22 24  2  0  0  0
 39 31  1  0  0  0
  7  3  1  0  0  0
 14 10  1  0  0  0
 21 17  1  0  0  0
 39 34  1  0  0  0
 26 28  1  0  0  0
 26 29  1  0  0  0
 33 40  1  0  0  0
 23 25  1  0  0  0
M  END
> <minimizedAffinity>
-8.45415

> <CNNscore>
0.3472481370

> <CNNaffinity>
6.8298559189

> <CNN_VS>
2.3716547489

> <CNNaffinity_variance>
0.1259590685

$$$$
[H]OC(=O)[C@@]1([H])N(C(=O)[C@@]2([H])N(C(=O)[C@@]3([H])N(C(=O)[C@@]([H])(N([H])[H])C([H])([H])c4c([H])n([H])c5c([H])c([H])c([H])c([H])c45)C([H])([H])C([H])([H])C3([H])[H])C([H])([H])C([H])([H])C2([H])[H])C([H])([H])C([H])([H])C1([H])[H]


 40 44  0  0  0  0  0  0  0  0999 V2000
   -4.8782   23.2474  -21.7156 C   0  0  0  0  0  0  0  0  0  0  0  0
   -3.9380   23.4148  -20.8416 O   0  0  0  0  0  0  0  0  0  0  0  0
   -6.2225   23.1098  -21.2972 N   0  0  0  0  0  0  0  0  0  0  0  0
   -7.4117   22.9593  -22.0539 C   0  0  0  0  0  0  0  0  0  0  0  0
   -8.5270   23.4250  -21.1506 C   0  0  0  0  0  0  0  0  0  0  0  0
   -7.8094   24.0057  -19.9193 C   0  0  0  0  0  0  0  0  0  0  0  0
   -6.5864   23.0692  -19.8951 C   0  0  0  0  0  0  0  0  0  0  0  0
   -6.9517   21.7348  -19.4378 C   0  0  0  0  0  0  0  0  0  0  0  0
   -7.0372   20.7798  -20.2389 O   0  0  0  0  0  0  0  0  0  0  0  0
   -7.2154   21.5044  -18.0647 N   0  0  0  0  0  0  0  0  0  0  0  0
   -7.6206   20.2207  -17.4718 C   0  0  0  0  0  0  0  0  0  0  0  0
   -8.0928   20.5076  -16.0845 C   0  0  0  0  0  0  0  0  0  0  0  0
   -8.2970   22.0151  -16.0641 C   0  0  0  0  0  0  0  0  0  0  0  0
   -7.1319   22.4422  -16.9632 C   0  0  0  0  0  0  0  0  0  0  0  0
   -5.9150   22.2529  -16.1356 C   0  0  0  0  0  0  0  0  0  0  0  0
   -5.1236   21.3303  -16.4726 O   0  0  0  0  0  0  0  0  0  0  0  0
   -5.6909   23.0918  -15.0281 N   0  0  0  0  0  0  0  0  0  0  0  0
   -4.5702   23.0301  -14.0759 C   0  0  0  0  0  0  0  0  0  0  0  0
   -4.9505   23.8797  -12.8984 C   0  0  0  0  0  0  0  0  0  0  0  0
   -6.3694   24.2639  -13.1207 C   0  0  0  0  0  0  0  0  0  0  0  0
   -6.5274   24.2064  -14.6350 C   0  0  0  0  0  0  0  0  0  0  0  0
   -5.9253   25.4482  -15.2003 C   0  0  0  0  0  0  0  0  0  0  0  0
   -5.9582   26.5840  -14.4143 O   0  0  0  0  0  0  0  0  0  0  0  0
   -5.4236   25.4112  -16.3429 O   0  0  0  0  0  0  0  0  0  0  0  0
   -5.3632   27.3703  -14.6440 H   0  0  0  0  0  0  0  0  0  0  0  0
   -3.3590   24.1787  -23.3455 N   0  0  0  0  0  0  0  0  0  0  0  0
   -4.3756   23.2219  -23.1021 C   0  0  0  0  0  0  0  0  0  0  0  0
   -3.7152   25.0931  -23.7210 H   0  0  0  0  0  0  0  0  0  0  0  0
   -2.5366   23.8538  -23.8741 H   0  0  0  0  0  0  0  0  0  0  0  0
   -3.9990   21.8216  -23.5466 C   0  0  0  0  0  0  0  0  0  0  0  0
   -2.5326   21.7574  -23.7227 C   0  0  0  0  0  0  0  0  0  0  0  0
   -1.5846   21.4883  -22.7695 C   0  0  0  0  0  0  0  0  0  0  0  0
   -0.3529   21.5164  -23.2989 N   0  0  0  0  0  0  0  0  0  0  0  0
   -0.4996   21.8093  -24.6224 C   0  0  0  0  0  0  0  0  0  0  0  0
    0.4646   21.9497  -25.5912 C   0  0  0  0  0  0  0  0  0  0  0  0
    0.0569   22.2510  -26.8704 C   0  0  0  0  0  0  0  0  0  0  0  0
   -1.2792   22.4121  -27.1927 C   0  0  0  0  0  0  0  0  0  0  0  0
   -2.2253   22.2654  -26.2001 C   0  0  0  0  0  0  0  0  0  0  0  0
   -1.8614   21.9640  -24.9063 C   0  0  0  0  0  0  0  0  0  0  0  0
    0.5720   21.3496  -22.8173 H   0  0  0  0  0  0  0  0  0  0  0  0
 26 27  1  0  0  0
 27 30  1  0  0  0
 30 31  1  0  0  0
 31 32  2  0  0  0
 32 33  1  0  0  0
 33 34  1  0  0  0
 34 35  2  0  0  0
 35 36  1  0  0  0
 36 37  2  0  0  0
 37 38  1  0  0  0
 38 39  2  0  0  0
 27  1  1  0  0  0
  1  2  2  0  0  0
  1  3  1  0  0  0
  3  4  1  0  0  0
  4  5  1  0  0  0
  5  6  1  0  0  0
  6  7  1  0  0  0
  7  8  1  0  0  0
  8  9  2  0  0  0
  8 10  1  0  0  0
 10 11  1  0  0  0
 11 12  1  0  0  0
 12 13  1  0  0  0
 13 14  1  0  0  0
 14 15  1  0  0  0
 15 16  2  0  0  0
 15 17  1  0  0  0
 17 18  1  0  0  0
 18 19  1  0  0  0
 19 20  1  0  0  0
 20 21  1  0  0  0
 21 22  1  0  0  0
 22 23  1  0  0  0
 22 24  2  0  0  0
 39 31  1  0  0  0
  7  3  1  0  0  0
 14 10  1  0  0  0
 21 17  1  0  0  0
 39 34  1  0  0  0
 26 28  1  0  0  0
 26 29  1  0  0  0
 33 40  1  0  0  0
 23 25  1  0  0  0
M  END
> <minimizedAffinity>
-8.47677

> <CNNscore>
0.2356206477

> <CNNaffinity>
5.6383433342

> <CNN_VS>
1.3285101652

> <CNNaffinity_variance>
0.1299889535

$$$$
[H]OC(=O)[C@@]1([H])N(C(=O)[C@@]2([H])N(C(=O)[C@@]3([H])N(C(=O)[C@@]([H])(N([H])[H])C([H])([H])c4c([H])n([H])c5c([H])c([H])c([H])c([H])c45)C([H])([H])C([H])([H])C3([H])[H])C([H])([H])C([H])([H])C2([H])[H])C([H])([H])C([H])([H])C1([H])[H]


 40 44  0  0  0  0  0  0  0  0999 V2000
   -3.8651   23.4075  -21.7988 C   0  0  0  0  0  0  0  0  0  0  0  0
   -3.4261   23.5058  -20.5850 O   0  0  0  0  0  0  0  0  0  0  0  0
   -5.2565   23.3685  -22.0513 N   0  0  0  0  0  0  0  0  0  0  0  0
   -5.9689   23.3053  -23.2752 C   0  0  0  0  0  0  0  0  0  0  0  0
   -7.3424   23.8512  -22.9719 C   0  0  0  0  0  0  0  0  0  0  0  0
   -7.2386   24.3779  -21.5296 C   0  0  0  0  0  0  0  0  0  0  0  0
   -6.2285   23.3546  -20.9766 C   0  0  0  0  0  0  0  0  0  0  0  0
   -6.8492   22.0503  -20.7843 C   0  0  0  0  0  0  0  0  0  0  0  0
   -7.0173   21.2686  -21.7444 O   0  0  0  0  0  0  0  0  0  0  0  0
   -7.2720   21.6511  -19.4920 N   0  0  0  0  0  0  0  0  0  0  0  0
   -7.9359   20.3812  -19.1600 C   0  0  0  0  0  0  0  0  0  0  0  0
   -8.4793   20.5188  -17.7760 C   0  0  0  0  0  0  0  0  0  0  0  0
   -8.4331   22.0150  -17.5040 C   0  0  0  0  0  0  0  0  0  0  0  0
   -7.1361   22.3678  -18.2400 C   0  0  0  0  0  0  0  0  0  0  0  0
   -6.0481   21.8331  -17.3845 C   0  0  0  0  0  0  0  0  0  0  0  0
   -5.4621   20.7880  -17.7790 O   0  0  0  0  0  0  0  0  0  0  0  0
   -5.7147   22.4967  -16.1891 N   0  0  0  0  0  0  0  0  0  0  0  0
   -4.6999   22.0966  -15.2009 C   0  0  0  0  0  0  0  0  0  0  0  0
   -4.9566   22.9023  -13.9608 C   0  0  0  0  0  0  0  0  0  0  0  0
   -6.2369   23.6181  -14.2036 C   0  0  0  0  0  0  0  0  0  0  0  0
   -6.3054   23.7332  -15.7212 C   0  0  0  0  0  0  0  0  0  0  0  0
   -5.4065   24.8502  -16.1315 C   0  0  0  0  0  0  0  0  0  0  0  0
   -5.5015   26.0334  -15.4245 O   0  0  0  0  0  0  0  0  0  0  0  0
   -4.6170   24.6733  -17.0823 O   0  0  0  0  0  0  0  0  0  0  0  0
   -4.7646   26.7237  -15.5005 H   0  0  0  0  0  0  0  0  0  0  0  0
   -1.6487   24.1183  -22.4422 N   0  0  0  0  0  0  0  0  0  0  0  0
   -2.7820   23.3455  -22.7981 C   0  0  0  0  0  0  0  0  0  0  0  0
   -1.6586   25.0940  -22.8321 H   0  0  0  0  0  0  0  0  0  0  0  0
   -0.7282   23.6744  -22.5722 H   0  0  0  0  0  0  0  0  0  0  0  0
   -2.4381   21.9182  -23.1786 C   0  0  0  0  0  0  0  0  0  0  0  0
   -1.2635   21.9357  -24.0761 C   0  0  0  0  0  0  0  0  0  0  0  0
    0.0376   21.6411  -23.7602 C   0  0  0  0  0  0  0  0  0  0  0  0
    0.8304   21.7658  -24.8345 N   0  0  0  0  0  0  0  0  0  0  0  0
    0.0318   22.1490  -25.8710 C   0  0  0  0  0  0  0  0  0  0  0  0
    0.3709   22.4058  -27.1775 C   0  0  0  0  0  0  0  0  0  0  0  0
   -0.6302   22.7819  -28.0435 C   0  0  0  0  0  0  0  0  0  0  0  0
   -1.9455   22.9039  -27.6311 C   0  0  0  0  0  0  0  0  0  0  0  0
   -2.2569   22.6400  -26.3138 C   0  0  0  0  0  0  0  0  0  0  0  0
   -1.2862   22.2607  -25.4133 C   0  0  0  0  0  0  0  0  0  0  0  0
    1.8722   21.6071  -24.9029 H   0  0  0  0  0  0  0  0  0  0  0  0
 26 27  1  0  0  0
 27 30  1  0  0  0
 30 31  1  0  0  0
 31 32  2  0  0  0
 32 33  1  0  0  0
 33 34  1  0  0  0
 34 35  2  0  0  0
 35 36  1  0  0  0
 36 37  2  0  0  0
 37 38  1  0  0  0
 38 39  2  0  0  0
 27  1  1  0  0  0
  1  2  2  0  0  0
  1  3  1  0  0  0
  3  4  1  0  0  0
  4  5  1  0  0  0
  5  6  1  0  0  0
  6  7  1  0  0  0
  7  8  1  0  0  0
  8  9  2  0  0  0
  8 10  1  0  0  0
 10 11  1  0  0  0
 11 12  1  0  0  0
 12 13  1  0  0  0
 13 14  1  0  0  0
 14 15  1  0  0  0
 15 16  2  0  0  0
 15 17  1  0  0  0
 17 18  1  0  0  0
 18 19  1  0  0  0
 19 20  1  0  0  0
 20 21  1  0  0  0
 21 22  1  0  0  0
 22 23  1  0  0  0
 22 24  2  0  0  0
 39 31  1  0  0  0
  7  3  1  0  0  0
 14 10  1  0  0  0
 21 17  1  0  0  0
 39 34  1  0  0  0
 26 28  1  0  0  0
 26 29  1  0  0  0
 33 40  1  0  0  0
 23 25  1  0  0  0
M  END
> <minimizedAffinity>
-9.16493

> <CNNscore>
0.1942182630

> <CNNaffinity>
5.7122993469

> <CNN_VS>
1.1094328165

> <CNNaffinity_variance>
0.2439295352

$$$$
[H]OC(=O)[C@@]1([H])N(C(=O)[C@@]2([H])N(C(=O)[C@@]3([H])N(C(=O)[C@@]([H])(N([H])[H])C([H])([H])c4c([H])n([H])c5c([H])c([H])c([H])c([H])c45)C([H])([H])C([H])([H])C3([H])[H])C([H])([H])C([H])([H])C2([H])[H])C([H])([H])C([H])([H])C1([H])[H]


 40 44  0  0  0  0  0  0  0  0999 V2000
   -5.1212   23.7763  -23.4590 C   0  0  0  0  0  0  0  0  0  0  0  0
   -4.0004   23.5467  -22.8533 O   0  0  0  0  0  0  0  0  0  0  0  0
   -6.3304   23.8191  -22.7262 N   0  0  0  0  0  0  0  0  0  0  0  0
   -7.6557   24.0880  -23.1511 C   0  0  0  0  0  0  0  0  0  0  0  0
   -8.3905   24.5483  -21.9162 C   0  0  0  0  0  0  0  0  0  0  0  0
   -7.2967   24.6751  -20.8411 C   0  0  0  0  0  0  0  0  0  0  0  0
   -6.3745   23.5321  -21.3064 C   0  0  0  0  0  0  0  0  0  0  0  0
   -6.9537   22.2296  -21.0043 C   0  0  0  0  0  0  0  0  0  0  0  0
   -7.2112   21.4121  -21.9135 O   0  0  0  0  0  0  0  0  0  0  0  0
   -7.2327   21.8731  -19.6616 N   0  0  0  0  0  0  0  0  0  0  0  0
   -7.8407   20.6095  -19.2173 C   0  0  0  0  0  0  0  0  0  0  0  0
   -8.2374   20.7916  -17.7892 C   0  0  0  0  0  0  0  0  0  0  0  0
   -8.1832   22.2970  -17.5759 C   0  0  0  0  0  0  0  0  0  0  0  0
   -6.9758   22.6358  -18.4566 C   0  0  0  0  0  0  0  0  0  0  0  0
   -5.7967   22.1431  -17.7026 C   0  0  0  0  0  0  0  0  0  0  0  0
   -5.1099   21.2288  -18.2351 O   0  0  0  0  0  0  0  0  0  0  0  0
   -5.4920   22.7016  -16.4473 N   0  0  0  0  0  0  0  0  0  0  0  0
   -4.3955   22.3175  -15.5436 C   0  0  0  0  0  0  0  0  0  0  0  0
   -4.6910   22.9393  -14.2098 C   0  0  0  0  0  0  0  0  0  0  0  0
   -6.0556   23.5174  -14.3286 C   0  0  0  0  0  0  0  0  0  0  0  0
   -6.2027   23.7957  -15.8192 C   0  0  0  0  0  0  0  0  0  0  0  0
   -5.4594   25.0530  -16.1204 C   0  0  0  0  0  0  0  0  0  0  0  0
   -5.5854   26.0952  -15.2222 O   0  0  0  0  0  0  0  0  0  0  0  0
   -4.7644   25.1115  -17.1559 O   0  0  0  0  0  0  0  0  0  0  0  0
   -4.9274   26.8642  -15.2508 H   0  0  0  0  0  0  0  0  0  0  0  0
   -3.9933   24.9518  -25.2416 N   0  0  0  0  0  0  0  0  0  0  0  0
   -4.9596   23.9690  -24.9125 C   0  0  0  0  0  0  0  0  0  0  0  0
   -4.3930   25.9140  -25.3775 H   0  0  0  0  0  0  0  0  0  0  0  0
   -3.3309   24.7138  -25.9939 H   0  0  0  0  0  0  0  0  0  0  0  0
   -4.7511   22.6559  -25.6422 C   0  0  0  0  0  0  0  0  0  0  0  0
   -3.6427   22.8193  -26.6067 C   0  0  0  0  0  0  0  0  0  0  0  0
   -3.7235   23.2077  -27.9190 C   0  0  0  0  0  0  0  0  0  0  0  0
   -2.5074   23.2432  -28.4828 N   0  0  0  0  0  0  0  0  0  0  0  0
   -1.6161   22.8709  -27.5206 C   0  0  0  0  0  0  0  0  0  0  0  0
   -0.2498   22.7515  -27.6042 C   0  0  0  0  0  0  0  0  0  0  0  0
    0.4346   22.3538  -26.4786 C   0  0  0  0  0  0  0  0  0  0  0  0
   -0.2146   22.0774  -25.2882 C   0  0  0  0  0  0  0  0  0  0  0  0
   -1.5866   22.2056  -25.2333 C   0  0  0  0  0  0  0  0  0  0  0  0
   -2.3110   22.6010  -26.3361 C   0  0  0  0  0  0  0  0  0  0  0  0
   -2.2512   23.5032  -29.4738 H   0  0  0  0  0  0  0  0  0  0  0  0
 26 27  1  0  0  0
 27 30  1  0  0  0
 30 31  1  0  0  0
 31 32  2  0  0  0
 32 33  1  0  0  0
 33 34  1  0  0  0
 34 35  2  0  0  0
 35 36  1  0  0  0
 36 37  2  0  0  0
 37 38  1  0  0  0
 38 39  2  0  0  0
 27  1  1  0  0  0
  1  2  2  0  0  0
  1  3  1  0  0  0
  3  4  1  0  0  0
  4  5  1  0  0  0
  5  6  1  0  0  0
  6  7  1  0  0  0
  7  8  1  0  0  0
  8  9  2  0  0  0
  8 10  1  0  0  0
 10 11  1  0  0  0
 11 12  1  0  0  0
 12 13  1  0  0  0
 13 14  1  0  0  0
 14 15  1  0  0  0
 15 16  2  0  0  0
 15 17  1  0  0  0
 17 18  1  0  0  0
 18 19  1  0  0  0
 19 20  1  0  0  0
 20 21  1  0  0  0
 21 22  1  0  0  0
 22 23  1  0  0  0
 22 24  2  0  0  0
 39 31  1  0  0  0
  7  3  1  0  0  0
 14 10  1  0  0  0
 21 17  1  0  0  0
 39 34  1  0  0  0
 26 28  1  0  0  0
 26 29  1  0  0  0
 33 40  1  0  0  0
 23 25  1  0  0  0
M  END
> <minimizedAffinity>
-9.07692

> <CNNscore>
0.1896558851

> <CNNaffinity>
5.7561402321

> <CNN_VS>
1.0916858912

> <CNNaffinity_variance>
0.3367412388

$$$$
[H]OC(=O)[C@@]1([H])N(C(=O)[C@@]2([H])N(C(=O)[C@@]3([H])N(C(=O)[C@@]([H])(N([H])[H])C([H])([H])c4c([H])n([H])c5c([H])c([H])c([H])c([H])c45)C([H])([H])C([H])([H])C3([H])[H])C([H])([H])C([H])([H])C2([H])[H])C([H])([H])C([H])([H])C1([H])[H]


 40 44  0  0  0  0  0  0  0  0999 V2000
   -5.7948   24.0371  -21.2025 C   0  0  0  0  0  0  0  0  0  0  0  0
   -4.8602   24.1155  -20.3103 O   0  0  0  0  0  0  0  0  0  0  0  0
   -7.0524   23.4818  -20.8689 N   0  0  0  0  0  0  0  0  0  0  0  0
   -8.2266   23.3269  -21.6479 C   0  0  0  0  0  0  0  0  0  0  0  0
   -9.3586   23.2213  -20.6559 C   0  0  0  0  0  0  0  0  0  0  0  0
   -8.7067   23.5166  -19.2935 C   0  0  0  0  0  0  0  0  0  0  0  0
   -7.3148   22.9135  -19.5619 C   0  0  0  0  0  0  0  0  0  0  0  0
   -7.3628   21.4572  -19.5711 C   0  0  0  0  0  0  0  0  0  0  0  0
   -7.0159   20.8072  -20.5802 O   0  0  0  0  0  0  0  0  0  0  0  0
   -7.8073   20.7562  -18.4226 N   0  0  0  0  0  0  0  0  0  0  0  0
   -7.9333   19.2955  -18.3035 C   0  0  0  0  0  0  0  0  0  0  0  0
   -8.7245   19.0227  -17.0668 C   0  0  0  0  0  0  0  0  0  0  0  0
   -9.3522   20.3649  -16.7216 C   0  0  0  0  0  0  0  0  0  0  0  0
   -8.2086   21.2957  -17.1391 C   0  0  0  0  0  0  0  0  0  0  0  0
   -7.1707   21.1268  -16.0924 C   0  0  0  0  0  0  0  0  0  0  0  0
   -5.9892   20.9113  -16.4783 O   0  0  0  0  0  0  0  0  0  0  0  0
   -7.5326   21.2119  -14.7350 N   0  0  0  0  0  0  0  0  0  0  0  0
   -6.6560   21.0338  -13.5662 C   0  0  0  0  0  0  0  0  0  0  0  0
   -7.5495   20.8709  -12.3712 C   0  0  0  0  0  0  0  0  0  0  0  0
   -8.9310   20.7732  -12.9118 C   0  0  0  0  0  0  0  0  0  0  0  0
   -8.8558   21.5230  -14.2359 C   0  0  0  0  0  0  0  0  0  0  0  0
   -8.8956   22.9826  -13.9324 C   0  0  0  0  0  0  0  0  0  0  0  0
   -9.8075   23.4093  -12.9863 O   0  0  0  0  0  0  0  0  0  0  0  0
   -8.1152   23.7475  -14.5362 O   0  0  0  0  0  0  0  0  0  0  0  0
   -9.7113   24.3301  -12.5764 H   0  0  0  0  0  0  0  0  0  0  0  0
   -6.1515   25.6847  -22.9317 N   0  0  0  0  0  0  0  0  0  0  0  0
   -5.3824   24.5699  -22.5147 C   0  0  0  0  0  0  0  0  0  0  0  0
   -6.9742   25.4333  -23.5349 H   0  0  0  0  0  0  0  0  0  0  0  0
   -5.6317   26.4829  -23.3240 H   0  0  0  0  0  0  0  0  0  0  0  0
   -3.8871   24.8130  -22.5871 C   0  0  0  0  0  0  0  0  0  0  0  0
   -3.2649   23.7185  -23.3620 C   0  0  0  0  0  0  0  0  0  0  0  0
   -2.5596   22.6459  -22.8806 C   0  0  0  0  0  0  0  0  0  0  0  0
   -2.1450   21.8577  -23.8830 N   0  0  0  0  0  0  0  0  0  0  0  0
   -2.5878   22.4263  -25.0403 C   0  0  0  0  0  0  0  0  0  0  0  0
   -2.4204   21.9990  -26.3355 C   0  0  0  0  0  0  0  0  0  0  0  0
   -2.9705   22.7579  -27.3429 C   0  0  0  0  0  0  0  0  0  0  0  0
   -3.6747   23.9199  -27.0812 C   0  0  0  0  0  0  0  0  0  0  0  0
   -3.8270   24.3249  -25.7717 C   0  0  0  0  0  0  0  0  0  0  0  0
   -3.2929   23.5955  -24.7325 C   0  0  0  0  0  0  0  0  0  0  0  0
   -1.5841   20.9646  -23.8262 H   0  0  0  0  0  0  0  0  0  0  0  0
 26 27  1  0  0  0
 27 30  1  0  0  0
 30 31  1  0  0  0
 31 32  2  0  0  0
 32 33  1  0  0  0
 33 34  1  0  0  0
 34 35  2  0  0  0
 35 36  1  0  0  0
 36 37  2  0  0  0
 37 38  1  0  0  0
 38 39  2  0  0  0
 27  1  1  0  0  0
  1  2  2  0  0  0
  1  3  1  0  0  0
  3  4  1  0  0  0
  4  5  1  0  0  0
  5  6  1  0  0  0
  6  7  1  0  0  0
  7  8  1  0  0  0
  8  9  2  0  0  0
  8 10  1  0  0  0
 10 11  1  0  0  0
 11 12  1  0  0  0
 12 13  1  0  0  0
 13 14  1  0  0  0
 14 15  1  0  0  0
 15 16  2  0  0  0
 15 17  1  0  0  0
 17 18  1  0  0  0
 18 19  1  0  0  0
 19 20  1  0  0  0
 20 21  1  0  0  0
 21 22  1  0  0  0
 22 23  1  0  0  0
 22 24  2  0  0  0
 39 31  1  0  0  0
  7  3  1  0  0  0
 14 10  1  0  0  0
 21 17  1  0  0  0
 39 34  1  0  0  0
 26 28  1  0  0  0
 26 29  1  0  0  0
 33 40  1  0  0  0
 23 25  1  0  0  0
M  END
> <minimizedAffinity>
-7.45332

> <CNNscore>
0.1891472638

> <CNNaffinity>
5.5435752869

> <CNN_VS>
1.0485521555

> <CNNaffinity_variance>
0.1774870008

$$$$
[H]OC(=O)[C@@]1([H])N(C(=O)[C@@]2([H])N(C(=O)[C@@]3([H])N(C(=O)[C@@]([H])(N([H])[H])C([H])([H])c4c([H])n([H])c5c([H])c([H])c([H])c([H])c45)C([H])([H])C([H])([H])C3([H])[H])C([H])([H])C([H])([H])C2([H])[H])C([H])([H])C([H])([H])C1([H])[H]


 40 44  0  0  0  0  0  0  0  0999 V2000
   -3.7984   23.4595  -22.0094 C   0  0  0  0  0  0  0  0  0  0  0  0
   -3.2950   23.5457  -20.8200 O   0  0  0  0  0  0  0  0  0  0  0  0
   -5.2013   23.4269  -22.1879 N   0  0  0  0  0  0  0  0  0  0  0  0
   -5.9781   23.3767  -23.3726 C   0  0  0  0  0  0  0  0  0  0  0  0
   -7.3316   23.9241  -22.9919 C   0  0  0  0  0  0  0  0  0  0  0  0
   -7.1493   24.4377  -21.5526 C   0  0  0  0  0  0  0  0  0  0  0  0
   -6.1148   23.4065  -21.0631 C   0  0  0  0  0  0  0  0  0  0  0  0
   -6.7290   22.1025  -20.8492 C   0  0  0  0  0  0  0  0  0  0  0  0
   -6.8958   21.3054  -21.7968 O   0  0  0  0  0  0  0  0  0  0  0  0
   -7.1465   21.7211  -19.5499 N   0  0  0  0  0  0  0  0  0  0  0  0
   -7.8037   20.4534  -19.1969 C   0  0  0  0  0  0  0  0  0  0  0  0
   -8.3443   20.6096  -17.8136 C   0  0  0  0  0  0  0  0  0  0  0  0
   -8.3043   22.1100  -17.5647 C   0  0  0  0  0  0  0  0  0  0  0  0
   -7.0108   22.4574  -18.3094 C   0  0  0  0  0  0  0  0  0  0  0  0
   -5.9182   21.9409  -17.4486 C   0  0  0  0  0  0  0  0  0  0  0  0
   -5.2859   20.9300  -17.8602 O   0  0  0  0  0  0  0  0  0  0  0  0
   -5.6313   22.5835  -16.2299 N   0  0  0  0  0  0  0  0  0  0  0  0
   -4.6192   22.1950  -15.2343 C   0  0  0  0  0  0  0  0  0  0  0  0
   -4.9281   22.9560  -13.9779 C   0  0  0  0  0  0  0  0  0  0  0  0
   -6.2304   23.6293  -14.2250 C   0  0  0  0  0  0  0  0  0  0  0  0
   -6.2769   23.7835  -15.7400 C   0  0  0  0  0  0  0  0  0  0  0  0
   -5.4144   24.9445  -16.1035 C   0  0  0  0  0  0  0  0  0  0  0  0
   -5.5627   26.1015  -15.3631 O   0  0  0  0  0  0  0  0  0  0  0  0
   -4.6060   24.8254  -17.0474 O   0  0  0  0  0  0  0  0  0  0  0  0
   -4.8509   26.8202  -15.4077 H   0  0  0  0  0  0  0  0  0  0  0  0
   -1.5934   24.1216  -22.7385 N   0  0  0  0  0  0  0  0  0  0  0  0
   -2.7702   23.4030  -23.0655 C   0  0  0  0  0  0  0  0  0  0  0  0
   -1.5881   25.1125  -23.0878 H   0  0  0  0  0  0  0  0  0  0  0  0
   -0.6971   23.6527  -22.9340 H   0  0  0  0  0  0  0  0  0  0  0  0
   -2.4974   21.9821  -23.5205 C   0  0  0  0  0  0  0  0  0  0  0  0
   -1.0893   21.8863  -23.9607 C   0  0  0  0  0  0  0  0  0  0  0  0
   -0.5712   22.2063  -25.1890 C   0  0  0  0  0  0  0  0  0  0  0  0
    0.7516   21.9886  -25.2212 N   0  0  0  0  0  0  0  0  0  0  0  0
    1.1035   21.5178  -23.9910 C   0  0  0  0  0  0  0  0  0  0  0  0
    2.3426   21.1489  -23.5259 C   0  0  0  0  0  0  0  0  0  0  0  0
    2.4392   20.6999  -22.2288 C   0  0  0  0  0  0  0  0  0  0  0  0
    1.3337   20.6149  -21.4008 C   0  0  0  0  0  0  0  0  0  0  0  0
    0.1024   20.9918  -21.8942 C   0  0  0  0  0  0  0  0  0  0  0  0
   -0.0396   21.4470  -23.1865 C   0  0  0  0  0  0  0  0  0  0  0  0
    1.4220   22.1402  -26.0231 H   0  0  0  0  0  0  0  0  0  0  0  0
 26 27  1  0  0  0
 27 30  1  0  0  0
 30 31  1  0  0  0
 31 32  2  0  0  0
 32 33  1  0  0  0
 33 34  1  0  0  0
 34 35  2  0  0  0
 35 36  1  0  0  0
 36 37  2  0  0  0
 37 38  1  0  0  0
 38 39  2  0  0  0
 27  1  1  0  0  0
  1  2  2  0  0  0
  1  3  1  0  0  0
  3  4  1  0  0  0
  4  5  1  0  0  0
  5  6  1  0  0  0
  6  7  1  0  0  0
  7  8  1  0  0  0
  8  9  2  0  0  0
  8 10  1  0  0  0
 10 11  1  0  0  0
 11 12  1  0  0  0
 12 13  1  0  0  0
 13 14  1  0  0  0
 14 15  1  0  0  0
 15 16  2  0  0  0
 15 17  1  0  0  0
 17 18  1  0  0  0
 18 19  1  0  0  0
 19 20  1  0  0  0
 20 21  1  0  0  0
 21 22  1  0  0  0
 22 23  1  0  0  0
 22 24  2  0  0  0
 39 31  1  0  0  0
  7  3  1  0  0  0
 14 10  1  0  0  0
 21 17  1  0  0  0
 39 34  1  0  0  0
 26 28  1  0  0  0
 26 29  1  0  0  0
 33 40  1  0  0  0
 23 25  1  0  0  0
M  END
> <minimizedAffinity>
-8.08261

> <CNNscore>
0.1887909174

> <CNNaffinity>
5.7860841751

> <CNN_VS>
1.0923601389

> <CNNaffinity_variance>
0.0902789384

$$$$
[H]OC(=O)[C@@]1([H])N(C(=O)[C@@]2([H])N(C(=O)[C@@]3([H])N(C(=O)[C@@]([H])(N([H])[H])C([H])([H])c4c([H])n([H])c5c([H])c([H])c([H])c([H])c45)C([H])([H])C([H])([H])C3([H])[H])C([H])([H])C([H])([H])C2([H])[H])C([H])([H])C([H])([H])C1([H])[H]


 40 44  0  0  0  0  0  0  0  0999 V2000
   -3.8729   23.5529  -22.7918 C   0  0  0  0  0  0  0  0  0  0  0  0
   -3.5843   24.1275  -21.6683 O   0  0  0  0  0  0  0  0  0  0  0  0
   -4.5055   24.2850  -23.8238 N   0  0  0  0  0  0  0  0  0  0  0  0
   -4.8793   23.8945  -25.1342 C   0  0  0  0  0  0  0  0  0  0  0  0
   -4.9701   25.1750  -25.9270 C   0  0  0  0  0  0  0  0  0  0  0  0
   -4.4354   26.2581  -24.9734 C   0  0  0  0  0  0  0  0  0  0  0  0
   -4.9231   25.6605  -23.6399 C   0  0  0  0  0  0  0  0  0  0  0  0
   -6.3655   25.8050  -23.4923 C   0  0  0  0  0  0  0  0  0  0  0  0
   -7.0736   26.2058  -24.4405 O   0  0  0  0  0  0  0  0  0  0  0  0
   -6.9862   25.4877  -22.2586 N   0  0  0  0  0  0  0  0  0  0  0  0
   -8.4214   25.6137  -21.9621 C   0  0  0  0  0  0  0  0  0  0  0  0
   -8.5771   25.4826  -20.4827 C   0  0  0  0  0  0  0  0  0  0  0  0
   -7.1670   25.6650  -19.9415 C   0  0  0  0  0  0  0  0  0  0  0  0
   -6.3754   24.9666  -21.0523 C   0  0  0  0  0  0  0  0  0  0  0  0
   -6.6298   23.5180  -20.8565 C   0  0  0  0  0  0  0  0  0  0  0  0
   -6.9682   22.8476  -21.8700 O   0  0  0  0  0  0  0  0  0  0  0  0
   -6.4870   22.9548  -19.5747 N   0  0  0  0  0  0  0  0  0  0  0  0
   -6.7325   21.5574  -19.1830 C   0  0  0  0  0  0  0  0  0  0  0  0
   -6.7862   21.5273  -17.6833 C   0  0  0  0  0  0  0  0  0  0  0  0
   -6.7546   22.9494  -17.2508 C   0  0  0  0  0  0  0  0  0  0  0  0
   -6.0377   23.6595  -18.3922 C   0  0  0  0  0  0  0  0  0  0  0  0
   -4.5766   23.4032  -18.2381 C   0  0  0  0  0  0  0  0  0  0  0  0
   -3.9140   22.8423  -19.3129 O   0  0  0  0  0  0  0  0  0  0  0  0
   -4.0205   23.7014  -17.1609 O   0  0  0  0  0  0  0  0  0  0  0  0
   -2.9026   22.8717  -19.3494 H   0  0  0  0  0  0  0  0  0  0  0  0
   -4.2739   21.3074  -21.9989 N   0  0  0  0  0  0  0  0  0  0  0  0
   -3.4757   22.1328  -22.8294 C   0  0  0  0  0  0  0  0  0  0  0  0
   -3.8820   21.1673  -21.0341 H   0  0  0  0  0  0  0  0  0  0  0  0
   -4.5931   20.4158  -22.4045 H   0  0  0  0  0  0  0  0  0  0  0  0
   -3.3512   21.6127  -24.2486 C   0  0  0  0  0  0  0  0  0  0  0  0
   -1.9617   21.8185  -24.7098 C   0  0  0  0  0  0  0  0  0  0  0  0
   -0.8057   21.6383  -23.9951 C   0  0  0  0  0  0  0  0  0  0  0  0
    0.2690   21.9238  -24.7446 N   0  0  0  0  0  0  0  0  0  0  0  0
   -0.1941   22.2974  -25.9712 C   0  0  0  0  0  0  0  0  0  0  0  0
    0.5132   22.6839  -27.0840 C   0  0  0  0  0  0  0  0  0  0  0  0
   -0.1941   23.0169  -28.2164 C   0  0  0  0  0  0  0  0  0  0  0  0
   -1.5766   22.9706  -28.2544 C   0  0  0  0  0  0  0  0  0  0  0  0
   -2.2605   22.5792  -27.1227 C   0  0  0  0  0  0  0  0  0  0  0  0
   -1.5925   22.2373  -25.9677 C   0  0  0  0  0  0  0  0  0  0  0  0
    1.2886   21.8797  -24.4728 H   0  0  0  0  0  0  0  0  0  0  0  0
 26 27  1  0  0  0
 27 30  1  0  0  0
 30 31  1  0  0  0
 31 32  2  0  0  0
 32 33  1  0  0  0
 33 34  1  0  0  0
 34 35  2  0  0  0
 35 36  1  0  0  0
 36 37  2  0  0  0
 37 38  1  0  0  0
 38 39  2  0  0  0
 27  1  1  0  0  0
  1  2  2  0  0  0
  1  3  1  0  0  0
  3  4  1  0  0  0
  4  5  1  0  0  0
  5  6  1  0  0  0
  6  7  1  0  0  0
  7  8  1  0  0  0
  8  9  2  0  0  0
  8 10  1  0  0  0
 10 11  1  0  0  0
 11 12  1  0  0  0
 12 13  1  0  0  0
 13 14  1  0  0  0
 14 15  1  0  0  0
 15 16  2  0  0  0
 15 17  1  0  0  0
 17 18  1  0  0  0
 18 19  1  0  0  0
 19 20  1  0  0  0
 20 21  1  0  0  0
 21 22  1  0  0  0
 22 23  1  0  0  0
 22 24  2  0  0  0
 39 31  1  0  0  0
  7  3  1  0  0  0
 14 10  1  0  0  0
 21 17  1  0  0  0
 39 34  1  0  0  0
 26 28  1  0  0  0
 26 29  1  0  0  0
 33 40  1  0  0  0
 23 25  1  0  0  0
M  END
> <minimizedAffinity>
-9.52358

> <CNNscore>
0.1768714935

> <CNNaffinity>
6.2081747055

> <CNN_VS>
1.0980491638

> <CNNaffinity_variance>
0.1996153593

$$$$
[H]OC(=O)[C@@]1([H])N(C(=O)[C@@]2([H])N(C(=O)[C@@]3([H])N(C(=O)[C@@]([H])(N([H])[H])C([H])([H])c4c([H])n([H])c5c([H])c([H])c([H])c([H])c45)C([H])([H])C([H])([H])C3([H])[H])C([H])([H])C([H])([H])C2([H])[H])C([H])([H])C([H])([H])C1([H])[H]


 40 44  0  0  0  0  0  0  0  0999 V2000
   -4.9199   24.1232  -22.1514 C   0  0  0  0  0  0  0  0  0  0  0  0
   -3.7921   24.2635  -21.5316 O   0  0  0  0  0  0  0  0  0  0  0  0
   -6.1396   24.2330  -21.4433 N   0  0  0  0  0  0  0  0  0  0  0  0
   -7.4795   24.1597  -21.9002 C   0  0  0  0  0  0  0  0  0  0  0  0
   -8.2997   24.8903  -20.8657 C   0  0  0  0  0  0  0  0  0  0  0  0
   -7.2594   25.5133  -19.9180 C   0  0  0  0  0  0  0  0  0  0  0  0
   -6.1755   24.4223  -20.0070 C   0  0  0  0  0  0  0  0  0  0  0  0
   -6.5728   23.2223  -19.2822 C   0  0  0  0  0  0  0  0  0  0  0  0
   -7.7709   22.8731  -19.2212 O   0  0  0  0  0  0  0  0  0  0  0  0
   -5.5932   22.4303  -18.6332 N   0  0  0  0  0  0  0  0  0  0  0  0
   -5.8549   21.2159  -17.8456 C   0  0  0  0  0  0  0  0  0  0  0  0
   -4.6020   20.8999  -17.0969 C   0  0  0  0  0  0  0  0  0  0  0  0
   -3.7779   22.1752  -17.1935 C   0  0  0  0  0  0  0  0  0  0  0  0
   -4.1563   22.6162  -18.6114 C   0  0  0  0  0  0  0  0  0  0  0  0
   -3.4399   21.6796  -19.5120 C   0  0  0  0  0  0  0  0  0  0  0  0
   -4.1322   21.0369  -20.3479 O   0  0  0  0  0  0  0  0  0  0  0  0
   -2.0432   21.5446  -19.4048 N   0  0  0  0  0  0  0  0  0  0  0  0
   -1.1730   20.6443  -20.1785 C   0  0  0  0  0  0  0  0  0  0  0  0
    0.1523   20.6069  -19.4749 C   0  0  0  0  0  0  0  0  0  0  0  0
   -0.0472   21.3470  -18.2011 C   0  0  0  0  0  0  0  0  0  0  0  0
   -1.1913   22.3034  -18.5130 C   0  0  0  0  0  0  0  0  0  0  0  0
   -0.6273   23.4468  -19.2866 C   0  0  0  0  0  0  0  0  0  0  0  0
   -1.2902   23.8212  -20.4397 O   0  0  0  0  0  0  0  0  0  0  0  0
    0.4047   24.0104  -18.8673 O   0  0  0  0  0  0  0  0  0  0  0  0
   -1.0954   24.7214  -20.8603 H   0  0  0  0  0  0  0  0  0  0  0  0
   -4.1700   24.9307  -24.3002 N   0  0  0  0  0  0  0  0  0  0  0  0
   -4.7538   23.8512  -23.5916 C   0  0  0  0  0  0  0  0  0  0  0  0
   -4.8695   25.5890  -24.7262 H   0  0  0  0  0  0  0  0  0  0  0  0
   -3.4252   24.6932  -24.9710 H   0  0  0  0  0  0  0  0  0  0  0  0
   -4.0636   22.5249  -23.8457 C   0  0  0  0  0  0  0  0  0  0  0  0
   -3.4343   22.5653  -25.1828 C   0  0  0  0  0  0  0  0  0  0  0  0
   -4.0500   22.7479  -26.3941 C   0  0  0  0  0  0  0  0  0  0  0  0
   -3.1558   22.7253  -27.3931 N   0  0  0  0  0  0  0  0  0  0  0  0
   -1.9336   22.5241  -26.8233 C   0  0  0  0  0  0  0  0  0  0  0  0
   -0.7024   22.4249  -27.4251 C   0  0  0  0  0  0  0  0  0  0  0  0
    0.3954   22.2186  -26.6216 C   0  0  0  0  0  0  0  0  0  0  0  0
    0.2846   22.1114  -25.2464 C   0  0  0  0  0  0  0  0  0  0  0  0
   -0.9637   22.2148  -24.6695 C   0  0  0  0  0  0  0  0  0  0  0  0
   -2.0892   22.4213  -25.4361 C   0  0  0  0  0  0  0  0  0  0  0  0
   -3.3268   22.8376  -28.4292 H   0  0  0  0  0  0  0  0  0  0  0  0
 26 27  1  0  0  0
 27 30  1  0  0  0
 30 31  1  0  0  0
 31 32  2  0  0  0
 32 33  1  0  0  0
 33 34  1  0  0  0
 34 35  2  0  0  0
 35 36  1  0  0  0
 36 37  2  0  0  0
 37 38  1  0  0  0
 38 39  2  0  0  0
 27  1  1  0  0  0
  1  2  2  0  0  0
  1  3  1  0  0  0
  3  4  1  0  0  0
  4  5  1  0  0  0
  5  6  1  0  0  0
  6  7  1  0  0  0
  7  8  1  0  0  0
  8  9  2  0  0  0
  8 10  1  0  0  0
 10 11  1  0  0  0
 11 12  1  0  0  0
 12 13  1  0  0  0
 13 14  1  0  0  0
 14 15  1  0  0  0
 15 16  2  0  0  0
 15 17  1  0  0  0
 17 18  1  0  0  0
 18 19  1  0  0  0
 19 20  1  0  0  0
 20 21  1  0  0  0
 21 22  1  0  0  0
 22 23  1  0  0  0
 22 24  2  0  0  0
 39 31  1  0  0  0
  7  3  1  0  0  0
 14 10  1  0  0  0
 21 17  1  0  0  0
 39 34  1  0  0  0
 26 28  1  0  0  0
 26 29  1  0  0  0
 33 40  1  0  0  0
 23 25  1  0  0  0
M  END
> <minimizedAffinity>
-8.81425

> <CNNscore>
0.1602581590

> <CNNaffinity>
5.7486515045

> <CNN_VS>
0.9212682843

> <CNNaffinity_variance>
0.6456929445

$$$$
[H]OC(=O)[C@@]1([H])N(C(=O)[C@@]2([H])N(C(=O)[C@@]3([H])N(C(=O)[C@@]([H])(N([H])[H])C([H])([H])c4c([H])n([H])c5c([H])c([H])c([H])c([H])c45)C([H])([H])C([H])([H])C3([H])[H])C([H])([H])C([H])([H])C2([H])[H])C([H])([H])C([H])([H])C1([H])[H]


 40 44  0  0  0  0  0  0  0  0999 V2000
   -5.2107   24.5736  -24.1664 C   0  0  0  0  0  0  0  0  0  0  0  0
   -4.0858   24.5381  -23.5267 O   0  0  0  0  0  0  0  0  0  0  0  0
   -6.4312   24.6556  -23.4558 N   0  0  0  0  0  0  0  0  0  0  0  0
   -7.7657   24.7464  -23.9251 C   0  0  0  0  0  0  0  0  0  0  0  0
   -8.5510   25.3619  -22.7933 C   0  0  0  0  0  0  0  0  0  0  0  0
   -7.4862   25.7570  -21.7548 C   0  0  0  0  0  0  0  0  0  0  0  0
   -6.4766   24.6212  -22.0078 C   0  0  0  0  0  0  0  0  0  0  0  0
   -6.9647   23.3533  -21.4812 C   0  0  0  0  0  0  0  0  0  0  0  0
   -8.1426   22.9850  -21.6763 O   0  0  0  0  0  0  0  0  0  0  0  0
   -6.0984   22.5159  -20.7354 N   0  0  0  0  0  0  0  0  0  0  0  0
   -6.4644   21.2294  -20.1234 C   0  0  0  0  0  0  0  0  0  0  0  0
   -5.3622   20.8598  -19.1862 C   0  0  0  0  0  0  0  0  0  0  0  0
   -4.5727   22.1487  -19.0119 C   0  0  0  0  0  0  0  0  0  0  0  0
   -4.6963   22.7168  -20.4297 C   0  0  0  0  0  0  0  0  0  0  0  0
   -3.7986   21.8784  -21.2620 C   0  0  0  0  0  0  0  0  0  0  0  0
   -4.2706   21.4150  -22.3361 O   0  0  0  0  0  0  0  0  0  0  0  0
   -2.4803   21.6355  -20.8336 N   0  0  0  0  0  0  0  0  0  0  0  0
   -1.4656   20.8037  -21.5006 C   0  0  0  0  0  0  0  0  0  0  0  0
   -0.3665   20.5732  -20.5046 C   0  0  0  0  0  0  0  0  0  0  0  0
   -0.8659   21.1276  -19.2187 C   0  0  0  0  0  0  0  0  0  0  0  0
   -1.8654   22.1943  -19.6478 C   0  0  0  0  0  0  0  0  0  0  0  0
   -1.0910   23.3995  -20.0623 C   0  0  0  0  0  0  0  0  0  0  0  0
   -1.4275   23.9865  -21.2670 O   0  0  0  0  0  0  0  0  0  0  0  0
   -0.1843   23.8224  -19.3155 O   0  0  0  0  0  0  0  0  0  0  0  0
   -1.1067   24.9241  -21.4750 H   0  0  0  0  0  0  0  0  0  0  0  0
   -4.0661   25.4258  -26.1146 N   0  0  0  0  0  0  0  0  0  0  0  0
   -5.0408   24.5181  -25.6305 C   0  0  0  0  0  0  0  0  0  0  0  0
   -4.4586   26.3538  -26.4127 H   0  0  0  0  0  0  0  0  0  0  0  0
   -3.4018   25.0607  -26.8122 H   0  0  0  0  0  0  0  0  0  0  0  0
   -4.8376   23.0997  -26.1278 C   0  0  0  0  0  0  0  0  0  0  0  0
   -3.5633   23.0361  -26.8744 C   0  0  0  0  0  0  0  0  0  0  0  0
   -3.3549   23.3070  -28.2021 C   0  0  0  0  0  0  0  0  0  0  0  0
   -2.0645   23.1413  -28.5270 N   0  0  0  0  0  0  0  0  0  0  0  0
   -1.4186   22.7549  -27.3903 C   0  0  0  0  0  0  0  0  0  0  0  0
   -0.0887   22.4628  -27.2056 C   0  0  0  0  0  0  0  0  0  0  0  0
    0.3231   22.0917  -25.9462 C   0  0  0  0  0  0  0  0  0  0  0  0
   -0.5596   22.0090  -24.8836 C   0  0  0  0  0  0  0  0  0  0  0  0
   -1.8887   22.3078  -25.0980 C   0  0  0  0  0  0  0  0  0  0  0  0
   -2.3439   22.6835  -26.3426 C   0  0  0  0  0  0  0  0  0  0  0  0
   -1.6026   23.2743  -29.4674 H   0  0  0  0  0  0  0  0  0  0  0  0
 26 27  1  0  0  0
 27 30  1  0  0  0
 30 31  1  0  0  0
 31 32  2  0  0  0
 32 33  1  0  0  0
 33 34  1  0  0  0
 34 35  2  0  0  0
 35 36  1  0  0  0
 36 37  2  0  0  0
 37 38  1  0  0  0
 38 39  2  0  0  0
 27  1  1  0  0  0
  1  2  2  0  0  0
  1  3  1  0  0  0
  3  4  1  0  0  0
  4  5  1  0  0  0
  5  6  1  0  0  0
  6  7  1  0  0  0
  7  8  1  0  0  0
  8  9  2  0  0  0
  8 10  1  0  0  0
 10 11  1  0  0  0
 11 12  1  0  0  0
 12 13  1  0  0  0
 13 14  1  0  0  0
 14 15  1  0  0  0
 15 16  2  0  0  0
 15 17  1  0  0  0
 17 18  1  0  0  0
 18 19  1  0  0  0
 19 20  1  0  0  0
 20 21  1  0  0  0
 21 22  1  0  0  0
 22 23  1  0  0  0
 22 24  2  0  0  0
 39 31  1  0  0  0
  7  3  1  0  0  0
 14 10  1  0  0  0
 21 17  1  0  0  0
 39 34  1  0  0  0
 26 28  1  0  0  0
 26 29  1  0  0  0
 33 40  1  0  0  0
 23 25  1  0  0  0
M  END
> <minimizedAffinity>
-9.48215

> <CNNscore>
0.1597782224

> <CNNaffinity>
6.0736527443

> <CNN_VS>
0.9704374671

> <CNNaffinity_variance>
0.6014836431

$$$$
[H]c1nc(Cl)c([H])c([H])c1C(=O)N1C([H])([H])C2([H])C([H])([H])N([H])C([H])([H])C([H])(C1([H])[H])C2([H])[H]


 19 21  0  0  0  0  0  0  0  0999 V2000
   -1.4114   21.8000  -22.9240 C   0  0  0  0  0  0  0  0  0  0  0  0
   -0.9224   20.6848  -22.4169 O   0  0  0  0  0  0  0  0  0  0  0  0
   -2.2425   22.4771  -22.0517 N   0  0  0  0  0  0  0  0  0  0  0  0
   -2.5022   21.8173  -20.7308 C   0  0  0  0  0  0  0  0  0  0  0  0
   -4.0110   21.7941  -20.5430 C   0  0  0  0  0  0  0  0  0  0  0  0
   -4.5121   22.8234  -19.5875 C   0  0  0  0  0  0  0  0  0  0  0  0
   -5.4702   23.7462  -20.1014 N   0  0  0  0  0  0  0  0  0  0  0  0
   -5.1721   24.3500  -21.3595 C   0  0  0  0  0  0  0  0  0  0  0  0
   -4.4164   23.4442  -22.2959 C   0  0  0  0  0  0  0  0  0  0  0  0
   -4.6516   21.9938  -21.9030 C   0  0  0  0  0  0  0  0  0  0  0  0
   -2.9166   23.7370  -22.1312 C   0  0  0  0  0  0  0  0  0  0  0  0
   -6.4593   23.4439  -19.9919 H   0  0  0  0  0  0  0  0  0  0  0  0
   -0.1030   23.1232  -28.6411 Cl  0  0  0  0  0  0  0  0  0  0  0  0
   -0.4344   22.7371  -26.9694 C   0  0  0  0  0  0  0  0  0  0  0  0
   -1.6953   22.3456  -26.6056 C   0  0  0  0  0  0  0  0  0  0  0  0
   -1.9658   22.0388  -25.2911 C   0  0  0  0  0  0  0  0  0  0  0  0
   -0.9967   22.1067  -24.2766 C   0  0  0  0  0  0  0  0  0  0  0  0
    0.2395   22.5036  -24.6982 C   0  0  0  0  0  0  0  0  0  0  0  0
    0.4980   22.8062  -26.0104 N   0  0  0  0  0  0  0  0  0  0  0  0
 13 14  1  0  0  0
 14 15  2  0  0  0
 15 16  1  0  0  0
 16 17  2  0  0  0
 17 18  1  0  0  0
 18 19  2  0  0  0
 17  1  1  0  0  0
  1  2  2  0  0  0
  1  3  1  0  0  0
  3  4  1  0  0  0
  4  5  1  0  0  0
  5  6  1  0  0  0
  6  7  1  0  0  0
  7  8  1  0  0  0
  8  9  1  0  0  0
  9 10  1  0  0  0
  9 11  1  0  0  0
 19 14  1  0  0  0
 11  3  1  0  0  0
 10  5  1  0  0  0
  7 12  1  0  0  0
M  END
> <minimizedAffinity>
-6.25054

> <CNNscore>
0.6894232035

> <CNNaffinity>
5.3017530441

> <CNN_VS>
3.6551516056

> <CNNaffinity_variance>
0.3230050206

$$$$
[H]c1nc(Cl)c([H])c([H])c1C(=O)N1C([H])([H])C2([H])C([H])([H])N([H])C([H])([H])C([H])(C1([H])[H])C2([H])[H]


 19 21  0  0  0  0  0  0  0  0999 V2000
   -5.2279   23.5964  -26.3436 C   0  0  0  0  0  0  0  0  0  0  0  0
   -5.9184   23.8091  -27.4472 O   0  0  0  0  0  0  0  0  0  0  0  0
   -5.9668   23.7921  -25.1922 N   0  0  0  0  0  0  0  0  0  0  0  0
   -7.3760   24.2689  -25.3772 C   0  0  0  0  0  0  0  0  0  0  0  0
   -7.5488   25.4818  -24.4766 C   0  0  0  0  0  0  0  0  0  0  0  0
   -8.3147   25.1981  -23.2291 C   0  0  0  0  0  0  0  0  0  0  0  0
   -7.6445   25.4767  -22.0015 N   0  0  0  0  0  0  0  0  0  0  0  0
   -6.3069   24.9960  -21.8749 C   0  0  0  0  0  0  0  0  0  0  0  0
   -5.5420   25.0007  -23.1723 C   0  0  0  0  0  0  0  0  0  0  0  0
   -6.1677   26.0034  -24.1296 C   0  0  0  0  0  0  0  0  0  0  0  0
   -5.6719   23.6056  -23.8042 C   0  0  0  0  0  0  0  0  0  0  0  0
   -7.7920   26.4410  -21.6410 H   0  0  0  0  0  0  0  0  0  0  0  0
    0.4914   22.1631  -27.5191 Cl  0  0  0  0  0  0  0  0  0  0  0  0
   -1.1658   22.5595  -27.1321 C   0  0  0  0  0  0  0  0  0  0  0  0
   -2.0201   22.9358  -28.1341 C   0  0  0  0  0  0  0  0  0  0  0  0
   -3.3277   23.2494  -27.8390 C   0  0  0  0  0  0  0  0  0  0  0  0
   -3.8477   23.2041  -26.5350 C   0  0  0  0  0  0  0  0  0  0  0  0
   -2.9505   22.8240  -25.5790 C   0  0  0  0  0  0  0  0  0  0  0  0
   -1.6503   22.5132  -25.8843 N   0  0  0  0  0  0  0  0  0  0  0  0
 13 14  1  0  0  0
 14 15  2  0  0  0
 15 16  1  0  0  0
 16 17  2  0  0  0
 17 18  1  0  0  0
 18 19  2  0  0  0
 17  1  1  0  0  0
  1  2  2  0  0  0
  1  3  1  0  0  0
  3  4  1  0  0  0
  4  5  1  0  0  0
  5  6  1  0  0  0
  6  7  1  0  0  0
  7  8  1  0  0  0
  8  9  1  0  0  0
  9 10  1  0  0  0
  9 11  1  0  0  0
 19 14  1  0  0  0
 11  3  1  0  0  0
 10  5  1  0  0  0
  7 12  1  0  0  0
M  END
> <minimizedAffinity>
-6.90886

> <CNNscore>
0.5641097426

> <CNNaffinity>
5.5560488701

> <CNN_VS>
3.1342213154

> <CNNaffinity_variance>
0.2067348063

$$$$
[H]c1nc(Cl)c([H])c([H])c1C(=O)N1C([H])([H])C2([H])C([H])([H])N([H])C([H])([H])C([H])(C1([H])[H])C2([H])[H]


 19 21  0  0  0  0  0  0  0  0999 V2000
   -2.9507   22.9567  -25.1870 C   0  0  0  0  0  0  0  0  0  0  0  0
   -3.1332   23.4397  -26.4008 O   0  0  0  0  0  0  0  0  0  0  0  0
   -4.0995   22.9650  -24.4186 N   0  0  0  0  0  0  0  0  0  0  0  0
   -5.3184   23.5695  -25.0483 C   0  0  0  0  0  0  0  0  0  0  0  0
   -5.8672   24.5815  -24.0550 C   0  0  0  0  0  0  0  0  0  0  0  0
   -7.0709   24.1041  -23.3157 C   0  0  0  0  0  0  0  0  0  0  0  0
   -6.9668   24.0768  -21.8938 N   0  0  0  0  0  0  0  0  0  0  0  0
   -5.7893   23.4857  -21.3457 C   0  0  0  0  0  0  0  0  0  0  0  0
   -4.5609   23.7009  -22.1901 C   0  0  0  0  0  0  0  0  0  0  0  0
   -4.7589   24.9206  -23.0769 C   0  0  0  0  0  0  0  0  0  0  0  0
   -4.3947   22.4778  -23.1058 C   0  0  0  0  0  0  0  0  0  0  0  0
   -7.2669   24.9550  -21.4242 H   0  0  0  0  0  0  0  0  0  0  0  0
    2.4866   20.9734  -23.5596 Cl  0  0  0  0  0  0  0  0  0  0  0  0
    0.9251   21.5624  -24.0771 C   0  0  0  0  0  0  0  0  0  0  0  0
   -0.0623   21.7588  -23.1488 C   0  0  0  0  0  0  0  0  0  0  0  0
   -1.2957   22.2231  -23.5468 C   0  0  0  0  0  0  0  0  0  0  0  0
   -1.6059   22.5139  -24.8856 C   0  0  0  0  0  0  0  0  0  0  0  0
   -0.5842   22.2978  -25.7648 C   0  0  0  0  0  0  0  0  0  0  0  0
    0.6407   21.8356  -25.3571 N   0  0  0  0  0  0  0  0  0  0  0  0
 13 14  1  0  0  0
 14 15  2  0  0  0
 15 16  1  0  0  0
 16 17  2  0  0  0
 17 18  1  0  0  0
 18 19  2  0  0  0
 17  1  1  0  0  0
  1  2  2  0  0  0
  1  3  1  0  0  0
  3  4  1  0  0  0
  4  5  1  0  0  0
  5  6  1  0  0  0
  6  7  1  0  0  0
  7  8  1  0  0  0
  8  9  1  0  0  0
  9 10  1  0  0  0
  9 11  1  0  0  0
 19 14  1  0  0  0
 11  3  1  0  0  0
 10  5  1  0  0  0
  7 12  1  0  0  0
M  END
> <minimizedAffinity>
-5.96827

> <CNNscore>
0.4793907404

> <CNNaffinity>
5.3510499001

> <CNN_VS>
2.5652437210

> <CNNaffinity_variance>
0.1992077380

$$$$
[H]c1nc(Cl)c([H])c([H])c1C(=O)N1C([H])([H])C2([H])C([H])([H])N([H])C([H])([H])C([H])(C1([H])[H])C2([H])[H]


 19 21  0  0  0  0  0  0  0  0999 V2000
   -1.5858   22.5672  -26.6755 C   0  0  0  0  0  0  0  0  0  0  0  0
   -0.8067   22.8171  -27.7102 O   0  0  0  0  0  0  0  0  0  0  0  0
   -2.9318   22.6869  -26.9652 N   0  0  0  0  0  0  0  0  0  0  0  0
   -3.2777   23.1371  -28.3527 C   0  0  0  0  0  0  0  0  0  0  0  0
   -4.2475   24.2991  -28.2062 C   0  0  0  0  0  0  0  0  0  0  0  0
   -5.6663   23.9347  -28.4847 C   0  0  0  0  0  0  0  0  0  0  0  0
   -6.5955   24.1686  -27.4286 N   0  0  0  0  0  0  0  0  0  0  0  0
   -6.2198   23.7157  -26.1285 C   0  0  0  0  0  0  0  0  0  0  0  0
   -4.7392   23.8038  -25.8668 C   0  0  0  0  0  0  0  0  0  0  0  0
   -4.1181   24.8370  -26.7942 C   0  0  0  0  0  0  0  0  0  0  0  0
   -4.1166   22.4391  -26.2016 C   0  0  0  0  0  0  0  0  0  0  0  0
   -7.0376   25.1099  -27.4461 H   0  0  0  0  0  0  0  0  0  0  0  0
    0.8826   20.9551  -21.4358 Cl  0  0  0  0  0  0  0  0  0  0  0  0
    0.2101   21.4390  -22.9742 C   0  0  0  0  0  0  0  0  0  0  0  0
   -1.1489   21.5285  -23.1171 C   0  0  0  0  0  0  0  0  0  0  0  0
   -1.6881   21.9095  -24.3252 C   0  0  0  0  0  0  0  0  0  0  0  0
   -0.9026   22.2193  -25.4476 C   0  0  0  0  0  0  0  0  0  0  0  0
    0.4432   22.1114  -25.2459 C   0  0  0  0  0  0  0  0  0  0  0  0
    0.9695   21.7315  -24.0380 N   0  0  0  0  0  0  0  0  0  0  0  0
 13 14  1  0  0  0
 14 15  2  0  0  0
 15 16  1  0  0  0
 16 17  2  0  0  0
 17 18  1  0  0  0
 18 19  2  0  0  0
 17  1  1  0  0  0
  1  2  2  0  0  0
  1  3  1  0  0  0
  3  4  1  0  0  0
  4  5  1  0  0  0
  5  6  1  0  0  0
  6  7  1  0  0  0
  7  8  1  0  0  0
  8  9  1  0  0  0
  9 10  1  0  0  0
  9 11  1  0  0  0
 19 14  1  0  0  0
 11  3  1  0  0  0
 10  5  1  0  0  0
  7 12  1  0  0  0
M  END
> <minimizedAffinity>
-7.29955

> <CNNscore>
0.4723500609

> <CNNaffinity>
5.9540386200

> <CNN_VS>
2.8123905659

> <CNNaffinity_variance>
0.4781259894

$$$$
[H]c1nc(Cl)c([H])c([H])c1C(=O)N1C([H])([H])C2([H])C([H])([H])N([H])C([H])([H])C([H])(C1([H])[H])C2([H])[H]


 19 21  0  0  0  0  0  0  0  0999 V2000
   -6.6719   21.4056  -19.4390 C   0  0  0  0  0  0  0  0  0  0  0  0
   -7.2857   20.2519  -19.6186 O   0  0  0  0  0  0  0  0  0  0  0  0
   -7.5363   22.4833  -19.4036 N   0  0  0  0  0  0  0  0  0  0  0  0
   -8.9863   22.1830  -19.6382 C   0  0  0  0  0  0  0  0  0  0  0  0
   -9.4609   23.1387  -20.7214 C   0  0  0  0  0  0  0  0  0  0  0  0
  -10.2725   24.2771  -20.2029 C   0  0  0  0  0  0  0  0  0  0  0  0
   -9.7802   25.5841  -20.4911 N   0  0  0  0  0  0  0  0  0  0  0  0
   -8.3943   25.8188  -20.2451 C   0  0  0  0  0  0  0  0  0  0  0  0
   -7.5279   24.6122  -20.4938 C   0  0  0  0  0  0  0  0  0  0  0  0
   -8.2370   23.6629  -21.4474 C   0  0  0  0  0  0  0  0  0  0  0  0
   -7.3406   23.8791  -19.1559 C   0  0  0  0  0  0  0  0  0  0  0  0
  -10.1350   25.9902  -21.3805 H   0  0  0  0  0  0  0  0  0  0  0  0
   -0.6625   21.3778  -19.2545 Cl  0  0  0  0  0  0  0  0  0  0  0  0
   -2.4097   21.3580  -19.2667 C   0  0  0  0  0  0  0  0  0  0  0  0
   -3.0802   21.7642  -20.3895 C   0  0  0  0  0  0  0  0  0  0  0  0
   -4.4567   21.7516  -20.4089 C   0  0  0  0  0  0  0  0  0  0  0  0
   -5.2314   21.3350  -19.3138 C   0  0  0  0  0  0  0  0  0  0  0  0
   -4.5091   20.9429  -18.2238 C   0  0  0  0  0  0  0  0  0  0  0  0
   -3.1380   20.9590  -18.2158 N   0  0  0  0  0  0  0  0  0  0  0  0
 13 14  1  0  0  0
 14 15  2  0  0  0
 15 16  1  0  0  0
 16 17  2  0  0  0
 17 18  1  0  0  0
 18 19  2  0  0  0
 17  1  1  0  0  0
  1  2  2  0  0  0
  1  3  1  0  0  0
  3  4  1  0  0  0
  4  5  1  0  0  0
  5  6  1  0  0  0
  6  7  1  0  0  0
  7  8  1  0  0  0
  8  9  1  0  0  0
  9 10  1  0  0  0
  9 11  1  0  0  0
 19 14  1  0  0  0
 11  3  1  0  0  0
 10  5  1  0  0  0
  7 12  1  0  0  0
M  END
> <minimizedAffinity>
-3.96762

> <CNNscore>
0.4521390498

> <CNNaffinity>
4.0509781837

> <CNN_VS>
1.8316054344

> <CNNaffinity_variance>
0.1397385299

$$$$
[H]c1nc(Cl)c([H])c([H])c1C(=O)N1C([H])([H])C2([H])C([H])([H])N([H])C([H])([H])C([H])(C1([H])[H])C2([H])[H]


 19 21  0  0  0  0  0  0  0  0999 V2000
   -2.0655   21.8140  -22.1635 C   0  0  0  0  0  0  0  0  0  0  0  0
   -3.3517   22.1061  -22.1764 O   0  0  0  0  0  0  0  0  0  0  0  0
   -1.5963   21.4744  -20.9087 N   0  0  0  0  0  0  0  0  0  0  0  0
   -2.5827   21.5578  -19.7829 C   0  0  0  0  0  0  0  0  0  0  0  0
   -1.9269   22.3834  -18.6873 C   0  0  0  0  0  0  0  0  0  0  0  0
   -1.4171   21.5693  -17.5468 C   0  0  0  0  0  0  0  0  0  0  0  0
   -0.0256   21.6902  -17.2592 N   0  0  0  0  0  0  0  0  0  0  0  0
    0.8709   21.5984  -18.3655 C   0  0  0  0  0  0  0  0  0  0  0  0
    0.3099   22.1687  -19.6416 C   0  0  0  0  0  0  0  0  0  0  0  0
   -0.7897   23.1672  -19.3139 C   0  0  0  0  0  0  0  0  0  0  0  0
   -0.3250   21.0169  -20.4369 C   0  0  0  0  0  0  0  0  0  0  0  0
    0.2082   22.4388  -16.5759 H   0  0  0  0  0  0  0  0  0  0  0  0
    0.3730   22.3368  -27.6341 Cl  0  0  0  0  0  0  0  0  0  0  0  0
   -0.2915   22.1696  -26.0267 C   0  0  0  0  0  0  0  0  0  0  0  0
   -1.6498   22.1926  -25.8535 C   0  0  0  0  0  0  0  0  0  0  0  0
   -2.1827   22.0610  -24.5910 C   0  0  0  0  0  0  0  0  0  0  0  0
   -1.3914   21.9005  -23.4416 C   0  0  0  0  0  0  0  0  0  0  0  0
   -0.0466   21.8863  -23.6758 C   0  0  0  0  0  0  0  0  0  0  0  0
    0.4734   22.0176  -24.9378 N   0  0  0  0  0  0  0  0  0  0  0  0
 13 14  1  0  0  0
 14 15  2  0  0  0
 15 16  1  0  0  0
 16 17  2  0  0  0
 17 18  1  0  0  0
 18 19  2  0  0  0
 17  1  1  0  0  0
  1  2  2  0  0  0
  1  3  1  0  0  0
  3  4  1  0  0  0
  4  5  1  0  0  0
  5  6  1  0  0  0
  6  7  1  0  0  0
  7  8  1  0  0  0
  8  9  1  0  0  0
  9 10  1  0  0  0
  9 11  1  0  0  0
 19 14  1  0  0  0
 11  3  1  0  0  0
 10  5  1  0  0  0
  7 12  1  0  0  0
M  END
> <minimizedAffinity>
-5.63344

> <CNNscore>
0.4439175725

> <CNNaffinity>
4.7258858681

> <CNN_VS>
2.0979037285

> <CNNaffinity_variance>
0.0805543587

$$$$
[H]c1nc(Cl)c([H])c([H])c1C(=O)N1C([H])([H])C2([H])C([H])([H])N([H])C([H])([H])C([H])(C1([H])[H])C2([H])[H]


 19 21  0  0  0  0  0  0  0  0999 V2000
   -7.0337   22.1215  -20.6124 C   0  0  0  0  0  0  0  0  0  0  0  0
   -7.7322   21.0038  -20.6664 O   0  0  0  0  0  0  0  0  0  0  0  0
   -7.7834   23.2143  -20.2204 N   0  0  0  0  0  0  0  0  0  0  0  0
   -9.2454   22.9730  -19.9931 C   0  0  0  0  0  0  0  0  0  0  0  0
   -9.9922   24.0299  -20.7914 C   0  0  0  0  0  0  0  0  0  0  0  0
  -10.5336   25.1405  -19.9565 C   0  0  0  0  0  0  0  0  0  0  0  0
  -10.0923   26.4541  -20.2931 N   0  0  0  0  0  0  0  0  0  0  0  0
   -8.6905   26.6308  -20.4936 C   0  0  0  0  0  0  0  0  0  0  0  0
   -8.0142   25.4278  -21.0968 C   0  0  0  0  0  0  0  0  0  0  0  0
   -9.0407   24.5824  -21.8351 C   0  0  0  0  0  0  0  0  0  0  0  0
   -7.4457   24.5783  -19.9490 C   0  0  0  0  0  0  0  0  0  0  0  0
  -10.6921   26.9440  -20.9874 H   0  0  0  0  0  0  0  0  0  0  0  0
   -1.2941   21.9202  -22.3911 Cl  0  0  0  0  0  0  0  0  0  0  0  0
   -2.9510   21.9476  -21.8368 C   0  0  0  0  0  0  0  0  0  0  0  0
   -3.9253   22.4609  -22.6508 C   0  0  0  0  0  0  0  0  0  0  0  0
   -5.2336   22.4862  -22.2230 C   0  0  0  0  0  0  0  0  0  0  0  0
   -5.6352   22.0030  -20.9668 C   0  0  0  0  0  0  0  0  0  0  0  0
   -4.6217   21.5051  -20.1997 C   0  0  0  0  0  0  0  0  0  0  0  0
   -3.3219   21.4842  -20.6361 N   0  0  0  0  0  0  0  0  0  0  0  0
 13 14  1  0  0  0
 14 15  2  0  0  0
 15 16  1  0  0  0
 16 17  2  0  0  0
 17 18  1  0  0  0
 18 19  2  0  0  0
 17  1  1  0  0  0
  1  2  2  0  0  0
  1  3  1  0  0  0
  3  4  1  0  0  0
  4  5  1  0  0  0
  5  6  1  0  0  0
  6  7  1  0  0  0
  7  8  1  0  0  0
  8  9  1  0  0  0
  9 10  1  0  0  0
  9 11  1  0  0  0
 19 14  1  0  0  0
 11  3  1  0  0  0
 10  5  1  0  0  0
  7 12  1  0  0  0
M  END
> <minimizedAffinity>
-4.73883

> <CNNscore>
0.3949856758

> <CNNaffinity>
4.3732995987

> <CNN_VS>
1.7273906469

> <CNNaffinity_variance>
0.0834014341

$$$$
[H]c1nc(Cl)c([H])c([H])c1C(=O)N1C([H])([H])C2([H])C([H])([H])N([H])C([H])([H])C([H])(C1([H])[H])C2([H])[H]


 19 21  0  0  0  0  0  0  0  0999 V2000
   -3.9343   22.4485  -23.9215 C   0  0  0  0  0  0  0  0  0  0  0  0
   -4.2794   21.3328  -23.3084 O   0  0  0  0  0  0  0  0  0  0  0  0
   -4.7415   23.5219  -23.5954 N   0  0  0  0  0  0  0  0  0  0  0  0
   -5.8906   23.2367  -22.6758 C   0  0  0  0  0  0  0  0  0  0  0  0
   -7.1334   23.8096  -23.3386 C   0  0  0  0  0  0  0  0  0  0  0  0
   -7.5938   25.0952  -22.7396 C   0  0  0  0  0  0  0  0  0  0  0  0
   -7.6756   26.2093  -23.6260 N   0  0  0  0  0  0  0  0  0  0  0  0
   -6.5529   26.4395  -24.4761 C   0  0  0  0  0  0  0  0  0  0  0  0
   -5.8611   25.1749  -24.9125 C   0  0  0  0  0  0  0  0  0  0  0  0
   -6.8269   24.0042  -24.8110 C   0  0  0  0  0  0  0  0  0  0  0  0
   -4.7001   24.9100  -23.9409 C   0  0  0  0  0  0  0  0  0  0  0  0
   -8.5990   26.3206  -24.0917 H   0  0  0  0  0  0  0  0  0  0  0  0
    0.5667   22.2316  -27.9016 Cl  0  0  0  0  0  0  0  0  0  0  0  0
   -0.7110   22.2747  -26.7106 C   0  0  0  0  0  0  0  0  0  0  0  0
   -2.0011   22.4949  -27.1141 C   0  0  0  0  0  0  0  0  0  0  0  0
   -3.0146   22.5301  -26.1831 C   0  0  0  0  0  0  0  0  0  0  0  0
   -2.7942   22.3484  -24.8079 C   0  0  0  0  0  0  0  0  0  0  0  0
   -1.4901   22.1344  -24.4654 C   0  0  0  0  0  0  0  0  0  0  0  0
   -0.4885   22.1007  -25.4013 N   0  0  0  0  0  0  0  0  0  0  0  0
 13 14  1  0  0  0
 14 15  2  0  0  0
 15 16  1  0  0  0
 16 17  2  0  0  0
 17 18  1  0  0  0
 18 19  2  0  0  0
 17  1  1  0  0  0
  1  2  2  0  0  0
  1  3  1  0  0  0
  3  4  1  0  0  0
  4  5  1  0  0  0
  5  6  1  0  0  0
  6  7  1  0  0  0
  7  8  1  0  0  0
  8  9  1  0  0  0
  9 10  1  0  0  0
  9 11  1  0  0  0
 19 14  1  0  0  0
 11  3  1  0  0  0
 10  5  1  0  0  0
  7 12  1  0  0  0
M  END
> <minimizedAffinity>
-7.02952

> <CNNscore>
0.3668222129

> <CNNaffinity>
5.2043352127

> <CNN_VS>
1.9090657234

> <CNNaffinity_variance>
0.2246308029

$$$$
[H]c1nc(Cl)c([H])c([H])c1C(=O)N1C([H])([H])C2([H])C([H])([H])N([H])C([H])([H])C([H])(C1([H])[H])C2([H])[H]


 19 21  0  0  0  0  0  0  0  0999 V2000
   -4.6238   24.5051  -26.2650 C   0  0  0  0  0  0  0  0  0  0  0  0
   -3.4227   24.0273  -26.0022 O   0  0  0  0  0  0  0  0  0  0  0  0
   -5.2883   24.9578  -25.1409 N   0  0  0  0  0  0  0  0  0  0  0  0
   -4.5836   24.7741  -23.8306 C   0  0  0  0  0  0  0  0  0  0  0  0
   -5.5714   24.0962  -22.8942 C   0  0  0  0  0  0  0  0  0  0  0  0
   -6.1793   25.0195  -21.8935 C   0  0  0  0  0  0  0  0  0  0  0  0
   -7.6021   25.1150  -21.9076 N   0  0  0  0  0  0  0  0  0  0  0  0
   -8.2227   25.2947  -23.1799 C   0  0  0  0  0  0  0  0  0  0  0  0
   -7.5000   24.5996  -24.3038 C   0  0  0  0  0  0  0  0  0  0  0  0
   -6.6575   23.4642  -23.7432 C   0  0  0  0  0  0  0  0  0  0  0  0
   -6.5459   25.6145  -24.9533 C   0  0  0  0  0  0  0  0  0  0  0  0
   -8.0843   24.4357  -21.2849 H   0  0  0  0  0  0  0  0  0  0  0  0
   -6.2688   23.9286  -32.0190 Cl  0  0  0  0  0  0  0  0  0  0  0  0
   -5.7955   24.1457  -30.3511 C   0  0  0  0  0  0  0  0  0  0  0  0
   -5.2302   23.1008  -29.6698 C   0  0  0  0  0  0  0  0  0  0  0  0
   -4.8534   23.2624  -28.3555 C   0  0  0  0  0  0  0  0  0  0  0  0
   -5.0207   24.4692  -27.6567 C   0  0  0  0  0  0  0  0  0  0  0  0
   -5.5896   25.4733  -28.3858 C   0  0  0  0  0  0  0  0  0  0  0  0
   -5.9605   25.3015  -29.6947 N   0  0  0  0  0  0  0  0  0  0  0  0
 13 14  1  0  0  0
 14 15  2  0  0  0
 15 16  1  0  0  0
 16 17  2  0  0  0
 17 18  1  0  0  0
 18 19  2  0  0  0
 17  1  1  0  0  0
  1  2  2  0  0  0
  1  3  1  0  0  0
  3  4  1  0  0  0
  4  5  1  0  0  0
  5  6  1  0  0  0
  6  7  1  0  0  0
  7  8  1  0  0  0
  8  9  1  0  0  0
  9 10  1  0  0  0
  9 11  1  0  0  0
 19 14  1  0  0  0
 11  3  1  0  0  0
 10  5  1  0  0  0
  7 12  1  0  0  0
M  END
> <minimizedAffinity>
-7.08427

> <CNNscore>
0.3653357029

> <CNNaffinity>
5.4363756180

> <CNN_VS>
1.9861021042

> <CNNaffinity_variance>
0.1910848916

$$$$
[H]c1c([H])c(C(=O)N2C([H])([H])C([H])([H])N(C3([H])C([H])([H])C([H])([H])N(S(=O)(=O)c4c([H])c([H])c(OC([H])([H])[H])c([H])c4[H])C([H])([H])C3([H])[H])C([H])([H])C2([H])[H])c([H])c([H])c1Cl


 32 35  0  0  0  0  0  0  0  0999 V2000
   -5.5298   24.6919  -25.7569 N   0  0  0  0  0  0  0  0  0  0  0  0
   -5.1195   25.9335  -25.2006 C   0  0  0  0  0  0  0  0  0  0  0  0
   -6.2601   26.6401  -24.4952 C   0  0  0  0  0  0  0  0  0  0  0  0
   -6.9741   25.6518  -23.6276 C   0  0  0  0  0  0  0  0  0  0  0  0
   -7.6849   24.6858  -24.5838 C   0  0  0  0  0  0  0  0  0  0  0  0
   -6.9533   24.5347  -25.8779 C   0  0  0  0  0  0  0  0  0  0  0  0
   -7.9189   26.2141  -22.7022 N   0  0  0  0  0  0  0  0  0  0  0  0
   -7.4650   26.1552  -21.3695 C   0  0  0  0  0  0  0  0  0  0  0  0
   -7.8473   24.8783  -20.6144 C   0  0  0  0  0  0  0  0  0  0  0  0
   -9.2137   24.5421  -20.7978 N   0  0  0  0  0  0  0  0  0  0  0  0
   -9.9917   25.4941  -21.6217 C   0  0  0  0  0  0  0  0  0  0  0  0
   -9.2029   25.5762  -22.9202 C   0  0  0  0  0  0  0  0  0  0  0  0
   -9.8762   23.4431  -20.2993 C   0  0  0  0  0  0  0  0  0  0  0  0
  -11.1552   23.4226  -20.6512 O   0  0  0  0  0  0  0  0  0  0  0  0
   -9.4690   22.3295  -19.4865 C   0  0  0  0  0  0  0  0  0  0  0  0
   -8.4939   21.4323  -19.7833 C   0  0  0  0  0  0  0  0  0  0  0  0
   -8.1437   20.3592  -18.9334 C   0  0  0  0  0  0  0  0  0  0  0  0
   -8.7978   20.1924  -17.7555 C   0  0  0  0  0  0  0  0  0  0  0  0
   -8.3809   18.8717  -16.6919 Cl  0  0  0  0  0  0  0  0  0  0  0  0
   -9.7903   21.0742  -17.4137 C   0  0  0  0  0  0  0  0  0  0  0  0
  -10.1187   22.1168  -18.2567 C   0  0  0  0  0  0  0  0  0  0  0  0
   -4.6829   24.2312  -27.1696 S   0  0  0  0  0  0  0  0  0  0  0  0
   -4.4105   25.3718  -28.0772 O   0  0  0  0  0  0  0  0  0  0  0  0
   -5.4753   23.2042  -27.9522 O   0  0  0  0  0  0  0  0  0  0  0  0
   -0.8053   22.2000  -25.9139 C   0  0  0  0  0  0  0  0  0  0  0  0
   -0.9888   22.6807  -27.1911 C   0  0  0  0  0  0  0  0  0  0  0  0
   -2.1566   23.2949  -27.5757 C   0  0  0  0  0  0  0  0  0  0  0  0
   -3.1889   23.4522  -26.6926 C   0  0  0  0  0  0  0  0  0  0  0  0
   -3.0426   22.9841  -25.4052 C   0  0  0  0  0  0  0  0  0  0  0  0
   -1.8646   22.3707  -25.0377 C   0  0  0  0  0  0  0  0  0  0  0  0
    0.9120   21.8387  -24.2689 C   0  0  0  0  0  0  0  0  0  0  0  0
    0.3804   21.5849  -25.5519 O   0  0  0  0  0  0  0  0  0  0  0  0
 31 32  1  0  0  0
 32 25  1  0  0  0
 25 26  2  0  0  0
 26 27  1  0  0  0
 27 28  2  0  0  0
 28 29  1  0  0  0
 29 30  2  0  0  0
 28 22  1  0  0  0
 22 23  2  0  0  0
 22 24  2  0  0  0
 22  1  1  0  0  0
  1  2  1  0  0  0
  2  3  1  0  0  0
  3  4  1  0  0  0
  4  5  1  0  0  0
  5  6  1  0  0  0
  4  7  1  0  0  0
  7  8  1  0  0  0
  8  9  1  0  0  0
  9 10  1  0  0  0
 10 11  1  0  0  0
 11 12  1  0  0  0
 10 13  1  0  0  0
 13 14  2  0  0  0
 13 15  1  0  0  0
 15 16  2  0  0  0
 16 17  1  0  0  0
 17 18  2  0  0  0
 18 19  1  0  0  0
 18 20  1  0  0  0
 20 21  2  0  0  0
 30 25  1  0  0  0
  6  1  1  0  0  0
 12  7  1  0  0  0
 21 15  1  0  0  0
M  END
> <minimizedAffinity>
-8.30976

> <CNNscore>
0.1735850871

> <CNNaffinity>
6.1522645950

> <CNN_VS>
1.0679414272

> <CNNaffinity_variance>
0.0215630494

$$$$
[H]c1c([H])c(C(=O)N2C([H])([H])C([H])([H])N(C3([H])C([H])([H])C([H])([H])N(S(=O)(=O)c4c([H])c([H])c(OC([H])([H])[H])c([H])c4[H])C([H])([H])C3([H])[H])C([H])([H])C2([H])[H])c([H])c([H])c1Cl


 32 35  0  0  0  0  0  0  0  0999 V2000
   -6.1269   24.3996  -25.4320 N   0  0  0  0  0  0  0  0  0  0  0  0
   -7.1141   25.3470  -25.0485 C   0  0  0  0  0  0  0  0  0  0  0  0
   -7.9976   24.8217  -23.9343 C   0  0  0  0  0  0  0  0  0  0  0  0
   -7.1292   24.2061  -22.8826 C   0  0  0  0  0  0  0  0  0  0  0  0
   -6.5442   22.9339  -23.5088 C   0  0  0  0  0  0  0  0  0  0  0  0
   -6.3861   23.0569  -24.9896 C   0  0  0  0  0  0  0  0  0  0  0  0
   -7.7898   23.8885  -21.6466 N   0  0  0  0  0  0  0  0  0  0  0  0
   -7.2286   24.5690  -20.5476 C   0  0  0  0  0  0  0  0  0  0  0  0
   -6.0832   23.8299  -19.8487 C   0  0  0  0  0  0  0  0  0  0  0  0
   -6.3972   22.4662  -19.6126 N   0  0  0  0  0  0  0  0  0  0  0  0
   -7.7537   22.0501  -20.0338 C   0  0  0  0  0  0  0  0  0  0  0  0
   -7.8132   22.4458  -21.5018 C   0  0  0  0  0  0  0  0  0  0  0  0
   -5.5858   21.5098  -19.0451 C   0  0  0  0  0  0  0  0  0  0  0  0
   -6.1816   20.3273  -18.9625 O   0  0  0  0  0  0  0  0  0  0  0  0
   -4.2435   21.5325  -18.5310 C   0  0  0  0  0  0  0  0  0  0  0  0
   -3.1049   21.3566  -19.2497 C   0  0  0  0  0  0  0  0  0  0  0  0
   -1.8137   21.3937  -18.6770 C   0  0  0  0  0  0  0  0  0  0  0  0
   -1.6745   21.6142  -17.3447 C   0  0  0  0  0  0  0  0  0  0  0  0
   -0.0875   21.6623  -16.6176 Cl  0  0  0  0  0  0  0  0  0  0  0  0
   -2.7966   21.7973  -16.5787 C   0  0  0  0  0  0  0  0  0  0  0  0
   -4.0499   21.7577  -17.1557 C   0  0  0  0  0  0  0  0  0  0  0  0
   -5.6599   24.4846  -27.0751 S   0  0  0  0  0  0  0  0  0  0  0  0
   -5.7194   25.8619  -27.6216 O   0  0  0  0  0  0  0  0  0  0  0  0
   -6.5609   23.6157  -27.9285 O   0  0  0  0  0  0  0  0  0  0  0  0
   -1.4555   22.7767  -27.4553 C   0  0  0  0  0  0  0  0  0  0  0  0
   -2.1882   23.1465  -28.5610 C   0  0  0  0  0  0  0  0  0  0  0  0
   -3.4573   23.6629  -28.4524 C   0  0  0  0  0  0  0  0  0  0  0  0
   -4.0432   23.8296  -27.2279 C   0  0  0  0  0  0  0  0  0  0  0  0
   -3.3411   23.4711  -26.0982 C   0  0  0  0  0  0  0  0  0  0  0  0
   -2.0698   22.9548  -26.2265 C   0  0  0  0  0  0  0  0  0  0  0  0
    0.5918   22.0404  -26.4296 C   0  0  0  0  0  0  0  0  0  0  0  0
   -0.1795   22.2588  -27.5918 O   0  0  0  0  0  0  0  0  0  0  0  0
 31 32  1  0  0  0
 32 25  1  0  0  0
 25 26  2  0  0  0
 26 27  1  0  0  0
 27 28  2  0  0  0
 28 29  1  0  0  0
 29 30  2  0  0  0
 28 22  1  0  0  0
 22 23  2  0  0  0
 22 24  2  0  0  0
 22  1  1  0  0  0
  1  2  1  0  0  0
  2  3  1  0  0  0
  3  4  1  0  0  0
  4  5  1  0  0  0
  5  6  1  0  0  0
  4  7  1  0  0  0
  7  8  1  0  0  0
  8  9  1  0  0  0
  9 10  1  0  0  0
 10 11  1  0  0  0
 11 12  1  0  0  0
 10 13  1  0  0  0
 13 14  2  0  0  0
 13 15  1  0  0  0
 15 16  2  0  0  0
 16 17  1  0  0  0
 17 18  2  0  0  0
 18 19  1  0  0  0
 18 20  1  0  0  0
 20 21  2  0  0  0
 30 25  1  0  0  0
  6  1  1  0  0  0
 12  7  1  0  0  0
 21 15  1  0  0  0
M  END
> <minimizedAffinity>
-7.91886

> <CNNscore>
0.1632490903

> <CNNaffinity>
6.2602133751

> <CNN_VS>
1.0219740868

> <CNNaffinity_variance>
0.0529175624

$$$$
[H]c1c([H])c(C(=O)N2C([H])([H])C([H])([H])N(C3([H])C([H])([H])C([H])([H])N(S(=O)(=O)c4c([H])c([H])c(OC([H])([H])[H])c([H])c4[H])C([H])([H])C3([H])[H])C([H])([H])C2([H])[H])c([H])c([H])c1Cl


 32 35  0  0  0  0  0  0  0  0999 V2000
   -3.5235   22.7565  -21.8743 N   0  0  0  0  0  0  0  0  0  0  0  0
   -4.6983   22.0764  -22.2944 C   0  0  0  0  0  0  0  0  0  0  0  0
   -5.3986   21.3922  -21.1371 C   0  0  0  0  0  0  0  0  0  0  0  0
   -5.4806   22.3508  -19.9910 C   0  0  0  0  0  0  0  0  0  0  0  0
   -4.0431   22.5308  -19.4869 C   0  0  0  0  0  0  0  0  0  0  0  0
   -3.0381   22.3632  -20.5799 C   0  0  0  0  0  0  0  0  0  0  0  0
   -6.3355   21.9459  -18.9092 N   0  0  0  0  0  0  0  0  0  0  0  0
   -5.6145   21.3846  -17.8365 C   0  0  0  0  0  0  0  0  0  0  0  0
   -5.4063   19.8693  -17.9229 C   0  0  0  0  0  0  0  0  0  0  0  0
   -6.6036   19.1875  -18.2626 N   0  0  0  0  0  0  0  0  0  0  0  0
   -7.7976   20.0487  -18.4145 C   0  0  0  0  0  0  0  0  0  0  0  0
   -7.3689   21.0817  -19.4461 C   0  0  0  0  0  0  0  0  0  0  0  0
   -6.7650   17.8350  -18.4626 C   0  0  0  0  0  0  0  0  0  0  0  0
   -8.0165   17.5158  -18.7657 O   0  0  0  0  0  0  0  0  0  0  0  0
   -5.8655   16.7149  -18.4100 C   0  0  0  0  0  0  0  0  0  0  0  0
   -5.1016   16.3471  -17.3493 C   0  0  0  0  0  0  0  0  0  0  0  0
   -4.2380   15.2289  -17.3672 C   0  0  0  0  0  0  0  0  0  0  0  0
   -4.1471   14.4665  -18.4869 C   0  0  0  0  0  0  0  0  0  0  0  0
   -3.0846   13.0813  -18.5296 Cl  0  0  0  0  0  0  0  0  0  0  0  0
   -4.9000   14.7999  -19.5830 C   0  0  0  0  0  0  0  0  0  0  0  0
   -5.7382   15.8959  -19.5471 C   0  0  0  0  0  0  0  0  0  0  0  0
   -2.2892   22.8396  -23.0553 S   0  0  0  0  0  0  0  0  0  0  0  0
   -1.5466   21.5648  -23.2049 O   0  0  0  0  0  0  0  0  0  0  0  0
   -1.2834   23.9143  -22.6969 O   0  0  0  0  0  0  0  0  0  0  0  0
   -4.1577   24.0643  -27.0236 C   0  0  0  0  0  0  0  0  0  0  0  0
   -4.2703   24.8501  -25.8985 C   0  0  0  0  0  0  0  0  0  0  0  0
   -3.7082   24.4859  -24.6983 C   0  0  0  0  0  0  0  0  0  0  0  0
   -3.0089   23.3167  -24.5786 C   0  0  0  0  0  0  0  0  0  0  0  0
   -2.8746   22.5038  -25.6827 C   0  0  0  0  0  0  0  0  0  0  0  0
   -3.4452   22.8852  -26.8777 C   0  0  0  0  0  0  0  0  0  0  0  0
   -3.8913   24.8673  -29.2752 C   0  0  0  0  0  0  0  0  0  0  0  0
   -4.7334   24.4536  -28.2203 O   0  0  0  0  0  0  0  0  0  0  0  0
 31 32  1  0  0  0
 32 25  1  0  0  0
 25 26  2  0  0  0
 26 27  1  0  0  0
 27 28  2  0  0  0
 28 29  1  0  0  0
 29 30  2  0  0  0
 28 22  1  0  0  0
 22 23  2  0  0  0
 22 24  2  0  0  0
 22  1  1  0  0  0
  1  2  1  0  0  0
  2  3  1  0  0  0
  3  4  1  0  0  0
  4  5  1  0  0  0
  5  6  1  0  0  0
  4  7  1  0  0  0
  7  8  1  0  0  0
  8  9  1  0  0  0
  9 10  1  0  0  0
 10 11  1  0  0  0
 11 12  1  0  0  0
 10 13  1  0  0  0
 13 14  2  0  0  0
 13 15  1  0  0  0
 15 16  2  0  0  0
 16 17  1  0  0  0
 17 18  2  0  0  0
 18 19  1  0  0  0
 18 20  1  0  0  0
 20 21  2  0  0  0
 30 25  1  0  0  0
  6  1  1  0  0  0
 12  7  1  0  0  0
 21 15  1  0  0  0
M  END
> <minimizedAffinity>
-6.37507

> <CNNscore>
0.1484935880

> <CNNaffinity>
5.6185636520

> <CNN_VS>
0.8343206644

> <CNNaffinity_variance>
0.0646547750

$$$$
[H]c1c([H])c(C(=O)N2C([H])([H])C([H])([H])N(C3([H])C([H])([H])C([H])([H])N(S(=O)(=O)c4c([H])c([H])c(OC([H])([H])[H])c([H])c4[H])C([H])([H])C3([H])[H])C([H])([H])C2([H])[H])c([H])c([H])c1Cl


 32 35  0  0  0  0  0  0  0  0999 V2000
   -6.4042   24.7032  -26.0123 N   0  0  0  0  0  0  0  0  0  0  0  0
   -6.4378   23.3427  -25.6034 C   0  0  0  0  0  0  0  0  0  0  0  0
   -6.4748   23.2079  -24.0940 C   0  0  0  0  0  0  0  0  0  0  0  0
   -7.4954   24.1585  -23.5518 C   0  0  0  0  0  0  0  0  0  0  0  0
   -6.9238   25.5645  -23.7742 C   0  0  0  0  0  0  0  0  0  0  0  0
   -6.0371   25.6281  -24.9752 C   0  0  0  0  0  0  0  0  0  0  0  0
   -7.8322   23.9765  -22.1667 N   0  0  0  0  0  0  0  0  0  0  0  0
   -7.1370   24.8665  -21.3238 C   0  0  0  0  0  0  0  0  0  0  0  0
   -5.7866   24.3512  -20.8163 C   0  0  0  0  0  0  0  0  0  0  0  0
   -5.8726   23.0174  -20.3393 N   0  0  0  0  0  0  0  0  0  0  0  0
   -7.2260   22.4198  -20.3803 C   0  0  0  0  0  0  0  0  0  0  0  0
   -7.6464   22.5773  -21.8341 C   0  0  0  0  0  0  0  0  0  0  0  0
   -4.8472   22.2377  -19.8537 C   0  0  0  0  0  0  0  0  0  0  0  0
   -5.2614   21.0329  -19.4837 O   0  0  0  0  0  0  0  0  0  0  0  0
   -3.4393   22.4612  -19.6687 C   0  0  0  0  0  0  0  0  0  0  0  0
   -2.5375   22.7523  -20.6412 C   0  0  0  0  0  0  0  0  0  0  0  0
   -1.1637   22.9625  -20.3862 C   0  0  0  0  0  0  0  0  0  0  0  0
   -0.6940   22.8752  -19.1154 C   0  0  0  0  0  0  0  0  0  0  0  0
    1.0006   23.1301  -18.7796 Cl  0  0  0  0  0  0  0  0  0  0  0  0
   -1.5682   22.5833  -18.1005 C   0  0  0  0  0  0  0  0  0  0  0  0
   -2.9070   22.3812  -18.3687 C   0  0  0  0  0  0  0  0  0  0  0  0
   -5.5771   24.9835  -27.4829 S   0  0  0  0  0  0  0  0  0  0  0  0
   -5.3491   26.4239  -27.7515 O   0  0  0  0  0  0  0  0  0  0  0  0
   -6.3630   24.4205  -28.6493 O   0  0  0  0  0  0  0  0  0  0  0  0
   -1.6213   22.7296  -27.3870 C   0  0  0  0  0  0  0  0  0  0  0  0
   -2.2615   23.1156  -26.2307 C   0  0  0  0  0  0  0  0  0  0  0  0
   -3.4556   23.7956  -26.2533 C   0  0  0  0  0  0  0  0  0  0  0  0
   -4.0568   24.1159  -27.4393 C   0  0  0  0  0  0  0  0  0  0  0  0
   -3.4464   23.7463  -28.6177 C   0  0  0  0  0  0  0  0  0  0  0  0
   -2.2491   23.0652  -28.5754 C   0  0  0  0  0  0  0  0  0  0  0  0
    0.4023   22.2006  -26.1992 C   0  0  0  0  0  0  0  0  0  0  0  0
   -0.4191   22.0459  -27.3369 O   0  0  0  0  0  0  0  0  0  0  0  0
 31 32  1  0  0  0
 32 25  1  0  0  0
 25 26  2  0  0  0
 26 27  1  0  0  0
 27 28  2  0  0  0
 28 29  1  0  0  0
 29 30  2  0  0  0
 28 22  1  0  0  0
 22 23  2  0  0  0
 22 24  2  0  0  0
 22  1  1  0  0  0
  1  2  1  0  0  0
  2  3  1  0  0  0
  3  4  1  0  0  0
  4  5  1  0  0  0
  5  6  1  0  0  0
  4  7  1  0  0  0
  7  8  1  0  0  0
  8  9  1  0  0  0
  9 10  1  0  0  0
 10 11  1  0  0  0
 11 12  1  0  0  0
 10 13  1  0  0  0
 13 14  2  0  0  0
 13 15  1  0  0  0
 15 16  2  0  0  0
 16 17  1  0  0  0
 17 18  2  0  0  0
 18 19  1  0  0  0
 18 20  1  0  0  0
 20 21  2  0  0  0
 30 25  1  0  0  0
  6  1  1  0  0  0
 12  7  1  0  0  0
 21 15  1  0  0  0
M  END
> <minimizedAffinity>
-8.64545

> <CNNscore>
0.1480029374

> <CNNaffinity>
6.3937177658

> <CNN_VS>
0.9462890029

> <CNNaffinity_variance>
0.2341044247

$$$$
[H]c1c([H])c(C(=O)N2C([H])([H])C([H])([H])N(C3([H])C([H])([H])C([H])([H])N(S(=O)(=O)c4c([H])c([H])c(OC([H])([H])[H])c([H])c4[H])C([H])([H])C3([H])[H])C([H])([H])C2([H])[H])c([H])c([H])c1Cl


 32 35  0  0  0  0  0  0  0  0999 V2000
   -5.4015   22.1291  -18.6670 N   0  0  0  0  0  0  0  0  0  0  0  0
   -6.3278   21.1039  -18.9990 C   0  0  0  0  0  0  0  0  0  0  0  0
   -7.2496   21.5202  -20.1281 C   0  0  0  0  0  0  0  0  0  0  0  0
   -6.4286   22.1419  -21.2139 C   0  0  0  0  0  0  0  0  0  0  0  0
   -5.9234   23.4761  -20.6505 C   0  0  0  0  0  0  0  0  0  0  0  0
   -5.7493   23.4309  -19.1671 C   0  0  0  0  0  0  0  0  0  0  0  0
   -7.1154   22.3600  -22.4572 N   0  0  0  0  0  0  0  0  0  0  0  0
   -6.7827   21.3966  -23.4303 C   0  0  0  0  0  0  0  0  0  0  0  0
   -5.5791   21.7555  -24.3073 C   0  0  0  0  0  0  0  0  0  0  0  0
   -5.6490   23.0902  -24.7844 N   0  0  0  0  0  0  0  0  0  0  0  0
   -6.8644   23.8371  -24.3904 C   0  0  0  0  0  0  0  0  0  0  0  0
   -6.8786   23.7290  -22.8728 C   0  0  0  0  0  0  0  0  0  0  0  0
   -4.7207   23.7486  -25.5590 C   0  0  0  0  0  0  0  0  0  0  0  0
   -5.0881   24.9923  -25.8386 O   0  0  0  0  0  0  0  0  0  0  0  0
   -3.4526   23.3671  -26.1183 C   0  0  0  0  0  0  0  0  0  0  0  0
   -2.3595   22.9569  -25.4250 C   0  0  0  0  0  0  0  0  0  0  0  0
   -1.1416   22.5939  -26.0426 C   0  0  0  0  0  0  0  0  0  0  0  0
   -1.0301   22.6483  -27.3945 C   0  0  0  0  0  0  0  0  0  0  0  0
    0.4669   22.2051  -28.1768 Cl  0  0  0  0  0  0  0  0  0  0  0  0
   -2.1083   23.0568  -28.1362 C   0  0  0  0  0  0  0  0  0  0  0  0
   -3.2901   23.4076  -27.5154 C   0  0  0  0  0  0  0  0  0  0  0  0
   -4.9208   22.1489  -17.0258 S   0  0  0  0  0  0  0  0  0  0  0  0
   -5.9591   22.7082  -16.1268 O   0  0  0  0  0  0  0  0  0  0  0  0
   -3.6678   22.9820  -16.8499 O   0  0  0  0  0  0  0  0  0  0  0  0
   -3.8588   17.9002  -15.7772 C   0  0  0  0  0  0  0  0  0  0  0  0
   -3.0702   18.6154  -16.6505 C   0  0  0  0  0  0  0  0  0  0  0  0
   -3.3854   19.8980  -17.0306 C   0  0  0  0  0  0  0  0  0  0  0  0
   -4.5063   20.5159  -16.5486 C   0  0  0  0  0  0  0  0  0  0  0  0
   -5.3202   19.8322  -15.6723 C   0  0  0  0  0  0  0  0  0  0  0  0
   -4.9883   18.5467  -15.3027 C   0  0  0  0  0  0  0  0  0  0  0  0
   -3.5559   16.2613  -14.0428 C   0  0  0  0  0  0  0  0  0  0  0  0
   -3.5193   16.6096  -15.4104 O   0  0  0  0  0  0  0  0  0  0  0  0
 31 32  1  0  0  0
 32 25  1  0  0  0
 25 26  2  0  0  0
 26 27  1  0  0  0
 27 28  2  0  0  0
 28 29  1  0  0  0
 29 30  2  0  0  0
 28 22  1  0  0  0
 22 23  2  0  0  0
 22 24  2  0  0  0
 22  1  1  0  0  0
  1  2  1  0  0  0
  2  3  1  0  0  0
  3  4  1  0  0  0
  4  5  1  0  0  0
  5  6  1  0  0  0
  4  7  1  0  0  0
  7  8  1  0  0  0
  8  9  1  0  0  0
  9 10  1  0  0  0
 10 11  1  0  0  0
 11 12  1  0  0  0
 10 13  1  0  0  0
 13 14  2  0  0  0
 13 15  1  0  0  0
 15 16  2  0  0  0
 16 17  1  0  0  0
 17 18  2  0  0  0
 18 19  1  0  0  0
 18 20  1  0  0  0
 20 21  2  0  0  0
 30 25  1  0  0  0
  6  1  1  0  0  0
 12  7  1  0  0  0
 21 15  1  0  0  0
M  END
> <minimizedAffinity>
-6.31222

> <CNNscore>
0.1455618888

> <CNNaffinity>
5.6899352074

> <CNN_VS>
0.8282377124

> <CNNaffinity_variance>
0.1239708066

$$$$
[H]c1c([H])c(C(=O)N2C([H])([H])C([H])([H])N(C3([H])C([H])([H])C([H])([H])N(S(=O)(=O)c4c([H])c([H])c(OC([H])([H])[H])c([H])c4[H])C([H])([H])C3([H])[H])C([H])([H])C2([H])[H])c([H])c([H])c1Cl


 32 35  0  0  0  0  0  0  0  0999 V2000
   -5.1721   22.2568  -22.8191 N   0  0  0  0  0  0  0  0  0  0  0  0
   -5.0318   23.6454  -22.5517 C   0  0  0  0  0  0  0  0  0  0  0  0
   -6.2566   24.2140  -21.8629 C   0  0  0  0  0  0  0  0  0  0  0  0
   -6.6538   23.2932  -20.7522 C   0  0  0  0  0  0  0  0  0  0  0  0
   -7.1783   22.0192  -21.4264 C   0  0  0  0  0  0  0  0  0  0  0  0
   -6.5222   21.7694  -22.7455 C   0  0  0  0  0  0  0  0  0  0  0  0
   -7.6395   23.8124  -19.8444 N   0  0  0  0  0  0  0  0  0  0  0  0
   -7.2677   23.6453  -18.4955 C   0  0  0  0  0  0  0  0  0  0  0  0
   -7.7232   22.3279  -17.8600 C   0  0  0  0  0  0  0  0  0  0  0  0
   -9.0834   22.0426  -18.1467 N   0  0  0  0  0  0  0  0  0  0  0  0
   -9.7889   23.0722  -18.9422 C   0  0  0  0  0  0  0  0  0  0  0  0
   -8.9221   23.2265  -20.1831 C   0  0  0  0  0  0  0  0  0  0  0  0
   -9.7992   20.9286  -17.7700 C   0  0  0  0  0  0  0  0  0  0  0  0
  -11.0549   20.9680  -18.1961 O   0  0  0  0  0  0  0  0  0  0  0  0
   -9.4667   19.7488  -17.0190 C   0  0  0  0  0  0  0  0  0  0  0  0
   -8.5961   18.7766  -17.3942 C   0  0  0  0  0  0  0  0  0  0  0  0
   -8.3148   17.6408  -16.6021 C   0  0  0  0  0  0  0  0  0  0  0  0
   -8.9307   17.4878  -15.4021 C   0  0  0  0  0  0  0  0  0  0  0  0
   -8.5977   16.0906  -14.4090 Cl  0  0  0  0  0  0  0  0  0  0  0  0
   -9.8181   18.4446  -14.9817 C   0  0  0  0  0  0  0  0  0  0  0  0
  -10.0804   19.5475  -15.7690 C   0  0  0  0  0  0  0  0  0  0  0  0
   -4.3389   21.7128  -24.2101 S   0  0  0  0  0  0  0  0  0  0  0  0
   -4.5346   20.2663  -24.4713 O   0  0  0  0  0  0  0  0  0  0  0  0
   -2.8502   21.9531  -24.0648 O   0  0  0  0  0  0  0  0  0  0  0  0
   -5.6972   24.1843  -27.7857 C   0  0  0  0  0  0  0  0  0  0  0  0
   -6.5701   23.8209  -26.7846 C   0  0  0  0  0  0  0  0  0  0  0  0
   -6.1659   23.0755  -25.7030 C   0  0  0  0  0  0  0  0  0  0  0  0
   -4.8671   22.6643  -25.5818 C   0  0  0  0  0  0  0  0  0  0  0  0
   -3.9642   23.0086  -26.5636 C   0  0  0  0  0  0  0  0  0  0  0  0
   -4.3877   23.7563  -27.6410 C   0  0  0  0  0  0  0  0  0  0  0  0
   -5.1661   25.5594  -29.6864 C   0  0  0  0  0  0  0  0  0  0  0  0
   -6.1296   24.9352  -28.8647 O   0  0  0  0  0  0  0  0  0  0  0  0
 31 32  1  0  0  0
 32 25  1  0  0  0
 25 26  2  0  0  0
 26 27  1  0  0  0
 27 28  2  0  0  0
 28 29  1  0  0  0
 29 30  2  0  0  0
 28 22  1  0  0  0
 22 23  2  0  0  0
 22 24  2  0  0  0
 22  1  1  0  0  0
  1  2  1  0  0  0
  2  3  1  0  0  0
  3  4  1  0  0  0
  4  5  1  0  0  0
  5  6  1  0  0  0
  4  7  1  0  0  0
  7  8  1  0  0  0
  8  9  1  0  0  0
  9 10  1  0  0  0
 10 11  1  0  0  0
 11 12  1  0  0  0
 10 13  1  0  0  0
 13 14  2  0  0  0
 13 15  1  0  0  0
 15 16  2  0  0  0
 16 17  1  0  0  0
 17 18  2  0  0  0
 18 19  1  0  0  0
 18 20  1  0  0  0
 20 21  2  0  0  0
 30 25  1  0  0  0
  6  1  1  0  0  0
 12  7  1  0  0  0
 21 15  1  0  0  0
M  END
> <minimizedAffinity>
-6.76176

> <CNNscore>
0.1392459422

> <CNNaffinity>
5.4892492294

> <CNN_VS>
0.7643556595

> <CNNaffinity_variance>
0.0525799766

$$$$
[H]c1c([H])c(C(=O)N2C([H])([H])C([H])([H])N(C3([H])C([H])([H])C([H])([H])N(S(=O)(=O)c4c([H])c([H])c(OC([H])([H])[H])c([H])c4[H])C([H])([H])C3([H])[H])C([H])([H])C2([H])[H])c([H])c([H])c1Cl


 32 35  0  0  0  0  0  0  0  0999 V2000
   -5.2576   23.7447  -24.4842 N   0  0  0  0  0  0  0  0  0  0  0  0
   -6.0532   24.8740  -24.1514 C   0  0  0  0  0  0  0  0  0  0  0  0
   -7.2888   24.4820  -23.3657 C   0  0  0  0  0  0  0  0  0  0  0  0
   -6.8880   23.5275  -22.2851 C   0  0  0  0  0  0  0  0  0  0  0  0
   -6.4858   22.2291  -22.9959 C   0  0  0  0  0  0  0  0  0  0  0  0
   -5.9338   22.4824  -24.3612 C   0  0  0  0  0  0  0  0  0  0  0  0
   -7.8959   23.2571  -21.2971 N   0  0  0  0  0  0  0  0  0  0  0  0
   -7.5124   23.6811  -20.0092 C   0  0  0  0  0  0  0  0  0  0  0  0
   -6.7605   22.6328  -19.1830 C   0  0  0  0  0  0  0  0  0  0  0  0
   -7.3937   21.3638  -19.2326 N   0  0  0  0  0  0  0  0  0  0  0  0
   -8.6502   21.3168  -20.0133 C   0  0  0  0  0  0  0  0  0  0  0  0
   -8.2470   21.8524  -21.3791 C   0  0  0  0  0  0  0  0  0  0  0  0
   -6.9673   20.1954  -18.6425 C   0  0  0  0  0  0  0  0  0  0  0  0
   -7.7903   19.1819  -18.8777 O   0  0  0  0  0  0  0  0  0  0  0  0
   -5.8276   19.8561  -17.8346 C   0  0  0  0  0  0  0  0  0  0  0  0
   -5.6137   20.2342  -16.5481 C   0  0  0  0  0  0  0  0  0  0  0  0
   -4.4673   19.8608  -15.8113 C   0  0  0  0  0  0  0  0  0  0  0  0
   -3.5161   19.0862  -16.3930 C   0  0  0  0  0  0  0  0  0  0  0  0
   -2.0914   18.6152  -15.4998 Cl  0  0  0  0  0  0  0  0  0  0  0  0
   -3.6894   18.6804  -17.6910 C   0  0  0  0  0  0  0  0  0  0  0  0
   -4.8159   19.0549  -18.3952 C   0  0  0  0  0  0  0  0  0  0  0  0
   -4.3840   23.8964  -25.9468 S   0  0  0  0  0  0  0  0  0  0  0  0
   -4.2712   25.3009  -26.4088 O   0  0  0  0  0  0  0  0  0  0  0  0
   -5.0557   23.1054  -27.0506 O   0  0  0  0  0  0  0  0  0  0  0  0
   -0.2605   22.0601  -25.3444 C   0  0  0  0  0  0  0  0  0  0  0  0
   -0.7316   22.3838  -26.5971 C   0  0  0  0  0  0  0  0  0  0  0  0
   -1.9750   22.9386  -26.7851 C   0  0  0  0  0  0  0  0  0  0  0  0
   -2.7969   23.1916  -25.7217 C   0  0  0  0  0  0  0  0  0  0  0  0
   -2.3603   22.8814  -24.4525 C   0  0  0  0  0  0  0  0  0  0  0  0
   -1.1107   22.3255  -24.2834 C   0  0  0  0  0  0  0  0  0  0  0  0
    1.5337   21.4098  -23.8803 C   0  0  0  0  0  0  0  0  0  0  0  0
    0.9955   21.5020  -25.1822 O   0  0  0  0  0  0  0  0  0  0  0  0
 31 32  1  0  0  0
 32 25  1  0  0  0
 25 26  2  0  0  0
 26 27  1  0  0  0
 27 28  2  0  0  0
 28 29  1  0  0  0
 29 30  2  0  0  0
 28 22  1  0  0  0
 22 23  2  0  0  0
 22 24  2  0  0  0
 22  1  1  0  0  0
  1  2  1  0  0  0
  2  3  1  0  0  0
  3  4  1  0  0  0
  4  5  1  0  0  0
  5  6  1  0  0  0
  4  7  1  0  0  0
  7  8  1  0  0  0
  8  9  1  0  0  0
  9 10  1  0  0  0
 10 11  1  0  0  0
 11 12  1  0  0  0
 10 13  1  0  0  0
 13 14  2  0  0  0
 13 15  1  0  0  0
 15 16  2  0  0  0
 16 17  1  0  0  0
 17 18  2  0  0  0
 18 19  1  0  0  0
 18 20  1  0  0  0
 20 21  2  0  0  0
 30 25  1  0  0  0
  6  1  1  0  0  0
 12  7  1  0  0  0
 21 15  1  0  0  0
M  END
> <minimizedAffinity>
-7.24117

> <CNNscore>
0.1285779178

> <CNNaffinity>
5.7774186134

> <CNN_VS>
0.7428484559

> <CNNaffinity_variance>
0.0281556062

$$$$
[H]c1c([H])c(C(=O)N2C([H])([H])C([H])([H])N(C3([H])C([H])([H])C([H])([H])N(S(=O)(=O)c4c([H])c([H])c(OC([H])([H])[H])c([H])c4[H])C([H])([H])C3([H])[H])C([H])([H])C2([H])[H])c([H])c([H])c1Cl


 32 35  0  0  0  0  0  0  0  0999 V2000
   -4.5745   22.8627  -22.7513 N   0  0  0  0  0  0  0  0  0  0  0  0
   -5.7349   22.6126  -23.5324 C   0  0  0  0  0  0  0  0  0  0  0  0
   -6.6814   21.6489  -22.8445 C   0  0  0  0  0  0  0  0  0  0  0  0
   -6.8391   22.0678  -21.4165 C   0  0  0  0  0  0  0  0  0  0  0  0
   -5.4893   21.7898  -20.7430 C   0  0  0  0  0  0  0  0  0  0  0  0
   -4.3476   21.9096  -21.6996 C   0  0  0  0  0  0  0  0  0  0  0  0
   -7.8946   21.4116  -20.6951 N   0  0  0  0  0  0  0  0  0  0  0  0
   -8.7676   22.3256  -20.0720 C   0  0  0  0  0  0  0  0  0  0  0  0
   -8.3696   22.7289  -18.6487 C   0  0  0  0  0  0  0  0  0  0  0  0
   -8.0141   21.6052  -17.8583 N   0  0  0  0  0  0  0  0  0  0  0  0
   -8.1417   20.2944  -18.5335 C   0  0  0  0  0  0  0  0  0  0  0  0
   -7.2961   20.4508  -19.7887 C   0  0  0  0  0  0  0  0  0  0  0  0
   -7.5704   21.6091  -16.5551 C   0  0  0  0  0  0  0  0  0  0  0  0
   -7.3259   20.3865  -16.1018 O   0  0  0  0  0  0  0  0  0  0  0  0
   -7.3221   22.6543  -15.5998 C   0  0  0  0  0  0  0  0  0  0  0  0
   -8.0416   22.9023  -14.4753 C   0  0  0  0  0  0  0  0  0  0  0  0
   -7.7382   23.9497  -13.5767 C   0  0  0  0  0  0  0  0  0  0  0  0
   -6.6809   24.7643  -13.8248 C   0  0  0  0  0  0  0  0  0  0  0  0
   -6.2904   26.0653  -12.7274 Cl  0  0  0  0  0  0  0  0  0  0  0  0
   -5.9254   24.5518  -14.9489 C   0  0  0  0  0  0  0  0  0  0  0  0
   -6.2367   23.5234  -15.8153 C   0  0  0  0  0  0  0  0  0  0  0  0
   -3.1663   23.2055  -23.6593 S   0  0  0  0  0  0  0  0  0  0  0  0
   -2.2238   22.0622  -23.7166 O   0  0  0  0  0  0  0  0  0  0  0  0
   -2.4218   24.3812  -23.0603 O   0  0  0  0  0  0  0  0  0  0  0  0
   -4.4191   24.4453  -27.8583 C   0  0  0  0  0  0  0  0  0  0  0  0
   -4.5657   25.2904  -26.7811 C   0  0  0  0  0  0  0  0  0  0  0  0
   -4.1890   24.9220  -25.5117 C   0  0  0  0  0  0  0  0  0  0  0  0
   -3.6488   23.6886  -25.2717 C   0  0  0  0  0  0  0  0  0  0  0  0
   -3.4864   22.8153  -26.3246 C   0  0  0  0  0  0  0  0  0  0  0  0
   -3.8700   23.2020  -27.5904 C   0  0  0  0  0  0  0  0  0  0  0  0
   -3.9362   25.6600  -29.8774 C   0  0  0  0  0  0  0  0  0  0  0  0
   -4.8067   24.8404  -29.1267 O   0  0  0  0  0  0  0  0  0  0  0  0
 31 32  1  0  0  0
 32 25  1  0  0  0
 25 26  2  0  0  0
 26 27  1  0  0  0
 27 28  2  0  0  0
 28 29  1  0  0  0
 29 30  2  0  0  0
 28 22  1  0  0  0
 22 23  2  0  0  0
 22 24  2  0  0  0
 22  1  1  0  0  0
  1  2  1  0  0  0
  2  3  1  0  0  0
  3  4  1  0  0  0
  4  5  1  0  0  0
  5  6  1  0  0  0
  4  7  1  0  0  0
  7  8  1  0  0  0
  8  9  1  0  0  0
  9 10  1  0  0  0
 10 11  1  0  0  0
 11 12  1  0  0  0
 10 13  1  0  0  0
 13 14  2  0  0  0
 13 15  1  0  0  0
 15 16  2  0  0  0
 16 17  1  0  0  0
 17 18  2  0  0  0
 18 19  1  0  0  0
 18 20  1  0  0  0
 20 21  2  0  0  0
 30 25  1  0  0  0
  6  1  1  0  0  0
 12  7  1  0  0  0
 21 15  1  0  0  0
M  END
> <minimizedAffinity>
-6.83081

> <CNNscore>
0.1180333421

> <CNNaffinity>
5.5520315170

> <CNN_VS>
0.6553248167

> <CNNaffinity_variance>
0.0524435267

$$$$
[H]c1c([H])c(C(=O)N2C([H])([H])C([H])([H])N(C3([H])C([H])([H])C([H])([H])N(S(=O)(=O)c4c([H])c([H])c(OC([H])([H])[H])c([H])c4[H])C([H])([H])C3([H])[H])C([H])([H])C2([H])[H])c([H])c([H])c1Cl


 32 35  0  0  0  0  0  0  0  0999 V2000
   -4.3821   22.6951  -18.0063 N   0  0  0  0  0  0  0  0  0  0  0  0
   -4.6170   21.9835  -19.2136 C   0  0  0  0  0  0  0  0  0  0  0  0
   -5.9890   22.2803  -19.7858 C   0  0  0  0  0  0  0  0  0  0  0  0
   -6.2124   23.7597  -19.7552 C   0  0  0  0  0  0  0  0  0  0  0  0
   -6.3502   24.1358  -18.2745 C   0  0  0  0  0  0  0  0  0  0  0  0
   -5.5660   23.2247  -17.3869 C   0  0  0  0  0  0  0  0  0  0  0  0
   -7.3556   24.2254  -20.4908 N   0  0  0  0  0  0  0  0  0  0  0  0
   -7.6958   23.3661  -21.5546 C   0  0  0  0  0  0  0  0  0  0  0  0
   -7.0083   23.6855  -22.8859 C   0  0  0  0  0  0  0  0  0  0  0  0
   -7.0624   25.0700  -23.1926 N   0  0  0  0  0  0  0  0  0  0  0  0
   -7.7963   25.9037  -22.2145 C   0  0  0  0  0  0  0  0  0  0  0  0
   -7.1097   25.5972  -20.8917 C   0  0  0  0  0  0  0  0  0  0  0  0
   -6.5124   25.7045  -24.2835 C   0  0  0  0  0  0  0  0  0  0  0  0
   -6.7459   27.0105  -24.2782 O   0  0  0  0  0  0  0  0  0  0  0  0
   -5.7478   25.2455  -25.4109 C   0  0  0  0  0  0  0  0  0  0  0  0
   -4.4880   24.7400  -25.3750 C   0  0  0  0  0  0  0  0  0  0  0  0
   -3.7949   24.3045  -26.5268 C   0  0  0  0  0  0  0  0  0  0  0  0
   -4.3934   24.3838  -27.7427 C   0  0  0  0  0  0  0  0  0  0  0  0
   -3.5531   23.8521  -29.1782 Cl  0  0  0  0  0  0  0  0  0  0  0  0
   -5.6654   24.8878  -27.8276 C   0  0  0  0  0  0  0  0  0  0  0  0
   -6.3271   25.3084  -26.6916 C   0  0  0  0  0  0  0  0  0  0  0  0
   -3.3474   21.8990  -16.9014 S   0  0  0  0  0  0  0  0  0  0  0  0
   -3.4789   22.4109  -15.5159 O   0  0  0  0  0  0  0  0  0  0  0  0
   -1.8996   22.0670  -17.3147 O   0  0  0  0  0  0  0  0  0  0  0  0
   -4.2161   17.4315  -17.0588 C   0  0  0  0  0  0  0  0  0  0  0  0
   -5.0751   18.3136  -16.4422 C   0  0  0  0  0  0  0  0  0  0  0  0
   -4.8184   19.6628  -16.3919 C   0  0  0  0  0  0  0  0  0  0  0  0
   -3.6878   20.1823  -16.9597 C   0  0  0  0  0  0  0  0  0  0  0  0
   -2.8042   19.3309  -17.5859 C   0  0  0  0  0  0  0  0  0  0  0  0
   -3.0781   17.9809  -17.6263 C   0  0  0  0  0  0  0  0  0  0  0  0
   -3.5507   15.1729  -16.5671 C   0  0  0  0  0  0  0  0  0  0  0  0
   -4.4976   16.0770  -17.0954 O   0  0  0  0  0  0  0  0  0  0  0  0
 31 32  1  0  0  0
 32 25  1  0  0  0
 25 26  2  0  0  0
 26 27  1  0  0  0
 27 28  2  0  0  0
 28 29  1  0  0  0
 29 30  2  0  0  0
 28 22  1  0  0  0
 22 23  2  0  0  0
 22 24  2  0  0  0
 22  1  1  0  0  0
  1  2  1  0  0  0
  2  3  1  0  0  0
  3  4  1  0  0  0
  4  5  1  0  0  0
  5  6  1  0  0  0
  4  7  1  0  0  0
  7  8  1  0  0  0
  8  9  1  0  0  0
  9 10  1  0  0  0
 10 11  1  0  0  0
 11 12  1  0  0  0
 10 13  1  0  0  0
 13 14  2  0  0  0
 13 15  1  0  0  0
 15 16  2  0  0  0
 16 17  1  0  0  0
 17 18  2  0  0  0
 18 19  1  0  0  0
 18 20  1  0  0  0
 20 21  2  0  0  0
 30 25  1  0  0  0
  6  1  1  0  0  0
 12  7  1  0  0  0
 21 15  1  0  0  0
M  END
> <minimizedAffinity>
-6.12734

> <CNNscore>
0.1144774929

> <CNNaffinity>
5.4256911278

> <CNN_VS>
0.6211194992

> <CNNaffinity_variance>
0.1349264085

$$$$
[H]C([H])=C([H])C(=O)N([H])c1c([H])c([H])c([H])c(-c2c([H])n([H])c3nc([H])c(-c4nc([H])c(C([H])([H])[H])n4[H])c([H])c23)c1Cl


 30 33  0  0  0  0  0  0  0  0999 V2000
   -2.1244   23.2201  -28.0736 C   0  0  0  0  0  0  0  0  0  0  0  0
   -0.9085   22.9732  -28.6535 C   0  0  0  0  0  0  0  0  0  0  0  0
    0.1963   22.5785  -27.9517 N   0  0  0  0  0  0  0  0  0  0  0  0
    0.1167   22.4133  -26.6073 C   0  0  0  0  0  0  0  0  0  0  0  0
    0.9785   22.0257  -25.6453 N   0  0  0  0  0  0  0  0  0  0  0  0
    0.3370   22.0221  -24.4565 C   0  0  0  0  0  0  0  0  0  0  0  0
   -0.9670   22.4107  -24.6234 C   0  0  0  0  0  0  0  0  0  0  0  0
   -1.0936   22.6532  -25.9769 C   0  0  0  0  0  0  0  0  0  0  0  0
   -2.2056   23.0514  -26.6892 C   0  0  0  0  0  0  0  0  0  0  0  0
    1.9711   21.7755  -25.8275 H   0  0  0  0  0  0  0  0  0  0  0  0
   -5.4926   25.8541  -30.6921 C   0  0  0  0  0  0  0  0  0  0  0  0
   -4.7897   24.7769  -29.9587 C   0  0  0  0  0  0  0  0  0  0  0  0
   -5.3504   23.5191  -29.6921 C   0  0  0  0  0  0  0  0  0  0  0  0
   -4.4132   22.8405  -28.9826 N   0  0  0  0  0  0  0  0  0  0  0  0
   -3.3188   23.6131  -28.8051 C   0  0  0  0  0  0  0  0  0  0  0  0
   -3.5725   24.7829  -29.4079 N   0  0  0  0  0  0  0  0  0  0  0  0
   -2.8917   25.5867  -29.4359 H   0  0  0  0  0  0  0  0  0  0  0  0
   -2.0308   22.5836  -23.6496 C   0  0  0  0  0  0  0  0  0  0  0  0
   -3.0455   23.5093  -23.9048 C   0  0  0  0  0  0  0  0  0  0  0  0
   -4.0490   23.6958  -22.9848 C   0  0  0  0  0  0  0  0  0  0  0  0
   -4.0689   22.9658  -21.7894 C   0  0  0  0  0  0  0  0  0  0  0  0
   -3.1039   22.0628  -21.5104 C   0  0  0  0  0  0  0  0  0  0  0  0
   -2.0979   21.8970  -22.4649 C   0  0  0  0  0  0  0  0  0  0  0  0
   -0.7757   20.7389  -22.2126 Cl  0  0  0  0  0  0  0  0  0  0  0  0
   -3.0407   21.2404  -20.3374 N   0  0  0  0  0  0  0  0  0  0  0  0
   -2.7137   21.6187  -19.0443 C   0  0  0  0  0  0  0  0  0  0  0  0
   -2.4139   22.7938  -18.7602 O   0  0  0  0  0  0  0  0  0  0  0  0
   -3.2857   20.2178  -20.4885 H   0  0  0  0  0  0  0  0  0  0  0  0
   -2.7187   20.6241  -17.9716 C   0  0  0  0  0  0  0  0  0  0  0  0
   -2.2702   19.4063  -18.0488 C   0  0  0  0  0  0  0  0  0  0  0  0
 11 12  1  0  0  0
 12 13  2  0  0  0
 13 14  1  0  0  0
 14 15  2  0  0  0
 15 16  1  0  0  0
 15  1  1  0  0  0
  1  2  2  0  0  0
  2  3  1  0  0  0
  3  4  2  0  0  0
  4  5  1  0  0  0
  5  6  1  0  0  0
  6  7  2  0  0  0
  7 18  1  0  0  0
 18 19  2  0  0  0
 19 20  1  0  0  0
 20 21  2  0  0  0
 21 22  1  0  0  0
 22 25  1  0  0  0
 25 26  1  0  0  0
 26 27  2  0  0  0
 26 29  1  0  0  0
 29 30  2  0  0  0
 22 23  2  0  0  0
 23 24  1  0  0  0
  7  8  1  0  0  0
  8  9  2  0  0  0
 16 12  1  0  0  0
  9  1  1  0  0  0
  8  4  1  0  0  0
 23 18  1  0  0  0
 16 17  1  0  0  0
  5 10  1  0  0  0
 25 28  1  0  0  0
M  END
> <minimizedAffinity>
-8.63006

> <CNNscore>
0.8875680566

> <CNNaffinity>
7.3735756874

> <CNN_VS>
6.5445504189

> <CNNaffinity_variance>
0.0404835865

$$$$
[H]C([H])=C([H])C(=O)N([H])c1c([H])c([H])c([H])c(-c2c([H])n([H])c3nc([H])c(-c4nc([H])c(C([H])([H])[H])n4[H])c([H])c23)c1Cl


 30 33  0  0  0  0  0  0  0  0999 V2000
   -1.9962   23.0042  -26.7995 C   0  0  0  0  0  0  0  0  0  0  0  0
   -0.9062   22.6470  -27.5480 C   0  0  0  0  0  0  0  0  0  0  0  0
    0.2324   22.1100  -27.0149 N   0  0  0  0  0  0  0  0  0  0  0  0
    0.3185   21.9072  -25.6761 C   0  0  0  0  0  0  0  0  0  0  0  0
    1.2543   21.3945  -24.8515 N   0  0  0  0  0  0  0  0  0  0  0  0
    0.7844   21.4188  -23.5852 C   0  0  0  0  0  0  0  0  0  0  0  0
   -0.4780   21.9525  -23.5610 C   0  0  0  0  0  0  0  0  0  0  0  0
   -0.7598   22.2550  -24.8785 C   0  0  0  0  0  0  0  0  0  0  0  0
   -1.9065   22.7966  -25.4209 C   0  0  0  0  0  0  0  0  0  0  0  0
    2.1782   21.0444  -25.1751 H   0  0  0  0  0  0  0  0  0  0  0  0
   -6.1883   25.6791  -27.4400 C   0  0  0  0  0  0  0  0  0  0  0  0
   -5.0642   24.7330  -27.6237 C   0  0  0  0  0  0  0  0  0  0  0  0
   -4.9617   23.8420  -28.7022 C   0  0  0  0  0  0  0  0  0  0  0  0
   -3.8209   23.1375  -28.4912 N   0  0  0  0  0  0  0  0  0  0  0  0
   -3.2272   23.5503  -27.3495 C   0  0  0  0  0  0  0  0  0  0  0  0
   -4.0013   24.5199  -26.8428 N   0  0  0  0  0  0  0  0  0  0  0  0
   -3.7844   25.0353  -25.9497 H   0  0  0  0  0  0  0  0  0  0  0  0
   -1.3729   22.2057  -22.4453 C   0  0  0  0  0  0  0  0  0  0  0  0
   -0.8819   22.8566  -21.3109 C   0  0  0  0  0  0  0  0  0  0  0  0
   -1.7126   23.0875  -20.2410 C   0  0  0  0  0  0  0  0  0  0  0  0
   -3.0519   22.6783  -20.2732 C   0  0  0  0  0  0  0  0  0  0  0  0
   -3.5597   22.0466  -21.3536 C   0  0  0  0  0  0  0  0  0  0  0  0
   -2.6901   21.8260  -22.4240 C   0  0  0  0  0  0  0  0  0  0  0  0
   -3.2411   21.0067  -23.8999 Cl  0  0  0  0  0  0  0  0  0  0  0  0
   -4.9177   21.6126  -21.5083 N   0  0  0  0  0  0  0  0  0  0  0  0
   -5.9839   22.3155  -22.0480 C   0  0  0  0  0  0  0  0  0  0  0  0
   -5.8551   23.4790  -22.4733 O   0  0  0  0  0  0  0  0  0  0  0  0
   -5.1177   20.6249  -21.1723 H   0  0  0  0  0  0  0  0  0  0  0  0
   -7.3026   21.6875  -22.1305 C   0  0  0  0  0  0  0  0  0  0  0  0
   -8.2033   21.6625  -21.1934 C   0  0  0  0  0  0  0  0  0  0  0  0
 11 12  1  0  0  0
 12 13  2  0  0  0
 13 14  1  0  0  0
 14 15  2  0  0  0
 15 16  1  0  0  0
 15  1  1  0  0  0
  1  2  2  0  0  0
  2  3  1  0  0  0
  3  4  2  0  0  0
  4  5  1  0  0  0
  5  6  1  0  0  0
  6  7  2  0  0  0
  7 18  1  0  0  0
 18 19  2  0  0  0
 19 20  1  0  0  0
 20 21  2  0  0  0
 21 22  1  0  0  0
 22 25  1  0  0  0
 25 26  1  0  0  0
 26 27  2  0  0  0
 26 29  1  0  0  0
 29 30  2  0  0  0
 22 23  2  0  0  0
 23 24  1  0  0  0
  7  8  1  0  0  0
  8  9  2  0  0  0
 16 12  1  0  0  0
  9  1  1  0  0  0
  8  4  1  0  0  0
 23 18  1  0  0  0
 16 17  1  0  0  0
  5 10  1  0  0  0
 25 28  1  0  0  0
M  END
> <minimizedAffinity>
-8.05751

> <CNNscore>
0.7303588390

> <CNNaffinity>
7.2785010338

> <CNN_VS>
5.3159174919

> <CNNaffinity_variance>
0.1964691281

$$$$
[H]C([H])=C([H])C(=O)N([H])c1c([H])c([H])c([H])c(-c2c([H])n([H])c3nc([H])c(-c4nc([H])c(C([H])([H])[H])n4[H])c([H])c23)c1Cl


 30 33  0  0  0  0  0  0  0  0999 V2000
   -2.6453   22.9226  -26.7076 C   0  0  0  0  0  0  0  0  0  0  0  0
   -1.6665   22.8801  -27.6646 C   0  0  0  0  0  0  0  0  0  0  0  0
   -0.3751   22.5125  -27.4078 N   0  0  0  0  0  0  0  0  0  0  0  0
   -0.0117   22.1652  -26.1474 C   0  0  0  0  0  0  0  0  0  0  0  0
    1.1326   21.7455  -25.5705 N   0  0  0  0  0  0  0  0  0  0  0  0
    0.9056   21.5201  -24.2580 C   0  0  0  0  0  0  0  0  0  0  0  0
   -0.4030   21.7911  -23.9526 C   0  0  0  0  0  0  0  0  0  0  0  0
   -0.9687   22.1947  -25.1458 C   0  0  0  0  0  0  0  0  0  0  0  0
   -2.2704   22.5664  -25.4098 C   0  0  0  0  0  0  0  0  0  0  0  0
    2.0274   21.6247  -26.0860 H   0  0  0  0  0  0  0  0  0  0  0  0
   -7.4097   24.3716  -26.1241 C   0  0  0  0  0  0  0  0  0  0  0  0
   -6.1204   23.9248  -26.6991 C   0  0  0  0  0  0  0  0  0  0  0  0
   -5.9383   23.6040  -28.0524 C   0  0  0  0  0  0  0  0  0  0  0  0
   -4.6429   23.2156  -28.1681 N   0  0  0  0  0  0  0  0  0  0  0  0
   -4.0309   23.2832  -26.9652 C   0  0  0  0  0  0  0  0  0  0  0  0
   -4.9491   23.7173  -26.0908 N   0  0  0  0  0  0  0  0  0  0  0  0
   -4.7555   23.8709  -25.0665 H   0  0  0  0  0  0  0  0  0  0  0  0
   -1.1079   21.7247  -22.6844 C   0  0  0  0  0  0  0  0  0  0  0  0
   -2.4836   21.9663  -22.6549 C   0  0  0  0  0  0  0  0  0  0  0  0
   -3.1605   21.9237  -21.4599 C   0  0  0  0  0  0  0  0  0  0  0  0
   -2.4867   21.6386  -20.2653 C   0  0  0  0  0  0  0  0  0  0  0  0
   -1.1573   21.4000  -20.2572 C   0  0  0  0  0  0  0  0  0  0  0  0
   -0.4980   21.4514  -21.4873 C   0  0  0  0  0  0  0  0  0  0  0  0
    1.2487   21.1543  -21.6053 Cl  0  0  0  0  0  0  0  0  0  0  0  0
   -0.3731   21.0688  -19.1032 N   0  0  0  0  0  0  0  0  0  0  0  0
    0.3268   21.9276  -18.2697 C   0  0  0  0  0  0  0  0  0  0  0  0
    0.3488   23.1577  -18.4639 O   0  0  0  0  0  0  0  0  0  0  0  0
   -0.3390   20.0350  -18.8612 H   0  0  0  0  0  0  0  0  0  0  0  0
    1.0628   21.3917  -17.1246 C   0  0  0  0  0  0  0  0  0  0  0  0
    2.3531   21.2647  -17.0299 C   0  0  0  0  0  0  0  0  0  0  0  0
 11 12  1  0  0  0
 12 13  2  0  0  0
 13 14  1  0  0  0
 14 15  2  0  0  0
 15 16  1  0  0  0
 15  1  1  0  0  0
  1  2  2  0  0  0
  2  3  1  0  0  0
  3  4  2  0  0  0
  4  5  1  0  0  0
  5  6  1  0  0  0
  6  7  2  0  0  0
  7 18  1  0  0  0
 18 19  2  0  0  0
 19 20  1  0  0  0
 20 21  2  0  0  0
 21 22  1  0  0  0
 22 25  1  0  0  0
 25 26  1  0  0  0
 26 27  2  0  0  0
 26 29  1  0  0  0
 29 30  2  0  0  0
 22 23  2  0  0  0
 23 24  1  0  0  0
  7  8  1  0  0  0
  8  9  2  0  0  0
 16 12  1  0  0  0
  9  1  1  0  0  0
  8  4  1  0  0  0
 23 18  1  0  0  0
 16 17  1  0  0  0
  5 10  1  0  0  0
 25 28  1  0  0  0
M  END
> <minimizedAffinity>
-7.79046

> <CNNscore>
0.6562865973

> <CNNaffinity>
6.9615964890

> <CNN_VS>
4.5688023567

> <CNNaffinity_variance>
0.1415541768

$$$$
[H]C([H])=C([H])C(=O)N([H])c1c([H])c([H])c([H])c(-c2c([H])n([H])c3nc([H])c(-c4nc([H])c(C([H])([H])[H])n4[H])c([H])c23)c1Cl


 30 33  0  0  0  0  0  0  0  0999 V2000
   -2.8280   23.3132  -27.9853 C   0  0  0  0  0  0  0  0  0  0  0  0
   -1.4911   23.1903  -28.2559 C   0  0  0  0  0  0  0  0  0  0  0  0
   -0.5801   22.7097  -27.3571 N   0  0  0  0  0  0  0  0  0  0  0  0
   -0.9906   22.3252  -26.1223 C   0  0  0  0  0  0  0  0  0  0  0  0
   -0.3810   21.8039  -25.0383 N   0  0  0  0  0  0  0  0  0  0  0  0
   -1.3040   21.5923  -24.0748 C   0  0  0  0  0  0  0  0  0  0  0  0
   -2.5436   21.9752  -24.5173 C   0  0  0  0  0  0  0  0  0  0  0  0
   -2.3346   22.4331  -25.8032 C   0  0  0  0  0  0  0  0  0  0  0  0
   -3.2501   22.9187  -26.7134 C   0  0  0  0  0  0  0  0  0  0  0  0
    0.6389   21.6080  -24.9891 H   0  0  0  0  0  0  0  0  0  0  0  0
   -5.4462   26.2220  -31.1195 C   0  0  0  0  0  0  0  0  0  0  0  0
   -4.9584   25.0794  -30.3141 C   0  0  0  0  0  0  0  0  0  0  0  0
   -5.6052   23.8363  -30.2504 C   0  0  0  0  0  0  0  0  0  0  0  0
   -4.8706   23.0821  -29.3937 N   0  0  0  0  0  0  0  0  0  0  0  0
   -3.8177   23.7951  -28.9364 C   0  0  0  0  0  0  0  0  0  0  0  0
   -3.8935   25.0036  -29.5109 N   0  0  0  0  0  0  0  0  0  0  0  0
   -3.1974   25.7765  -29.3424 H   0  0  0  0  0  0  0  0  0  0  0  0
   -3.8299   21.9640  -23.8428 C   0  0  0  0  0  0  0  0  0  0  0  0
   -4.9150   21.3303  -24.4533 C   0  0  0  0  0  0  0  0  0  0  0  0
   -6.1420   21.3265  -23.8347 C   0  0  0  0  0  0  0  0  0  0  0  0
   -6.3199   21.9515  -22.5937 C   0  0  0  0  0  0  0  0  0  0  0  0
   -5.2928   22.5734  -21.9752 C   0  0  0  0  0  0  0  0  0  0  0  0
   -4.0591   22.5604  -22.6297 C   0  0  0  0  0  0  0  0  0  0  0  0
   -2.6337   23.3430  -21.9165 Cl  0  0  0  0  0  0  0  0  0  0  0  0
   -5.3521   23.2163  -20.6948 N   0  0  0  0  0  0  0  0  0  0  0  0
   -5.1692   22.6482  -19.4433 C   0  0  0  0  0  0  0  0  0  0  0  0
   -4.9264   21.4347  -19.3025 O   0  0  0  0  0  0  0  0  0  0  0  0
   -5.5527   24.2591  -20.7213 H   0  0  0  0  0  0  0  0  0  0  0  0
   -5.2576   23.4828  -18.2451 C   0  0  0  0  0  0  0  0  0  0  0  0
   -6.2545   24.2476  -17.9115 C   0  0  0  0  0  0  0  0  0  0  0  0
 11 12  1  0  0  0
 12 13  2  0  0  0
 13 14  1  0  0  0
 14 15  2  0  0  0
 15 16  1  0  0  0
 15  1  1  0  0  0
  1  2  2  0  0  0
  2  3  1  0  0  0
  3  4  2  0  0  0
  4  5  1  0  0  0
  5  6  1  0  0  0
  6  7  2  0  0  0
  7 18  1  0  0  0
 18 19  2  0  0  0
 19 20  1  0  0  0
 20 21  2  0  0  0
 21 22  1  0  0  0
 22 25  1  0  0  0
 25 26  1  0  0  0
 26 27  2  0  0  0
 26 29  1  0  0  0
 29 30  2  0  0  0
 22 23  2  0  0  0
 23 24  1  0  0  0
  7  8  1  0  0  0
  8  9  2  0  0  0
 16 12  1  0  0  0
  9  1  1  0  0  0
  8  4  1  0  0  0
 23 18  1  0  0  0
 16 17  1  0  0  0
  5 10  1  0  0  0
 25 28  1  0  0  0
M  END
> <minimizedAffinity>
-8.58771

> <CNNscore>
0.6389251947

> <CNNaffinity>
7.2996549606

> <CNN_VS>
4.6639332771

> <CNNaffinity_variance>
0.3960519731

$$$$
[H]C([H])=C([H])C(=O)N([H])c1c([H])c([H])c([H])c(-c2c([H])n([H])c3nc([H])c(-c4nc([H])c(C([H])([H])[H])n4[H])c([H])c23)c1Cl


 30 33  0  0  0  0  0  0  0  0999 V2000
   -0.5885   21.7885  -22.4839 C   0  0  0  0  0  0  0  0  0  0  0  0
    0.7328   21.5260  -22.7313 C   0  0  0  0  0  0  0  0  0  0  0  0
    1.2836   21.5388  -23.9824 N   0  0  0  0  0  0  0  0  0  0  0  0
    0.5063   21.8234  -25.0575 C   0  0  0  0  0  0  0  0  0  0  0  0
    0.7244   21.9387  -26.3833 N   0  0  0  0  0  0  0  0  0  0  0  0
   -0.4356   22.2685  -26.9920 C   0  0  0  0  0  0  0  0  0  0  0  0
   -1.4403   22.3753  -26.0656 C   0  0  0  0  0  0  0  0  0  0  0  0
   -0.8375   22.0942  -24.8556 C   0  0  0  0  0  0  0  0  0  0  0  0
   -1.3887   22.0800  -23.5913 C   0  0  0  0  0  0  0  0  0  0  0  0
    1.6518   21.7916  -26.8297 H   0  0  0  0  0  0  0  0  0  0  0  0
   -3.5124   20.8095  -18.5303 C   0  0  0  0  0  0  0  0  0  0  0  0
   -2.4746   21.3677  -19.4267 C   0  0  0  0  0  0  0  0  0  0  0  0
   -1.6117   22.4132  -19.0664 C   0  0  0  0  0  0  0  0  0  0  0  0
   -0.8422   22.6493  -20.1593 N   0  0  0  0  0  0  0  0  0  0  0  0
   -1.1881   21.8080  -21.1587 C   0  0  0  0  0  0  0  0  0  0  0  0
   -2.1804   21.0399  -20.6881 N   0  0  0  0  0  0  0  0  0  0  0  0
   -2.6516   20.2832  -21.2498 H   0  0  0  0  0  0  0  0  0  0  0  0
   -2.8502   22.6803  -26.2355 C   0  0  0  0  0  0  0  0  0  0  0  0
   -3.7443   22.3687  -25.2083 C   0  0  0  0  0  0  0  0  0  0  0  0
   -5.0834   22.6359  -25.3621 C   0  0  0  0  0  0  0  0  0  0  0  0
   -5.5660   23.2206  -26.5400 C   0  0  0  0  0  0  0  0  0  0  0  0
   -4.7298   23.5348  -27.5530 C   0  0  0  0  0  0  0  0  0  0  0  0
   -3.3754   23.2502  -27.3665 C   0  0  0  0  0  0  0  0  0  0  0  0
   -2.1785   23.6184  -28.6255 Cl  0  0  0  0  0  0  0  0  0  0  0  0
   -5.1072   24.1619  -28.7862 N   0  0  0  0  0  0  0  0  0  0  0  0
   -5.4905   25.4780  -28.9941 C   0  0  0  0  0  0  0  0  0  0  0  0
   -5.5559   26.2981  -28.0590 O   0  0  0  0  0  0  0  0  0  0  0  0
   -5.0768   23.5325  -29.6414 H   0  0  0  0  0  0  0  0  0  0  0  0
   -5.8279   25.9335  -30.3427 C   0  0  0  0  0  0  0  0  0  0  0  0
   -5.0675   25.8559  -31.3943 C   0  0  0  0  0  0  0  0  0  0  0  0
 11 12  1  0  0  0
 12 13  2  0  0  0
 13 14  1  0  0  0
 14 15  2  0  0  0
 15 16  1  0  0  0
 15  1  1  0  0  0
  1  2  2  0  0  0
  2  3  1  0  0  0
  3  4  2  0  0  0
  4  5  1  0  0  0
  5  6  1  0  0  0
  6  7  2  0  0  0
  7 18  1  0  0  0
 18 19  2  0  0  0
 19 20  1  0  0  0
 20 21  2  0  0  0
 21 22  1  0  0  0
 22 25  1  0  0  0
 25 26  1  0  0  0
 26 27  2  0  0  0
 26 29  1  0  0  0
 29 30  2  0  0  0
 22 23  2  0  0  0
 23 24  1  0  0  0
  7  8  1  0  0  0
  8  9  2  0  0  0
 16 12  1  0  0  0
  9  1  1  0  0  0
  8  4  1  0  0  0
 23 18  1  0  0  0
 16 17  1  0  0  0
  5 10  1  0  0  0
 25 28  1  0  0  0
M  END
> <minimizedAffinity>
-9.17455

> <CNNscore>
0.5902905464

> <CNNaffinity>
7.2492318153

> <CNN_VS>
4.2791528702

> <CNNaffinity_variance>
0.1576020420

$$$$
[H]C([H])=C([H])C(=O)N([H])c1c([H])c([H])c([H])c(-c2c([H])n([H])c3nc([H])c(-c4nc([H])c(C([H])([H])[H])n4[H])c([H])c23)c1Cl


 30 33  0  0  0  0  0  0  0  0999 V2000
   -0.2872   22.1068  -25.2019 C   0  0  0  0  0  0  0  0  0  0  0  0
    0.2179   22.4113  -26.4380 C   0  0  0  0  0  0  0  0  0  0  0  0
   -0.5500   22.8514  -27.4797 N   0  0  0  0  0  0  0  0  0  0  0  0
   -1.8877   23.0056  -27.3123 C   0  0  0  0  0  0  0  0  0  0  0  0
   -2.9008   23.4263  -28.0965 N   0  0  0  0  0  0  0  0  0  0  0  0
   -4.0489   23.3947  -27.3853 C   0  0  0  0  0  0  0  0  0  0  0  0
   -3.8028   22.9489  -26.1126 C   0  0  0  0  0  0  0  0  0  0  0  0
   -2.4436   22.7081  -26.0784 C   0  0  0  0  0  0  0  0  0  0  0  0
   -1.6646   22.2643  -25.0303 C   0  0  0  0  0  0  0  0  0  0  0  0
   -2.7793   23.7218  -29.0859 H   0  0  0  0  0  0  0  0  0  0  0  0
    3.5433   20.5846  -22.3472 C   0  0  0  0  0  0  0  0  0  0  0  0
    2.2055   21.0008  -22.8262 C   0  0  0  0  0  0  0  0  0  0  0  0
    1.0537   20.9978  -22.0256 C   0  0  0  0  0  0  0  0  0  0  0  0
    0.0433   21.4112  -22.8320 N   0  0  0  0  0  0  0  0  0  0  0  0
    0.5159   21.6646  -24.0724 C   0  0  0  0  0  0  0  0  0  0  0  0
    1.8311   21.4086  -24.0421 N   0  0  0  0  0  0  0  0  0  0  0  0
    2.4687   21.5215  -24.8733 H   0  0  0  0  0  0  0  0  0  0  0  0
   -4.7104   22.7230  -25.0013 C   0  0  0  0  0  0  0  0  0  0  0  0
   -5.1698   21.4283  -24.7477 C   0  0  0  0  0  0  0  0  0  0  0  0
   -6.0421   21.2025  -23.7103 C   0  0  0  0  0  0  0  0  0  0  0  0
   -6.4780   22.2579  -22.8990 C   0  0  0  0  0  0  0  0  0  0  0  0
   -6.0540   23.5219  -23.1156 C   0  0  0  0  0  0  0  0  0  0  0  0
   -5.1688   23.7187  -24.1778 C   0  0  0  0  0  0  0  0  0  0  0  0
   -4.5404   25.3347  -24.5611 Cl  0  0  0  0  0  0  0  0  0  0  0  0
   -6.4086   24.6697  -22.3327 N   0  0  0  0  0  0  0  0  0  0  0  0
   -7.6555   25.2606  -22.1973 C   0  0  0  0  0  0  0  0  0  0  0  0
   -8.6575   24.8227  -22.7935 O   0  0  0  0  0  0  0  0  0  0  0  0
   -5.6104   25.1080  -21.7855 H   0  0  0  0  0  0  0  0  0  0  0  0
   -7.8172   26.4293  -21.3324 C   0  0  0  0  0  0  0  0  0  0  0  0
   -8.7903   26.6396  -20.4965 C   0  0  0  0  0  0  0  0  0  0  0  0
 11 12  1  0  0  0
 12 13  2  0  0  0
 13 14  1  0  0  0
 14 15  2  0  0  0
 15 16  1  0  0  0
 15  1  1  0  0  0
  1  2  2  0  0  0
  2  3  1  0  0  0
  3  4  2  0  0  0
  4  5  1  0  0  0
  5  6  1  0  0  0
  6  7  2  0  0  0
  7 18  1  0  0  0
 18 19  2  0  0  0
 19 20  1  0  0  0
 20 21  2  0  0  0
 21 22  1  0  0  0
 22 25  1  0  0  0
 25 26  1  0  0  0
 26 27  2  0  0  0
 26 29  1  0  0  0
 29 30  2  0  0  0
 22 23  2  0  0  0
 23 24  1  0  0  0
  7  8  1  0  0  0
  8  9  2  0  0  0
 16 12  1  0  0  0
  9  1  1  0  0  0
  8  4  1  0  0  0
 23 18  1  0  0  0
 16 17  1  0  0  0
  5 10  1  0  0  0
 25 28  1  0  0  0
M  END
> <minimizedAffinity>
-8.55051

> <CNNscore>
0.5861493945

> <CNNaffinity>
7.0988883972

> <CNN_VS>
4.1610093117

> <CNNaffinity_variance>
0.2631927431

$$$$
[H]C([H])=C([H])C(=O)N([H])c1c([H])c([H])c([H])c(-c2c([H])n([H])c3nc([H])c(-c4nc([H])c(C([H])([H])[H])n4[H])c([H])c23)c1Cl


 30 33  0  0  0  0  0  0  0  0999 V2000
   -3.0423   23.4347  -28.1275 C   0  0  0  0  0  0  0  0  0  0  0  0
   -1.6940   23.3072  -28.3311 C   0  0  0  0  0  0  0  0  0  0  0  0
   -0.8291   22.8335  -27.3844 N   0  0  0  0  0  0  0  0  0  0  0  0
   -1.3003   22.4611  -26.1677 C   0  0  0  0  0  0  0  0  0  0  0  0
   -0.7455   21.9489  -25.0504 N   0  0  0  0  0  0  0  0  0  0  0  0
   -1.7150   21.7476  -24.1314 C   0  0  0  0  0  0  0  0  0  0  0  0
   -2.9307   22.1283  -24.6376 C   0  0  0  0  0  0  0  0  0  0  0  0
   -2.6581   22.5740  -25.9158 C   0  0  0  0  0  0  0  0  0  0  0  0
   -3.5269   23.0526  -26.8741 C   0  0  0  0  0  0  0  0  0  0  0  0
    0.2703   21.7519  -24.9496 H   0  0  0  0  0  0  0  0  0  0  0  0
   -5.5345   26.3343  -31.3711 C   0  0  0  0  0  0  0  0  0  0  0  0
   -5.0687   25.1897  -30.5553 C   0  0  0  0  0  0  0  0  0  0  0  0
   -5.6870   23.9307  -30.5516 C   0  0  0  0  0  0  0  0  0  0  0  0
   -4.9879   23.1794  -29.6632 N   0  0  0  0  0  0  0  0  0  0  0  0
   -3.9834   23.9093  -29.1302 C   0  0  0  0  0  0  0  0  0  0  0  0
   -4.0537   25.1254  -29.6890 N   0  0  0  0  0  0  0  0  0  0  0  0
   -3.3888   25.9117  -29.4654 H   0  0  0  0  0  0  0  0  0  0  0  0
   -4.2485   22.1253  -24.0268 C   0  0  0  0  0  0  0  0  0  0  0  0
   -5.0981   21.0375  -24.2426 C   0  0  0  0  0  0  0  0  0  0  0  0
   -6.3540   21.0288  -23.6851 C   0  0  0  0  0  0  0  0  0  0  0  0
   -6.7954   22.1005  -22.8985 C   0  0  0  0  0  0  0  0  0  0  0  0
   -6.0003   23.1680  -22.6692 C   0  0  0  0  0  0  0  0  0  0  0  0
   -4.7305   23.1472  -23.2502 C   0  0  0  0  0  0  0  0  0  0  0  0
   -3.5941   24.4921  -23.0202 Cl  0  0  0  0  0  0  0  0  0  0  0  0
   -6.3348   24.3023  -21.8581 N   0  0  0  0  0  0  0  0  0  0  0  0
   -7.3728   25.2041  -22.0352 C   0  0  0  0  0  0  0  0  0  0  0  0
   -8.1664   25.1120  -22.9908 O   0  0  0  0  0  0  0  0  0  0  0  0
   -5.7077   24.4554  -21.0143 H   0  0  0  0  0  0  0  0  0  0  0  0
   -7.5575   26.2980  -21.0816 C   0  0  0  0  0  0  0  0  0  0  0  0
   -8.6806   26.6656  -20.5398 C   0  0  0  0  0  0  0  0  0  0  0  0
 11 12  1  0  0  0
 12 13  2  0  0  0
 13 14  1  0  0  0
 14 15  2  0  0  0
 15 16  1  0  0  0
 15  1  1  0  0  0
  1  2  2  0  0  0
  2  3  1  0  0  0
  3  4  2  0  0  0
  4  5  1  0  0  0
  5  6  1  0  0  0
  6  7  2  0  0  0
  7 18  1  0  0  0
 18 19  2  0  0  0
 19 20  1  0  0  0
 20 21  2  0  0  0
 21 22  1  0  0  0
 22 25  1  0  0  0
 25 26  1  0  0  0
 26 27  2  0  0  0
 26 29  1  0  0  0
 29 30  2  0  0  0
 22 23  2  0  0  0
 23 24  1  0  0  0
  7  8  1  0  0  0
  8  9  2  0  0  0
 16 12  1  0  0  0
  9  1  1  0  0  0
  8  4  1  0  0  0
 23 18  1  0  0  0
 16 17  1  0  0  0
  5 10  1  0  0  0
 25 28  1  0  0  0
M  END
> <minimizedAffinity>
-8.73581

> <CNNscore>
0.5763159990

> <CNNaffinity>
7.2745637894

> <CNN_VS>
4.1924476624

> <CNNaffinity_variance>
0.2364847362

$$$$
[H]C([H])=C([H])C(=O)N([H])c1c([H])c([H])c([H])c(-c2c([H])n([H])c3nc([H])c(-c4nc([H])c(C([H])([H])[H])n4[H])c([H])c23)c1Cl


 30 33  0  0  0  0  0  0  0  0999 V2000
   -1.4968   21.9936  -23.9678 C   0  0  0  0  0  0  0  0  0  0  0  0
   -0.1350   21.8620  -24.0318 C   0  0  0  0  0  0  0  0  0  0  0  0
    0.5893   22.0566  -25.1747 N   0  0  0  0  0  0  0  0  0  0  0  0
   -0.0453   22.3994  -26.3240 C   0  0  0  0  0  0  0  0  0  0  0  0
    0.3528   22.6785  -27.5818 N   0  0  0  0  0  0  0  0  0  0  0  0
   -0.7311   22.9848  -28.3277 C   0  0  0  0  0  0  0  0  0  0  0  0
   -1.8660   22.9104  -27.5625 C   0  0  0  0  0  0  0  0  0  0  0  0
   -1.4234   22.5426  -26.3073 C   0  0  0  0  0  0  0  0  0  0  0  0
   -2.1499   22.3452  -25.1517 C   0  0  0  0  0  0  0  0  0  0  0  0
    1.3451   22.6535  -27.8913 H   0  0  0  0  0  0  0  0  0  0  0  0
   -5.3204   21.6362  -20.7443 C   0  0  0  0  0  0  0  0  0  0  0  0
   -3.9693   21.6596  -21.3494 C   0  0  0  0  0  0  0  0  0  0  0  0
   -2.7821   21.5246  -20.6146 C   0  0  0  0  0  0  0  0  0  0  0  0
   -1.7751   21.6294  -21.5185 N   0  0  0  0  0  0  0  0  0  0  0  0
   -2.2830   21.8191  -22.7564 C   0  0  0  0  0  0  0  0  0  0  0  0
   -3.6168   21.8326  -22.6265 N   0  0  0  0  0  0  0  0  0  0  0  0
   -4.2822   21.9609  -23.4333 H   0  0  0  0  0  0  0  0  0  0  0  0
   -3.2580   23.1240  -27.9182 C   0  0  0  0  0  0  0  0  0  0  0  0
   -3.7514   22.5741  -29.1039 C   0  0  0  0  0  0  0  0  0  0  0  0
   -5.0617   22.7824  -29.4616 C   0  0  0  0  0  0  0  0  0  0  0  0
   -5.9137   23.5411  -28.6488 C   0  0  0  0  0  0  0  0  0  0  0  0
   -5.4700   24.0873  -27.4960 C   0  0  0  0  0  0  0  0  0  0  0  0
   -4.1337   23.8583  -27.1608 C   0  0  0  0  0  0  0  0  0  0  0  0
   -3.4349   24.5229  -25.6698 Cl  0  0  0  0  0  0  0  0  0  0  0  0
   -6.2581   24.8529  -26.5745 N   0  0  0  0  0  0  0  0  0  0  0  0
   -6.8520   24.4258  -25.3967 C   0  0  0  0  0  0  0  0  0  0  0  0
   -6.7567   23.2480  -25.0031 O   0  0  0  0  0  0  0  0  0  0  0  0
   -6.3889   25.8752  -26.8320 H   0  0  0  0  0  0  0  0  0  0  0  0
   -7.6125   25.3719  -24.5802 C   0  0  0  0  0  0  0  0  0  0  0  0
   -8.3646   25.0782  -23.5613 C   0  0  0  0  0  0  0  0  0  0  0  0
 11 12  1  0  0  0
 12 13  2  0  0  0
 13 14  1  0  0  0
 14 15  2  0  0  0
 15 16  1  0  0  0
 15  1  1  0  0  0
  1  2  2  0  0  0
  2  3  1  0  0  0
  3  4  2  0  0  0
  4  5  1  0  0  0
  5  6  1  0  0  0
  6  7  2  0  0  0
  7 18  1  0  0  0
 18 19  2  0  0  0
 19 20  1  0  0  0
 20 21  2  0  0  0
 21 22  1  0  0  0
 22 25  1  0  0  0
 25 26  1  0  0  0
 26 27  2  0  0  0
 26 29  1  0  0  0
 29 30  2  0  0  0
 22 23  2  0  0  0
 23 24  1  0  0  0
  7  8  1  0  0  0
  8  9  2  0  0  0
 16 12  1  0  0  0
  9  1  1  0  0  0
  8  4  1  0  0  0
 23 18  1  0  0  0
 16 17  1  0  0  0
  5 10  1  0  0  0
 25 28  1  0  0  0
M  END
> <minimizedAffinity>
-8.66229

> <CNNscore>
0.5149134994

> <CNNaffinity>
7.1417455673

> <CNN_VS>
3.6773812771

> <CNNaffinity_variance>
0.3327193260

$$$$
[H]C([H])=C([H])C(=O)N([H])c1c([H])c([H])c([H])c(-c2c([H])n([H])c3nc([H])c(-c4nc([H])c(C([H])([H])[H])n4[H])c([H])c23)c1Cl


 30 33  0  0  0  0  0  0  0  0999 V2000
   -1.4197   22.5617  -26.1903 C   0  0  0  0  0  0  0  0  0  0  0  0
   -1.1113   22.3078  -27.5004 C   0  0  0  0  0  0  0  0  0  0  0  0
   -1.8795   22.7253  -28.5513 N   0  0  0  0  0  0  0  0  0  0  0  0
   -3.0144   23.4312  -28.3173 C   0  0  0  0  0  0  0  0  0  0  0  0
   -3.9596   23.9954  -29.0963 N   0  0  0  0  0  0  0  0  0  0  0  0
   -4.8715   24.6053  -28.3081 C   0  0  0  0  0  0  0  0  0  0  0  0
   -4.5342   24.4486  -26.9887 C   0  0  0  0  0  0  0  0  0  0  0  0
   -3.3673   23.7106  -27.0068 C   0  0  0  0  0  0  0  0  0  0  0  0
   -2.5890   23.2873  -25.9498 C   0  0  0  0  0  0  0  0  0  0  0  0
   -3.9535   23.9491  -30.1349 H   0  0  0  0  0  0  0  0  0  0  0  0
    2.4502   21.1288  -23.3425 C   0  0  0  0  0  0  0  0  0  0  0  0
    1.1051   21.5268  -23.8164 C   0  0  0  0  0  0  0  0  0  0  0  0
   -0.0376   21.5385  -23.0029 C   0  0  0  0  0  0  0  0  0  0  0  0
   -1.0591   21.9269  -23.8078 N   0  0  0  0  0  0  0  0  0  0  0  0
   -0.6017   22.1514  -25.0595 C   0  0  0  0  0  0  0  0  0  0  0  0
    0.7150   21.9024  -25.0378 N   0  0  0  0  0  0  0  0  0  0  0  0
    1.3426   21.9974  -25.8788 H   0  0  0  0  0  0  0  0  0  0  0  0
   -5.2096   24.8974  -25.7836 C   0  0  0  0  0  0  0  0  0  0  0  0
   -5.1002   26.2358  -25.3984 C   0  0  0  0  0  0  0  0  0  0  0  0
   -5.7197   26.6708  -24.2516 C   0  0  0  0  0  0  0  0  0  0  0  0
   -6.4640   25.7862  -23.4605 C   0  0  0  0  0  0  0  0  0  0  0  0
   -6.5908   24.4859  -23.8032 C   0  0  0  0  0  0  0  0  0  0  0  0
   -5.9489   24.0748  -24.9734 C   0  0  0  0  0  0  0  0  0  0  0  0
   -6.0431   22.3907  -25.5285 Cl  0  0  0  0  0  0  0  0  0  0  0  0
   -7.3505   23.5019  -23.0884 N   0  0  0  0  0  0  0  0  0  0  0  0
   -6.9474   22.7256  -22.0128 C   0  0  0  0  0  0  0  0  0  0  0  0
   -5.7999   22.8101  -21.5359 O   0  0  0  0  0  0  0  0  0  0  0  0
   -8.3477   23.3659  -23.4285 H   0  0  0  0  0  0  0  0  0  0  0  0
   -7.8834   21.7783  -21.4074 C   0  0  0  0  0  0  0  0  0  0  0  0
   -8.8634   22.0707  -20.6049 C   0  0  0  0  0  0  0  0  0  0  0  0
 11 12  1  0  0  0
 12 13  2  0  0  0
 13 14  1  0  0  0
 14 15  2  0  0  0
 15 16  1  0  0  0
 15  1  1  0  0  0
  1  2  2  0  0  0
  2  3  1  0  0  0
  3  4  2  0  0  0
  4  5  1  0  0  0
  5  6  1  0  0  0
  6  7  2  0  0  0
  7 18  1  0  0  0
 18 19  2  0  0  0
 19 20  1  0  0  0
 20 21  2  0  0  0
 21 22  1  0  0  0
 22 25  1  0  0  0
 25 26  1  0  0  0
 26 27  2  0  0  0
 26 29  1  0  0  0
 29 30  2  0  0  0
 22 23  2  0  0  0
 23 24  1  0  0  0
  7  8  1  0  0  0
  8  9  2  0  0  0
 16 12  1  0  0  0
  9  1  1  0  0  0
  8  4  1  0  0  0
 23 18  1  0  0  0
 16 17  1  0  0  0
  5 10  1  0  0  0
 25 28  1  0  0  0
M  END
> <minimizedAffinity>
-8.06298

> <CNNscore>
0.4799383283

> <CNNaffinity>
7.1978783607

> <CNN_VS>
3.4545376301

> <CNNaffinity_variance>
0.4956271648

$$$$
[H]Oc1c([H])c([H])c(/C([H])=C2\C(=O)N(c3c([H])c([H])c(N(C([H])([H])[H])C([H])([H])[H])c([H])c3[H])C(=O)c3c([H])c([H])c([H])c([H])c32)c([H])c1[H]


 30 33  0  0  0  0  0  0  0  0999 V2000
    1.8564   21.5356  -16.4700 N   0  0  0  0  0  0  0  0  0  0  0  0
    0.5219   21.3931  -15.9948 C   0  0  0  0  0  0  0  0  0  0  0  0
   -0.3716   20.9465  -16.7684 O   0  0  0  0  0  0  0  0  0  0  0  0
    0.1538   21.7577  -14.6156 C   0  0  0  0  0  0  0  0  0  0  0  0
   -1.0559   21.5729  -14.1893 C   0  0  0  0  0  0  0  0  0  0  0  0
    1.2129   22.2856  -13.7236 C   0  0  0  0  0  0  0  0  0  0  0  0
    0.9114   22.6464  -12.4389 C   0  0  0  0  0  0  0  0  0  0  0  0
    1.9382   23.1534  -11.6122 C   0  0  0  0  0  0  0  0  0  0  0  0
    3.2252   23.2969  -12.0499 C   0  0  0  0  0  0  0  0  0  0  0  0
    3.4812   22.9228  -13.3474 C   0  0  0  0  0  0  0  0  0  0  0  0
    2.5171   22.4246  -14.1955 C   0  0  0  0  0  0  0  0  0  0  0  0
    2.8087   22.0455  -15.5556 C   0  0  0  0  0  0  0  0  0  0  0  0
    3.9946   22.1803  -15.9505 O   0  0  0  0  0  0  0  0  0  0  0  0
   -2.1608   21.0052  -14.9396 C   0  0  0  0  0  0  0  0  0  0  0  0
   -3.0662   21.7828  -15.6306 C   0  0  0  0  0  0  0  0  0  0  0  0
   -4.1729   21.2654  -16.2700 C   0  0  0  0  0  0  0  0  0  0  0  0
   -4.4192   19.9077  -16.2408 C   0  0  0  0  0  0  0  0  0  0  0  0
   -5.5233   19.3961  -16.8809 O   0  0  0  0  0  0  0  0  0  0  0  0
   -3.5517   19.1015  -15.5715 C   0  0  0  0  0  0  0  0  0  0  0  0
   -2.4519   19.6514  -14.9389 C   0  0  0  0  0  0  0  0  0  0  0  0
   -6.3794   19.3273  -16.3530 H   0  0  0  0  0  0  0  0  0  0  0  0
    2.9320   20.3116  -20.3874 C   0  0  0  0  0  0  0  0  0  0  0  0
    2.9310   19.4203  -19.3064 C   0  0  0  0  0  0  0  0  0  0  0  0
    2.5847   19.8706  -18.0644 C   0  0  0  0  0  0  0  0  0  0  0  0
    2.2227   21.1972  -17.8063 C   0  0  0  0  0  0  0  0  0  0  0  0
    2.2299   22.0557  -18.8691 C   0  0  0  0  0  0  0  0  0  0  0  0
    2.5822   21.6179  -20.1551 C   0  0  0  0  0  0  0  0  0  0  0  0
    3.8266   18.4781  -21.7934 C   0  0  0  0  0  0  0  0  0  0  0  0
    3.2966   19.8043  -21.6484 N   0  0  0  0  0  0  0  0  0  0  0  0
    3.1244   20.6434  -22.8128 C   0  0  0  0  0  0  0  0  0  0  0  0
 28 29  1  0  0  0
 29 30  1  0  0  0
 29 22  1  0  0  0
 22 23  2  0  0  0
 23 24  1  0  0  0
 24 25  2  0  0  0
 25 26  1  0  0  0
 26 27  2  0  0  0
 25  1  1  0  0  0
  1  2  1  0  0  0
  2  3  2  0  0  0
  2  4  1  0  0  0
  4  5  2  0  0  0
  5 14  1  0  0  0
 14 15  2  0  0  0
 15 16  1  0  0  0
 16 17  2  0  0  0
 17 18  1  0  0  0
 17 19  1  0  0  0
 19 20  2  0  0  0
  4  6  1  0  0  0
  6  7  2  0  0  0
  7  8  1  0  0  0
  8  9  2  0  0  0
  9 10  1  0  0  0
 10 11  2  0  0  0
 11 12  1  0  0  0
 12 13  2  0  0  0
 27 22  1  0  0  0
 12  1  1  0  0  0
 20 14  1  0  0  0
 11  6  1  0  0  0
 18 21  1  0  0  0
M  END
> <minimizedAffinity>
-4.06478

> <CNNscore>
0.6471599340

> <CNNaffinity>
5.2451949120

> <CNN_VS>
3.3944799900

> <CNNaffinity_variance>
0.2265919745

$$$$
[H]Oc1c([H])c([H])c(/C([H])=C2\C(=O)N(c3c([H])c([H])c(N(C([H])([H])[H])C([H])([H])[H])c([H])c3[H])C(=O)c3c([H])c([H])c([H])c([H])c32)c([H])c1[H]


 30 33  0  0  0  0  0  0  0  0999 V2000
   -2.1089   19.4854  -17.6490 N   0  0  0  0  0  0  0  0  0  0  0  0
   -1.1729   20.4133  -18.1873 C   0  0  0  0  0  0  0  0  0  0  0  0
    0.0447   20.3323  -17.8602 O   0  0  0  0  0  0  0  0  0  0  0  0
   -1.5915   21.4739  -19.1205 C   0  0  0  0  0  0  0  0  0  0  0  0
   -0.7147   22.2763  -19.6368 C   0  0  0  0  0  0  0  0  0  0  0  0
   -3.0244   21.5583  -19.4887 C   0  0  0  0  0  0  0  0  0  0  0  0
   -3.4570   22.5348  -20.3435 C   0  0  0  0  0  0  0  0  0  0  0  0
   -4.8292   22.5971  -20.6722 C   0  0  0  0  0  0  0  0  0  0  0  0
   -5.7428   21.7150  -20.1664 C   0  0  0  0  0  0  0  0  0  0  0  0
   -5.2629   20.7520  -19.3111 C   0  0  0  0  0  0  0  0  0  0  0  0
   -3.9362   20.6480  -18.9567 C   0  0  0  0  0  0  0  0  0  0  0  0
   -3.4577   19.6329  -18.0514 C   0  0  0  0  0  0  0  0  0  0  0  0
   -4.3040   18.8254  -17.5907 O   0  0  0  0  0  0  0  0  0  0  0  0
    0.7184   22.2546  -19.4094 C   0  0  0  0  0  0  0  0  0  0  0  0
    1.3416   23.1028  -18.5182 C   0  0  0  0  0  0  0  0  0  0  0  0
    2.7102   23.1582  -18.3594 C   0  0  0  0  0  0  0  0  0  0  0  0
    3.5294   22.3391  -19.1099 C   0  0  0  0  0  0  0  0  0  0  0  0
    4.8934   22.3970  -18.9471 O   0  0  0  0  0  0  0  0  0  0  0  0
    2.9580   21.4852  -20.0012 C   0  0  0  0  0  0  0  0  0  0  0  0
    1.5823   21.4547  -20.1383 C   0  0  0  0  0  0  0  0  0  0  0  0
    5.4056   23.0466  -19.5232 H   0  0  0  0  0  0  0  0  0  0  0  0
   -0.8641   16.3244  -15.1075 C   0  0  0  0  0  0  0  0  0  0  0  0
   -0.9134   16.1801  -16.5003 C   0  0  0  0  0  0  0  0  0  0  0  0
   -1.3307   17.2280  -17.2702 C   0  0  0  0  0  0  0  0  0  0  0  0
   -1.7181   18.4617  -16.7360 C   0  0  0  0  0  0  0  0  0  0  0  0
   -1.6670   18.5877  -15.3764 C   0  0  0  0  0  0  0  0  0  0  0  0
   -1.2421   17.5258  -14.5632 C   0  0  0  0  0  0  0  0  0  0  0  0
    0.9378   15.0938  -13.9337 C   0  0  0  0  0  0  0  0  0  0  0  0
   -0.4291   15.2182  -14.3539 N   0  0  0  0  0  0  0  0  0  0  0  0
   -1.3887   14.1972  -13.9985 C   0  0  0  0  0  0  0  0  0  0  0  0
 28 29  1  0  0  0
 29 30  1  0  0  0
 29 22  1  0  0  0
 22 23  2  0  0  0
 23 24  1  0  0  0
 24 25  2  0  0  0
 25 26  1  0  0  0
 26 27  2  0  0  0
 25  1  1  0  0  0
  1  2  1  0  0  0
  2  3  2  0  0  0
  2  4  1  0  0  0
  4  5  2  0  0  0
  5 14  1  0  0  0
 14 15  2  0  0  0
 15 16  1  0  0  0
 16 17  2  0  0  0
 17 18  1  0  0  0
 17 19  1  0  0  0
 19 20  2  0  0  0
  4  6  1  0  0  0
  6  7  2  0  0  0
  7  8  1  0  0  0
  8  9  2  0  0  0
  9 10  1  0  0  0
 10 11  2  0  0  0
 11 12  1  0  0  0
 12 13  2  0  0  0
 27 22  1  0  0  0
 12  1  1  0  0  0
 20 14  1  0  0  0
 11  6  1  0  0  0
 18 21  1  0  0  0
M  END
> <minimizedAffinity>
-3.82554

> <CNNscore>
0.6405749917

> <CNNaffinity>
5.4493231773

> <CNN_VS>
3.4907002449

> <CNNaffinity_variance>
0.6829186082

$$$$
[H]Oc1c([H])c([H])c(/C([H])=C2\C(=O)N(c3c([H])c([H])c(N(C([H])([H])[H])C([H])([H])[H])c([H])c3[H])C(=O)c3c([H])c([H])c([H])c([H])c32)c([H])c1[H]


 30 33  0  0  0  0  0  0  0  0999 V2000
   -0.5383   19.5107  -16.6502 N   0  0  0  0  0  0  0  0  0  0  0  0
    0.5517   19.8207  -17.5121 C   0  0  0  0  0  0  0  0  0  0  0  0
    0.6626   19.2208  -18.6185 O   0  0  0  0  0  0  0  0  0  0  0  0
    1.5614   20.8283  -17.1431 C   0  0  0  0  0  0  0  0  0  0  0  0
    2.5170   21.1303  -17.9646 C   0  0  0  0  0  0  0  0  0  0  0  0
    1.4194   21.5181  -15.8392 C   0  0  0  0  0  0  0  0  0  0  0  0
    2.3410   22.4525  -15.4532 C   0  0  0  0  0  0  0  0  0  0  0  0
    2.1859   23.0897  -14.2023 C   0  0  0  0  0  0  0  0  0  0  0  0
    1.1461   22.8063  -13.3614 C   0  0  0  0  0  0  0  0  0  0  0  0
    0.2457   21.8605  -13.7904 C   0  0  0  0  0  0  0  0  0  0  0  0
    0.3511   21.2087  -14.9990 C   0  0  0  0  0  0  0  0  0  0  0  0
   -0.6027   20.2145  -15.4240 C   0  0  0  0  0  0  0  0  0  0  0  0
   -1.5561   19.9595  -14.6453 O   0  0  0  0  0  0  0  0  0  0  0  0
    2.7258   20.5777  -19.2902 C   0  0  0  0  0  0  0  0  0  0  0  0
    3.5468   19.4941  -19.5218 C   0  0  0  0  0  0  0  0  0  0  0  0
    3.8283   19.0161  -20.7842 C   0  0  0  0  0  0  0  0  0  0  0  0
    3.2789   19.6244  -21.8947 C   0  0  0  0  0  0  0  0  0  0  0  0
    3.5614   19.1435  -23.1514 O   0  0  0  0  0  0  0  0  0  0  0  0
    2.4617   20.6967  -21.7138 C   0  0  0  0  0  0  0  0  0  0  0  0
    2.2004   21.1530  -20.4348 C   0  0  0  0  0  0  0  0  0  0  0  0
    4.3640   19.5242  -23.6279 H   0  0  0  0  0  0  0  0  0  0  0  0
   -3.5480   16.7461  -17.7901 C   0  0  0  0  0  0  0  0  0  0  0  0
   -3.6831   18.1227  -18.0131 C   0  0  0  0  0  0  0  0  0  0  0  0
   -2.6866   18.9687  -17.6174 C   0  0  0  0  0  0  0  0  0  0  0  0
   -1.5154   18.5292  -16.9910 C   0  0  0  0  0  0  0  0  0  0  0  0
   -1.3978   17.1847  -16.7781 C   0  0  0  0  0  0  0  0  0  0  0  0
   -2.4076   16.2946  -17.1750 C   0  0  0  0  0  0  0  0  0  0  0  0
   -4.6619   15.4149  -19.5582 C   0  0  0  0  0  0  0  0  0  0  0  0
   -4.5999   15.9123  -18.2130 N   0  0  0  0  0  0  0  0  0  0  0  0
   -5.6286   15.5533  -17.2631 C   0  0  0  0  0  0  0  0  0  0  0  0
 28 29  1  0  0  0
 29 30  1  0  0  0
 29 22  1  0  0  0
 22 23  2  0  0  0
 23 24  1  0  0  0
 24 25  2  0  0  0
 25 26  1  0  0  0
 26 27  2  0  0  0
 25  1  1  0  0  0
  1  2  1  0  0  0
  2  3  2  0  0  0
  2  4  1  0  0  0
  4  5  2  0  0  0
  5 14  1  0  0  0
 14 15  2  0  0  0
 15 16  1  0  0  0
 16 17  2  0  0  0
 17 18  1  0  0  0
 17 19  1  0  0  0
 19 20  2  0  0  0
  4  6  1  0  0  0
  6  7  2  0  0  0
  7  8  1  0  0  0
  8  9  2  0  0  0
  9 10  1  0  0  0
 10 11  2  0  0  0
 11 12  1  0  0  0
 12 13  2  0  0  0
 27 22  1  0  0  0
 12  1  1  0  0  0
 20 14  1  0  0  0
 11  6  1  0  0  0
 18 21  1  0  0  0
M  END
> <minimizedAffinity>
-4.16586

> <CNNscore>
0.6041173935

> <CNNaffinity>
5.1305222511

> <CNN_VS>
3.0994377136

> <CNNaffinity_variance>
0.4181310534

$$$$
[H]Oc1c([H])c([H])c(/C([H])=C2\C(=O)N(c3c([H])c([H])c(N(C([H])([H])[H])C([H])([H])[H])c([H])c3[H])C(=O)c3c([H])c([H])c([H])c([H])c32)c([H])c1[H]


 30 33  0  0  0  0  0  0  0  0999 V2000
   -4.2358   20.3600  -18.7495 N   0  0  0  0  0  0  0  0  0  0  0  0
   -3.0667   21.0838  -19.1187 C   0  0  0  0  0  0  0  0  0  0  0  0
   -1.9721   20.8400  -18.5369 O   0  0  0  0  0  0  0  0  0  0  0  0
   -3.1018   22.1183  -20.1672 C   0  0  0  0  0  0  0  0  0  0  0  0
   -2.0156   22.7296  -20.5218 C   0  0  0  0  0  0  0  0  0  0  0  0
   -4.3953   22.3959  -20.8351 C   0  0  0  0  0  0  0  0  0  0  0  0
   -4.4741   23.3561  -21.8063 C   0  0  0  0  0  0  0  0  0  0  0  0
   -5.7207   23.6055  -22.4217 C   0  0  0  0  0  0  0  0  0  0  0  0
   -6.8538   22.9208  -22.0815 C   0  0  0  0  0  0  0  0  0  0  0  0
   -6.7272   21.9665  -21.1004 C   0  0  0  0  0  0  0  0  0  0  0  0
   -5.5367   21.6851  -20.4677 C   0  0  0  0  0  0  0  0  0  0  0  0
   -5.4305   20.6838  -19.4358 C   0  0  0  0  0  0  0  0  0  0  0  0
   -6.4769   20.0584  -19.1288 O   0  0  0  0  0  0  0  0  0  0  0  0
   -0.6829   22.5023  -19.9943 C   0  0  0  0  0  0  0  0  0  0  0  0
   -0.1288   23.2945  -19.0107 C   0  0  0  0  0  0  0  0  0  0  0  0
    1.1682   23.1494  -18.5657 C   0  0  0  0  0  0  0  0  0  0  0  0
    1.9817   22.1738  -19.1056 C   0  0  0  0  0  0  0  0  0  0  0  0
    3.2739   22.0320  -18.6577 O   0  0  0  0  0  0  0  0  0  0  0  0
    1.4767   21.3680  -20.0781 C   0  0  0  0  0  0  0  0  0  0  0  0
    0.1724   21.5400  -20.5040 C   0  0  0  0  0  0  0  0  0  0  0  0
    3.9918   22.5622  -19.1265 H   0  0  0  0  0  0  0  0  0  0  0  0
   -4.2756   17.5482  -15.5726 C   0  0  0  0  0  0  0  0  0  0  0  0
   -4.5089   18.9129  -15.3576 C   0  0  0  0  0  0  0  0  0  0  0  0
   -4.4752   19.7754  -16.4160 C   0  0  0  0  0  0  0  0  0  0  0  0
   -4.2171   19.3646  -17.7282 C   0  0  0  0  0  0  0  0  0  0  0  0
   -3.9896   18.0315  -17.9230 C   0  0  0  0  0  0  0  0  0  0  0  0
   -4.0183   17.1249  -16.8521 C   0  0  0  0  0  0  0  0  0  0  0  0
   -3.1185   16.1548  -13.8818 C   0  0  0  0  0  0  0  0  0  0  0  0
   -4.3189   16.6966  -14.4530 N   0  0  0  0  0  0  0  0  0  0  0  0
   -5.6032   16.3732  -13.8735 C   0  0  0  0  0  0  0  0  0  0  0  0
 28 29  1  0  0  0
 29 30  1  0  0  0
 29 22  1  0  0  0
 22 23  2  0  0  0
 23 24  1  0  0  0
 24 25  2  0  0  0
 25 26  1  0  0  0
 26 27  2  0  0  0
 25  1  1  0  0  0
  1  2  1  0  0  0
  2  3  2  0  0  0
  2  4  1  0  0  0
  4  5  2  0  0  0
  5 14  1  0  0  0
 14 15  2  0  0  0
 15 16  1  0  0  0
 16 17  2  0  0  0
 17 18  1  0  0  0
 17 19  1  0  0  0
 19 20  2  0  0  0
  4  6  1  0  0  0
  6  7  2  0  0  0
  7  8  1  0  0  0
  8  9  2  0  0  0
  9 10  1  0  0  0
 10 11  2  0  0  0
 11 12  1  0  0  0
 12 13  2  0  0  0
 27 22  1  0  0  0
 12  1  1  0  0  0
 20 14  1  0  0  0
 11  6  1  0  0  0
 18 21  1  0  0  0
M  END
> <minimizedAffinity>
-4.59097

> <CNNscore>
0.5425280333

> <CNNaffinity>
5.4469914436

> <CNN_VS>
2.9551455975

> <CNNaffinity_variance>
0.5902910233

$$$$
[H]Oc1c([H])c([H])c(/C([H])=C2\C(=O)N(c3c([H])c([H])c(N(C([H])([H])[H])C([H])([H])[H])c([H])c3[H])C(=O)c3c([H])c([H])c([H])c([H])c32)c([H])c1[H]


 30 33  0  0  0  0  0  0  0  0999 V2000
   -3.1778   23.3187  -26.6717 N   0  0  0  0  0  0  0  0  0  0  0  0
   -3.7635   23.3808  -25.3755 C   0  0  0  0  0  0  0  0  0  0  0  0
   -4.9484   23.7995  -25.2456 O   0  0  0  0  0  0  0  0  0  0  0  0
   -3.0172   22.9686  -24.1739 C   0  0  0  0  0  0  0  0  0  0  0  0
   -3.5869   22.9864  -23.0101 C   0  0  0  0  0  0  0  0  0  0  0  0
   -1.6265   22.4858  -24.3437 C   0  0  0  0  0  0  0  0  0  0  0  0
   -0.8946   22.1038  -23.2529 C   0  0  0  0  0  0  0  0  0  0  0  0
    0.4310   21.6544  -23.4423 C   0  0  0  0  0  0  0  0  0  0  0  0
    1.0105   21.5870  -24.6785 C   0  0  0  0  0  0  0  0  0  0  0  0
    0.2380   21.9819  -25.7445 C   0  0  0  0  0  0  0  0  0  0  0  0
   -1.0581   22.4293  -25.6153 C   0  0  0  0  0  0  0  0  0  0  0  0
   -1.8464   22.8451  -26.7486 C   0  0  0  0  0  0  0  0  0  0  0  0
   -1.3064   22.7800  -27.8820 O   0  0  0  0  0  0  0  0  0  0  0  0
   -4.9559   23.3723  -22.7223 C   0  0  0  0  0  0  0  0  0  0  0  0
   -5.3088   24.6630  -22.3884 C   0  0  0  0  0  0  0  0  0  0  0  0
   -6.5879   25.0254  -22.0221 C   0  0  0  0  0  0  0  0  0  0  0  0
   -7.5912   24.0786  -21.9775 C   0  0  0  0  0  0  0  0  0  0  0  0
   -8.8653   24.4449  -21.6129 O   0  0  0  0  0  0  0  0  0  0  0  0
   -7.2890   22.7922  -22.3001 C   0  0  0  0  0  0  0  0  0  0  0  0
   -5.9961   22.4604  -22.6617 C   0  0  0  0  0  0  0  0  0  0  0  0
   -9.1013   24.4034  -20.6338 H   0  0  0  0  0  0  0  0  0  0  0  0
   -5.1656   24.7209  -30.1478 C   0  0  0  0  0  0  0  0  0  0  0  0
   -4.3889   25.5674  -29.3458 C   0  0  0  0  0  0  0  0  0  0  0  0
   -3.7783   25.0646  -28.2324 C   0  0  0  0  0  0  0  0  0  0  0  0
   -3.8859   23.7258  -27.8410 C   0  0  0  0  0  0  0  0  0  0  0  0
   -4.6478   22.9122  -28.6312 C   0  0  0  0  0  0  0  0  0  0  0  0
   -5.2858   23.4045  -29.7801 C   0  0  0  0  0  0  0  0  0  0  0  0
   -6.3573   24.4546  -32.3037 C   0  0  0  0  0  0  0  0  0  0  0  0
   -5.7771   25.2822  -31.2843 N   0  0  0  0  0  0  0  0  0  0  0  0
   -5.8194   26.7214  -31.4129 C   0  0  0  0  0  0  0  0  0  0  0  0
 28 29  1  0  0  0
 29 30  1  0  0  0
 29 22  1  0  0  0
 22 23  2  0  0  0
 23 24  1  0  0  0
 24 25  2  0  0  0
 25 26  1  0  0  0
 26 27  2  0  0  0
 25  1  1  0  0  0
  1  2  1  0  0  0
  2  3  2  0  0  0
  2  4  1  0  0  0
  4  5  2  0  0  0
  5 14  1  0  0  0
 14 15  2  0  0  0
 15 16  1  0  0  0
 16 17  2  0  0  0
 17 18  1  0  0  0
 17 19  1  0  0  0
 19 20  2  0  0  0
  4  6  1  0  0  0
  6  7  2  0  0  0
  7  8  1  0  0  0
  8  9  2  0  0  0
  9 10  1  0  0  0
 10 11  2  0  0  0
 11 12  1  0  0  0
 12 13  2  0  0  0
 27 22  1  0  0  0
 12  1  1  0  0  0
 20 14  1  0  0  0
 11  6  1  0  0  0
 18 21  1  0  0  0
M  END
> <minimizedAffinity>
-9.68700

> <CNNscore>
0.5395174623

> <CNNaffinity>
6.9433555603

> <CNN_VS>
3.7460615635

> <CNNaffinity_variance>
0.2301462442

$$$$
[H]Oc1c([H])c([H])c(/C([H])=C2\C(=O)N(c3c([H])c([H])c(N(C([H])([H])[H])C([H])([H])[H])c([H])c3[H])C(=O)c3c([H])c([H])c([H])c([H])c32)c([H])c1[H]


 30 33  0  0  0  0  0  0  0  0999 V2000
   -2.7197   22.4443  -25.0440 N   0  0  0  0  0  0  0  0  0  0  0  0
   -3.9370   22.8751  -24.4445 C   0  0  0  0  0  0  0  0  0  0  0  0
   -4.0469   22.8758  -23.1859 O   0  0  0  0  0  0  0  0  0  0  0  0
   -5.0801   23.3211  -25.2602 C   0  0  0  0  0  0  0  0  0  0  0  0
   -6.1606   23.7562  -24.6923 C   0  0  0  0  0  0  0  0  0  0  0  0
   -4.9363   23.3082  -26.7351 C   0  0  0  0  0  0  0  0  0  0  0  0
   -5.9773   23.7040  -27.5296 C   0  0  0  0  0  0  0  0  0  0  0  0
   -5.8159   23.6751  -28.9325 C   0  0  0  0  0  0  0  0  0  0  0  0
   -4.6550   23.2655  -29.5266 C   0  0  0  0  0  0  0  0  0  0  0  0
   -3.6372   22.8760  -28.6890 C   0  0  0  0  0  0  0  0  0  0  0  0
   -3.7425   22.8834  -27.3158 C   0  0  0  0  0  0  0  0  0  0  0  0
   -2.6626   22.4631  -26.4580 C   0  0  0  0  0  0  0  0  0  0  0  0
   -1.5983   22.0880  -27.0119 O   0  0  0  0  0  0  0  0  0  0  0  0
   -6.3992   23.8804  -23.2663 C   0  0  0  0  0  0  0  0  0  0  0  0
   -7.0447   22.9062  -22.5340 C   0  0  0  0  0  0  0  0  0  0  0  0
   -7.3611   23.0499  -21.1995 C   0  0  0  0  0  0  0  0  0  0  0  0
   -7.0303   24.2102  -20.5293 C   0  0  0  0  0  0  0  0  0  0  0  0
   -7.3466   24.3484  -19.1983 O   0  0  0  0  0  0  0  0  0  0  0  0
   -6.3915   25.1983  -21.2118 C   0  0  0  0  0  0  0  0  0  0  0  0
   -6.0896   25.0243  -22.5500 C   0  0  0  0  0  0  0  0  0  0  0  0
   -8.2436   24.7480  -18.9703 H   0  0  0  0  0  0  0  0  0  0  0  0
    0.7126   21.2552  -22.8516 C   0  0  0  0  0  0  0  0  0  0  0  0
    0.8115   21.9554  -24.0611 C   0  0  0  0  0  0  0  0  0  0  0  0
   -0.3266   22.3055  -24.7301 C   0  0  0  0  0  0  0  0  0  0  0  0
   -1.6104   21.9994  -24.2657 C   0  0  0  0  0  0  0  0  0  0  0  0
   -1.6918   21.3148  -23.0860 C   0  0  0  0  0  0  0  0  0  0  0  0
   -0.5375   20.9433  -22.3797 C   0  0  0  0  0  0  0  0  0  0  0  0
    1.9440   20.6644  -20.7843 C   0  0  0  0  0  0  0  0  0  0  0  0
    1.9111   20.9141  -22.1976 N   0  0  0  0  0  0  0  0  0  0  0  0
    3.1245   20.8116  -22.9765 C   0  0  0  0  0  0  0  0  0  0  0  0
 28 29  1  0  0  0
 29 30  1  0  0  0
 29 22  1  0  0  0
 22 23  2  0  0  0
 23 24  1  0  0  0
 24 25  2  0  0  0
 25 26  1  0  0  0
 26 27  2  0  0  0
 25  1  1  0  0  0
  1  2  1  0  0  0
  2  3  2  0  0  0
  2  4  1  0  0  0
  4  5  2  0  0  0
  5 14  1  0  0  0
 14 15  2  0  0  0
 15 16  1  0  0  0
 16 17  2  0  0  0
 17 18  1  0  0  0
 17 19  1  0  0  0
 19 20  2  0  0  0
  4  6  1  0  0  0
  6  7  2  0  0  0
  7  8  1  0  0  0
  8  9  2  0  0  0
  9 10  1  0  0  0
 10 11  2  0  0  0
 11 12  1  0  0  0
 12 13  2  0  0  0
 27 22  1  0  0  0
 12  1  1  0  0  0
 20 14  1  0  0  0
 11  6  1  0  0  0
 18 21  1  0  0  0
M  END
> <minimizedAffinity>
-9.62425

> <CNNscore>
0.4929266572

> <CNNaffinity>
6.4971375465

> <CNN_VS>
3.2026124001

> <CNNaffinity_variance>
0.2569493353

$$$$
[H]Oc1c([H])c([H])c(/C([H])=C2\C(=O)N(c3c([H])c([H])c(N(C([H])([H])[H])C([H])([H])[H])c([H])c3[H])C(=O)c3c([H])c([H])c([H])c([H])c32)c([H])c1[H]


 30 33  0  0  0  0  0  0  0  0999 V2000
   -4.1459   23.5863  -24.5966 N   0  0  0  0  0  0  0  0  0  0  0  0
   -4.0282   23.5941  -26.0154 C   0  0  0  0  0  0  0  0  0  0  0  0
   -4.9979   23.9937  -26.7199 O   0  0  0  0  0  0  0  0  0  0  0  0
   -2.7971   23.1427  -26.6874 C   0  0  0  0  0  0  0  0  0  0  0  0
   -2.6938   23.2053  -27.9776 C   0  0  0  0  0  0  0  0  0  0  0  0
   -1.6718   22.6714  -25.8462 C   0  0  0  0  0  0  0  0  0  0  0  0
   -0.5148   22.2335  -26.4303 C   0  0  0  0  0  0  0  0  0  0  0  0
    0.5394   21.7829  -25.6054 C   0  0  0  0  0  0  0  0  0  0  0  0
    0.4457   21.7685  -24.2418 C   0  0  0  0  0  0  0  0  0  0  0  0
   -0.7352   22.2163  -23.6995 C   0  0  0  0  0  0  0  0  0  0  0  0
   -1.7941   22.6644  -24.4577 C   0  0  0  0  0  0  0  0  0  0  0  0
   -3.0262   23.1228  -23.8657 C   0  0  0  0  0  0  0  0  0  0  0  0
   -3.1045   23.1066  -22.6110 O   0  0  0  0  0  0  0  0  0  0  0  0
   -3.6932   23.7065  -28.9028 C   0  0  0  0  0  0  0  0  0  0  0  0
   -4.6721   22.9011  -29.4461 C   0  0  0  0  0  0  0  0  0  0  0  0
   -5.5699   23.3401  -30.3961 C   0  0  0  0  0  0  0  0  0  0  0  0
   -5.5190   24.6430  -30.8489 C   0  0  0  0  0  0  0  0  0  0  0  0
   -6.4172   25.0766  -31.7953 O   0  0  0  0  0  0  0  0  0  0  0  0
   -4.5701   25.4740  -30.3398 C   0  0  0  0  0  0  0  0  0  0  0  0
   -3.6830   25.0029  -29.3893 C   0  0  0  0  0  0  0  0  0  0  0  0
   -6.1600   24.9751  -32.7648 H   0  0  0  0  0  0  0  0  0  0  0  0
   -7.6440   25.0554  -22.6977 C   0  0  0  0  0  0  0  0  0  0  0  0
   -6.6401   25.9124  -23.1676 C   0  0  0  0  0  0  0  0  0  0  0  0
   -5.5303   25.3845  -23.7633 C   0  0  0  0  0  0  0  0  0  0  0  0
   -5.3364   24.0096  -23.9350 C   0  0  0  0  0  0  0  0  0  0  0  0
   -6.3224   23.1857  -23.4704 C   0  0  0  0  0  0  0  0  0  0  0  0
   -7.4722   23.7032  -22.8544 C   0  0  0  0  0  0  0  0  0  0  0  0
  -10.0713   25.5524  -22.6866 C   0  0  0  0  0  0  0  0  0  0  0  0
   -8.7690   25.6431  -22.0897 N   0  0  0  0  0  0  0  0  0  0  0  0
   -8.5968   26.3444  -20.8375 C   0  0  0  0  0  0  0  0  0  0  0  0
 28 29  1  0  0  0
 29 30  1  0  0  0
 29 22  1  0  0  0
 22 23  2  0  0  0
 23 24  1  0  0  0
 24 25  2  0  0  0
 25 26  1  0  0  0
 26 27  2  0  0  0
 25  1  1  0  0  0
  1  2  1  0  0  0
  2  3  2  0  0  0
  2  4  1  0  0  0
  4  5  2  0  0  0
  5 14  1  0  0  0
 14 15  2  0  0  0
 15 16  1  0  0  0
 16 17  2  0  0  0
 17 18  1  0  0  0
 17 19  1  0  0  0
 19 20  2  0  0  0
  4  6  1  0  0  0
  6  7  2  0  0  0
  7  8  1  0  0  0
  8  9  2  0  0  0
  9 10  1  0  0  0
 10 11  2  0  0  0
 11 12  1  0  0  0
 12 13  2  0  0  0
 27 22  1  0  0  0
 12  1  1  0  0  0
 20 14  1  0  0  0
 11  6  1  0  0  0
 18 21  1  0  0  0
M  END
> <minimizedAffinity>
-11.35315

> <CNNscore>
0.4521156549

> <CNNaffinity>
6.7162809372

> <CNN_VS>
3.0365357399

> <CNNaffinity_variance>
0.0870151669

$$$$
[H]Oc1c([H])c([H])c(/C([H])=C2\C(=O)N(c3c([H])c([H])c(N(C([H])([H])[H])C([H])([H])[H])c([H])c3[H])C(=O)c3c([H])c([H])c([H])c([H])c32)c([H])c1[H]


 30 33  0  0  0  0  0  0  0  0999 V2000
   -5.5555   23.5077  -17.4400 N   0  0  0  0  0  0  0  0  0  0  0  0
   -4.2840   22.9272  -17.7110 C   0  0  0  0  0  0  0  0  0  0  0  0
   -3.8988   22.7989  -18.9073 O   0  0  0  0  0  0  0  0  0  0  0  0
   -3.4014   22.4674  -16.6245 C   0  0  0  0  0  0  0  0  0  0  0  0
   -2.2276   21.9879  -16.8919 C   0  0  0  0  0  0  0  0  0  0  0  0
   -3.8715   22.6199  -15.2274 C   0  0  0  0  0  0  0  0  0  0  0  0
   -3.0877   22.1960  -14.1894 C   0  0  0  0  0  0  0  0  0  0  0  0
   -3.5630   22.3467  -12.8679 C   0  0  0  0  0  0  0  0  0  0  0  0
   -4.7801   22.9020  -12.5876 C   0  0  0  0  0  0  0  0  0  0  0  0
   -5.5333   23.3123  -13.6617 C   0  0  0  0  0  0  0  0  0  0  0  0
   -5.1182   23.1873  -14.9689 C   0  0  0  0  0  0  0  0  0  0  0  0
   -5.9298   23.6188  -16.0797 C   0  0  0  0  0  0  0  0  0  0  0  0
   -7.0477   24.1287  -15.8137 O   0  0  0  0  0  0  0  0  0  0  0  0
   -1.6281   21.8491  -18.2062 C   0  0  0  0  0  0  0  0  0  0  0  0
   -1.6207   20.6551  -18.8963 C   0  0  0  0  0  0  0  0  0  0  0  0
   -0.9751   20.4841  -20.1027 C   0  0  0  0  0  0  0  0  0  0  0  0
   -0.2938   21.5365  -20.6800 C   0  0  0  0  0  0  0  0  0  0  0  0
    0.3475   21.3616  -21.8836 O   0  0  0  0  0  0  0  0  0  0  0  0
   -0.2752   22.7339  -20.0350 C   0  0  0  0  0  0  0  0  0  0  0  0
   -0.9312   22.8728  -18.8255 C   0  0  0  0  0  0  0  0  0  0  0  0
    1.3078   21.0560  -21.8614 H   0  0  0  0  0  0  0  0  0  0  0  0
   -8.2683   24.6324  -20.5021 C   0  0  0  0  0  0  0  0  0  0  0  0
   -8.2989   23.3606  -19.9151 C   0  0  0  0  0  0  0  0  0  0  0  0
   -7.3956   23.0488  -18.9393 C   0  0  0  0  0  0  0  0  0  0  0  0
   -6.4237   23.9459  -18.4833 C   0  0  0  0  0  0  0  0  0  0  0  0
   -6.4042   25.1817  -19.0658 C   0  0  0  0  0  0  0  0  0  0  0  0
   -7.3212   25.5265  -20.0706 C   0  0  0  0  0  0  0  0  0  0  0  0
  -10.6255   24.8384  -21.2371 C   0  0  0  0  0  0  0  0  0  0  0  0
   -9.2168   24.9093  -21.5042 N   0  0  0  0  0  0  0  0  0  0  0  0
   -8.7502   25.2759  -22.8223 C   0  0  0  0  0  0  0  0  0  0  0  0
 28 29  1  0  0  0
 29 30  1  0  0  0
 29 22  1  0  0  0
 22 23  2  0  0  0
 23 24  1  0  0  0
 24 25  2  0  0  0
 25 26  1  0  0  0
 26 27  2  0  0  0
 25  1  1  0  0  0
  1  2  1  0  0  0
  2  3  2  0  0  0
  2  4  1  0  0  0
  4  5  2  0  0  0
  5 14  1  0  0  0
 14 15  2  0  0  0
 15 16  1  0  0  0
 16 17  2  0  0  0
 17 18  1  0  0  0
 17 19  1  0  0  0
 19 20  2  0  0  0
  4  6  1  0  0  0
  6  7  2  0  0  0
  7  8  1  0  0  0
  8  9  2  0  0  0
  9 10  1  0  0  0
 10 11  2  0  0  0
 11 12  1  0  0  0
 12 13  2  0  0  0
 27 22  1  0  0  0
 12  1  1  0  0  0
 20 14  1  0  0  0
 11  6  1  0  0  0
 18 21  1  0  0  0
M  END
> <minimizedAffinity>
-5.82476

> <CNNscore>
0.3931923509

> <CNNaffinity>
5.0245695114

> <CNN_VS>
1.9756222963

> <CNNaffinity_variance>
0.3659718931

$$$$
[H]Oc1c([H])c([H])c(/C([H])=C2\C(=O)N(c3c([H])c([H])c(N(C([H])([H])[H])C([H])([H])[H])c([H])c3[H])C(=O)c3c([H])c([H])c([H])c([H])c32)c([H])c1[H]


 30 33  0  0  0  0  0  0  0  0999 V2000
   -4.8541   22.2368  -19.9153 N   0  0  0  0  0  0  0  0  0  0  0  0
   -4.8877   21.0457  -19.1362 C   0  0  0  0  0  0  0  0  0  0  0  0
   -6.0006   20.5400  -18.8170 O   0  0  0  0  0  0  0  0  0  0  0  0
   -3.6495   20.3848  -18.6880 C   0  0  0  0  0  0  0  0  0  0  0  0
   -3.7030   19.2744  -18.0222 C   0  0  0  0  0  0  0  0  0  0  0  0
   -2.3529   20.9948  -19.0662 C   0  0  0  0  0  0  0  0  0  0  0  0
   -1.1797   20.4193  -18.6614 C   0  0  0  0  0  0  0  0  0  0  0  0
    0.0418   21.0252  -19.0297 C   0  0  0  0  0  0  0  0  0  0  0  0
    0.0947   22.1682  -19.7776 C   0  0  0  0  0  0  0  0  0  0  0  0
   -1.1085   22.7113  -20.1605 C   0  0  0  0  0  0  0  0  0  0  0  0
   -2.3268   22.1621  -19.8275 C   0  0  0  0  0  0  0  0  0  0  0  0
   -3.5764   22.7547  -20.2352 C   0  0  0  0  0  0  0  0  0  0  0  0
   -3.5194   23.8055  -20.9229 O   0  0  0  0  0  0  0  0  0  0  0  0
   -4.9013   18.5457  -17.6491 C   0  0  0  0  0  0  0  0  0  0  0  0
   -5.5140   18.7024  -16.4236 C   0  0  0  0  0  0  0  0  0  0  0  0
   -6.5970   17.9508  -16.0191 C   0  0  0  0  0  0  0  0  0  0  0  0
   -7.1226   16.9861  -16.8547 C   0  0  0  0  0  0  0  0  0  0  0  0
   -8.2034   16.2399  -16.4476 O   0  0  0  0  0  0  0  0  0  0  0  0
   -6.5506   16.7974  -18.0743 C   0  0  0  0  0  0  0  0  0  0  0  0
   -5.4644   17.5663  -18.4498 C   0  0  0  0  0  0  0  0  0  0  0  0
   -8.0186   15.3804  -15.9542 H   0  0  0  0  0  0  0  0  0  0  0  0
   -8.3635   24.3417  -21.0352 C   0  0  0  0  0  0  0  0  0  0  0  0
   -7.6916   24.6066  -19.8346 C   0  0  0  0  0  0  0  0  0  0  0  0
   -6.5711   23.8921  -19.5197 C   0  0  0  0  0  0  0  0  0  0  0  0
   -6.0457   22.8922  -20.3452 C   0  0  0  0  0  0  0  0  0  0  0  0
   -6.7119   22.6432  -21.5118 C   0  0  0  0  0  0  0  0  0  0  0  0
   -7.8657   23.3632  -21.8582 C   0  0  0  0  0  0  0  0  0  0  0  0
   -9.7809   25.5846  -22.6432 C   0  0  0  0  0  0  0  0  0  0  0  0
   -9.5140   25.1012  -21.3181 N   0  0  0  0  0  0  0  0  0  0  0  0
  -10.4395   25.3887  -20.2454 C   0  0  0  0  0  0  0  0  0  0  0  0
 28 29  1  0  0  0
 29 30  1  0  0  0
 29 22  1  0  0  0
 22 23  2  0  0  0
 23 24  1  0  0  0
 24 25  2  0  0  0
 25 26  1  0  0  0
 26 27  2  0  0  0
 25  1  1  0  0  0
  1  2  1  0  0  0
  2  3  2  0  0  0
  2  4  1  0  0  0
  4  5  2  0  0  0
  5 14  1  0  0  0
 14 15  2  0  0  0
 15 16  1  0  0  0
 16 17  2  0  0  0
 17 18  1  0  0  0
 17 19  1  0  0  0
 19 20  2  0  0  0
  4  6  1  0  0  0
  6  7  2  0  0  0
  7  8  1  0  0  0
  8  9  2  0  0  0
  9 10  1  0  0  0
 10 11  2  0  0  0
 11 12  1  0  0  0
 12 13  2  0  0  0
 27 22  1  0  0  0
 12  1  1  0  0  0
 20 14  1  0  0  0
 11  6  1  0  0  0
 18 21  1  0  0  0
M  END
> <minimizedAffinity>
-4.93141

> <CNNscore>
0.3772755265

> <CNNaffinity>
5.2865815163

> <CNN_VS>
1.9944977760

> <CNNaffinity_variance>
0.3675616682

$$$$
[H]O[C@]1([H])[C@@]([H])(C([H])([H])OS(=O)(=O)N([H])C(=O)[C@@]([H])(N([H])[H])C([H])([H])C([H])(C([H])([H])[H])C([H])([H])[H])O[C@@]([H])(n2c([H])c([H])c3c([H])c([H])c([H])c([H])c32)[C@]1([H])O[H]


 35 37  0  0  0  0  0  0  0  0999 V2000
   -3.2186   22.0219  -21.4309 C   0  0  0  0  0  0  0  0  0  0  0  0
   -3.6702   21.8181  -22.7575 O   0  0  0  0  0  0  0  0  0  0  0  0
   -2.5155   21.9247  -23.5298 C   0  0  0  0  0  0  0  0  0  0  0  0
   -1.6399   22.9652  -22.8762 C   0  0  0  0  0  0  0  0  0  0  0  0
   -0.4406   22.4009  -22.4494 O   0  0  0  0  0  0  0  0  0  0  0  0
   -2.4797   23.3479  -21.6553 C   0  0  0  0  0  0  0  0  0  0  0  0
   -1.7116   23.6925  -20.5644 O   0  0  0  0  0  0  0  0  0  0  0  0
   -0.2941   22.5852  -21.4971 H   0  0  0  0  0  0  0  0  0  0  0  0
   -1.1081   24.4257  -20.8503 H   0  0  0  0  0  0  0  0  0  0  0  0
   -2.7686   22.3265  -24.8925 N   0  0  0  0  0  0  0  0  0  0  0  0
   -3.9215   22.6521  -25.5037 C   0  0  0  0  0  0  0  0  0  0  0  0
   -3.6651   22.9712  -26.8183 C   0  0  0  0  0  0  0  0  0  0  0  0
   -2.3095   22.8407  -27.0355 C   0  0  0  0  0  0  0  0  0  0  0  0
   -1.5332   23.0359  -28.1609 C   0  0  0  0  0  0  0  0  0  0  0  0
   -0.1626   22.8269  -28.0952 C   0  0  0  0  0  0  0  0  0  0  0  0
    0.3671   22.4276  -26.8888 C   0  0  0  0  0  0  0  0  0  0  0  0
   -0.4138   22.2355  -25.7739 C   0  0  0  0  0  0  0  0  0  0  0  0
   -1.7980   22.4415  -25.8204 C   0  0  0  0  0  0  0  0  0  0  0  0
   -4.3156   22.2270  -20.4512 C   0  0  0  0  0  0  0  0  0  0  0  0
   -4.4090   23.4957  -19.9346 O   0  0  0  0  0  0  0  0  0  0  0  0
   -5.8531   24.1887  -20.4565 S   0  0  0  0  0  0  0  0  0  0  0  0
   -5.9531   25.5709  -19.8589 O   0  0  0  0  0  0  0  0  0  0  0  0
   -7.0394   23.3756  -19.9858 O   0  0  0  0  0  0  0  0  0  0  0  0
   -6.9655   25.1155  -22.8155 C   0  0  0  0  0  0  0  0  0  0  0  0
   -7.7847   25.6979  -22.0421 O   0  0  0  0  0  0  0  0  0  0  0  0
   -5.9486   24.3287  -22.1563 N   0  0  0  0  0  0  0  0  0  0  0  0
   -5.2738   23.8494  -22.7838 H   0  0  0  0  0  0  0  0  0  0  0  0
   -7.0500   25.2383  -24.2816 C   0  0  0  0  0  0  0  0  0  0  0  0
   -8.3696   24.9772  -24.8093 N   0  0  0  0  0  0  0  0  0  0  0  0
   -8.3907   25.3594  -25.7875 H   0  0  0  0  0  0  0  0  0  0  0  0
   -8.5316   23.9677  -24.8570 H   0  0  0  0  0  0  0  0  0  0  0  0
   -6.3913   26.4207  -24.8888 C   0  0  0  0  0  0  0  0  0  0  0  0
   -4.1163   27.3734  -25.2307 C   0  0  0  0  0  0  0  0  0  0  0  0
   -5.0765   26.2178  -25.5477 C   0  0  0  0  0  0  0  0  0  0  0  0
   -5.2061   26.2334  -27.0605 C   0  0  0  0  0  0  0  0  0  0  0  0
 33 34  1  0  0  0
 34 35  1  0  0  0
 34 32  1  0  0  0
 32 28  1  0  0  0
 28 29  1  0  0  0
 28 24  1  0  0  0
 24 25  2  0  0  0
 24 26  1  0  0  0
 26 21  1  0  0  0
 21 22  2  0  0  0
 21 23  2  0  0  0
 21 20  1  0  0  0
 20 19  1  0  0  0
 19  1  1  0  0  0
  1  2  1  0  0  0
  2  3  1  0  0  0
  3  4  1  0  0  0
  4  5  1  0  0  0
  4  6  1  0  0  0
  6  7  1  0  0  0
  3 10  1  0  0  0
 10 11  1  0  0  0
 11 12  2  0  0  0
 12 13  1  0  0  0
 13 14  2  0  0  0
 14 15  1  0  0  0
 15 16  2  0  0  0
 16 17  1  0  0  0
 17 18  2  0  0  0
  6  1  1  0  0  0
 18 10  1  0  0  0
 18 13  1  0  0  0
 29 30  1  0  0  0
 29 31  1  0  0  0
 26 27  1  0  0  0
  5  8  1  0  0  0
  7  9  1  0  0  0
M  END
> <minimizedAffinity>
-8.64136

> <CNNscore>
0.3327761590

> <CNNaffinity>
5.7980070114

> <CNN_VS>
1.9294384718

> <CNNaffinity_variance>
0.4325271249

$$$$
[H]O[C@]1([H])[C@@]([H])(C([H])([H])OS(=O)(=O)N([H])C(=O)[C@@]([H])(N([H])[H])C([H])([H])C([H])(C([H])([H])[H])C([H])([H])[H])O[C@@]([H])(n2c([H])c([H])c3c([H])c([H])c([H])c([H])c32)[C@]1([H])O[H]


 35 37  0  0  0  0  0  0  0  0999 V2000
   -2.9195   21.9331  -21.4503 C   0  0  0  0  0  0  0  0  0  0  0  0
   -3.3875   21.7153  -22.7690 O   0  0  0  0  0  0  0  0  0  0  0  0
   -2.2691   21.9419  -23.5683 C   0  0  0  0  0  0  0  0  0  0  0  0
   -1.4735   23.0448  -22.9147 C   0  0  0  0  0  0  0  0  0  0  0  0
   -0.2166   22.5837  -22.5318 O   0  0  0  0  0  0  0  0  0  0  0  0
   -2.3103   23.3251  -21.6643 C   0  0  0  0  0  0  0  0  0  0  0  0
   -1.5465   23.7167  -20.5862 O   0  0  0  0  0  0  0  0  0  0  0  0
   -0.0610   22.7618  -21.5796 H   0  0  0  0  0  0  0  0  0  0  0  0
   -1.0200   24.5073  -20.8713 H   0  0  0  0  0  0  0  0  0  0  0  0
   -2.5953   22.3458  -24.9147 N   0  0  0  0  0  0  0  0  0  0  0  0
   -3.7790   22.6763  -25.4613 C   0  0  0  0  0  0  0  0  0  0  0  0
   -3.5941   22.9955  -26.7879 C   0  0  0  0  0  0  0  0  0  0  0  0
   -2.2531   22.8600  -27.0795 C   0  0  0  0  0  0  0  0  0  0  0  0
   -1.5392   23.0533  -28.2458 C   0  0  0  0  0  0  0  0  0  0  0  0
   -0.1678   22.8391  -28.2559 C   0  0  0  0  0  0  0  0  0  0  0  0
    0.4259   22.4368  -27.0807 C   0  0  0  0  0  0  0  0  0  0  0  0
   -0.2930   22.2467  -25.9246 C   0  0  0  0  0  0  0  0  0  0  0  0
   -1.6770   22.4580  -25.8946 C   0  0  0  0  0  0  0  0  0  0  0  0
   -4.0029   22.0180  -20.4382 C   0  0  0  0  0  0  0  0  0  0  0  0
   -4.2208   23.2699  -19.9181 O   0  0  0  0  0  0  0  0  0  0  0  0
   -5.7985   23.7389  -20.2769 S   0  0  0  0  0  0  0  0  0  0  0  0
   -6.0213   23.5430  -21.7567 O   0  0  0  0  0  0  0  0  0  0  0  0
   -6.0114   25.2009  -19.9493 O   0  0  0  0  0  0  0  0  0  0  0  0
   -7.6060   21.6615  -19.9957 C   0  0  0  0  0  0  0  0  0  0  0  0
   -7.2286   21.3543  -21.1668 O   0  0  0  0  0  0  0  0  0  0  0  0
   -6.9722   22.8307  -19.4308 N   0  0  0  0  0  0  0  0  0  0  0  0
   -7.2761   23.0877  -18.4715 H   0  0  0  0  0  0  0  0  0  0  0  0
   -8.6184   20.8761  -19.2679 C   0  0  0  0  0  0  0  0  0  0  0  0
   -8.1635   19.5595  -18.8839 N   0  0  0  0  0  0  0  0  0  0  0  0
   -8.8269   19.2070  -18.1496 H   0  0  0  0  0  0  0  0  0  0  0  0
   -8.2106   18.9271  -19.6872 H   0  0  0  0  0  0  0  0  0  0  0  0
   -9.3642   21.5820  -18.1973 C   0  0  0  0  0  0  0  0  0  0  0  0
  -11.5782   22.7198  -18.2571 C   0  0  0  0  0  0  0  0  0  0  0  0
  -10.8339   21.3826  -18.1311 C   0  0  0  0  0  0  0  0  0  0  0  0
  -11.2589   20.8351  -16.7802 C   0  0  0  0  0  0  0  0  0  0  0  0
 33 34  1  0  0  0
 34 35  1  0  0  0
 34 32  1  0  0  0
 32 28  1  0  0  0
 28 29  1  0  0  0
 28 24  1  0  0  0
 24 25  2  0  0  0
 24 26  1  0  0  0
 26 21  1  0  0  0
 21 22  2  0  0  0
 21 23  2  0  0  0
 21 20  1  0  0  0
 20 19  1  0  0  0
 19  1  1  0  0  0
  1  2  1  0  0  0
  2  3  1  0  0  0
  3  4  1  0  0  0
  4  5  1  0  0  0
  4  6  1  0  0  0
  6  7  1  0  0  0
  3 10  1  0  0  0
 10 11  1  0  0  0
 11 12  2  0  0  0
 12 13  1  0  0  0
 13 14  2  0  0  0
 14 15  1  0  0  0
 15 16  2  0  0  0
 16 17  1  0  0  0
 17 18  2  0  0  0
  6  1  1  0  0  0
 18 10  1  0  0  0
 18 13  1  0  0  0
 29 30  1  0  0  0
 29 31  1  0  0  0
 26 27  1  0  0  0
  5  8  1  0  0  0
  7  9  1  0  0  0
M  END
> <minimizedAffinity>
-7.66834

> <CNNscore>
0.2725280225

> <CNNaffinity>
5.0343914032

> <CNN_VS>
1.3720127344

> <CNNaffinity_variance>
0.1189018041

$$$$
[H]O[C@]1([H])[C@@]([H])(C([H])([H])OS(=O)(=O)N([H])C(=O)[C@@]([H])(N([H])[H])C([H])([H])C([H])(C([H])([H])[H])C([H])([H])[H])O[C@@]([H])(n2c([H])c([H])c3c([H])c([H])c([H])c([H])c32)[C@]1([H])O[H]


 35 37  0  0  0  0  0  0  0  0999 V2000
   -3.1291   21.8277  -22.4232 C   0  0  0  0  0  0  0  0  0  0  0  0
   -2.8220   21.5916  -23.7853 O   0  0  0  0  0  0  0  0  0  0  0  0
   -1.4305   21.6429  -23.8337 C   0  0  0  0  0  0  0  0  0  0  0  0
   -0.9904   22.6819  -22.8320 C   0  0  0  0  0  0  0  0  0  0  0  0
   -0.2188   22.1015  -21.8285 O   0  0  0  0  0  0  0  0  0  0  0  0
   -2.3315   23.1262  -22.2436 C   0  0  0  0  0  0  0  0  0  0  0  0
   -2.2403   23.4871  -20.9169 O   0  0  0  0  0  0  0  0  0  0  0  0
   -0.5888   22.3135  -20.9450 H   0  0  0  0  0  0  0  0  0  0  0  0
   -1.5485   24.1947  -20.8521 H   0  0  0  0  0  0  0  0  0  0  0  0
   -0.9120   22.0056  -25.1307 N   0  0  0  0  0  0  0  0  0  0  0  0
    0.3514   22.0123  -25.5918 C   0  0  0  0  0  0  0  0  0  0  0  0
    0.3552   22.4361  -26.9018 C   0  0  0  0  0  0  0  0  0  0  0  0
   -0.9465   22.7029  -27.2708 C   0  0  0  0  0  0  0  0  0  0  0  0
   -1.4954   23.1493  -28.4569 C   0  0  0  0  0  0  0  0  0  0  0  0
   -2.8676   23.3353  -28.5522 C   0  0  0  0  0  0  0  0  0  0  0  0
   -3.6297   23.0608  -27.4390 C   0  0  0  0  0  0  0  0  0  0  0  0
   -3.0743   22.6170  -26.2625 C   0  0  0  0  0  0  0  0  0  0  0  0
   -1.6923   22.4230  -26.1470 C   0  0  0  0  0  0  0  0  0  0  0  0
   -4.5686   22.0932  -22.1727 C   0  0  0  0  0  0  0  0  0  0  0  0
   -4.9881   21.8752  -20.8837 O   0  0  0  0  0  0  0  0  0  0  0  0
   -5.8150   23.2403  -20.3444 S   0  0  0  0  0  0  0  0  0  0  0  0
   -7.1648   23.2682  -21.0190 O   0  0  0  0  0  0  0  0  0  0  0  0
   -5.0670   24.5024  -20.7156 O   0  0  0  0  0  0  0  0  0  0  0  0
   -4.9630   23.2305  -17.7108 C   0  0  0  0  0  0  0  0  0  0  0  0
   -3.8049   23.2115  -18.2273 O   0  0  0  0  0  0  0  0  0  0  0  0
   -6.0580   23.2471  -18.6535 N   0  0  0  0  0  0  0  0  0  0  0  0
   -7.0094   23.2634  -18.2373 H   0  0  0  0  0  0  0  0  0  0  0  0
   -5.1698   23.2367  -16.2518 C   0  0  0  0  0  0  0  0  0  0  0  0
   -3.9490   23.0862  -15.4935 N   0  0  0  0  0  0  0  0  0  0  0  0
   -4.1603   23.3834  -14.5084 H   0  0  0  0  0  0  0  0  0  0  0  0
   -3.6687   22.1019  -15.4772 H   0  0  0  0  0  0  0  0  0  0  0  0
   -6.0782   24.2786  -15.7134 C   0  0  0  0  0  0  0  0  0  0  0  0
   -7.2191   23.7745  -13.5583 C   0  0  0  0  0  0  0  0  0  0  0  0
   -6.0657   24.5173  -14.2481 C   0  0  0  0  0  0  0  0  0  0  0  0
   -6.3055   25.9809  -13.9227 C   0  0  0  0  0  0  0  0  0  0  0  0
 33 34  1  0  0  0
 34 35  1  0  0  0
 34 32  1  0  0  0
 32 28  1  0  0  0
 28 29  1  0  0  0
 28 24  1  0  0  0
 24 25  2  0  0  0
 24 26  1  0  0  0
 26 21  1  0  0  0
 21 22  2  0  0  0
 21 23  2  0  0  0
 21 20  1  0  0  0
 20 19  1  0  0  0
 19  1  1  0  0  0
  1  2  1  0  0  0
  2  3  1  0  0  0
  3  4  1  0  0  0
  4  5  1  0  0  0
  4  6  1  0  0  0
  6  7  1  0  0  0
  3 10  1  0  0  0
 10 11  1  0  0  0
 11 12  2  0  0  0
 12 13  1  0  0  0
 13 14  2  0  0  0
 14 15  1  0  0  0
 15 16  2  0  0  0
 16 17  1  0  0  0
 17 18  2  0  0  0
  6  1  1  0  0  0
 18 10  1  0  0  0
 18 13  1  0  0  0
 29 30  1  0  0  0
 29 31  1  0  0  0
 26 27  1  0  0  0
  5  8  1  0  0  0
  7  9  1  0  0  0
M  END
> <minimizedAffinity>
-7.23029

> <CNNscore>
0.2561162114

> <CNNaffinity>
5.0931029320

> <CNN_VS>
1.3044261932

> <CNNaffinity_variance>
0.0558221117

$$$$
[H]O[C@]1([H])[C@@]([H])(C([H])([H])OS(=O)(=O)N([H])C(=O)[C@@]([H])(N([H])[H])C([H])([H])C([H])(C([H])([H])[H])C([H])([H])[H])O[C@@]([H])(n2c([H])c([H])c3c([H])c([H])c([H])c([H])c32)[C@]1([H])O[H]


 35 37  0  0  0  0  0  0  0  0999 V2000
   -2.7264   21.8031  -21.1567 C   0  0  0  0  0  0  0  0  0  0  0  0
   -2.6958   22.0969  -22.5417 O   0  0  0  0  0  0  0  0  0  0  0  0
   -1.7306   21.2311  -23.0514 C   0  0  0  0  0  0  0  0  0  0  0  0
   -0.6641   21.0848  -21.9942 C   0  0  0  0  0  0  0  0  0  0  0  0
   -0.5845   19.7656  -21.5554 O   0  0  0  0  0  0  0  0  0  0  0  0
   -1.2269   21.9572  -20.8698 C   0  0  0  0  0  0  0  0  0  0  0  0
   -0.8991   21.4904  -19.6154 O   0  0  0  0  0  0  0  0  0  0  0  0
   -0.6742   19.7225  -20.5794 H   0  0  0  0  0  0  0  0  0  0  0  0
    0.0894   21.4200  -19.5776 H   0  0  0  0  0  0  0  0  0  0  0  0
   -1.1126   21.7074  -24.2654 N   0  0  0  0  0  0  0  0  0  0  0  0
    0.1851   21.8911  -24.5670 C   0  0  0  0  0  0  0  0  0  0  0  0
    0.2900   22.3639  -25.8559 C   0  0  0  0  0  0  0  0  0  0  0  0
   -0.9819   22.4794  -26.3760 C   0  0  0  0  0  0  0  0  0  0  0  0
   -1.4388   22.9001  -27.6095 C   0  0  0  0  0  0  0  0  0  0  0  0
   -2.8024   22.9159  -27.8687 C   0  0  0  0  0  0  0  0  0  0  0  0
   -3.6496   22.5037  -26.8649 C   0  0  0  0  0  0  0  0  0  0  0  0
   -3.1855   22.0868  -25.6399 C   0  0  0  0  0  0  0  0  0  0  0  0
   -1.8138   22.0636  -25.3598 C   0  0  0  0  0  0  0  0  0  0  0  0
   -3.4877   22.7929  -20.3528 C   0  0  0  0  0  0  0  0  0  0  0  0
   -3.9578   23.8770  -21.0519 O   0  0  0  0  0  0  0  0  0  0  0  0
   -5.6183   24.0067  -20.7990 S   0  0  0  0  0  0  0  0  0  0  0  0
   -5.8395   24.7825  -19.5234 O   0  0  0  0  0  0  0  0  0  0  0  0
   -6.2459   22.6385  -20.6432 O   0  0  0  0  0  0  0  0  0  0  0  0
   -6.3561   24.3720  -23.4417 C   0  0  0  0  0  0  0  0  0  0  0  0
   -5.6551   23.3338  -23.6397 O   0  0  0  0  0  0  0  0  0  0  0  0
   -6.4241   24.8170  -22.0687 N   0  0  0  0  0  0  0  0  0  0  0  0
   -6.9972   25.6666  -21.8992 H   0  0  0  0  0  0  0  0  0  0  0  0
   -7.0505   25.0690  -24.5388 C   0  0  0  0  0  0  0  0  0  0  0  0
   -7.3227   26.4605  -24.2601 N   0  0  0  0  0  0  0  0  0  0  0  0
   -7.5474   26.9196  -25.1778 H   0  0  0  0  0  0  0  0  0  0  0  0
   -8.1433   26.5397  -23.6537 H   0  0  0  0  0  0  0  0  0  0  0  0
   -6.5377   24.8276  -25.9098 C   0  0  0  0  0  0  0  0  0  0  0  0
   -5.6288   25.6691  -28.0698 C   0  0  0  0  0  0  0  0  0  0  0  0
   -5.7628   25.9143  -26.5599 C   0  0  0  0  0  0  0  0  0  0  0  0
   -4.3327   25.9561  -26.0516 C   0  0  0  0  0  0  0  0  0  0  0  0
 33 34  1  0  0  0
 34 35  1  0  0  0
 34 32  1  0  0  0
 32 28  1  0  0  0
 28 29  1  0  0  0
 28 24  1  0  0  0
 24 25  2  0  0  0
 24 26  1  0  0  0
 26 21  1  0  0  0
 21 22  2  0  0  0
 21 23  2  0  0  0
 21 20  1  0  0  0
 20 19  1  0  0  0
 19  1  1  0  0  0
  1  2  1  0  0  0
  2  3  1  0  0  0
  3  4  1  0  0  0
  4  5  1  0  0  0
  4  6  1  0  0  0
  6  7  1  0  0  0
  3 10  1  0  0  0
 10 11  1  0  0  0
 11 12  2  0  0  0
 12 13  1  0  0  0
 13 14  2  0  0  0
 14 15  1  0  0  0
 15 16  2  0  0  0
 16 17  1  0  0  0
 17 18  2  0  0  0
  6  1  1  0  0  0
 18 10  1  0  0  0
 18 13  1  0  0  0
 29 30  1  0  0  0
 29 31  1  0  0  0
 26 27  1  0  0  0
  5  8  1  0  0  0
  7  9  1  0  0  0
M  END
> <minimizedAffinity>
-8.28386

> <CNNscore>
0.2359523177

> <CNNaffinity>
5.6624622345

> <CNN_VS>
1.3360711336

> <CNNaffinity_variance>
0.2998157144

$$$$
[H]O[C@]1([H])[C@@]([H])(C([H])([H])OS(=O)(=O)N([H])C(=O)[C@@]([H])(N([H])[H])C([H])([H])C([H])(C([H])([H])[H])C([H])([H])[H])O[C@@]([H])(n2c([H])c([H])c3c([H])c([H])c([H])c([H])c32)[C@]1([H])O[H]


 35 37  0  0  0  0  0  0  0  0999 V2000
   -5.4455   23.3414  -22.2087 C   0  0  0  0  0  0  0  0  0  0  0  0
   -5.0652   22.6547  -23.3874 O   0  0  0  0  0  0  0  0  0  0  0  0
   -3.6807   22.8031  -23.4355 C   0  0  0  0  0  0  0  0  0  0  0  0
   -3.3618   24.1679  -22.8768 C   0  0  0  0  0  0  0  0  0  0  0  0
   -2.5911   24.0585  -21.7221 O   0  0  0  0  0  0  0  0  0  0  0  0
   -4.7557   24.6795  -22.5060 C   0  0  0  0  0  0  0  0  0  0  0  0
   -4.7470   25.5031  -21.4013 O   0  0  0  0  0  0  0  0  0  0  0  0
   -3.0123   24.5441  -20.9810 H   0  0  0  0  0  0  0  0  0  0  0  0
   -4.1135   26.2421  -21.5912 H   0  0  0  0  0  0  0  0  0  0  0  0
   -3.1376   22.7137  -24.7695 N   0  0  0  0  0  0  0  0  0  0  0  0
   -3.7393   22.8489  -25.9647 C   0  0  0  0  0  0  0  0  0  0  0  0
   -2.8079   22.6796  -26.9646 C   0  0  0  0  0  0  0  0  0  0  0  0
   -1.5860   22.4306  -26.3757 C   0  0  0  0  0  0  0  0  0  0  0  0
   -0.3359   22.1918  -26.9119 C   0  0  0  0  0  0  0  0  0  0  0  0
    0.7428   21.9675  -26.0676 C   0  0  0  0  0  0  0  0  0  0  0  0
    0.5102   21.9943  -24.7109 C   0  0  0  0  0  0  0  0  0  0  0  0
   -0.7379   22.2326  -24.1864 C   0  0  0  0  0  0  0  0  0  0  0  0
   -1.8381   22.4614  -25.0218 C   0  0  0  0  0  0  0  0  0  0  0  0
   -6.9100   23.5563  -22.0885 C   0  0  0  0  0  0  0  0  0  0  0  0
   -7.5932   23.6083  -23.2783 O   0  0  0  0  0  0  0  0  0  0  0  0
   -8.0288   25.2068  -23.5839 S   0  0  0  0  0  0  0  0  0  0  0  0
   -7.9086   25.9807  -22.2937 O   0  0  0  0  0  0  0  0  0  0  0  0
   -9.4623   25.2904  -24.0616 O   0  0  0  0  0  0  0  0  0  0  0  0
   -6.7687   25.3584  -26.0437 C   0  0  0  0  0  0  0  0  0  0  0  0
   -7.3247   24.2366  -26.2459 O   0  0  0  0  0  0  0  0  0  0  0  0
   -7.0361   25.9554  -24.7553 N   0  0  0  0  0  0  0  0  0  0  0  0
   -6.5843   26.8747  -24.5832 H   0  0  0  0  0  0  0  0  0  0  0  0
   -5.9130   26.0021  -27.0561 C   0  0  0  0  0  0  0  0  0  0  0  0
   -4.5413   26.1685  -26.6336 N   0  0  0  0  0  0  0  0  0  0  0  0
   -3.9748   26.3612  -27.4970 H   0  0  0  0  0  0  0  0  0  0  0  0
   -4.4643   26.9790  -26.0134 H   0  0  0  0  0  0  0  0  0  0  0  0
   -6.0494   25.5132  -28.4501 C   0  0  0  0  0  0  0  0  0  0  0  0
   -4.2881   25.5598  -30.2095 C   0  0  0  0  0  0  0  0  0  0  0  0
   -4.9032   24.7771  -29.0403 C   0  0  0  0  0  0  0  0  0  0  0  0
   -5.3461   23.4606  -29.6534 C   0  0  0  0  0  0  0  0  0  0  0  0
 33 34  1  0  0  0
 34 35  1  0  0  0
 34 32  1  0  0  0
 32 28  1  0  0  0
 28 29  1  0  0  0
 28 24  1  0  0  0
 24 25  2  0  0  0
 24 26  1  0  0  0
 26 21  1  0  0  0
 21 22  2  0  0  0
 21 23  2  0  0  0
 21 20  1  0  0  0
 20 19  1  0  0  0
 19  1  1  0  0  0
  1  2  1  0  0  0
  2  3  1  0  0  0
  3  4  1  0  0  0
  4  5  1  0  0  0
  4  6  1  0  0  0
  6  7  1  0  0  0
  3 10  1  0  0  0
 10 11  1  0  0  0
 11 12  2  0  0  0
 12 13  1  0  0  0
 13 14  2  0  0  0
 14 15  1  0  0  0
 15 16  2  0  0  0
 16 17  1  0  0  0
 17 18  2  0  0  0
  6  1  1  0  0  0
 18 10  1  0  0  0
 18 13  1  0  0  0
 29 30  1  0  0  0
 29 31  1  0  0  0
 26 27  1  0  0  0
  5  8  1  0  0  0
  7  9  1  0  0  0
M  END
> <minimizedAffinity>
-8.85866

> <CNNscore>
0.2244478166

> <CNNaffinity>
5.8079957962

> <CNN_VS>
1.3035919666

> <CNNaffinity_variance>
0.2971556783

$$$$
[H]O[C@]1([H])[C@@]([H])(C([H])([H])OS(=O)(=O)N([H])C(=O)[C@@]([H])(N([H])[H])C([H])([H])C([H])(C([H])([H])[H])C([H])([H])[H])O[C@@]([H])(n2c([H])c([H])c3c([H])c([H])c([H])c([H])c32)[C@]1([H])O[H]


 35 37  0  0  0  0  0  0  0  0999 V2000
   -3.0896   22.6323  -22.2393 C   0  0  0  0  0  0  0  0  0  0  0  0
   -2.9840   22.4144  -23.6345 O   0  0  0  0  0  0  0  0  0  0  0  0
   -1.6861   21.9382  -23.8068 C   0  0  0  0  0  0  0  0  0  0  0  0
   -0.8175   22.6432  -22.7944 C   0  0  0  0  0  0  0  0  0  0  0  0
   -0.2667   21.7305  -21.8985 O   0  0  0  0  0  0  0  0  0  0  0  0
   -1.8441   23.5110  -22.0628 C   0  0  0  0  0  0  0  0  0  0  0  0
   -1.5371   23.6959  -20.7322 O   0  0  0  0  0  0  0  0  0  0  0  0
   -0.4698   21.9908  -20.9747 H   0  0  0  0  0  0  0  0  0  0  0  0
   -0.6237   24.0801  -20.6925 H   0  0  0  0  0  0  0  0  0  0  0  0
   -1.1513   22.1863  -25.1240 N   0  0  0  0  0  0  0  0  0  0  0  0
    0.1158   22.1363  -25.5721 C   0  0  0  0  0  0  0  0  0  0  0  0
    0.1370   22.4521  -26.9122 C   0  0  0  0  0  0  0  0  0  0  0  0
   -1.1572   22.7076  -27.3139 C   0  0  0  0  0  0  0  0  0  0  0  0
   -1.6892   23.0642  -28.5374 C   0  0  0  0  0  0  0  0  0  0  0  0
   -3.0575   23.2626  -28.6605 C   0  0  0  0  0  0  0  0  0  0  0  0
   -3.8330   23.0912  -27.5359 C   0  0  0  0  0  0  0  0  0  0  0  0
   -3.2943   22.7362  -26.3220 C   0  0  0  0  0  0  0  0  0  0  0  0
   -1.9165   22.5314  -26.1782 C   0  0  0  0  0  0  0  0  0  0  0  0
   -4.2971   23.4014  -21.8444 C   0  0  0  0  0  0  0  0  0  0  0  0
   -4.3629   23.7463  -20.5171 O   0  0  0  0  0  0  0  0  0  0  0  0
   -5.9719   24.0385  -20.1120 S   0  0  0  0  0  0  0  0  0  0  0  0
   -6.7798   24.0623  -21.3866 O   0  0  0  0  0  0  0  0  0  0  0  0
   -6.1176   25.3797  -19.4266 O   0  0  0  0  0  0  0  0  0  0  0  0
   -7.9985   22.8751  -18.6284 C   0  0  0  0  0  0  0  0  0  0  0  0
   -8.6854   23.8539  -19.0509 O   0  0  0  0  0  0  0  0  0  0  0  0
   -6.6268   22.8437  -19.0816 N   0  0  0  0  0  0  0  0  0  0  0  0
   -6.0586   22.0443  -18.7399 H   0  0  0  0  0  0  0  0  0  0  0  0
   -8.5661   21.8456  -17.7398 C   0  0  0  0  0  0  0  0  0  0  0  0
   -9.7967   22.2488  -17.0988 N   0  0  0  0  0  0  0  0  0  0  0  0
  -10.2525   21.3764  -16.7319 H   0  0  0  0  0  0  0  0  0  0  0  0
   -9.5910   22.8603  -16.3043 H   0  0  0  0  0  0  0  0  0  0  0  0
   -8.5970   20.4583  -18.2642 C   0  0  0  0  0  0  0  0  0  0  0  0
   -7.8517   18.0833  -18.1997 C   0  0  0  0  0  0  0  0  0  0  0  0
   -7.5063   19.5388  -17.8529 C   0  0  0  0  0  0  0  0  0  0  0  0
   -7.3202   19.5383  -16.3460 C   0  0  0  0  0  0  0  0  0  0  0  0
 33 34  1  0  0  0
 34 35  1  0  0  0
 34 32  1  0  0  0
 32 28  1  0  0  0
 28 29  1  0  0  0
 28 24  1  0  0  0
 24 25  2  0  0  0
 24 26  1  0  0  0
 26 21  1  0  0  0
 21 22  2  0  0  0
 21 23  2  0  0  0
 21 20  1  0  0  0
 20 19  1  0  0  0
 19  1  1  0  0  0
  1  2  1  0  0  0
  2  3  1  0  0  0
  3  4  1  0  0  0
  4  5  1  0  0  0
  4  6  1  0  0  0
  6  7  1  0  0  0
  3 10  1  0  0  0
 10 11  1  0  0  0
 11 12  2  0  0  0
 12 13  1  0  0  0
 13 14  2  0  0  0
 14 15  1  0  0  0
 15 16  2  0  0  0
 16 17  1  0  0  0
 17 18  2  0  0  0
  6  1  1  0  0  0
 18 10  1  0  0  0
 18 13  1  0  0  0
 29 30  1  0  0  0
 29 31  1  0  0  0
 26 27  1  0  0  0
  5  8  1  0  0  0
  7  9  1  0  0  0
M  END
> <minimizedAffinity>
-7.54214

> <CNNscore>
0.2230327725

> <CNNaffinity>
5.2134370804

> <CNN_VS>
1.1627672911

> <CNNaffinity_variance>
0.0744205043

$$$$
[H]O[C@]1([H])[C@@]([H])(C([H])([H])OS(=O)(=O)N([H])C(=O)[C@@]([H])(N([H])[H])C([H])([H])C([H])(C([H])([H])[H])C([H])([H])[H])O[C@@]([H])(n2c([H])c([H])c3c([H])c([H])c([H])c([H])c32)[C@]1([H])O[H]


 35 37  0  0  0  0  0  0  0  0999 V2000
   -1.8056   21.7300  -24.4475 C   0  0  0  0  0  0  0  0  0  0  0  0
   -2.9770   22.4961  -24.6626 O   0  0  0  0  0  0  0  0  0  0  0  0
   -3.0193   22.6717  -26.0441 C   0  0  0  0  0  0  0  0  0  0  0  0
   -1.5925   22.7953  -26.5189 C   0  0  0  0  0  0  0  0  0  0  0  0
   -1.2693   21.7514  -27.3818 O   0  0  0  0  0  0  0  0  0  0  0  0
   -0.8190   22.6249  -25.2093 C   0  0  0  0  0  0  0  0  0  0  0  0
    0.3989   22.0045  -25.3842 O   0  0  0  0  0  0  0  0  0  0  0  0
   -0.4646   21.2848  -27.0700 H   0  0  0  0  0  0  0  0  0  0  0  0
    0.9045   22.5339  -26.0532 H   0  0  0  0  0  0  0  0  0  0  0  0
   -3.7441   23.8506  -26.4533 N   0  0  0  0  0  0  0  0  0  0  0  0
   -3.9551   25.0105  -25.8061 C   0  0  0  0  0  0  0  0  0  0  0  0
   -4.7083   25.8447  -26.6015 C   0  0  0  0  0  0  0  0  0  0  0  0
   -4.9766   25.1853  -27.7826 C   0  0  0  0  0  0  0  0  0  0  0  0
   -5.6825   25.5613  -28.9084 C   0  0  0  0  0  0  0  0  0  0  0  0
   -5.7965   24.6798  -29.9746 C   0  0  0  0  0  0  0  0  0  0  0  0
   -5.1889   23.4501  -29.8562 C   0  0  0  0  0  0  0  0  0  0  0  0
   -4.4884   23.0845  -28.7313 C   0  0  0  0  0  0  0  0  0  0  0  0
   -4.3622   23.9600  -27.6458 C   0  0  0  0  0  0  0  0  0  0  0  0
   -1.3989   21.6479  -23.0216 C   0  0  0  0  0  0  0  0  0  0  0  0
   -0.1068   21.2374  -22.8045 O   0  0  0  0  0  0  0  0  0  0  0  0
    0.0350   20.7141  -21.2095 S   0  0  0  0  0  0  0  0  0  0  0  0
   -0.0469   19.2071  -21.2011 O   0  0  0  0  0  0  0  0  0  0  0  0
   -1.0940   21.2606  -20.3630 O   0  0  0  0  0  0  0  0  0  0  0  0
    1.9137   20.7151  -19.1768 C   0  0  0  0  0  0  0  0  0  0  0  0
    1.0927   19.9385  -18.6012 O   0  0  0  0  0  0  0  0  0  0  0  0
    1.5113   21.1771  -20.4854 N   0  0  0  0  0  0  0  0  0  0  0  0
    2.1794   21.8131  -20.9628 H   0  0  0  0  0  0  0  0  0  0  0  0
    3.1867   21.1127  -18.5499 C   0  0  0  0  0  0  0  0  0  0  0  0
    4.2618   21.3073  -19.4956 N   0  0  0  0  0  0  0  0  0  0  0  0
    5.0135   21.8480  -18.9997 H   0  0  0  0  0  0  0  0  0  0  0  0
    4.6494   20.4015  -19.7728 H   0  0  0  0  0  0  0  0  0  0  0  0
    3.1144   22.1667  -17.5085 C   0  0  0  0  0  0  0  0  0  0  0  0
    4.0135   24.3487  -16.7142 C   0  0  0  0  0  0  0  0  0  0  0  0
    3.4561   23.5559  -17.9054 C   0  0  0  0  0  0  0  0  0  0  0  0
    2.2221   24.3294  -18.3347 C   0  0  0  0  0  0  0  0  0  0  0  0
 33 34  1  0  0  0
 34 35  1  0  0  0
 34 32  1  0  0  0
 32 28  1  0  0  0
 28 29  1  0  0  0
 28 24  1  0  0  0
 24 25  2  0  0  0
 24 26  1  0  0  0
 26 21  1  0  0  0
 21 22  2  0  0  0
 21 23  2  0  0  0
 21 20  1  0  0  0
 20 19  1  0  0  0
 19  1  1  0  0  0
  1  2  1  0  0  0
  2  3  1  0  0  0
  3  4  1  0  0  0
  4  5  1  0  0  0
  4  6  1  0  0  0
  6  7  1  0  0  0
  3 10  1  0  0  0
 10 11  1  0  0  0
 11 12  2  0  0  0
 12 13  1  0  0  0
 13 14  2  0  0  0
 14 15  1  0  0  0
 15 16  2  0  0  0
 16 17  1  0  0  0
 17 18  2  0  0  0
  6  1  1  0  0  0
 18 10  1  0  0  0
 18 13  1  0  0  0
 29 30  1  0  0  0
 29 31  1  0  0  0
 26 27  1  0  0  0
  5  8  1  0  0  0
  7  9  1  0  0  0
M  END
> <minimizedAffinity>
-6.96944

> <CNNscore>
0.2113781720

> <CNNaffinity>
4.9592862129

> <CNN_VS>
1.0482848883

> <CNNaffinity_variance>
0.0552334972

$$$$
[H]O[C@]1([H])[C@@]([H])(C([H])([H])OS(=O)(=O)N([H])C(=O)[C@@]([H])(N([H])[H])C([H])([H])C([H])(C([H])([H])[H])C([H])([H])[H])O[C@@]([H])(n2c([H])c([H])c3c([H])c([H])c([H])c([H])c32)[C@]1([H])O[H]


 35 37  0  0  0  0  0  0  0  0999 V2000
   -3.7805   22.8500  -21.6988 C   0  0  0  0  0  0  0  0  0  0  0  0
   -3.1663   22.7472  -22.9707 O   0  0  0  0  0  0  0  0  0  0  0  0
   -2.2116   21.7458  -22.8071 C   0  0  0  0  0  0  0  0  0  0  0  0
   -1.6793   21.8666  -21.4005 C   0  0  0  0  0  0  0  0  0  0  0  0
   -1.9665   20.7191  -20.6659 O   0  0  0  0  0  0  0  0  0  0  0  0
   -2.5093   23.0329  -20.8590 C   0  0  0  0  0  0  0  0  0  0  0  0
   -2.7709   22.9226  -19.5106 O   0  0  0  0  0  0  0  0  0  0  0  0
   -2.4379   20.9509  -19.8373 H   0  0  0  0  0  0  0  0  0  0  0  0
   -1.8978   22.8361  -19.0484 H   0  0  0  0  0  0  0  0  0  0  0  0
   -1.1054   21.8483  -23.7281 N   0  0  0  0  0  0  0  0  0  0  0  0
    0.2143   21.6881  -23.5240 C   0  0  0  0  0  0  0  0  0  0  0  0
    0.8852   21.8850  -24.7102 C   0  0  0  0  0  0  0  0  0  0  0  0
   -0.0443   22.1776  -25.6860 C   0  0  0  0  0  0  0  0  0  0  0  0
    0.0889   22.4565  -27.0320 C   0  0  0  0  0  0  0  0  0  0  0  0
   -1.0406   22.7206  -27.7943 C   0  0  0  0  0  0  0  0  0  0  0  0
   -2.2622   22.6912  -27.1602 C   0  0  0  0  0  0  0  0  0  0  0  0
   -2.3849   22.4128  -25.8196 C   0  0  0  0  0  0  0  0  0  0  0  0
   -1.2573   22.1436  -25.0342 C   0  0  0  0  0  0  0  0  0  0  0  0
   -4.6480   24.0460  -21.5491 C   0  0  0  0  0  0  0  0  0  0  0  0
   -5.9938   23.7862  -21.4692 O   0  0  0  0  0  0  0  0  0  0  0  0
   -6.6073   23.6193  -23.0293 S   0  0  0  0  0  0  0  0  0  0  0  0
   -7.9953   24.2115  -23.0535 O   0  0  0  0  0  0  0  0  0  0  0  0
   -6.7020   22.1591  -23.4154 O   0  0  0  0  0  0  0  0  0  0  0  0
   -5.8102   25.8242  -24.5006 C   0  0  0  0  0  0  0  0  0  0  0  0
   -6.6952   26.4279  -23.8217 O   0  0  0  0  0  0  0  0  0  0  0  0
   -5.6607   24.4175  -24.2062 N   0  0  0  0  0  0  0  0  0  0  0  0
   -4.9371   23.9170  -24.7582 H   0  0  0  0  0  0  0  0  0  0  0  0
   -4.9948   26.5153  -25.5150 C   0  0  0  0  0  0  0  0  0  0  0  0
   -4.0762   27.4822  -24.9589 N   0  0  0  0  0  0  0  0  0  0  0  0
   -3.3687   27.6984  -25.7046 H   0  0  0  0  0  0  0  0  0  0  0  0
   -4.5758   28.3462  -24.7321 H   0  0  0  0  0  0  0  0  0  0  0  0
   -4.3953   25.6689  -26.5756 C   0  0  0  0  0  0  0  0  0  0  0  0
   -5.7636   23.9836  -27.7953 C   0  0  0  0  0  0  0  0  0  0  0  0
   -5.2023   25.4129  -27.7951 C   0  0  0  0  0  0  0  0  0  0  0  0
   -4.3505   25.4885  -29.0498 C   0  0  0  0  0  0  0  0  0  0  0  0
 33 34  1  0  0  0
 34 35  1  0  0  0
 34 32  1  0  0  0
 32 28  1  0  0  0
 28 29  1  0  0  0
 28 24  1  0  0  0
 24 25  2  0  0  0
 24 26  1  0  0  0
 26 21  1  0  0  0
 21 22  2  0  0  0
 21 23  2  0  0  0
 21 20  1  0  0  0
 20 19  1  0  0  0
 19  1  1  0  0  0
  1  2  1  0  0  0
  2  3  1  0  0  0
  3  4  1  0  0  0
  4  5  1  0  0  0
  4  6  1  0  0  0
  6  7  1  0  0  0
  3 10  1  0  0  0
 10 11  1  0  0  0
 11 12  2  0  0  0
 12 13  1  0  0  0
 13 14  2  0  0  0
 14 15  1  0  0  0
 15 16  2  0  0  0
 16 17  1  0  0  0
 17 18  2  0  0  0
  6  1  1  0  0  0
 18 10  1  0  0  0
 18 13  1  0  0  0
 29 30  1  0  0  0
 29 31  1  0  0  0
 26 27  1  0  0  0
  5  8  1  0  0  0
  7  9  1  0  0  0
M  END
> <minimizedAffinity>
-8.46430

> <CNNscore>
0.2083815038

> <CNNaffinity>
5.6897268295

> <CNN_VS>
1.1856337786

> <CNNaffinity_variance>
0.3698959351

$$$$
[H]O[C@]1([H])[C@@]([H])(C([H])([H])OS(=O)(=O)N([H])C(=O)[C@@]([H])(N([H])[H])C([H])([H])C([H])(C([H])([H])[H])C([H])([H])[H])O[C@@]([H])(n2c([H])c([H])c3c([H])c([H])c([H])c([H])c32)[C@]1([H])O[H]


 35 37  0  0  0  0  0  0  0  0999 V2000
   -4.3066   25.2367  -23.3339 C   0  0  0  0  0  0  0  0  0  0  0  0
   -4.1261   24.5782  -24.5746 O   0  0  0  0  0  0  0  0  0  0  0  0
   -4.9439   25.2828  -25.4554 C   0  0  0  0  0  0  0  0  0  0  0  0
   -6.1595   25.7214  -24.6765 C   0  0  0  0  0  0  0  0  0  0  0  0
   -6.2351   27.1109  -24.6247 O   0  0  0  0  0  0  0  0  0  0  0  0
   -5.8391   25.1815  -23.2808 C   0  0  0  0  0  0  0  0  0  0  0  0
   -6.3414   25.9746  -22.2721 O   0  0  0  0  0  0  0  0  0  0  0  0
   -6.3045   27.4166  -23.6951 H   0  0  0  0  0  0  0  0  0  0  0  0
   -7.3171   26.0626  -22.4263 H   0  0  0  0  0  0  0  0  0  0  0  0
   -5.3802   24.5010  -26.5872 N   0  0  0  0  0  0  0  0  0  0  0  0
   -6.1037   23.3683  -26.6352 C   0  0  0  0  0  0  0  0  0  0  0  0
   -6.2717   22.9912  -27.9488 C   0  0  0  0  0  0  0  0  0  0  0  0
   -5.6330   23.9171  -28.7465 C   0  0  0  0  0  0  0  0  0  0  0  0
   -5.4941   24.0133  -30.1172 C   0  0  0  0  0  0  0  0  0  0  0  0
   -4.7836   25.0732  -30.6634 C   0  0  0  0  0  0  0  0  0  0  0  0
   -4.2414   25.9950  -29.7964 C   0  0  0  0  0  0  0  0  0  0  0  0
   -4.3848   25.8908  -28.4332 C   0  0  0  0  0  0  0  0  0  0  0  0
   -5.0981   24.8290  -27.8635 C   0  0  0  0  0  0  0  0  0  0  0  0
   -3.7449   24.4948  -22.1765 C   0  0  0  0  0  0  0  0  0  0  0  0
   -3.4651   23.1711  -22.4102 O   0  0  0  0  0  0  0  0  0  0  0  0
   -1.9578   22.8107  -21.7496 S   0  0  0  0  0  0  0  0  0  0  0  0
   -2.0081   21.4037  -21.2058 O   0  0  0  0  0  0  0  0  0  0  0  0
   -1.6314   23.7534  -20.6116 O   0  0  0  0  0  0  0  0  0  0  0  0
   -0.7037   22.1533  -24.1279 C   0  0  0  0  0  0  0  0  0  0  0  0
   -1.7246   21.4226  -24.3074 O   0  0  0  0  0  0  0  0  0  0  0  0
   -0.6909   22.9015  -22.8919 N   0  0  0  0  0  0  0  0  0  0  0  0
    0.1422   23.5026  -22.7387 H   0  0  0  0  0  0  0  0  0  0  0  0
    0.3876   22.2300  -25.1152 C   0  0  0  0  0  0  0  0  0  0  0  0
    1.5986   21.5646  -24.6924 N   0  0  0  0  0  0  0  0  0  0  0  0
    2.1916   21.4316  -25.5492 H   0  0  0  0  0  0  0  0  0  0  0  0
    2.1122   22.1602  -24.0374 H   0  0  0  0  0  0  0  0  0  0  0  0
    0.0257   21.9618  -26.5286 C   0  0  0  0  0  0  0  0  0  0  0  0
   -2.1797   22.6336  -27.4695 C   0  0  0  0  0  0  0  0  0  0  0  0
   -0.7073   23.0203  -27.2678 C   0  0  0  0  0  0  0  0  0  0  0  0
   -0.1621   23.1935  -28.6742 C   0  0  0  0  0  0  0  0  0  0  0  0
 33 34  1  0  0  0
 34 35  1  0  0  0
 34 32  1  0  0  0
 32 28  1  0  0  0
 28 29  1  0  0  0
 28 24  1  0  0  0
 24 25  2  0  0  0
 24 26  1  0  0  0
 26 21  1  0  0  0
 21 22  2  0  0  0
 21 23  2  0  0  0
 21 20  1  0  0  0
 20 19  1  0  0  0
 19  1  1  0  0  0
  1  2  1  0  0  0
  2  3  1  0  0  0
  3  4  1  0  0  0
  4  5  1  0  0  0
  4  6  1  0  0  0
  6  7  1  0  0  0
  3 10  1  0  0  0
 10 11  1  0  0  0
 11 12  2  0  0  0
 12 13  1  0  0  0
 13 14  2  0  0  0
 14 15  1  0  0  0
 15 16  2  0  0  0
 16 17  1  0  0  0
 17 18  2  0  0  0
  6  1  1  0  0  0
 18 10  1  0  0  0
 18 13  1  0  0  0
 29 30  1  0  0  0
 29 31  1  0  0  0
 26 27  1  0  0  0
  5  8  1  0  0  0
  7  9  1  0  0  0
M  END
> <minimizedAffinity>
-8.47834

> <CNNscore>
0.2071355730

> <CNNaffinity>
6.0536890030

> <CNN_VS>
1.2539343834

> <CNNaffinity_variance>
0.2323752940

$$$$
[H]c1nc(C(=O)[C@@]([H])(N([H])C(=O)c2c([H])c([H])c(N([H])S(=O)(=O)c3c([H])c([H])c([H])c(Br)c3[H])c(-c3sc([H])c(C(=O)OC([H])([H])[H])c3[H])c2[H])C([H])([H])C([H])(C([H])([H])[H])C([H])([H])[H])sc1[H]


 43 46  0  0  0  0  0  0  0  0999 V2000
   -0.7161   21.7789  -24.3963 C   0  0  0  0  0  0  0  0  0  0  0  0
    0.5794   21.6863  -23.9671 C   0  0  0  0  0  0  0  0  0  0  0  0
    0.9366   21.2265  -22.7045 C   0  0  0  0  0  0  0  0  0  0  0  0
   -0.1123   20.8634  -21.8972 C   0  0  0  0  0  0  0  0  0  0  0  0
   -1.4245   20.9472  -22.3009 C   0  0  0  0  0  0  0  0  0  0  0  0
   -1.7613   21.4191  -23.5896 C   0  0  0  0  0  0  0  0  0  0  0  0
   -2.3152   23.0200  -27.5374 C   0  0  0  0  0  0  0  0  0  0  0  0
   -1.1502   23.0312  -28.2582 C   0  0  0  0  0  0  0  0  0  0  0  0
   -0.0033   22.4830  -27.1272 S   0  0  0  0  0  0  0  0  0  0  0  0
   -1.0052   22.2525  -25.7792 C   0  0  0  0  0  0  0  0  0  0  0  0
   -2.2407   22.6194  -26.2620 C   0  0  0  0  0  0  0  0  0  0  0  0
   -3.5921   23.4460  -28.1803 C   0  0  0  0  0  0  0  0  0  0  0  0
   -4.6835   22.9455  -27.8354 O   0  0  0  0  0  0  0  0  0  0  0  0
   -4.5018   25.5095  -29.0599 C   0  0  0  0  0  0  0  0  0  0  0  0
   -3.6311   24.4036  -29.1787 O   0  0  0  0  0  0  0  0  0  0  0  0
    2.3199   21.1538  -22.2808 C   0  0  0  0  0  0  0  0  0  0  0  0
    3.2104   21.3899  -23.1655 O   0  0  0  0  0  0  0  0  0  0  0  0
    2.7180   20.8453  -20.9870 N   0  0  0  0  0  0  0  0  0  0  0  0
    2.0138   20.6483  -20.2544 H   0  0  0  0  0  0  0  0  0  0  0  0
    4.1168   20.7959  -20.6380 C   0  0  0  0  0  0  0  0  0  0  0  0
    4.5397   19.3977  -20.4147 C   0  0  0  0  0  0  0  0  0  0  0  0
    5.4079   19.1166  -19.5119 O   0  0  0  0  0  0  0  0  0  0  0  0
    4.0307   18.2407  -21.1660 C   0  0  0  0  0  0  0  0  0  0  0  0
    4.0960   17.9602  -22.4491 N   0  0  0  0  0  0  0  0  0  0  0  0
    3.5791   16.8805  -22.9267 C   0  0  0  0  0  0  0  0  0  0  0  0
    2.9546   16.0309  -22.0421 C   0  0  0  0  0  0  0  0  0  0  0  0
    3.1646   16.8670  -20.5635 S   0  0  0  0  0  0  0  0  0  0  0  0
    4.5297   21.7754  -19.6309 C   0  0  0  0  0  0  0  0  0  0  0  0
    3.5722   22.2946  -18.6425 C   0  0  0  0  0  0  0  0  0  0  0  0
    3.1762   21.3684  -17.5238 C   0  0  0  0  0  0  0  0  0  0  0  0
    4.2862   23.4740  -17.9428 C   0  0  0  0  0  0  0  0  0  0  0  0
   -3.1402   21.5291  -23.9282 N   0  0  0  0  0  0  0  0  0  0  0  0
   -3.5985   21.0146  -24.7130 H   0  0  0  0  0  0  0  0  0  0  0  0
   -4.1977   22.6067  -23.0680 S   0  0  0  0  0  0  0  0  0  0  0  0
   -3.4190   23.4576  -22.1278 O   0  0  0  0  0  0  0  0  0  0  0  0
   -5.1779   21.8047  -22.2450 O   0  0  0  0  0  0  0  0  0  0  0  0
   -5.1258   23.5998  -24.1357 C   0  0  0  0  0  0  0  0  0  0  0  0
   -6.3008   23.1602  -24.6678 C   0  0  0  0  0  0  0  0  0  0  0  0
   -7.0336   23.9530  -25.5145 C   0  0  0  0  0  0  0  0  0  0  0  0
   -6.6111   25.2084  -25.8525 C   0  0  0  0  0  0  0  0  0  0  0  0
   -5.4261   25.6669  -25.3233 C   0  0  0  0  0  0  0  0  0  0  0  0
   -4.7539   27.4129  -25.7438 Br  0  0  0  0  0  0  0  0  0  0  0  0
   -4.6971   24.8707  -24.4773 C   0  0  0  0  0  0  0  0  0  0  0  0
 14 15  1  0  0  0
 15 12  1  0  0  0
 12 13  2  0  0  0
 12  7  1  0  0  0
  7  8  2  0  0  0
  8  9  1  0  0  0
  9 10  1  0  0  0
 10 11  2  0  0  0
 10  1  1  0  0  0
  1  2  2  0  0  0
  2  3  1  0  0  0
  3  4  2  0  0  0
  4  5  1  0  0  0
  5  6  2  0  0  0
  6 32  1  0  0  0
 32 34  1  0  0  0
 34 35  2  0  0  0
 34 36  2  0  0  0
 34 37  1  0  0  0
 37 38  2  0  0  0
 38 39  1  0  0  0
 39 40  2  0  0  0
 40 41  1  0  0  0
 41 42  1  0  0  0
 41 43  2  0  0  0
  3 16  1  0  0  0
 16 17  2  0  0  0
 16 18  1  0  0  0
 18 20  1  0  0  0
 20 28  1  0  0  0
 28 29  1  0  0  0
 29 30  1  0  0  0
 29 31  1  0  0  0
 20 21  1  0  0  0
 21 22  2  0  0  0
 21 23  1  0  0  0
 23 24  2  0  0  0
 24 25  1  0  0  0
 25 26  2  0  0  0
 26 27  1  0  0  0
 11  7  1  0  0  0
  6  1  1  0  0  0
 43 37  1  0  0  0
 27 23  1  0  0  0
 32 33  1  0  0  0
 18 19  1  0  0  0
M  END
> <minimizedAffinity>
-8.12322

> <CNNscore>
0.5869925618

> <CNNaffinity>
7.6011095047

> <CNN_VS>
4.4617948532

> <CNNaffinity_variance>
0.1741487086

$$$$
[H]c1nc(C(=O)[C@@]([H])(N([H])C(=O)c2c([H])c([H])c(N([H])S(=O)(=O)c3c([H])c([H])c([H])c(Br)c3[H])c(-c3sc([H])c(C(=O)OC([H])([H])[H])c3[H])c2[H])C([H])([H])C([H])(C([H])([H])[H])C([H])([H])[H])sc1[H]


 43 46  0  0  0  0  0  0  0  0999 V2000
   -4.6669   23.4198  -22.7268 C   0  0  0  0  0  0  0  0  0  0  0  0
   -5.4080   22.4760  -22.0701 C   0  0  0  0  0  0  0  0  0  0  0  0
   -6.6699   22.7246  -21.5421 C   0  0  0  0  0  0  0  0  0  0  0  0
   -7.1372   24.0023  -21.7235 C   0  0  0  0  0  0  0  0  0  0  0  0
   -6.4141   24.9723  -22.3779 C   0  0  0  0  0  0  0  0  0  0  0  0
   -5.1327   24.6942  -22.9048 C   0  0  0  0  0  0  0  0  0  0  0  0
   -1.7949   22.5356  -24.9479 C   0  0  0  0  0  0  0  0  0  0  0  0
   -0.8930   22.4213  -23.9231 C   0  0  0  0  0  0  0  0  0  0  0  0
   -1.8363   22.7731  -22.5514 S   0  0  0  0  0  0  0  0  0  0  0  0
   -3.3361   23.0556  -23.2895 C   0  0  0  0  0  0  0  0  0  0  0  0
   -3.0519   22.8620  -24.6221 C   0  0  0  0  0  0  0  0  0  0  0  0
   -1.3565   22.3018  -26.3545 C   0  0  0  0  0  0  0  0  0  0  0  0
   -0.1576   22.0786  -26.6253 O   0  0  0  0  0  0  0  0  0  0  0  0
   -1.9421   23.0733  -28.5729 C   0  0  0  0  0  0  0  0  0  0  0  0
   -2.2442   22.3211  -27.4162 O   0  0  0  0  0  0  0  0  0  0  0  0
   -7.4203   21.7023  -20.8420 C   0  0  0  0  0  0  0  0  0  0  0  0
   -8.3557   21.1232  -21.4907 O   0  0  0  0  0  0  0  0  0  0  0  0
   -7.1789   21.3290  -19.5266 N   0  0  0  0  0  0  0  0  0  0  0  0
   -6.4273   21.7864  -18.9811 H   0  0  0  0  0  0  0  0  0  0  0  0
   -7.9662   20.2976  -18.8966 C   0  0  0  0  0  0  0  0  0  0  0  0
   -8.9531   20.8978  -17.9750 C   0  0  0  0  0  0  0  0  0  0  0  0
  -10.1904   20.9768  -18.3079 O   0  0  0  0  0  0  0  0  0  0  0  0
   -8.6341   21.4369  -16.6448 C   0  0  0  0  0  0  0  0  0  0  0  0
   -7.8488   22.4312  -16.2924 N   0  0  0  0  0  0  0  0  0  0  0  0
   -7.6929   22.7566  -15.0551 C   0  0  0  0  0  0  0  0  0  0  0  0
   -8.3796   22.0228  -14.1147 C   0  0  0  0  0  0  0  0  0  0  0  0
   -9.2132   20.9011  -15.1028 S   0  0  0  0  0  0  0  0  0  0  0  0
   -7.1914   19.1663  -18.3826 C   0  0  0  0  0  0  0  0  0  0  0  0
   -7.7765   17.8188  -18.3095 C   0  0  0  0  0  0  0  0  0  0  0  0
   -6.9141   16.6742  -18.7703 C   0  0  0  0  0  0  0  0  0  0  0  0
   -8.0222   17.5466  -16.8076 C   0  0  0  0  0  0  0  0  0  0  0  0
   -4.4148   25.7552  -23.5268 N   0  0  0  0  0  0  0  0  0  0  0  0
   -3.4973   26.1241  -23.1908 H   0  0  0  0  0  0  0  0  0  0  0  0
   -5.0543   26.5879  -24.9114 S   0  0  0  0  0  0  0  0  0  0  0  0
   -4.1580   27.7095  -25.3024 O   0  0  0  0  0  0  0  0  0  0  0  0
   -6.3992   27.1833  -24.5678 O   0  0  0  0  0  0  0  0  0  0  0  0
   -5.2976   25.5280  -26.2549 C   0  0  0  0  0  0  0  0  0  0  0  0
   -5.9581   24.3448  -26.1114 C   0  0  0  0  0  0  0  0  0  0  0  0
   -6.1486   23.5075  -27.1816 C   0  0  0  0  0  0  0  0  0  0  0  0
   -5.6837   23.8311  -28.4257 C   0  0  0  0  0  0  0  0  0  0  0  0
   -5.0143   25.0230  -28.5869 C   0  0  0  0  0  0  0  0  0  0  0  0
   -4.3244   25.5580  -30.2942 Br  0  0  0  0  0  0  0  0  0  0  0  0
   -4.8263   25.8566  -27.5141 C   0  0  0  0  0  0  0  0  0  0  0  0
 14 15  1  0  0  0
 15 12  1  0  0  0
 12 13  2  0  0  0
 12  7  1  0  0  0
  7  8  2  0  0  0
  8  9  1  0  0  0
  9 10  1  0  0  0
 10 11  2  0  0  0
 10  1  1  0  0  0
  1  2  2  0  0  0
  2  3  1  0  0  0
  3  4  2  0  0  0
  4  5  1  0  0  0
  5  6  2  0  0  0
  6 32  1  0  0  0
 32 34  1  0  0  0
 34 35  2  0  0  0
 34 36  2  0  0  0
 34 37  1  0  0  0
 37 38  2  0  0  0
 38 39  1  0  0  0
 39 40  2  0  0  0
 40 41  1  0  0  0
 41 42  1  0  0  0
 41 43  2  0  0  0
  3 16  1  0  0  0
 16 17  2  0  0  0
 16 18  1  0  0  0
 18 20  1  0  0  0
 20 28  1  0  0  0
 28 29  1  0  0  0
 29 30  1  0  0  0
 29 31  1  0  0  0
 20 21  1  0  0  0
 21 22  2  0  0  0
 21 23  1  0  0  0
 23 24  2  0  0  0
 24 25  1  0  0  0
 25 26  2  0  0  0
 26 27  1  0  0  0
 11  7  1  0  0  0
  6  1  1  0  0  0
 43 37  1  0  0  0
 27 23  1  0  0  0
 32 33  1  0  0  0
 18 19  1  0  0  0
M  END
> <minimizedAffinity>
-8.07636

> <CNNscore>
0.2962881327

> <CNNaffinity>
7.1676726341

> <CNN_VS>
2.1236963272

> <CNNaffinity_variance>
0.1313758940

$$$$
[H]c1nc(C(=O)[C@@]([H])(N([H])C(=O)c2c([H])c([H])c(N([H])S(=O)(=O)c3c([H])c([H])c([H])c(Br)c3[H])c(-c3sc([H])c(C(=O)OC([H])([H])[H])c3[H])c2[H])C([H])([H])C([H])(C([H])([H])[H])C([H])([H])[H])sc1[H]


 43 46  0  0  0  0  0  0  0  0999 V2000
   -5.0343   22.3656  -21.5122 C   0  0  0  0  0  0  0  0  0  0  0  0
   -5.9056   22.6632  -20.5006 C   0  0  0  0  0  0  0  0  0  0  0  0
   -5.6300   22.4272  -19.1585 C   0  0  0  0  0  0  0  0  0  0  0  0
   -4.4040   21.8650  -18.9044 C   0  0  0  0  0  0  0  0  0  0  0  0
   -3.5083   21.5535  -19.9008 C   0  0  0  0  0  0  0  0  0  0  0  0
   -3.8131   21.8026  -21.2580 C   0  0  0  0  0  0  0  0  0  0  0  0
   -5.5855   23.9951  -24.8295 C   0  0  0  0  0  0  0  0  0  0  0  0
   -6.1703   22.8945  -25.3982 C   0  0  0  0  0  0  0  0  0  0  0  0
   -6.1422   21.7579  -24.1322 S   0  0  0  0  0  0  0  0  0  0  0  0
   -5.4000   22.6835  -22.9213 C   0  0  0  0  0  0  0  0  0  0  0  0
   -5.1891   23.8867  -23.5552 C   0  0  0  0  0  0  0  0  0  0  0  0
   -5.4123   25.2424  -25.6293 C   0  0  0  0  0  0  0  0  0  0  0  0
   -6.3400   25.6845  -26.3395 O   0  0  0  0  0  0  0  0  0  0  0  0
   -4.2241   27.3032  -25.1813 C   0  0  0  0  0  0  0  0  0  0  0  0
   -4.2303   25.9624  -25.6254 O   0  0  0  0  0  0  0  0  0  0  0  0
   -6.5834   22.7449  -18.1152 C   0  0  0  0  0  0  0  0  0  0  0  0
   -6.9705   23.9594  -18.0339 O   0  0  0  0  0  0  0  0  0  0  0  0
   -7.0865   21.8138  -17.2165 N   0  0  0  0  0  0  0  0  0  0  0  0
   -6.7853   20.8245  -17.2625 H   0  0  0  0  0  0  0  0  0  0  0  0
   -8.0384   22.2045  -16.2055 C   0  0  0  0  0  0  0  0  0  0  0  0
   -7.3594   22.3847  -14.9054 C   0  0  0  0  0  0  0  0  0  0  0  0
   -6.8727   21.3749  -14.2799 O   0  0  0  0  0  0  0  0  0  0  0  0
   -7.1777   23.6780  -14.2299 C   0  0  0  0  0  0  0  0  0  0  0  0
   -6.7595   24.8340  -14.6971 N   0  0  0  0  0  0  0  0  0  0  0  0
   -6.6632   25.8697  -13.9362 C   0  0  0  0  0  0  0  0  0  0  0  0
   -7.0145   25.7202  -12.6138 C   0  0  0  0  0  0  0  0  0  0  0  0
   -7.4657   24.0699  -12.5674 S   0  0  0  0  0  0  0  0  0  0  0  0
   -9.2758   21.4217  -16.1969 C   0  0  0  0  0  0  0  0  0  0  0  0
  -10.4829   21.9062  -16.8836 C   0  0  0  0  0  0  0  0  0  0  0  0
  -10.3625   22.1903  -18.3570 C   0  0  0  0  0  0  0  0  0  0  0  0
  -11.5127   20.7570  -16.7874 C   0  0  0  0  0  0  0  0  0  0  0  0
   -2.8641   21.4109  -22.2449 N   0  0  0  0  0  0  0  0  0  0  0  0
   -2.9131   20.5224  -22.7917 H   0  0  0  0  0  0  0  0  0  0  0  0
   -1.4694   22.3869  -22.5938 S   0  0  0  0  0  0  0  0  0  0  0  0
   -0.2995   21.9231  -21.7998 O   0  0  0  0  0  0  0  0  0  0  0  0
   -1.7426   23.8195  -22.2008 O   0  0  0  0  0  0  0  0  0  0  0  0
   -1.0794   22.3888  -24.2776 C   0  0  0  0  0  0  0  0  0  0  0  0
    0.1808   22.1056  -24.7118 C   0  0  0  0  0  0  0  0  0  0  0  0
    0.4846   22.1082  -26.0498 C   0  0  0  0  0  0  0  0  0  0  0  0
   -0.4645   22.3942  -26.9911 C   0  0  0  0  0  0  0  0  0  0  0  0
   -1.7423   22.6826  -26.5684 C   0  0  0  0  0  0  0  0  0  0  0  0
   -3.1372   23.0985  -27.8169 Br  0  0  0  0  0  0  0  0  0  0  0  0
   -2.0411   22.6787  -25.2299 C   0  0  0  0  0  0  0  0  0  0  0  0
 14 15  1  0  0  0
 15 12  1  0  0  0
 12 13  2  0  0  0
 12  7  1  0  0  0
  7  8  2  0  0  0
  8  9  1  0  0  0
  9 10  1  0  0  0
 10 11  2  0  0  0
 10  1  1  0  0  0
  1  2  2  0  0  0
  2  3  1  0  0  0
  3  4  2  0  0  0
  4  5  1  0  0  0
  5  6  2  0  0  0
  6 32  1  0  0  0
 32 34  1  0  0  0
 34 35  2  0  0  0
 34 36  2  0  0  0
 34 37  1  0  0  0
 37 38  2  0  0  0
 38 39  1  0  0  0
 39 40  2  0  0  0
 40 41  1  0  0  0
 41 42  1  0  0  0
 41 43  2  0  0  0
  3 16  1  0  0  0
 16 17  2  0  0  0
 16 18  1  0  0  0
 18 20  1  0  0  0
 20 28  1  0  0  0
 28 29  1  0  0  0
 29 30  1  0  0  0
 29 31  1  0  0  0
 20 21  1  0  0  0
 21 22  2  0  0  0
 21 23  1  0  0  0
 23 24  2  0  0  0
 24 25  1  0  0  0
 25 26  2  0  0  0
 26 27  1  0  0  0
 11  7  1  0  0  0
  6  1  1  0  0  0
 43 37  1  0  0  0
 27 23  1  0  0  0
 32 33  1  0  0  0
 18 19  1  0  0  0
M  END
> <minimizedAffinity>
-7.59997

> <CNNscore>
0.2226167023

> <CNNaffinity>
6.6996126175

> <CNN_VS>
1.4914456606

> <CNNaffinity_variance>
0.1304365695

$$$$
[H]c1nc(C(=O)[C@@]([H])(N([H])C(=O)c2c([H])c([H])c(N([H])S(=O)(=O)c3c([H])c([H])c([H])c(Br)c3[H])c(-c3sc([H])c(C(=O)OC([H])([H])[H])c3[H])c2[H])C([H])([H])C([H])(C([H])([H])[H])C([H])([H])[H])sc1[H]


 43 46  0  0  0  0  0  0  0  0999 V2000
   -1.7846   22.6544  -24.2656 C   0  0  0  0  0  0  0  0  0  0  0  0
   -0.7062   22.0403  -23.6903 C   0  0  0  0  0  0  0  0  0  0  0  0
   -0.5869   21.8267  -22.3217 C   0  0  0  0  0  0  0  0  0  0  0  0
   -1.6397   22.2791  -21.5663 C   0  0  0  0  0  0  0  0  0  0  0  0
   -2.7360   22.9014  -22.1166 C   0  0  0  0  0  0  0  0  0  0  0  0
   -2.8326   23.1076  -23.5113 C   0  0  0  0  0  0  0  0  0  0  0  0
   -2.8230   23.2702  -27.8021 C   0  0  0  0  0  0  0  0  0  0  0  0
   -1.5906   22.9890  -28.3303 C   0  0  0  0  0  0  0  0  0  0  0  0
   -0.6683   22.6104  -26.9514 S   0  0  0  0  0  0  0  0  0  0  0  0
   -1.8433   22.8123  -25.7462 C   0  0  0  0  0  0  0  0  0  0  0  0
   -2.9531   23.1794  -26.4726 C   0  0  0  0  0  0  0  0  0  0  0  0
   -3.9468   23.6604  -28.7021 C   0  0  0  0  0  0  0  0  0  0  0  0
   -4.9975   22.9862  -28.7477 O   0  0  0  0  0  0  0  0  0  0  0  0
   -5.0595   25.4920  -29.8276 C   0  0  0  0  0  0  0  0  0  0  0  0
   -3.8823   24.7738  -29.5216 O   0  0  0  0  0  0  0  0  0  0  0  0
    0.5768   21.1830  -21.7473 C   0  0  0  0  0  0  0  0  0  0  0  0
    1.5888   21.0267  -22.5107 O   0  0  0  0  0  0  0  0  0  0  0  0
    0.6450   20.7354  -20.4348 N   0  0  0  0  0  0  0  0  0  0  0  0
   -0.1638   20.8497  -19.7989 H   0  0  0  0  0  0  0  0  0  0  0  0
    1.8417   20.1066  -19.9315 C   0  0  0  0  0  0  0  0  0  0  0  0
    1.7071   18.6358  -19.9818 C   0  0  0  0  0  0  0  0  0  0  0  0
    0.9894   18.0179  -19.1153 O   0  0  0  0  0  0  0  0  0  0  0  0
    2.3485   17.7720  -20.9840 C   0  0  0  0  0  0  0  0  0  0  0  0
    3.2609   18.0475  -21.8902 N   0  0  0  0  0  0  0  0  0  0  0  0
    3.7034   17.1418  -22.6933 C   0  0  0  0  0  0  0  0  0  0  0  0
    3.1840   15.8735  -22.5673 C   0  0  0  0  0  0  0  0  0  0  0  0
    2.0790   16.0863  -21.2777 S   0  0  0  0  0  0  0  0  0  0  0  0
    2.3522   20.6767  -18.6831 C   0  0  0  0  0  0  0  0  0  0  0  0
    3.4506   21.6548  -18.6909 C   0  0  0  0  0  0  0  0  0  0  0  0
    4.3040   21.7130  -19.9297 C   0  0  0  0  0  0  0  0  0  0  0  0
    2.7781   23.0447  -18.6107 C   0  0  0  0  0  0  0  0  0  0  0  0
   -3.9699   23.8027  -24.0128 N   0  0  0  0  0  0  0  0  0  0  0  0
   -3.9269   24.7061  -24.5351 H   0  0  0  0  0  0  0  0  0  0  0  0
   -5.5813   23.2124  -23.7403 S   0  0  0  0  0  0  0  0  0  0  0  0
   -5.5430   21.8139  -23.2332 O   0  0  0  0  0  0  0  0  0  0  0  0
   -6.3431   23.1992  -25.0445 O   0  0  0  0  0  0  0  0  0  0  0  0
   -6.4669   24.2154  -22.6462 C   0  0  0  0  0  0  0  0  0  0  0  0
   -5.8869   24.7173  -21.5199 C   0  0  0  0  0  0  0  0  0  0  0  0
   -6.5948   25.5133  -20.6551 C   0  0  0  0  0  0  0  0  0  0  0  0
   -7.9032   25.8295  -20.8932 C   0  0  0  0  0  0  0  0  0  0  0  0
   -8.5035   25.3300  -22.0267 C   0  0  0  0  0  0  0  0  0  0  0  0
  -10.3352   25.7183  -22.4405 Br  0  0  0  0  0  0  0  0  0  0  0  0
   -7.7917   24.5348  -22.8882 C   0  0  0  0  0  0  0  0  0  0  0  0
 14 15  1  0  0  0
 15 12  1  0  0  0
 12 13  2  0  0  0
 12  7  1  0  0  0
  7  8  2  0  0  0
  8  9  1  0  0  0
  9 10  1  0  0  0
 10 11  2  0  0  0
 10  1  1  0  0  0
  1  2  2  0  0  0
  2  3  1  0  0  0
  3  4  2  0  0  0
  4  5  1  0  0  0
  5  6  2  0  0  0
  6 32  1  0  0  0
 32 34  1  0  0  0
 34 35  2  0  0  0
 34 36  2  0  0  0
 34 37  1  0  0  0
 37 38  2  0  0  0
 38 39  1  0  0  0
 39 40  2  0  0  0
 40 41  1  0  0  0
 41 42  1  0  0  0
 41 43  2  0  0  0
  3 16  1  0  0  0
 16 17  2  0  0  0
 16 18  1  0  0  0
 18 20  1  0  0  0
 20 28  1  0  0  0
 28 29  1  0  0  0
 29 30  1  0  0  0
 29 31  1  0  0  0
 20 21  1  0  0  0
 21 22  2  0  0  0
 21 23  1  0  0  0
 23 24  2  0  0  0
 24 25  1  0  0  0
 25 26  2  0  0  0
 26 27  1  0  0  0
 11  7  1  0  0  0
  6  1  1  0  0  0
 43 37  1  0  0  0
 27 23  1  0  0  0
 32 33  1  0  0  0
 18 19  1  0  0  0
M  END
> <minimizedAffinity>
-7.60125

> <CNNscore>
0.2050243765

> <CNNaffinity>
7.2026534081

> <CNN_VS>
1.4767194986

> <CNNaffinity_variance>
0.0443780199

$$$$
[H]c1nc(C(=O)[C@@]([H])(N([H])C(=O)c2c([H])c([H])c(N([H])S(=O)(=O)c3c([H])c([H])c([H])c(Br)c3[H])c(-c3sc([H])c(C(=O)OC([H])([H])[H])c3[H])c2[H])C([H])([H])C([H])(C([H])([H])[H])C([H])([H])[H])sc1[H]


 43 46  0  0  0  0  0  0  0  0999 V2000
   -4.8187   23.6749  -22.6113 C   0  0  0  0  0  0  0  0  0  0  0  0
   -5.6382   22.7864  -21.9710 C   0  0  0  0  0  0  0  0  0  0  0  0
   -6.9563   23.0687  -21.6307 C   0  0  0  0  0  0  0  0  0  0  0  0
   -7.3952   24.3204  -21.9837 C   0  0  0  0  0  0  0  0  0  0  0  0
   -6.5937   25.2350  -22.6265 C   0  0  0  0  0  0  0  0  0  0  0  0
   -5.2564   24.9237  -22.9605 C   0  0  0  0  0  0  0  0  0  0  0  0
   -1.6967   22.5981  -24.3598 C   0  0  0  0  0  0  0  0  0  0  0  0
   -0.9227   22.6214  -23.2296 C   0  0  0  0  0  0  0  0  0  0  0  0
   -2.0252   23.1104  -22.0293 S   0  0  0  0  0  0  0  0  0  0  0  0
   -3.4280   23.2751  -22.9668 C   0  0  0  0  0  0  0  0  0  0  0  0
   -2.9856   22.9345  -24.2247 C   0  0  0  0  0  0  0  0  0  0  0  0
   -1.0921   22.2121  -25.6678 C   0  0  0  0  0  0  0  0  0  0  0  0
    0.1451   22.0945  -25.7942 O   0  0  0  0  0  0  0  0  0  0  0  0
   -1.7680   22.8291  -27.9087 C   0  0  0  0  0  0  0  0  0  0  0  0
   -1.8614   21.9689  -26.7923 O   0  0  0  0  0  0  0  0  0  0  0  0
   -7.7907   22.1058  -20.9415 C   0  0  0  0  0  0  0  0  0  0  0  0
   -8.0886   21.0379  -21.5757 O   0  0  0  0  0  0  0  0  0  0  0  0
   -8.2739   22.2828  -19.6519 N   0  0  0  0  0  0  0  0  0  0  0  0
   -8.0468   23.1414  -19.1200 H   0  0  0  0  0  0  0  0  0  0  0  0
   -9.0971   21.2758  -19.0283 C   0  0  0  0  0  0  0  0  0  0  0  0
  -10.4329   21.8266  -18.7182 C   0  0  0  0  0  0  0  0  0  0  0  0
  -11.2377   21.1877  -17.9487 O   0  0  0  0  0  0  0  0  0  0  0  0
  -10.9501   23.1034  -19.2322 C   0  0  0  0  0  0  0  0  0  0  0  0
  -10.6752   23.7506  -20.3435 N   0  0  0  0  0  0  0  0  0  0  0  0
  -11.2381   24.8763  -20.6208 C   0  0  0  0  0  0  0  0  0  0  0  0
  -12.1386   25.3771  -19.7084 C   0  0  0  0  0  0  0  0  0  0  0  0
  -12.1059   24.1655  -18.4999 S   0  0  0  0  0  0  0  0  0  0  0  0
   -8.4353   20.5198  -17.9631 C   0  0  0  0  0  0  0  0  0  0  0  0
   -6.9906   20.6561  -17.7232 C   0  0  0  0  0  0  0  0  0  0  0  0
   -6.5133   20.4720  -16.3074 C   0  0  0  0  0  0  0  0  0  0  0  0
   -6.3215   19.5098  -18.5162 C   0  0  0  0  0  0  0  0  0  0  0  0
   -4.4641   25.9318  -23.5801 N   0  0  0  0  0  0  0  0  0  0  0  0
   -3.5655   26.2976  -23.1934 H   0  0  0  0  0  0  0  0  0  0  0  0
   -4.9722   26.7011  -25.0530 S   0  0  0  0  0  0  0  0  0  0  0  0
   -4.0156   27.7753  -25.4345 O   0  0  0  0  0  0  0  0  0  0  0  0
   -6.3207   27.3496  -24.8467 O   0  0  0  0  0  0  0  0  0  0  0  0
   -5.1454   25.5736  -26.3515 C   0  0  0  0  0  0  0  0  0  0  0  0
   -5.7109   24.3495  -26.1544 C   0  0  0  0  0  0  0  0  0  0  0  0
   -5.8462   23.4586  -27.1890 C   0  0  0  0  0  0  0  0  0  0  0  0
   -5.4194   23.7678  -28.4504 C   0  0  0  0  0  0  0  0  0  0  0  0
   -4.8459   25.0004  -28.6657 C   0  0  0  0  0  0  0  0  0  0  0  0
   -4.2157   25.5193  -30.4009 Br  0  0  0  0  0  0  0  0  0  0  0  0
   -4.7129   25.8875  -27.6283 C   0  0  0  0  0  0  0  0  0  0  0  0
 14 15  1  0  0  0
 15 12  1  0  0  0
 12 13  2  0  0  0
 12  7  1  0  0  0
  7  8  2  0  0  0
  8  9  1  0  0  0
  9 10  1  0  0  0
 10 11  2  0  0  0
 10  1  1  0  0  0
  1  2  2  0  0  0
  2  3  1  0  0  0
  3  4  2  0  0  0
  4  5  1  0  0  0
  5  6  2  0  0  0
  6 32  1  0  0  0
 32 34  1  0  0  0
 34 35  2  0  0  0
 34 36  2  0  0  0
 34 37  1  0  0  0
 37 38  2  0  0  0
 38 39  1  0  0  0
 39 40  2  0  0  0
 40 41  1  0  0  0
 41 42  1  0  0  0
 41 43  2  0  0  0
  3 16  1  0  0  0
 16 17  2  0  0  0
 16 18  1  0  0  0
 18 20  1  0  0  0
 20 28  1  0  0  0
 28 29  1  0  0  0
 29 30  1  0  0  0
 29 31  1  0  0  0
 20 21  1  0  0  0
 21 22  2  0  0  0
 21 23  1  0  0  0
 23 24  2  0  0  0
 24 25  1  0  0  0
 25 26  2  0  0  0
 26 27  1  0  0  0
 11  7  1  0  0  0
  6  1  1  0  0  0
 43 37  1  0  0  0
 27 23  1  0  0  0
 32 33  1  0  0  0
 18 19  1  0  0  0
M  END
> <minimizedAffinity>
-8.12236

> <CNNscore>
0.1603027731

> <CNNaffinity>
6.9294495583

> <CNN_VS>
1.1108099222

> <CNNaffinity_variance>
0.3036659658

$$$$
[H]c1nc(C(=O)[C@@]([H])(N([H])C(=O)c2c([H])c([H])c(N([H])S(=O)(=O)c3c([H])c([H])c([H])c(Br)c3[H])c(-c3sc([H])c(C(=O)OC([H])([H])[H])c3[H])c2[H])C([H])([H])C([H])(C([H])([H])[H])C([H])([H])[H])sc1[H]


 43 46  0  0  0  0  0  0  0  0999 V2000
   -3.8242   22.4821  -21.3705 C   0  0  0  0  0  0  0  0  0  0  0  0
   -2.8418   22.7165  -20.4480 C   0  0  0  0  0  0  0  0  0  0  0  0
   -1.4844   22.6329  -20.7371 C   0  0  0  0  0  0  0  0  0  0  0  0
   -1.1832   22.2935  -22.0324 C   0  0  0  0  0  0  0  0  0  0  0  0
   -2.1493   22.0505  -22.9808 C   0  0  0  0  0  0  0  0  0  0  0  0
   -3.5228   22.1411  -22.6611 C   0  0  0  0  0  0  0  0  0  0  0  0
   -7.2365   23.7522  -20.5300 C   0  0  0  0  0  0  0  0  0  0  0  0
   -7.7530   22.5125  -20.2595 C   0  0  0  0  0  0  0  0  0  0  0  0
   -6.4252   21.4844  -20.5336 S   0  0  0  0  0  0  0  0  0  0  0  0
   -5.2550   22.6266  -20.9805 C   0  0  0  0  0  0  0  0  0  0  0  0
   -5.9514   23.8110  -20.9011 C   0  0  0  0  0  0  0  0  0  0  0  0
   -8.1016   24.9614  -20.4082 C   0  0  0  0  0  0  0  0  0  0  0  0
   -7.6735   26.0066  -19.8745 O   0  0  0  0  0  0  0  0  0  0  0  0
   -9.6898   25.5380  -22.1416 C   0  0  0  0  0  0  0  0  0  0  0  0
   -9.4048   24.9853  -20.8733 O   0  0  0  0  0  0  0  0  0  0  0  0
   -0.4722   22.8766  -19.7299 C   0  0  0  0  0  0  0  0  0  0  0  0
   -0.4720   24.0268  -19.1746 O   0  0  0  0  0  0  0  0  0  0  0  0
    0.4795   21.9411  -19.3466 N   0  0  0  0  0  0  0  0  0  0  0  0
    0.4994   21.0034  -19.7846 H   0  0  0  0  0  0  0  0  0  0  0  0
    1.4549   22.2551  -18.3313 C   0  0  0  0  0  0  0  0  0  0  0  0
    2.8066   22.3250  -18.9241 C   0  0  0  0  0  0  0  0  0  0  0  0
    3.0698   21.7089  -20.0191 O   0  0  0  0  0  0  0  0  0  0  0  0
    3.9334   23.0747  -18.3492 C   0  0  0  0  0  0  0  0  0  0  0  0
    5.2268   22.9684  -18.5619 N   0  0  0  0  0  0  0  0  0  0  0  0
    6.0715   23.7258  -17.9505 C   0  0  0  0  0  0  0  0  0  0  0  0
    5.5684   24.6511  -17.0644 C   0  0  0  0  0  0  0  0  0  0  0  0
    3.8869   24.3546  -17.1831 S   0  0  0  0  0  0  0  0  0  0  0  0
    1.3196   21.4823  -17.0948 C   0  0  0  0  0  0  0  0  0  0  0  0
    0.1395   21.6370  -16.2307 C   0  0  0  0  0  0  0  0  0  0  0  0
   -0.8708   20.5211  -16.2488 C   0  0  0  0  0  0  0  0  0  0  0  0
    0.6777   21.6571  -14.7815 C   0  0  0  0  0  0  0  0  0  0  0  0
   -4.4730   21.8284  -23.6748 N   0  0  0  0  0  0  0  0  0  0  0  0
   -4.8875   20.8814  -23.8239 H   0  0  0  0  0  0  0  0  0  0  0  0
   -4.9977   23.0250  -24.8203 S   0  0  0  0  0  0  0  0  0  0  0  0
   -4.9817   24.3782  -24.2016 O   0  0  0  0  0  0  0  0  0  0  0  0
   -6.4202   22.7365  -25.2383 O   0  0  0  0  0  0  0  0  0  0  0  0
   -4.0362   23.0187  -26.2565 C   0  0  0  0  0  0  0  0  0  0  0  0
   -4.5996   23.1906  -27.4853 C   0  0  0  0  0  0  0  0  0  0  0  0
   -3.8314   23.1852  -28.6221 C   0  0  0  0  0  0  0  0  0  0  0  0
   -2.4773   23.0077  -28.5610 C   0  0  0  0  0  0  0  0  0  0  0  0
   -1.8931   22.8326  -27.3271 C   0  0  0  0  0  0  0  0  0  0  0  0
   -0.0018   22.5736  -27.1452 Br  0  0  0  0  0  0  0  0  0  0  0  0
   -2.6653   22.8389  -26.1936 C   0  0  0  0  0  0  0  0  0  0  0  0
 14 15  1  0  0  0
 15 12  1  0  0  0
 12 13  2  0  0  0
 12  7  1  0  0  0
  7  8  2  0  0  0
  8  9  1  0  0  0
  9 10  1  0  0  0
 10 11  2  0  0  0
 10  1  1  0  0  0
  1  2  2  0  0  0
  2  3  1  0  0  0
  3  4  2  0  0  0
  4  5  1  0  0  0
  5  6  2  0  0  0
  6 32  1  0  0  0
 32 34  1  0  0  0
 34 35  2  0  0  0
 34 36  2  0  0  0
 34 37  1  0  0  0
 37 38  2  0  0  0
 38 39  1  0  0  0
 39 40  2  0  0  0
 40 41  1  0  0  0
 41 42  1  0  0  0
 41 43  2  0  0  0
  3 16  1  0  0  0
 16 17  2  0  0  0
 16 18  1  0  0  0
 18 20  1  0  0  0
 20 28  1  0  0  0
 28 29  1  0  0  0
 29 30  1  0  0  0
 29 31  1  0  0  0
 20 21  1  0  0  0
 21 22  2  0  0  0
 21 23  1  0  0  0
 23 24  2  0  0  0
 24 25  1  0  0  0
 25 26  2  0  0  0
 26 27  1  0  0  0
 11  7  1  0  0  0
  6  1  1  0  0  0
 43 37  1  0  0  0
 27 23  1  0  0  0
 32 33  1  0  0  0
 18 19  1  0  0  0
M  END
> <minimizedAffinity>
-7.92463

> <CNNscore>
0.1387436092

> <CNNaffinity>
6.2120227814

> <CNN_VS>
0.8618784547

> <CNNaffinity_variance>
1.0984543562

$$$$
[H]c1nc(C(=O)[C@@]([H])(N([H])C(=O)c2c([H])c([H])c(N([H])S(=O)(=O)c3c([H])c([H])c([H])c(Br)c3[H])c(-c3sc([H])c(C(=O)OC([H])([H])[H])c3[H])c2[H])C([H])([H])C([H])(C([H])([H])[H])C([H])([H])[H])sc1[H]


 43 46  0  0  0  0  0  0  0  0999 V2000
   -3.1536   22.2067  -21.7549 C   0  0  0  0  0  0  0  0  0  0  0  0
   -3.6465   22.6443  -22.9535 C   0  0  0  0  0  0  0  0  0  0  0  0
   -2.9120   22.6315  -24.1339 C   0  0  0  0  0  0  0  0  0  0  0  0
   -1.6345   22.1427  -24.0212 C   0  0  0  0  0  0  0  0  0  0  0  0
   -1.1115   21.6974  -22.8295 C   0  0  0  0  0  0  0  0  0  0  0  0
   -1.8788   21.7220  -21.6431 C   0  0  0  0  0  0  0  0  0  0  0  0
   -5.4502   23.1523  -18.9628 C   0  0  0  0  0  0  0  0  0  0  0  0
   -5.4525   21.9061  -18.3939 C   0  0  0  0  0  0  0  0  0  0  0  0
   -4.4305   21.0200  -19.4262 S   0  0  0  0  0  0  0  0  0  0  0  0
   -4.0238   22.2265  -20.5454 C   0  0  0  0  0  0  0  0  0  0  0  0
   -4.7153   23.3173  -20.0699 C   0  0  0  0  0  0  0  0  0  0  0  0
   -6.2478   24.2526  -18.3476 C   0  0  0  0  0  0  0  0  0  0  0  0
   -5.6949   25.1491  -17.6760 O   0  0  0  0  0  0  0  0  0  0  0  0
   -8.2044   24.2697  -19.7727 C   0  0  0  0  0  0  0  0  0  0  0  0
   -7.6223   24.3337  -18.4873 O   0  0  0  0  0  0  0  0  0  0  0  0
   -3.4643   23.1148  -25.3828 C   0  0  0  0  0  0  0  0  0  0  0  0
   -3.8756   22.2360  -26.2134 O   0  0  0  0  0  0  0  0  0  0  0  0
   -3.5658   24.4589  -25.7158 N   0  0  0  0  0  0  0  0  0  0  0  0
   -3.2369   25.1883  -25.0589 H   0  0  0  0  0  0  0  0  0  0  0  0
   -4.1323   24.8649  -26.9786 C   0  0  0  0  0  0  0  0  0  0  0  0
   -5.3649   25.6497  -26.7581 C   0  0  0  0  0  0  0  0  0  0  0  0
   -5.7366   26.5319  -27.6134 O   0  0  0  0  0  0  0  0  0  0  0  0
   -6.2509   25.5042  -25.5937 C   0  0  0  0  0  0  0  0  0  0  0  0
   -6.1118   25.9288  -24.3568 N   0  0  0  0  0  0  0  0  0  0  0  0
   -7.0106   25.6963  -23.4628 C   0  0  0  0  0  0  0  0  0  0  0  0
   -8.1231   24.9853  -23.8517 C   0  0  0  0  0  0  0  0  0  0  0  0
   -7.7835   24.7021  -25.5051 S   0  0  0  0  0  0  0  0  0  0  0  0
   -4.2007   23.8046  -27.9862 C   0  0  0  0  0  0  0  0  0  0  0  0
   -5.0671   23.9374  -29.1674 C   0  0  0  0  0  0  0  0  0  0  0  0
   -4.5990   24.8653  -30.2565 C   0  0  0  0  0  0  0  0  0  0  0  0
   -5.0974   22.5396  -29.8274 C   0  0  0  0  0  0  0  0  0  0  0  0
   -1.2624   21.2940  -20.4327 N   0  0  0  0  0  0  0  0  0  0  0  0
   -1.1872   20.2978  -20.1283 H   0  0  0  0  0  0  0  0  0  0  0  0
   -0.6108   22.4375  -19.2981 S   0  0  0  0  0  0  0  0  0  0  0  0
   -1.2062   22.2285  -17.9505 O   0  0  0  0  0  0  0  0  0  0  0  0
   -0.9620   23.8402  -19.7344 O   0  0  0  0  0  0  0  0  0  0  0  0
    1.1130   22.3527  -19.2038 C   0  0  0  0  0  0  0  0  0  0  0  0
    1.8150   21.4237  -19.9118 C   0  0  0  0  0  0  0  0  0  0  0  0
    3.1833   21.3613  -19.8333 C   0  0  0  0  0  0  0  0  0  0  0  0
    3.8878   22.2271  -19.0442 C   0  0  0  0  0  0  0  0  0  0  0  0
    3.1931   23.1713  -18.3227 C   0  0  0  0  0  0  0  0  0  0  0  0
    4.0971   24.4246  -17.1872 Br  0  0  0  0  0  0  0  0  0  0  0  0
    1.8253   23.2297  -18.4044 C   0  0  0  0  0  0  0  0  0  0  0  0
 14 15  1  0  0  0
 15 12  1  0  0  0
 12 13  2  0  0  0
 12  7  1  0  0  0
  7  8  2  0  0  0
  8  9  1  0  0  0
  9 10  1  0  0  0
 10 11  2  0  0  0
 10  1  1  0  0  0
  1  2  2  0  0  0
  2  3  1  0  0  0
  3  4  2  0  0  0
  4  5  1  0  0  0
  5  6  2  0  0  0
  6 32  1  0  0  0
 32 34  1  0  0  0
 34 35  2  0  0  0
 34 36  2  0  0  0
 34 37  1  0  0  0
 37 38  2  0  0  0
 38 39  1  0  0  0
 39 40  2  0  0  0
 40 41  1  0  0  0
 41 42  1  0  0  0
 41 43  2  0  0  0
  3 16  1  0  0  0
 16 17  2  0  0  0
 16 18  1  0  0  0
 18 20  1  0  0  0
 20 28  1  0  0  0
 28 29  1  0  0  0
 29 30  1  0  0  0
 29 31  1  0  0  0
 20 21  1  0  0  0
 21 22  2  0  0  0
 21 23  1  0  0  0
 23 24  2  0  0  0
 24 25  1  0  0  0
 25 26  2  0  0  0
 26 27  1  0  0  0
 11  7  1  0  0  0
  6  1  1  0  0  0
 43 37  1  0  0  0
 27 23  1  0  0  0
 32 33  1  0  0  0
 18 19  1  0  0  0
M  END
> <minimizedAffinity>
-8.34133

> <CNNscore>
0.1270347536

> <CNNaffinity>
6.6715950966

> <CNN_VS>
0.8475244641

> <CNNaffinity_variance>
0.7288047671

$$$$
[H]c1nc(C(=O)[C@@]([H])(N([H])C(=O)c2c([H])c([H])c(N([H])S(=O)(=O)c3c([H])c([H])c([H])c(Br)c3[H])c(-c3sc([H])c(C(=O)OC([H])([H])[H])c3[H])c2[H])C([H])([H])C([H])(C([H])([H])[H])C([H])([H])[H])sc1[H]


 43 46  0  0  0  0  0  0  0  0999 V2000
   -4.9778   22.6704  -20.3838 C   0  0  0  0  0  0  0  0  0  0  0  0
   -5.7453   23.0053  -19.3022 C   0  0  0  0  0  0  0  0  0  0  0  0
   -5.4076   22.6797  -17.9935 C   0  0  0  0  0  0  0  0  0  0  0  0
   -4.2318   21.9865  -17.8492 C   0  0  0  0  0  0  0  0  0  0  0  0
   -3.4406   21.6347  -18.9180 C   0  0  0  0  0  0  0  0  0  0  0  0
   -3.8070   21.9769  -20.2392 C   0  0  0  0  0  0  0  0  0  0  0  0
   -5.7331   24.5560  -23.5203 C   0  0  0  0  0  0  0  0  0  0  0  0
   -6.2453   23.4711  -24.1817 C   0  0  0  0  0  0  0  0  0  0  0  0
   -6.0992   22.2263  -23.0308 S   0  0  0  0  0  0  0  0  0  0  0  0
   -5.4011   23.0895  -21.7497 C   0  0  0  0  0  0  0  0  0  0  0  0
   -5.2986   24.3598  -22.2692 C   0  0  0  0  0  0  0  0  0  0  0  0
   -5.6757   25.8827  -24.2000 C   0  0  0  0  0  0  0  0  0  0  0  0
   -6.6885   26.6098  -24.2767 O   0  0  0  0  0  0  0  0  0  0  0  0
   -4.5848   27.3243  -25.8097 C   0  0  0  0  0  0  0  0  0  0  0  0
   -4.5129   26.3677  -24.7729 O   0  0  0  0  0  0  0  0  0  0  0  0
   -6.2524   23.0413  -16.8737 C   0  0  0  0  0  0  0  0  0  0  0  0
   -7.5096   23.0996  -17.0910 O   0  0  0  0  0  0  0  0  0  0  0  0
   -5.7729   23.3231  -15.6015 N   0  0  0  0  0  0  0  0  0  0  0  0
   -4.7576   23.2840  -15.4031 H   0  0  0  0  0  0  0  0  0  0  0  0
   -6.6772   23.6722  -14.5333 C   0  0  0  0  0  0  0  0  0  0  0  0
   -6.5707   25.1129  -14.2226 C   0  0  0  0  0  0  0  0  0  0  0  0
   -5.9901   25.9140  -15.0406 O   0  0  0  0  0  0  0  0  0  0  0  0
   -7.0969   25.7460  -13.0043 C   0  0  0  0  0  0  0  0  0  0  0  0
   -6.4789   26.4090  -12.0514 N   0  0  0  0  0  0  0  0  0  0  0  0
   -7.1226   26.8940  -11.0457 C   0  0  0  0  0  0  0  0  0  0  0  0
   -8.4833   26.6910  -11.0058 C   0  0  0  0  0  0  0  0  0  0  0  0
   -8.7358   25.8023  -12.4465 S   0  0  0  0  0  0  0  0  0  0  0  0
   -6.6608   22.7521  -13.3943 C   0  0  0  0  0  0  0  0  0  0  0  0
   -7.7518   21.7884  -13.1838 C   0  0  0  0  0  0  0  0  0  0  0  0
   -8.9409   21.8923  -14.1011 C   0  0  0  0  0  0  0  0  0  0  0  0
   -7.1476   20.3962  -13.4789 C   0  0  0  0  0  0  0  0  0  0  0  0
   -2.9704   21.5396  -21.3055 N   0  0  0  0  0  0  0  0  0  0  0  0
   -3.1251   20.6667  -21.8576 H   0  0  0  0  0  0  0  0  0  0  0  0
   -1.5441   22.4244  -21.7550 S   0  0  0  0  0  0  0  0  0  0  0  0
   -0.3478   21.8635  -21.0703 O   0  0  0  0  0  0  0  0  0  0  0  0
   -1.6816   23.8634  -21.3170 O   0  0  0  0  0  0  0  0  0  0  0  0
   -1.2963   22.4367  -23.4655 C   0  0  0  0  0  0  0  0  0  0  0  0
   -0.0932   22.0976  -24.0081 C   0  0  0  0  0  0  0  0  0  0  0  0
    0.0977   22.1088  -25.3668 C   0  0  0  0  0  0  0  0  0  0  0  0
   -0.9104   22.4596  -26.2208 C   0  0  0  0  0  0  0  0  0  0  0  0
   -2.1317   22.8050  -25.6881 C   0  0  0  0  0  0  0  0  0  0  0  0
   -3.6023   23.3136  -26.8088 Br  0  0  0  0  0  0  0  0  0  0  0  0
   -2.3176   22.7922  -24.3294 C   0  0  0  0  0  0  0  0  0  0  0  0
 14 15  1  0  0  0
 15 12  1  0  0  0
 12 13  2  0  0  0
 12  7  1  0  0  0
  7  8  2  0  0  0
  8  9  1  0  0  0
  9 10  1  0  0  0
 10 11  2  0  0  0
 10  1  1  0  0  0
  1  2  2  0  0  0
  2  3  1  0  0  0
  3  4  2  0  0  0
  4  5  1  0  0  0
  5  6  2  0  0  0
  6 32  1  0  0  0
 32 34  1  0  0  0
 34 35  2  0  0  0
 34 36  2  0  0  0
 34 37  1  0  0  0
 37 38  2  0  0  0
 38 39  1  0  0  0
 39 40  2  0  0  0
 40 41  1  0  0  0
 41 42  1  0  0  0
 41 43  2  0  0  0
  3 16  1  0  0  0
 16 17  2  0  0  0
 16 18  1  0  0  0
 18 20  1  0  0  0
 20 28  1  0  0  0
 28 29  1  0  0  0
 29 30  1  0  0  0
 29 31  1  0  0  0
 20 21  1  0  0  0
 21 22  2  0  0  0
 21 23  1  0  0  0
 23 24  2  0  0  0
 24 25  1  0  0  0
 25 26  2  0  0  0
 26 27  1  0  0  0
 11  7  1  0  0  0
  6  1  1  0  0  0
 43 37  1  0  0  0
 27 23  1  0  0  0
 32 33  1  0  0  0
 18 19  1  0  0  0
M  END
> <minimizedAffinity>
-7.45228

> <CNNscore>
0.1207016185

> <CNNaffinity>
6.1607232094

> <CNN_VS>
0.7436092496

> <CNNaffinity_variance>
0.2086641043

$$$$
[H]c1nc(C(=O)[C@@]([H])(N([H])C(=O)c2c([H])c([H])c(N([H])S(=O)(=O)c3c([H])c([H])c([H])c(Br)c3[H])c(-c3sc([H])c(C(=O)OC([H])([H])[H])c3[H])c2[H])C([H])([H])C([H])(C([H])([H])[H])C([H])([H])[H])sc1[H]


 43 46  0  0  0  0  0  0  0  0999 V2000
   -5.3146   23.6669  -21.5042 C   0  0  0  0  0  0  0  0  0  0  0  0
   -5.7923   23.1829  -20.3173 C   0  0  0  0  0  0  0  0  0  0  0  0
   -6.5185   23.9509  -19.4141 C   0  0  0  0  0  0  0  0  0  0  0  0
   -6.7316   25.2526  -19.7936 C   0  0  0  0  0  0  0  0  0  0  0  0
   -6.2621   25.7673  -20.9796 C   0  0  0  0  0  0  0  0  0  0  0  0
   -5.5253   24.9657  -21.8804 C   0  0  0  0  0  0  0  0  0  0  0  0
   -2.7170   21.8813  -23.5111 C   0  0  0  0  0  0  0  0  0  0  0  0
   -3.6078   21.0376  -24.1204 C   0  0  0  0  0  0  0  0  0  0  0  0
   -5.0973   21.5183  -23.4529 S   0  0  0  0  0  0  0  0  0  0  0  0
   -4.5732   22.7622  -22.4273 C   0  0  0  0  0  0  0  0  0  0  0  0
   -3.2135   22.7686  -22.6399 C   0  0  0  0  0  0  0  0  0  0  0  0
   -1.2626   21.7830  -23.8284 C   0  0  0  0  0  0  0  0  0  0  0  0
   -0.8484   21.9324  -24.9974 O   0  0  0  0  0  0  0  0  0  0  0  0
   -0.5653   20.5493  -21.8660 C   0  0  0  0  0  0  0  0  0  0  0  0
   -0.3120   21.5239  -22.8565 O   0  0  0  0  0  0  0  0  0  0  0  0
   -6.9982   23.4063  -18.1604 C   0  0  0  0  0  0  0  0  0  0  0  0
   -6.7793   24.0952  -17.1074 O   0  0  0  0  0  0  0  0  0  0  0  0
   -7.6698   22.1962  -18.0485 N   0  0  0  0  0  0  0  0  0  0  0  0
   -7.8563   21.6202  -18.8882 H   0  0  0  0  0  0  0  0  0  0  0  0
   -8.1222   21.7200  -16.7643 C   0  0  0  0  0  0  0  0  0  0  0  0
   -7.4353   20.4592  -16.4148 C   0  0  0  0  0  0  0  0  0  0  0  0
   -6.5702   19.9464  -17.2126 O   0  0  0  0  0  0  0  0  0  0  0  0
   -7.6597   19.7014  -15.1748 C   0  0  0  0  0  0  0  0  0  0  0  0
   -7.5701   20.0759  -13.9173 N   0  0  0  0  0  0  0  0  0  0  0  0
   -7.8062   19.2530  -12.9540 C   0  0  0  0  0  0  0  0  0  0  0  0
   -8.1557   17.9651  -13.2911 C   0  0  0  0  0  0  0  0  0  0  0  0
   -8.1177   18.0401  -15.0006 S   0  0  0  0  0  0  0  0  0  0  0  0
   -9.5744   21.7495  -16.5791 C   0  0  0  0  0  0  0  0  0  0  0  0
  -10.4795   21.2099  -17.6052 C   0  0  0  0  0  0  0  0  0  0  0  0
  -11.5146   20.2168  -17.1484 C   0  0  0  0  0  0  0  0  0  0  0  0
  -11.2945   22.4164  -18.1253 C   0  0  0  0  0  0  0  0  0  0  0  0
   -5.0244   25.5719  -23.0677 N   0  0  0  0  0  0  0  0  0  0  0  0
   -4.0702   25.9858  -23.1621 H   0  0  0  0  0  0  0  0  0  0  0  0
   -6.0127   25.7267  -24.4885 S   0  0  0  0  0  0  0  0  0  0  0  0
   -6.4522   27.1375  -24.6640 O   0  0  0  0  0  0  0  0  0  0  0  0
   -7.2557   24.8823  -24.3352 O   0  0  0  0  0  0  0  0  0  0  0  0
   -5.1995   25.1780  -25.9115 C   0  0  0  0  0  0  0  0  0  0  0  0
   -4.1239   24.3449  -25.8344 C   0  0  0  0  0  0  0  0  0  0  0  0
   -3.4825   23.9122  -26.9675 C   0  0  0  0  0  0  0  0  0  0  0  0
   -3.8997   24.3010  -28.2099 C   0  0  0  0  0  0  0  0  0  0  0  0
   -4.9849   25.1426  -28.3045 C   0  0  0  0  0  0  0  0  0  0  0  0
   -5.6384   25.7423  -30.0046 Br  0  0  0  0  0  0  0  0  0  0  0  0
   -5.6227   25.5723  -27.1689 C   0  0  0  0  0  0  0  0  0  0  0  0
 14 15  1  0  0  0
 15 12  1  0  0  0
 12 13  2  0  0  0
 12  7  1  0  0  0
  7  8  2  0  0  0
  8  9  1  0  0  0
  9 10  1  0  0  0
 10 11  2  0  0  0
 10  1  1  0  0  0
  1  2  2  0  0  0
  2  3  1  0  0  0
  3  4  2  0  0  0
  4  5  1  0  0  0
  5  6  2  0  0  0
  6 32  1  0  0  0
 32 34  1  0  0  0
 34 35  2  0  0  0
 34 36  2  0  0  0
 34 37  1  0  0  0
 37 38  2  0  0  0
 38 39  1  0  0  0
 39 40  2  0  0  0
 40 41  1  0  0  0
 41 42  1  0  0  0
 41 43  2  0  0  0
  3 16  1  0  0  0
 16 17  2  0  0  0
 16 18  1  0  0  0
 18 20  1  0  0  0
 20 28  1  0  0  0
 28 29  1  0  0  0
 29 30  1  0  0  0
 29 31  1  0  0  0
 20 21  1  0  0  0
 21 22  2  0  0  0
 21 23  1  0  0  0
 23 24  2  0  0  0
 24 25  1  0  0  0
 25 26  2  0  0  0
 26 27  1  0  0  0
 11  7  1  0  0  0
  6  1  1  0  0  0
 43 37  1  0  0  0
 27 23  1  0  0  0
 32 33  1  0  0  0
 18 19  1  0  0  0
M  END
> <minimizedAffinity>
-6.94366

> <CNNscore>
0.1081076562

> <CNNaffinity>
6.5602464676

> <CNN_VS>
0.7092128992

> <CNNaffinity_variance>
0.2381637394

$$$$
[H]O[C@]1([H])[C@@]([H])(C([H])([H])OP(=O)(O[H])OP(=O)(O[H])O[H])O[C@@]([H])(n2c([H])nc3c(N([H])[H])nc([H])nc32)[C@]1([H])O[H]


 34 36  0  0  0  0  0  0  0  0999 V2000
   -3.2154   21.5210  -23.8074 C   0  0  0  0  0  0  0  0  0  0  0  0
   -4.3384   22.1561  -23.3164 O   0  0  0  0  0  0  0  0  0  0  0  0
   -3.9886   23.1687  -22.4670 C   0  0  0  0  0  0  0  0  0  0  0  0
   -2.4742   23.3611  -22.6451 C   0  0  0  0  0  0  0  0  0  0  0  0
   -1.8911   23.9115  -21.5399 O   0  0  0  0  0  0  0  0  0  0  0  0
   -2.1529   21.8648  -22.7870 C   0  0  0  0  0  0  0  0  0  0  0  0
   -2.5254   21.2821  -21.5822 O   0  0  0  0  0  0  0  0  0  0  0  0
   -1.0115   24.2831  -21.8048 H   0  0  0  0  0  0  0  0  0  0  0  0
   -2.3631   20.3064  -21.5807 H   0  0  0  0  0  0  0  0  0  0  0  0
   -0.8246   23.4890  -29.0068 N   0  0  0  0  0  0  0  0  0  0  0  0
   -0.6543   22.9026  -27.7249 C   0  0  0  0  0  0  0  0  0  0  0  0
    0.5503   22.5310  -27.2468 N   0  0  0  0  0  0  0  0  0  0  0  0
    0.6395   21.9819  -26.0251 C   0  0  0  0  0  0  0  0  0  0  0  0
   -0.4261   21.7809  -25.2433 N   0  0  0  0  0  0  0  0  0  0  0  0
   -1.6398   22.1316  -25.6712 C   0  0  0  0  0  0  0  0  0  0  0  0
   -2.8888   22.0546  -25.1165 N   0  0  0  0  0  0  0  0  0  0  0  0
   -3.7119   22.5704  -26.0398 C   0  0  0  0  0  0  0  0  0  0  0  0
   -3.0543   22.9650  -27.1368 N   0  0  0  0  0  0  0  0  0  0  0  0
   -1.7585   22.6971  -26.9213 C   0  0  0  0  0  0  0  0  0  0  0  0
   -0.9339   22.8566  -29.8243 H   0  0  0  0  0  0  0  0  0  0  0  0
   -0.8371   24.5226  -29.1047 H   0  0  0  0  0  0  0  0  0  0  0  0
   -4.7509   24.4375  -22.6264 C   0  0  0  0  0  0  0  0  0  0  0  0
   -4.9912   24.9352  -21.3263 O   0  0  0  0  0  0  0  0  0  0  0  0
   -6.5460   24.5496  -20.8098 P   0  0  0  0  0  0  0  0  0  0  0  0
   -7.0097   25.6711  -19.6158 O   0  0  0  0  0  0  0  0  0  0  0  0
   -7.5450   24.5533  -21.9391 O   0  0  0  0  0  0  0  0  0  0  0  0
   -6.4572   25.4582  -18.8054 H   0  0  0  0  0  0  0  0  0  0  0  0
   -6.5295   23.0297  -20.1035 O   0  0  0  0  0  0  0  0  0  0  0  0
   -7.6086   21.9572  -20.8112 P   0  0  0  0  0  0  0  0  0  0  0  0
   -9.1487   22.6820  -20.8106 O   0  0  0  0  0  0  0  0  0  0  0  0
   -7.1640   21.5995  -22.4050 O   0  0  0  0  0  0  0  0  0  0  0  0
   -7.7286   20.6611  -20.0670 O   0  0  0  0  0  0  0  0  0  0  0  0
   -9.0510   23.6782  -20.6986 H   0  0  0  0  0  0  0  0  0  0  0  0
   -7.9722   21.3623  -22.8967 H   0  0  0  0  0  0  0  0  0  0  0  0
 10 11  1  0  0  0
 11 12  2  0  0  0
 12 13  1  0  0  0
 13 14  2  0  0  0
 14 15  1  0  0  0
 15 16  1  0  0  0
 16 17  1  0  0  0
 17 18  2  0  0  0
 18 19  1  0  0  0
 16  1  1  0  0  0
  1  2  1  0  0  0
  2  3  1  0  0  0
  3 22  1  0  0  0
 22 23  1  0  0  0
 23 24  1  0  0  0
 24 25  1  0  0  0
 24 26  2  0  0  0
 24 28  1  0  0  0
 28 29  1  0  0  0
 29 30  1  0  0  0
 29 31  1  0  0  0
 29 32  2  0  0  0
  3  4  1  0  0  0
  4  5  1  0  0  0
  4  6  1  0  0  0
  6  7  1  0  0  0
 19 11  1  0  0  0
  6  1  1  0  0  0
 19 15  2  0  0  0
 10 20  1  0  0  0
 10 21  1  0  0  0
 25 27  1  0  0  0
 30 33  1  0  0  0
 31 34  1  0  0  0
  5  8  1  0  0  0
  7  9  1  0  0  0
M  END
> <minimizedAffinity>
-7.47614

> <CNNscore>
0.9361268878

> <CNNaffinity>
5.5616736412

> <CNN_VS>
5.2064323425

> <CNNaffinity_variance>
0.1347945482

$$$$
[H]O[C@]1([H])[C@@]([H])(C([H])([H])OP(=O)(O[H])OP(=O)(O[H])O[H])O[C@@]([H])(n2c([H])nc3c(N([H])[H])nc([H])nc32)[C@]1([H])O[H]


 34 36  0  0  0  0  0  0  0  0999 V2000
   -3.5737   21.6357  -24.1757 C   0  0  0  0  0  0  0  0  0  0  0  0
   -4.9249   21.9086  -24.1032 O   0  0  0  0  0  0  0  0  0  0  0  0
   -5.1496   23.0510  -23.3864 C   0  0  0  0  0  0  0  0  0  0  0  0
   -3.7736   23.7123  -23.2094 C   0  0  0  0  0  0  0  0  0  0  0  0
   -3.7273   24.5191  -22.1087 O   0  0  0  0  0  0  0  0  0  0  0  0
   -3.0059   22.3976  -22.9986 C   0  0  0  0  0  0  0  0  0  0  0  0
   -3.5312   21.8342  -21.8425 O   0  0  0  0  0  0  0  0  0  0  0  0
   -2.9557   25.1334  -22.2056 H   0  0  0  0  0  0  0  0  0  0  0  0
   -3.1014   20.9698  -21.6274 H   0  0  0  0  0  0  0  0  0  0  0  0
   -0.3965   23.4272  -29.0045 N   0  0  0  0  0  0  0  0  0  0  0  0
   -0.4305   22.8740  -27.6972 C   0  0  0  0  0  0  0  0  0  0  0  0
    0.6821   22.4993  -27.0344 N   0  0  0  0  0  0  0  0  0  0  0  0
    0.5775   21.9828  -25.7997 C   0  0  0  0  0  0  0  0  0  0  0  0
   -0.5966   21.8179  -25.1821 N   0  0  0  0  0  0  0  0  0  0  0  0
   -1.7261   22.1733  -25.7962 C   0  0  0  0  0  0  0  0  0  0  0  0
   -3.0452   22.1285  -25.4338 N   0  0  0  0  0  0  0  0  0  0  0  0
   -3.7115   22.6300  -26.4829 C   0  0  0  0  0  0  0  0  0  0  0  0
   -2.8901   22.9853  -27.4782 N   0  0  0  0  0  0  0  0  0  0  0  0
   -1.6462   22.7058  -27.0637 C   0  0  0  0  0  0  0  0  0  0  0  0
   -0.3932   22.7742  -29.8130 H   0  0  0  0  0  0  0  0  0  0  0  0
   -0.3760   24.4578  -29.1291 H   0  0  0  0  0  0  0  0  0  0  0  0
   -6.1642   23.9806  -23.9545 C   0  0  0  0  0  0  0  0  0  0  0  0
   -6.1389   25.1477  -23.1589 O   0  0  0  0  0  0  0  0  0  0  0  0
   -7.4544   25.1926  -22.1101 P   0  0  0  0  0  0  0  0  0  0  0  0
   -7.5380   26.7458  -21.4180 O   0  0  0  0  0  0  0  0  0  0  0  0
   -8.7533   24.8637  -22.8017 O   0  0  0  0  0  0  0  0  0  0  0  0
   -6.7602   26.8107  -20.7870 H   0  0  0  0  0  0  0  0  0  0  0  0
   -7.2059   24.0937  -20.8692 O   0  0  0  0  0  0  0  0  0  0  0  0
   -8.5719   23.8326  -19.9303 P   0  0  0  0  0  0  0  0  0  0  0  0
   -8.0629   23.5001  -18.3405 O   0  0  0  0  0  0  0  0  0  0  0  0
   -9.5788   25.1934  -19.9177 O   0  0  0  0  0  0  0  0  0  0  0  0
   -9.3893   22.6618  -20.3878 O   0  0  0  0  0  0  0  0  0  0  0  0
   -7.1214   23.8345  -18.2125 H   0  0  0  0  0  0  0  0  0  0  0  0
  -10.0832   25.1866  -19.0831 H   0  0  0  0  0  0  0  0  0  0  0  0
 10 11  1  0  0  0
 11 12  2  0  0  0
 12 13  1  0  0  0
 13 14  2  0  0  0
 14 15  1  0  0  0
 15 16  1  0  0  0
 16 17  1  0  0  0
 17 18  2  0  0  0
 18 19  1  0  0  0
 16  1  1  0  0  0
  1  2  1  0  0  0
  2  3  1  0  0  0
  3 22  1  0  0  0
 22 23  1  0  0  0
 23 24  1  0  0  0
 24 25  1  0  0  0
 24 26  2  0  0  0
 24 28  1  0  0  0
 28 29  1  0  0  0
 29 30  1  0  0  0
 29 31  1  0  0  0
 29 32  2  0  0  0
  3  4  1  0  0  0
  4  5  1  0  0  0
  4  6  1  0  0  0
  6  7  1  0  0  0
 19 11  1  0  0  0
  6  1  1  0  0  0
 19 15  2  0  0  0
 10 20  1  0  0  0
 10 21  1  0  0  0
 25 27  1  0  0  0
 30 33  1  0  0  0
 31 34  1  0  0  0
  5  8  1  0  0  0
  7  9  1  0  0  0
M  END
> <minimizedAffinity>
-7.23396

> <CNNscore>
0.8865140080

> <CNNaffinity>
5.5561904907

> <CNN_VS>
4.9256405830

> <CNNaffinity_variance>
0.1126720756

$$$$
[H]O[C@]1([H])[C@@]([H])(C([H])([H])OP(=O)(O[H])OP(=O)(O[H])O[H])O[C@@]([H])(n2c([H])nc3c(N([H])[H])nc([H])nc32)[C@]1([H])O[H]


 34 36  0  0  0  0  0  0  0  0999 V2000
   -3.4272   21.1860  -23.3368 C   0  0  0  0  0  0  0  0  0  0  0  0
   -4.7943   21.1712  -23.1458 O   0  0  0  0  0  0  0  0  0  0  0  0
   -5.1955   22.2704  -22.4387 C   0  0  0  0  0  0  0  0  0  0  0  0
   -3.9825   23.2136  -22.4059 C   0  0  0  0  0  0  0  0  0  0  0  0
   -4.0155   24.0586  -21.3339 O   0  0  0  0  0  0  0  0  0  0  0  0
   -2.9366   22.1003  -22.2360 C   0  0  0  0  0  0  0  0  0  0  0  0
   -3.2286   21.4892  -21.0231 O   0  0  0  0  0  0  0  0  0  0  0  0
   -3.4041   24.8168  -21.5165 H   0  0  0  0  0  0  0  0  0  0  0  0
   -2.6073   20.7447  -20.8281 H   0  0  0  0  0  0  0  0  0  0  0  0
   -1.1272   23.2923  -28.5229 N   0  0  0  0  0  0  0  0  0  0  0  0
   -0.9282   22.7542  -27.2240 C   0  0  0  0  0  0  0  0  0  0  0  0
    0.2965   22.5245  -26.7092 N   0  0  0  0  0  0  0  0  0  0  0  0
    0.4123   22.0135  -25.4732 C   0  0  0  0  0  0  0  0  0  0  0  0
   -0.6456   21.7151  -24.7123 N   0  0  0  0  0  0  0  0  0  0  0  0
   -1.8783   21.9241  -25.1767 C   0  0  0  0  0  0  0  0  0  0  0  0
   -3.1258   21.7245  -24.6499 N   0  0  0  0  0  0  0  0  0  0  0  0
   -3.9753   22.1296  -25.6041 C   0  0  0  0  0  0  0  0  0  0  0  0
   -3.3356   22.5700  -26.6942 N   0  0  0  0  0  0  0  0  0  0  0  0
   -2.0246   22.4477  -26.4420 C   0  0  0  0  0  0  0  0  0  0  0  0
   -1.1469   22.6351  -29.3278 H   0  0  0  0  0  0  0  0  0  0  0  0
   -1.2478   24.3163  -28.6451 H   0  0  0  0  0  0  0  0  0  0  0  0
   -6.4301   22.9403  -22.9322 C   0  0  0  0  0  0  0  0  0  0  0  0
   -6.0289   24.1735  -23.4927 O   0  0  0  0  0  0  0  0  0  0  0  0
   -7.3530   25.1808  -23.7470 P   0  0  0  0  0  0  0  0  0  0  0  0
   -6.8098   26.7942  -23.7449 O   0  0  0  0  0  0  0  0  0  0  0  0
   -8.0673   24.8769  -25.0397 O   0  0  0  0  0  0  0  0  0  0  0  0
   -6.5630   27.0027  -22.7947 H   0  0  0  0  0  0  0  0  0  0  0  0
   -8.4308   25.0035  -22.4757 O   0  0  0  0  0  0  0  0  0  0  0  0
   -7.9794   25.8512  -21.0997 P   0  0  0  0  0  0  0  0  0  0  0  0
   -8.6575   25.0655  -19.7507 O   0  0  0  0  0  0  0  0  0  0  0  0
   -6.2957   25.8944  -20.9287 O   0  0  0  0  0  0  0  0  0  0  0  0
   -8.4780   27.2652  -21.0858 O   0  0  0  0  0  0  0  0  0  0  0  0
   -8.8998   24.1200  -19.9994 H   0  0  0  0  0  0  0  0  0  0  0  0
   -6.0921   25.9841  -19.9792 H   0  0  0  0  0  0  0  0  0  0  0  0
 10 11  1  0  0  0
 11 12  2  0  0  0
 12 13  1  0  0  0
 13 14  2  0  0  0
 14 15  1  0  0  0
 15 16  1  0  0  0
 16 17  1  0  0  0
 17 18  2  0  0  0
 18 19  1  0  0  0
 16  1  1  0  0  0
  1  2  1  0  0  0
  2  3  1  0  0  0
  3 22  1  0  0  0
 22 23  1  0  0  0
 23 24  1  0  0  0
 24 25  1  0  0  0
 24 26  2  0  0  0
 24 28  1  0  0  0
 28 29  1  0  0  0
 29 30  1  0  0  0
 29 31  1  0  0  0
 29 32  2  0  0  0
  3  4  1  0  0  0
  4  5  1  0  0  0
  4  6  1  0  0  0
  6  7  1  0  0  0
 19 11  1  0  0  0
  6  1  1  0  0  0
 19 15  2  0  0  0
 10 20  1  0  0  0
 10 21  1  0  0  0
 25 27  1  0  0  0
 30 33  1  0  0  0
 31 34  1  0  0  0
  5  8  1  0  0  0
  7  9  1  0  0  0
M  END
> <minimizedAffinity>
-7.46070

> <CNNscore>
0.7630593181

> <CNNaffinity>
5.2942237854

> <CNN_VS>
4.0398068428

> <CNNaffinity_variance>
0.2399907112

$$$$
[H]O[C@]1([H])[C@@]([H])(C([H])([H])OP(=O)(O[H])OP(=O)(O[H])O[H])O[C@@]([H])(n2c([H])nc3c(N([H])[H])nc([H])nc32)[C@]1([H])O[H]


 34 36  0  0  0  0  0  0  0  0999 V2000
   -3.5251   21.4039  -24.0312 C   0  0  0  0  0  0  0  0  0  0  0  0
   -4.8532   21.7527  -23.8892 O   0  0  0  0  0  0  0  0  0  0  0  0
   -4.9782   22.8774  -23.1218 C   0  0  0  0  0  0  0  0  0  0  0  0
   -3.5585   23.4491  -22.9815 C   0  0  0  0  0  0  0  0  0  0  0  0
   -3.4175   24.2079  -21.8550 O   0  0  0  0  0  0  0  0  0  0  0  0
   -2.8636   22.0842  -22.8531 C   0  0  0  0  0  0  0  0  0  0  0  0
   -3.3733   21.5078  -21.6965 O   0  0  0  0  0  0  0  0  0  0  0  0
   -2.6149   24.7791  -21.9632 H   0  0  0  0  0  0  0  0  0  0  0  0
   -2.9879   20.6118  -21.5323 H   0  0  0  0  0  0  0  0  0  0  0  0
   -0.4368   23.3333  -28.8646 N   0  0  0  0  0  0  0  0  0  0  0  0
   -0.4441   22.7947  -27.5508 C   0  0  0  0  0  0  0  0  0  0  0  0
    0.6857   22.4985  -26.8774 N   0  0  0  0  0  0  0  0  0  0  0  0
    0.6061   21.9913  -25.6370 C   0  0  0  0  0  0  0  0  0  0  0  0
   -0.5592   21.7605  -25.0238 N   0  0  0  0  0  0  0  0  0  0  0  0
   -1.7049   22.0369  -25.6483 C   0  0  0  0  0  0  0  0  0  0  0  0
   -3.0208   21.9138  -25.2924 N   0  0  0  0  0  0  0  0  0  0  0  0
   -3.7107   22.3599  -26.3513 C   0  0  0  0  0  0  0  0  0  0  0  0
   -2.9072   22.7541  -27.3464 N   0  0  0  0  0  0  0  0  0  0  0  0
   -1.6507   22.5581  -26.9218 C   0  0  0  0  0  0  0  0  0  0  0  0
   -0.3876   22.6721  -29.6649 H   0  0  0  0  0  0  0  0  0  0  0  0
   -0.4801   24.3616  -29.0018 H   0  0  0  0  0  0  0  0  0  0  0  0
   -5.9576   23.8867  -23.6101 C   0  0  0  0  0  0  0  0  0  0  0  0
   -5.2212   24.8565  -24.3262 O   0  0  0  0  0  0  0  0  0  0  0  0
   -6.2389   26.0281  -24.9778 P   0  0  0  0  0  0  0  0  0  0  0  0
   -7.4290   26.4100  -23.8218 O   0  0  0  0  0  0  0  0  0  0  0  0
   -5.4947   27.2745  -25.3855 O   0  0  0  0  0  0  0  0  0  0  0  0
   -8.0320   25.6094  -23.7693 H   0  0  0  0  0  0  0  0  0  0  0  0
   -7.0166   25.3954  -26.3209 O   0  0  0  0  0  0  0  0  0  0  0  0
   -5.9973   25.1748  -27.6354 P   0  0  0  0  0  0  0  0  0  0  0  0
   -4.4065   25.5085  -27.1304 O   0  0  0  0  0  0  0  0  0  0  0  0
   -6.0745   23.5856  -28.2137 O   0  0  0  0  0  0  0  0  0  0  0  0
   -6.3008   26.0943  -28.7802 O   0  0  0  0  0  0  0  0  0  0  0  0
   -4.3536   25.4497  -26.1262 H   0  0  0  0  0  0  0  0  0  0  0  0
   -5.2218   23.3788  -28.6394 H   0  0  0  0  0  0  0  0  0  0  0  0
 10 11  1  0  0  0
 11 12  2  0  0  0
 12 13  1  0  0  0
 13 14  2  0  0  0
 14 15  1  0  0  0
 15 16  1  0  0  0
 16 17  1  0  0  0
 17 18  2  0  0  0
 18 19  1  0  0  0
 16  1  1  0  0  0
  1  2  1  0  0  0
  2  3  1  0  0  0
  3 22  1  0  0  0
 22 23  1  0  0  0
 23 24  1  0  0  0
 24 25  1  0  0  0
 24 26  2  0  0  0
 24 28  1  0  0  0
 28 29  1  0  0  0
 29 30  1  0  0  0
 29 31  1  0  0  0
 29 32  2  0  0  0
  3  4  1  0  0  0
  4  5  1  0  0  0
  4  6  1  0  0  0
  6  7  1  0  0  0
 19 11  1  0  0  0
  6  1  1  0  0  0
 19 15  2  0  0  0
 10 20  1  0  0  0
 10 21  1  0  0  0
 25 27  1  0  0  0
 30 33  1  0  0  0
 31 34  1  0  0  0
  5  8  1  0  0  0
  7  9  1  0  0  0
M  END
> <minimizedAffinity>
-7.99770

> <CNNscore>
0.7480317950

> <CNNaffinity>
5.2727727890

> <CNN_VS>
3.9442017078

> <CNNaffinity_variance>
0.4733933508

$$$$
[H]O[C@]1([H])[C@@]([H])(C([H])([H])OP(=O)(O[H])OP(=O)(O[H])O[H])O[C@@]([H])(n2c([H])nc3c(N([H])[H])nc([H])nc32)[C@]1([H])O[H]


 34 36  0  0  0  0  0  0  0  0999 V2000
   -4.2312   23.7573  -25.2828 C   0  0  0  0  0  0  0  0  0  0  0  0
   -4.7799   24.6627  -24.3968 O   0  0  0  0  0  0  0  0  0  0  0  0
   -5.6735   24.0455  -23.5663 C   0  0  0  0  0  0  0  0  0  0  0  0
   -5.4722   22.5370  -23.7806 C   0  0  0  0  0  0  0  0  0  0  0  0
   -6.5917   21.8187  -23.4719 O   0  0  0  0  0  0  0  0  0  0  0  0
   -5.2445   22.6342  -25.2975 C   0  0  0  0  0  0  0  0  0  0  0  0
   -6.4248   23.1422  -25.8252 O   0  0  0  0  0  0  0  0  0  0  0  0
   -6.3273   20.8731  -23.3374 H   0  0  0  0  0  0  0  0  0  0  0  0
   -6.3714   23.2504  -26.8069 H   0  0  0  0  0  0  0  0  0  0  0  0
    1.3844   21.7490  -24.2561 N   0  0  0  0  0  0  0  0  0  0  0  0
    0.3523   22.0861  -25.1713 C   0  0  0  0  0  0  0  0  0  0  0  0
    0.4969   21.9755  -26.5072 N   0  0  0  0  0  0  0  0  0  0  0  0
   -0.5206   22.3120  -27.3156 C   0  0  0  0  0  0  0  0  0  0  0  0
   -1.6926   22.7600  -26.8543 N   0  0  0  0  0  0  0  0  0  0  0  0
   -1.8849   22.8872  -25.5406 C   0  0  0  0  0  0  0  0  0  0  0  0
   -2.9451   23.3076  -24.7839 N   0  0  0  0  0  0  0  0  0  0  0  0
   -2.5268   23.2103  -23.5144 C   0  0  0  0  0  0  0  0  0  0  0  0
   -1.2710   22.7549  -23.4313 N   0  0  0  0  0  0  0  0  0  0  0  0
   -0.8566   22.5486  -24.6895 C   0  0  0  0  0  0  0  0  0  0  0  0
    2.0906   22.4755  -24.0247 H   0  0  0  0  0  0  0  0  0  0  0  0
    1.4158   20.7982  -23.8401 H   0  0  0  0  0  0  0  0  0  0  0  0
   -5.5982   24.4364  -22.1318 C   0  0  0  0  0  0  0  0  0  0  0  0
   -6.7746   25.1641  -21.8449 O   0  0  0  0  0  0  0  0  0  0  0  0
   -7.0596   25.2228  -20.1872 P   0  0  0  0  0  0  0  0  0  0  0  0
   -7.6188   23.6958  -19.6831 O   0  0  0  0  0  0  0  0  0  0  0  0
   -5.8291   25.6073  -19.4051 O   0  0  0  0  0  0  0  0  0  0  0  0
   -8.5462   23.6031  -20.0555 H   0  0  0  0  0  0  0  0  0  0  0  0
   -8.2716   26.3381  -19.8769 O   0  0  0  0  0  0  0  0  0  0  0  0
   -9.6433   26.1058  -20.8150 P   0  0  0  0  0  0  0  0  0  0  0  0
   -9.5987   24.5194  -21.4299 O   0  0  0  0  0  0  0  0  0  0  0  0
  -11.0544   26.3077  -19.9016 O   0  0  0  0  0  0  0  0  0  0  0  0
   -9.7209   27.0344  -21.9897 O   0  0  0  0  0  0  0  0  0  0  0  0
   -8.9706   23.9613  -20.8743 H   0  0  0  0  0  0  0  0  0  0  0  0
  -11.7576   25.7711  -20.3121 H   0  0  0  0  0  0  0  0  0  0  0  0
 10 11  1  0  0  0
 11 12  2  0  0  0
 12 13  1  0  0  0
 13 14  2  0  0  0
 14 15  1  0  0  0
 15 16  1  0  0  0
 16 17  1  0  0  0
 17 18  2  0  0  0
 18 19  1  0  0  0
 16  1  1  0  0  0
  1  2  1  0  0  0
  2  3  1  0  0  0
  3 22  1  0  0  0
 22 23  1  0  0  0
 23 24  1  0  0  0
 24 25  1  0  0  0
 24 26  2  0  0  0
 24 28  1  0  0  0
 28 29  1  0  0  0
 29 30  1  0  0  0
 29 31  1  0  0  0
 29 32  2  0  0  0
  3  4  1  0  0  0
  4  5  1  0  0  0
  4  6  1  0  0  0
  6  7  1  0  0  0
 19 11  1  0  0  0
  6  1  1  0  0  0
 19 15  2  0  0  0
 10 20  1  0  0  0
 10 21  1  0  0  0
 25 27  1  0  0  0
 30 33  1  0  0  0
 31 34  1  0  0  0
  5  8  1  0  0  0
  7  9  1  0  0  0
M  END
> <minimizedAffinity>
-7.14779

> <CNNscore>
0.6919832826

> <CNNaffinity>
5.3184447289

> <CNN_VS>
3.6802747250

> <CNNaffinity_variance>
0.1163450927

$$$$
[H]O[C@]1([H])[C@@]([H])(C([H])([H])OP(=O)(O[H])OP(=O)(O[H])O[H])O[C@@]([H])(n2c([H])nc3c(N([H])[H])nc([H])nc32)[C@]1([H])O[H]


 34 36  0  0  0  0  0  0  0  0999 V2000
   -4.4438   23.9091  -24.1671 C   0  0  0  0  0  0  0  0  0  0  0  0
   -5.0549   23.9667  -22.9307 O   0  0  0  0  0  0  0  0  0  0  0  0
   -5.8446   22.8688  -22.7301 C   0  0  0  0  0  0  0  0  0  0  0  0
   -5.4880   21.8846  -23.8554 C   0  0  0  0  0  0  0  0  0  0  0  0
   -6.5102   21.0215  -24.1285 O   0  0  0  0  0  0  0  0  0  0  0  0
   -5.3283   22.9586  -24.9433 C   0  0  0  0  0  0  0  0  0  0  0  0
   -6.5757   23.5567  -25.0701 O   0  0  0  0  0  0  0  0  0  0  0  0
   -6.1394   20.2466  -24.6225 H   0  0  0  0  0  0  0  0  0  0  0  0
   -6.5706   24.2760  -25.7490 H   0  0  0  0  0  0  0  0  0  0  0  0
    1.1676   21.6947  -24.6468 N   0  0  0  0  0  0  0  0  0  0  0  0
   -0.0287   22.1444  -25.2656 C   0  0  0  0  0  0  0  0  0  0  0  0
   -0.1936   22.1686  -26.6034 N   0  0  0  0  0  0  0  0  0  0  0  0
   -1.3517   22.6065  -27.1222 C   0  0  0  0  0  0  0  0  0  0  0  0
   -2.3695   23.0280  -26.3648 N   0  0  0  0  0  0  0  0  0  0  0  0
   -2.2553   23.0235  -25.0359 C   0  0  0  0  0  0  0  0  0  0  0  0
   -3.0988   23.3851  -24.0205 N   0  0  0  0  0  0  0  0  0  0  0  0
   -2.4098   23.1497  -22.8953 C   0  0  0  0  0  0  0  0  0  0  0  0
   -1.1882   22.6633  -23.1451 N   0  0  0  0  0  0  0  0  0  0  0  0
   -1.0770   22.5789  -24.4785 C   0  0  0  0  0  0  0  0  0  0  0  0
    1.9382   22.3794  -24.5146 H   0  0  0  0  0  0  0  0  0  0  0  0
    1.2513   20.7058  -24.3416 H   0  0  0  0  0  0  0  0  0  0  0  0
   -5.7596   22.2504  -21.3786 C   0  0  0  0  0  0  0  0  0  0  0  0
   -5.0680   23.1655  -20.5540 O   0  0  0  0  0  0  0  0  0  0  0  0
   -4.4982   22.4122  -19.1609 P   0  0  0  0  0  0  0  0  0  0  0  0
   -5.6180   21.2154  -18.7002 O   0  0  0  0  0  0  0  0  0  0  0  0
   -3.1350   21.7980  -19.3554 O   0  0  0  0  0  0  0  0  0  0  0  0
   -6.4254   21.7063  -18.3618 H   0  0  0  0  0  0  0  0  0  0  0  0
   -4.4155   23.5378  -17.9219 O   0  0  0  0  0  0  0  0  0  0  0  0
   -5.8691   24.3296  -17.6464 P   0  0  0  0  0  0  0  0  0  0  0  0
   -6.1704   25.3543  -18.9717 O   0  0  0  0  0  0  0  0  0  0  0  0
   -7.1480   23.2313  -17.4917 O   0  0  0  0  0  0  0  0  0  0  0  0
   -5.8514   25.1884  -16.4174 O   0  0  0  0  0  0  0  0  0  0  0  0
   -5.6224   25.0523  -19.7610 H   0  0  0  0  0  0  0  0  0  0  0  0
   -7.9677   23.6837  -17.7647 H   0  0  0  0  0  0  0  0  0  0  0  0
 10 11  1  0  0  0
 11 12  2  0  0  0
 12 13  1  0  0  0
 13 14  2  0  0  0
 14 15  1  0  0  0
 15 16  1  0  0  0
 16 17  1  0  0  0
 17 18  2  0  0  0
 18 19  1  0  0  0
 16  1  1  0  0  0
  1  2  1  0  0  0
  2  3  1  0  0  0
  3 22  1  0  0  0
 22 23  1  0  0  0
 23 24  1  0  0  0
 24 25  1  0  0  0
 24 26  2  0  0  0
 24 28  1  0  0  0
 28 29  1  0  0  0
 29 30  1  0  0  0
 29 31  1  0  0  0
 29 32  2  0  0  0
  3  4  1  0  0  0
  4  5  1  0  0  0
  4  6  1  0  0  0
  6  7  1  0  0  0
 19 11  1  0  0  0
  6  1  1  0  0  0
 19 15  2  0  0  0
 10 20  1  0  0  0
 10 21  1  0  0  0
 25 27  1  0  0  0
 30 33  1  0  0  0
 31 34  1  0  0  0
  5  8  1  0  0  0
  7  9  1  0  0  0
M  END
> <minimizedAffinity>
-6.65022

> <CNNscore>
0.6817405224

> <CNNaffinity>
5.1154804230

> <CNN_VS>
3.4874303341

> <CNNaffinity_variance>
0.0812328160

$$$$
[H]O[C@]1([H])[C@@]([H])(C([H])([H])OP(=O)(O[H])OP(=O)(O[H])O[H])O[C@@]([H])(n2c([H])nc3c(N([H])[H])nc([H])nc32)[C@]1([H])O[H]


 34 36  0  0  0  0  0  0  0  0999 V2000
   -4.2084   23.7390  -24.8584 C   0  0  0  0  0  0  0  0  0  0  0  0
   -4.6648   24.6008  -23.8813 O   0  0  0  0  0  0  0  0  0  0  0  0
   -5.4783   23.9448  -22.9997 C   0  0  0  0  0  0  0  0  0  0  0  0
   -5.3068   22.4483  -23.3048 C   0  0  0  0  0  0  0  0  0  0  0  0
   -6.3955   21.7168  -22.9252 O   0  0  0  0  0  0  0  0  0  0  0  0
   -5.2247   22.6189  -24.8300 C   0  0  0  0  0  0  0  0  0  0  0  0
   -6.4473   23.1529  -25.2172 O   0  0  0  0  0  0  0  0  0  0  0  0
   -6.1247   20.7656  -22.8625 H   0  0  0  0  0  0  0  0  0  0  0  0
   -6.4874   23.3086  -26.1931 H   0  0  0  0  0  0  0  0  0  0  0  0
    1.4620   21.6609  -24.4721 N   0  0  0  0  0  0  0  0  0  0  0  0
    0.3462   22.0352  -25.2665 C   0  0  0  0  0  0  0  0  0  0  0  0
    0.3540   21.9684  -26.6131 N   0  0  0  0  0  0  0  0  0  0  0  0
   -0.7366   22.3384  -27.3028 C   0  0  0  0  0  0  0  0  0  0  0  0
   -1.8516   22.7784  -26.7108 N   0  0  0  0  0  0  0  0  0  0  0  0
   -1.9089   22.8627  -25.3809 C   0  0  0  0  0  0  0  0  0  0  0  0
   -2.8831   23.2645  -24.5074 N   0  0  0  0  0  0  0  0  0  0  0  0
   -2.3396   23.1220  -23.2906 C   0  0  0  0  0  0  0  0  0  0  0  0
   -1.0864   22.6559  -23.3501 N   0  0  0  0  0  0  0  0  0  0  0  0
   -0.8032   22.4891  -24.6499 C   0  0  0  0  0  0  0  0  0  0  0  0
    2.1951   22.3746  -24.2898 H   0  0  0  0  0  0  0  0  0  0  0  0
    1.5259   20.6965  -24.0928 H   0  0  0  0  0  0  0  0  0  0  0  0
   -5.2639   24.2656  -21.5618 C   0  0  0  0  0  0  0  0  0  0  0  0
   -6.5238   24.1692  -20.9301 O   0  0  0  0  0  0  0  0  0  0  0  0
   -6.3530   23.8344  -19.2895 P   0  0  0  0  0  0  0  0  0  0  0  0
   -5.0249   22.7882  -19.0895 O   0  0  0  0  0  0  0  0  0  0  0  0
   -6.1580   25.0817  -18.4650 O   0  0  0  0  0  0  0  0  0  0  0  0
   -5.3127   21.9006  -19.4591 H   0  0  0  0  0  0  0  0  0  0  0  0
   -7.7209   23.0323  -18.7468 O   0  0  0  0  0  0  0  0  0  0  0  0
   -8.2161   21.7978  -19.7698 P   0  0  0  0  0  0  0  0  0  0  0  0
   -9.4813   20.9549  -19.0044 O   0  0  0  0  0  0  0  0  0  0  0  0
   -8.7706   22.4092  -21.2478 O   0  0  0  0  0  0  0  0  0  0  0  0
   -7.1339   20.8022  -20.0627 O   0  0  0  0  0  0  0  0  0  0  0  0
   -9.8815   21.5326  -18.2828 H   0  0  0  0  0  0  0  0  0  0  0  0
   -9.4165   21.7756  -21.6120 H   0  0  0  0  0  0  0  0  0  0  0  0
 10 11  1  0  0  0
 11 12  2  0  0  0
 12 13  1  0  0  0
 13 14  2  0  0  0
 14 15  1  0  0  0
 15 16  1  0  0  0
 16 17  1  0  0  0
 17 18  2  0  0  0
 18 19  1  0  0  0
 16  1  1  0  0  0
  1  2  1  0  0  0
  2  3  1  0  0  0
  3 22  1  0  0  0
 22 23  1  0  0  0
 23 24  1  0  0  0
 24 25  1  0  0  0
 24 26  2  0  0  0
 24 28  1  0  0  0
 28 29  1  0  0  0
 29 30  1  0  0  0
 29 31  1  0  0  0
 29 32  2  0  0  0
  3  4  1  0  0  0
  4  5  1  0  0  0
  4  6  1  0  0  0
  6  7  1  0  0  0
 19 11  1  0  0  0
  6  1  1  0  0  0
 19 15  2  0  0  0
 10 20  1  0  0  0
 10 21  1  0  0  0
 25 27  1  0  0  0
 30 33  1  0  0  0
 31 34  1  0  0  0
  5  8  1  0  0  0
  7  9  1  0  0  0
M  END
> <minimizedAffinity>
-6.71994

> <CNNscore>
0.6417052746

> <CNNaffinity>
5.1027421951

> <CNN_VS>
3.2744565010

> <CNNaffinity_variance>
0.0763485283

$$$$
[H]O[C@]1([H])[C@@]([H])(C([H])([H])OP(=O)(O[H])OP(=O)(O[H])O[H])O[C@@]([H])(n2c([H])nc3c(N([H])[H])nc([H])nc32)[C@]1([H])O[H]


 34 36  0  0  0  0  0  0  0  0999 V2000
   -1.4921   21.0619  -23.1871 C   0  0  0  0  0  0  0  0  0  0  0  0
   -2.8320   21.3883  -23.1239 O   0  0  0  0  0  0  0  0  0  0  0  0
   -3.0247   22.4892  -22.3364 C   0  0  0  0  0  0  0  0  0  0  0  0
   -1.6264   23.0764  -22.0871 C   0  0  0  0  0  0  0  0  0  0  0  0
   -1.5717   23.8053  -20.9338 O   0  0  0  0  0  0  0  0  0  0  0  0
   -0.9203   21.7181  -21.9499 C   0  0  0  0  0  0  0  0  0  0  0  0
   -1.4957   21.1026  -20.8455 O   0  0  0  0  0  0  0  0  0  0  0  0
   -0.7727   24.3902  -20.9732 H   0  0  0  0  0  0  0  0  0  0  0  0
   -1.1080   20.2078  -20.6804 H   0  0  0  0  0  0  0  0  0  0  0  0
   -0.1110   23.3894  -28.5998 N   0  0  0  0  0  0  0  0  0  0  0  0
   -1.0854   22.9070  -27.6864 C   0  0  0  0  0  0  0  0  0  0  0  0
   -2.4011   22.8651  -27.9779 N   0  0  0  0  0  0  0  0  0  0  0  0
   -3.2686   22.3965  -27.0669 C   0  0  0  0  0  0  0  0  0  0  0  0
   -2.8868   21.9610  -25.8621 N   0  0  0  0  0  0  0  0  0  0  0  0
   -1.5962   21.9821  -25.5261 C   0  0  0  0  0  0  0  0  0  0  0  0
   -0.9141   21.6138  -24.3980 N   0  0  0  0  0  0  0  0  0  0  0  0
    0.3720   21.8767  -24.6677 C   0  0  0  0  0  0  0  0  0  0  0  0
    0.5356   22.3864  -25.8944 N   0  0  0  0  0  0  0  0  0  0  0  0
   -0.6855   22.4582  -26.4430 C   0  0  0  0  0  0  0  0  0  0  0  0
    0.0792   24.4109  -28.6190 H   0  0  0  0  0  0  0  0  0  0  0  0
    0.3871   22.7247  -29.2228 H   0  0  0  0  0  0  0  0  0  0  0  0
   -3.9856   23.4981  -22.8611 C   0  0  0  0  0  0  0  0  0  0  0  0
   -5.2548   23.1625  -22.3395 O   0  0  0  0  0  0  0  0  0  0  0  0
   -5.5921   24.0526  -20.9514 P   0  0  0  0  0  0  0  0  0  0  0  0
   -5.2988   25.6967  -21.2821 O   0  0  0  0  0  0  0  0  0  0  0  0
   -7.0114   23.8650  -20.4783 O   0  0  0  0  0  0  0  0  0  0  0  0
   -4.3026   25.7910  -21.3587 H   0  0  0  0  0  0  0  0  0  0  0  0
   -4.5453   23.5832  -19.7295 O   0  0  0  0  0  0  0  0  0  0  0  0
   -4.8166   22.0184  -19.1877 P   0  0  0  0  0  0  0  0  0  0  0  0
   -6.4466   21.9007  -18.7121 O   0  0  0  0  0  0  0  0  0  0  0  0
   -4.5104   20.8839  -20.4063 O   0  0  0  0  0  0  0  0  0  0  0  0
   -3.9805   21.6507  -17.9986 O   0  0  0  0  0  0  0  0  0  0  0  0
   -6.9748   22.6465  -19.1359 H   0  0  0  0  0  0  0  0  0  0  0  0
   -5.0603   20.0979  -20.2305 H   0  0  0  0  0  0  0  0  0  0  0  0
 10 11  1  0  0  0
 11 12  2  0  0  0
 12 13  1  0  0  0
 13 14  2  0  0  0
 14 15  1  0  0  0
 15 16  1  0  0  0
 16 17  1  0  0  0
 17 18  2  0  0  0
 18 19  1  0  0  0
 16  1  1  0  0  0
  1  2  1  0  0  0
  2  3  1  0  0  0
  3 22  1  0  0  0
 22 23  1  0  0  0
 23 24  1  0  0  0
 24 25  1  0  0  0
 24 26  2  0  0  0
 24 28  1  0  0  0
 28 29  1  0  0  0
 29 30  1  0  0  0
 29 31  1  0  0  0
 29 32  2  0  0  0
  3  4  1  0  0  0
  4  5  1  0  0  0
  4  6  1  0  0  0
  6  7  1  0  0  0
 19 11  1  0  0  0
  6  1  1  0  0  0
 19 15  2  0  0  0
 10 20  1  0  0  0
 10 21  1  0  0  0
 25 27  1  0  0  0
 30 33  1  0  0  0
 31 34  1  0  0  0
  5  8  1  0  0  0
  7  9  1  0  0  0
M  END
> <minimizedAffinity>
-6.85687

> <CNNscore>
0.6006519794

> <CNNaffinity>
5.2355346680

> <CNN_VS>
3.1447341442

> <CNNaffinity_variance>
0.0827998966

$$$$
[H]O[C@]1([H])[C@@]([H])(C([H])([H])OP(=O)(O[H])OP(=O)(O[H])O[H])O[C@@]([H])(n2c([H])nc3c(N([H])[H])nc([H])nc32)[C@]1([H])O[H]


 34 36  0  0  0  0  0  0  0  0999 V2000
   -2.4898   21.5600  -23.5110 C   0  0  0  0  0  0  0  0  0  0  0  0
   -3.5328   22.4569  -23.3949 O   0  0  0  0  0  0  0  0  0  0  0  0
   -3.2335   23.4311  -22.4835 C   0  0  0  0  0  0  0  0  0  0  0  0
   -1.7336   23.2790  -22.1846 C   0  0  0  0  0  0  0  0  0  0  0  0
   -1.4005   23.7721  -20.9556 O   0  0  0  0  0  0  0  0  0  0  0  0
   -1.7343   21.7423  -22.2132 C   0  0  0  0  0  0  0  0  0  0  0  0
   -2.5743   21.3452  -21.1805 O   0  0  0  0  0  0  0  0  0  0  0  0
   -0.4215   23.9247  -20.9366 H   0  0  0  0  0  0  0  0  0  0  0  0
   -2.6468   20.3604  -21.1243 H   0  0  0  0  0  0  0  0  0  0  0  0
   -0.0326   23.2186  -28.7867 N   0  0  0  0  0  0  0  0  0  0  0  0
   -1.1862   22.9894  -27.9911 C   0  0  0  0  0  0  0  0  0  0  0  0
   -2.4393   23.1748  -28.4527 N   0  0  0  0  0  0  0  0  0  0  0  0
   -3.4860   22.9391  -27.6458 C   0  0  0  0  0  0  0  0  0  0  0  0
   -3.3461   22.5219  -26.3834 N   0  0  0  0  0  0  0  0  0  0  0  0
   -2.1268   22.3239  -25.8803 C   0  0  0  0  0  0  0  0  0  0  0  0
   -1.6722   21.9113  -24.6569 N   0  0  0  0  0  0  0  0  0  0  0  0
   -0.3363   21.9104  -24.7644 C   0  0  0  0  0  0  0  0  0  0  0  0
    0.0716   22.2968  -25.9792 N   0  0  0  0  0  0  0  0  0  0  0  0
   -1.0360   22.5585  -26.6876 C   0  0  0  0  0  0  0  0  0  0  0  0
    0.3532   24.1828  -28.8241 H   0  0  0  0  0  0  0  0  0  0  0  0
    0.3993   22.4321  -29.3092 H   0  0  0  0  0  0  0  0  0  0  0  0
   -3.6024   24.8187  -22.8770 C   0  0  0  0  0  0  0  0  0  0  0  0
   -5.0066   24.8397  -23.0299 O   0  0  0  0  0  0  0  0  0  0  0  0
   -5.4585   25.8121  -24.3272 P   0  0  0  0  0  0  0  0  0  0  0  0
   -4.3504   27.0991  -24.4464 O   0  0  0  0  0  0  0  0  0  0  0  0
   -5.5086   25.0501  -25.6274 O   0  0  0  0  0  0  0  0  0  0  0  0
   -4.5320   27.6954  -23.6599 H   0  0  0  0  0  0  0  0  0  0  0  0
   -6.9708   26.4673  -24.0225 O   0  0  0  0  0  0  0  0  0  0  0  0
   -7.7335   25.7862  -22.6920 P   0  0  0  0  0  0  0  0  0  0  0  0
   -7.8098   24.1030  -22.9331 O   0  0  0  0  0  0  0  0  0  0  0  0
   -6.8809   26.1046  -21.2646 O   0  0  0  0  0  0  0  0  0  0  0  0
   -9.1398   26.2711  -22.5038 O   0  0  0  0  0  0  0  0  0  0  0  0
   -7.1287   23.8314  -23.6236 H   0  0  0  0  0  0  0  0  0  0  0  0
   -7.0716   25.3858  -20.6337 H   0  0  0  0  0  0  0  0  0  0  0  0
 10 11  1  0  0  0
 11 12  2  0  0  0
 12 13  1  0  0  0
 13 14  2  0  0  0
 14 15  1  0  0  0
 15 16  1  0  0  0
 16 17  1  0  0  0
 17 18  2  0  0  0
 18 19  1  0  0  0
 16  1  1  0  0  0
  1  2  1  0  0  0
  2  3  1  0  0  0
  3 22  1  0  0  0
 22 23  1  0  0  0
 23 24  1  0  0  0
 24 25  1  0  0  0
 24 26  2  0  0  0
 24 28  1  0  0  0
 28 29  1  0  0  0
 29 30  1  0  0  0
 29 31  1  0  0  0
 29 32  2  0  0  0
  3  4  1  0  0  0
  4  5  1  0  0  0
  4  6  1  0  0  0
  6  7  1  0  0  0
 19 11  1  0  0  0
  6  1  1  0  0  0
 19 15  2  0  0  0
 10 20  1  0  0  0
 10 21  1  0  0  0
 25 27  1  0  0  0
 30 33  1  0  0  0
 31 34  1  0  0  0
  5  8  1  0  0  0
  7  9  1  0  0  0
M  END
> <minimizedAffinity>
-7.87590

> <CNNscore>
0.3800962567

> <CNNaffinity>
4.9937915802

> <CNN_VS>
1.8981214762

> <CNNaffinity_variance>
0.2040548027

$$$$
[H]c1c([H])c(N2C([H])([H])C([H])([H])OC([H])([H])C2([H])[H])c([H])c([H])c1N([H])C(=O)N1C([H])([H])C([H])([H])N(c2c([H])c([H])c([N+](=O)[O-])c([H])c2[H])C([H])([H])C1([H])[H]


 31 34  0  0  0  0  0  0  0  0999 V2000
   -0.6994   21.8624  -21.8241 N   0  0  0  0  0  0  0  0  0  0  0  0
   -0.3532   20.5670  -21.3166 C   0  0  0  0  0  0  0  0  0  0  0  0
   -0.8113   20.3086  -19.8971 C   0  0  0  0  0  0  0  0  0  0  0  0
   -1.2801   21.5022  -19.2545 N   0  0  0  0  0  0  0  0  0  0  0  0
   -0.6509   22.7366  -19.5994 C   0  0  0  0  0  0  0  0  0  0  0  0
   -1.0590   23.0198  -21.0448 C   0  0  0  0  0  0  0  0  0  0  0  0
   -2.3346   21.4345  -18.3124 C   0  0  0  0  0  0  0  0  0  0  0  0
   -2.8483   20.2852  -18.0406 O   0  0  0  0  0  0  0  0  0  0  0  0
   -2.8548   22.5481  -17.6562 N   0  0  0  0  0  0  0  0  0  0  0  0
   -2.4274   23.4922  -17.9035 H   0  0  0  0  0  0  0  0  0  0  0  0
   -0.6499   22.3577  -26.0459 C   0  0  0  0  0  0  0  0  0  0  0  0
   -1.8043   22.5664  -25.3189 C   0  0  0  0  0  0  0  0  0  0  0  0
   -1.8087   22.4025  -23.9587 C   0  0  0  0  0  0  0  0  0  0  0  0
   -0.6831   22.0264  -23.2454 C   0  0  0  0  0  0  0  0  0  0  0  0
    0.4659   21.8222  -23.9984 C   0  0  0  0  0  0  0  0  0  0  0  0
    0.4916   21.9816  -25.3673 C   0  0  0  0  0  0  0  0  0  0  0  0
   -1.7735   22.7203  -28.1635 O   0  0  0  0  0  0  0  0  0  0  0  0
   -0.6211   22.5211  -27.4537 N   0  0  0  0  0  0  0  0  0  0  0  0
    0.4661   22.4827  -28.0490 O   0  0  0  0  0  0  0  0  0  0  0  0
   -3.8968   22.5282  -16.6994 C   0  0  0  0  0  0  0  0  0  0  0  0
   -3.5726   22.2843  -15.3600 C   0  0  0  0  0  0  0  0  0  0  0  0
   -4.5383   22.2242  -14.3834 C   0  0  0  0  0  0  0  0  0  0  0  0
   -5.8796   22.3988  -14.6540 C   0  0  0  0  0  0  0  0  0  0  0  0
   -6.2062   22.6384  -15.9670 C   0  0  0  0  0  0  0  0  0  0  0  0
   -5.2162   22.6998  -16.9717 C   0  0  0  0  0  0  0  0  0  0  0  0
   -6.8841   22.3560  -13.6517 N   0  0  0  0  0  0  0  0  0  0  0  0
   -8.2067   21.7664  -13.8500 C   0  0  0  0  0  0  0  0  0  0  0  0
   -9.1802   22.9281  -13.6903 C   0  0  0  0  0  0  0  0  0  0  0  0
   -9.0266   23.3682  -12.3628 O   0  0  0  0  0  0  0  0  0  0  0  0
   -7.8110   23.9787  -12.1901 C   0  0  0  0  0  0  0  0  0  0  0  0
   -6.6993   22.9241  -12.3077 C   0  0  0  0  0  0  0  0  0  0  0  0
 17 18  1  0  0  0
 18 19  2  0  0  0
 18 11  1  0  0  0
 11 12  2  0  0  0
 12 13  1  0  0  0
 13 14  2  0  0  0
 14 15  1  0  0  0
 15 16  2  0  0  0
 14  1  1  0  0  0
  1  2  1  0  0  0
  2  3  1  0  0  0
  3  4  1  0  0  0
  4  5  1  0  0  0
  5  6  1  0  0  0
  4  7  1  0  0  0
  7  8  2  0  0  0
  7  9  1  0  0  0
  9 20  1  0  0  0
 20 21  2  0  0  0
 21 22  1  0  0  0
 22 23  2  0  0  0
 23 24  1  0  0  0
 24 25  2  0  0  0
 23 26  1  0  0  0
 26 27  1  0  0  0
 27 28  1  0  0  0
 28 29  1  0  0  0
 29 30  1  0  0  0
 30 31  1  0  0  0
 16 11  1  0  0  0
  6  1  1  0  0  0
 25 20  1  0  0  0
 31 26  1  0  0  0
  9 10  1  0  0  0
M  CHG 1  17  -1
M  CHG 1  18   1
M  END
> <minimizedAffinity>
-6.28766

> <CNNscore>
0.3626479506

> <CNNaffinity>
5.0042824745

> <CNN_VS>
1.8147927523

> <CNNaffinity_variance>
0.0335987434

$$$$
[H]c1c([H])c(N2C([H])([H])C([H])([H])OC([H])([H])C2([H])[H])c([H])c([H])c1N([H])C(=O)N1C([H])([H])C([H])([H])N(c2c([H])c([H])c([N+](=O)[O-])c([H])c2[H])C([H])([H])C1([H])[H]


 31 34  0  0  0  0  0  0  0  0999 V2000
    0.9755   21.3293  -22.9583 N   0  0  0  0  0  0  0  0  0  0  0  0
    2.3413   21.1097  -23.3346 C   0  0  0  0  0  0  0  0  0  0  0  0
    3.1524   20.3324  -22.3200 C   0  0  0  0  0  0  0  0  0  0  0  0
    2.4611   20.1879  -21.0715 N   0  0  0  0  0  0  0  0  0  0  0  0
    1.6082   21.2541  -20.6539 C   0  0  0  0  0  0  0  0  0  0  0  0
    0.4298   21.2472  -21.6273 C   0  0  0  0  0  0  0  0  0  0  0  0
    2.6335   19.0165  -20.2954 C   0  0  0  0  0  0  0  0  0  0  0  0
    3.4278   18.0995  -20.7278 O   0  0  0  0  0  0  0  0  0  0  0  0
    1.9885   18.7948  -19.0805 N   0  0  0  0  0  0  0  0  0  0  0  0
    1.3246   19.5576  -18.7449 H   0  0  0  0  0  0  0  0  0  0  0  0
   -1.7398   22.3428  -26.0682 C   0  0  0  0  0  0  0  0  0  0  0  0
   -2.1940   22.0085  -24.8085 C   0  0  0  0  0  0  0  0  0  0  0  0
   -1.3096   21.6824  -23.8143 C   0  0  0  0  0  0  0  0  0  0  0  0
    0.0617   21.6679  -24.0060 C   0  0  0  0  0  0  0  0  0  0  0  0
    0.4945   22.0076  -25.2812 C   0  0  0  0  0  0  0  0  0  0  0  0
   -0.3784   22.3387  -26.2952 C   0  0  0  0  0  0  0  0  0  0  0  0
   -2.1817   22.9204  -28.3810 O   0  0  0  0  0  0  0  0  0  0  0  0
   -2.6357   22.6838  -27.1125 N   0  0  0  0  0  0  0  0  0  0  0  0
   -3.8490   22.7683  -26.8704 O   0  0  0  0  0  0  0  0  0  0  0  0
    2.1392   17.6486  -18.2650 C   0  0  0  0  0  0  0  0  0  0  0  0
    1.3260   16.5370  -18.5139 C   0  0  0  0  0  0  0  0  0  0  0  0
    1.4009   15.4012  -17.7431 C   0  0  0  0  0  0  0  0  0  0  0  0
    2.2744   15.2803  -16.6822 C   0  0  0  0  0  0  0  0  0  0  0  0
    3.0761   16.3676  -16.4310 C   0  0  0  0  0  0  0  0  0  0  0  0
    3.0003   17.5354  -17.2209 C   0  0  0  0  0  0  0  0  0  0  0  0
    2.3730   14.1066  -15.8897 N   0  0  0  0  0  0  0  0  0  0  0  0
    2.5318   14.1167  -14.4369 C   0  0  0  0  0  0  0  0  0  0  0  0
    3.8901   13.4718  -14.1879 C   0  0  0  0  0  0  0  0  0  0  0  0
    3.7740   12.1535  -14.6656 O   0  0  0  0  0  0  0  0  0  0  0  0
    3.6885   12.1376  -16.0340 C   0  0  0  0  0  0  0  0  0  0  0  0
    2.3452   12.7508  -16.4594 C   0  0  0  0  0  0  0  0  0  0  0  0
 17 18  1  0  0  0
 18 19  2  0  0  0
 18 11  1  0  0  0
 11 12  2  0  0  0
 12 13  1  0  0  0
 13 14  2  0  0  0
 14 15  1  0  0  0
 15 16  2  0  0  0
 14  1  1  0  0  0
  1  2  1  0  0  0
  2  3  1  0  0  0
  3  4  1  0  0  0
  4  5  1  0  0  0
  5  6  1  0  0  0
  4  7  1  0  0  0
  7  8  2  0  0  0
  7  9  1  0  0  0
  9 20  1  0  0  0
 20 21  2  0  0  0
 21 22  1  0  0  0
 22 23  2  0  0  0
 23 24  1  0  0  0
 24 25  2  0  0  0
 23 26  1  0  0  0
 26 27  1  0  0  0
 27 28  1  0  0  0
 28 29  1  0  0  0
 29 30  1  0  0  0
 30 31  1  0  0  0
 16 11  1  0  0  0
  6  1  1  0  0  0
 25 20  1  0  0  0
 31 26  1  0  0  0
  9 10  1  0  0  0
M  CHG 1  17  -1
M  CHG 1  18   1
M  END
> <minimizedAffinity>
-5.55771

> <CNNscore>
0.3566305637

> <CNNaffinity>
4.9914541245

> <CNN_VS>
1.7801051140

> <CNNaffinity_variance>
0.0358356759

$$$$
[H]c1c([H])c(N2C([H])([H])C([H])([H])OC([H])([H])C2([H])[H])c([H])c([H])c1N([H])C(=O)N1C([H])([H])C([H])([H])N(c2c([H])c([H])c([N+](=O)[O-])c([H])c2[H])C([H])([H])C1([H])[H]


 31 34  0  0  0  0  0  0  0  0999 V2000
   -7.5819   25.1864  -22.3321 N   0  0  0  0  0  0  0  0  0  0  0  0
   -6.7913   25.8380  -21.3292 C   0  0  0  0  0  0  0  0  0  0  0  0
   -7.0797   25.3852  -19.9138 C   0  0  0  0  0  0  0  0  0  0  0  0
   -8.2620   24.5770  -19.8350 N   0  0  0  0  0  0  0  0  0  0  0  0
   -9.3318   24.8703  -20.7340 C   0  0  0  0  0  0  0  0  0  0  0  0
   -8.8230   24.4850  -22.1228 C   0  0  0  0  0  0  0  0  0  0  0  0
   -8.3430   23.5270  -18.8889 C   0  0  0  0  0  0  0  0  0  0  0  0
   -7.3443   23.3261  -18.1009 O   0  0  0  0  0  0  0  0  0  0  0  0
   -9.4493   22.6900  -18.7588 N   0  0  0  0  0  0  0  0  0  0  0  0
  -10.2605   22.8616  -19.4280 H   0  0  0  0  0  0  0  0  0  0  0  0
   -6.1379   25.3519  -26.3270 C   0  0  0  0  0  0  0  0  0  0  0  0
   -7.4028   24.8758  -26.0471 C   0  0  0  0  0  0  0  0  0  0  0  0
   -7.8571   24.8259  -24.7556 C   0  0  0  0  0  0  0  0  0  0  0  0
   -7.0946   25.2398  -23.6764 C   0  0  0  0  0  0  0  0  0  0  0  0
   -5.8260   25.7147  -23.9829 C   0  0  0  0  0  0  0  0  0  0  0  0
   -5.3499   25.7732  -25.2751 C   0  0  0  0  0  0  0  0  0  0  0  0
   -6.3545   24.8740  -28.6940 O   0  0  0  0  0  0  0  0  0  0  0  0
   -5.6464   25.4131  -27.6552 N   0  0  0  0  0  0  0  0  0  0  0  0
   -4.5576   25.9640  -27.8766 O   0  0  0  0  0  0  0  0  0  0  0  0
   -9.5810   21.6384  -17.8217 C   0  0  0  0  0  0  0  0  0  0  0  0
   -8.9212   20.4300  -18.0727 C   0  0  0  0  0  0  0  0  0  0  0  0
   -9.0282   19.3585  -17.2181 C   0  0  0  0  0  0  0  0  0  0  0  0
   -9.7856   19.4006  -16.0659 C   0  0  0  0  0  0  0  0  0  0  0  0
  -10.4369   20.5836  -15.8124 C   0  0  0  0  0  0  0  0  0  0  0  0
  -10.3291   21.6851  -16.6890 C   0  0  0  0  0  0  0  0  0  0  0  0
   -9.8901   18.3068  -15.1671 N   0  0  0  0  0  0  0  0  0  0  0  0
   -9.3539   16.9749  -15.4404 C   0  0  0  0  0  0  0  0  0  0  0  0
  -10.5744   16.0632  -15.4813 C   0  0  0  0  0  0  0  0  0  0  0  0
  -11.1297   16.1194  -14.1898 O   0  0  0  0  0  0  0  0  0  0  0  0
  -11.6899   17.3486  -13.9541 C   0  0  0  0  0  0  0  0  0  0  0  0
  -10.5727   18.4003  -13.8676 C   0  0  0  0  0  0  0  0  0  0  0  0
 17 18  1  0  0  0
 18 19  2  0  0  0
 18 11  1  0  0  0
 11 12  2  0  0  0
 12 13  1  0  0  0
 13 14  2  0  0  0
 14 15  1  0  0  0
 15 16  2  0  0  0
 14  1  1  0  0  0
  1  2  1  0  0  0
  2  3  1  0  0  0
  3  4  1  0  0  0
  4  5  1  0  0  0
  5  6  1  0  0  0
  4  7  1  0  0  0
  7  8  2  0  0  0
  7  9  1  0  0  0
  9 20  1  0  0  0
 20 21  2  0  0  0
 21 22  1  0  0  0
 22 23  2  0  0  0
 23 24  1  0  0  0
 24 25  2  0  0  0
 23 26  1  0  0  0
 26 27  1  0  0  0
 27 28  1  0  0  0
 28 29  1  0  0  0
 29 30  1  0  0  0
 30 31  1  0  0  0
 16 11  1  0  0  0
  6  1  1  0  0  0
 25 20  1  0  0  0
 31 26  1  0  0  0
  9 10  1  0  0  0
M  CHG 1  17  -1
M  CHG 1  18   1
M  END
> <minimizedAffinity>
-5.91451

> <CNNscore>
0.3434946537

> <CNNaffinity>
5.0328865051

> <CNN_VS>
1.7287696600

> <CNNaffinity_variance>
0.0667969733

$$$$
[H]c1c([H])c(N2C([H])([H])C([H])([H])OC([H])([H])C2([H])[H])c([H])c([H])c1N([H])C(=O)N1C([H])([H])C([H])([H])N(c2c([H])c([H])c([N+](=O)[O-])c([H])c2[H])C([H])([H])C1([H])[H]


 31 34  0  0  0  0  0  0  0  0999 V2000
   -8.3243   22.1356  -18.2724 N   0  0  0  0  0  0  0  0  0  0  0  0
   -9.2638   21.7725  -19.2925 C   0  0  0  0  0  0  0  0  0  0  0  0
   -8.7528   21.9522  -20.7061 C   0  0  0  0  0  0  0  0  0  0  0  0
   -7.5217   22.6872  -20.7465 N   0  0  0  0  0  0  0  0  0  0  0  0
   -7.3217   23.7080  -19.7685 C   0  0  0  0  0  0  0  0  0  0  0  0
   -7.1670   22.9786  -18.4343 C   0  0  0  0  0  0  0  0  0  0  0  0
   -6.5501   22.3920  -21.7330 C   0  0  0  0  0  0  0  0  0  0  0  0
   -6.8022   21.4656  -22.5915 O   0  0  0  0  0  0  0  0  0  0  0  0
   -5.3260   23.0501  -21.8307 N   0  0  0  0  0  0  0  0  0  0  0  0
   -5.1285   23.8037  -21.1039 H   0  0  0  0  0  0  0  0  0  0  0  0
   -9.0265   20.5899  -14.3750 C   0  0  0  0  0  0  0  0  0  0  0  0
   -8.2522   21.7167  -14.5644 C   0  0  0  0  0  0  0  0  0  0  0  0
   -8.0317   22.2051  -15.8253 C   0  0  0  0  0  0  0  0  0  0  0  0
   -8.5586   21.6136  -16.9609 C   0  0  0  0  0  0  0  0  0  0  0  0
   -9.3339   20.4817  -16.7452 C   0  0  0  0  0  0  0  0  0  0  0  0
   -9.5679   19.9741  -15.4852 C   0  0  0  0  0  0  0  0  0  0  0  0
   -8.4791   20.4170  -12.0195 O   0  0  0  0  0  0  0  0  0  0  0  0
   -9.2686   20.0663  -13.0802 N   0  0  0  0  0  0  0  0  0  0  0  0
  -10.2108   19.2786  -12.9084 O   0  0  0  0  0  0  0  0  0  0  0  0
   -4.3314   22.7994  -22.8051 C   0  0  0  0  0  0  0  0  0  0  0  0
   -4.4257   23.4479  -24.0417 C   0  0  0  0  0  0  0  0  0  0  0  0
   -3.5092   23.2293  -25.0427 C   0  0  0  0  0  0  0  0  0  0  0  0
   -2.4441   22.3645  -24.8983 C   0  0  0  0  0  0  0  0  0  0  0  0
   -2.3447   21.7235  -23.6870 C   0  0  0  0  0  0  0  0  0  0  0  0
   -3.2852   21.9459  -22.6577 C   0  0  0  0  0  0  0  0  0  0  0  0
   -1.4818   22.1435  -25.9183 N   0  0  0  0  0  0  0  0  0  0  0  0
   -0.0492   21.9985  -25.6677 C   0  0  0  0  0  0  0  0  0  0  0  0
    0.5942   23.1801  -26.3837 C   0  0  0  0  0  0  0  0  0  0  0  0
    0.3075   22.9946  -27.7486 O   0  0  0  0  0  0  0  0  0  0  0  0
   -1.0265   23.1925  -27.9969 C   0  0  0  0  0  0  0  0  0  0  0  0
   -1.8315   22.0577  -27.3444 C   0  0  0  0  0  0  0  0  0  0  0  0
 17 18  1  0  0  0
 18 19  2  0  0  0
 18 11  1  0  0  0
 11 12  2  0  0  0
 12 13  1  0  0  0
 13 14  2  0  0  0
 14 15  1  0  0  0
 15 16  2  0  0  0
 14  1  1  0  0  0
  1  2  1  0  0  0
  2  3  1  0  0  0
  3  4  1  0  0  0
  4  5  1  0  0  0
  5  6  1  0  0  0
  4  7  1  0  0  0
  7  8  2  0  0  0
  7  9  1  0  0  0
  9 20  1  0  0  0
 20 21  2  0  0  0
 21 22  1  0  0  0
 22 23  2  0  0  0
 23 24  1  0  0  0
 24 25  2  0  0  0
 23 26  1  0  0  0
 26 27  1  0  0  0
 27 28  1  0  0  0
 28 29  1  0  0  0
 29 30  1  0  0  0
 30 31  1  0  0  0
 16 11  1  0  0  0
  6  1  1  0  0  0
 25 20  1  0  0  0
 31 26  1  0  0  0
  9 10  1  0  0  0
M  CHG 1  17  -1
M  CHG 1  18   1
M  END
> <minimizedAffinity>
-6.03074

> <CNNscore>
0.3370864689

> <CNNaffinity>
5.3918547630

> <CNN_VS>
1.8175213337

> <CNNaffinity_variance>
0.2211485356

$$$$
[H]c1c([H])c(N2C([H])([H])C([H])([H])OC([H])([H])C2([H])[H])c([H])c([H])c1N([H])C(=O)N1C([H])([H])C([H])([H])N(c2c([H])c([H])c([N+](=O)[O-])c([H])c2[H])C([H])([H])C1([H])[H]


 31 34  0  0  0  0  0  0  0  0999 V2000
   -0.1589   21.5174  -23.4226 N   0  0  0  0  0  0  0  0  0  0  0  0
    1.2623   21.4441  -23.2488 C   0  0  0  0  0  0  0  0  0  0  0  0
    1.7053   20.6183  -22.0599 C   0  0  0  0  0  0  0  0  0  0  0  0
    0.6098   20.2813  -21.1975 N   0  0  0  0  0  0  0  0  0  0  0  0
   -0.4524   21.2266  -21.0677 C   0  0  0  0  0  0  0  0  0  0  0  0
   -1.1595   21.2435  -22.4226 C   0  0  0  0  0  0  0  0  0  0  0  0
    0.6030   19.0450  -20.5078 C   0  0  0  0  0  0  0  0  0  0  0  0
    1.6002   18.2448  -20.6627 O   0  0  0  0  0  0  0  0  0  0  0  0
   -0.4285   18.6387  -19.6638 N   0  0  0  0  0  0  0  0  0  0  0  0
   -1.2517   19.3068  -19.5583 H   0  0  0  0  0  0  0  0  0  0  0  0
   -1.5713   22.6754  -27.2612 C   0  0  0  0  0  0  0  0  0  0  0  0
   -2.4506   22.3571  -26.2462 C   0  0  0  0  0  0  0  0  0  0  0  0
   -1.9839   21.9840  -25.0133 C   0  0  0  0  0  0  0  0  0  0  0  0
   -0.6339   21.9046  -24.7155 C   0  0  0  0  0  0  0  0  0  0  0  0
    0.2310   22.2295  -25.7523 C   0  0  0  0  0  0  0  0  0  0  0  0
   -0.2178   22.6072  -26.9997 C   0  0  0  0  0  0  0  0  0  0  0  0
   -1.2272   23.7722  -29.3959 O   0  0  0  0  0  0  0  0  0  0  0  0
   -2.0307   23.0642  -28.5447 N   0  0  0  0  0  0  0  0  0  0  0  0
   -3.1786   22.7569  -28.8993 O   0  0  0  0  0  0  0  0  0  0  0  0
   -0.4732   17.4212  -18.9446 C   0  0  0  0  0  0  0  0  0  0  0  0
   -1.0134   16.2921  -19.5707 C   0  0  0  0  0  0  0  0  0  0  0  0
   -1.1124   15.0848  -18.9207 C   0  0  0  0  0  0  0  0  0  0  0  0
   -0.6898   14.9052  -17.6198 C   0  0  0  0  0  0  0  0  0  0  0  0
   -0.1584   16.0092  -16.9980 C   0  0  0  0  0  0  0  0  0  0  0  0
   -0.0565   17.2503  -17.6633 C   0  0  0  0  0  0  0  0  0  0  0  0
   -0.7711   13.6595  -16.9438 N   0  0  0  0  0  0  0  0  0  0  0  0
   -1.9884   13.1545  -16.3120 C   0  0  0  0  0  0  0  0  0  0  0  0
   -1.6499   13.0637  -14.8288 C   0  0  0  0  0  0  0  0  0  0  0  0
   -0.6131   12.1171  -14.7366 O   0  0  0  0  0  0  0  0  0  0  0  0
    0.5477   12.6130  -15.2723 C   0  0  0  0  0  0  0  0  0  0  0  0
    0.3778   12.7536  -16.7931 C   0  0  0  0  0  0  0  0  0  0  0  0
 17 18  1  0  0  0
 18 19  2  0  0  0
 18 11  1  0  0  0
 11 12  2  0  0  0
 12 13  1  0  0  0
 13 14  2  0  0  0
 14 15  1  0  0  0
 15 16  2  0  0  0
 14  1  1  0  0  0
  1  2  1  0  0  0
  2  3  1  0  0  0
  3  4  1  0  0  0
  4  5  1  0  0  0
  5  6  1  0  0  0
  4  7  1  0  0  0
  7  8  2  0  0  0
  7  9  1  0  0  0
  9 20  1  0  0  0
 20 21  2  0  0  0
 21 22  1  0  0  0
 22 23  2  0  0  0
 23 24  1  0  0  0
 24 25  2  0  0  0
 23 26  1  0  0  0
 26 27  1  0  0  0
 27 28  1  0  0  0
 28 29  1  0  0  0
 29 30  1  0  0  0
 30 31  1  0  0  0
 16 11  1  0  0  0
  6  1  1  0  0  0
 25 20  1  0  0  0
 31 26  1  0  0  0
  9 10  1  0  0  0
M  CHG 1  17  -1
M  CHG 1  18   1
M  END
> <minimizedAffinity>
-6.34269

> <CNNscore>
0.3011611700

> <CNNaffinity>
5.1098914146

> <CNN_VS>
1.5389008522

> <CNNaffinity_variance>
0.0275399927

$$$$
[H]c1c([H])c(N2C([H])([H])C([H])([H])OC([H])([H])C2([H])[H])c([H])c([H])c1N([H])C(=O)N1C([H])([H])C([H])([H])N(c2c([H])c([H])c([N+](=O)[O-])c([H])c2[H])C([H])([H])C1([H])[H]


 31 34  0  0  0  0  0  0  0  0999 V2000
   -0.5314   21.9738  -22.8953 N   0  0  0  0  0  0  0  0  0  0  0  0
    0.6664   21.2261  -22.6469 C   0  0  0  0  0  0  0  0  0  0  0  0
    0.7407   20.6035  -21.2691 C   0  0  0  0  0  0  0  0  0  0  0  0
   -0.2875   21.0945  -20.3978 N   0  0  0  0  0  0  0  0  0  0  0  0
   -0.7076   22.4496  -20.5589 C   0  0  0  0  0  0  0  0  0  0  0  0
   -1.4334   22.5012  -21.9030 C   0  0  0  0  0  0  0  0  0  0  0  0
   -0.8537   20.2445  -19.4175 C   0  0  0  0  0  0  0  0  0  0  0  0
   -0.4183   19.0363  -19.3205 O   0  0  0  0  0  0  0  0  0  0  0  0
   -1.8639   20.6411  -18.5437 N   0  0  0  0  0  0  0  0  0  0  0  0
   -2.2216   21.6393  -18.6473 H   0  0  0  0  0  0  0  0  0  0  0  0
   -1.5222   22.7324  -26.9591 C   0  0  0  0  0  0  0  0  0  0  0  0
   -2.4944   22.7247  -25.9795 C   0  0  0  0  0  0  0  0  0  0  0  0
   -2.1636   22.4777  -24.6732 C   0  0  0  0  0  0  0  0  0  0  0  0
   -0.8650   22.2265  -24.2635 C   0  0  0  0  0  0  0  0  0  0  0  0
    0.0955   22.2395  -25.2666 C   0  0  0  0  0  0  0  0  0  0  0  0
   -0.2163   22.4857  -26.5865 C   0  0  0  0  0  0  0  0  0  0  0  0
   -3.1050   22.7761  -28.7950 O   0  0  0  0  0  0  0  0  0  0  0  0
   -1.8405   22.9855  -28.3170 N   0  0  0  0  0  0  0  0  0  0  0  0
   -0.9578   23.4030  -29.0816 O   0  0  0  0  0  0  0  0  0  0  0  0
   -2.4503   19.8331  -17.5413 C   0  0  0  0  0  0  0  0  0  0  0  0
   -3.6441   19.1635  -17.8331 C   0  0  0  0  0  0  0  0  0  0  0  0
   -4.2816   18.3842  -16.8971 C   0  0  0  0  0  0  0  0  0  0  0  0
   -3.7930   18.2102  -15.6188 C   0  0  0  0  0  0  0  0  0  0  0  0
   -2.6213   18.8647  -15.3243 C   0  0  0  0  0  0  0  0  0  0  0  0
   -1.9652   19.6662  -16.2838 C   0  0  0  0  0  0  0  0  0  0  0  0
   -4.4330   17.3945  -14.6491 N   0  0  0  0  0  0  0  0  0  0  0  0
   -4.7179   17.8269  -13.2824 C   0  0  0  0  0  0  0  0  0  0  0  0
   -3.8946   16.8972  -12.3989 C   0  0  0  0  0  0  0  0  0  0  0  0
   -4.4076   15.6074  -12.6288 O   0  0  0  0  0  0  0  0  0  0  0  0
   -4.0868   15.1738  -13.8895 C   0  0  0  0  0  0  0  0  0  0  0  0
   -4.8589   16.0130  -14.9197 C   0  0  0  0  0  0  0  0  0  0  0  0
 17 18  1  0  0  0
 18 19  2  0  0  0
 18 11  1  0  0  0
 11 12  2  0  0  0
 12 13  1  0  0  0
 13 14  2  0  0  0
 14 15  1  0  0  0
 15 16  2  0  0  0
 14  1  1  0  0  0
  1  2  1  0  0  0
  2  3  1  0  0  0
  3  4  1  0  0  0
  4  5  1  0  0  0
  5  6  1  0  0  0
  4  7  1  0  0  0
  7  8  2  0  0  0
  7  9  1  0  0  0
  9 20  1  0  0  0
 20 21  2  0  0  0
 21 22  1  0  0  0
 22 23  2  0  0  0
 23 24  1  0  0  0
 24 25  2  0  0  0
 23 26  1  0  0  0
 26 27  1  0  0  0
 27 28  1  0  0  0
 28 29  1  0  0  0
 29 30  1  0  0  0
 30 31  1  0  0  0
 16 11  1  0  0  0
  6  1  1  0  0  0
 25 20  1  0  0  0
 31 26  1  0  0  0
  9 10  1  0  0  0
M  CHG 1  17  -1
M  CHG 1  18   1
M  END
> <minimizedAffinity>
-5.50299

> <CNNscore>
0.2968823612

> <CNNaffinity>
5.1874856949

> <CNN_VS>
1.5400730371

> <CNNaffinity_variance>
0.2010230720

$$$$
[H]c1c([H])c(N2C([H])([H])C([H])([H])OC([H])([H])C2([H])[H])c([H])c([H])c1N([H])C(=O)N1C([H])([H])C([H])([H])N(c2c([H])c([H])c([N+](=O)[O-])c([H])c2[H])C([H])([H])C1([H])[H]


 31 34  0  0  0  0  0  0  0  0999 V2000
   -6.4232   23.4505  -23.1163 N   0  0  0  0  0  0  0  0  0  0  0  0
   -7.1322   24.6724  -22.8722 C   0  0  0  0  0  0  0  0  0  0  0  0
   -7.6796   24.8079  -21.4673 C   0  0  0  0  0  0  0  0  0  0  0  0
   -7.5974   23.5779  -20.7341 N   0  0  0  0  0  0  0  0  0  0  0  0
   -7.7549   22.3576  -21.4585 C   0  0  0  0  0  0  0  0  0  0  0  0
   -6.5142   22.2381  -22.3431 C   0  0  0  0  0  0  0  0  0  0  0  0
   -7.3660   23.5974  -19.3376 C   0  0  0  0  0  0  0  0  0  0  0  0
   -7.2451   24.7353  -18.7466 O   0  0  0  0  0  0  0  0  0  0  0  0
   -7.2600   22.4478  -18.5576 N   0  0  0  0  0  0  0  0  0  0  0  0
   -7.3486   21.5153  -19.0651 H   0  0  0  0  0  0  0  0  0  0  0  0
   -3.8039   23.3825  -26.4638 C   0  0  0  0  0  0  0  0  0  0  0  0
   -4.0867   22.2303  -25.7586 C   0  0  0  0  0  0  0  0  0  0  0  0
   -4.9314   22.2645  -24.6805 C   0  0  0  0  0  0  0  0  0  0  0  0
   -5.5395   23.4284  -24.2414 C   0  0  0  0  0  0  0  0  0  0  0  0
   -5.2398   24.5743  -24.9666 C   0  0  0  0  0  0  0  0  0  0  0  0
   -4.3927   24.5615  -26.0539 C   0  0  0  0  0  0  0  0  0  0  0  0
   -1.6129   23.0414  -27.4443 O   0  0  0  0  0  0  0  0  0  0  0  0
   -2.9332   23.3716  -27.5824 N   0  0  0  0  0  0  0  0  0  0  0  0
   -3.3771   23.6663  -28.7022 O   0  0  0  0  0  0  0  0  0  0  0  0
   -7.0429   22.4178  -17.1599 C   0  0  0  0  0  0  0  0  0  0  0  0
   -5.7367   22.5699  -16.6808 C   0  0  0  0  0  0  0  0  0  0  0  0
   -5.4512   22.5235  -15.3369 C   0  0  0  0  0  0  0  0  0  0  0  0
   -6.4230   22.3261  -14.3778 C   0  0  0  0  0  0  0  0  0  0  0  0
   -7.7081   22.1755  -14.8402 C   0  0  0  0  0  0  0  0  0  0  0  0
   -8.0036   22.2220  -16.2200 C   0  0  0  0  0  0  0  0  0  0  0  0
   -6.1431   22.2934  -12.9865 N   0  0  0  0  0  0  0  0  0  0  0  0
   -5.0220   22.9958  -12.3653 C   0  0  0  0  0  0  0  0  0  0  0  0
   -4.1431   21.8936  -11.7860 C   0  0  0  0  0  0  0  0  0  0  0  0
   -4.9321   21.2568  -10.8105 O   0  0  0  0  0  0  0  0  0  0  0  0
   -5.9479   20.5449  -11.3949 C   0  0  0  0  0  0  0  0  0  0  0  0
   -6.9491   21.5256  -12.0252 C   0  0  0  0  0  0  0  0  0  0  0  0
 17 18  1  0  0  0
 18 19  2  0  0  0
 18 11  1  0  0  0
 11 12  2  0  0  0
 12 13  1  0  0  0
 13 14  2  0  0  0
 14 15  1  0  0  0
 15 16  2  0  0  0
 14  1  1  0  0  0
  1  2  1  0  0  0
  2  3  1  0  0  0
  3  4  1  0  0  0
  4  5  1  0  0  0
  5  6  1  0  0  0
  4  7  1  0  0  0
  7  8  2  0  0  0
  7  9  1  0  0  0
  9 20  1  0  0  0
 20 21  2  0  0  0
 21 22  1  0  0  0
 22 23  2  0  0  0
 23 24  1  0  0  0
 24 25  2  0  0  0
 23 26  1  0  0  0
 26 27  1  0  0  0
 27 28  1  0  0  0
 28 29  1  0  0  0
 29 30  1  0  0  0
 30 31  1  0  0  0
 16 11  1  0  0  0
  6  1  1  0  0  0
 25 20  1  0  0  0
 31 26  1  0  0  0
  9 10  1  0  0  0
M  CHG 1  17  -1
M  CHG 1  18   1
M  END
> <minimizedAffinity>
-5.91166

> <CNNscore>
0.2718877494

> <CNNaffinity>
5.0986371040

> <CNN_VS>
1.3862569332

> <CNNaffinity_variance>
0.0586022846

$$$$
[H]c1c([H])c(N2C([H])([H])C([H])([H])OC([H])([H])C2([H])[H])c([H])c([H])c1N([H])C(=O)N1C([H])([H])C([H])([H])N(c2c([H])c([H])c([N+](=O)[O-])c([H])c2[H])C([H])([H])C1([H])[H]


 31 34  0  0  0  0  0  0  0  0999 V2000
   -4.2243   23.6283  -25.9574 N   0  0  0  0  0  0  0  0  0  0  0  0
   -4.4896   24.4593  -24.8197 C   0  0  0  0  0  0  0  0  0  0  0  0
   -3.6878   24.1048  -23.5856 C   0  0  0  0  0  0  0  0  0  0  0  0
   -3.0069   22.8501  -23.7253 N   0  0  0  0  0  0  0  0  0  0  0  0
   -3.6415   21.8287  -24.4951 C   0  0  0  0  0  0  0  0  0  0  0  0
   -3.6144   22.3229  -25.9412 C   0  0  0  0  0  0  0  0  0  0  0  0
   -1.7464   22.6537  -23.1114 C   0  0  0  0  0  0  0  0  0  0  0  0
   -1.2380   23.6151  -22.4215 O   0  0  0  0  0  0  0  0  0  0  0  0
   -1.0164   21.4711  -23.2107 N   0  0  0  0  0  0  0  0  0  0  0  0
   -1.4456   20.6916  -23.7967 H   0  0  0  0  0  0  0  0  0  0  0  0
   -5.3650   25.1522  -29.7584 C   0  0  0  0  0  0  0  0  0  0  0  0
   -5.1880   23.7981  -29.5591 C   0  0  0  0  0  0  0  0  0  0  0  0
   -4.8190   23.3184  -28.3300 C   0  0  0  0  0  0  0  0  0  0  0  0
   -4.6057   24.1417  -27.2373 C   0  0  0  0  0  0  0  0  0  0  0  0
   -4.7898   25.4998  -27.4623 C   0  0  0  0  0  0  0  0  0  0  0  0
   -5.1608   26.0028  -28.6908 C   0  0  0  0  0  0  0  0  0  0  0  0
   -5.8388   27.0206  -31.2291 O   0  0  0  0  0  0  0  0  0  0  0  0
   -5.7466   25.6717  -31.0209 N   0  0  0  0  0  0  0  0  0  0  0  0
   -6.0003   24.8898  -31.9495 O   0  0  0  0  0  0  0  0  0  0  0  0
    0.2382   21.2242  -22.6054 C   0  0  0  0  0  0  0  0  0  0  0  0
    1.3917   21.3119  -23.3931 C   0  0  0  0  0  0  0  0  0  0  0  0
    2.6397   21.0579  -22.8757 C   0  0  0  0  0  0  0  0  0  0  0  0
    2.8387   20.7030  -21.5576 C   0  0  0  0  0  0  0  0  0  0  0  0
    1.7110   20.6143  -20.7776 C   0  0  0  0  0  0  0  0  0  0  0  0
    0.4282   20.8740  -21.3069 C   0  0  0  0  0  0  0  0  0  0  0  0
    4.1238   20.4549  -21.0076 N   0  0  0  0  0  0  0  0  0  0  0  0
    4.9376   19.2861  -21.3360 C   0  0  0  0  0  0  0  0  0  0  0  0
    5.0754   18.5247  -20.0231 C   0  0  0  0  0  0  0  0  0  0  0  0
    5.7728   19.3883  -19.1585 O   0  0  0  0  0  0  0  0  0  0  0  0
    4.9884   20.4539  -18.7984 C   0  0  0  0  0  0  0  0  0  0  0  0
    4.7616   21.3474  -20.0278 C   0  0  0  0  0  0  0  0  0  0  0  0
 17 18  1  0  0  0
 18 19  2  0  0  0
 18 11  1  0  0  0
 11 12  2  0  0  0
 12 13  1  0  0  0
 13 14  2  0  0  0
 14 15  1  0  0  0
 15 16  2  0  0  0
 14  1  1  0  0  0
  1  2  1  0  0  0
  2  3  1  0  0  0
  3  4  1  0  0  0
  4  5  1  0  0  0
  5  6  1  0  0  0
  4  7  1  0  0  0
  7  8  2  0  0  0
  7  9  1  0  0  0
  9 20  1  0  0  0
 20 21  2  0  0  0
 21 22  1  0  0  0
 22 23  2  0  0  0
 23 24  1  0  0  0
 24 25  2  0  0  0
 23 26  1  0  0  0
 26 27  1  0  0  0
 27 28  1  0  0  0
 28 29  1  0  0  0
 29 30  1  0  0  0
 30 31  1  0  0  0
 16 11  1  0  0  0
  6  1  1  0  0  0
 25 20  1  0  0  0
 31 26  1  0  0  0
  9 10  1  0  0  0
M  CHG 1  17  -1
M  CHG 1  18   1
M  END
> <minimizedAffinity>
-8.11812

> <CNNscore>
0.2699419856

> <CNNaffinity>
5.8303222656

> <CNN_VS>
1.5738487244

> <CNNaffinity_variance>
0.0161711406

$$$$
[H]c1c([H])c(N2C([H])([H])C([H])([H])OC([H])([H])C2([H])[H])c([H])c([H])c1N([H])C(=O)N1C([H])([H])C([H])([H])N(c2c([H])c([H])c([N+](=O)[O-])c([H])c2[H])C([H])([H])C1([H])[H]


 31 34  0  0  0  0  0  0  0  0999 V2000
   -6.6419   22.4984  -21.4745 N   0  0  0  0  0  0  0  0  0  0  0  0
   -7.8933   21.8094  -21.3546 C   0  0  0  0  0  0  0  0  0  0  0  0
   -8.3222   21.5351  -19.9290 C   0  0  0  0  0  0  0  0  0  0  0  0
   -7.2708   21.7952  -18.9886 N   0  0  0  0  0  0  0  0  0  0  0  0
   -5.9279   21.5426  -19.4026 C   0  0  0  0  0  0  0  0  0  0  0  0
   -5.6174   22.5957  -20.4659 C   0  0  0  0  0  0  0  0  0  0  0  0
   -7.5784   22.2872  -17.6973 C   0  0  0  0  0  0  0  0  0  0  0  0
   -8.8133   22.4813  -17.3873 O   0  0  0  0  0  0  0  0  0  0  0  0
   -6.6153   22.5771  -16.7331 N   0  0  0  0  0  0  0  0  0  0  0  0
   -5.5983   22.4239  -17.0114 H   0  0  0  0  0  0  0  0  0  0  0  0
   -5.8543   24.4393  -25.1737 C   0  0  0  0  0  0  0  0  0  0  0  0
   -5.7202   25.1110  -23.9755 C   0  0  0  0  0  0  0  0  0  0  0  0
   -5.9779   24.4756  -22.7894 C   0  0  0  0  0  0  0  0  0  0  0  0
   -6.3794   23.1522  -22.7199 C   0  0  0  0  0  0  0  0  0  0  0  0
   -6.5073   22.4975  -23.9380 C   0  0  0  0  0  0  0  0  0  0  0  0
   -6.2529   23.1183  -25.1421 C   0  0  0  0  0  0  0  0  0  0  0  0
   -4.3597   25.5983  -26.6906 O   0  0  0  0  0  0  0  0  0  0  0  0
   -5.5931   25.0757  -26.4131 N   0  0  0  0  0  0  0  0  0  0  0  0
   -6.4977   25.1589  -27.2573 O   0  0  0  0  0  0  0  0  0  0  0  0
   -6.8748   23.0569  -15.4277 C   0  0  0  0  0  0  0  0  0  0  0  0
   -6.5272   24.3765  -15.1170 C   0  0  0  0  0  0  0  0  0  0  0  0
   -6.7263   24.8983  -13.8608 C   0  0  0  0  0  0  0  0  0  0  0  0
   -7.2771   24.1643  -12.8308 C   0  0  0  0  0  0  0  0  0  0  0  0
   -7.6207   22.8675  -13.1278 C   0  0  0  0  0  0  0  0  0  0  0  0
   -7.4165   22.3293  -14.4170 C   0  0  0  0  0  0  0  0  0  0  0  0
   -7.5033   24.6971  -11.5345 N   0  0  0  0  0  0  0  0  0  0  0  0
   -8.1801   25.9680  -11.2839 C   0  0  0  0  0  0  0  0  0  0  0  0
   -7.1263   26.8480  -10.6222 C   0  0  0  0  0  0  0  0  0  0  0  0
   -6.8079   26.2075   -9.4106 O   0  0  0  0  0  0  0  0  0  0  0  0
   -6.1168   25.0458   -9.6412 C   0  0  0  0  0  0  0  0  0  0  0  0
   -7.0569   24.0266  -10.3039 C   0  0  0  0  0  0  0  0  0  0  0  0
 17 18  1  0  0  0
 18 19  2  0  0  0
 18 11  1  0  0  0
 11 12  2  0  0  0
 12 13  1  0  0  0
 13 14  2  0  0  0
 14 15  1  0  0  0
 15 16  2  0  0  0
 14  1  1  0  0  0
  1  2  1  0  0  0
  2  3  1  0  0  0
  3  4  1  0  0  0
  4  5  1  0  0  0
  5  6  1  0  0  0
  4  7  1  0  0  0
  7  8  2  0  0  0
  7  9  1  0  0  0
  9 20  1  0  0  0
 20 21  2  0  0  0
 21 22  1  0  0  0
 22 23  2  0  0  0
 23 24  1  0  0  0
 24 25  2  0  0  0
 23 26  1  0  0  0
 26 27  1  0  0  0
 27 28  1  0  0  0
 28 29  1  0  0  0
 29 30  1  0  0  0
 30 31  1  0  0  0
 16 11  1  0  0  0
  6  1  1  0  0  0
 25 20  1  0  0  0
 31 26  1  0  0  0
  9 10  1  0  0  0
M  CHG 1  17  -1
M  CHG 1  18   1
M  END
> <minimizedAffinity>
-5.65485

> <CNNscore>
0.2664313912

> <CNNaffinity>
4.8627824783

> <CNN_VS>
1.2955979109

> <CNNaffinity_variance>
0.0395994931

$$$$
[H]OC(=O)[C@@]([H])(N([H])C(=O)[C@@]([H])(N([H])C(=O)[C@@]([H])(N([H])C(=O)[C@@]([H])(N([H])C(=O)[C@@]([H])(N([H])C(=O)C([H])([H])[H])C([H])([H])c1c([H])c([H])c([H])c([H])c1[H])C([H])([H])C([H])(C([H])([H])[H])C([H])([H])[H])C([H])([H])C([H])(C([H])([H])[H])C([H])([H])[H])C([H])([H])C([H])(C([H])([H])[H])C([H])([H])[H])C([H])([H])c1c([H])c([H])c([H])c([H])c1[H]


 56 57  0  0  0  0  0  0  0  0999 V2000
   -1.8515   21.7891  -23.0913 C   0  0  0  0  0  0  0  0  0  0  0  0
   -4.1537   22.5788  -22.3917 N   0  0  0  0  0  0  0  0  0  0  0  0
   -3.3667   21.7424  -23.1987 C   0  0  0  0  0  0  0  0  0  0  0  0
   -3.8795   20.9542  -24.0036 O   0  0  0  0  0  0  0  0  0  0  0  0
   -3.7323   23.2177  -21.7182 H   0  0  0  0  0  0  0  0  0  0  0  0
   -5.6672   22.5512  -22.5064 C   0  0  0  0  0  0  0  0  0  0  0  0
   -5.9286   23.4443  -23.6105 C   0  0  0  0  0  0  0  0  0  0  0  0
   -6.5194   22.8198  -24.6150 O   0  0  0  0  0  0  0  0  0  0  0  0
   -5.6960   24.7798  -23.8551 N   0  0  0  0  0  0  0  0  0  0  0  0
   -5.1199   25.3645  -23.1468 H   0  0  0  0  0  0  0  0  0  0  0  0
   -6.0336   25.5967  -25.0131 C   0  0  0  0  0  0  0  0  0  0  0  0
   -7.2498   25.2559  -25.7320 C   0  0  0  0  0  0  0  0  0  0  0  0
   -8.4699   25.0178  -25.0447 O   0  0  0  0  0  0  0  0  0  0  0  0
   -7.4019   25.1229  -26.9842 O   0  0  0  0  0  0  0  0  0  0  0  0
   -8.4893   24.1869  -24.4667 H   0  0  0  0  0  0  0  0  0  0  0  0
   -4.8178   25.9734  -25.7764 C   0  0  0  0  0  0  0  0  0  0  0  0
   -4.3052   25.0387  -26.7739 C   0  0  0  0  0  0  0  0  0  0  0  0
   -4.3840   25.2617  -28.1300 C   0  0  0  0  0  0  0  0  0  0  0  0
   -3.8912   24.3712  -29.0672 C   0  0  0  0  0  0  0  0  0  0  0  0
   -3.2994   23.2206  -28.5987 C   0  0  0  0  0  0  0  0  0  0  0  0
   -3.1947   22.9513  -27.2430 C   0  0  0  0  0  0  0  0  0  0  0  0
   -3.6929   23.8499  -26.3431 C   0  0  0  0  0  0  0  0  0  0  0  0
   -6.1807   22.7259  -21.1478 C   0  0  0  0  0  0  0  0  0  0  0  0
   -5.4693   23.2551  -18.7232 C   0  0  0  0  0  0  0  0  0  0  0  0
   -5.6143   23.5924  -20.1362 C   0  0  0  0  0  0  0  0  0  0  0  0
   -6.4256   24.9252  -20.1781 C   0  0  0  0  0  0  0  0  0  0  0  0
   -1.3196   20.9237  -22.1017 N   0  0  0  0  0  0  0  0  0  0  0  0
   -0.7531   21.4467  -20.8972 C   0  0  0  0  0  0  0  0  0  0  0  0
   -0.8307   22.7321  -20.8390 O   0  0  0  0  0  0  0  0  0  0  0  0
   -1.2966   19.9142  -22.1812 H   0  0  0  0  0  0  0  0  0  0  0  0
   -0.1304   20.7995  -19.7783 C   0  0  0  0  0  0  0  0  0  0  0  0
    0.1490   19.3981  -20.0532 N   0  0  0  0  0  0  0  0  0  0  0  0
   -0.4140   18.2880  -19.4033 C   0  0  0  0  0  0  0  0  0  0  0  0
   -1.2448   18.4333  -18.4888 O   0  0  0  0  0  0  0  0  0  0  0  0
    0.8409   19.2254  -20.8212 H   0  0  0  0  0  0  0  0  0  0  0  0
   -0.0264   16.8826  -19.7878 C   0  0  0  0  0  0  0  0  0  0  0  0
   -1.2683   16.1152  -19.8703 N   0  0  0  0  0  0  0  0  0  0  0  0
   -1.3425   14.8327  -19.2723 C   0  0  0  0  0  0  0  0  0  0  0  0
   -2.6382   14.0878  -19.3792 C   0  0  0  0  0  0  0  0  0  0  0  0
   -0.3836   14.3202  -18.6724 O   0  0  0  0  0  0  0  0  0  0  0  0
   -2.0600   16.5542  -20.3756 H   0  0  0  0  0  0  0  0  0  0  0  0
    0.7101   16.8140  -21.0882 C   0  0  0  0  0  0  0  0  0  0  0  0
    2.0738   16.3133  -21.0231 C   0  0  0  0  0  0  0  0  0  0  0  0
    2.7305   16.0684  -22.2255 C   0  0  0  0  0  0  0  0  0  0  0  0
    4.0173   15.5911  -22.1892 C   0  0  0  0  0  0  0  0  0  0  0  0
    4.6765   15.3494  -21.0018 C   0  0  0  0  0  0  0  0  0  0  0  0
    4.0412   15.5864  -19.8346 C   0  0  0  0  0  0  0  0  0  0  0  0
    2.7289   16.0729  -19.8614 C   0  0  0  0  0  0  0  0  0  0  0  0
    1.0035   21.4297  -19.1044 C   0  0  0  0  0  0  0  0  0  0  0  0
    1.2441   21.3330  -17.6709 C   0  0  0  0  0  0  0  0  0  0  0  0
    2.2270   22.4677  -17.3060 C   0  0  0  0  0  0  0  0  0  0  0  0
    0.0810   21.4911  -16.7567 C   0  0  0  0  0  0  0  0  0  0  0  0
   -1.2563   21.6140  -24.4468 C   0  0  0  0  0  0  0  0  0  0  0  0
   -0.0494   22.3989  -24.7857 C   0  0  0  0  0  0  0  0  0  0  0  0
    0.2876   22.6300  -26.2147 C   0  0  0  0  0  0  0  0  0  0  0  0
    1.1916   21.7161  -24.1708 C   0  0  0  0  0  0  0  0  0  0  0  0
 24 25  1  0  0  0
 25 26  1  0  0  0
 25 23  1  0  0  0
 23  6  1  0  0  0
  6  2  1  0  0  0
  2  3  1  0  0  0
  3  4  2  0  0  0
  3  1  1  0  0  0
  1 53  1  0  0  0
 53 54  1  0  0  0
 54 55  1  0  0  0
 54 56  1  0  0  0
  1 27  1  0  0  0
 27 28  1  0  0  0
 28 29  2  0  0  0
 28 31  1  0  0  0
 31 49  1  0  0  0
 49 50  1  0  0  0
 50 51  1  0  0  0
 50 52  1  0  0  0
 31 32  1  0  0  0
 32 33  1  0  0  0
 33 34  2  0  0  0
 33 36  1  0  0  0
 36 42  1  0  0  0
 42 43  1  0  0  0
 43 44  2  0  0  0
 44 45  1  0  0  0
 45 46  2  0  0  0
 46 47  1  0  0  0
 47 48  2  0  0  0
 36 37  1  0  0  0
 37 38  1  0  0  0
 38 39  1  0  0  0
 38 40  2  0  0  0
  6  7  1  0  0  0
  7  8  2  0  0  0
  7  9  1  0  0  0
  9 11  1  0  0  0
 11 16  1  0  0  0
 16 17  1  0  0  0
 17 18  2  0  0  0
 18 19  1  0  0  0
 19 20  2  0  0  0
 20 21  1  0  0  0
 21 22  2  0  0  0
 11 12  1  0  0  0
 12 13  1  0  0  0
 12 14  2  0  0  0
 48 43  1  0  0  0
 22 17  1  0  0  0
  2  5  1  0  0  0
 27 30  1  0  0  0
 32 35  1  0  0  0
 37 41  1  0  0  0
  9 10  1  0  0  0
 13 15  1  0  0  0
M  END
> <minimizedAffinity>
-7.75386

> <CNNscore>
0.2392467558

> <CNNaffinity>
6.5237874985

> <CNN_VS>
1.5607949495

> <CNNaffinity_variance>
0.9901024699

$$$$
[H]OC(=O)[C@@]([H])(N([H])C(=O)[C@@]([H])(N([H])C(=O)[C@@]([H])(N([H])C(=O)[C@@]([H])(N([H])C(=O)[C@@]([H])(N([H])C(=O)C([H])([H])[H])C([H])([H])c1c([H])c([H])c([H])c([H])c1[H])C([H])([H])C([H])(C([H])([H])[H])C([H])([H])[H])C([H])([H])C([H])(C([H])([H])[H])C([H])([H])[H])C([H])([H])C([H])(C([H])([H])[H])C([H])([H])[H])C([H])([H])c1c([H])c([H])c([H])c([H])c1[H]


 56 57  0  0  0  0  0  0  0  0999 V2000
   -1.7792   22.0178  -22.8783 C   0  0  0  0  0  0  0  0  0  0  0  0
   -4.1856   22.6124  -22.3600 N   0  0  0  0  0  0  0  0  0  0  0  0
   -3.2714   21.8731  -23.1267 C   0  0  0  0  0  0  0  0  0  0  0  0
   -3.6522   21.0930  -24.0090 O   0  0  0  0  0  0  0  0  0  0  0  0
   -3.8731   23.2441  -21.6232 H   0  0  0  0  0  0  0  0  0  0  0  0
   -5.6769   22.4873  -22.6147 C   0  0  0  0  0  0  0  0  0  0  0  0
   -5.8997   23.3991  -23.7120 C   0  0  0  0  0  0  0  0  0  0  0  0
   -6.4400   22.7885  -24.7528 O   0  0  0  0  0  0  0  0  0  0  0  0
   -5.6708   24.7413  -23.9208 N   0  0  0  0  0  0  0  0  0  0  0  0
   -5.1319   25.3176  -23.1772 H   0  0  0  0  0  0  0  0  0  0  0  0
   -5.9665   25.5772  -25.0767 C   0  0  0  0  0  0  0  0  0  0  0  0
   -7.1764   25.2727  -25.8219 C   0  0  0  0  0  0  0  0  0  0  0  0
   -8.3979   24.9828  -25.1573 O   0  0  0  0  0  0  0  0  0  0  0  0
   -7.3214   25.2169  -27.0807 O   0  0  0  0  0  0  0  0  0  0  0  0
   -8.4135   24.1173  -24.6324 H   0  0  0  0  0  0  0  0  0  0  0  0
   -4.7277   25.9319  -25.8129 C   0  0  0  0  0  0  0  0  0  0  0  0
   -4.1206   24.9254  -26.6789 C   0  0  0  0  0  0  0  0  0  0  0  0
   -3.3983   23.8547  -26.2027 C   0  0  0  0  0  0  0  0  0  0  0  0
   -2.8304   22.9038  -27.0320 C   0  0  0  0  0  0  0  0  0  0  0  0
   -3.0109   23.0558  -28.3877 C   0  0  0  0  0  0  0  0  0  0  0  0
   -3.7310   24.1159  -28.9157 C   0  0  0  0  0  0  0  0  0  0  0  0
   -4.2776   25.0390  -28.0703 C   0  0  0  0  0  0  0  0  0  0  0  0
   -6.3218   22.5792  -21.3048 C   0  0  0  0  0  0  0  0  0  0  0  0
   -8.3855   21.4977  -20.1928 C   0  0  0  0  0  0  0  0  0  0  0  0
   -6.9876   21.4956  -20.6138 C   0  0  0  0  0  0  0  0  0  0  0  0
   -6.1528   21.1998  -19.3285 C   0  0  0  0  0  0  0  0  0  0  0  0
   -1.3519   21.4946  -21.6314 N   0  0  0  0  0  0  0  0  0  0  0  0
   -1.1727   22.3498  -20.4992 C   0  0  0  0  0  0  0  0  0  0  0  0
   -1.4752   23.5754  -20.7603 O   0  0  0  0  0  0  0  0  0  0  0  0
   -1.1429   20.5174  -21.4657 H   0  0  0  0  0  0  0  0  0  0  0  0
   -0.7245   22.0799  -19.1633 C   0  0  0  0  0  0  0  0  0  0  0  0
   -0.5025   20.6583  -18.9459 N   0  0  0  0  0  0  0  0  0  0  0  0
   -1.4421   19.7250  -18.4790 C   0  0  0  0  0  0  0  0  0  0  0  0
   -2.6046   20.0694  -18.2010 O   0  0  0  0  0  0  0  0  0  0  0  0
    0.4633   20.3198  -19.1719 H   0  0  0  0  0  0  0  0  0  0  0  0
   -1.0719   18.2753  -18.2933 C   0  0  0  0  0  0  0  0  0  0  0  0
    0.2158   18.2591  -17.6006 N   0  0  0  0  0  0  0  0  0  0  0  0
    1.3106   17.5623  -18.1695 C   0  0  0  0  0  0  0  0  0  0  0  0
    2.6106   17.5794  -17.4245 C   0  0  0  0  0  0  0  0  0  0  0  0
    1.2252   16.9520  -19.2475 O   0  0  0  0  0  0  0  0  0  0  0  0
    0.2724   18.7709  -16.7009 H   0  0  0  0  0  0  0  0  0  0  0  0
   -2.0891   17.5074  -17.5100 C   0  0  0  0  0  0  0  0  0  0  0  0
   -2.8938   16.5605  -18.2651 C   0  0  0  0  0  0  0  0  0  0  0  0
   -2.2408   15.7495  -19.1886 C   0  0  0  0  0  0  0  0  0  0  0  0
   -2.9805   14.8506  -19.9166 C   0  0  0  0  0  0  0  0  0  0  0  0
   -4.3454   14.7267  -19.7599 C   0  0  0  0  0  0  0  0  0  0  0  0
   -4.9804   15.5124  -18.8646 C   0  0  0  0  0  0  0  0  0  0  0  0
   -4.2348   16.4322  -18.1177 C   0  0  0  0  0  0  0  0  0  0  0  0
    0.3610   22.8671  -18.5808 C   0  0  0  0  0  0  0  0  0  0  0  0
    1.4095   22.2987  -17.7443 C   0  0  0  0  0  0  0  0  0  0  0  0
    2.5950   23.2886  -17.7809 C   0  0  0  0  0  0  0  0  0  0  0  0
    1.1085   22.0757  -16.3045 C   0  0  0  0  0  0  0  0  0  0  0  0
   -1.0309   21.4922  -24.0556 C   0  0  0  0  0  0  0  0  0  0  0  0
    0.1552   22.2435  -24.5208 C   0  0  0  0  0  0  0  0  0  0  0  0
    0.4205   22.3490  -25.9793 C   0  0  0  0  0  0  0  0  0  0  0  0
    1.4273   21.6159  -23.9108 C   0  0  0  0  0  0  0  0  0  0  0  0
 24 25  1  0  0  0
 25 26  1  0  0  0
 25 23  1  0  0  0
 23  6  1  0  0  0
  6  2  1  0  0  0
  2  3  1  0  0  0
  3  4  2  0  0  0
  3  1  1  0  0  0
  1 53  1  0  0  0
 53 54  1  0  0  0
 54 55  1  0  0  0
 54 56  1  0  0  0
  1 27  1  0  0  0
 27 28  1  0  0  0
 28 29  2  0  0  0
 28 31  1  0  0  0
 31 49  1  0  0  0
 49 50  1  0  0  0
 50 51  1  0  0  0
 50 52  1  0  0  0
 31 32  1  0  0  0
 32 33  1  0  0  0
 33 34  2  0  0  0
 33 36  1  0  0  0
 36 42  1  0  0  0
 42 43  1  0  0  0
 43 44  2  0  0  0
 44 45  1  0  0  0
 45 46  2  0  0  0
 46 47  1  0  0  0
 47 48  2  0  0  0
 36 37  1  0  0  0
 37 38  1  0  0  0
 38 39  1  0  0  0
 38 40  2  0  0  0
  6  7  1  0  0  0
  7  8  2  0  0  0
  7  9  1  0  0  0
  9 11  1  0  0  0
 11 16  1  0  0  0
 16 17  1  0  0  0
 17 18  2  0  0  0
 18 19  1  0  0  0
 19 20  2  0  0  0
 20 21  1  0  0  0
 21 22  2  0  0  0
 11 12  1  0  0  0
 12 13  1  0  0  0
 12 14  2  0  0  0
 48 43  1  0  0  0
 22 17  1  0  0  0
  2  5  1  0  0  0
 27 30  1  0  0  0
 32 35  1  0  0  0
 37 41  1  0  0  0
  9 10  1  0  0  0
 13 15  1  0  0  0
M  END
> <minimizedAffinity>
-7.34115

> <CNNscore>
0.1993225962

> <CNNaffinity>
6.9297347069

> <CNN_VS>
1.3812527657

> <CNNaffinity_variance>
0.6014576554

$$$$
[H]OC(=O)[C@@]([H])(N([H])C(=O)[C@@]([H])(N([H])C(=O)[C@@]([H])(N([H])C(=O)[C@@]([H])(N([H])C(=O)[C@@]([H])(N([H])C(=O)C([H])([H])[H])C([H])([H])c1c([H])c([H])c([H])c([H])c1[H])C([H])([H])C([H])(C([H])([H])[H])C([H])([H])[H])C([H])([H])C([H])(C([H])([H])[H])C([H])([H])[H])C([H])([H])C([H])(C([H])([H])[H])C([H])([H])[H])C([H])([H])c1c([H])c([H])c([H])c([H])c1[H]


 56 57  0  0  0  0  0  0  0  0999 V2000
   -1.4108   21.8636  -20.3172 C   0  0  0  0  0  0  0  0  0  0  0  0
   -0.3085   19.5978  -20.0643 N   0  0  0  0  0  0  0  0  0  0  0  0
   -0.7814   20.6137  -20.9095 C   0  0  0  0  0  0  0  0  0  0  0  0
   -0.6954   20.5202  -22.1408 O   0  0  0  0  0  0  0  0  0  0  0  0
   -0.3658   19.6807  -19.0497 H   0  0  0  0  0  0  0  0  0  0  0  0
    0.3045   18.3381  -20.6488 C   0  0  0  0  0  0  0  0  0  0  0  0
   -0.2751   17.2879  -19.8448 C   0  0  0  0  0  0  0  0  0  0  0  0
   -0.4341   17.6660  -18.5879 O   0  0  0  0  0  0  0  0  0  0  0  0
   -0.6854   15.9952  -20.0855 N   0  0  0  0  0  0  0  0  0  0  0  0
   -0.5012   15.5433  -21.0535 H   0  0  0  0  0  0  0  0  0  0  0  0
   -1.2925   15.0191  -19.1904 C   0  0  0  0  0  0  0  0  0  0  0  0
   -0.3965   14.1067  -18.5000 C   0  0  0  0  0  0  0  0  0  0  0  0
   -0.7869   12.7733  -18.2044 O   0  0  0  0  0  0  0  0  0  0  0  0
    0.7782   14.3380  -18.0813 O   0  0  0  0  0  0  0  0  0  0  0  0
   -1.5301   12.6776  -17.5238 H   0  0  0  0  0  0  0  0  0  0  0  0
   -2.5700   14.5055  -19.7443 C   0  0  0  0  0  0  0  0  0  0  0  0
   -3.8039   15.2157  -19.4209 C   0  0  0  0  0  0  0  0  0  0  0  0
   -3.8797   16.2027  -18.4643 C   0  0  0  0  0  0  0  0  0  0  0  0
   -5.0535   16.8728  -18.1683 C   0  0  0  0  0  0  0  0  0  0  0  0
   -6.1801   16.5207  -18.8755 C   0  0  0  0  0  0  0  0  0  0  0  0
   -6.1545   15.5344  -19.8491 C   0  0  0  0  0  0  0  0  0  0  0  0
   -4.9802   14.8902  -20.1165 C   0  0  0  0  0  0  0  0  0  0  0  0
    1.7377   18.6038  -20.7734 C   0  0  0  0  0  0  0  0  0  0  0  0
    3.2560   19.8199  -19.0762 C   0  0  0  0  0  0  0  0  0  0  0  0
    2.6912   18.6190  -19.6846 C   0  0  0  0  0  0  0  0  0  0  0  0
    3.9090   17.7549  -20.1393 C   0  0  0  0  0  0  0  0  0  0  0  0
   -2.6864   22.1731  -20.8539 N   0  0  0  0  0  0  0  0  0  0  0  0
   -2.9166   23.4109  -21.5323 C   0  0  0  0  0  0  0  0  0  0  0  0
   -1.8508   24.1321  -21.6074 O   0  0  0  0  0  0  0  0  0  0  0  0
   -3.4943   21.5657  -20.7879 H   0  0  0  0  0  0  0  0  0  0  0  0
   -4.0997   23.9675  -22.1230 C   0  0  0  0  0  0  0  0  0  0  0  0
   -4.3191   23.4616  -23.4696 N   0  0  0  0  0  0  0  0  0  0  0  0
   -4.3226   24.2118  -24.6567 C   0  0  0  0  0  0  0  0  0  0  0  0
   -4.1254   25.4399  -24.6399 O   0  0  0  0  0  0  0  0  0  0  0  0
   -4.4850   22.4288  -23.5347 H   0  0  0  0  0  0  0  0  0  0  0  0
   -4.5714   23.5551  -25.9909 C   0  0  0  0  0  0  0  0  0  0  0  0
   -4.1403   24.5089  -27.0119 N   0  0  0  0  0  0  0  0  0  0  0  0
   -4.9266   24.6948  -28.1760 C   0  0  0  0  0  0  0  0  0  0  0  0
   -4.4457   25.6870  -29.1907 C   0  0  0  0  0  0  0  0  0  0  0  0
   -5.9829   24.0726  -28.3737 O   0  0  0  0  0  0  0  0  0  0  0  0
   -3.2558   25.0198  -26.8350 H   0  0  0  0  0  0  0  0  0  0  0  0
   -3.8389   22.2606  -26.1514 C   0  0  0  0  0  0  0  0  0  0  0  0
   -2.4020   22.3613  -26.3504 C   0  0  0  0  0  0  0  0  0  0  0  0
   -1.5792   22.1228  -25.2535 C   0  0  0  0  0  0  0  0  0  0  0  0
   -0.2192   22.2165  -25.4162 C   0  0  0  0  0  0  0  0  0  0  0  0
    0.3539   22.5371  -26.6292 C   0  0  0  0  0  0  0  0  0  0  0  0
   -0.4424   22.7688  -27.6942 C   0  0  0  0  0  0  0  0  0  0  0  0
   -1.8305   22.6760  -27.5382 C   0  0  0  0  0  0  0  0  0  0  0  0
   -5.3528   23.9932  -21.3705 C   0  0  0  0  0  0  0  0  0  0  0  0
   -6.2397   25.1478  -21.3215 C   0  0  0  0  0  0  0  0  0  0  0  0
   -7.4335   24.8330  -22.2502 C   0  0  0  0  0  0  0  0  0  0  0  0
   -6.8315   25.5169  -20.0073 C   0  0  0  0  0  0  0  0  0  0  0  0
   -1.3735   21.7759  -18.8295 C   0  0  0  0  0  0  0  0  0  0  0  0
   -0.3473   22.5610  -18.1096 C   0  0  0  0  0  0  0  0  0  0  0  0
    0.7161   23.2495  -18.8867 C   0  0  0  0  0  0  0  0  0  0  0  0
    0.3936   21.6407  -17.1154 C   0  0  0  0  0  0  0  0  0  0  0  0
 24 25  1  0  0  0
 25 26  1  0  0  0
 25 23  1  0  0  0
 23  6  1  0  0  0
  6  2  1  0  0  0
  2  3  1  0  0  0
  3  4  2  0  0  0
  3  1  1  0  0  0
  1 53  1  0  0  0
 53 54  1  0  0  0
 54 55  1  0  0  0
 54 56  1  0  0  0
  1 27  1  0  0  0
 27 28  1  0  0  0
 28 29  2  0  0  0
 28 31  1  0  0  0
 31 49  1  0  0  0
 49 50  1  0  0  0
 50 51  1  0  0  0
 50 52  1  0  0  0
 31 32  1  0  0  0
 32 33  1  0  0  0
 33 34  2  0  0  0
 33 36  1  0  0  0
 36 42  1  0  0  0
 42 43  1  0  0  0
 43 44  2  0  0  0
 44 45  1  0  0  0
 45 46  2  0  0  0
 46 47  1  0  0  0
 47 48  2  0  0  0
 36 37  1  0  0  0
 37 38  1  0  0  0
 38 39  1  0  0  0
 38 40  2  0  0  0
  6  7  1  0  0  0
  7  8  2  0  0  0
  7  9  1  0  0  0
  9 11  1  0  0  0
 11 16  1  0  0  0
 16 17  1  0  0  0
 17 18  2  0  0  0
 18 19  1  0  0  0
 19 20  2  0  0  0
 20 21  1  0  0  0
 21 22  2  0  0  0
 11 12  1  0  0  0
 12 13  1  0  0  0
 12 14  2  0  0  0
 48 43  1  0  0  0
 22 17  1  0  0  0
  2  5  1  0  0  0
 27 30  1  0  0  0
 32 35  1  0  0  0
 37 41  1  0  0  0
  9 10  1  0  0  0
 13 15  1  0  0  0
M  END
> <minimizedAffinity>
-7.52574

> <CNNscore>
0.1902297437

> <CNNaffinity>
6.8513717651

> <CNN_VS>
1.3033347130

> <CNNaffinity_variance>
0.3548980951

$$$$
[H]OC(=O)[C@@]([H])(N([H])C(=O)[C@@]([H])(N([H])C(=O)[C@@]([H])(N([H])C(=O)[C@@]([H])(N([H])C(=O)[C@@]([H])(N([H])C(=O)C([H])([H])[H])C([H])([H])c1c([H])c([H])c([H])c([H])c1[H])C([H])([H])C([H])(C([H])([H])[H])C([H])([H])[H])C([H])([H])C([H])(C([H])([H])[H])C([H])([H])[H])C([H])([H])C([H])(C([H])([H])[H])C([H])([H])[H])C([H])([H])c1c([H])c([H])c([H])c([H])c1[H]


 56 57  0  0  0  0  0  0  0  0999 V2000
   -1.8028   22.0624  -22.7039 C   0  0  0  0  0  0  0  0  0  0  0  0
   -4.1932   22.7455  -22.2221 N   0  0  0  0  0  0  0  0  0  0  0  0
   -3.2992   21.9295  -22.9327 C   0  0  0  0  0  0  0  0  0  0  0  0
   -3.7015   21.0904  -23.7489 O   0  0  0  0  0  0  0  0  0  0  0  0
   -3.8631   23.4266  -21.5389 H   0  0  0  0  0  0  0  0  0  0  0  0
   -5.6883   22.6317  -22.4587 C   0  0  0  0  0  0  0  0  0  0  0  0
   -5.9056   23.4881  -23.6008 C   0  0  0  0  0  0  0  0  0  0  0  0
   -6.4630   22.8323  -24.6044 O   0  0  0  0  0  0  0  0  0  0  0  0
   -5.6580   24.8138  -23.8813 N   0  0  0  0  0  0  0  0  0  0  0  0
   -5.1048   25.4198  -23.1727 H   0  0  0  0  0  0  0  0  0  0  0  0
   -5.9499   25.5924  -25.0775 C   0  0  0  0  0  0  0  0  0  0  0  0
   -7.1619   25.2578  -25.8061 C   0  0  0  0  0  0  0  0  0  0  0  0
   -8.3860   25.0144  -25.1278 O   0  0  0  0  0  0  0  0  0  0  0  0
   -7.3068   25.1349  -27.0602 O   0  0  0  0  0  0  0  0  0  0  0  0
   -8.4090   24.1789  -24.5567 H   0  0  0  0  0  0  0  0  0  0  0  0
   -4.7095   25.9031  -25.8310 C   0  0  0  0  0  0  0  0  0  0  0  0
   -4.1287   24.8624  -26.6743 C   0  0  0  0  0  0  0  0  0  0  0  0
   -3.4912   23.7505  -26.1720 C   0  0  0  0  0  0  0  0  0  0  0  0
   -2.9477   22.7677  -26.9801 C   0  0  0  0  0  0  0  0  0  0  0  0
   -3.0637   22.9303  -28.3416 C   0  0  0  0  0  0  0  0  0  0  0  0
   -3.6975   24.0315  -28.8956 C   0  0  0  0  0  0  0  0  0  0  0  0
   -4.2221   24.9853  -28.0706 C   0  0  0  0  0  0  0  0  0  0  0  0
   -6.3208   22.8028  -21.1507 C   0  0  0  0  0  0  0  0  0  0  0  0
   -8.1042   21.2970  -20.0476 C   0  0  0  0  0  0  0  0  0  0  0  0
   -6.7282   21.7341  -20.2637 C   0  0  0  0  0  0  0  0  0  0  0  0
   -6.1607   22.0793  -18.8511 C   0  0  0  0  0  0  0  0  0  0  0  0
   -1.3677   21.5631  -21.4499 N   0  0  0  0  0  0  0  0  0  0  0  0
   -1.1603   22.4429  -20.3415 C   0  0  0  0  0  0  0  0  0  0  0  0
   -1.4467   23.6664  -20.6291 O   0  0  0  0  0  0  0  0  0  0  0  0
   -1.1720   20.5870  -21.2626 H   0  0  0  0  0  0  0  0  0  0  0  0
   -0.6992   22.1987  -19.0051 C   0  0  0  0  0  0  0  0  0  0  0  0
   -1.2831   20.9888  -18.4458 N   0  0  0  0  0  0  0  0  0  0  0  0
   -2.3942   20.9123  -17.5905 C   0  0  0  0  0  0  0  0  0  0  0  0
   -2.9963   21.9386  -17.2278 O   0  0  0  0  0  0  0  0  0  0  0  0
   -0.8116   20.0965  -18.7280 H   0  0  0  0  0  0  0  0  0  0  0  0
   -2.8912   19.5842  -17.0782 C   0  0  0  0  0  0  0  0  0  0  0  0
   -1.7969   19.0000  -16.3039 N   0  0  0  0  0  0  0  0  0  0  0  0
   -1.3501   17.6881  -16.5989 C   0  0  0  0  0  0  0  0  0  0  0  0
   -0.2227   17.1355  -15.7811 C   0  0  0  0  0  0  0  0  0  0  0  0
   -1.8553   16.9982  -17.4994 O   0  0  0  0  0  0  0  0  0  0  0  0
   -1.3859   19.5862  -15.5541 H   0  0  0  0  0  0  0  0  0  0  0  0
   -4.1168   19.7063  -16.2291 C   0  0  0  0  0  0  0  0  0  0  0  0
   -5.3526   19.2169  -16.8188 C   0  0  0  0  0  0  0  0  0  0  0  0
   -5.2584   18.4648  -17.9860 C   0  0  0  0  0  0  0  0  0  0  0  0
   -6.4122   17.9956  -18.5635 C   0  0  0  0  0  0  0  0  0  0  0  0
   -7.6566   18.2452  -18.0232 C   0  0  0  0  0  0  0  0  0  0  0  0
   -7.7500   18.9744  -16.8912 C   0  0  0  0  0  0  0  0  0  0  0  0
   -6.5791   19.4574  -16.2950 C   0  0  0  0  0  0  0  0  0  0  0  0
    0.7278   22.2737  -18.6964 C   0  0  0  0  0  0  0  0  0  0  0  0
    1.3522   21.5571  -17.5924 C   0  0  0  0  0  0  0  0  0  0  0  0
    2.8790   21.6402  -17.8134 C   0  0  0  0  0  0  0  0  0  0  0  0
    1.1120   22.0575  -16.2120 C   0  0  0  0  0  0  0  0  0  0  0  0
   -1.0736   21.5010  -23.8767 C   0  0  0  0  0  0  0  0  0  0  0  0
    0.1158   22.2273  -24.3719 C   0  0  0  0  0  0  0  0  0  0  0  0
    0.3300   22.3540  -25.8372 C   0  0  0  0  0  0  0  0  0  0  0  0
    1.3908   21.5518  -23.8220 C   0  0  0  0  0  0  0  0  0  0  0  0
 24 25  1  0  0  0
 25 26  1  0  0  0
 25 23  1  0  0  0
 23  6  1  0  0  0
  6  2  1  0  0  0
  2  3  1  0  0  0
  3  4  2  0  0  0
  3  1  1  0  0  0
  1 53  1  0  0  0
 53 54  1  0  0  0
 54 55  1  0  0  0
 54 56  1  0  0  0
  1 27  1  0  0  0
 27 28  1  0  0  0
 28 29  2  0  0  0
 28 31  1  0  0  0
 31 49  1  0  0  0
 49 50  1  0  0  0
 50 51  1  0  0  0
 50 52  1  0  0  0
 31 32  1  0  0  0
 32 33  1  0  0  0
 33 34  2  0  0  0
 33 36  1  0  0  0
 36 42  1  0  0  0
 42 43  1  0  0  0
 43 44  2  0  0  0
 44 45  1  0  0  0
 45 46  2  0  0  0
 46 47  1  0  0  0
 47 48  2  0  0  0
 36 37  1  0  0  0
 37 38  1  0  0  0
 38 39  1  0  0  0
 38 40  2  0  0  0
  6  7  1  0  0  0
  7  8  2  0  0  0
  7  9  1  0  0  0
  9 11  1  0  0  0
 11 16  1  0  0  0
 16 17  1  0  0  0
 17 18  2  0  0  0
 18 19  1  0  0  0
 19 20  2  0  0  0
 20 21  1  0  0  0
 21 22  2  0  0  0
 11 12  1  0  0  0
 12 13  1  0  0  0
 12 14  2  0  0  0
 48 43  1  0  0  0
 22 17  1  0  0  0
  2  5  1  0  0  0
 27 30  1  0  0  0
 32 35  1  0  0  0
 37 41  1  0  0  0
  9 10  1  0  0  0
 13 15  1  0  0  0
M  END
> <minimizedAffinity>
-6.82926

> <CNNscore>
0.1856903434

> <CNNaffinity>
6.6647262573

> <CNN_VS>
1.2375752926

> <CNNaffinity_variance>
0.7902760506

$$$$
[H]OC(=O)[C@@]([H])(N([H])C(=O)[C@@]([H])(N([H])C(=O)[C@@]([H])(N([H])C(=O)[C@@]([H])(N([H])C(=O)[C@@]([H])(N([H])C(=O)C([H])([H])[H])C([H])([H])c1c([H])c([H])c([H])c([H])c1[H])C([H])([H])C([H])(C([H])([H])[H])C([H])([H])[H])C([H])([H])C([H])(C([H])([H])[H])C([H])([H])[H])C([H])([H])C([H])(C([H])([H])[H])C([H])([H])[H])C([H])([H])c1c([H])c([H])c([H])c([H])c1[H]


 56 57  0  0  0  0  0  0  0  0999 V2000
   -1.9119   22.0436  -23.7841 C   0  0  0  0  0  0  0  0  0  0  0  0
   -3.7205   22.8140  -22.1877 N   0  0  0  0  0  0  0  0  0  0  0  0
   -3.3284   21.9704  -23.2388 C   0  0  0  0  0  0  0  0  0  0  0  0
   -4.1140   21.1545  -23.7381 O   0  0  0  0  0  0  0  0  0  0  0  0
   -3.0695   23.4759  -21.7663 H   0  0  0  0  0  0  0  0  0  0  0  0
   -5.1390   22.7599  -21.6500 C   0  0  0  0  0  0  0  0  0  0  0  0
   -5.8269   23.7544  -22.4392 C   0  0  0  0  0  0  0  0  0  0  0  0
   -6.9574   23.2853  -22.9393 O   0  0  0  0  0  0  0  0  0  0  0  0
   -5.5707   25.0609  -22.7925 N   0  0  0  0  0  0  0  0  0  0  0  0
   -4.6209   25.5131  -22.5305 H   0  0  0  0  0  0  0  0  0  0  0  0
   -6.3622   25.9939  -23.5833 C   0  0  0  0  0  0  0  0  0  0  0  0
   -7.7919   25.7462  -23.6644 C   0  0  0  0  0  0  0  0  0  0  0  0
   -8.3542   25.0230  -24.7500 O   0  0  0  0  0  0  0  0  0  0  0  0
   -8.6920   26.1107  -22.8484 O   0  0  0  0  0  0  0  0  0  0  0  0
   -8.3067   25.4826  -25.6507 H   0  0  0  0  0  0  0  0  0  0  0  0
   -5.6276   26.4240  -24.7990 C   0  0  0  0  0  0  0  0  0  0  0  0
   -5.4912   25.4764  -25.9012 C   0  0  0  0  0  0  0  0  0  0  0  0
   -5.0094   24.1966  -25.7428 C   0  0  0  0  0  0  0  0  0  0  0  0
   -4.8879   23.3048  -26.7936 C   0  0  0  0  0  0  0  0  0  0  0  0
   -5.2737   23.7386  -28.0412 C   0  0  0  0  0  0  0  0  0  0  0  0
   -5.7660   25.0171  -28.2515 C   0  0  0  0  0  0  0  0  0  0  0  0
   -5.8719   25.8745  -27.1936 C   0  0  0  0  0  0  0  0  0  0  0  0
   -5.0219   22.7814  -20.1920 C   0  0  0  0  0  0  0  0  0  0  0  0
   -7.4510   22.2079  -19.5319 C   0  0  0  0  0  0  0  0  0  0  0  0
   -6.0205   22.3069  -19.2578 C   0  0  0  0  0  0  0  0  0  0  0  0
   -5.8894   23.1842  -17.9733 C   0  0  0  0  0  0  0  0  0  0  0  0
   -0.9686   21.2975  -23.0326 N   0  0  0  0  0  0  0  0  0  0  0  0
   -0.3553   21.8529  -21.8661 C   0  0  0  0  0  0  0  0  0  0  0  0
   -0.7907   23.0371  -21.6023 O   0  0  0  0  0  0  0  0  0  0  0  0
   -0.6687   20.3588  -23.2669 H   0  0  0  0  0  0  0  0  0  0  0  0
    0.6347   21.3288  -20.9696 C   0  0  0  0  0  0  0  0  0  0  0  0
    0.1098   21.1664  -19.6221 N   0  0  0  0  0  0  0  0  0  0  0  0
    0.2512   22.0662  -18.5534 C   0  0  0  0  0  0  0  0  0  0  0  0
    0.8744   23.1339  -18.6919 O   0  0  0  0  0  0  0  0  0  0  0  0
   -0.4283   20.2821  -19.4586 H   0  0  0  0  0  0  0  0  0  0  0  0
   -0.3424   21.7659  -17.2003 C   0  0  0  0  0  0  0  0  0  0  0  0
   -1.4954   20.8975  -17.4343 N   0  0  0  0  0  0  0  0  0  0  0  0
   -2.6896   21.1026  -16.6997 C   0  0  0  0  0  0  0  0  0  0  0  0
   -3.8449   20.1902  -16.9789 C   0  0  0  0  0  0  0  0  0  0  0  0
   -2.8039   22.0006  -15.8497 O   0  0  0  0  0  0  0  0  0  0  0  0
   -1.3855   20.1509  -18.1450 H   0  0  0  0  0  0  0  0  0  0  0  0
    0.6243   21.1017  -16.2717 C   0  0  0  0  0  0  0  0  0  0  0  0
    1.1432   21.9278  -15.1935 C   0  0  0  0  0  0  0  0  0  0  0  0
    2.2906   22.6741  -15.4457 C   0  0  0  0  0  0  0  0  0  0  0  0
    2.8016   23.4583  -14.4413 C   0  0  0  0  0  0  0  0  0  0  0  0
    2.2138   23.5296  -13.1955 C   0  0  0  0  0  0  0  0  0  0  0  0
    1.1008   22.8067  -12.9490 C   0  0  0  0  0  0  0  0  0  0  0  0
    0.5723   22.0038  -13.9667 C   0  0  0  0  0  0  0  0  0  0  0  0
    1.4329   20.1667  -21.3564 C   0  0  0  0  0  0  0  0  0  0  0  0
    2.7775   20.2605  -21.9089 C   0  0  0  0  0  0  0  0  0  0  0  0
    3.3377   18.8219  -21.9659 C   0  0  0  0  0  0  0  0  0  0  0  0
    2.9299   20.8123  -23.2822 C   0  0  0  0  0  0  0  0  0  0  0  0
   -1.9280   21.7264  -25.2406 C   0  0  0  0  0  0  0  0  0  0  0  0
   -1.1690   22.6069  -26.1550 C   0  0  0  0  0  0  0  0  0  0  0  0
   -1.5379   22.6483  -27.5942 C   0  0  0  0  0  0  0  0  0  0  0  0
    0.3236   22.2130  -26.1194 C   0  0  0  0  0  0  0  0  0  0  0  0
 24 25  1  0  0  0
 25 26  1  0  0  0
 25 23  1  0  0  0
 23  6  1  0  0  0
  6  2  1  0  0  0
  2  3  1  0  0  0
  3  4  2  0  0  0
  3  1  1  0  0  0
  1 53  1  0  0  0
 53 54  1  0  0  0
 54 55  1  0  0  0
 54 56  1  0  0  0
  1 27  1  0  0  0
 27 28  1  0  0  0
 28 29  2  0  0  0
 28 31  1  0  0  0
 31 49  1  0  0  0
 49 50  1  0  0  0
 50 51  1  0  0  0
 50 52  1  0  0  0
 31 32  1  0  0  0
 32 33  1  0  0  0
 33 34  2  0  0  0
 33 36  1  0  0  0
 36 42  1  0  0  0
 42 43  1  0  0  0
 43 44  2  0  0  0
 44 45  1  0  0  0
 45 46  2  0  0  0
 46 47  1  0  0  0
 47 48  2  0  0  0
 36 37  1  0  0  0
 37 38  1  0  0  0
 38 39  1  0  0  0
 38 40  2  0  0  0
  6  7  1  0  0  0
  7  8  2  0  0  0
  7  9  1  0  0  0
  9 11  1  0  0  0
 11 16  1  0  0  0
 16 17  1  0  0  0
 17 18  2  0  0  0
 18 19  1  0  0  0
 19 20  2  0  0  0
 20 21  1  0  0  0
 21 22  2  0  0  0
 11 12  1  0  0  0
 12 13  1  0  0  0
 12 14  2  0  0  0
 48 43  1  0  0  0
 22 17  1  0  0  0
  2  5  1  0  0  0
 27 30  1  0  0  0
 32 35  1  0  0  0
 37 41  1  0  0  0
  9 10  1  0  0  0
 13 15  1  0  0  0
M  END
> <minimizedAffinity>
-7.28413

> <CNNscore>
0.1586878002

> <CNNaffinity>
6.5687737465

> <CNN_VS>
1.0423842669

> <CNNaffinity_variance>
0.9384570122

$$$$
[H]OC(=O)[C@@]([H])(N([H])C(=O)[C@@]([H])(N([H])C(=O)[C@@]([H])(N([H])C(=O)[C@@]([H])(N([H])C(=O)[C@@]([H])(N([H])C(=O)C([H])([H])[H])C([H])([H])c1c([H])c([H])c([H])c([H])c1[H])C([H])([H])C([H])(C([H])([H])[H])C([H])([H])[H])C([H])([H])C([H])(C([H])([H])[H])C([H])([H])[H])C([H])([H])C([H])(C([H])([H])[H])C([H])([H])[H])C([H])([H])c1c([H])c([H])c([H])c([H])c1[H]


 56 57  0  0  0  0  0  0  0  0999 V2000
   -1.3279   22.1806  -19.3874 C   0  0  0  0  0  0  0  0  0  0  0  0
    1.1525   21.9582  -18.9280 N   0  0  0  0  0  0  0  0  0  0  0  0
    0.0416   22.7901  -19.1377 C   0  0  0  0  0  0  0  0  0  0  0  0
    0.1471   24.0233  -19.1208 O   0  0  0  0  0  0  0  0  0  0  0  0
    1.0635   20.9426  -18.9272 H   0  0  0  0  0  0  0  0  0  0  0  0
    2.5271   22.5593  -18.6965 C   0  0  0  0  0  0  0  0  0  0  0  0
    3.4045   21.6501  -19.3954 C   0  0  0  0  0  0  0  0  0  0  0  0
    4.6135   22.1615  -19.5528 O   0  0  0  0  0  0  0  0  0  0  0  0
    3.2662   20.3910  -19.9369 N   0  0  0  0  0  0  0  0  0  0  0  0
    2.2898   19.9206  -19.9633 H   0  0  0  0  0  0  0  0  0  0  0  0
    4.2433   19.5423  -20.6057 C   0  0  0  0  0  0  0  0  0  0  0  0
    4.3606   19.6771  -22.0479 C   0  0  0  0  0  0  0  0  0  0  0  0
    5.5793   19.3889  -22.7183 O   0  0  0  0  0  0  0  0  0  0  0  0
    3.4684   20.0478  -22.8696 O   0  0  0  0  0  0  0  0  0  0  0  0
    6.3449   20.0214  -22.5215 H   0  0  0  0  0  0  0  0  0  0  0  0
    4.2868   18.1905  -19.9946 C   0  0  0  0  0  0  0  0  0  0  0  0
    3.0982   17.3476  -20.0851 C   0  0  0  0  0  0  0  0  0  0  0  0
    2.2482   17.1229  -19.0257 C   0  0  0  0  0  0  0  0  0  0  0  0
    1.1218   16.3254  -19.1231 C   0  0  0  0  0  0  0  0  0  0  0  0
    0.8600   15.7441  -20.3426 C   0  0  0  0  0  0  0  0  0  0  0  0
    1.6846   15.9410  -21.4391 C   0  0  0  0  0  0  0  0  0  0  0  0
    2.7902   16.7325  -21.3099 C   0  0  0  0  0  0  0  0  0  0  0  0
    2.6019   22.8637  -17.2675 C   0  0  0  0  0  0  0  0  0  0  0  0
    4.3563   24.7576  -17.2763 C   0  0  0  0  0  0  0  0  0  0  0  0
    3.2427   24.0229  -16.6838 C   0  0  0  0  0  0  0  0  0  0  0  0
    3.7151   23.6058  -15.2557 C   0  0  0  0  0  0  0  0  0  0  0  0
   -1.5023   21.6813  -20.7032 N   0  0  0  0  0  0  0  0  0  0  0  0
   -2.3485   22.3562  -21.6380 C   0  0  0  0  0  0  0  0  0  0  0  0
   -2.8604   23.4318  -21.1453 O   0  0  0  0  0  0  0  0  0  0  0  0
   -1.0636   20.8389  -21.0552 H   0  0  0  0  0  0  0  0  0  0  0  0
   -2.7130   22.0443  -22.9902 C   0  0  0  0  0  0  0  0  0  0  0  0
   -3.4905   23.1130  -23.5992 N   0  0  0  0  0  0  0  0  0  0  0  0
   -4.6181   22.9646  -24.4229 C   0  0  0  0  0  0  0  0  0  0  0  0
   -5.0605   21.8375  -24.7078 O   0  0  0  0  0  0  0  0  0  0  0  0
   -3.1579   24.0830  -23.3830 H   0  0  0  0  0  0  0  0  0  0  0  0
   -5.3270   24.1663  -24.9944 C   0  0  0  0  0  0  0  0  0  0  0  0
   -5.6328   25.0455  -23.8667 N   0  0  0  0  0  0  0  0  0  0  0  0
   -6.9077   24.9811  -23.2516 C   0  0  0  0  0  0  0  0  0  0  0  0
   -7.1713   25.8984  -22.0964 C   0  0  0  0  0  0  0  0  0  0  0  0
   -7.7941   24.1999  -23.6340 O   0  0  0  0  0  0  0  0  0  0  0  0
   -4.8846   25.6938  -23.5592 H   0  0  0  0  0  0  0  0  0  0  0  0
   -4.5107   24.8976  -26.0126 C   0  0  0  0  0  0  0  0  0  0  0  0
   -4.8639   24.6607  -27.4031 C   0  0  0  0  0  0  0  0  0  0  0  0
   -5.2784   25.7527  -28.1599 C   0  0  0  0  0  0  0  0  0  0  0  0
   -5.6213   25.5526  -29.4742 C   0  0  0  0  0  0  0  0  0  0  0  0
   -5.5662   24.3073  -30.0650 C   0  0  0  0  0  0  0  0  0  0  0  0
   -5.1644   23.2470  -29.3326 C   0  0  0  0  0  0  0  0  0  0  0  0
   -4.8130   23.4409  -27.9915 C   0  0  0  0  0  0  0  0  0  0  0  0
   -1.7067   21.5412  -23.9237 C   0  0  0  0  0  0  0  0  0  0  0  0
   -1.0251   22.3783  -24.9019 C   0  0  0  0  0  0  0  0  0  0  0  0
    0.4671   21.9799  -24.8674 C   0  0  0  0  0  0  0  0  0  0  0  0
   -1.4438   22.2687  -26.3254 C   0  0  0  0  0  0  0  0  0  0  0  0
   -1.6326   21.1964  -18.3099 C   0  0  0  0  0  0  0  0  0  0  0  0
   -2.9363   21.2994  -17.6190 C   0  0  0  0  0  0  0  0  0  0  0  0
   -4.0838   20.4939  -18.1122 C   0  0  0  0  0  0  0  0  0  0  0  0
   -3.4146   22.7672  -17.6496 C   0  0  0  0  0  0  0  0  0  0  0  0
 24 25  1  0  0  0
 25 26  1  0  0  0
 25 23  1  0  0  0
 23  6  1  0  0  0
  6  2  1  0  0  0
  2  3  1  0  0  0
  3  4  2  0  0  0
  3  1  1  0  0  0
  1 53  1  0  0  0
 53 54  1  0  0  0
 54 55  1  0  0  0
 54 56  1  0  0  0
  1 27  1  0  0  0
 27 28  1  0  0  0
 28 29  2  0  0  0
 28 31  1  0  0  0
 31 49  1  0  0  0
 49 50  1  0  0  0
 50 51  1  0  0  0
 50 52  1  0  0  0
 31 32  1  0  0  0
 32 33  1  0  0  0
 33 34  2  0  0  0
 33 36  1  0  0  0
 36 42  1  0  0  0
 42 43  1  0  0  0
 43 44  2  0  0  0
 44 45  1  0  0  0
 45 46  2  0  0  0
 46 47  1  0  0  0
 47 48  2  0  0  0
 36 37  1  0  0  0
 37 38  1  0  0  0
 38 39  1  0  0  0
 38 40  2  0  0  0
  6  7  1  0  0  0
  7  8  2  0  0  0
  7  9  1  0  0  0
  9 11  1  0  0  0
 11 16  1  0  0  0
 16 17  1  0  0  0
 17 18  2  0  0  0
 18 19  1  0  0  0
 19 20  2  0  0  0
 20 21  1  0  0  0
 21 22  2  0  0  0
 11 12  1  0  0  0
 12 13  1  0  0  0
 12 14  2  0  0  0
 48 43  1  0  0  0
 22 17  1  0  0  0
  2  5  1  0  0  0
 27 30  1  0  0  0
 32 35  1  0  0  0
 37 41  1  0  0  0
  9 10  1  0  0  0
 13 15  1  0  0  0
M  END
> <minimizedAffinity>
-7.80287

> <CNNscore>
0.1406079233

> <CNNaffinity>
6.5426993370

> <CNN_VS>
0.9199553728

> <CNNaffinity_variance>
0.7087389231

$$$$
[H]OC(=O)[C@@]([H])(N([H])C(=O)[C@@]([H])(N([H])C(=O)[C@@]([H])(N([H])C(=O)[C@@]([H])(N([H])C(=O)[C@@]([H])(N([H])C(=O)C([H])([H])[H])C([H])([H])c1c([H])c([H])c([H])c([H])c1[H])C([H])([H])C([H])(C([H])([H])[H])C([H])([H])[H])C([H])([H])C([H])(C([H])([H])[H])C([H])([H])[H])C([H])([H])C([H])(C([H])([H])[H])C([H])([H])[H])C([H])([H])c1c([H])c([H])c([H])c([H])c1[H]


 56 57  0  0  0  0  0  0  0  0999 V2000
   -2.8027   21.8492  -22.4838 C   0  0  0  0  0  0  0  0  0  0  0  0
   -4.6830   23.0618  -23.6700 N   0  0  0  0  0  0  0  0  0  0  0  0
   -3.9682   21.8724  -23.4586 C   0  0  0  0  0  0  0  0  0  0  0  0
   -4.2674   20.8266  -24.0494 O   0  0  0  0  0  0  0  0  0  0  0  0
   -4.4463   23.9198  -23.1727 H   0  0  0  0  0  0  0  0  0  0  0  0
   -5.8367   23.0976  -24.6560 C   0  0  0  0  0  0  0  0  0  0  0  0
   -5.2251   23.6147  -25.8575 C   0  0  0  0  0  0  0  0  0  0  0  0
   -4.2842   24.5023  -25.5839 O   0  0  0  0  0  0  0  0  0  0  0  0
   -5.4042   23.4027  -27.2067 N   0  0  0  0  0  0  0  0  0  0  0  0
   -6.2216   22.7786  -27.5498 H   0  0  0  0  0  0  0  0  0  0  0  0
   -4.6990   23.9679  -28.3494 C   0  0  0  0  0  0  0  0  0  0  0  0
   -5.4579   24.8387  -29.2312 C   0  0  0  0  0  0  0  0  0  0  0  0
   -6.2990   25.8597  -28.7136 O   0  0  0  0  0  0  0  0  0  0  0  0
   -5.4913   24.8239  -30.4991 O   0  0  0  0  0  0  0  0  0  0  0  0
   -7.1141   25.5375  -28.2071 H   0  0  0  0  0  0  0  0  0  0  0  0
   -3.7516   22.9864  -28.9338 C   0  0  0  0  0  0  0  0  0  0  0  0
   -2.4030   22.9065  -28.3802 C   0  0  0  0  0  0  0  0  0  0  0  0
   -1.2960   23.4323  -29.0071 C   0  0  0  0  0  0  0  0  0  0  0  0
   -0.0225   23.3548  -28.4718 C   0  0  0  0  0  0  0  0  0  0  0  0
    0.1177   22.7216  -27.2582 C   0  0  0  0  0  0  0  0  0  0  0  0
   -0.9663   22.1774  -26.5872 C   0  0  0  0  0  0  0  0  0  0  0  0
   -2.2104   22.2688  -27.1433 C   0  0  0  0  0  0  0  0  0  0  0  0
   -6.9554   23.7219  -23.9498 C   0  0  0  0  0  0  0  0  0  0  0  0
   -6.8329   26.2990  -24.0420 C   0  0  0  0  0  0  0  0  0  0  0  0
   -7.5161   25.0242  -24.2407 C   0  0  0  0  0  0  0  0  0  0  0  0
   -8.8554   25.1265  -23.4455 C   0  0  0  0  0  0  0  0  0  0  0  0
   -3.1279   21.3089  -21.2136 N   0  0  0  0  0  0  0  0  0  0  0  0
   -3.1213   22.1305  -20.0430 C   0  0  0  0  0  0  0  0  0  0  0  0
   -2.8317   23.3580  -20.3096 O   0  0  0  0  0  0  0  0  0  0  0  0
   -3.3690   20.3383  -21.0526 H   0  0  0  0  0  0  0  0  0  0  0  0
   -3.3734   21.8255  -18.6639 C   0  0  0  0  0  0  0  0  0  0  0  0
   -4.6706   22.3221  -18.2303 N   0  0  0  0  0  0  0  0  0  0  0  0
   -5.9026   22.1217  -18.8736 C   0  0  0  0  0  0  0  0  0  0  0  0
   -5.9769   21.4632  -19.9263 O   0  0  0  0  0  0  0  0  0  0  0  0
   -4.6589   22.8796  -17.3429 H   0  0  0  0  0  0  0  0  0  0  0  0
   -7.1760   22.7029  -18.3133 C   0  0  0  0  0  0  0  0  0  0  0  0
   -7.6201   23.7247  -19.2603 N   0  0  0  0  0  0  0  0  0  0  0  0
   -6.9722   24.9845  -19.2892 C   0  0  0  0  0  0  0  0  0  0  0  0
   -7.4601   25.9965  -20.2808 C   0  0  0  0  0  0  0  0  0  0  0  0
   -6.0290   25.2669  -18.5324 O   0  0  0  0  0  0  0  0  0  0  0  0
   -8.4096   23.4762  -19.8846 H   0  0  0  0  0  0  0  0  0  0  0  0
   -8.2494   21.6795  -18.1170 C   0  0  0  0  0  0  0  0  0  0  0  0
   -7.9509   20.6153  -17.1722 C   0  0  0  0  0  0  0  0  0  0  0  0
   -7.4422   20.9787  -15.9287 C   0  0  0  0  0  0  0  0  0  0  0  0
   -7.1486   19.9908  -15.0216 C   0  0  0  0  0  0  0  0  0  0  0  0
   -7.3432   18.6547  -15.3039 C   0  0  0  0  0  0  0  0  0  0  0  0
   -7.8365   18.3003  -16.5093 C   0  0  0  0  0  0  0  0  0  0  0  0
   -8.1387   19.3004  -17.4411 C   0  0  0  0  0  0  0  0  0  0  0  0
   -3.1424   20.4736  -18.1577 C   0  0  0  0  0  0  0  0  0  0  0  0
   -4.1065   19.7406  -17.3482 C   0  0  0  0  0  0  0  0  0  0  0  0
   -4.5767   18.5371  -18.1950 C   0  0  0  0  0  0  0  0  0  0  0  0
   -3.6412   19.1721  -16.0543 C   0  0  0  0  0  0  0  0  0  0  0  0
   -1.6247   21.2136  -23.1399 C   0  0  0  0  0  0  0  0  0  0  0  0
   -0.2797   21.5168  -22.6044 C   0  0  0  0  0  0  0  0  0  0  0  0
    0.8789   21.5566  -23.5344 C   0  0  0  0  0  0  0  0  0  0  0  0
    0.0870   20.4729  -21.5274 C   0  0  0  0  0  0  0  0  0  0  0  0
 24 25  1  0  0  0
 25 26  1  0  0  0
 25 23  1  0  0  0
 23  6  1  0  0  0
  6  2  1  0  0  0
  2  3  1  0  0  0
  3  4  2  0  0  0
  3  1  1  0  0  0
  1 53  1  0  0  0
 53 54  1  0  0  0
 54 55  1  0  0  0
 54 56  1  0  0  0
  1 27  1  0  0  0
 27 28  1  0  0  0
 28 29  2  0  0  0
 28 31  1  0  0  0
 31 49  1  0  0  0
 49 50  1  0  0  0
 50 51  1  0  0  0
 50 52  1  0  0  0
 31 32  1  0  0  0
 32 33  1  0  0  0
 33 34  2  0  0  0
 33 36  1  0  0  0
 36 42  1  0  0  0
 42 43  1  0  0  0
 43 44  2  0  0  0
 44 45  1  0  0  0
 45 46  2  0  0  0
 46 47  1  0  0  0
 47 48  2  0  0  0
 36 37  1  0  0  0
 37 38  1  0  0  0
 38 39  1  0  0  0
 38 40  2  0  0  0
  6  7  1  0  0  0
  7  8  2  0  0  0
  7  9  1  0  0  0
  9 11  1  0  0  0
 11 16  1  0  0  0
 16 17  1  0  0  0
 17 18  2  0  0  0
 18 19  1  0  0  0
 19 20  2  0  0  0
 20 21  1  0  0  0
 21 22  2  0  0  0
 11 12  1  0  0  0
 12 13  1  0  0  0
 12 14  2  0  0  0
 48 43  1  0  0  0
 22 17  1  0  0  0
  2  5  1  0  0  0
 27 30  1  0  0  0
 32 35  1  0  0  0
 37 41  1  0  0  0
  9 10  1  0  0  0
 13 15  1  0  0  0
M  END
> <minimizedAffinity>
-7.59505

> <CNNscore>
0.1391137540

> <CNNaffinity>
6.9364366531

> <CNN_VS>
0.9649537206

> <CNNaffinity_variance>
0.4726437926

$$$$
[H]OC(=O)[C@@]([H])(N([H])C(=O)[C@@]([H])(N([H])C(=O)[C@@]([H])(N([H])C(=O)[C@@]([H])(N([H])C(=O)[C@@]([H])(N([H])C(=O)C([H])([H])[H])C([H])([H])c1c([H])c([H])c([H])c([H])c1[H])C([H])([H])C([H])(C([H])([H])[H])C([H])([H])[H])C([H])([H])C([H])(C([H])([H])[H])C([H])([H])[H])C([H])([H])C([H])(C([H])([H])[H])C([H])([H])[H])C([H])([H])c1c([H])c([H])c([H])c([H])c1[H]


 56 57  0  0  0  0  0  0  0  0999 V2000
   -2.4369   21.8080  -22.4499 C   0  0  0  0  0  0  0  0  0  0  0  0
   -4.4876   22.9962  -23.3419 N   0  0  0  0  0  0  0  0  0  0  0  0
   -3.6586   21.8635  -23.3518 C   0  0  0  0  0  0  0  0  0  0  0  0
   -3.9006   20.8937  -24.0820 O   0  0  0  0  0  0  0  0  0  0  0  0
   -4.2970   23.7892  -22.7301 H   0  0  0  0  0  0  0  0  0  0  0  0
   -5.6994   23.0669  -24.2535 C   0  0  0  0  0  0  0  0  0  0  0  0
   -5.1674   23.6533  -25.4611 C   0  0  0  0  0  0  0  0  0  0  0  0
   -4.3340   24.6451  -25.1968 O   0  0  0  0  0  0  0  0  0  0  0  0
   -5.3367   23.4227  -26.8086 N   0  0  0  0  0  0  0  0  0  0  0  0
   -6.0792   22.7072  -27.1432 H   0  0  0  0  0  0  0  0  0  0  0  0
   -4.7167   24.0678  -27.9583 C   0  0  0  0  0  0  0  0  0  0  0  0
   -5.5292   25.0133  -28.7050 C   0  0  0  0  0  0  0  0  0  0  0  0
   -6.2406   24.6158  -29.8685 O   0  0  0  0  0  0  0  0  0  0  0  0
   -5.7136   26.2441  -28.4599 O   0  0  0  0  0  0  0  0  0  0  0  0
   -5.6679   24.3643  -30.6646 H   0  0  0  0  0  0  0  0  0  0  0  0
   -3.8370   23.1246  -28.6925 C   0  0  0  0  0  0  0  0  0  0  0  0
   -2.4773   22.9169  -28.2030 C   0  0  0  0  0  0  0  0  0  0  0  0
   -2.1877   22.2410  -27.0393 C   0  0  0  0  0  0  0  0  0  0  0  0
   -0.8950   22.0460  -26.5862 C   0  0  0  0  0  0  0  0  0  0  0  0
    0.1286   22.5577  -27.3503 C   0  0  0  0  0  0  0  0  0  0  0  0
   -0.1117   23.2445  -28.5301 C   0  0  0  0  0  0  0  0  0  0  0  0
   -1.3995   23.4218  -28.9493 C   0  0  0  0  0  0  0  0  0  0  0  0
   -6.7795   23.6390  -23.4498 C   0  0  0  0  0  0  0  0  0  0  0  0
   -8.2255   24.8010  -25.2453 C   0  0  0  0  0  0  0  0  0  0  0  0
   -7.7082   24.6593  -23.8875 C   0  0  0  0  0  0  0  0  0  0  0  0
   -7.0685   26.0365  -23.5261 C   0  0  0  0  0  0  0  0  0  0  0  0
   -2.7423   21.5826  -21.0835 N   0  0  0  0  0  0  0  0  0  0  0  0
   -2.3173   22.5031  -20.0749 C   0  0  0  0  0  0  0  0  0  0  0  0
   -1.6917   23.5155  -20.5701 O   0  0  0  0  0  0  0  0  0  0  0  0
   -3.2551   20.7794  -20.7399 H   0  0  0  0  0  0  0  0  0  0  0  0
   -2.4647   22.4871  -18.6478 C   0  0  0  0  0  0  0  0  0  0  0  0
   -3.8136   22.8510  -18.2410 N   0  0  0  0  0  0  0  0  0  0  0  0
   -4.8406   23.3255  -19.0729 C   0  0  0  0  0  0  0  0  0  0  0  0
   -4.6585   23.4774  -20.2940 O   0  0  0  0  0  0  0  0  0  0  0  0
   -4.0161   22.7346  -17.2194 H   0  0  0  0  0  0  0  0  0  0  0  0
   -6.1970   23.6724  -18.5130 C   0  0  0  0  0  0  0  0  0  0  0  0
   -6.0407   23.7530  -17.0614 N   0  0  0  0  0  0  0  0  0  0  0  0
   -6.9989   23.1396  -16.2168 C   0  0  0  0  0  0  0  0  0  0  0  0
   -6.7923   23.2453  -14.7364 C   0  0  0  0  0  0  0  0  0  0  0  0
   -7.9842   22.5275  -16.6602 O   0  0  0  0  0  0  0  0  0  0  0  0
   -5.2150   24.2686  -16.7050 H   0  0  0  0  0  0  0  0  0  0  0  0
   -6.7378   24.9612  -19.0464 C   0  0  0  0  0  0  0  0  0  0  0  0
   -7.9775   24.8690  -19.8008 C   0  0  0  0  0  0  0  0  0  0  0  0
   -8.4767   23.5984  -20.0713 C   0  0  0  0  0  0  0  0  0  0  0  0
   -9.6436   23.4862  -20.7859 C   0  0  0  0  0  0  0  0  0  0  0  0
  -10.3340   24.5905  -21.2407 C   0  0  0  0  0  0  0  0  0  0  0  0
   -9.8514   25.8237  -20.9793 C   0  0  0  0  0  0  0  0  0  0  0  0
   -8.6620   25.9483  -20.2516 C   0  0  0  0  0  0  0  0  0  0  0  0
   -1.9822   21.3449  -17.8734 C   0  0  0  0  0  0  0  0  0  0  0  0
   -0.6326   20.8081  -17.9849 C   0  0  0  0  0  0  0  0  0  0  0  0
    0.2959   21.7712  -17.2123 C   0  0  0  0  0  0  0  0  0  0  0  0
   -0.3725   19.4542  -17.4254 C   0  0  0  0  0  0  0  0  0  0  0  0
   -1.4439   20.8558  -23.0241 C   0  0  0  0  0  0  0  0  0  0  0  0
   -0.0246   21.2696  -23.0677 C   0  0  0  0  0  0  0  0  0  0  0  0
    0.8008   21.1600  -21.8366 C   0  0  0  0  0  0  0  0  0  0  0  0
    0.0613   22.7508  -23.4956 C   0  0  0  0  0  0  0  0  0  0  0  0
 24 25  1  0  0  0
 25 26  1  0  0  0
 25 23  1  0  0  0
 23  6  1  0  0  0
  6  2  1  0  0  0
  2  3  1  0  0  0
  3  4  2  0  0  0
  3  1  1  0  0  0
  1 53  1  0  0  0
 53 54  1  0  0  0
 54 55  1  0  0  0
 54 56  1  0  0  0
  1 27  1  0  0  0
 27 28  1  0  0  0
 28 29  2  0  0  0
 28 31  1  0  0  0
 31 49  1  0  0  0
 49 50  1  0  0  0
 50 51  1  0  0  0
 50 52  1  0  0  0
 31 32  1  0  0  0
 32 33  1  0  0  0
 33 34  2  0  0  0
 33 36  1  0  0  0
 36 42  1  0  0  0
 42 43  1  0  0  0
 43 44  2  0  0  0
 44 45  1  0  0  0
 45 46  2  0  0  0
 46 47  1  0  0  0
 47 48  2  0  0  0
 36 37  1  0  0  0
 37 38  1  0  0  0
 38 39  1  0  0  0
 38 40  2  0  0  0
  6  7  1  0  0  0
  7  8  2  0  0  0
  7  9  1  0  0  0
  9 11  1  0  0  0
 11 16  1  0  0  0
 16 17  1  0  0  0
 17 18  2  0  0  0
 18 19  1  0  0  0
 19 20  2  0  0  0
 20 21  1  0  0  0
 21 22  2  0  0  0
 11 12  1  0  0  0
 12 13  1  0  0  0
 12 14  2  0  0  0
 48 43  1  0  0  0
 22 17  1  0  0  0
  2  5  1  0  0  0
 27 30  1  0  0  0
 32 35  1  0  0  0
 37 41  1  0  0  0
  9 10  1  0  0  0
 13 15  1  0  0  0
M  END
> <minimizedAffinity>
-7.70555

> <CNNscore>
0.1375723779

> <CNNaffinity>
6.9828653336

> <CNN_VS>
0.9606493711

> <CNNaffinity_variance>
0.6309545636

$$$$
[H]OC(=O)[C@@]([H])(N([H])C(=O)[C@@]([H])(N([H])C(=O)[C@@]([H])(N([H])C(=O)[C@@]([H])(N([H])C(=O)[C@@]([H])(N([H])C(=O)C([H])([H])[H])C([H])([H])c1c([H])c([H])c([H])c([H])c1[H])C([H])([H])C([H])(C([H])([H])[H])C([H])([H])[H])C([H])([H])C([H])(C([H])([H])[H])C([H])([H])[H])C([H])([H])C([H])(C([H])([H])[H])C([H])([H])[H])C([H])([H])c1c([H])c([H])c([H])c([H])c1[H]


 56 57  0  0  0  0  0  0  0  0999 V2000
   -6.5451   23.4556  -20.6911 C   0  0  0  0  0  0  0  0  0  0  0  0
   -4.7655   22.1400  -19.4601 N   0  0  0  0  0  0  0  0  0  0  0  0
   -6.0766   22.6398  -19.4977 C   0  0  0  0  0  0  0  0  0  0  0  0
   -6.8740   22.4283  -18.5749 O   0  0  0  0  0  0  0  0  0  0  0  0
   -4.1129   22.3016  -20.2266 H   0  0  0  0  0  0  0  0  0  0  0  0
   -4.2844   21.3401  -18.2631 C   0  0  0  0  0  0  0  0  0  0  0  0
   -2.9924   21.9192  -17.9796 C   0  0  0  0  0  0  0  0  0  0  0  0
   -3.0750   23.2232  -17.7775 O   0  0  0  0  0  0  0  0  0  0  0  0
   -1.7087   21.4289  -17.8830 N   0  0  0  0  0  0  0  0  0  0  0  0
   -1.5070   20.3945  -18.1370 H   0  0  0  0  0  0  0  0  0  0  0  0
   -0.4632   22.1114  -17.5582 C   0  0  0  0  0  0  0  0  0  0  0  0
    0.1769   22.8638  -18.6240 C   0  0  0  0  0  0  0  0  0  0  0  0
   -0.4531   23.9947  -19.2088 O   0  0  0  0  0  0  0  0  0  0  0  0
    1.3051   22.6457  -19.1611 O   0  0  0  0  0  0  0  0  0  0  0  0
   -1.2880   23.7986  -19.7467 H   0  0  0  0  0  0  0  0  0  0  0  0
    0.3705   21.2970  -16.6394 C   0  0  0  0  0  0  0  0  0  0  0  0
    1.0286   21.9654  -15.5205 C   0  0  0  0  0  0  0  0  0  0  0  0
    2.2102   22.6608  -15.6444 C   0  0  0  0  0  0  0  0  0  0  0  0
    2.8237   23.2943  -14.5782 C   0  0  0  0  0  0  0  0  0  0  0  0
    2.2057   23.2129  -13.3514 C   0  0  0  0  0  0  0  0  0  0  0  0
    1.0148   22.5257  -13.1762 C   0  0  0  0  0  0  0  0  0  0  0  0
    0.4353   21.9093  -14.2484 C   0  0  0  0  0  0  0  0  0  0  0  0
   -4.5181   19.9343  -18.5934 C   0  0  0  0  0  0  0  0  0  0  0  0
   -6.8424   18.8107  -18.5849 C   0  0  0  0  0  0  0  0  0  0  0  0
   -5.5318   19.0858  -18.0038 C   0  0  0  0  0  0  0  0  0  0  0  0
   -5.8056   19.6396  -16.5703 C   0  0  0  0  0  0  0  0  0  0  0  0
   -5.6095   23.5040  -21.7558 N   0  0  0  0  0  0  0  0  0  0  0  0
   -4.8252   24.6766  -21.9909 C   0  0  0  0  0  0  0  0  0  0  0  0
   -5.0575   25.6014  -21.1235 O   0  0  0  0  0  0  0  0  0  0  0  0
   -5.4453   22.7434  -22.4043 H   0  0  0  0  0  0  0  0  0  0  0  0
   -3.8546   24.9864  -23.0010 C   0  0  0  0  0  0  0  0  0  0  0  0
   -3.0782   23.8154  -23.3799 N   0  0  0  0  0  0  0  0  0  0  0  0
   -1.9495   23.3076  -22.7167 C   0  0  0  0  0  0  0  0  0  0  0  0
   -1.5055   23.8575  -21.6930 O   0  0  0  0  0  0  0  0  0  0  0  0
   -3.4182   23.3148  -24.2356 H   0  0  0  0  0  0  0  0  0  0  0  0
   -1.2340   22.0821  -23.2263 C   0  0  0  0  0  0  0  0  0  0  0  0
   -1.2567   21.1040  -22.1396 N   0  0  0  0  0  0  0  0  0  0  0  0
   -0.0378   20.5878  -21.6337 C   0  0  0  0  0  0  0  0  0  0  0  0
   -0.1130   19.5920  -20.5166 C   0  0  0  0  0  0  0  0  0  0  0  0
    1.0686   20.9324  -22.0799 O   0  0  0  0  0  0  0  0  0  0  0  0
   -2.1870   20.8238  -21.7780 H   0  0  0  0  0  0  0  0  0  0  0  0
   -1.8646   21.5047  -24.4538 C   0  0  0  0  0  0  0  0  0  0  0  0
   -1.3677   22.0094  -25.7238 C   0  0  0  0  0  0  0  0  0  0  0  0
    0.0111   22.1100  -25.8845 C   0  0  0  0  0  0  0  0  0  0  0  0
    0.5036   22.5881  -27.0735 C   0  0  0  0  0  0  0  0  0  0  0  0
   -0.3234   22.9689  -28.1097 C   0  0  0  0  0  0  0  0  0  0  0  0
   -1.6609   22.8720  -27.9557 C   0  0  0  0  0  0  0  0  0  0  0  0
   -2.1728   22.3858  -26.7469 C   0  0  0  0  0  0  0  0  0  0  0  0
   -4.2455   25.7516  -24.1837 C   0  0  0  0  0  0  0  0  0  0  0  0
   -5.6304   26.0011  -24.5606 C   0  0  0  0  0  0  0  0  0  0  0  0
   -5.6277   27.2524  -25.4665 C   0  0  0  0  0  0  0  0  0  0  0  0
   -6.3456   24.9447  -25.3262 C   0  0  0  0  0  0  0  0  0  0  0  0
   -7.9091   23.0057  -21.0902 C   0  0  0  0  0  0  0  0  0  0  0  0
   -8.9425   24.0369  -21.3278 C   0  0  0  0  0  0  0  0  0  0  0  0
   -8.9150   24.8122  -22.5955 C   0  0  0  0  0  0  0  0  0  0  0  0
   -8.8842   25.0865  -20.1968 C   0  0  0  0  0  0  0  0  0  0  0  0
 24 25  1  0  0  0
 25 26  1  0  0  0
 25 23  1  0  0  0
 23  6  1  0  0  0
  6  2  1  0  0  0
  2  3  1  0  0  0
  3  4  2  0  0  0
  3  1  1  0  0  0
  1 53  1  0  0  0
 53 54  1  0  0  0
 54 55  1  0  0  0
 54 56  1  0  0  0
  1 27  1  0  0  0
 27 28  1  0  0  0
 28 29  2  0  0  0
 28 31  1  0  0  0
 31 49  1  0  0  0
 49 50  1  0  0  0
 50 51  1  0  0  0
 50 52  1  0  0  0
 31 32  1  0  0  0
 32 33  1  0  0  0
 33 34  2  0  0  0
 33 36  1  0  0  0
 36 42  1  0  0  0
 42 43  1  0  0  0
 43 44  2  0  0  0
 44 45  1  0  0  0
 45 46  2  0  0  0
 46 47  1  0  0  0
 47 48  2  0  0  0
 36 37  1  0  0  0
 37 38  1  0  0  0
 38 39  1  0  0  0
 38 40  2  0  0  0
  6  7  1  0  0  0
  7  8  2  0  0  0
  7  9  1  0  0  0
  9 11  1  0  0  0
 11 16  1  0  0  0
 16 17  1  0  0  0
 17 18  2  0  0  0
 18 19  1  0  0  0
 19 20  2  0  0  0
 20 21  1  0  0  0
 21 22  2  0  0  0
 11 12  1  0  0  0
 12 13  1  0  0  0
 12 14  2  0  0  0
 48 43  1  0  0  0
 22 17  1  0  0  0
  2  5  1  0  0  0
 27 30  1  0  0  0
 32 35  1  0  0  0
 37 41  1  0  0  0
  9 10  1  0  0  0
 13 15  1  0  0  0
M  END
> <minimizedAffinity>
-7.74052

> <CNNscore>
0.1335744560

> <CNNaffinity>
6.3358674049

> <CNN_VS>
0.8463100195

> <CNNaffinity_variance>
0.9495960474

$$$$
[H]c1nc(N([H])c2c([H])c([H])c(C([H])(C([H])([H])[H])C([H])([H])[H])c([H])c2OC([H])([H])[H])nc(N([H])c2c([H])c([H])c([H])c([H])c2S(=O)(=O)C([H])(C([H])([H])[H])C([H])([H])[H])c1Cl


 34 36  0  0  0  0  0  0  0  0999 V2000
   -1.1279   22.1345  -24.2872 C   0  0  0  0  0  0  0  0  0  0  0  0
   -0.1244   22.1094  -25.1658 N   0  0  0  0  0  0  0  0  0  0  0  0
    1.1143   21.7124  -24.8526 C   0  0  0  0  0  0  0  0  0  0  0  0
    1.3926   21.3087  -23.5814 C   0  0  0  0  0  0  0  0  0  0  0  0
    2.9727   20.7897  -23.1342 Cl  0  0  0  0  0  0  0  0  0  0  0  0
    0.3825   21.3102  -22.6065 C   0  0  0  0  0  0  0  0  0  0  0  0
   -0.7942   21.7207  -23.0310 N   0  0  0  0  0  0  0  0  0  0  0  0
   -2.4613   22.5437  -24.5549 N   0  0  0  0  0  0  0  0  0  0  0  0
   -3.1468   22.4296  -23.7372 H   0  0  0  0  0  0  0  0  0  0  0  0
   -3.8585   24.1623  -25.6354 C   0  0  0  0  0  0  0  0  0  0  0  0
   -4.4311   24.7509  -26.7360 C   0  0  0  0  0  0  0  0  0  0  0  0
   -4.1776   24.2913  -27.9958 C   0  0  0  0  0  0  0  0  0  0  0  0
   -3.3350   23.2248  -28.1339 C   0  0  0  0  0  0  0  0  0  0  0  0
   -2.7528   22.6276  -27.0020 C   0  0  0  0  0  0  0  0  0  0  0  0
   -2.9888   23.0675  -25.7259 C   0  0  0  0  0  0  0  0  0  0  0  0
   -4.7848   24.9108  -29.2029 C   0  0  0  0  0  0  0  0  0  0  0  0
   -5.4022   23.8594  -30.1183 C   0  0  0  0  0  0  0  0  0  0  0  0
   -3.7166   25.6364  -30.0102 C   0  0  0  0  0  0  0  0  0  0  0  0
   -4.2440   26.0564  -24.1194 C   0  0  0  0  0  0  0  0  0  0  0  0
   -4.1703   24.6912  -24.4047 O   0  0  0  0  0  0  0  0  0  0  0  0
    0.6419   20.9022  -21.3004 N   0  0  0  0  0  0  0  0  0  0  0  0
    0.3315   19.8770  -21.0763 H   0  0  0  0  0  0  0  0  0  0  0  0
    1.2229   21.5391  -20.2050 C   0  0  0  0  0  0  0  0  0  0  0  0
    2.5743   21.6213  -20.0523 C   0  0  0  0  0  0  0  0  0  0  0  0
    3.2081   22.2463  -18.9763 C   0  0  0  0  0  0  0  0  0  0  0  0
    2.4377   22.8154  -18.0089 C   0  0  0  0  0  0  0  0  0  0  0  0
    1.0737   22.7584  -18.1188 C   0  0  0  0  0  0  0  0  0  0  0  0
    0.4615   22.1356  -19.1906 C   0  0  0  0  0  0  0  0  0  0  0  0
   -1.2527   22.0895  -19.2882 S   0  0  0  0  0  0  0  0  0  0  0  0
   -1.8468   23.1459  -20.1819 O   0  0  0  0  0  0  0  0  0  0  0  0
   -1.6994   20.7482  -19.8192 O   0  0  0  0  0  0  0  0  0  0  0  0
   -2.0503   22.2779  -17.7146 C   0  0  0  0  0  0  0  0  0  0  0  0
   -3.4784   22.7392  -17.8414 C   0  0  0  0  0  0  0  0  0  0  0  0
   -1.8553   21.1099  -16.7950 C   0  0  0  0  0  0  0  0  0  0  0  0
 19 20  1  0  0  0
 20 10  1  0  0  0
 10 11  2  0  0  0
 11 12  1  0  0  0
 12 13  2  0  0  0
 13 14  1  0  0  0
 14 15  2  0  0  0
 15  8  1  0  0  0
  8  1  1  0  0  0
  1  2  2  0  0  0
  2  3  1  0  0  0
  3  4  2  0  0  0
  4  5  1  0  0  0
  4  6  1  0  0  0
  6 21  1  0  0  0
 21 23  1  0  0  0
 23 24  2  0  0  0
 24 25  1  0  0  0
 25 26  2  0  0  0
 26 27  1  0  0  0
 27 28  2  0  0  0
 28 29  1  0  0  0
 29 30  2  0  0  0
 29 31  2  0  0  0
 29 32  1  0  0  0
 32 33  1  0  0  0
 32 34  1  0  0  0
  6  7  2  0  0  0
 12 16  1  0  0  0
 16 17  1  0  0  0
 16 18  1  0  0  0
 15 10  1  0  0  0
  7  1  1  0  0  0
 28 23  1  0  0  0
  8  9  1  0  0  0
 21 22  1  0  0  0
M  END
> <minimizedAffinity>
-7.61937

> <CNNscore>
0.2863958776

> <CNNaffinity>
7.0032448769

> <CNN_VS>
2.0057003498

> <CNNaffinity_variance>
0.2616880238

$$$$
[H]c1nc(N([H])c2c([H])c([H])c(C([H])(C([H])([H])[H])C([H])([H])[H])c([H])c2OC([H])([H])[H])nc(N([H])c2c([H])c([H])c([H])c([H])c2S(=O)(=O)C([H])(C([H])([H])[H])C([H])([H])[H])c1Cl


 34 36  0  0  0  0  0  0  0  0999 V2000
   -0.3236   22.0001  -24.5851 C   0  0  0  0  0  0  0  0  0  0  0  0
    0.4509   22.2509  -25.6419 N   0  0  0  0  0  0  0  0  0  0  0  0
   -0.0338   22.5865  -26.8430 C   0  0  0  0  0  0  0  0  0  0  0  0
   -1.3807   22.6844  -27.0239 C   0  0  0  0  0  0  0  0  0  0  0  0
   -2.0482   23.1135  -28.5524 Cl  0  0  0  0  0  0  0  0  0  0  0  0
   -2.2537   22.4338  -25.9535 C   0  0  0  0  0  0  0  0  0  0  0  0
   -1.6623   22.1125  -24.8220 N   0  0  0  0  0  0  0  0  0  0  0  0
    0.1266   21.6401  -23.2872 N   0  0  0  0  0  0  0  0  0  0  0  0
    1.0950   21.1792  -23.2514 H   0  0  0  0  0  0  0  0  0  0  0  0
   -0.5489   20.7238  -21.1792 C   0  0  0  0  0  0  0  0  0  0  0  0
   -1.1604   20.7886  -19.9514 C   0  0  0  0  0  0  0  0  0  0  0  0
   -1.7787   21.9295  -19.5288 C   0  0  0  0  0  0  0  0  0  0  0  0
   -1.7734   23.0109  -20.3637 C   0  0  0  0  0  0  0  0  0  0  0  0
   -1.1452   22.9365  -21.6194 C   0  0  0  0  0  0  0  0  0  0  0  0
   -0.5170   21.8051  -22.0696 C   0  0  0  0  0  0  0  0  0  0  0  0
   -2.4475   22.0250  -18.2048 C   0  0  0  0  0  0  0  0  0  0  0  0
   -1.4832   21.7022  -17.0688 C   0  0  0  0  0  0  0  0  0  0  0  0
   -3.5889   21.0201  -18.1232 C   0  0  0  0  0  0  0  0  0  0  0  0
    0.4507   18.5523  -20.6141 C   0  0  0  0  0  0  0  0  0  0  0  0
    0.0493   19.5340  -21.5228 O   0  0  0  0  0  0  0  0  0  0  0  0
   -3.6341   22.5274  -26.1133 N   0  0  0  0  0  0  0  0  0  0  0  0
   -3.9664   22.5860  -27.1543 H   0  0  0  0  0  0  0  0  0  0  0  0
   -4.6937   22.5624  -25.2084 C   0  0  0  0  0  0  0  0  0  0  0  0
   -4.9752   21.5125  -24.3870 C   0  0  0  0  0  0  0  0  0  0  0  0
   -6.0229   21.4944  -23.4637 C   0  0  0  0  0  0  0  0  0  0  0  0
   -6.8236   22.5911  -23.3670 C   0  0  0  0  0  0  0  0  0  0  0  0
   -6.5798   23.6717  -24.1723 C   0  0  0  0  0  0  0  0  0  0  0  0
   -5.5383   23.6738  -25.0815 C   0  0  0  0  0  0  0  0  0  0  0  0
   -5.2687   25.0521  -26.0702 S   0  0  0  0  0  0  0  0  0  0  0  0
   -5.9207   26.3108  -25.5623 O   0  0  0  0  0  0  0  0  0  0  0  0
   -3.7870   25.3245  -26.1757 O   0  0  0  0  0  0  0  0  0  0  0  0
   -5.8431   24.8440  -27.7359 C   0  0  0  0  0  0  0  0  0  0  0  0
   -5.0735   25.6826  -28.7223 C   0  0  0  0  0  0  0  0  0  0  0  0
   -6.0140   23.4106  -28.1411 C   0  0  0  0  0  0  0  0  0  0  0  0
 19 20  1  0  0  0
 20 10  1  0  0  0
 10 11  2  0  0  0
 11 12  1  0  0  0
 12 13  2  0  0  0
 13 14  1  0  0  0
 14 15  2  0  0  0
 15  8  1  0  0  0
  8  1  1  0  0  0
  1  2  2  0  0  0
  2  3  1  0  0  0
  3  4  2  0  0  0
  4  5  1  0  0  0
  4  6  1  0  0  0
  6 21  1  0  0  0
 21 23  1  0  0  0
 23 24  2  0  0  0
 24 25  1  0  0  0
 25 26  2  0  0  0
 26 27  1  0  0  0
 27 28  2  0  0  0
 28 29  1  0  0  0
 29 30  2  0  0  0
 29 31  2  0  0  0
 29 32  1  0  0  0
 32 33  1  0  0  0
 32 34  1  0  0  0
  6  7  2  0  0  0
 12 16  1  0  0  0
 16 17  1  0  0  0
 16 18  1  0  0  0
 15 10  1  0  0  0
  7  1  1  0  0  0
 28 23  1  0  0  0
  8  9  1  0  0  0
 21 22  1  0  0  0
M  END
> <minimizedAffinity>
-7.30598

> <CNNscore>
0.2718185782

> <CNNaffinity>
7.1510214806

> <CNN_VS>
1.9437805414

> <CNNaffinity_variance>
0.1977489293

$$$$
[H]c1nc(N([H])c2c([H])c([H])c(C([H])(C([H])([H])[H])C([H])([H])[H])c([H])c2OC([H])([H])[H])nc(N([H])c2c([H])c([H])c([H])c([H])c2S(=O)(=O)C([H])(C([H])([H])[H])C([H])([H])[H])c1Cl


 34 36  0  0  0  0  0  0  0  0999 V2000
   -0.9191   21.6184  -24.1251 C   0  0  0  0  0  0  0  0  0  0  0  0
    0.2267   21.3814  -24.7658 N   0  0  0  0  0  0  0  0  0  0  0  0
    0.5109   21.8876  -25.9712 C   0  0  0  0  0  0  0  0  0  0  0  0
   -0.3962   22.6878  -26.5982 C   0  0  0  0  0  0  0  0  0  0  0  0
   -0.0722   23.3609  -28.1500 Cl  0  0  0  0  0  0  0  0  0  0  0  0
   -1.6228   22.9783  -25.9802 C   0  0  0  0  0  0  0  0  0  0  0  0
   -1.7901   22.4247  -24.7974 N   0  0  0  0  0  0  0  0  0  0  0  0
   -1.2812   21.1132  -22.8482 N   0  0  0  0  0  0  0  0  0  0  0  0
   -2.2410   20.6354  -22.8016 H   0  0  0  0  0  0  0  0  0  0  0  0
   -1.2626   21.3337  -20.4627 C   0  0  0  0  0  0  0  0  0  0  0  0
   -0.6412   21.3891  -19.2394 C   0  0  0  0  0  0  0  0  0  0  0  0
    0.7141   21.2721  -19.1289 C   0  0  0  0  0  0  0  0  0  0  0  0
    1.4400   21.0975  -20.2731 C   0  0  0  0  0  0  0  0  0  0  0  0
    0.7962   21.0419  -21.5218 C   0  0  0  0  0  0  0  0  0  0  0  0
   -0.5619   21.1562  -21.6630 C   0  0  0  0  0  0  0  0  0  0  0  0
    1.4104   21.3287  -17.8168 C   0  0  0  0  0  0  0  0  0  0  0  0
    1.9634   22.7221  -17.5391 C   0  0  0  0  0  0  0  0  0  0  0  0
    2.5921   20.3682  -17.8115 C   0  0  0  0  0  0  0  0  0  0  0  0
   -3.3239   22.6564  -20.2744 C   0  0  0  0  0  0  0  0  0  0  0  0
   -2.6319   21.4608  -20.4797 O   0  0  0  0  0  0  0  0  0  0  0  0
   -2.5663   23.7936  -26.6006 N   0  0  0  0  0  0  0  0  0  0  0  0
   -2.4638   24.8590  -26.3726 H   0  0  0  0  0  0  0  0  0  0  0  0
   -3.6285   23.5286  -27.4633 C   0  0  0  0  0  0  0  0  0  0  0  0
   -3.4477   22.8959  -28.6563 C   0  0  0  0  0  0  0  0  0  0  0  0
   -4.4748   22.6062  -29.5571 C   0  0  0  0  0  0  0  0  0  0  0  0
   -5.7453   22.9741  -29.2352 C   0  0  0  0  0  0  0  0  0  0  0  0
   -5.9769   23.6130  -28.0461 C   0  0  0  0  0  0  0  0  0  0  0  0
   -4.9488   23.8927  -27.1650 C   0  0  0  0  0  0  0  0  0  0  0  0
   -5.2859   24.6943  -25.6839 S   0  0  0  0  0  0  0  0  0  0  0  0
   -4.2054   25.6436  -25.2381 O   0  0  0  0  0  0  0  0  0  0  0  0
   -6.5610   25.4932  -25.8128 O   0  0  0  0  0  0  0  0  0  0  0  0
   -5.5465   23.5811  -24.3271 C   0  0  0  0  0  0  0  0  0  0  0  0
   -6.7913   23.9052  -23.5437 C   0  0  0  0  0  0  0  0  0  0  0  0
   -5.4055   22.1350  -24.6968 C   0  0  0  0  0  0  0  0  0  0  0  0
 19 20  1  0  0  0
 20 10  1  0  0  0
 10 11  2  0  0  0
 11 12  1  0  0  0
 12 13  2  0  0  0
 13 14  1  0  0  0
 14 15  2  0  0  0
 15  8  1  0  0  0
  8  1  1  0  0  0
  1  2  2  0  0  0
  2  3  1  0  0  0
  3  4  2  0  0  0
  4  5  1  0  0  0
  4  6  1  0  0  0
  6 21  1  0  0  0
 21 23  1  0  0  0
 23 24  2  0  0  0
 24 25  1  0  0  0
 25 26  2  0  0  0
 26 27  1  0  0  0
 27 28  2  0  0  0
 28 29  1  0  0  0
 29 30  2  0  0  0
 29 31  2  0  0  0
 29 32  1  0  0  0
 32 33  1  0  0  0
 32 34  1  0  0  0
  6  7  2  0  0  0
 12 16  1  0  0  0
 16 17  1  0  0  0
 16 18  1  0  0  0
 15 10  1  0  0  0
  7  1  1  0  0  0
 28 23  1  0  0  0
  8  9  1  0  0  0
 21 22  1  0  0  0
M  END
> <minimizedAffinity>
-7.11300

> <CNNscore>
0.1980473399

> <CNNaffinity>
6.9758729935

> <CNN_VS>
1.3815530539

> <CNNaffinity_variance>
0.1529622078

$$$$
[H]c1nc(N([H])c2c([H])c([H])c(C([H])(C([H])([H])[H])C([H])([H])[H])c([H])c2OC([H])([H])[H])nc(N([H])c2c([H])c([H])c([H])c([H])c2S(=O)(=O)C([H])(C([H])([H])[H])C([H])([H])[H])c1Cl


 34 36  0  0  0  0  0  0  0  0999 V2000
   -3.9933   22.3084  -25.4534 C   0  0  0  0  0  0  0  0  0  0  0  0
   -3.6204   22.3319  -26.7340 N   0  0  0  0  0  0  0  0  0  0  0  0
   -2.3578   22.5368  -27.1262 C   0  0  0  0  0  0  0  0  0  0  0  0
   -1.3846   22.7338  -26.1932 C   0  0  0  0  0  0  0  0  0  0  0  0
    0.2534   23.0010  -26.6529 Cl  0  0  0  0  0  0  0  0  0  0  0  0
   -1.7079   22.7214  -24.8271 C   0  0  0  0  0  0  0  0  0  0  0  0
   -2.9804   22.5109  -24.5625 N   0  0  0  0  0  0  0  0  0  0  0  0
   -5.3126   22.0967  -24.9722 N   0  0  0  0  0  0  0  0  0  0  0  0
   -5.7237   21.1271  -25.1784 H   0  0  0  0  0  0  0  0  0  0  0  0
   -6.8506   23.9333  -25.0000 C   0  0  0  0  0  0  0  0  0  0  0  0
   -7.6875   24.8433  -24.4024 C   0  0  0  0  0  0  0  0  0  0  0  0
   -7.8653   24.8582  -23.0493 C   0  0  0  0  0  0  0  0  0  0  0  0
   -7.1853   23.9393  -22.3012 C   0  0  0  0  0  0  0  0  0  0  0  0
   -6.3301   23.0109  -22.9206 C   0  0  0  0  0  0  0  0  0  0  0  0
   -6.1324   22.9725  -24.2759 C   0  0  0  0  0  0  0  0  0  0  0  0
   -8.7653   25.8327  -22.3786 C   0  0  0  0  0  0  0  0  0  0  0  0
   -8.4560   25.9437  -20.8898 C   0  0  0  0  0  0  0  0  0  0  0  0
  -10.2131   25.3768  -22.5029 C   0  0  0  0  0  0  0  0  0  0  0  0
   -6.1132   25.0273  -27.0721 C   0  0  0  0  0  0  0  0  0  0  0  0
   -6.7318   23.9913  -26.3690 O   0  0  0  0  0  0  0  0  0  0  0  0
   -0.7313   22.9202  -23.8543 N   0  0  0  0  0  0  0  0  0  0  0  0
   -0.6597   23.9491  -23.4884 H   0  0  0  0  0  0  0  0  0  0  0  0
    0.1861   22.0675  -23.2427 C   0  0  0  0  0  0  0  0  0  0  0  0
    1.2712   21.5800  -23.9070 C   0  0  0  0  0  0  0  0  0  0  0  0
    2.2198   20.7239  -23.3435 C   0  0  0  0  0  0  0  0  0  0  0  0
    2.0630   20.3432  -22.0460 C   0  0  0  0  0  0  0  0  0  0  0  0
    0.9873   20.8077  -21.3368 C   0  0  0  0  0  0  0  0  0  0  0  0
    0.0567   21.6548  -21.9094 C   0  0  0  0  0  0  0  0  0  0  0  0
   -1.2761   22.2139  -20.9816 S   0  0  0  0  0  0  0  0  0  0  0  0
   -1.4470   23.7100  -20.9895 O   0  0  0  0  0  0  0  0  0  0  0  0
   -2.5564   21.6125  -21.5106 O   0  0  0  0  0  0  0  0  0  0  0  0
   -1.1887   21.7427  -19.2733 C   0  0  0  0  0  0  0  0  0  0  0  0
   -1.2883   22.9222  -18.3420 C   0  0  0  0  0  0  0  0  0  0  0  0
   -2.0842   20.5941  -18.9172 C   0  0  0  0  0  0  0  0  0  0  0  0
 19 20  1  0  0  0
 20 10  1  0  0  0
 10 11  2  0  0  0
 11 12  1  0  0  0
 12 13  2  0  0  0
 13 14  1  0  0  0
 14 15  2  0  0  0
 15  8  1  0  0  0
  8  1  1  0  0  0
  1  2  2  0  0  0
  2  3  1  0  0  0
  3  4  2  0  0  0
  4  5  1  0  0  0
  4  6  1  0  0  0
  6 21  1  0  0  0
 21 23  1  0  0  0
 23 24  2  0  0  0
 24 25  1  0  0  0
 25 26  2  0  0  0
 26 27  1  0  0  0
 27 28  2  0  0  0
 28 29  1  0  0  0
 29 30  2  0  0  0
 29 31  2  0  0  0
 29 32  1  0  0  0
 32 33  1  0  0  0
 32 34  1  0  0  0
  6  7  2  0  0  0
 12 16  1  0  0  0
 16 17  1  0  0  0
 16 18  1  0  0  0
 15 10  1  0  0  0
  7  1  1  0  0  0
 28 23  1  0  0  0
  8  9  1  0  0  0
 21 22  1  0  0  0
M  END
> <minimizedAffinity>
-7.24394

> <CNNscore>
0.1898385584

> <CNNaffinity>
6.5032958984

> <CNN_VS>
1.2345763445

> <CNNaffinity_variance>
0.4349285066

$$$$
[H]c1nc(N([H])c2c([H])c([H])c(C([H])(C([H])([H])[H])C([H])([H])[H])c([H])c2OC([H])([H])[H])nc(N([H])c2c([H])c([H])c([H])c([H])c2S(=O)(=O)C([H])(C([H])([H])[H])C([H])([H])[H])c1Cl


 34 36  0  0  0  0  0  0  0  0999 V2000
   -1.2702   22.2269  -24.4718 C   0  0  0  0  0  0  0  0  0  0  0  0
   -0.2688   22.2109  -25.3529 N   0  0  0  0  0  0  0  0  0  0  0  0
    0.9716   21.8140  -25.0459 C   0  0  0  0  0  0  0  0  0  0  0  0
    1.2538   21.4007  -23.7787 C   0  0  0  0  0  0  0  0  0  0  0  0
    2.8360   20.8814  -23.3395 Cl  0  0  0  0  0  0  0  0  0  0  0  0
    0.2460   21.3922  -22.8013 C   0  0  0  0  0  0  0  0  0  0  0  0
   -0.9326   21.8036  -23.2197 N   0  0  0  0  0  0  0  0  0  0  0  0
   -2.6050   22.6354  -24.7329 N   0  0  0  0  0  0  0  0  0  0  0  0
   -3.2900   22.5061  -23.9169 H   0  0  0  0  0  0  0  0  0  0  0  0
   -3.8380   24.3843  -25.8104 C   0  0  0  0  0  0  0  0  0  0  0  0
   -4.3984   24.9979  -26.9035 C   0  0  0  0  0  0  0  0  0  0  0  0
   -4.2969   24.4519  -28.1502 C   0  0  0  0  0  0  0  0  0  0  0  0
   -3.6196   23.2727  -28.2826 C   0  0  0  0  0  0  0  0  0  0  0  0
   -3.0487   22.6507  -27.1584 C   0  0  0  0  0  0  0  0  0  0  0  0
   -3.1346   23.1755  -25.8956 C   0  0  0  0  0  0  0  0  0  0  0  0
   -4.8945   25.0962  -29.3490 C   0  0  0  0  0  0  0  0  0  0  0  0
   -5.5694   24.0717  -30.2542 C   0  0  0  0  0  0  0  0  0  0  0  0
   -3.8081   25.7752  -30.1724 C   0  0  0  0  0  0  0  0  0  0  0  0
   -5.1716   25.0238  -23.8491 C   0  0  0  0  0  0  0  0  0  0  0  0
   -3.9896   25.0057  -24.5928 O   0  0  0  0  0  0  0  0  0  0  0  0
    0.5094   20.9741  -21.4992 N   0  0  0  0  0  0  0  0  0  0  0  0
    1.2501   20.1723  -21.4223 H   0  0  0  0  0  0  0  0  0  0  0  0
    0.0173   21.3717  -20.2572 C   0  0  0  0  0  0  0  0  0  0  0  0
   -1.2949   21.6861  -20.0688 C   0  0  0  0  0  0  0  0  0  0  0  0
   -1.8401   22.0897  -18.8480 C   0  0  0  0  0  0  0  0  0  0  0  0
   -1.0182   22.1792  -17.7665 C   0  0  0  0  0  0  0  0  0  0  0  0
    0.3094   21.8731  -17.9067 C   0  0  0  0  0  0  0  0  0  0  0  0
    0.8337   21.4750  -19.1225 C   0  0  0  0  0  0  0  0  0  0  0  0
    2.5046   21.0993  -19.2516 S   0  0  0  0  0  0  0  0  0  0  0  0
    2.7863   19.6697  -19.6319 O   0  0  0  0  0  0  0  0  0  0  0  0
    3.1475   21.9779  -20.2983 O   0  0  0  0  0  0  0  0  0  0  0  0
    3.4073   21.3914  -17.7524 C   0  0  0  0  0  0  0  0  0  0  0  0
    4.4184   20.3124  -17.4664 C   0  0  0  0  0  0  0  0  0  0  0  0
    3.9393   22.7878  -17.6301 C   0  0  0  0  0  0  0  0  0  0  0  0
 19 20  1  0  0  0
 20 10  1  0  0  0
 10 11  2  0  0  0
 11 12  1  0  0  0
 12 13  2  0  0  0
 13 14  1  0  0  0
 14 15  2  0  0  0
 15  8  1  0  0  0
  8  1  1  0  0  0
  1  2  2  0  0  0
  2  3  1  0  0  0
  3  4  2  0  0  0
  4  5  1  0  0  0
  4  6  1  0  0  0
  6 21  1  0  0  0
 21 23  1  0  0  0
 23 24  2  0  0  0
 24 25  1  0  0  0
 25 26  2  0  0  0
 26 27  1  0  0  0
 27 28  2  0  0  0
 28 29  1  0  0  0
 29 30  2  0  0  0
 29 31  2  0  0  0
 29 32  1  0  0  0
 32 33  1  0  0  0
 32 34  1  0  0  0
  6  7  2  0  0  0
 12 16  1  0  0  0
 16 17  1  0  0  0
 16 18  1  0  0  0
 15 10  1  0  0  0
  7  1  1  0  0  0
 28 23  1  0  0  0
  8  9  1  0  0  0
 21 22  1  0  0  0
M  END
> <minimizedAffinity>
-7.47436

> <CNNscore>
0.1761279702

> <CNNaffinity>
6.8248243332

> <CNN_VS>
1.2020424604

> <CNNaffinity_variance>
0.2507921755

$$$$
[H]c1nc(N([H])c2c([H])c([H])c(C([H])(C([H])([H])[H])C([H])([H])[H])c([H])c2OC([H])([H])[H])nc(N([H])c2c([H])c([H])c([H])c([H])c2S(=O)(=O)C([H])(C([H])([H])[H])C([H])([H])[H])c1Cl


 34 36  0  0  0  0  0  0  0  0999 V2000
   -5.8659   24.1789  -22.8626 C   0  0  0  0  0  0  0  0  0  0  0  0
   -6.0891   24.3482  -21.5583 N   0  0  0  0  0  0  0  0  0  0  0  0
   -5.4783   23.6278  -20.6105 C   0  0  0  0  0  0  0  0  0  0  0  0
   -4.5796   22.6677  -20.9665 C   0  0  0  0  0  0  0  0  0  0  0  0
   -3.7703   21.7172  -19.7801 Cl  0  0  0  0  0  0  0  0  0  0  0  0
   -4.2975   22.4371  -22.3222 C   0  0  0  0  0  0  0  0  0  0  0  0
   -4.9583   23.2057  -23.1624 N   0  0  0  0  0  0  0  0  0  0  0  0
   -6.4793   24.9080  -23.9156 N   0  0  0  0  0  0  0  0  0  0  0  0
   -7.2094   25.6308  -23.6056 H   0  0  0  0  0  0  0  0  0  0  0  0
   -5.6739   25.8951  -25.9446 C   0  0  0  0  0  0  0  0  0  0  0  0
   -5.4161   25.8928  -27.2933 C   0  0  0  0  0  0  0  0  0  0  0  0
   -5.7226   24.8132  -28.0699 C   0  0  0  0  0  0  0  0  0  0  0  0
   -6.2956   23.7293  -27.4672 C   0  0  0  0  0  0  0  0  0  0  0  0
   -6.5565   23.7395  -26.0856 C   0  0  0  0  0  0  0  0  0  0  0  0
   -6.2596   24.8085  -25.2816 C   0  0  0  0  0  0  0  0  0  0  0  0
   -5.4536   24.7860  -29.5316 C   0  0  0  0  0  0  0  0  0  0  0  0
   -5.4229   23.3585  -30.0661 C   0  0  0  0  0  0  0  0  0  0  0  0
   -4.0922   25.4032  -29.8230 C   0  0  0  0  0  0  0  0  0  0  0  0
   -4.0233   27.4318  -24.9709 C   0  0  0  0  0  0  0  0  0  0  0  0
   -5.3322   27.0258  -25.2400 O   0  0  0  0  0  0  0  0  0  0  0  0
   -3.3829   21.4616  -22.7114 N   0  0  0  0  0  0  0  0  0  0  0  0
   -3.8274   20.4859  -22.9306 H   0  0  0  0  0  0  0  0  0  0  0  0
   -1.9994   21.4718  -22.8815 C   0  0  0  0  0  0  0  0  0  0  0  0
   -1.1471   21.1247  -21.8768 C   0  0  0  0  0  0  0  0  0  0  0  0
    0.2447   21.1177  -21.9927 C   0  0  0  0  0  0  0  0  0  0  0  0
    0.8002   21.4790  -23.1818 C   0  0  0  0  0  0  0  0  0  0  0  0
   -0.0164   21.8361  -24.2218 C   0  0  0  0  0  0  0  0  0  0  0  0
   -1.3928   21.8380  -24.0908 C   0  0  0  0  0  0  0  0  0  0  0  0
   -2.3781   22.2916  -25.4224 S   0  0  0  0  0  0  0  0  0  0  0  0
   -3.6048   21.4364  -25.5998 O   0  0  0  0  0  0  0  0  0  0  0  0
   -2.8452   23.7175  -25.2514 O   0  0  0  0  0  0  0  0  0  0  0  0
   -1.5228   22.2448  -26.9762 C   0  0  0  0  0  0  0  0  0  0  0  0
   -2.3991   22.6520  -28.1315 C   0  0  0  0  0  0  0  0  0  0  0  0
   -0.1823   22.9157  -26.9481 C   0  0  0  0  0  0  0  0  0  0  0  0
 19 20  1  0  0  0
 20 10  1  0  0  0
 10 11  2  0  0  0
 11 12  1  0  0  0
 12 13  2  0  0  0
 13 14  1  0  0  0
 14 15  2  0  0  0
 15  8  1  0  0  0
  8  1  1  0  0  0
  1  2  2  0  0  0
  2  3  1  0  0  0
  3  4  2  0  0  0
  4  5  1  0  0  0
  4  6  1  0  0  0
  6 21  1  0  0  0
 21 23  1  0  0  0
 23 24  2  0  0  0
 24 25  1  0  0  0
 25 26  2  0  0  0
 26 27  1  0  0  0
 27 28  2  0  0  0
 28 29  1  0  0  0
 29 30  2  0  0  0
 29 31  2  0  0  0
 29 32  1  0  0  0
 32 33  1  0  0  0
 32 34  1  0  0  0
  6  7  2  0  0  0
 12 16  1  0  0  0
 16 17  1  0  0  0
 16 18  1  0  0  0
 15 10  1  0  0  0
  7  1  1  0  0  0
 28 23  1  0  0  0
  8  9  1  0  0  0
 21 22  1  0  0  0
M  END
> <minimizedAffinity>
-8.64699

> <CNNscore>
0.1515294909

> <CNNaffinity>
6.6176848412

> <CNN_VS>
1.0027743578

> <CNNaffinity_variance>
0.7336510420

$$$$
[H]c1nc(N([H])c2c([H])c([H])c(C([H])(C([H])([H])[H])C([H])([H])[H])c([H])c2OC([H])([H])[H])nc(N([H])c2c([H])c([H])c([H])c([H])c2S(=O)(=O)C([H])(C([H])([H])[H])C([H])([H])[H])c1Cl


 34 36  0  0  0  0  0  0  0  0999 V2000
   -1.7044   22.5615  -25.0430 C   0  0  0  0  0  0  0  0  0  0  0  0
   -0.5839   22.6896  -25.7554 N   0  0  0  0  0  0  0  0  0  0  0  0
    0.6120   22.2748  -25.3217 C   0  0  0  0  0  0  0  0  0  0  0  0
    0.7197   21.6893  -24.0962 C   0  0  0  0  0  0  0  0  0  0  0  0
    2.2387   21.1406  -23.4982 Cl  0  0  0  0  0  0  0  0  0  0  0  0
   -0.4204   21.5232  -23.2940 C   0  0  0  0  0  0  0  0  0  0  0  0
   -1.5393   21.9694  -23.8252 N   0  0  0  0  0  0  0  0  0  0  0  0
   -3.0009   22.9796  -25.4445 N   0  0  0  0  0  0  0  0  0  0  0  0
   -3.7475   22.9551  -24.6740 H   0  0  0  0  0  0  0  0  0  0  0  0
   -4.0428   24.6656  -26.7904 C   0  0  0  0  0  0  0  0  0  0  0  0
   -4.4958   25.1811  -27.9798 C   0  0  0  0  0  0  0  0  0  0  0  0
   -4.3644   24.4865  -29.1472 C   0  0  0  0  0  0  0  0  0  0  0  0
   -3.7673   23.2585  -29.1011 C   0  0  0  0  0  0  0  0  0  0  0  0
   -3.3063   22.7376  -27.8793 C   0  0  0  0  0  0  0  0  0  0  0  0
   -3.4246   23.4121  -26.6925 C   0  0  0  0  0  0  0  0  0  0  0  0
   -4.8463   25.0224  -30.4472 C   0  0  0  0  0  0  0  0  0  0  0  0
   -5.4931   26.3928  -30.2797 C   0  0  0  0  0  0  0  0  0  0  0  0
   -5.9037   24.0963  -31.0334 C   0  0  0  0  0  0  0  0  0  0  0  0
   -5.4160   25.5530  -24.9571 C   0  0  0  0  0  0  0  0  0  0  0  0
   -4.2171   25.4347  -25.6636 O   0  0  0  0  0  0  0  0  0  0  0  0
   -0.3362   20.9278  -22.0378 N   0  0  0  0  0  0  0  0  0  0  0  0
   -0.3260   19.8336  -22.0552 H   0  0  0  0  0  0  0  0  0  0  0  0
   -0.2615   21.4452  -20.7456 C   0  0  0  0  0  0  0  0  0  0  0  0
   -0.7479   22.6791  -20.4339 C   0  0  0  0  0  0  0  0  0  0  0  0
   -0.6990   23.2451  -19.1581 C   0  0  0  0  0  0  0  0  0  0  0  0
   -0.1309   22.5282  -18.1499 C   0  0  0  0  0  0  0  0  0  0  0  0
    0.3722   21.2821  -18.4146 C   0  0  0  0  0  0  0  0  0  0  0  0
    0.3160   20.7359  -19.6835 C   0  0  0  0  0  0  0  0  0  0  0  0
    0.9582   19.1688  -19.9693 S   0  0  0  0  0  0  0  0  0  0  0  0
    1.1348   18.3397  -18.7248 O   0  0  0  0  0  0  0  0  0  0  0  0
    0.0437   18.4017  -20.8945 O   0  0  0  0  0  0  0  0  0  0  0  0
    2.5432   19.1947  -20.7663 C   0  0  0  0  0  0  0  0  0  0  0  0
    3.4847   20.1952  -20.1492 C   0  0  0  0  0  0  0  0  0  0  0  0
    3.1356   17.8336  -20.9767 C   0  0  0  0  0  0  0  0  0  0  0  0
 19 20  1  0  0  0
 20 10  1  0  0  0
 10 11  2  0  0  0
 11 12  1  0  0  0
 12 13  2  0  0  0
 13 14  1  0  0  0
 14 15  2  0  0  0
 15  8  1  0  0  0
  8  1  1  0  0  0
  1  2  2  0  0  0
  2  3  1  0  0  0
  3  4  2  0  0  0
  4  5  1  0  0  0
  4  6  1  0  0  0
  6 21  1  0  0  0
 21 23  1  0  0  0
 23 24  2  0  0  0
 24 25  1  0  0  0
 25 26  2  0  0  0
 26 27  1  0  0  0
 27 28  2  0  0  0
 28 29  1  0  0  0
 29 30  2  0  0  0
 29 31  2  0  0  0
 29 32  1  0  0  0
 32 33  1  0  0  0
 32 34  1  0  0  0
  6  7  2  0  0  0
 12 16  1  0  0  0
 16 17  1  0  0  0
 16 18  1  0  0  0
 15 10  1  0  0  0
  7  1  1  0  0  0
 28 23  1  0  0  0
  8  9  1  0  0  0
 21 22  1  0  0  0
M  END
> <minimizedAffinity>
-7.47268

> <CNNscore>
0.1170930043

> <CNNaffinity>
6.6753754616

> <CNN_VS>
0.7816397548

> <CNNaffinity_variance>
0.2099003047

$$$$
[H]c1nc(N([H])c2c([H])c([H])c(C([H])(C([H])([H])[H])C([H])([H])[H])c([H])c2OC([H])([H])[H])nc(N([H])c2c([H])c([H])c([H])c([H])c2S(=O)(=O)C([H])(C([H])([H])[H])C([H])([H])[H])c1Cl


 34 36  0  0  0  0  0  0  0  0999 V2000
   -1.8618   21.5640  -23.0841 C   0  0  0  0  0  0  0  0  0  0  0  0
   -0.5773   21.3368  -23.3636 N   0  0  0  0  0  0  0  0  0  0  0  0
    0.0089   21.7406  -24.4965 C   0  0  0  0  0  0  0  0  0  0  0  0
   -0.7179   22.4193  -25.4279 C   0  0  0  0  0  0  0  0  0  0  0  0
   -0.0042   22.9579  -26.8998 Cl  0  0  0  0  0  0  0  0  0  0  0  0
   -2.0755   22.6925  -25.1975 C   0  0  0  0  0  0  0  0  0  0  0  0
   -2.5416   22.2466  -24.0498 N   0  0  0  0  0  0  0  0  0  0  0  0
   -2.5424   21.1633  -21.9038 N   0  0  0  0  0  0  0  0  0  0  0  0
   -2.2192   20.2295  -21.4851 H   0  0  0  0  0  0  0  0  0  0  0  0
   -3.3057   22.2979  -19.9367 C   0  0  0  0  0  0  0  0  0  0  0  0
   -4.2490   22.9568  -19.1872 C   0  0  0  0  0  0  0  0  0  0  0  0
   -5.5060   23.1797  -19.6697 C   0  0  0  0  0  0  0  0  0  0  0  0
   -5.8027   22.7277  -20.9244 C   0  0  0  0  0  0  0  0  0  0  0  0
   -4.8314   22.0538  -21.6855 C   0  0  0  0  0  0  0  0  0  0  0  0
   -3.5622   21.8161  -21.2271 C   0  0  0  0  0  0  0  0  0  0  0  0
   -6.5446   23.8901  -18.8785 C   0  0  0  0  0  0  0  0  0  0  0  0
   -7.0051   25.1635  -19.5792 C   0  0  0  0  0  0  0  0  0  0  0  0
   -5.9787   24.3023  -17.5260 C   0  0  0  0  0  0  0  0  0  0  0  0
   -1.7959   22.1876  -18.0021 C   0  0  0  0  0  0  0  0  0  0  0  0
   -2.0653   22.1175  -19.3707 O   0  0  0  0  0  0  0  0  0  0  0  0
   -2.8396   23.3846  -26.1339 N   0  0  0  0  0  0  0  0  0  0  0  0
   -2.6776   23.0723  -27.1702 H   0  0  0  0  0  0  0  0  0  0  0  0
   -3.7806   24.4068  -26.0218 C   0  0  0  0  0  0  0  0  0  0  0  0
   -4.0152   25.0442  -24.8407 C   0  0  0  0  0  0  0  0  0  0  0  0
   -4.9448   26.0728  -24.6726 C   0  0  0  0  0  0  0  0  0  0  0  0
   -5.6714   26.4755  -25.7511 C   0  0  0  0  0  0  0  0  0  0  0  0
   -5.4706   25.8643  -26.9603 C   0  0  0  0  0  0  0  0  0  0  0  0
   -4.5463   24.8472  -27.1101 C   0  0  0  0  0  0  0  0  0  0  0  0
   -4.3266   24.1104  -28.6459 S   0  0  0  0  0  0  0  0  0  0  0  0
   -2.8849   23.9332  -29.0429 O   0  0  0  0  0  0  0  0  0  0  0  0
   -4.9663   22.7423  -28.6536 O   0  0  0  0  0  0  0  0  0  0  0  0
   -5.0898   25.0098  -29.9712 C   0  0  0  0  0  0  0  0  0  0  0  0
   -4.1631   26.0213  -30.5929 C   0  0  0  0  0  0  0  0  0  0  0  0
   -5.8081   24.1384  -30.9575 C   0  0  0  0  0  0  0  0  0  0  0  0
 19 20  1  0  0  0
 20 10  1  0  0  0
 10 11  2  0  0  0
 11 12  1  0  0  0
 12 13  2  0  0  0
 13 14  1  0  0  0
 14 15  2  0  0  0
 15  8  1  0  0  0
  8  1  1  0  0  0
  1  2  2  0  0  0
  2  3  1  0  0  0
  3  4  2  0  0  0
  4  5  1  0  0  0
  4  6  1  0  0  0
  6 21  1  0  0  0
 21 23  1  0  0  0
 23 24  2  0  0  0
 24 25  1  0  0  0
 25 26  2  0  0  0
 26 27  1  0  0  0
 27 28  2  0  0  0
 28 29  1  0  0  0
 29 30  2  0  0  0
 29 31  2  0  0  0
 29 32  1  0  0  0
 32 33  1  0  0  0
 32 34  1  0  0  0
  6  7  2  0  0  0
 12 16  1  0  0  0
 16 17  1  0  0  0
 16 18  1  0  0  0
 15 10  1  0  0  0
  7  1  1  0  0  0
 28 23  1  0  0  0
  8  9  1  0  0  0
 21 22  1  0  0  0
M  END
> <minimizedAffinity>
-7.78158

> <CNNscore>
0.1035964862

> <CNNaffinity>
6.6422271729

> <CNN_VS>
0.6881114244

> <CNNaffinity_variance>
0.3657235503

$$$$
[H]c1nc(N([H])c2c([H])c([H])c(C([H])(C([H])([H])[H])C([H])([H])[H])c([H])c2OC([H])([H])[H])nc(N([H])c2c([H])c([H])c([H])c([H])c2S(=O)(=O)C([H])(C([H])([H])[H])C([H])([H])[H])c1Cl


 34 36  0  0  0  0  0  0  0  0999 V2000
   -4.0902   24.4369  -22.3754 C   0  0  0  0  0  0  0  0  0  0  0  0
   -3.4166   24.0091  -21.3064 N   0  0  0  0  0  0  0  0  0  0  0  0
   -2.5251   23.0125  -21.3522 C   0  0  0  0  0  0  0  0  0  0  0  0
   -2.2730   22.3861  -22.5356 C   0  0  0  0  0  0  0  0  0  0  0  0
   -1.1337   21.0990  -22.6406 Cl  0  0  0  0  0  0  0  0  0  0  0  0
   -2.9470   22.7865  -23.7002 C   0  0  0  0  0  0  0  0  0  0  0  0
   -3.7995   23.7757  -23.5326 N   0  0  0  0  0  0  0  0  0  0  0  0
   -5.0469   25.4863  -22.3940 N   0  0  0  0  0  0  0  0  0  0  0  0
   -4.6396   26.4736  -22.4990 H   0  0  0  0  0  0  0  0  0  0  0  0
   -7.0092   25.4364  -21.0205 C   0  0  0  0  0  0  0  0  0  0  0  0
   -8.3654   25.3601  -20.8190 C   0  0  0  0  0  0  0  0  0  0  0  0
   -9.2308   25.2453  -21.8680 C   0  0  0  0  0  0  0  0  0  0  0  0
   -8.7097   25.2080  -23.1304 C   0  0  0  0  0  0  0  0  0  0  0  0
   -7.3200   25.2866  -23.3285 C   0  0  0  0  0  0  0  0  0  0  0  0
   -6.4279   25.4023  -22.2949 C   0  0  0  0  0  0  0  0  0  0  0  0
  -10.7024   25.1610  -21.6762 C   0  0  0  0  0  0  0  0  0  0  0  0
  -11.4533   25.8126  -22.8321 C   0  0  0  0  0  0  0  0  0  0  0  0
  -11.1061   25.8989  -20.4066 C   0  0  0  0  0  0  0  0  0  0  0  0
   -6.2930   24.7265  -18.7806 C   0  0  0  0  0  0  0  0  0  0  0  0
   -6.2122   25.5504  -19.9055 O   0  0  0  0  0  0  0  0  0  0  0  0
   -2.7068   22.1621  -24.9217 N   0  0  0  0  0  0  0  0  0  0  0  0
   -3.3640   21.3129  -25.1330 H   0  0  0  0  0  0  0  0  0  0  0  0
   -1.7894   22.3988  -25.9441 C   0  0  0  0  0  0  0  0  0  0  0  0
   -0.4877   22.0078  -25.8494 C   0  0  0  0  0  0  0  0  0  0  0  0
    0.4718   22.2194  -26.8419 C   0  0  0  0  0  0  0  0  0  0  0  0
    0.0960   22.8569  -27.9845 C   0  0  0  0  0  0  0  0  0  0  0  0
   -1.2025   23.2688  -28.1258 C   0  0  0  0  0  0  0  0  0  0  0  0
   -2.1406   23.0517  -27.1336 C   0  0  0  0  0  0  0  0  0  0  0  0
   -3.7584   23.5842  -27.3547 S   0  0  0  0  0  0  0  0  0  0  0  0
   -4.7974   22.6348  -26.8194 O   0  0  0  0  0  0  0  0  0  0  0  0
   -3.9605   24.9099  -26.6600 O   0  0  0  0  0  0  0  0  0  0  0  0
   -4.1803   23.8593  -29.0560 C   0  0  0  0  0  0  0  0  0  0  0  0
   -5.4759   23.1971  -29.4451 C   0  0  0  0  0  0  0  0  0  0  0  0
   -4.0632   25.2916  -29.4833 C   0  0  0  0  0  0  0  0  0  0  0  0
 19 20  1  0  0  0
 20 10  1  0  0  0
 10 11  2  0  0  0
 11 12  1  0  0  0
 12 13  2  0  0  0
 13 14  1  0  0  0
 14 15  2  0  0  0
 15  8  1  0  0  0
  8  1  1  0  0  0
  1  2  2  0  0  0
  2  3  1  0  0  0
  3  4  2  0  0  0
  4  5  1  0  0  0
  4  6  1  0  0  0
  6 21  1  0  0  0
 21 23  1  0  0  0
 23 24  2  0  0  0
 24 25  1  0  0  0
 25 26  2  0  0  0
 26 27  1  0  0  0
 27 28  2  0  0  0
 28 29  1  0  0  0
 29 30  2  0  0  0
 29 31  2  0  0  0
 29 32  1  0  0  0
 32 33  1  0  0  0
 32 34  1  0  0  0
  6  7  2  0  0  0
 12 16  1  0  0  0
 16 17  1  0  0  0
 16 18  1  0  0  0
 15 10  1  0  0  0
  7  1  1  0  0  0
 28 23  1  0  0  0
  8  9  1  0  0  0
 21 22  1  0  0  0
M  END
> <minimizedAffinity>
-9.01402

> <CNNscore>
0.1028426141

> <CNNaffinity>
6.1226086617

> <CNN_VS>
0.6296650767

> <CNNaffinity_variance>
0.7170969248

$$$$
[H]c1c(C#N)c([H])c2c(-c3c([H])c([H])c4c(c3[H])c([H])c([H])n4C([H])([H])[H])nn([H])c2c1[H]


 22 25  0  0  0  0  0  0  0  0999 V2000
   -0.2663   22.3058  -26.1264 C   0  0  0  0  0  0  0  0  0  0  0  0
    0.5278   22.4736  -27.1812 N   0  0  0  0  0  0  0  0  0  0  0  0
   -0.1600   22.8677  -28.2262 N   0  0  0  0  0  0  0  0  0  0  0  0
   -1.4465   22.9631  -27.8509 C   0  0  0  0  0  0  0  0  0  0  0  0
   -2.5580   23.3339  -28.5752 C   0  0  0  0  0  0  0  0  0  0  0  0
   -3.7971   23.3514  -27.9462 C   0  0  0  0  0  0  0  0  0  0  0  0
   -3.9206   23.0048  -26.6190 C   0  0  0  0  0  0  0  0  0  0  0  0
   -2.7986   22.6395  -25.9201 C   0  0  0  0  0  0  0  0  0  0  0  0
   -1.5471   22.6107  -26.5153 C   0  0  0  0  0  0  0  0  0  0  0  0
    0.2362   23.0681  -29.1760 H   0  0  0  0  0  0  0  0  0  0  0  0
    0.9806   20.3708  -19.8185 C   0  0  0  0  0  0  0  0  0  0  0  0
    1.5800   20.6437  -21.1092 N   0  0  0  0  0  0  0  0  0  0  0  0
    2.9119   20.5257  -21.3725 C   0  0  0  0  0  0  0  0  0  0  0  0
    3.0784   20.8700  -22.6968 C   0  0  0  0  0  0  0  0  0  0  0  0
    1.8620   21.1999  -23.2545 C   0  0  0  0  0  0  0  0  0  0  0  0
    1.4433   21.6073  -24.5031 C   0  0  0  0  0  0  0  0  0  0  0  0
    0.1032   21.8777  -24.7835 C   0  0  0  0  0  0  0  0  0  0  0  0
   -0.7888   21.7208  -23.7583 C   0  0  0  0  0  0  0  0  0  0  0  0
   -0.3842   21.3105  -22.4921 C   0  0  0  0  0  0  0  0  0  0  0  0
    0.9434   21.0453  -22.2240 C   0  0  0  0  0  0  0  0  0  0  0  0
   -5.1817   23.0132  -25.9437 C   0  0  0  0  0  0  0  0  0  0  0  0
   -6.1946   23.0316  -25.3828 N   0  0  0  0  0  0  0  0  0  0  0  0
 11 12  1  0  0  0
 12 13  1  0  0  0
 13 14  2  0  0  0
 14 15  1  0  0  0
 15 16  2  0  0  0
 16 17  1  0  0  0
 17 18  2  0  0  0
 18 19  1  0  0  0
 19 20  2  0  0  0
 17  1  1  0  0  0
  1  2  2  0  0  0
  2  3  1  0  0  0
  3  4  1  0  0  0
  4  5  2  0  0  0
  5  6  1  0  0  0
  6  7  2  0  0  0
  7  8  1  0  0  0
  8  9  2  0  0  0
  7 21  1  0  0  0
 21 22  3  0  0  0
 20 12  1  0  0  0
  9  1  1  0  0  0
 20 15  1  0  0  0
  9  4  1  0  0  0
  3 10  1  0  0  0
M  END
> <minimizedAffinity>
-8.20405

> <CNNscore>
0.9441489577

> <CNNaffinity>
6.3158426285

> <CNN_VS>
5.9630961418

> <CNNaffinity_variance>
0.1343423426

$$$$
[H]c1c(C#N)c([H])c2c(-c3c([H])c([H])c4c(c3[H])c([H])c([H])n4C([H])([H])[H])nn([H])c2c1[H]


 22 25  0  0  0  0  0  0  0  0999 V2000
   -1.1954   22.4893  -25.9153 C   0  0  0  0  0  0  0  0  0  0  0  0
    0.0939   22.2923  -26.1802 N   0  0  0  0  0  0  0  0  0  0  0  0
    0.7234   21.8342  -25.1247 N   0  0  0  0  0  0  0  0  0  0  0  0
   -0.1765   21.7252  -24.1331 C   0  0  0  0  0  0  0  0  0  0  0  0
   -0.0192   21.2948  -22.8339 C   0  0  0  0  0  0  0  0  0  0  0  0
   -1.1245   21.2763  -21.9917 C   0  0  0  0  0  0  0  0  0  0  0  0
   -2.3620   21.6805  -22.4412 C   0  0  0  0  0  0  0  0  0  0  0  0
   -2.4921   22.1045  -23.7388 C   0  0  0  0  0  0  0  0  0  0  0  0
   -1.4115   22.1361  -24.6064 C   0  0  0  0  0  0  0  0  0  0  0  0
    1.7443   21.5999  -25.0781 H   0  0  0  0  0  0  0  0  0  0  0  0
   -5.7927   24.4950  -30.3796 C   0  0  0  0  0  0  0  0  0  0  0  0
   -5.3047   24.6743  -29.0271 N   0  0  0  0  0  0  0  0  0  0  0  0
   -5.8455   25.5459  -28.1299 C   0  0  0  0  0  0  0  0  0  0  0  0
   -5.1073   25.4202  -26.9726 C   0  0  0  0  0  0  0  0  0  0  0  0
   -4.1154   24.4794  -27.1461 C   0  0  0  0  0  0  0  0  0  0  0  0
   -3.1146   23.9634  -26.3507 C   0  0  0  0  0  0  0  0  0  0  0  0
   -2.2303   22.9875  -26.8121 C   0  0  0  0  0  0  0  0  0  0  0  0
   -2.3976   22.5581  -28.1000 C   0  0  0  0  0  0  0  0  0  0  0  0
   -3.4019   23.0672  -28.9170 C   0  0  0  0  0  0  0  0  0  0  0  0
   -4.2720   24.0324  -28.4519 C   0  0  0  0  0  0  0  0  0  0  0  0
   -3.5182   21.6728  -21.5988 C   0  0  0  0  0  0  0  0  0  0  0  0
   -4.4571   21.6473  -20.9215 N   0  0  0  0  0  0  0  0  0  0  0  0
 11 12  1  0  0  0
 12 13  1  0  0  0
 13 14  2  0  0  0
 14 15  1  0  0  0
 15 16  2  0  0  0
 16 17  1  0  0  0
 17 18  2  0  0  0
 18 19  1  0  0  0
 19 20  2  0  0  0
 17  1  1  0  0  0
  1  2  2  0  0  0
  2  3  1  0  0  0
  3  4  1  0  0  0
  4  5  2  0  0  0
  5  6  1  0  0  0
  6  7  2  0  0  0
  7  8  1  0  0  0
  8  9  2  0  0  0
  7 21  1  0  0  0
 21 22  3  0  0  0
 20 12  1  0  0  0
  9  1  1  0  0  0
 20 15  1  0  0  0
  9  4  1  0  0  0
  3 10  1  0  0  0
M  END
> <minimizedAffinity>
-8.06927

> <CNNscore>
0.6453310251

> <CNNaffinity>
6.3067421913

> <CNN_VS>
4.0699362755

> <CNNaffinity_variance>
0.2596654296

$$$$
[H]c1c(C#N)c([H])c2c(-c3c([H])c([H])c4c(c3[H])c([H])c([H])n4C([H])([H])[H])nn([H])c2c1[H]


 22 25  0  0  0  0  0  0  0  0999 V2000
   -0.9315   22.2746  -25.3367 C   0  0  0  0  0  0  0  0  0  0  0  0
    0.1151   22.2123  -26.1565 N   0  0  0  0  0  0  0  0  0  0  0  0
    1.1811   21.7859  -25.5224 N   0  0  0  0  0  0  0  0  0  0  0  0
    0.8284   21.5599  -24.2458 C   0  0  0  0  0  0  0  0  0  0  0  0
    1.5799   21.1078  -23.1833 C   0  0  0  0  0  0  0  0  0  0  0  0
    0.9708   20.9563  -21.9434 C   0  0  0  0  0  0  0  0  0  0  0  0
   -0.3633   21.2514  -21.7709 C   0  0  0  0  0  0  0  0  0  0  0  0
   -1.0893   21.6998  -22.8445 C   0  0  0  0  0  0  0  0  0  0  0  0
   -0.5145   21.8627  -24.0953 C   0  0  0  0  0  0  0  0  0  0  0  0
    2.1297   21.6509  -25.9478 H   0  0  0  0  0  0  0  0  0  0  0  0
   -7.2636   24.2887  -26.3041 C   0  0  0  0  0  0  0  0  0  0  0  0
   -6.0641   23.8106  -26.9616 N   0  0  0  0  0  0  0  0  0  0  0  0
   -5.9556   23.6193  -28.3065 C   0  0  0  0  0  0  0  0  0  0  0  0
   -4.6745   23.1635  -28.5321 C   0  0  0  0  0  0  0  0  0  0  0  0
   -3.9902   23.0713  -27.3395 C   0  0  0  0  0  0  0  0  0  0  0  0
   -2.7174   22.6863  -26.9759 C   0  0  0  0  0  0  0  0  0  0  0  0
   -2.2913   22.6965  -25.6471 C   0  0  0  0  0  0  0  0  0  0  0  0
   -3.1972   23.1084  -24.7085 C   0  0  0  0  0  0  0  0  0  0  0  0
   -4.4857   23.5005  -25.0570 C   0  0  0  0  0  0  0  0  0  0  0  0
   -4.8982   23.4872  -26.3740 C   0  0  0  0  0  0  0  0  0  0  0  0
   -1.0185   21.1057  -20.5075 C   0  0  0  0  0  0  0  0  0  0  0  0
   -1.5536   21.0073  -19.4854 N   0  0  0  0  0  0  0  0  0  0  0  0
 11 12  1  0  0  0
 12 13  1  0  0  0
 13 14  2  0  0  0
 14 15  1  0  0  0
 15 16  2  0  0  0
 16 17  1  0  0  0
 17 18  2  0  0  0
 18 19  1  0  0  0
 19 20  2  0  0  0
 17  1  1  0  0  0
  1  2  2  0  0  0
  2  3  1  0  0  0
  3  4  1  0  0  0
  4  5  2  0  0  0
  5  6  1  0  0  0
  6  7  2  0  0  0
  7  8  1  0  0  0
  8  9  2  0  0  0
  7 21  1  0  0  0
 21 22  3  0  0  0
 20 12  1  0  0  0
  9  1  1  0  0  0
 20 15  1  0  0  0
  9  4  1  0  0  0
  3 10  1  0  0  0
M  END
> <minimizedAffinity>
-7.67613

> <CNNscore>
0.6450864673

> <CNNaffinity>
6.0829210281

> <CNN_VS>
3.9240100384

> <CNNaffinity_variance>
0.2350471020

$$$$
[H]c1c(C#N)c([H])c2c(-c3c([H])c([H])c4c(c3[H])c([H])c([H])n4C([H])([H])[H])nn([H])c2c1[H]


 22 25  0  0  0  0  0  0  0  0999 V2000
   -0.1781   21.9512  -24.7748 C   0  0  0  0  0  0  0  0  0  0  0  0
   -0.0254   21.7684  -26.0843 N   0  0  0  0  0  0  0  0  0  0  0  0
   -1.0320   22.2836  -26.7489 N   0  0  0  0  0  0  0  0  0  0  0  0
   -1.8747   22.8227  -25.8521 C   0  0  0  0  0  0  0  0  0  0  0  0
   -3.0712   23.4792  -26.0402 C   0  0  0  0  0  0  0  0  0  0  0  0
   -3.7636   23.9491  -24.9306 C   0  0  0  0  0  0  0  0  0  0  0  0
   -3.2681   23.7654  -23.6588 C   0  0  0  0  0  0  0  0  0  0  0  0
   -2.0749   23.1087  -23.4985 C   0  0  0  0  0  0  0  0  0  0  0  0
   -1.3576   22.6267  -24.5824 C   0  0  0  0  0  0  0  0  0  0  0  0
   -1.1449   22.2696  -27.7911 H   0  0  0  0  0  0  0  0  0  0  0  0
    4.2759   20.0263  -20.1332 C   0  0  0  0  0  0  0  0  0  0  0  0
    2.8790   20.3259  -20.3753 N   0  0  0  0  0  0  0  0  0  0  0  0
    1.9068   20.2532  -19.4232 C   0  0  0  0  0  0  0  0  0  0  0  0
    0.7284   20.6103  -20.0429 C   0  0  0  0  0  0  0  0  0  0  0  0
    0.9632   20.9028  -21.3690 C   0  0  0  0  0  0  0  0  0  0  0  0
    0.1793   21.3031  -22.4300 C   0  0  0  0  0  0  0  0  0  0  0  0
    0.7113   21.5309  -23.6999 C   0  0  0  0  0  0  0  0  0  0  0  0
    2.0571   21.3388  -23.8520 C   0  0  0  0  0  0  0  0  0  0  0  0
    2.8635   20.9351  -22.7927 C   0  0  0  0  0  0  0  0  0  0  0  0
    2.3285   20.7123  -21.5402 C   0  0  0  0  0  0  0  0  0  0  0  0
   -3.9571   24.2374  -22.4973 C   0  0  0  0  0  0  0  0  0  0  0  0
   -4.5319   24.6114  -21.5642 N   0  0  0  0  0  0  0  0  0  0  0  0
 11 12  1  0  0  0
 12 13  1  0  0  0
 13 14  2  0  0  0
 14 15  1  0  0  0
 15 16  2  0  0  0
 16 17  1  0  0  0
 17 18  2  0  0  0
 18 19  1  0  0  0
 19 20  2  0  0  0
 17  1  1  0  0  0
  1  2  2  0  0  0
  2  3  1  0  0  0
  3  4  1  0  0  0
  4  5  2  0  0  0
  5  6  1  0  0  0
  6  7  2  0  0  0
  7  8  1  0  0  0
  8  9  2  0  0  0
  7 21  1  0  0  0
 21 22  3  0  0  0
 20 12  1  0  0  0
  9  1  1  0  0  0
 20 15  1  0  0  0
  9  4  1  0  0  0
  3 10  1  0  0  0
M  END
> <minimizedAffinity>
-6.50027

> <CNNscore>
0.5359621644

> <CNNaffinity>
5.6486282349

> <CNN_VS>
3.0274510384

> <CNNaffinity_variance>
0.1932172924

$$$$
[H]c1c(C#N)c([H])c2c(-c3c([H])c([H])c4c(c3[H])c([H])c([H])n4C([H])([H])[H])nn([H])c2c1[H]


 22 25  0  0  0  0  0  0  0  0999 V2000
   -1.2181   22.5518  -25.3497 C   0  0  0  0  0  0  0  0  0  0  0  0
   -0.3393   22.5297  -26.3490 N   0  0  0  0  0  0  0  0  0  0  0  0
    0.8102   22.0401  -25.9502 N   0  0  0  0  0  0  0  0  0  0  0  0
    0.6874   21.7294  -24.6488 C   0  0  0  0  0  0  0  0  0  0  0  0
    1.6044   21.1889  -23.7742 C   0  0  0  0  0  0  0  0  0  0  0  0
    1.2251   20.9598  -22.4570 C   0  0  0  0  0  0  0  0  0  0  0  0
   -0.0462   21.2655  -22.0245 C   0  0  0  0  0  0  0  0  0  0  0  0
   -0.9402   21.8026  -22.9149 C   0  0  0  0  0  0  0  0  0  0  0  0
   -0.5963   22.0445  -24.2358 C   0  0  0  0  0  0  0  0  0  0  0  0
    1.6617   21.9190  -26.5496 H   0  0  0  0  0  0  0  0  0  0  0  0
   -7.6263   24.4824  -25.8931 C   0  0  0  0  0  0  0  0  0  0  0  0
   -6.4381   24.5553  -25.0669 N   0  0  0  0  0  0  0  0  0  0  0  0
   -6.3698   25.2328  -23.8864 C   0  0  0  0  0  0  0  0  0  0  0  0
   -5.0863   25.0619  -23.4139 C   0  0  0  0  0  0  0  0  0  0  0  0
   -4.3606   24.2852  -24.2911 C   0  0  0  0  0  0  0  0  0  0  0  0
   -3.0676   23.8086  -24.3272 C   0  0  0  0  0  0  0  0  0  0  0  0
   -2.5980   23.0190  -25.3777 C   0  0  0  0  0  0  0  0  0  0  0  0
   -3.4818   22.7334  -26.3819 C   0  0  0  0  0  0  0  0  0  0  0  0
   -4.7902   23.2056  -26.3621 C   0  0  0  0  0  0  0  0  0  0  0  0
   -5.2458   23.9860  -25.3189 C   0  0  0  0  0  0  0  0  0  0  0  0
   -0.4663   21.0412  -20.6755 C   0  0  0  0  0  0  0  0  0  0  0  0
   -0.8194   20.8749  -19.5853 N   0  0  0  0  0  0  0  0  0  0  0  0
 11 12  1  0  0  0
 12 13  1  0  0  0
 13 14  2  0  0  0
 14 15  1  0  0  0
 15 16  2  0  0  0
 16 17  1  0  0  0
 17 18  2  0  0  0
 18 19  1  0  0  0
 19 20  2  0  0  0
 17  1  1  0  0  0
  1  2  2  0  0  0
  2  3  1  0  0  0
  3  4  1  0  0  0
  4  5  2  0  0  0
  5  6  1  0  0  0
  6  7  2  0  0  0
  7  8  1  0  0  0
  8  9  2  0  0  0
  7 21  1  0  0  0
 21 22  3  0  0  0
 20 12  1  0  0  0
  9  1  1  0  0  0
 20 15  1  0  0  0
  9  4  1  0  0  0
  3 10  1  0  0  0
M  END
> <minimizedAffinity>
-7.17561

> <CNNscore>
0.5286645293

> <CNNaffinity>
5.8280344009

> <CNN_VS>
3.0810749531

> <CNNaffinity_variance>
0.2037205696

$$$$
[H]c1c(C#N)c([H])c2c(-c3c([H])c([H])c4c(c3[H])c([H])c([H])n4C([H])([H])[H])nn([H])c2c1[H]


 22 25  0  0  0  0  0  0  0  0999 V2000
   -1.3005   22.5600  -25.4299 C   0  0  0  0  0  0  0  0  0  0  0  0
   -0.2679   22.3842  -26.2510 N   0  0  0  0  0  0  0  0  0  0  0  0
   -0.6372   22.5193  -27.5022 N   0  0  0  0  0  0  0  0  0  0  0  0
   -1.9527   22.7925  -27.5081 C   0  0  0  0  0  0  0  0  0  0  0  0
   -2.8082   23.0189  -28.5639 C   0  0  0  0  0  0  0  0  0  0  0  0
   -4.1469   23.2838  -28.3013 C   0  0  0  0  0  0  0  0  0  0  0  0
   -4.6193   23.3213  -27.0081 C   0  0  0  0  0  0  0  0  0  0  0  0
   -3.7471   23.0925  -25.9749 C   0  0  0  0  0  0  0  0  0  0  0  0
   -2.4057   22.8252  -26.1998 C   0  0  0  0  0  0  0  0  0  0  0  0
   -0.0086   22.4279  -28.3363 H   0  0  0  0  0  0  0  0  0  0  0  0
   -1.5644   22.6744  -18.7213 C   0  0  0  0  0  0  0  0  0  0  0  0
   -1.1327   21.9070  -19.8721 N   0  0  0  0  0  0  0  0  0  0  0  0
   -0.5097   20.6976  -19.7929 C   0  0  0  0  0  0  0  0  0  0  0  0
   -0.2652   20.3007  -21.0900 C   0  0  0  0  0  0  0  0  0  0  0  0
   -0.7311   21.2533  -21.9702 C   0  0  0  0  0  0  0  0  0  0  0  0
   -0.7552   21.3801  -23.3427 C   0  0  0  0  0  0  0  0  0  0  0  0
   -1.3117   22.4932  -23.9743 C   0  0  0  0  0  0  0  0  0  0  0  0
   -1.8384   23.4648  -23.1682 C   0  0  0  0  0  0  0  0  0  0  0  0
   -1.8229   23.3536  -21.7816 C   0  0  0  0  0  0  0  0  0  0  0  0
   -1.2703   22.2491  -21.1657 C   0  0  0  0  0  0  0  0  0  0  0  0
   -5.9913   23.5913  -26.7059 C   0  0  0  0  0  0  0  0  0  0  0  0
   -7.1058   23.7903  -26.4629 N   0  0  0  0  0  0  0  0  0  0  0  0
 11 12  1  0  0  0
 12 13  1  0  0  0
 13 14  2  0  0  0
 14 15  1  0  0  0
 15 16  2  0  0  0
 16 17  1  0  0  0
 17 18  2  0  0  0
 18 19  1  0  0  0
 19 20  2  0  0  0
 17  1  1  0  0  0
  1  2  2  0  0  0
  2  3  1  0  0  0
  3  4  1  0  0  0
  4  5  2  0  0  0
  5  6  1  0  0  0
  6  7  2  0  0  0
  7  8  1  0  0  0
  8  9  2  0  0  0
  7 21  1  0  0  0
 21 22  3  0  0  0
 20 12  1  0  0  0
  9  1  1  0  0  0
 20 15  1  0  0  0
  9  4  1  0  0  0
  3 10  1  0  0  0
M  END
> <minimizedAffinity>
-7.70157

> <CNNscore>
0.5184296370

> <CNNaffinity>
6.0349068642

> <CNN_VS>
3.1286745071

> <CNNaffinity_variance>
0.4729174674

$$$$
[H]c1c(C#N)c([H])c2c(-c3c([H])c([H])c4c(c3[H])c([H])c([H])n4C([H])([H])[H])nn([H])c2c1[H]


 22 25  0  0  0  0  0  0  0  0999 V2000
   -2.7012   21.8691  -23.0955 C   0  0  0  0  0  0  0  0  0  0  0  0
   -4.0138   21.7604  -22.9041 N   0  0  0  0  0  0  0  0  0  0  0  0
   -4.6669   21.9449  -24.0264 N   0  0  0  0  0  0  0  0  0  0  0  0
   -3.7590   22.1825  -24.9879 C   0  0  0  0  0  0  0  0  0  0  0  0
   -3.9330   22.4366  -26.3307 C   0  0  0  0  0  0  0  0  0  0  0  0
   -2.8140   22.6537  -27.1258 C   0  0  0  0  0  0  0  0  0  0  0  0
   -1.5469   22.6169  -26.5874 C   0  0  0  0  0  0  0  0  0  0  0  0
   -1.4008   22.3620  -25.2479 C   0  0  0  0  0  0  0  0  0  0  0  0
   -2.4943   22.1409  -24.4252 C   0  0  0  0  0  0  0  0  0  0  0  0
   -5.7087   21.9103  -24.1378 H   0  0  0  0  0  0  0  0  0  0  0  0
    2.3503   20.8640  -18.7873 C   0  0  0  0  0  0  0  0  0  0  0  0
    1.2251   21.7191  -19.1073 N   0  0  0  0  0  0  0  0  0  0  0  0
    0.8656   22.8125  -18.3777 C   0  0  0  0  0  0  0  0  0  0  0  0
   -0.2407   23.3490  -19.0008 C   0  0  0  0  0  0  0  0  0  0  0  0
   -0.5684   22.5976  -20.1086 C   0  0  0  0  0  0  0  0  0  0  0  0
   -1.5495   22.6661  -21.0745 C   0  0  0  0  0  0  0  0  0  0  0  0
   -1.6360   21.7349  -22.1103 C   0  0  0  0  0  0  0  0  0  0  0  0
   -0.6977   20.7397  -22.1294 C   0  0  0  0  0  0  0  0  0  0  0  0
    0.2996   20.6549  -21.1631 C   0  0  0  0  0  0  0  0  0  0  0  0
    0.3772   21.5806  -20.1423 C   0  0  0  0  0  0  0  0  0  0  0  0
   -0.3760   22.8361  -27.3796 C   0  0  0  0  0  0  0  0  0  0  0  0
    0.5824   23.0030  -28.0076 N   0  0  0  0  0  0  0  0  0  0  0  0
 11 12  1  0  0  0
 12 13  1  0  0  0
 13 14  2  0  0  0
 14 15  1  0  0  0
 15 16  2  0  0  0
 16 17  1  0  0  0
 17 18  2  0  0  0
 18 19  1  0  0  0
 19 20  2  0  0  0
 17  1  1  0  0  0
  1  2  2  0  0  0
  2  3  1  0  0  0
  3  4  1  0  0  0
  4  5  2  0  0  0
  5  6  1  0  0  0
  6  7  2  0  0  0
  7  8  1  0  0  0
  8  9  2  0  0  0
  7 21  1  0  0  0
 21 22  3  0  0  0
 20 12  1  0  0  0
  9  1  1  0  0  0
 20 15  1  0  0  0
  9  4  1  0  0  0
  3 10  1  0  0  0
M  END
> <minimizedAffinity>
-7.08270

> <CNNscore>
0.3708815873

> <CNNaffinity>
5.6129341125

> <CNN_VS>
2.0817339420

> <CNNaffinity_variance>
0.2310797870

$$$$
[H]c1c(C#N)c([H])c2c(-c3c([H])c([H])c4c(c3[H])c([H])c([H])n4C([H])([H])[H])nn([H])c2c1[H]


 22 25  0  0  0  0  0  0  0  0999 V2000
   -3.4714   22.6197  -23.9286 C   0  0  0  0  0  0  0  0  0  0  0  0
   -4.8014   22.6618  -23.9022 N   0  0  0  0  0  0  0  0  0  0  0  0
   -5.2893   22.7904  -25.1129 N   0  0  0  0  0  0  0  0  0  0  0  0
   -4.2509   22.8345  -25.9644 C   0  0  0  0  0  0  0  0  0  0  0  0
   -4.2317   22.9613  -27.3360 C   0  0  0  0  0  0  0  0  0  0  0  0
   -3.0076   22.9818  -27.9937 C   0  0  0  0  0  0  0  0  0  0  0  0
   -1.8270   22.8774  -27.2922 C   0  0  0  0  0  0  0  0  0  0  0  0
   -1.8734   22.7520  -25.9274 C   0  0  0  0  0  0  0  0  0  0  0  0
   -3.0762   22.7280  -25.2388 C   0  0  0  0  0  0  0  0  0  0  0  0
   -6.3073   22.8470  -25.3566 H   0  0  0  0  0  0  0  0  0  0  0  0
    0.6107   22.4306  -18.6005 C   0  0  0  0  0  0  0  0  0  0  0  0
    0.1695   21.7058  -19.7750 N   0  0  0  0  0  0  0  0  0  0  0  0
    0.6375   20.4773  -20.1343 C   0  0  0  0  0  0  0  0  0  0  0  0
   -0.0221   20.1343  -21.2950 C   0  0  0  0  0  0  0  0  0  0  0  0
   -0.8933   21.1391  -21.6566 C   0  0  0  0  0  0  0  0  0  0  0  0
   -1.7808   21.3299  -22.6940 C   0  0  0  0  0  0  0  0  0  0  0  0
   -2.5549   22.4859  -22.8037 C   0  0  0  0  0  0  0  0  0  0  0  0
   -2.3962   23.4332  -21.8297 C   0  0  0  0  0  0  0  0  0  0  0  0
   -1.5055   23.2576  -20.7756 C   0  0  0  0  0  0  0  0  0  0  0  0
   -0.7440   22.1109  -20.6753 C   0  0  0  0  0  0  0  0  0  0  0  0
   -0.5518   22.8952  -27.9404 C   0  0  0  0  0  0  0  0  0  0  0  0
    0.4848   22.9267  -28.4555 N   0  0  0  0  0  0  0  0  0  0  0  0
 11 12  1  0  0  0
 12 13  1  0  0  0
 13 14  2  0  0  0
 14 15  1  0  0  0
 15 16  2  0  0  0
 16 17  1  0  0  0
 17 18  2  0  0  0
 18 19  1  0  0  0
 19 20  2  0  0  0
 17  1  1  0  0  0
  1  2  2  0  0  0
  2  3  1  0  0  0
  3  4  1  0  0  0
  4  5  2  0  0  0
  5  6  1  0  0  0
  6  7  2  0  0  0
  7  8  1  0  0  0
  8  9  2  0  0  0
  7 21  1  0  0  0
 21 22  3  0  0  0
 20 12  1  0  0  0
  9  1  1  0  0  0
 20 15  1  0  0  0
  9  4  1  0  0  0
  3 10  1  0  0  0
M  END
> <minimizedAffinity>
-7.13271

> <CNNscore>
0.3555362821

> <CNNaffinity>
5.8346824646

> <CNN_VS>
2.0744411945

> <CNNaffinity_variance>
0.3827144206

$$$$
[H]c1c(C#N)c([H])c2c(-c3c([H])c([H])c4c(c3[H])c([H])c([H])n4C([H])([H])[H])nn([H])c2c1[H]


 22 25  0  0  0  0  0  0  0  0999 V2000
    1.6198   21.1886  -23.0491 C   0  0  0  0  0  0  0  0  0  0  0  0
    2.9127   21.4013  -23.2827 N   0  0  0  0  0  0  0  0  0  0  0  0
    3.6487   20.9242  -22.3075 N   0  0  0  0  0  0  0  0  0  0  0  0
    2.8175   20.3802  -21.4029 C   0  0  0  0  0  0  0  0  0  0  0  0
    3.0929   19.7537  -20.2072 C   0  0  0  0  0  0  0  0  0  0  0  0
    2.0388   19.2703  -19.4414 C   0  0  0  0  0  0  0  0  0  0  0  0
    0.7357   19.4113  -19.8642 C   0  0  0  0  0  0  0  0  0  0  0  0
    0.4883   20.0388  -21.0582 C   0  0  0  0  0  0  0  0  0  0  0  0
    1.5149   20.5331  -21.8475 C   0  0  0  0  0  0  0  0  0  0  0  0
    4.6950   20.9670  -22.2568 H   0  0  0  0  0  0  0  0  0  0  0  0
   -3.8928   22.8446  -26.5070 C   0  0  0  0  0  0  0  0  0  0  0  0
   -2.4560   22.6748  -26.5878 N   0  0  0  0  0  0  0  0  0  0  0  0
   -1.7259   22.8789  -27.7202 C   0  0  0  0  0  0  0  0  0  0  0  0
   -0.4138   22.6162  -27.3893 C   0  0  0  0  0  0  0  0  0  0  0  0
   -0.3262   22.2515  -26.0632 C   0  0  0  0  0  0  0  0  0  0  0  0
    0.7029   21.8901  -25.2201 C   0  0  0  0  0  0  0  0  0  0  0  0
    0.4837   21.5629  -23.8813 C   0  0  0  0  0  0  0  0  0  0  0  0
   -0.8077   21.6156  -23.4335 C   0  0  0  0  0  0  0  0  0  0  0  0
   -1.8586   21.9782  -24.2698 C   0  0  0  0  0  0  0  0  0  0  0  0
   -1.6322   22.3002  -25.5927 C   0  0  0  0  0  0  0  0  0  0  0  0
   -0.3704   18.9244  -19.0986 C   0  0  0  0  0  0  0  0  0  0  0  0
   -1.2783   18.5381  -18.4924 N   0  0  0  0  0  0  0  0  0  0  0  0
 11 12  1  0  0  0
 12 13  1  0  0  0
 13 14  2  0  0  0
 14 15  1  0  0  0
 15 16  2  0  0  0
 16 17  1  0  0  0
 17 18  2  0  0  0
 18 19  1  0  0  0
 19 20  2  0  0  0
 17  1  1  0  0  0
  1  2  2  0  0  0
  2  3  1  0  0  0
  3  4  1  0  0  0
  4  5  2  0  0  0
  5  6  1  0  0  0
  6  7  2  0  0  0
  7  8  1  0  0  0
  8  9  2  0  0  0
  7 21  1  0  0  0
 21 22  3  0  0  0
 20 12  1  0  0  0
  9  1  1  0  0  0
 20 15  1  0  0  0
  9  4  1  0  0  0
  3 10  1  0  0  0
M  END
> <minimizedAffinity>
-7.05336

> <CNNscore>
0.3392155170

> <CNNaffinity>
4.9602999687

> <CNN_VS>
1.6826107502

> <CNNaffinity_variance>
0.3125953078

$$$$
[H]c1sc(N([H])S(=O)(=O)c2c([H])c([H])c([H])c(Br)c2F)nc1C(=O)c1c([H])c([H])c(C(=O)N([H])C([H])([H])[H])c([H])c1[H]


 31 33  0  0  0  0  0  0  0  0999 V2000
   -1.3379   21.5328  -23.0120 C   0  0  0  0  0  0  0  0  0  0  0  0
    0.3747   21.5175  -23.1814 S   0  0  0  0  0  0  0  0  0  0  0  0
    0.4775   21.8485  -24.8319 C   0  0  0  0  0  0  0  0  0  0  0  0
   -0.9073   21.9545  -25.2079 C   0  0  0  0  0  0  0  0  0  0  0  0
   -1.7330   21.7765  -24.2452 N   0  0  0  0  0  0  0  0  0  0  0  0
   -2.0905   21.3732  -21.7900 N   0  0  0  0  0  0  0  0  0  0  0  0
   -2.1183   20.4560  -21.3836 H   0  0  0  0  0  0  0  0  0  0  0  0
   -3.5469   22.3296  -19.7433 O   0  0  0  0  0  0  0  0  0  0  0  0
   -2.8742   22.6793  -21.0977 S   0  0  0  0  0  0  0  0  0  0  0  0
   -1.8110   23.7411  -20.6746 O   0  0  0  0  0  0  0  0  0  0  0  0
   -4.1064   23.4416  -22.0313 C   0  0  0  0  0  0  0  0  0  0  0  0
   -3.8705   24.4741  -22.8942 C   0  0  0  0  0  0  0  0  0  0  0  0
   -2.5984   24.9180  -23.1153 F   0  0  0  0  0  0  0  0  0  0  0  0
   -4.8749   25.1374  -23.6129 C   0  0  0  0  0  0  0  0  0  0  0  0
   -4.4537   26.5471  -24.7912 Br  0  0  0  0  0  0  0  0  0  0  0  0
   -6.1653   24.7101  -23.4120 C   0  0  0  0  0  0  0  0  0  0  0  0
   -6.4474   23.6739  -22.5639 C   0  0  0  0  0  0  0  0  0  0  0  0
   -5.4330   23.0523  -21.8877 C   0  0  0  0  0  0  0  0  0  0  0  0
   -1.1505   22.3270  -26.5789 C   0  0  0  0  0  0  0  0  0  0  0  0
   -0.1988   22.2433  -27.4665 O   0  0  0  0  0  0  0  0  0  0  0  0
   -2.4209   22.8178  -27.1720 C   0  0  0  0  0  0  0  0  0  0  0  0
   -3.5692   22.9381  -26.4024 C   0  0  0  0  0  0  0  0  0  0  0  0
   -4.6727   23.5771  -26.8958 C   0  0  0  0  0  0  0  0  0  0  0  0
   -4.7067   24.1189  -28.1306 C   0  0  0  0  0  0  0  0  0  0  0  0
   -3.5523   23.9967  -28.9427 C   0  0  0  0  0  0  0  0  0  0  0  0
   -2.4326   23.3475  -28.4393 C   0  0  0  0  0  0  0  0  0  0  0  0
   -5.6933   25.1081  -28.6528 C   0  0  0  0  0  0  0  0  0  0  0  0
   -5.4922   25.5229  -29.9719 N   0  0  0  0  0  0  0  0  0  0  0  0
   -5.3002   25.9380  -31.2750 C   0  0  0  0  0  0  0  0  0  0  0  0
   -6.5886   25.4163  -27.8761 O   0  0  0  0  0  0  0  0  0  0  0  0
   -6.3696   26.5474  -29.7633 H   0  0  0  0  0  0  0  0  0  0  0  0
  8  9  2  0  0  0
  9 11  1  0  0  0
 11 12  2  0  0  0
 12 13  1  0  0  0
 12 14  1  0  0  0
 14 15  1  0  0  0
 14 16  2  0  0  0
 16 17  1  0  0  0
 17 18  2  0  0  0
  9 10  2  0  0  0
  9  6  1  0  0  0
  6  1  1  0  0  0
  1  2  1  0  0  0
  2  3  1  0  0  0
  3  4  2  0  0  0
  4 19  1  0  0  0
 19 21  1  0  0  0
 21 22  2  0  0  0
 22 23  1  0  0  0
 23 24  2  0  0  0
 24 27  1  0  0  0
 27 28  1  0  0  0
 28 29  1  0  0  0
 27 30  2  0  0  0
 24 25  1  0  0  0
 25 26  2  0  0  0
 19 20  2  0  0  0
  4  5  1  0  0  0
 18 11  1  0  0  0
  5  1  2  0  0  0
 26 21  1  0  0  0
  6  7  1  0  0  0
 28 31  1  0  0  0
M  END
> <minimizedAffinity>
-8.99151

> <CNNscore>
0.8702077866

> <CNNaffinity>
7.8207983971

> <CNN_VS>
6.8057198524

> <CNNaffinity_variance>
0.3112459779

$$$$
[H]c1sc(N([H])S(=O)(=O)c2c([H])c([H])c([H])c(Br)c2F)nc1C(=O)c1c([H])c([H])c(C(=O)N([H])C([H])([H])[H])c([H])c1[H]


 31 33  0  0  0  0  0  0  0  0999 V2000
   -1.0076   21.3744  -22.5815 C   0  0  0  0  0  0  0  0  0  0  0  0
    0.7082   21.2609  -22.6530 S   0  0  0  0  0  0  0  0  0  0  0  0
    0.9282   21.6409  -24.2812 C   0  0  0  0  0  0  0  0  0  0  0  0
   -0.4232   21.8435  -24.7318 C   0  0  0  0  0  0  0  0  0  0  0  0
   -1.3137   21.6834  -23.8254 N   0  0  0  0  0  0  0  0  0  0  0  0
   -1.8396   21.2195  -21.4115 N   0  0  0  0  0  0  0  0  0  0  0  0
   -2.5119   20.4745  -21.4208 H   0  0  0  0  0  0  0  0  0  0  0  0
   -1.4658   23.7305  -20.5284 O   0  0  0  0  0  0  0  0  0  0  0  0
   -1.6699   22.2511  -20.1052 S   0  0  0  0  0  0  0  0  0  0  0  0
   -3.0234   22.3126  -19.3299 O   0  0  0  0  0  0  0  0  0  0  0  0
   -0.3902   21.9160  -19.0001 C   0  0  0  0  0  0  0  0  0  0  0  0
   -0.2665   20.7359  -18.3232 C   0  0  0  0  0  0  0  0  0  0  0  0
   -1.1389   19.7102  -18.5494 F   0  0  0  0  0  0  0  0  0  0  0  0
    0.7377   20.4774  -17.3797 C   0  0  0  0  0  0  0  0  0  0  0  0
    0.8367   18.8127  -16.5009 Br  0  0  0  0  0  0  0  0  0  0  0  0
    1.6318   21.4912  -17.1333 C   0  0  0  0  0  0  0  0  0  0  0  0
    1.5514   22.6866  -17.7943 C   0  0  0  0  0  0  0  0  0  0  0  0
    0.5569   22.8915  -18.7117 C   0  0  0  0  0  0  0  0  0  0  0  0
   -0.5621   22.2763  -26.0996 C   0  0  0  0  0  0  0  0  0  0  0  0
    0.4229   22.1344  -26.9423 O   0  0  0  0  0  0  0  0  0  0  0  0
   -1.7527   22.8957  -26.7367 C   0  0  0  0  0  0  0  0  0  0  0  0
   -1.8867   22.9314  -28.1173 C   0  0  0  0  0  0  0  0  0  0  0  0
   -3.0670   23.3148  -28.6912 C   0  0  0  0  0  0  0  0  0  0  0  0
   -4.1467   23.6689  -27.9644 C   0  0  0  0  0  0  0  0  0  0  0  0
   -4.0315   23.6556  -26.5523 C   0  0  0  0  0  0  0  0  0  0  0  0
   -2.8319   23.2656  -25.9718 C   0  0  0  0  0  0  0  0  0  0  0  0
   -5.5560   23.7782  -28.4403 C   0  0  0  0  0  0  0  0  0  0  0  0
   -5.7150   24.0091  -29.8092 N   0  0  0  0  0  0  0  0  0  0  0  0
   -5.8806   24.2374  -31.1611 C   0  0  0  0  0  0  0  0  0  0  0  0
   -6.4139   23.6171  -27.5813 O   0  0  0  0  0  0  0  0  0  0  0  0
   -7.0222   24.3303  -29.5838 H   0  0  0  0  0  0  0  0  0  0  0  0
  8  9  2  0  0  0
  9 11  1  0  0  0
 11 12  2  0  0  0
 12 13  1  0  0  0
 12 14  1  0  0  0
 14 15  1  0  0  0
 14 16  2  0  0  0
 16 17  1  0  0  0
 17 18  2  0  0  0
  9 10  2  0  0  0
  9  6  1  0  0  0
  6  1  1  0  0  0
  1  2  1  0  0  0
  2  3  1  0  0  0
  3  4  2  0  0  0
  4 19  1  0  0  0
 19 21  1  0  0  0
 21 22  2  0  0  0
 22 23  1  0  0  0
 23 24  2  0  0  0
 24 27  1  0  0  0
 27 28  1  0  0  0
 28 29  1  0  0  0
 27 30  2  0  0  0
 24 25  1  0  0  0
 25 26  2  0  0  0
 19 20  2  0  0  0
  4  5  1  0  0  0
 18 11  1  0  0  0
  5  1  2  0  0  0
 26 21  1  0  0  0
  6  7  1  0  0  0
 28 31  1  0  0  0
M  END
> <minimizedAffinity>
-8.04061

> <CNNscore>
0.5510290861

> <CNNaffinity>
6.7586121559

> <CNN_VS>
3.7241919041

> <CNNaffinity_variance>
0.1575196534

$$$$
[H]c1sc(N([H])S(=O)(=O)c2c([H])c([H])c([H])c(Br)c2F)nc1C(=O)c1c([H])c([H])c(C(=O)N([H])C([H])([H])[H])c([H])c1[H]


 31 33  0  0  0  0  0  0  0  0999 V2000
   -3.8366   21.5035  -22.7470 C   0  0  0  0  0  0  0  0  0  0  0  0
   -4.8906   21.0641  -24.0346 S   0  0  0  0  0  0  0  0  0  0  0  0
   -6.2914   21.8375  -23.5019 C   0  0  0  0  0  0  0  0  0  0  0  0
   -5.8587   22.4336  -22.2660 C   0  0  0  0  0  0  0  0  0  0  0  0
   -4.6331   22.2095  -21.9699 N   0  0  0  0  0  0  0  0  0  0  0  0
   -2.4300   21.1973  -22.6339 N   0  0  0  0  0  0  0  0  0  0  0  0
   -2.1836   20.3041  -22.2481 H   0  0  0  0  0  0  0  0  0  0  0  0
   -1.5814   23.7475  -22.6590 O   0  0  0  0  0  0  0  0  0  0  0  0
   -1.2768   22.3015  -23.1339 S   0  0  0  0  0  0  0  0  0  0  0  0
    0.0694   21.9913  -22.4072 O   0  0  0  0  0  0  0  0  0  0  0  0
   -0.9967   22.4319  -24.8297 C   0  0  0  0  0  0  0  0  0  0  0  0
   -1.9475   22.8362  -25.7235 C   0  0  0  0  0  0  0  0  0  0  0  0
   -3.1810   23.2337  -25.2935 F   0  0  0  0  0  0  0  0  0  0  0  0
   -1.7453   22.8891  -27.1097 C   0  0  0  0  0  0  0  0  0  0  0  0
   -3.1144   23.4710  -28.2674 Br  0  0  0  0  0  0  0  0  0  0  0  0
   -0.5120   22.4968  -27.5711 C   0  0  0  0  0  0  0  0  0  0  0  0
    0.4734   22.0929  -26.7117 C   0  0  0  0  0  0  0  0  0  0  0  0
    0.2318   22.0631  -25.3651 C   0  0  0  0  0  0  0  0  0  0  0  0
   -6.8364   23.2564  -21.5991 C   0  0  0  0  0  0  0  0  0  0  0  0
   -7.1017   24.4558  -22.0368 O   0  0  0  0  0  0  0  0  0  0  0  0
   -7.6510   22.9080  -20.4066 C   0  0  0  0  0  0  0  0  0  0  0  0
   -8.8721   22.2628  -20.5392 C   0  0  0  0  0  0  0  0  0  0  0  0
   -9.5179   21.7651  -19.4416 C   0  0  0  0  0  0  0  0  0  0  0  0
   -9.0144   21.8670  -18.1944 C   0  0  0  0  0  0  0  0  0  0  0  0
   -7.7758   22.5349  -18.0296 C   0  0  0  0  0  0  0  0  0  0  0  0
   -7.1217   23.0392  -19.1459 C   0  0  0  0  0  0  0  0  0  0  0  0
   -9.4343   21.0967  -16.9882 C   0  0  0  0  0  0  0  0  0  0  0  0
   -9.2239   21.7328  -15.7620 N   0  0  0  0  0  0  0  0  0  0  0  0
   -9.0191   22.3545  -14.5460 C   0  0  0  0  0  0  0  0  0  0  0  0
   -9.9491   20.0086  -17.2136 O   0  0  0  0  0  0  0  0  0  0  0  0
   -9.4391   20.5426  -15.1294 H   0  0  0  0  0  0  0  0  0  0  0  0
  8  9  2  0  0  0
  9 11  1  0  0  0
 11 12  2  0  0  0
 12 13  1  0  0  0
 12 14  1  0  0  0
 14 15  1  0  0  0
 14 16  2  0  0  0
 16 17  1  0  0  0
 17 18  2  0  0  0
  9 10  2  0  0  0
  9  6  1  0  0  0
  6  1  1  0  0  0
  1  2  1  0  0  0
  2  3  1  0  0  0
  3  4  2  0  0  0
  4 19  1  0  0  0
 19 21  1  0  0  0
 21 22  2  0  0  0
 22 23  1  0  0  0
 23 24  2  0  0  0
 24 27  1  0  0  0
 27 28  1  0  0  0
 28 29  1  0  0  0
 27 30  2  0  0  0
 24 25  1  0  0  0
 25 26  2  0  0  0
 19 20  2  0  0  0
  4  5  1  0  0  0
 18 11  1  0  0  0
  5  1  2  0  0  0
 26 21  1  0  0  0
  6  7  1  0  0  0
 28 31  1  0  0  0
M  END
> <minimizedAffinity>
-7.12607

> <CNNscore>
0.4853380620

> <CNNaffinity>
6.1270613670

> <CNN_VS>
2.9736959934

> <CNNaffinity_variance>
0.1035045013

$$$$
[H]c1sc(N([H])S(=O)(=O)c2c([H])c([H])c([H])c(Br)c2F)nc1C(=O)c1c([H])c([H])c(C(=O)N([H])C([H])([H])[H])c([H])c1[H]


 31 33  0  0  0  0  0  0  0  0999 V2000
   -2.5490   21.8304  -21.9288 C   0  0  0  0  0  0  0  0  0  0  0  0
   -1.0351   21.0704  -22.2334 S   0  0  0  0  0  0  0  0  0  0  0  0
   -0.2907   21.3656  -20.7493 C   0  0  0  0  0  0  0  0  0  0  0  0
   -1.3072   22.0947  -20.0384 C   0  0  0  0  0  0  0  0  0  0  0  0
   -2.3860   22.2837  -20.7023 N   0  0  0  0  0  0  0  0  0  0  0  0
   -3.6914   21.8736  -22.8110 N   0  0  0  0  0  0  0  0  0  0  0  0
   -4.3213   21.0927  -22.7860 H   0  0  0  0  0  0  0  0  0  0  0  0
   -5.4247   23.6102  -23.9085 O   0  0  0  0  0  0  0  0  0  0  0  0
   -3.9347   23.1836  -23.8229 S   0  0  0  0  0  0  0  0  0  0  0  0
   -3.2658   24.4436  -23.1891 O   0  0  0  0  0  0  0  0  0  0  0  0
   -3.4162   23.0201  -25.4587 C   0  0  0  0  0  0  0  0  0  0  0  0
   -2.1128   22.8340  -25.8229 C   0  0  0  0  0  0  0  0  0  0  0  0
   -1.1395   22.6959  -24.8753 F   0  0  0  0  0  0  0  0  0  0  0  0
   -1.6758   22.7585  -27.1528 C   0  0  0  0  0  0  0  0  0  0  0  0
    0.1446   22.4890  -27.5610 Br  0  0  0  0  0  0  0  0  0  0  0  0
   -2.6343   22.8920  -28.1282 C   0  0  0  0  0  0  0  0  0  0  0  0
   -3.9530   23.0710  -27.8097 C   0  0  0  0  0  0  0  0  0  0  0  0
   -4.3337   23.1326  -26.4966 C   0  0  0  0  0  0  0  0  0  0  0  0
   -0.9927   22.4228  -18.6706 C   0  0  0  0  0  0  0  0  0  0  0  0
   -1.9441   22.6639  -17.8120 O   0  0  0  0  0  0  0  0  0  0  0  0
    0.3533   22.5236  -18.0502 C   0  0  0  0  0  0  0  0  0  0  0  0
    1.2887   23.4358  -18.5172 C   0  0  0  0  0  0  0  0  0  0  0  0
    2.4423   23.6667  -17.8205 C   0  0  0  0  0  0  0  0  0  0  0  0
    2.7295   23.0376  -16.6624 C   0  0  0  0  0  0  0  0  0  0  0  0
    1.7978   22.0899  -16.1713 C   0  0  0  0  0  0  0  0  0  0  0  0
    0.6268   21.8574  -16.8806 C   0  0  0  0  0  0  0  0  0  0  0  0
    3.7585   23.4293  -15.6562 C   0  0  0  0  0  0  0  0  0  0  0  0
    3.3455   23.3863  -14.3220 N   0  0  0  0  0  0  0  0  0  0  0  0
    2.9452   23.3466  -13.0009 C   0  0  0  0  0  0  0  0  0  0  0  0
    4.8595   23.7093  -16.1135 O   0  0  0  0  0  0  0  0  0  0  0  0
    4.4546   24.1026  -13.9757 H   0  0  0  0  0  0  0  0  0  0  0  0
  8  9  2  0  0  0
  9 11  1  0  0  0
 11 12  2  0  0  0
 12 13  1  0  0  0
 12 14  1  0  0  0
 14 15  1  0  0  0
 14 16  2  0  0  0
 16 17  1  0  0  0
 17 18  2  0  0  0
  9 10  2  0  0  0
  9  6  1  0  0  0
  6  1  1  0  0  0
  1  2  1  0  0  0
  2  3  1  0  0  0
  3  4  2  0  0  0
  4 19  1  0  0  0
 19 21  1  0  0  0
 21 22  2  0  0  0
 22 23  1  0  0  0
 23 24  2  0  0  0
 24 27  1  0  0  0
 27 28  1  0  0  0
 28 29  1  0  0  0
 27 30  2  0  0  0
 24 25  1  0  0  0
 25 26  2  0  0  0
 19 20  2  0  0  0
  4  5  1  0  0  0
 18 11  1  0  0  0
  5  1  2  0  0  0
 26 21  1  0  0  0
  6  7  1  0  0  0
 28 31  1  0  0  0
M  END
> <minimizedAffinity>
-7.05505

> <CNNscore>
0.2542956471

> <CNNaffinity>
5.7563300133

> <CNN_VS>
1.4638096094

> <CNNaffinity_variance>
0.1272611320

$$$$
[H]c1sc(N([H])S(=O)(=O)c2c([H])c([H])c([H])c(Br)c2F)nc1C(=O)c1c([H])c([H])c(C(=O)N([H])C([H])([H])[H])c([H])c1[H]


 31 33  0  0  0  0  0  0  0  0999 V2000
   -4.4277   22.7057  -21.7293 C   0  0  0  0  0  0  0  0  0  0  0  0
   -5.2788   23.0749  -20.2797 S   0  0  0  0  0  0  0  0  0  0  0  0
   -6.2345   24.3408  -20.8524 C   0  0  0  0  0  0  0  0  0  0  0  0
   -5.8213   24.4363  -22.2273 C   0  0  0  0  0  0  0  0  0  0  0  0
   -4.9194   23.5938  -22.5694 N   0  0  0  0  0  0  0  0  0  0  0  0
   -3.4732   21.6405  -21.9279 N   0  0  0  0  0  0  0  0  0  0  0  0
   -3.7014   20.7413  -21.5449 H   0  0  0  0  0  0  0  0  0  0  0  0
   -1.2754   23.1553  -22.2439 O   0  0  0  0  0  0  0  0  0  0  0  0
   -2.0526   21.9177  -22.7671 S   0  0  0  0  0  0  0  0  0  0  0  0
   -1.0559   20.7527  -22.4734 O   0  0  0  0  0  0  0  0  0  0  0  0
   -2.1785   22.1495  -24.4705 C   0  0  0  0  0  0  0  0  0  0  0  0
   -1.0986   22.2845  -25.2963 C   0  0  0  0  0  0  0  0  0  0  0  0
    0.1702   22.1699  -24.8053 F   0  0  0  0  0  0  0  0  0  0  0  0
   -1.1932   22.5314  -26.6730 C   0  0  0  0  0  0  0  0  0  0  0  0
    0.3541   22.6929  -27.7374 Br  0  0  0  0  0  0  0  0  0  0  0  0
   -2.4585   22.6493  -27.1956 C   0  0  0  0  0  0  0  0  0  0  0  0
   -3.5690   22.5126  -26.4077 C   0  0  0  0  0  0  0  0  0  0  0  0
   -3.4275   22.2661  -25.0691 C   0  0  0  0  0  0  0  0  0  0  0  0
   -6.5397   25.3980  -23.0251 C   0  0  0  0  0  0  0  0  0  0  0  0
   -7.4273   26.1812  -22.4778 O   0  0  0  0  0  0  0  0  0  0  0  0
   -6.3989   25.6516  -24.4820 C   0  0  0  0  0  0  0  0  0  0  0  0
   -5.3390   26.3967  -24.9784 C   0  0  0  0  0  0  0  0  0  0  0  0
   -5.1007   26.4560  -26.3235 C   0  0  0  0  0  0  0  0  0  0  0  0
   -5.8633   25.8046  -27.2254 C   0  0  0  0  0  0  0  0  0  0  0  0
   -6.9615   25.0486  -26.7459 C   0  0  0  0  0  0  0  0  0  0  0  0
   -7.2012   24.9898  -25.3793 C   0  0  0  0  0  0  0  0  0  0  0  0
   -5.5253   25.5159  -28.6492 C   0  0  0  0  0  0  0  0  0  0  0  0
   -5.5121   24.1647  -29.0048 N   0  0  0  0  0  0  0  0  0  0  0  0
   -5.4969   22.8313  -29.3642 C   0  0  0  0  0  0  0  0  0  0  0  0
   -5.3331   26.4998  -29.3526 O   0  0  0  0  0  0  0  0  0  0  0  0
   -4.8693   24.4954  -30.1625 H   0  0  0  0  0  0  0  0  0  0  0  0
  8  9  2  0  0  0
  9 11  1  0  0  0
 11 12  2  0  0  0
 12 13  1  0  0  0
 12 14  1  0  0  0
 14 15  1  0  0  0
 14 16  2  0  0  0
 16 17  1  0  0  0
 17 18  2  0  0  0
  9 10  2  0  0  0
  9  6  1  0  0  0
  6  1  1  0  0  0
  1  2  1  0  0  0
  2  3  1  0  0  0
  3  4  2  0  0  0
  4 19  1  0  0  0
 19 21  1  0  0  0
 21 22  2  0  0  0
 22 23  1  0  0  0
 23 24  2  0  0  0
 24 27  1  0  0  0
 27 28  1  0  0  0
 28 29  1  0  0  0
 27 30  2  0  0  0
 24 25  1  0  0  0
 25 26  2  0  0  0
 19 20  2  0  0  0
  4  5  1  0  0  0
 18 11  1  0  0  0
  5  1  2  0  0  0
 26 21  1  0  0  0
  6  7  1  0  0  0
 28 31  1  0  0  0
M  END
> <minimizedAffinity>
-8.81026

> <CNNscore>
0.2442292869

> <CNNaffinity>
6.7069597244

> <CNN_VS>
1.6380360126

> <CNNaffinity_variance>
0.2488958091

$$$$
[H]c1sc(N([H])S(=O)(=O)c2c([H])c([H])c([H])c(Br)c2F)nc1C(=O)c1c([H])c([H])c(C(=O)N([H])C([H])([H])[H])c([H])c1[H]


 31 33  0  0  0  0  0  0  0  0999 V2000
   -4.2353   22.0989  -21.5338 C   0  0  0  0  0  0  0  0  0  0  0  0
   -5.6355   21.9543  -20.5437 S   0  0  0  0  0  0  0  0  0  0  0  0
   -6.7263   22.8069  -21.5066 C   0  0  0  0  0  0  0  0  0  0  0  0
   -5.9056   23.2004  -22.6209 C   0  0  0  0  0  0  0  0  0  0  0  0
   -4.6874   22.8128  -22.5450 N   0  0  0  0  0  0  0  0  0  0  0  0
   -2.9380   21.5121  -21.2933 N   0  0  0  0  0  0  0  0  0  0  0  0
   -2.9166   20.5744  -20.9364 H   0  0  0  0  0  0  0  0  0  0  0  0
   -1.7140   23.9038  -21.3717 O   0  0  0  0  0  0  0  0  0  0  0  0
   -1.5417   22.3791  -21.6063 S   0  0  0  0  0  0  0  0  0  0  0  0
   -0.4624   22.0008  -20.5439 O   0  0  0  0  0  0  0  0  0  0  0  0
   -0.8663   22.2380  -23.1859 C   0  0  0  0  0  0  0  0  0  0  0  0
   -1.5323   22.5878  -24.3262 C   0  0  0  0  0  0  0  0  0  0  0  0
   -2.7762   23.1470  -24.2605 F   0  0  0  0  0  0  0  0  0  0  0  0
   -1.0124   22.4218  -25.6174 C   0  0  0  0  0  0  0  0  0  0  0  0
   -2.0010   22.9441  -27.1350 Br  0  0  0  0  0  0  0  0  0  0  0  0
    0.2392   21.8632  -25.7140 C   0  0  0  0  0  0  0  0  0  0  0  0
    0.9465   21.5058  -24.5984 C   0  0  0  0  0  0  0  0  0  0  0  0
    0.4004   21.6922  -23.3576 C   0  0  0  0  0  0  0  0  0  0  0  0
   -6.5929   23.8897  -23.6840 C   0  0  0  0  0  0  0  0  0  0  0  0
   -7.7799   24.3929  -23.4880 O   0  0  0  0  0  0  0  0  0  0  0  0
   -6.1069   24.1364  -25.0659 C   0  0  0  0  0  0  0  0  0  0  0  0
   -6.3924   23.2482  -26.0929 C   0  0  0  0  0  0  0  0  0  0  0  0
   -6.1210   23.5773  -27.3920 C   0  0  0  0  0  0  0  0  0  0  0  0
   -5.5756   24.7601  -27.7427 C   0  0  0  0  0  0  0  0  0  0  0  0
   -5.2603   25.6791  -26.7116 C   0  0  0  0  0  0  0  0  0  0  0  0
   -5.5372   25.3427  -25.3931 C   0  0  0  0  0  0  0  0  0  0  0  0
   -5.5410   25.3670  -29.1047 C   0  0  0  0  0  0  0  0  0  0  0  0
   -5.7280   24.4783  -30.1668 N   0  0  0  0  0  0  0  0  0  0  0  0
   -5.9119   23.6066  -31.2220 C   0  0  0  0  0  0  0  0  0  0  0  0
   -5.3883   26.5817  -29.1341 O   0  0  0  0  0  0  0  0  0  0  0  0
   -5.2845   25.4418  -31.0259 H   0  0  0  0  0  0  0  0  0  0  0  0
  8  9  2  0  0  0
  9 11  1  0  0  0
 11 12  2  0  0  0
 12 13  1  0  0  0
 12 14  1  0  0  0
 14 15  1  0  0  0
 14 16  2  0  0  0
 16 17  1  0  0  0
 17 18  2  0  0  0
  9 10  2  0  0  0
  9  6  1  0  0  0
  6  1  1  0  0  0
  1  2  1  0  0  0
  2  3  1  0  0  0
  3  4  2  0  0  0
  4 19  1  0  0  0
 19 21  1  0  0  0
 21 22  2  0  0  0
 22 23  1  0  0  0
 23 24  2  0  0  0
 24 27  1  0  0  0
 27 28  1  0  0  0
 28 29  1  0  0  0
 27 30  2  0  0  0
 24 25  1  0  0  0
 25 26  2  0  0  0
 19 20  2  0  0  0
  4  5  1  0  0  0
 18 11  1  0  0  0
  5  1  2  0  0  0
 26 21  1  0  0  0
  6  7  1  0  0  0
 28 31  1  0  0  0
M  END
> <minimizedAffinity>
-8.20237

> <CNNscore>
0.2345571369

> <CNNaffinity>
6.7527365685

> <CNN_VS>
1.5839025974

> <CNNaffinity_variance>
0.3869909644

$$$$
[H]c1sc(N([H])S(=O)(=O)c2c([H])c([H])c([H])c(Br)c2F)nc1C(=O)c1c([H])c([H])c(C(=O)N([H])C([H])([H])[H])c([H])c1[H]


 31 33  0  0  0  0  0  0  0  0999 V2000
   -5.2598   24.8029  -27.2733 C   0  0  0  0  0  0  0  0  0  0  0  0
   -5.7422   23.8498  -28.6228 S   0  0  0  0  0  0  0  0  0  0  0  0
   -4.2731   23.0857  -28.9421 C   0  0  0  0  0  0  0  0  0  0  0  0
   -3.4140   23.6433  -27.9316 C   0  0  0  0  0  0  0  0  0  0  0  0
   -3.9855   24.4882  -27.1572 N   0  0  0  0  0  0  0  0  0  0  0  0
   -6.0999   25.6636  -26.4741 N   0  0  0  0  0  0  0  0  0  0  0  0
   -6.9910   25.9211  -26.8574 H   0  0  0  0  0  0  0  0  0  0  0  0
   -4.4050   27.1969  -25.0596 O   0  0  0  0  0  0  0  0  0  0  0  0
   -5.5877   26.1954  -24.9728 S   0  0  0  0  0  0  0  0  0  0  0  0
   -6.7136   27.0677  -24.3339 O   0  0  0  0  0  0  0  0  0  0  0  0
   -5.0819   24.9947  -23.8442 C   0  0  0  0  0  0  0  0  0  0  0  0
   -5.9277   24.0785  -23.2861 C   0  0  0  0  0  0  0  0  0  0  0  0
   -7.2398   24.0260  -23.6602 F   0  0  0  0  0  0  0  0  0  0  0  0
   -5.5359   23.1369  -22.3243 C   0  0  0  0  0  0  0  0  0  0  0  0
   -6.7721   21.9024  -21.6166 Br  0  0  0  0  0  0  0  0  0  0  0  0
   -4.2199   23.1649  -21.9303 C   0  0  0  0  0  0  0  0  0  0  0  0
   -3.3351   24.0593  -22.4687 C   0  0  0  0  0  0  0  0  0  0  0  0
   -3.7622   24.9565  -23.4097 C   0  0  0  0  0  0  0  0  0  0  0  0
   -2.0767   23.1070  -27.8901 C   0  0  0  0  0  0  0  0  0  0  0  0
   -1.3095   23.1590  -28.9433 O   0  0  0  0  0  0  0  0  0  0  0  0
   -1.3933   22.4669  -26.7368 C   0  0  0  0  0  0  0  0  0  0  0  0
   -0.0087   22.4061  -26.6708 C   0  0  0  0  0  0  0  0  0  0  0  0
    0.6153   22.0031  -25.5229 C   0  0  0  0  0  0  0  0  0  0  0  0
   -0.0641   21.6528  -24.4115 C   0  0  0  0  0  0  0  0  0  0  0  0
   -1.4797   21.6916  -24.4573 C   0  0  0  0  0  0  0  0  0  0  0  0
   -2.1111   22.1015  -25.6242 C   0  0  0  0  0  0  0  0  0  0  0  0
    0.4780   21.5237  -23.0281 C   0  0  0  0  0  0  0  0  0  0  0  0
    1.8235   21.1574  -22.9385 N   0  0  0  0  0  0  0  0  0  0  0  0
    3.1527   20.7955  -22.8413 C   0  0  0  0  0  0  0  0  0  0  0  0
   -0.3099   21.7890  -22.1289 O   0  0  0  0  0  0  0  0  0  0  0  0
    1.6418   20.8871  -21.6130 H   0  0  0  0  0  0  0  0  0  0  0  0
  8  9  2  0  0  0
  9 11  1  0  0  0
 11 12  2  0  0  0
 12 13  1  0  0  0
 12 14  1  0  0  0
 14 15  1  0  0  0
 14 16  2  0  0  0
 16 17  1  0  0  0
 17 18  2  0  0  0
  9 10  2  0  0  0
  9  6  1  0  0  0
  6  1  1  0  0  0
  1  2  1  0  0  0
  2  3  1  0  0  0
  3  4  2  0  0  0
  4 19  1  0  0  0
 19 21  1  0  0  0
 21 22  2  0  0  0
 22 23  1  0  0  0
 23 24  2  0  0  0
 24 27  1  0  0  0
 27 28  1  0  0  0
 28 29  1  0  0  0
 27 30  2  0  0  0
 24 25  1  0  0  0
 25 26  2  0  0  0
 19 20  2  0  0  0
  4  5  1  0  0  0
 18 11  1  0  0  0
  5  1  2  0  0  0
 26 21  1  0  0  0
  6  7  1  0  0  0
 28 31  1  0  0  0
M  END
> <minimizedAffinity>
-8.90110

> <CNNscore>
0.2244500816

> <CNNaffinity>
6.8401513100

> <CNN_VS>
1.5352724791

> <CNNaffinity_variance>
0.1536189467

$$$$
[H]c1sc(N([H])S(=O)(=O)c2c([H])c([H])c([H])c(Br)c2F)nc1C(=O)c1c([H])c([H])c(C(=O)N([H])C([H])([H])[H])c([H])c1[H]


 31 33  0  0  0  0  0  0  0  0999 V2000
   -6.9250   24.8519  -25.0428 C   0  0  0  0  0  0  0  0  0  0  0  0
   -7.0138   25.8640  -23.6536 S   0  0  0  0  0  0  0  0  0  0  0  0
   -6.9207   24.6776  -22.4588 C   0  0  0  0  0  0  0  0  0  0  0  0
   -6.8282   23.4700  -23.2355 C   0  0  0  0  0  0  0  0  0  0  0  0
   -6.8453   23.6524  -24.5030 N   0  0  0  0  0  0  0  0  0  0  0  0
   -6.8895   25.2740  -26.4232 N   0  0  0  0  0  0  0  0  0  0  0  0
   -7.7628   25.3061  -26.9168 H   0  0  0  0  0  0  0  0  0  0  0  0
   -5.6242   26.2630  -28.5786 O   0  0  0  0  0  0  0  0  0  0  0  0
   -5.4400   25.6896  -27.1480 S   0  0  0  0  0  0  0  0  0  0  0  0
   -4.8209   26.9014  -26.3831 O   0  0  0  0  0  0  0  0  0  0  0  0
   -4.2564   24.4466  -27.3079 C   0  0  0  0  0  0  0  0  0  0  0  0
   -3.5101   23.9756  -26.2650 C   0  0  0  0  0  0  0  0  0  0  0  0
   -3.7221   24.4335  -24.9963 F   0  0  0  0  0  0  0  0  0  0  0  0
   -2.5056   23.0067  -26.3973 C   0  0  0  0  0  0  0  0  0  0  0  0
   -1.5325   22.4084  -24.8979 Br  0  0  0  0  0  0  0  0  0  0  0  0
   -2.2717   22.5259  -27.6630 C   0  0  0  0  0  0  0  0  0  0  0  0
   -3.0008   22.9624  -28.7356 C   0  0  0  0  0  0  0  0  0  0  0  0
   -3.9760   23.9057  -28.5571 C   0  0  0  0  0  0  0  0  0  0  0  0
   -6.6448   22.2579  -22.4773 C   0  0  0  0  0  0  0  0  0  0  0  0
   -5.9203   21.2831  -22.9522 O   0  0  0  0  0  0  0  0  0  0  0  0
   -7.1919   21.9391  -21.1335 C   0  0  0  0  0  0  0  0  0  0  0  0
   -8.5605   21.9155  -20.9065 C   0  0  0  0  0  0  0  0  0  0  0  0
   -9.0619   21.4265  -19.7322 C   0  0  0  0  0  0  0  0  0  0  0  0
   -8.2725   20.9458  -18.7498 C   0  0  0  0  0  0  0  0  0  0  0  0
   -6.8702   20.9724  -18.9502 C   0  0  0  0  0  0  0  0  0  0  0  0
   -6.3635   21.4692  -20.1437 C   0  0  0  0  0  0  0  0  0  0  0  0
   -8.6875   20.0972  -17.5955 C   0  0  0  0  0  0  0  0  0  0  0  0
  -10.0070   20.2639  -17.1670 N   0  0  0  0  0  0  0  0  0  0  0  0
  -11.3098   20.4228  -16.7373 C   0  0  0  0  0  0  0  0  0  0  0  0
   -7.8335   19.3249  -17.1784 O   0  0  0  0  0  0  0  0  0  0  0  0
   -9.7016   19.5832  -16.0240 H   0  0  0  0  0  0  0  0  0  0  0  0
  8  9  2  0  0  0
  9 11  1  0  0  0
 11 12  2  0  0  0
 12 13  1  0  0  0
 12 14  1  0  0  0
 14 15  1  0  0  0
 14 16  2  0  0  0
 16 17  1  0  0  0
 17 18  2  0  0  0
  9 10  2  0  0  0
  9  6  1  0  0  0
  6  1  1  0  0  0
  1  2  1  0  0  0
  2  3  1  0  0  0
  3  4  2  0  0  0
  4 19  1  0  0  0
 19 21  1  0  0  0
 21 22  2  0  0  0
 22 23  1  0  0  0
 23 24  2  0  0  0
 24 27  1  0  0  0
 27 28  1  0  0  0
 28 29  1  0  0  0
 27 30  2  0  0  0
 24 25  1  0  0  0
 25 26  2  0  0  0
 19 20  2  0  0  0
  4  5  1  0  0  0
 18 11  1  0  0  0
  5  1  2  0  0  0
 26 21  1  0  0  0
  6  7  1  0  0  0
 28 31  1  0  0  0
M  END
> <minimizedAffinity>
-7.42115

> <CNNscore>
0.2230935246

> <CNNaffinity>
6.2684340477

> <CNN_VS>
1.3984470367

> <CNNaffinity_variance>
0.3022664189

$$$$
[H]c1sc(N([H])S(=O)(=O)c2c([H])c([H])c([H])c(Br)c2F)nc1C(=O)c1c([H])c([H])c(C(=O)N([H])C([H])([H])[H])c([H])c1[H]


 31 33  0  0  0  0  0  0  0  0999 V2000
   -3.5705   23.0814  -27.1998 C   0  0  0  0  0  0  0  0  0  0  0  0
   -2.4050   23.1562  -28.4640 S   0  0  0  0  0  0  0  0  0  0  0  0
   -1.0339   22.7249  -27.5820 C   0  0  0  0  0  0  0  0  0  0  0  0
   -1.5690   22.5381  -26.2595 C   0  0  0  0  0  0  0  0  0  0  0  0
   -2.8295   22.7432  -26.1639 N   0  0  0  0  0  0  0  0  0  0  0  0
   -4.9947   23.2876  -27.3191 N   0  0  0  0  0  0  0  0  0  0  0  0
   -5.4651   22.8216  -28.0733 H   0  0  0  0  0  0  0  0  0  0  0  0
   -4.9758   25.5054  -25.8006 O   0  0  0  0  0  0  0  0  0  0  0  0
   -5.8058   24.2665  -26.2315 S   0  0  0  0  0  0  0  0  0  0  0  0
   -7.0265   24.9204  -26.9520 O   0  0  0  0  0  0  0  0  0  0  0  0
   -6.3305   23.5393  -24.7593 C   0  0  0  0  0  0  0  0  0  0  0  0
   -7.0592   24.1974  -23.8095 C   0  0  0  0  0  0  0  0  0  0  0  0
   -7.4772   25.4801  -24.0196 F   0  0  0  0  0  0  0  0  0  0  0  0
   -7.4398   23.6313  -22.5848 C   0  0  0  0  0  0  0  0  0  0  0  0
   -8.4559   24.6132  -21.3372 Br  0  0  0  0  0  0  0  0  0  0  0  0
   -7.0349   22.3400  -22.3469 C   0  0  0  0  0  0  0  0  0  0  0  0
   -6.3112   21.6395  -23.2732 C   0  0  0  0  0  0  0  0  0  0  0  0
   -5.9676   22.2319  -24.4581 C   0  0  0  0  0  0  0  0  0  0  0  0
   -0.6301   22.0690  -25.2715 C   0  0  0  0  0  0  0  0  0  0  0  0
    0.5504   21.6455  -25.6286 O   0  0  0  0  0  0  0  0  0  0  0  0
   -0.8219   22.0025  -23.7999 C   0  0  0  0  0  0  0  0  0  0  0  0
   -2.0800   22.1578  -23.2356 C   0  0  0  0  0  0  0  0  0  0  0  0
   -2.2840   21.8952  -21.9094 C   0  0  0  0  0  0  0  0  0  0  0  0
   -1.2967   21.4754  -21.0919 C   0  0  0  0  0  0  0  0  0  0  0  0
    0.0010   21.3232  -21.6398 C   0  0  0  0  0  0  0  0  0  0  0  0
    0.2057   21.5903  -22.9870 C   0  0  0  0  0  0  0  0  0  0  0  0
   -1.4469   20.8467  -19.7477 C   0  0  0  0  0  0  0  0  0  0  0  0
   -2.4065   21.4265  -18.9138 N   0  0  0  0  0  0  0  0  0  0  0  0
   -3.3530   21.9939  -18.0834 C   0  0  0  0  0  0  0  0  0  0  0  0
   -0.7362   19.8708  -19.5426 O   0  0  0  0  0  0  0  0  0  0  0  0
   -1.8791   20.7377  -17.8600 H   0  0  0  0  0  0  0  0  0  0  0  0
  8  9  2  0  0  0
  9 11  1  0  0  0
 11 12  2  0  0  0
 12 13  1  0  0  0
 12 14  1  0  0  0
 14 15  1  0  0  0
 14 16  2  0  0  0
 16 17  1  0  0  0
 17 18  2  0  0  0
  9 10  2  0  0  0
  9  6  1  0  0  0
  6  1  1  0  0  0
  1  2  1  0  0  0
  2  3  1  0  0  0
  3  4  2  0  0  0
  4 19  1  0  0  0
 19 21  1  0  0  0
 21 22  2  0  0  0
 22 23  1  0  0  0
 23 24  2  0  0  0
 24 27  1  0  0  0
 27 28  1  0  0  0
 28 29  1  0  0  0
 27 30  2  0  0  0
 24 25  1  0  0  0
 25 26  2  0  0  0
 19 20  2  0  0  0
  4  5  1  0  0  0
 18 11  1  0  0  0
  5  1  2  0  0  0
 26 21  1  0  0  0
  6  7  1  0  0  0
 28 31  1  0  0  0
M  END
> <minimizedAffinity>
-7.43122

> <CNNscore>
0.2084921449

> <CNNaffinity>
6.3559942245

> <CNN_VS>
1.3251749277

> <CNNaffinity_variance>
0.1889034212

$$$$
[H]OC(=O)[C@@]([H])(N([H])C(=O)[C@@]([H])(N([H])C(=O)[C@@]([H])(C([H])([H])C(=O)N([H])O[H])C([H])([H])C([H])(C([H])([H])[H])C([H])([H])[H])C([H])([H])c1c([H])c([H])c([H])c([H])c1[H])C([H])([H])C([H])(C([H])([H])[H])C([H])([H])[H]


 37 37  0  0  0  0  0  0  0  0999 V2000
   -3.2636   23.5232  -24.3163 C   0  0  0  0  0  0  0  0  0  0  0  0
   -2.5569   23.3499  -21.9103 C   0  0  0  0  0  0  0  0  0  0  0  0
   -1.4708   23.9017  -22.1394 O   0  0  0  0  0  0  0  0  0  0  0  0
   -3.4808   23.1395  -22.9535 N   0  0  0  0  0  0  0  0  0  0  0  0
   -4.4042   22.6664  -22.7348 H   0  0  0  0  0  0  0  0  0  0  0  0
   -2.8472   22.9216  -20.4880 C   0  0  0  0  0  0  0  0  0  0  0  0
   -1.6590   22.2813  -19.8896 C   0  0  0  0  0  0  0  0  0  0  0  0
    0.4686   23.1524  -18.8124 C   0  0  0  0  0  0  0  0  0  0  0  0
   -1.0001   22.8732  -18.7154 C   0  0  0  0  0  0  0  0  0  0  0  0
   -1.1720   21.8750  -17.5517 C   0  0  0  0  0  0  0  0  0  0  0  0
   -4.1465   22.1913  -20.4312 C   0  0  0  0  0  0  0  0  0  0  0  0
   -4.9128   22.5640  -19.1756 C   0  0  0  0  0  0  0  0  0  0  0  0
   -5.1765   23.7507  -18.9835 O   0  0  0  0  0  0  0  0  0  0  0  0
   -5.2977   21.5280  -18.2690 N   0  0  0  0  0  0  0  0  0  0  0  0
   -5.9717   21.7903  -17.1541 O   0  0  0  0  0  0  0  0  0  0  0  0
   -5.0406   20.5289  -18.4902 H   0  0  0  0  0  0  0  0  0  0  0  0
   -6.1465   22.7440  -17.0886 H   0  0  0  0  0  0  0  0  0  0  0  0
   -4.2278   24.4893  -24.8330 C   0  0  0  0  0  0  0  0  0  0  0  0
   -4.4468   25.5151  -24.1095 O   0  0  0  0  0  0  0  0  0  0  0  0
   -4.9402   24.4180  -26.0448 N   0  0  0  0  0  0  0  0  0  0  0  0
   -4.7841   23.5823  -26.6545 H   0  0  0  0  0  0  0  0  0  0  0  0
   -5.8705   25.4535  -26.4648 C   0  0  0  0  0  0  0  0  0  0  0  0
   -7.1694   25.2472  -25.8804 C   0  0  0  0  0  0  0  0  0  0  0  0
   -7.5135   25.8165  -24.6390 O   0  0  0  0  0  0  0  0  0  0  0  0
   -8.0700   24.5631  -26.4120 O   0  0  0  0  0  0  0  0  0  0  0  0
   -7.1102   25.5336  -23.7690 H   0  0  0  0  0  0  0  0  0  0  0  0
   -5.8171   25.5431  -27.9714 C   0  0  0  0  0  0  0  0  0  0  0  0
   -4.8899   24.6175  -28.6552 C   0  0  0  0  0  0  0  0  0  0  0  0
   -5.5022   23.5359  -29.4832 C   0  0  0  0  0  0  0  0  0  0  0  0
   -4.0446   25.4644  -29.6211 C   0  0  0  0  0  0  0  0  0  0  0  0
   -3.0841   22.3658  -25.2370 C   0  0  0  0  0  0  0  0  0  0  0  0
   -1.8884   22.4358  -26.0901 C   0  0  0  0  0  0  0  0  0  0  0  0
   -1.9902   22.8392  -27.4234 C   0  0  0  0  0  0  0  0  0  0  0  0
   -0.8906   22.9151  -28.2407 C   0  0  0  0  0  0  0  0  0  0  0  0
    0.3645   22.5936  -27.7712 C   0  0  0  0  0  0  0  0  0  0  0  0
    0.4884   22.1943  -26.4632 C   0  0  0  0  0  0  0  0  0  0  0  0
   -0.6385   22.1194  -25.6367 C   0  0  0  0  0  0  0  0  0  0  0  0
  8  9  1  0  0  0
  9 10  1  0  0  0
  9  7  1  0  0  0
  7  6  1  0  0  0
  6 11  1  0  0  0
 11 12  1  0  0  0
 12 13  2  0  0  0
 12 14  1  0  0  0
 14 15  1  0  0  0
  6  2  1  0  0  0
  2  3  2  0  0  0
  2  4  1  0  0  0
  4  1  1  0  0  0
  1 31  1  0  0  0
 31 32  1  0  0  0
 32 33  2  0  0  0
 33 34  1  0  0  0
 34 35  2  0  0  0
 35 36  1  0  0  0
 36 37  2  0  0  0
  1 18  1  0  0  0
 18 19  2  0  0  0
 18 20  1  0  0  0
 20 22  1  0  0  0
 22 27  1  0  0  0
 27 28  1  0  0  0
 28 29  1  0  0  0
 28 30  1  0  0  0
 22 23  1  0  0  0
 23 24  1  0  0  0
 23 25  2  0  0  0
 37 32  1  0  0  0
 14 16  1  0  0  0
 15 17  1  0  0  0
  4  5  1  0  0  0
 20 21  1  0  0  0
 24 26  1  0  0  0
M  END
> <minimizedAffinity>
-7.68171

> <CNNscore>
0.2124803960

> <CNNaffinity>
5.7856650352

> <CNN_VS>
1.2293404341

> <CNNaffinity_variance>
0.5662058592

$$$$
[H]OC(=O)[C@@]([H])(N([H])C(=O)[C@@]([H])(N([H])C(=O)[C@@]([H])(C([H])([H])C(=O)N([H])O[H])C([H])([H])C([H])(C([H])([H])[H])C([H])([H])[H])C([H])([H])c1c([H])c([H])c([H])c([H])c1[H])C([H])([H])C([H])(C([H])([H])[H])C([H])([H])[H]


 37 37  0  0  0  0  0  0  0  0999 V2000
   -2.8709   22.5105  -22.8122 C   0  0  0  0  0  0  0  0  0  0  0  0
   -1.9759   22.5619  -20.4639 C   0  0  0  0  0  0  0  0  0  0  0  0
   -1.4303   23.6603  -20.6445 O   0  0  0  0  0  0  0  0  0  0  0  0
   -2.7022   21.9498  -21.5050 N   0  0  0  0  0  0  0  0  0  0  0  0
   -3.1616   21.0106  -21.3282 H   0  0  0  0  0  0  0  0  0  0  0  0
   -1.8355   21.9173  -19.1018 C   0  0  0  0  0  0  0  0  0  0  0  0
   -0.8243   20.8424  -19.1417 C   0  0  0  0  0  0  0  0  0  0  0  0
    0.4493   19.5242  -20.8985 C   0  0  0  0  0  0  0  0  0  0  0  0
    0.2069   20.8220  -20.1903 C   0  0  0  0  0  0  0  0  0  0  0  0
    1.5422   21.1998  -19.5162 C   0  0  0  0  0  0  0  0  0  0  0  0
   -3.1833   21.5985  -18.5480 C   0  0  0  0  0  0  0  0  0  0  0  0
   -3.9500   22.8725  -18.2452 C   0  0  0  0  0  0  0  0  0  0  0  0
   -4.7011   23.3214  -19.1107 O   0  0  0  0  0  0  0  0  0  0  0  0
   -3.7719   23.4991  -16.9727 N   0  0  0  0  0  0  0  0  0  0  0  0
   -4.4163   24.6150  -16.6474 O   0  0  0  0  0  0  0  0  0  0  0  0
   -3.1122   23.0649  -16.2731 H   0  0  0  0  0  0  0  0  0  0  0  0
   -4.9928   24.8907  -17.3795 H   0  0  0  0  0  0  0  0  0  0  0  0
   -4.0581   23.3459  -22.9627 C   0  0  0  0  0  0  0  0  0  0  0  0
   -5.1826   22.7684  -22.8026 O   0  0  0  0  0  0  0  0  0  0  0  0
   -4.1007   24.7210  -23.2600 N   0  0  0  0  0  0  0  0  0  0  0  0
   -3.1914   25.2180  -23.4033 H   0  0  0  0  0  0  0  0  0  0  0  0
   -5.3500   25.4563  -23.3725 C   0  0  0  0  0  0  0  0  0  0  0  0
   -6.1596   25.2798  -22.1958 C   0  0  0  0  0  0  0  0  0  0  0  0
   -5.6124   25.4049  -20.9040 O   0  0  0  0  0  0  0  0  0  0  0  0
   -7.3786   25.0065  -22.2254 O   0  0  0  0  0  0  0  0  0  0  0  0
   -4.9581   24.7571  -20.5145 H   0  0  0  0  0  0  0  0  0  0  0  0
   -5.9892   25.0880  -24.6903 C   0  0  0  0  0  0  0  0  0  0  0  0
   -6.0969   26.1657  -25.6956 C   0  0  0  0  0  0  0  0  0  0  0  0
   -5.0667   27.2456  -25.6425 C   0  0  0  0  0  0  0  0  0  0  0  0
   -5.9485   25.5052  -27.0765 C   0  0  0  0  0  0  0  0  0  0  0  0
   -2.7506   21.5079  -23.9076 C   0  0  0  0  0  0  0  0  0  0  0  0
   -1.7750   21.8506  -24.9532 C   0  0  0  0  0  0  0  0  0  0  0  0
   -2.2021   22.1924  -26.2382 C   0  0  0  0  0  0  0  0  0  0  0  0
   -1.3134   22.5181  -27.2317 C   0  0  0  0  0  0  0  0  0  0  0  0
    0.0441   22.5199  -26.9949 C   0  0  0  0  0  0  0  0  0  0  0  0
    0.4870   22.1870  -25.7385 C   0  0  0  0  0  0  0  0  0  0  0  0
   -0.4264   21.8558  -24.7313 C   0  0  0  0  0  0  0  0  0  0  0  0
  8  9  1  0  0  0
  9 10  1  0  0  0
  9  7  1  0  0  0
  7  6  1  0  0  0
  6 11  1  0  0  0
 11 12  1  0  0  0
 12 13  2  0  0  0
 12 14  1  0  0  0
 14 15  1  0  0  0
  6  2  1  0  0  0
  2  3  2  0  0  0
  2  4  1  0  0  0
  4  1  1  0  0  0
  1 31  1  0  0  0
 31 32  1  0  0  0
 32 33  2  0  0  0
 33 34  1  0  0  0
 34 35  2  0  0  0
 35 36  1  0  0  0
 36 37  2  0  0  0
  1 18  1  0  0  0
 18 19  2  0  0  0
 18 20  1  0  0  0
 20 22  1  0  0  0
 22 27  1  0  0  0
 27 28  1  0  0  0
 28 29  1  0  0  0
 28 30  1  0  0  0
 22 23  1  0  0  0
 23 24  1  0  0  0
 23 25  2  0  0  0
 37 32  1  0  0  0
 14 16  1  0  0  0
 15 17  1  0  0  0
  4  5  1  0  0  0
 20 21  1  0  0  0
 24 26  1  0  0  0
M  END
> <minimizedAffinity>
-6.99738

> <CNNscore>
0.1686589271

> <CNNaffinity>
5.7628965378

> <CNN_VS>
0.9719639421

> <CNNaffinity_variance>
0.1404258907

$$$$
[H]OC(=O)[C@@]([H])(N([H])C(=O)[C@@]([H])(N([H])C(=O)[C@@]([H])(C([H])([H])C(=O)N([H])O[H])C([H])([H])C([H])(C([H])([H])[H])C([H])([H])[H])C([H])([H])c1c([H])c([H])c([H])c([H])c1[H])C([H])([H])C([H])(C([H])([H])[H])C([H])([H])[H]


 37 37  0  0  0  0  0  0  0  0999 V2000
   -1.0856   22.4141  -22.9763 C   0  0  0  0  0  0  0  0  0  0  0  0
    0.7299   21.0603  -21.8856 C   0  0  0  0  0  0  0  0  0  0  0  0
    1.4682   21.1634  -22.8760 O   0  0  0  0  0  0  0  0  0  0  0  0
   -0.5446   21.6619  -21.8840 N   0  0  0  0  0  0  0  0  0  0  0  0
   -1.1592   21.5618  -21.0258 H   0  0  0  0  0  0  0  0  0  0  0  0
    1.2452   20.2780  -20.6968 C   0  0  0  0  0  0  0  0  0  0  0  0
    2.0983   21.1329  -19.8477 C   0  0  0  0  0  0  0  0  0  0  0  0
    0.7515   23.0105  -18.7958 C   0  0  0  0  0  0  0  0  0  0  0  0
    1.5578   21.7585  -18.6313 C   0  0  0  0  0  0  0  0  0  0  0  0
    2.7630   22.1366  -17.7455 C   0  0  0  0  0  0  0  0  0  0  0  0
    1.7890   18.9646  -21.1485 C   0  0  0  0  0  0  0  0  0  0  0  0
    3.3021   19.0204  -21.2483 C   0  0  0  0  0  0  0  0  0  0  0  0
    3.9656   18.5807  -20.3096 O   0  0  0  0  0  0  0  0  0  0  0  0
    3.8961   19.5780  -22.4230 N   0  0  0  0  0  0  0  0  0  0  0  0
    5.2147   19.6530  -22.5706 O   0  0  0  0  0  0  0  0  0  0  0  0
    3.2721   19.9394  -23.1931 H   0  0  0  0  0  0  0  0  0  0  0  0
    5.6578   19.2748  -21.7928 H   0  0  0  0  0  0  0  0  0  0  0  0
   -2.0363   23.4498  -22.5845 C   0  0  0  0  0  0  0  0  0  0  0  0
   -1.7632   24.0985  -21.5223 O   0  0  0  0  0  0  0  0  0  0  0  0
   -3.2200   23.8169  -23.2517 N   0  0  0  0  0  0  0  0  0  0  0  0
   -3.4713   23.2951  -24.1230 H   0  0  0  0  0  0  0  0  0  0  0  0
   -4.0877   24.8806  -22.7725 C   0  0  0  0  0  0  0  0  0  0  0  0
   -5.0591   24.3725  -21.8401 C   0  0  0  0  0  0  0  0  0  0  0  0
   -4.7132   24.0829  -20.5059 O   0  0  0  0  0  0  0  0  0  0  0  0
   -6.2538   24.1513  -22.1326 O   0  0  0  0  0  0  0  0  0  0  0  0
   -4.1097   23.3311  -20.2408 H   0  0  0  0  0  0  0  0  0  0  0  0
   -4.6298   25.6157  -23.9753 C   0  0  0  0  0  0  0  0  0  0  0  0
   -4.5523   24.9090  -25.2708 C   0  0  0  0  0  0  0  0  0  0  0  0
   -5.7709   24.1658  -25.7099 C   0  0  0  0  0  0  0  0  0  0  0  0
   -4.2954   25.9767  -26.3475 C   0  0  0  0  0  0  0  0  0  0  0  0
   -1.6104   21.5627  -24.0805 C   0  0  0  0  0  0  0  0  0  0  0  0
   -1.2976   22.0455  -25.4338 C   0  0  0  0  0  0  0  0  0  0  0  0
   -2.3132   22.2272  -26.3752 C   0  0  0  0  0  0  0  0  0  0  0  0
   -2.0494   22.6781  -27.6439 C   0  0  0  0  0  0  0  0  0  0  0  0
   -0.7618   22.9708  -28.0382 C   0  0  0  0  0  0  0  0  0  0  0  0
    0.2529   22.7996  -27.1290 C   0  0  0  0  0  0  0  0  0  0  0  0
   -0.0251   22.3389  -25.8372 C   0  0  0  0  0  0  0  0  0  0  0  0
  8  9  1  0  0  0
  9 10  1  0  0  0
  9  7  1  0  0  0
  7  6  1  0  0  0
  6 11  1  0  0  0
 11 12  1  0  0  0
 12 13  2  0  0  0
 12 14  1  0  0  0
 14 15  1  0  0  0
  6  2  1  0  0  0
  2  3  2  0  0  0
  2  4  1  0  0  0
  4  1  1  0  0  0
  1 31  1  0  0  0
 31 32  1  0  0  0
 32 33  2  0  0  0
 33 34  1  0  0  0
 34 35  2  0  0  0
 35 36  1  0  0  0
 36 37  2  0  0  0
  1 18  1  0  0  0
 18 19  2  0  0  0
 18 20  1  0  0  0
 20 22  1  0  0  0
 22 27  1  0  0  0
 27 28  1  0  0  0
 28 29  1  0  0  0
 28 30  1  0  0  0
 22 23  1  0  0  0
 23 24  1  0  0  0
 23 25  2  0  0  0
 37 32  1  0  0  0
 14 16  1  0  0  0
 15 17  1  0  0  0
  4  5  1  0  0  0
 20 21  1  0  0  0
 24 26  1  0  0  0
M  END
> <minimizedAffinity>
-7.24779

> <CNNscore>
0.1669700891

> <CNNaffinity>
5.8079404831

> <CNN_VS>
0.9697523117

> <CNNaffinity_variance>
0.2368966341

$$$$
[H]OC(=O)[C@@]([H])(N([H])C(=O)[C@@]([H])(N([H])C(=O)[C@@]([H])(C([H])([H])C(=O)N([H])O[H])C([H])([H])C([H])(C([H])([H])[H])C([H])([H])[H])C([H])([H])c1c([H])c([H])c([H])c([H])c1[H])C([H])([H])C([H])(C([H])([H])[H])C([H])([H])[H]


 37 37  0  0  0  0  0  0  0  0999 V2000
   -5.8925   23.6674  -25.1435 C   0  0  0  0  0  0  0  0  0  0  0  0
   -6.5856   24.5062  -22.8776 C   0  0  0  0  0  0  0  0  0  0  0  0
   -5.4246   24.8314  -22.5896 O   0  0  0  0  0  0  0  0  0  0  0  0
   -6.8709   23.9266  -24.1301 N   0  0  0  0  0  0  0  0  0  0  0  0
   -7.8713   23.6570  -24.3558 H   0  0  0  0  0  0  0  0  0  0  0  0
   -7.6666   24.7559  -21.8482 C   0  0  0  0  0  0  0  0  0  0  0  0
   -8.9620   25.0059  -22.5111 C   0  0  0  0  0  0  0  0  0  0  0  0
  -10.8435   24.3707  -20.9292 C   0  0  0  0  0  0  0  0  0  0  0  0
  -10.1362   25.4217  -21.7291 C   0  0  0  0  0  0  0  0  0  0  0  0
  -11.1733   25.9702  -22.7308 C   0  0  0  0  0  0  0  0  0  0  0  0
   -7.1889   25.7429  -20.8371 C   0  0  0  0  0  0  0  0  0  0  0  0
   -6.9449   25.0630  -19.5026 C   0  0  0  0  0  0  0  0  0  0  0  0
   -6.0721   25.5206  -18.7654 O   0  0  0  0  0  0  0  0  0  0  0  0
   -7.7345   23.9234  -19.1543 N   0  0  0  0  0  0  0  0  0  0  0  0
   -7.5698   23.2862  -17.9997 O   0  0  0  0  0  0  0  0  0  0  0  0
   -8.4672   23.5789  -19.8307 H   0  0  0  0  0  0  0  0  0  0  0  0
   -6.8734   23.7189  -17.4782 H   0  0  0  0  0  0  0  0  0  0  0  0
   -4.7710   22.8432  -24.7039 C   0  0  0  0  0  0  0  0  0  0  0  0
   -5.0025   21.5980  -24.5637 O   0  0  0  0  0  0  0  0  0  0  0  0
   -3.4593   23.2687  -24.4222 N   0  0  0  0  0  0  0  0  0  0  0  0
   -3.2443   24.2876  -24.5227 H   0  0  0  0  0  0  0  0  0  0  0  0
   -2.4143   22.3492  -24.0022 C   0  0  0  0  0  0  0  0  0  0  0  0
   -1.5384   22.9681  -23.0426 C   0  0  0  0  0  0  0  0  0  0  0  0
   -0.3318   22.3566  -22.6502 O   0  0  0  0  0  0  0  0  0  0  0  0
   -1.7732   24.0661  -22.4941 O   0  0  0  0  0  0  0  0  0  0  0  0
   -0.2866   21.5188  -22.1064 H   0  0  0  0  0  0  0  0  0  0  0  0
   -1.7629   21.7875  -25.2436 C   0  0  0  0  0  0  0  0  0  0  0  0
   -1.3579   22.7642  -26.2759 C   0  0  0  0  0  0  0  0  0  0  0  0
    0.0722   22.7404  -26.7057 C   0  0  0  0  0  0  0  0  0  0  0  0
   -2.1845   22.4526  -27.5348 C   0  0  0  0  0  0  0  0  0  0  0  0
   -5.4386   24.8938  -25.8573 C   0  0  0  0  0  0  0  0  0  0  0  0
   -5.2598   24.7327  -27.3080 C   0  0  0  0  0  0  0  0  0  0  0  0
   -5.7538   23.6024  -27.9630 C   0  0  0  0  0  0  0  0  0  0  0  0
   -5.6023   23.4279  -29.3155 C   0  0  0  0  0  0  0  0  0  0  0  0
   -4.9521   24.3700  -30.0828 C   0  0  0  0  0  0  0  0  0  0  0  0
   -4.4580   25.4895  -29.4599 C   0  0  0  0  0  0  0  0  0  0  0  0
   -4.6167   25.6592  -28.0799 C   0  0  0  0  0  0  0  0  0  0  0  0
  8  9  1  0  0  0
  9 10  1  0  0  0
  9  7  1  0  0  0
  7  6  1  0  0  0
  6 11  1  0  0  0
 11 12  1  0  0  0
 12 13  2  0  0  0
 12 14  1  0  0  0
 14 15  1  0  0  0
  6  2  1  0  0  0
  2  3  2  0  0  0
  2  4  1  0  0  0
  4  1  1  0  0  0
  1 31  1  0  0  0
 31 32  1  0  0  0
 32 33  2  0  0  0
 33 34  1  0  0  0
 34 35  2  0  0  0
 35 36  1  0  0  0
 36 37  2  0  0  0
  1 18  1  0  0  0
 18 19  2  0  0  0
 18 20  1  0  0  0
 20 22  1  0  0  0
 22 27  1  0  0  0
 27 28  1  0  0  0
 28 29  1  0  0  0
 28 30  1  0  0  0
 22 23  1  0  0  0
 23 24  1  0  0  0
 23 25  2  0  0  0
 37 32  1  0  0  0
 14 16  1  0  0  0
 15 17  1  0  0  0
  4  5  1  0  0  0
 20 21  1  0  0  0
 24 26  1  0  0  0
M  END
> <minimizedAffinity>
-7.66642

> <CNNscore>
0.1471740901

> <CNNaffinity>
5.7213945389

> <CNN_VS>
0.8420410156

> <CNNaffinity_variance>
0.3442338109

$$$$
[H]OC(=O)[C@@]([H])(N([H])C(=O)[C@@]([H])(N([H])C(=O)[C@@]([H])(C([H])([H])C(=O)N([H])O[H])C([H])([H])C([H])(C([H])([H])[H])C([H])([H])[H])C([H])([H])c1c([H])c([H])c([H])c([H])c1[H])C([H])([H])C([H])(C([H])([H])[H])C([H])([H])[H]


 37 37  0  0  0  0  0  0  0  0999 V2000
   -5.8137   24.6089  -23.6705 C   0  0  0  0  0  0  0  0  0  0  0  0
   -4.9287   23.2885  -25.6178 C   0  0  0  0  0  0  0  0  0  0  0  0
   -5.1739   22.2093  -25.0594 O   0  0  0  0  0  0  0  0  0  0  0  0
   -5.2272   24.5057  -24.9732 N   0  0  0  0  0  0  0  0  0  0  0  0
   -5.0100   25.4171  -25.4697 H   0  0  0  0  0  0  0  0  0  0  0  0
   -4.3093   23.2467  -26.9981 C   0  0  0  0  0  0  0  0  0  0  0  0
   -3.1051   22.3926  -26.9972 C   0  0  0  0  0  0  0  0  0  0  0  0
   -0.6065   22.7851  -27.2181 C   0  0  0  0  0  0  0  0  0  0  0  0
   -1.8519   22.8645  -26.3890 C   0  0  0  0  0  0  0  0  0  0  0  0
   -1.5969   21.9883  -25.1451 C   0  0  0  0  0  0  0  0  0  0  0  0
   -4.1941   24.6289  -27.5466 C   0  0  0  0  0  0  0  0  0  0  0  0
   -5.3931   24.9588  -28.4162 C   0  0  0  0  0  0  0  0  0  0  0  0
   -6.3375   25.5597  -27.9047 O   0  0  0  0  0  0  0  0  0  0  0  0
   -5.3798   24.5615  -29.7894 N   0  0  0  0  0  0  0  0  0  0  0  0
   -6.3983   24.8229  -30.6020 O   0  0  0  0  0  0  0  0  0  0  0  0
   -4.5398   24.0476  -30.1682 H   0  0  0  0  0  0  0  0  0  0  0  0
   -7.0904   25.3071  -30.1215 H   0  0  0  0  0  0  0  0  0  0  0  0
   -4.8952   24.3315  -22.5707 C   0  0  0  0  0  0  0  0  0  0  0  0
   -4.6887   25.2840  -21.7498 O   0  0  0  0  0  0  0  0  0  0  0  0
   -4.2149   23.1270  -22.3113 N   0  0  0  0  0  0  0  0  0  0  0  0
   -4.3614   22.3310  -22.9741 H   0  0  0  0  0  0  0  0  0  0  0  0
   -3.3299   22.9613  -21.1697 C   0  0  0  0  0  0  0  0  0  0  0  0
   -1.9501   23.0168  -21.5750 C   0  0  0  0  0  0  0  0  0  0  0  0
   -1.0621   21.9588  -21.2997 O   0  0  0  0  0  0  0  0  0  0  0  0
   -1.4431   23.9827  -22.1845 O   0  0  0  0  0  0  0  0  0  0  0  0
   -0.7511   21.7218  -20.3795 H   0  0  0  0  0  0  0  0  0  0  0  0
   -3.7623   21.7222  -20.4223 C   0  0  0  0  0  0  0  0  0  0  0  0
   -4.1402   21.9043  -19.0054 C   0  0  0  0  0  0  0  0  0  0  0  0
   -3.1105   22.4990  -18.1018 C   0  0  0  0  0  0  0  0  0  0  0  0
   -5.3349   22.8723  -18.9824 C   0  0  0  0  0  0  0  0  0  0  0  0
   -7.0920   23.8560  -23.5342 C   0  0  0  0  0  0  0  0  0  0  0  0
   -7.9558   24.3016  -22.4306 C   0  0  0  0  0  0  0  0  0  0  0  0
   -8.2778   23.4326  -21.3857 C   0  0  0  0  0  0  0  0  0  0  0  0
   -9.0798   23.8231  -20.3432 C   0  0  0  0  0  0  0  0  0  0  0  0
   -9.6005   25.0978  -20.2889 C   0  0  0  0  0  0  0  0  0  0  0  0
   -9.2971   25.9694  -21.3057 C   0  0  0  0  0  0  0  0  0  0  0  0
   -8.4786   25.5627  -22.3654 C   0  0  0  0  0  0  0  0  0  0  0  0
  8  9  1  0  0  0
  9 10  1  0  0  0
  9  7  1  0  0  0
  7  6  1  0  0  0
  6 11  1  0  0  0
 11 12  1  0  0  0
 12 13  2  0  0  0
 12 14  1  0  0  0
 14 15  1  0  0  0
  6  2  1  0  0  0
  2  3  2  0  0  0
  2  4  1  0  0  0
  4  1  1  0  0  0
  1 31  1  0  0  0
 31 32  1  0  0  0
 32 33  2  0  0  0
 33 34  1  0  0  0
 34 35  2  0  0  0
 35 36  1  0  0  0
 36 37  2  0  0  0
  1 18  1  0  0  0
 18 19  2  0  0  0
 18 20  1  0  0  0
 20 22  1  0  0  0
 22 27  1  0  0  0
 27 28  1  0  0  0
 28 29  1  0  0  0
 28 30  1  0  0  0
 22 23  1  0  0  0
 23 24  1  0  0  0
 23 25  2  0  0  0
 37 32  1  0  0  0
 14 16  1  0  0  0
 15 17  1  0  0  0
  4  5  1  0  0  0
 20 21  1  0  0  0
 24 26  1  0  0  0
M  END
> <minimizedAffinity>
-7.02284

> <CNNscore>
0.1438382417

> <CNNaffinity>
6.0557632446

> <CNN_VS>
0.8710503578

> <CNNaffinity_variance>
0.3103470504

$$$$
[H]OC(=O)[C@@]([H])(N([H])C(=O)[C@@]([H])(N([H])C(=O)[C@@]([H])(C([H])([H])C(=O)N([H])O[H])C([H])([H])C([H])(C([H])([H])[H])C([H])([H])[H])C([H])([H])c1c([H])c([H])c([H])c([H])c1[H])C([H])([H])C([H])(C([H])([H])[H])C([H])([H])[H]


 37 37  0  0  0  0  0  0  0  0999 V2000
   -5.8531   23.3479  -25.1624 C   0  0  0  0  0  0  0  0  0  0  0  0
   -6.3472   23.8035  -22.7403 C   0  0  0  0  0  0  0  0  0  0  0  0
   -5.1691   24.1114  -22.5081 O   0  0  0  0  0  0  0  0  0  0  0  0
   -6.7382   23.4189  -24.0385 N   0  0  0  0  0  0  0  0  0  0  0  0
   -7.7514   23.1605  -24.2148 H   0  0  0  0  0  0  0  0  0  0  0  0
   -7.3328   23.8597  -21.5931 C   0  0  0  0  0  0  0  0  0  0  0  0
   -7.5035   25.2503  -21.1276 C   0  0  0  0  0  0  0  0  0  0  0  0
   -9.2010   27.0372  -20.5177 C   0  0  0  0  0  0  0  0  0  0  0  0
   -8.6974   26.0243  -21.5002 C   0  0  0  0  0  0  0  0  0  0  0  0
   -9.8451   25.0131  -21.7015 C   0  0  0  0  0  0  0  0  0  0  0  0
   -6.9997   22.8132  -20.5838 C   0  0  0  0  0  0  0  0  0  0  0  0
   -8.1645   21.8575  -20.4029 C   0  0  0  0  0  0  0  0  0  0  0  0
   -8.4735   21.1290  -21.3455 O   0  0  0  0  0  0  0  0  0  0  0  0
   -8.8543   21.8395  -19.1509 N   0  0  0  0  0  0  0  0  0  0  0  0
   -9.8802   21.0241  -18.9305 O   0  0  0  0  0  0  0  0  0  0  0  0
   -8.5411   22.4900  -18.3815 H   0  0  0  0  0  0  0  0  0  0  0  0
  -10.0470   20.4801  -19.7182 H   0  0  0  0  0  0  0  0  0  0  0  0
   -4.6184   22.6106  -24.9136 C   0  0  0  0  0  0  0  0  0  0  0  0
   -4.7170   21.3415  -24.8558 O   0  0  0  0  0  0  0  0  0  0  0  0
   -3.3282   23.1440  -24.7353 N   0  0  0  0  0  0  0  0  0  0  0  0
   -3.2205   24.1840  -24.7712 H   0  0  0  0  0  0  0  0  0  0  0  0
   -2.1625   22.3058  -24.5061 C   0  0  0  0  0  0  0  0  0  0  0  0
   -1.8027   22.2934  -23.1126 C   0  0  0  0  0  0  0  0  0  0  0  0
   -2.7798   22.1849  -22.1041 O   0  0  0  0  0  0  0  0  0  0  0  0
   -0.6270   22.3782  -22.6976 O   0  0  0  0  0  0  0  0  0  0  0  0
   -3.4429   22.9036  -21.8957 H   0  0  0  0  0  0  0  0  0  0  0  0
   -1.0855   22.7321  -25.4753 C   0  0  0  0  0  0  0  0  0  0  0  0
   -1.1591   22.1614  -26.8364 C   0  0  0  0  0  0  0  0  0  0  0  0
   -2.0020   22.8901  -27.8308 C   0  0  0  0  0  0  0  0  0  0  0  0
    0.2705   22.1718  -27.4031 C   0  0  0  0  0  0  0  0  0  0  0  0
   -5.5958   24.6700  -25.7991 C   0  0  0  0  0  0  0  0  0  0  0  0
   -5.5146   24.6424  -27.2671 C   0  0  0  0  0  0  0  0  0  0  0  0
   -5.6821   23.4442  -27.9650 C   0  0  0  0  0  0  0  0  0  0  0  0
   -5.6130   23.3906  -29.3343 C   0  0  0  0  0  0  0  0  0  0  0  0
   -5.3742   24.5269  -30.0765 C   0  0  0  0  0  0  0  0  0  0  0  0
   -5.2063   25.7164  -29.4114 C   0  0  0  0  0  0  0  0  0  0  0  0
   -5.2780   25.7619  -28.0145 C   0  0  0  0  0  0  0  0  0  0  0  0
  8  9  1  0  0  0
  9 10  1  0  0  0
  9  7  1  0  0  0
  7  6  1  0  0  0
  6 11  1  0  0  0
 11 12  1  0  0  0
 12 13  2  0  0  0
 12 14  1  0  0  0
 14 15  1  0  0  0
  6  2  1  0  0  0
  2  3  2  0  0  0
  2  4  1  0  0  0
  4  1  1  0  0  0
  1 31  1  0  0  0
 31 32  1  0  0  0
 32 33  2  0  0  0
 33 34  1  0  0  0
 34 35  2  0  0  0
 35 36  1  0  0  0
 36 37  2  0  0  0
  1 18  1  0  0  0
 18 19  2  0  0  0
 18 20  1  0  0  0
 20 22  1  0  0  0
 22 27  1  0  0  0
 27 28  1  0  0  0
 28 29  1  0  0  0
 28 30  1  0  0  0
 22 23  1  0  0  0
 23 24  1  0  0  0
 23 25  2  0  0  0
 37 32  1  0  0  0
 14 16  1  0  0  0
 15 17  1  0  0  0
  4  5  1  0  0  0
 20 21  1  0  0  0
 24 26  1  0  0  0
M  END
> <minimizedAffinity>
-7.22777

> <CNNscore>
0.1375584602

> <CNNaffinity>
5.7383260727

> <CNN_VS>
0.7893552780

> <CNNaffinity_variance>
0.2787009180

$$$$
[H]OC(=O)[C@@]([H])(N([H])C(=O)[C@@]([H])(N([H])C(=O)[C@@]([H])(C([H])([H])C(=O)N([H])O[H])C([H])([H])C([H])(C([H])([H])[H])C([H])([H])[H])C([H])([H])c1c([H])c([H])c([H])c([H])c1[H])C([H])([H])C([H])(C([H])([H])[H])C([H])([H])[H]


 37 37  0  0  0  0  0  0  0  0999 V2000
   -5.3309   25.0293  -25.4306 C   0  0  0  0  0  0  0  0  0  0  0  0
   -3.7085   23.1919  -24.8738 C   0  0  0  0  0  0  0  0  0  0  0  0
   -4.6233   22.3828  -24.6614 O   0  0  0  0  0  0  0  0  0  0  0  0
   -4.0053   24.5149  -25.2581 N   0  0  0  0  0  0  0  0  0  0  0  0
   -3.2071   25.1900  -25.4355 H   0  0  0  0  0  0  0  0  0  0  0  0
   -2.2837   22.7085  -24.7096 C   0  0  0  0  0  0  0  0  0  0  0  0
   -1.7975   22.1011  -25.9643 C   0  0  0  0  0  0  0  0  0  0  0  0
   -2.1172   23.0049  -28.3152 C   0  0  0  0  0  0  0  0  0  0  0  0
   -1.2992   22.9444  -27.0615 C   0  0  0  0  0  0  0  0  0  0  0  0
    0.0771   22.3817  -27.4728 C   0  0  0  0  0  0  0  0  0  0  0  0
   -2.1547   21.9226  -23.4485 C   0  0  0  0  0  0  0  0  0  0  0  0
   -1.9912   22.8489  -22.2577 C   0  0  0  0  0  0  0  0  0  0  0  0
   -1.4324   23.9314  -22.4328 O   0  0  0  0  0  0  0  0  0  0  0  0
   -2.4904   22.4314  -20.9850 N   0  0  0  0  0  0  0  0  0  0  0  0
   -2.3794   23.1984  -19.9054 O   0  0  0  0  0  0  0  0  0  0  0  0
   -2.9595   21.4902  -20.8998 H   0  0  0  0  0  0  0  0  0  0  0  0
   -1.9393   24.0337  -20.1355 H   0  0  0  0  0  0  0  0  0  0  0  0
   -6.0310   25.3254  -24.1847 C   0  0  0  0  0  0  0  0  0  0  0  0
   -6.5039   26.5026  -24.0654 O   0  0  0  0  0  0  0  0  0  0  0  0
   -6.2477   24.4541  -23.1008 N   0  0  0  0  0  0  0  0  0  0  0  0
   -5.8637   23.4835  -23.1702 H   0  0  0  0  0  0  0  0  0  0  0  0
   -6.9760   24.8580  -21.9090 C   0  0  0  0  0  0  0  0  0  0  0  0
   -6.0882   24.9971  -20.7849 C   0  0  0  0  0  0  0  0  0  0  0  0
   -4.9451   24.1856  -20.6487 O   0  0  0  0  0  0  0  0  0  0  0  0
   -6.2573   25.8246  -19.8639 O   0  0  0  0  0  0  0  0  0  0  0  0
   -4.9817   23.2044  -20.4602 H   0  0  0  0  0  0  0  0  0  0  0  0
   -8.1408   23.9128  -21.7334 C   0  0  0  0  0  0  0  0  0  0  0  0
   -9.4699   24.5310  -21.5461 C   0  0  0  0  0  0  0  0  0  0  0  0
   -9.7194   25.2166  -20.2430 C   0  0  0  0  0  0  0  0  0  0  0  0
   -9.6164   25.6125  -22.6295 C   0  0  0  0  0  0  0  0  0  0  0  0
   -6.1652   24.2186  -26.3613 C   0  0  0  0  0  0  0  0  0  0  0  0
   -5.8552   24.4026  -27.7870 C   0  0  0  0  0  0  0  0  0  0  0  0
   -5.7463   23.3005  -28.6379 C   0  0  0  0  0  0  0  0  0  0  0  0
   -5.4598   23.4440  -29.9721 C   0  0  0  0  0  0  0  0  0  0  0  0
   -5.2681   24.6915  -30.5252 C   0  0  0  0  0  0  0  0  0  0  0  0
   -5.3704   25.7897  -29.7073 C   0  0  0  0  0  0  0  0  0  0  0  0
   -5.6626   25.6342  -28.3475 C   0  0  0  0  0  0  0  0  0  0  0  0
  8  9  1  0  0  0
  9 10  1  0  0  0
  9  7  1  0  0  0
  7  6  1  0  0  0
  6 11  1  0  0  0
 11 12  1  0  0  0
 12 13  2  0  0  0
 12 14  1  0  0  0
 14 15  1  0  0  0
  6  2  1  0  0  0
  2  3  2  0  0  0
  2  4  1  0  0  0
  4  1  1  0  0  0
  1 31  1  0  0  0
 31 32  1  0  0  0
 32 33  2  0  0  0
 33 34  1  0  0  0
 34 35  2  0  0  0
 35 36  1  0  0  0
 36 37  2  0  0  0
  1 18  1  0  0  0
 18 19  2  0  0  0
 18 20  1  0  0  0
 20 22  1  0  0  0
 22 27  1  0  0  0
 27 28  1  0  0  0
 28 29  1  0  0  0
 28 30  1  0  0  0
 22 23  1  0  0  0
 23 24  1  0  0  0
 23 25  2  0  0  0
 37 32  1  0  0  0
 14 16  1  0  0  0
 15 17  1  0  0  0
  4  5  1  0  0  0
 20 21  1  0  0  0
 24 26  1  0  0  0
M  END
> <minimizedAffinity>
-8.02951

> <CNNscore>
0.1315945238

> <CNNaffinity>
5.8607549667

> <CNN_VS>
0.7712432742

> <CNNaffinity_variance>
0.4673013091

$$$$
[H]OC(=O)[C@@]([H])(N([H])C(=O)[C@@]([H])(N([H])C(=O)[C@@]([H])(C([H])([H])C(=O)N([H])O[H])C([H])([H])C([H])(C([H])([H])[H])C([H])([H])[H])C([H])([H])c1c([H])c([H])c([H])c([H])c1[H])C([H])([H])C([H])(C([H])([H])[H])C([H])([H])[H]


 37 37  0  0  0  0  0  0  0  0999 V2000
   -5.6551   23.2128  -24.6351 C   0  0  0  0  0  0  0  0  0  0  0  0
   -6.0677   23.9798  -22.2771 C   0  0  0  0  0  0  0  0  0  0  0  0
   -5.0682   24.7130  -22.2896 O   0  0  0  0  0  0  0  0  0  0  0  0
   -6.4029   23.2165  -23.4134 N   0  0  0  0  0  0  0  0  0  0  0  0
   -7.2628   22.5968  -23.3810 H   0  0  0  0  0  0  0  0  0  0  0  0
   -6.9012   23.9408  -21.0145 C   0  0  0  0  0  0  0  0  0  0  0  0
   -6.1942   23.1977  -19.9526 C   0  0  0  0  0  0  0  0  0  0  0  0
   -5.4187   20.7931  -19.7021 C   0  0  0  0  0  0  0  0  0  0  0  0
   -5.2144   22.1548  -20.2927 C   0  0  0  0  0  0  0  0  0  0  0  0
   -3.8422   22.6427  -19.7836 C   0  0  0  0  0  0  0  0  0  0  0  0
   -8.3017   23.5445  -21.3408 C   0  0  0  0  0  0  0  0  0  0  0  0
   -8.5894   22.1418  -20.8386 C   0  0  0  0  0  0  0  0  0  0  0  0
   -8.3316   21.1926  -21.5784 O   0  0  0  0  0  0  0  0  0  0  0  0
   -9.1454   21.9772  -19.5320 N   0  0  0  0  0  0  0  0  0  0  0  0
   -9.4176   20.7750  -19.0352 O   0  0  0  0  0  0  0  0  0  0  0  0
   -9.3449   22.8317  -18.9463 H   0  0  0  0  0  0  0  0  0  0  0  0
   -9.1734   20.0876  -19.6771 H   0  0  0  0  0  0  0  0  0  0  0  0
   -4.3266   22.6180  -24.5284 C   0  0  0  0  0  0  0  0  0  0  0  0
   -4.2532   21.3578  -24.7023 O   0  0  0  0  0  0  0  0  0  0  0  0
   -3.1147   23.2815  -24.2600 N   0  0  0  0  0  0  0  0  0  0  0  0
   -3.1478   24.3158  -24.1063 H   0  0  0  0  0  0  0  0  0  0  0  0
   -1.8416   22.5826  -24.1908 C   0  0  0  0  0  0  0  0  0  0  0  0
   -1.2247   22.7619  -22.9030 C   0  0  0  0  0  0  0  0  0  0  0  0
   -0.3208   21.8142  -22.3848 O   0  0  0  0  0  0  0  0  0  0  0  0
   -1.4379   23.7445  -22.1609 O   0  0  0  0  0  0  0  0  0  0  0  0
   -0.5872   20.8949  -22.0959 H   0  0  0  0  0  0  0  0  0  0  0  0
   -1.0218   22.9898  -25.3921 C   0  0  0  0  0  0  0  0  0  0  0  0
   -1.1501   22.1431  -26.5963 C   0  0  0  0  0  0  0  0  0  0  0  0
   -2.2065   22.5232  -27.5811 C   0  0  0  0  0  0  0  0  0  0  0  0
    0.1866   22.2346  -27.3514 C   0  0  0  0  0  0  0  0  0  0  0  0
   -5.6210   24.5386  -25.3136 C   0  0  0  0  0  0  0  0  0  0  0  0
   -5.3652   24.4845  -26.7607 C   0  0  0  0  0  0  0  0  0  0  0  0
   -5.9106   23.4621  -27.5404 C   0  0  0  0  0  0  0  0  0  0  0  0
   -5.6893   23.3890  -28.8926 C   0  0  0  0  0  0  0  0  0  0  0  0
   -4.9147   24.3301  -29.5355 C   0  0  0  0  0  0  0  0  0  0  0  0
   -4.3681   25.3445  -28.7887 C   0  0  0  0  0  0  0  0  0  0  0  0
   -4.5987   25.4113  -27.4100 C   0  0  0  0  0  0  0  0  0  0  0  0
  8  9  1  0  0  0
  9 10  1  0  0  0
  9  7  1  0  0  0
  7  6  1  0  0  0
  6 11  1  0  0  0
 11 12  1  0  0  0
 12 13  2  0  0  0
 12 14  1  0  0  0
 14 15  1  0  0  0
  6  2  1  0  0  0
  2  3  2  0  0  0
  2  4  1  0  0  0
  4  1  1  0  0  0
  1 31  1  0  0  0
 31 32  1  0  0  0
 32 33  2  0  0  0
 33 34  1  0  0  0
 34 35  2  0  0  0
 35 36  1  0  0  0
 36 37  2  0  0  0
  1 18  1  0  0  0
 18 19  2  0  0  0
 18 20  1  0  0  0
 20 22  1  0  0  0
 22 27  1  0  0  0
 27 28  1  0  0  0
 28 29  1  0  0  0
 28 30  1  0  0  0
 22 23  1  0  0  0
 23 24  1  0  0  0
 23 25  2  0  0  0
 37 32  1  0  0  0
 14 16  1  0  0  0
 15 17  1  0  0  0
  4  5  1  0  0  0
 20 21  1  0  0  0
 24 26  1  0  0  0
M  END
> <minimizedAffinity>
-6.95462

> <CNNscore>
0.1262326837

> <CNNaffinity>
5.7712202072

> <CNN_VS>
0.7285166383

> <CNNaffinity_variance>
0.3754993379

$$$$
[H]OC(=O)[C@@]([H])(N([H])C(=O)[C@@]([H])(N([H])C(=O)[C@@]([H])(C([H])([H])C(=O)N([H])O[H])C([H])([H])C([H])(C([H])([H])[H])C([H])([H])[H])C([H])([H])c1c([H])c([H])c([H])c([H])c1[H])C([H])([H])C([H])(C([H])([H])[H])C([H])([H])[H]


 37 37  0  0  0  0  0  0  0  0999 V2000
   -5.0581   22.4712  -23.0965 C   0  0  0  0  0  0  0  0  0  0  0  0
   -4.5010   22.8519  -20.6751 C   0  0  0  0  0  0  0  0  0  0  0  0
   -3.6176   23.6742  -20.9578 O   0  0  0  0  0  0  0  0  0  0  0  0
   -5.2442   22.2281  -21.6972 N   0  0  0  0  0  0  0  0  0  0  0  0
   -5.9958   21.5285  -21.4326 H   0  0  0  0  0  0  0  0  0  0  0  0
   -4.7473   22.5524  -19.2121 C   0  0  0  0  0  0  0  0  0  0  0  0
   -4.0428   21.3180  -18.8127 C   0  0  0  0  0  0  0  0  0  0  0  0
   -1.8644   20.0551  -18.4879 C   0  0  0  0  0  0  0  0  0  0  0  0
   -2.6158   21.3509  -18.4578 C   0  0  0  0  0  0  0  0  0  0  0  0
   -2.5242   21.8673  -17.0070 C   0  0  0  0  0  0  0  0  0  0  0  0
   -6.2032   22.6644  -18.9075 C   0  0  0  0  0  0  0  0  0  0  0  0
   -6.4702   23.8620  -18.0147 C   0  0  0  0  0  0  0  0  0  0  0  0
   -6.8769   24.8998  -18.5364 O   0  0  0  0  0  0  0  0  0  0  0  0
   -6.2409   23.7394  -16.6090 N   0  0  0  0  0  0  0  0  0  0  0  0
   -6.4579   24.7513  -15.7752 O   0  0  0  0  0  0  0  0  0  0  0  0
   -5.8906   22.8222  -16.2228 H   0  0  0  0  0  0  0  0  0  0  0  0
   -6.7868   25.5221  -16.2672 H   0  0  0  0  0  0  0  0  0  0  0  0
   -3.8246   21.9183  -23.6470 C   0  0  0  0  0  0  0  0  0  0  0  0
   -3.9470   20.9001  -24.4033 O   0  0  0  0  0  0  0  0  0  0  0  0
   -2.5137   22.3871  -23.4405 N   0  0  0  0  0  0  0  0  0  0  0  0
   -2.3845   23.2179  -22.8179 H   0  0  0  0  0  0  0  0  0  0  0  0
   -1.3552   21.7603  -24.0561 C   0  0  0  0  0  0  0  0  0  0  0  0
   -0.3571   21.4408  -23.0697 C   0  0  0  0  0  0  0  0  0  0  0  0
    1.0150   21.4447  -23.3872 O   0  0  0  0  0  0  0  0  0  0  0  0
   -0.6213   21.1401  -21.8859 O   0  0  0  0  0  0  0  0  0  0  0  0
    1.4449   20.7772  -23.9948 H   0  0  0  0  0  0  0  0  0  0  0  0
   -0.9101   22.6333  -25.2053 C   0  0  0  0  0  0  0  0  0  0  0  0
   -1.0688   22.0698  -26.5622 C   0  0  0  0  0  0  0  0  0  0  0  0
   -2.1855   22.6112  -27.3931 C   0  0  0  0  0  0  0  0  0  0  0  0
    0.2246   22.3862  -27.3316 C   0  0  0  0  0  0  0  0  0  0  0  0
   -5.2520   23.8972  -23.4817 C   0  0  0  0  0  0  0  0  0  0  0  0
   -5.3225   24.1408  -24.9302 C   0  0  0  0  0  0  0  0  0  0  0  0
   -4.4851   25.0819  -25.5334 C   0  0  0  0  0  0  0  0  0  0  0  0
   -4.5289   25.3274  -26.8827 C   0  0  0  0  0  0  0  0  0  0  0  0
   -5.4080   24.6482  -27.6981 C   0  0  0  0  0  0  0  0  0  0  0  0
   -6.2410   23.7181  -27.1266 C   0  0  0  0  0  0  0  0  0  0  0  0
   -6.1899   23.4743  -25.7495 C   0  0  0  0  0  0  0  0  0  0  0  0
  8  9  1  0  0  0
  9 10  1  0  0  0
  9  7  1  0  0  0
  7  6  1  0  0  0
  6 11  1  0  0  0
 11 12  1  0  0  0
 12 13  2  0  0  0
 12 14  1  0  0  0
 14 15  1  0  0  0
  6  2  1  0  0  0
  2  3  2  0  0  0
  2  4  1  0  0  0
  4  1  1  0  0  0
  1 31  1  0  0  0
 31 32  1  0  0  0
 32 33  2  0  0  0
 33 34  1  0  0  0
 34 35  2  0  0  0
 35 36  1  0  0  0
 36 37  2  0  0  0
  1 18  1  0  0  0
 18 19  2  0  0  0
 18 20  1  0  0  0
 20 22  1  0  0  0
 22 27  1  0  0  0
 27 28  1  0  0  0
 28 29  1  0  0  0
 28 30  1  0  0  0
 22 23  1  0  0  0
 23 24  1  0  0  0
 23 25  2  0  0  0
 37 32  1  0  0  0
 14 16  1  0  0  0
 15 17  1  0  0  0
  4  5  1  0  0  0
 20 21  1  0  0  0
 24 26  1  0  0  0
M  END
> <minimizedAffinity>
-6.63179

> <CNNscore>
0.1199232936

> <CNNaffinity>
5.5695085526

> <CNN_VS>
0.6679137945

> <CNNaffinity_variance>
0.3148761094

$$$$
[H]OC([H])([H])[C@@]1([H])OC([H])(n2c([H])nc3c(N([H])[H])nc([H])nc32)[C@]([H])(O[H])[C@@]([H])(O[H])[C@]1([H])O[H]


 27 29  0  0  0  0  0  0  0  0999 V2000
   -4.2068   24.1492  -26.0521 C   0  0  0  0  0  0  0  0  0  0  0  0
   -4.0690   25.5141  -25.9851 O   0  0  0  0  0  0  0  0  0  0  0  0
   -5.1071   26.2300  -26.4986 C   0  0  0  0  0  0  0  0  0  0  0  0
   -6.3037   25.4524  -26.9032 C   0  0  0  0  0  0  0  0  0  0  0  0
   -6.2296   25.1069  -28.2728 O   0  0  0  0  0  0  0  0  0  0  0  0
   -6.6204   24.2760  -26.0452 C   0  0  0  0  0  0  0  0  0  0  0  0
   -7.7182   24.4860  -25.2172 O   0  0  0  0  0  0  0  0  0  0  0  0
   -5.4268   23.7518  -25.2742 C   0  0  0  0  0  0  0  0  0  0  0  0
   -5.5167   22.3907  -25.0506 O   0  0  0  0  0  0  0  0  0  0  0  0
   -6.1931   25.9847  -28.7457 H   0  0  0  0  0  0  0  0  0  0  0  0
   -8.5325   24.4068  -25.8082 H   0  0  0  0  0  0  0  0  0  0  0  0
   -6.0208   22.2634  -24.1949 H   0  0  0  0  0  0  0  0  0  0  0  0
    1.1570   21.4741  -25.0354 N   0  0  0  0  0  0  0  0  0  0  0  0
    0.2245   22.0855  -25.9175 C   0  0  0  0  0  0  0  0  0  0  0  0
    0.4862   22.2393  -27.2384 N   0  0  0  0  0  0  0  0  0  0  0  0
   -0.4215   22.8237  -28.0460 C   0  0  0  0  0  0  0  0  0  0  0  0
   -1.6121   23.2768  -27.5936 N   0  0  0  0  0  0  0  0  0  0  0  0
   -1.9210   23.1497  -26.2965 C   0  0  0  0  0  0  0  0  0  0  0  0
   -3.0014   23.5030  -25.6065 N   0  0  0  0  0  0  0  0  0  0  0  0
   -2.7777   23.1358  -24.3315 C   0  0  0  0  0  0  0  0  0  0  0  0
   -1.5660   22.5608  -24.2437 N   0  0  0  0  0  0  0  0  0  0  0  0
   -0.9964   22.5524  -25.4644 C   0  0  0  0  0  0  0  0  0  0  0  0
    1.3151   21.8926  -24.0919 H   0  0  0  0  0  0  0  0  0  0  0  0
    1.7066   20.6193  -25.2677 H   0  0  0  0  0  0  0  0  0  0  0  0
   -5.5177   27.3655  -25.5533 C   0  0  0  0  0  0  0  0  0  0  0  0
   -6.0402   26.8616  -24.3716 O   0  0  0  0  0  0  0  0  0  0  0  0
   -5.6691   27.2599  -23.5624 H   0  0  0  0  0  0  0  0  0  0  0  0
 13 14  1  0  0  0
 14 15  2  0  0  0
 15 16  1  0  0  0
 16 17  2  0  0  0
 17 18  1  0  0  0
 18 19  1  0  0  0
 19 20  1  0  0  0
 20 21  2  0  0  0
 21 22  1  0  0  0
 19  1  1  0  0  0
  1  2  1  0  0  0
  2  3  1  0  0  0
  3 25  1  0  0  0
 25 26  1  0  0  0
  3  4  1  0  0  0
  4  5  1  0  0  0
  4  6  1  0  0  0
  6  7  1  0  0  0
  6  8  1  0  0  0
  8  9  1  0  0  0
 22 14  1  0  0  0
  8  1  1  0  0  0
 22 18  2  0  0  0
 13 23  1  0  0  0
 13 24  1  0  0  0
 26 27  1  0  0  0
  5 10  1  0  0  0
  7 11  1  0  0  0
  9 12  1  0  0  0
M  END
> <minimizedAffinity>
-7.39855

> <CNNscore>
0.7729180455

> <CNNaffinity>
5.0909624100

> <CNN_VS>
3.9348967075

> <CNNaffinity_variance>
0.4115962088

$$$$
[H]OC([H])([H])[C@@]1([H])OC([H])(n2c([H])nc3c(N([H])[H])nc([H])nc32)[C@]([H])(O[H])[C@@]([H])(O[H])[C@]1([H])O[H]


 27 29  0  0  0  0  0  0  0  0999 V2000
   -3.9118   23.3751  -27.0354 C   0  0  0  0  0  0  0  0  0  0  0  0
   -4.1644   23.0637  -28.3492 O   0  0  0  0  0  0  0  0  0  0  0  0
   -5.4331   23.3167  -28.7738 C   0  0  0  0  0  0  0  0  0  0  0  0
   -6.3118   24.0393  -27.8221 C   0  0  0  0  0  0  0  0  0  0  0  0
   -7.0547   23.1233  -27.0412 O   0  0  0  0  0  0  0  0  0  0  0  0
   -5.6349   25.0692  -26.9845 C   0  0  0  0  0  0  0  0  0  0  0  0
   -5.9238   26.3703  -27.3825 O   0  0  0  0  0  0  0  0  0  0  0  0
   -4.1444   24.8441  -26.8377 C   0  0  0  0  0  0  0  0  0  0  0  0
   -3.6696   25.3178  -25.6290 O   0  0  0  0  0  0  0  0  0  0  0  0
   -7.5905   22.6101  -27.7084 H   0  0  0  0  0  0  0  0  0  0  0  0
   -6.8575   26.5626  -27.0508 H   0  0  0  0  0  0  0  0  0  0  0  0
   -3.4274   26.2802  -25.7621 H   0  0  0  0  0  0  0  0  0  0  0  0
    1.3508   21.5212  -24.6212 N   0  0  0  0  0  0  0  0  0  0  0  0
   -0.0151   21.8902  -24.4812 C   0  0  0  0  0  0  0  0  0  0  0  0
   -0.6346   21.8904  -23.2757 N   0  0  0  0  0  0  0  0  0  0  0  0
   -1.9316   22.2463  -23.1799 C   0  0  0  0  0  0  0  0  0  0  0  0
   -2.6661   22.6129  -24.2538 N   0  0  0  0  0  0  0  0  0  0  0  0
   -2.1024   22.6299  -25.4687 C   0  0  0  0  0  0  0  0  0  0  0  0
   -2.5903   22.9440  -26.6652 N   0  0  0  0  0  0  0  0  0  0  0  0
   -1.5828   22.7851  -27.5427 C   0  0  0  0  0  0  0  0  0  0  0  0
   -0.4846   22.3758  -26.8848 N   0  0  0  0  0  0  0  0  0  0  0  0
   -0.7753   22.2668  -25.5739 C   0  0  0  0  0  0  0  0  0  0  0  0
    1.6344   20.9133  -25.4215 H   0  0  0  0  0  0  0  0  0  0  0  0
    2.1063   21.8202  -23.9681 H   0  0  0  0  0  0  0  0  0  0  0  0
   -5.4304   24.0340  -30.1293 C   0  0  0  0  0  0  0  0  0  0  0  0
   -6.4118   25.0128  -30.1735 O   0  0  0  0  0  0  0  0  0  0  0  0
   -6.1053   25.8791  -30.5001 H   0  0  0  0  0  0  0  0  0  0  0  0
 13 14  1  0  0  0
 14 15  2  0  0  0
 15 16  1  0  0  0
 16 17  2  0  0  0
 17 18  1  0  0  0
 18 19  1  0  0  0
 19 20  1  0  0  0
 20 21  2  0  0  0
 21 22  1  0  0  0
 19  1  1  0  0  0
  1  2  1  0  0  0
  2  3  1  0  0  0
  3 25  1  0  0  0
 25 26  1  0  0  0
  3  4  1  0  0  0
  4  5  1  0  0  0
  4  6  1  0  0  0
  6  7  1  0  0  0
  6  8  1  0  0  0
  8  9  1  0  0  0
 22 14  1  0  0  0
  8  1  1  0  0  0
 22 18  2  0  0  0
 13 23  1  0  0  0
 13 24  1  0  0  0
 26 27  1  0  0  0
  5 10  1  0  0  0
  7 11  1  0  0  0
  9 12  1  0  0  0
M  END
> <minimizedAffinity>
-7.36018

> <CNNscore>
0.5671468973

> <CNNaffinity>
5.3596873283

> <CNN_VS>
3.0397300720

> <CNNaffinity_variance>
0.2691784203

$$$$
[H]OC([H])([H])[C@@]1([H])OC([H])(n2c([H])nc3c(N([H])[H])nc([H])nc32)[C@]([H])(O[H])[C@@]([H])(O[H])[C@]1([H])O[H]


 27 29  0  0  0  0  0  0  0  0999 V2000
   -4.5475   23.7344  -23.9446 C   0  0  0  0  0  0  0  0  0  0  0  0
   -5.3068   23.1846  -24.9485 O   0  0  0  0  0  0  0  0  0  0  0  0
   -6.6302   23.5033  -24.9185 C   0  0  0  0  0  0  0  0  0  0  0  0
   -7.0377   24.5206  -23.9190 C   0  0  0  0  0  0  0  0  0  0  0  0
   -7.4470   23.8973  -22.7170 O   0  0  0  0  0  0  0  0  0  0  0  0
   -6.0492   25.6092  -23.6769 C   0  0  0  0  0  0  0  0  0  0  0  0
   -6.4237   26.8212  -24.2475 O   0  0  0  0  0  0  0  0  0  0  0  0
   -4.6300   25.2292  -24.0450 C   0  0  0  0  0  0  0  0  0  0  0  0
   -3.7019   25.8848  -23.2580 O   0  0  0  0  0  0  0  0  0  0  0  0
   -8.2201   23.3273  -22.9871 H   0  0  0  0  0  0  0  0  0  0  0  0
   -7.1444   27.1996  -23.6508 H   0  0  0  0  0  0  0  0  0  0  0  0
   -3.4966   26.7567  -23.7056 H   0  0  0  0  0  0  0  0  0  0  0  0
    1.0587   21.6722  -25.0751 N   0  0  0  0  0  0  0  0  0  0  0  0
   -0.1893   22.1808  -25.5279 C   0  0  0  0  0  0  0  0  0  0  0  0
   -0.4471   22.3719  -26.8446 N   0  0  0  0  0  0  0  0  0  0  0  0
   -1.6423   22.8561  -27.2384 C   0  0  0  0  0  0  0  0  0  0  0  0
   -2.6237   23.1695  -26.3634 N   0  0  0  0  0  0  0  0  0  0  0  0
   -2.4211   22.9998  -25.0503 C   0  0  0  0  0  0  0  0  0  0  0  0
   -3.2034   23.2248  -23.9988 N   0  0  0  0  0  0  0  0  0  0  0  0
   -2.4918   22.8765  -22.9113 C   0  0  0  0  0  0  0  0  0  0  0  0
   -1.2803   22.4408  -23.2972 N   0  0  0  0  0  0  0  0  0  0  0  0
   -1.2000   22.5046  -24.6404 C   0  0  0  0  0  0  0  0  0  0  0  0
    1.5080   22.0995  -24.2348 H   0  0  0  0  0  0  0  0  0  0  0  0
    1.5692   20.8861  -25.5315 H   0  0  0  0  0  0  0  0  0  0  0  0
   -7.1339   23.9073  -26.3095 C   0  0  0  0  0  0  0  0  0  0  0  0
   -8.1033   24.8948  -26.2176 O   0  0  0  0  0  0  0  0  0  0  0  0
   -7.9647   25.6549  -26.8126 H   0  0  0  0  0  0  0  0  0  0  0  0
 13 14  1  0  0  0
 14 15  2  0  0  0
 15 16  1  0  0  0
 16 17  2  0  0  0
 17 18  1  0  0  0
 18 19  1  0  0  0
 19 20  1  0  0  0
 20 21  2  0  0  0
 21 22  1  0  0  0
 19  1  1  0  0  0
  1  2  1  0  0  0
  2  3  1  0  0  0
  3 25  1  0  0  0
 25 26  1  0  0  0
  3  4  1  0  0  0
  4  5  1  0  0  0
  4  6  1  0  0  0
  6  7  1  0  0  0
  6  8  1  0  0  0
  8  9  1  0  0  0
 22 14  1  0  0  0
  8  1  1  0  0  0
 22 18  2  0  0  0
 13 23  1  0  0  0
 13 24  1  0  0  0
 26 27  1  0  0  0
  5 10  1  0  0  0
  7 11  1  0  0  0
  9 12  1  0  0  0
M  END
> <minimizedAffinity>
-7.31784

> <CNNscore>
0.5653358698

> <CNNaffinity>
4.7484059334

> <CNN_VS>
2.6844441891

> <CNNaffinity_variance>
0.2247531414

$$$$
[H]OC([H])([H])[C@@]1([H])OC([H])(n2c([H])nc3c(N([H])[H])nc([H])nc32)[C@]([H])(O[H])[C@@]([H])(O[H])[C@]1([H])O[H]


 27 29  0  0  0  0  0  0  0  0999 V2000
   -4.6203   23.1304  -24.0784 C   0  0  0  0  0  0  0  0  0  0  0  0
   -4.5017   24.0927  -23.1056 O   0  0  0  0  0  0  0  0  0  0  0  0
   -5.6715   24.4881  -22.5321 C   0  0  0  0  0  0  0  0  0  0  0  0
   -6.8812   23.7181  -22.9111 C   0  0  0  0  0  0  0  0  0  0  0  0
   -7.5349   24.3306  -24.0058 O   0  0  0  0  0  0  0  0  0  0  0  0
   -6.6667   22.2601  -23.1314 C   0  0  0  0  0  0  0  0  0  0  0  0
   -7.1644   21.4743  -22.0972 O   0  0  0  0  0  0  0  0  0  0  0  0
   -5.2333   21.9045  -23.4678 C   0  0  0  0  0  0  0  0  0  0  0  0
   -5.1576   20.7891  -24.2807 O   0  0  0  0  0  0  0  0  0  0  0  0
   -7.7759   25.2390  -23.6708 H   0  0  0  0  0  0  0  0  0  0  0  0
   -8.1659   21.4526  -22.2206 H   0  0  0  0  0  0  0  0  0  0  0  0
   -5.1290   19.9871  -23.6820 H   0  0  0  0  0  0  0  0  0  0  0  0
    0.3484   22.3349  -27.4901 N   0  0  0  0  0  0  0  0  0  0  0  0
   -1.0268   22.6724  -27.3634 C   0  0  0  0  0  0  0  0  0  0  0  0
   -1.7783   23.0209  -28.4362 N   0  0  0  0  0  0  0  0  0  0  0  0
   -3.0800   23.3350  -28.2792 C   0  0  0  0  0  0  0  0  0  0  0  0
   -3.6912   23.3199  -27.0736 N   0  0  0  0  0  0  0  0  0  0  0  0
   -2.9943   22.9828  -25.9805 C   0  0  0  0  0  0  0  0  0  0  0  0
   -3.3462   22.8903  -24.7016 N   0  0  0  0  0  0  0  0  0  0  0  0
   -2.2452   22.5089  -24.0287 C   0  0  0  0  0  0  0  0  0  0  0  0
   -1.2256   22.3692  -24.8932 N   0  0  0  0  0  0  0  0  0  0  0  0
   -1.6615   22.6602  -26.1342 C   0  0  0  0  0  0  0  0  0  0  0  0
    1.0286   22.6974  -26.7855 H   0  0  0  0  0  0  0  0  0  0  0  0
    0.7354   21.7384  -28.2525 H   0  0  0  0  0  0  0  0  0  0  0  0
   -5.5473   24.5464  -21.0047 C   0  0  0  0  0  0  0  0  0  0  0  0
   -5.8528   25.8136  -20.5311 O   0  0  0  0  0  0  0  0  0  0  0  0
   -6.4789   25.8264  -19.7835 H   0  0  0  0  0  0  0  0  0  0  0  0
 13 14  1  0  0  0
 14 15  2  0  0  0
 15 16  1  0  0  0
 16 17  2  0  0  0
 17 18  1  0  0  0
 18 19  1  0  0  0
 19 20  1  0  0  0
 20 21  2  0  0  0
 21 22  1  0  0  0
 19  1  1  0  0  0
  1  2  1  0  0  0
  2  3  1  0  0  0
  3 25  1  0  0  0
 25 26  1  0  0  0
  3  4  1  0  0  0
  4  5  1  0  0  0
  4  6  1  0  0  0
  6  7  1  0  0  0
  6  8  1  0  0  0
  8  9  1  0  0  0
 22 14  1  0  0  0
  8  1  1  0  0  0
 22 18  2  0  0  0
 13 23  1  0  0  0
 13 24  1  0  0  0
 26 27  1  0  0  0
  5 10  1  0  0  0
  7 11  1  0  0  0
  9 12  1  0  0  0
M  END
> <minimizedAffinity>
-6.90530

> <CNNscore>
0.5434932113

> <CNNaffinity>
4.7321758270

> <CNN_VS>
2.5719053745

> <CNNaffinity_variance>
0.1425257623

$$$$
[H]OC([H])([H])[C@@]1([H])OC([H])(n2c([H])nc3c(N([H])[H])nc([H])nc32)[C@]([H])(O[H])[C@@]([H])(O[H])[C@]1([H])O[H]


 27 29  0  0  0  0  0  0  0  0999 V2000
   -4.2108   24.0241  -26.2631 C   0  0  0  0  0  0  0  0  0  0  0  0
   -4.0788   25.3798  -26.0863 O   0  0  0  0  0  0  0  0  0  0  0  0
   -5.2227   26.1015  -26.2426 C   0  0  0  0  0  0  0  0  0  0  0  0
   -6.4723   25.3212  -26.4151 C   0  0  0  0  0  0  0  0  0  0  0  0
   -6.7437   25.1189  -27.7885 O   0  0  0  0  0  0  0  0  0  0  0  0
   -6.5451   24.0525  -25.6370 C   0  0  0  0  0  0  0  0  0  0  0  0
   -7.3994   24.1337  -24.5423 O   0  0  0  0  0  0  0  0  0  0  0  0
   -5.1880   23.5017  -25.2514 C   0  0  0  0  0  0  0  0  0  0  0  0
   -5.2000   22.1225  -25.1603 O   0  0  0  0  0  0  0  0  0  0  0  0
   -6.8401   26.0406  -28.1581 H   0  0  0  0  0  0  0  0  0  0  0  0
   -8.3360   24.0819  -24.9149 H   0  0  0  0  0  0  0  0  0  0  0  0
   -5.4686   21.8894  -24.2243 H   0  0  0  0  0  0  0  0  0  0  0  0
    1.1566   21.4070  -25.1222 N   0  0  0  0  0  0  0  0  0  0  0  0
   -0.0409   22.0265  -24.6710 C   0  0  0  0  0  0  0  0  0  0  0  0
   -0.2927   22.2185  -23.3532 N   0  0  0  0  0  0  0  0  0  0  0  0
   -1.4392   22.8097  -22.9609 C   0  0  0  0  0  0  0  0  0  0  0  0
   -2.3764   23.2325  -23.8386 N   0  0  0  0  0  0  0  0  0  0  0  0
   -2.1774   23.0670  -25.1528 C   0  0  0  0  0  0  0  0  0  0  0  0
   -2.9232   23.3853  -26.2066 N   0  0  0  0  0  0  0  0  0  0  0  0
   -2.2375   22.9886  -27.2942 C   0  0  0  0  0  0  0  0  0  0  0  0
   -1.0780   22.4305  -26.9058 N   0  0  0  0  0  0  0  0  0  0  0  0
   -1.0061   22.4625  -25.5611 C   0  0  0  0  0  0  0  0  0  0  0  0
    1.1074   20.7065  -25.8951 H   0  0  0  0  0  0  0  0  0  0  0  0
    2.1011   21.6059  -24.7284 H   0  0  0  0  0  0  0  0  0  0  0  0
   -5.3950   27.1185  -25.1078 C   0  0  0  0  0  0  0  0  0  0  0  0
   -6.6761   27.0592  -24.5800 O   0  0  0  0  0  0  0  0  0  0  0  0
   -6.7112   27.0141  -23.6064 H   0  0  0  0  0  0  0  0  0  0  0  0
 13 14  1  0  0  0
 14 15  2  0  0  0
 15 16  1  0  0  0
 16 17  2  0  0  0
 17 18  1  0  0  0
 18 19  1  0  0  0
 19 20  1  0  0  0
 20 21  2  0  0  0
 21 22  1  0  0  0
 19  1  1  0  0  0
  1  2  1  0  0  0
  2  3  1  0  0  0
  3 25  1  0  0  0
 25 26  1  0  0  0
  3  4  1  0  0  0
  4  5  1  0  0  0
  4  6  1  0  0  0
  6  7  1  0  0  0
  6  8  1  0  0  0
  8  9  1  0  0  0
 22 14  1  0  0  0
  8  1  1  0  0  0
 22 18  2  0  0  0
 13 23  1  0  0  0
 13 24  1  0  0  0
 26 27  1  0  0  0
  5 10  1  0  0  0
  7 11  1  0  0  0
  9 12  1  0  0  0
M  END
> <minimizedAffinity>
-7.27736

> <CNNscore>
0.5084725022

> <CNNaffinity>
4.7947902679

> <CNN_VS>
2.4380190372

> <CNNaffinity_variance>
0.2132681310

$$$$
[H]OC([H])([H])[C@@]1([H])OC([H])(n2c([H])nc3c(N([H])[H])nc([H])nc32)[C@]([H])(O[H])[C@@]([H])(O[H])[C@]1([H])O[H]


 27 29  0  0  0  0  0  0  0  0999 V2000
   -3.7645   23.3481  -22.5852 C   0  0  0  0  0  0  0  0  0  0  0  0
   -4.6589   22.3057  -22.5786 O   0  0  0  0  0  0  0  0  0  0  0  0
   -5.6747   22.4159  -21.6788 C   0  0  0  0  0  0  0  0  0  0  0  0
   -5.7720   23.7062  -20.9537 C   0  0  0  0  0  0  0  0  0  0  0  0
   -5.0675   23.6399  -19.7290 O   0  0  0  0  0  0  0  0  0  0  0  0
   -5.4044   24.9131  -21.7466 C   0  0  0  0  0  0  0  0  0  0  0  0
   -6.5066   25.6735  -22.1231 O   0  0  0  0  0  0  0  0  0  0  0  0
   -4.5017   24.6102  -22.9245 C   0  0  0  0  0  0  0  0  0  0  0  0
   -3.6669   25.6719  -23.2187 O   0  0  0  0  0  0  0  0  0  0  0  0
   -5.5204   22.9078  -19.2246 H   0  0  0  0  0  0  0  0  0  0  0  0
   -6.7949   26.1752  -21.2962 H   0  0  0  0  0  0  0  0  0  0  0  0
   -4.1588   26.2683  -23.8551 H   0  0  0  0  0  0  0  0  0  0  0  0
    0.2410   22.1644  -27.0027 N   0  0  0  0  0  0  0  0  0  0  0  0
   -1.0869   22.4373  -26.5745 C   0  0  0  0  0  0  0  0  0  0  0  0
   -2.1188   22.5099  -27.4502 N   0  0  0  0  0  0  0  0  0  0  0  0
   -3.3658   22.7706  -27.0088 C   0  0  0  0  0  0  0  0  0  0  0  0
   -3.6477   22.9688  -25.7017 N   0  0  0  0  0  0  0  0  0  0  0  0
   -2.6644   22.9081  -24.7942 C   0  0  0  0  0  0  0  0  0  0  0  0
   -2.6699   23.0615  -23.4734 N   0  0  0  0  0  0  0  0  0  0  0  0
   -1.3991   22.8950  -23.0638 C   0  0  0  0  0  0  0  0  0  0  0  0
   -0.6212   22.6410  -24.1301 N   0  0  0  0  0  0  0  0  0  0  0  0
   -1.3857   22.6417  -25.2393 C   0  0  0  0  0  0  0  0  0  0  0  0
    1.0314   22.7054  -26.5867 H   0  0  0  0  0  0  0  0  0  0  0  0
    0.4882   21.4474  -27.7180 H   0  0  0  0  0  0  0  0  0  0  0  0
   -7.0243   22.0764  -22.3232 C   0  0  0  0  0  0  0  0  0  0  0  0
   -7.7692   21.2428  -21.5025 O   0  0  0  0  0  0  0  0  0  0  0  0
   -8.6930   21.5257  -21.3694 H   0  0  0  0  0  0  0  0  0  0  0  0
 13 14  1  0  0  0
 14 15  2  0  0  0
 15 16  1  0  0  0
 16 17  2  0  0  0
 17 18  1  0  0  0
 18 19  1  0  0  0
 19 20  1  0  0  0
 20 21  2  0  0  0
 21 22  1  0  0  0
 19  1  1  0  0  0
  1  2  1  0  0  0
  2  3  1  0  0  0
  3 25  1  0  0  0
 25 26  1  0  0  0
  3  4  1  0  0  0
  4  5  1  0  0  0
  4  6  1  0  0  0
  6  7  1  0  0  0
  6  8  1  0  0  0
  8  9  1  0  0  0
 22 14  1  0  0  0
  8  1  1  0  0  0
 22 18  2  0  0  0
 13 23  1  0  0  0
 13 24  1  0  0  0
 26 27  1  0  0  0
  5 10  1  0  0  0
  7 11  1  0  0  0
  9 12  1  0  0  0
M  END
> <minimizedAffinity>
-6.69481

> <CNNscore>
0.4097500443

> <CNNaffinity>
4.4462780952

> <CNN_VS>
1.8218626976

> <CNNaffinity_variance>
0.1309945732

$$$$
[H]OC([H])([H])[C@@]1([H])OC([H])(n2c([H])nc3c(N([H])[H])nc([H])nc32)[C@]([H])(O[H])[C@@]([H])(O[H])[C@]1([H])O[H]


 27 29  0  0  0  0  0  0  0  0999 V2000
   -5.5620   23.9153  -23.7592 C   0  0  0  0  0  0  0  0  0  0  0  0
   -6.9046   24.1410  -23.9410 O   0  0  0  0  0  0  0  0  0  0  0  0
   -7.6642   24.0733  -22.8130 C   0  0  0  0  0  0  0  0  0  0  0  0
   -6.9276   23.9328  -21.5333 C   0  0  0  0  0  0  0  0  0  0  0  0
   -6.7919   22.5680  -21.1877 O   0  0  0  0  0  0  0  0  0  0  0  0
   -5.6293   24.6606  -21.4610 C   0  0  0  0  0  0  0  0  0  0  0  0
   -5.6876   25.8000  -20.6653 O   0  0  0  0  0  0  0  0  0  0  0  0
   -5.0245   24.9533  -22.8184 C   0  0  0  0  0  0  0  0  0  0  0  0
   -3.6435   24.9878  -22.7692 O   0  0  0  0  0  0  0  0  0  0  0  0
   -7.7310   22.2422  -21.1009 H   0  0  0  0  0  0  0  0  0  0  0  0
   -5.6782   25.4740  -19.7101 H   0  0  0  0  0  0  0  0  0  0  0  0
   -3.3783   25.9259  -22.5407 H   0  0  0  0  0  0  0  0  0  0  0  0
   -2.0909   23.2361  -28.7039 N   0  0  0  0  0  0  0  0  0  0  0  0
   -2.3586   22.9747  -27.3323 C   0  0  0  0  0  0  0  0  0  0  0  0
   -1.5368   22.2043  -26.5787 N   0  0  0  0  0  0  0  0  0  0  0  0
   -1.8216   21.9773  -25.2805 C   0  0  0  0  0  0  0  0  0  0  0  0
   -2.9148   22.4929  -24.6752 N   0  0  0  0  0  0  0  0  0  0  0  0
   -3.7601   23.2613  -25.3745 C   0  0  0  0  0  0  0  0  0  0  0  0
   -4.8853   23.8795  -25.0281 N   0  0  0  0  0  0  0  0  0  0  0  0
   -5.3274   24.5142  -26.1290 C   0  0  0  0  0  0  0  0  0  0  0  0
   -4.4757   24.2845  -27.1431 N   0  0  0  0  0  0  0  0  0  0  0  0
   -3.4746   23.4976  -26.7037 C   0  0  0  0  0  0  0  0  0  0  0  0
   -2.8770   23.2063  -29.3907 H   0  0  0  0  0  0  0  0  0  0  0  0
   -1.1456   23.4602  -29.0820 H   0  0  0  0  0  0  0  0  0  0  0  0
   -8.6363   25.2565  -22.7285 C   0  0  0  0  0  0  0  0  0  0  0  0
   -8.2009   26.3122  -23.5155 O   0  0  0  0  0  0  0  0  0  0  0  0
   -8.8848   26.6920  -24.0978 H   0  0  0  0  0  0  0  0  0  0  0  0
 13 14  1  0  0  0
 14 15  2  0  0  0
 15 16  1  0  0  0
 16 17  2  0  0  0
 17 18  1  0  0  0
 18 19  1  0  0  0
 19 20  1  0  0  0
 20 21  2  0  0  0
 21 22  1  0  0  0
 19  1  1  0  0  0
  1  2  1  0  0  0
  2  3  1  0  0  0
  3 25  1  0  0  0
 25 26  1  0  0  0
  3  4  1  0  0  0
  4  5  1  0  0  0
  4  6  1  0  0  0
  6  7  1  0  0  0
  6  8  1  0  0  0
  8  9  1  0  0  0
 22 14  1  0  0  0
  8  1  1  0  0  0
 22 18  2  0  0  0
 13 23  1  0  0  0
 13 24  1  0  0  0
 26 27  1  0  0  0
  5 10  1  0  0  0
  7 11  1  0  0  0
  9 12  1  0  0  0
M  END
> <minimizedAffinity>
-6.95006

> <CNNscore>
0.3177061379

> <CNNaffinity>
4.3975801468

> <CNN_VS>
1.3971382380

> <CNNaffinity_variance>
0.3235023320

$$$$
[H]OC([H])([H])[C@@]1([H])OC([H])(n2c([H])nc3c(N([H])[H])nc([H])nc32)[C@]([H])(O[H])[C@@]([H])(O[H])[C@]1([H])O[H]


 27 29  0  0  0  0  0  0  0  0999 V2000
   -4.6940   23.2540  -24.2168 C   0  0  0  0  0  0  0  0  0  0  0  0
   -4.5271   24.2346  -23.2695 O   0  0  0  0  0  0  0  0  0  0  0  0
   -5.6589   24.6050  -22.6096 C   0  0  0  0  0  0  0  0  0  0  0  0
   -6.8714   23.7947  -22.8803 C   0  0  0  0  0  0  0  0  0  0  0  0
   -7.6282   24.3709  -23.9272 O   0  0  0  0  0  0  0  0  0  0  0  0
   -6.6315   22.3402  -23.0976 C   0  0  0  0  0  0  0  0  0  0  0  0
   -7.0216   21.5566  -22.0166 O   0  0  0  0  0  0  0  0  0  0  0  0
   -5.2195   22.0208  -23.5428 C   0  0  0  0  0  0  0  0  0  0  0  0
   -5.1754   20.8955  -24.3443 O   0  0  0  0  0  0  0  0  0  0  0  0
   -7.8689   25.2771  -23.5860 H   0  0  0  0  0  0  0  0  0  0  0  0
   -8.0286   21.5042  -22.0591 H   0  0  0  0  0  0  0  0  0  0  0  0
   -5.0752   20.1041  -23.7392 H   0  0  0  0  0  0  0  0  0  0  0  0
    0.8350   22.0886  -26.4601 N   0  0  0  0  0  0  0  0  0  0  0  0
   -0.0759   22.1322  -25.3694 C   0  0  0  0  0  0  0  0  0  0  0  0
    0.2917   21.7664  -24.1172 N   0  0  0  0  0  0  0  0  0  0  0  0
   -0.5986   21.8204  -23.1061 C   0  0  0  0  0  0  0  0  0  0  0  0
   -1.8742   22.2319  -23.2818 N   0  0  0  0  0  0  0  0  0  0  0  0
   -2.2894   22.6047  -24.4995 C   0  0  0  0  0  0  0  0  0  0  0  0
   -3.4669   23.0410  -24.9367 N   0  0  0  0  0  0  0  0  0  0  0  0
   -3.3244   23.2703  -26.2548 C   0  0  0  0  0  0  0  0  0  0  0  0
   -2.0652   22.9751  -26.6207 N   0  0  0  0  0  0  0  0  0  0  0  0
   -1.3832   22.5518  -25.5389 C   0  0  0  0  0  0  0  0  0  0  0  0
    0.5082   21.7228  -27.3820 H   0  0  0  0  0  0  0  0  0  0  0  0
    1.8276   22.4024  -26.4049 H   0  0  0  0  0  0  0  0  0  0  0  0
   -5.4153   24.6908  -21.0979 C   0  0  0  0  0  0  0  0  0  0  0  0
   -5.8691   25.8993  -20.5910 O   0  0  0  0  0  0  0  0  0  0  0  0
   -6.4237   25.8209  -19.7927 H   0  0  0  0  0  0  0  0  0  0  0  0
 13 14  1  0  0  0
 14 15  2  0  0  0
 15 16  1  0  0  0
 16 17  2  0  0  0
 17 18  1  0  0  0
 18 19  1  0  0  0
 19 20  1  0  0  0
 20 21  2  0  0  0
 21 22  1  0  0  0
 19  1  1  0  0  0
  1  2  1  0  0  0
  2  3  1  0  0  0
  3 25  1  0  0  0
 25 26  1  0  0  0
  3  4  1  0  0  0
  4  5  1  0  0  0
  4  6  1  0  0  0
  6  7  1  0  0  0
  6  8  1  0  0  0
  8  9  1  0  0  0
 22 14  1  0  0  0
  8  1  1  0  0  0
 22 18  2  0  0  0
 13 23  1  0  0  0
 13 24  1  0  0  0
 26 27  1  0  0  0
  5 10  1  0  0  0
  7 11  1  0  0  0
  9 12  1  0  0  0
M  END
> <minimizedAffinity>
-6.79996

> <CNNscore>
0.3124018610

> <CNNaffinity>
4.3761630058

> <CNN_VS>
1.3671214581

> <CNNaffinity_variance>
0.1318106949

$$$$
[H]OC([H])([H])[C@@]1([H])OC([H])(n2c([H])nc3c(N([H])[H])nc([H])nc32)[C@]([H])(O[H])[C@@]([H])(O[H])[C@]1([H])O[H]


 27 29  0  0  0  0  0  0  0  0999 V2000
   -5.1775   23.4345  -23.1586 C   0  0  0  0  0  0  0  0  0  0  0  0
   -6.3663   22.7978  -22.8977 O   0  0  0  0  0  0  0  0  0  0  0  0
   -6.7001   22.7048  -21.5810 C   0  0  0  0  0  0  0  0  0  0  0  0
   -5.8308   23.4398  -20.6301 C   0  0  0  0  0  0  0  0  0  0  0  0
   -4.8063   22.5955  -20.1421 O   0  0  0  0  0  0  0  0  0  0  0  0
   -5.2965   24.7390  -21.1273 C   0  0  0  0  0  0  0  0  0  0  0  0
   -5.9204   25.8405  -20.5509 O   0  0  0  0  0  0  0  0  0  0  0  0
   -5.2618   24.8393  -22.6382 C   0  0  0  0  0  0  0  0  0  0  0  0
   -4.2315   25.6502  -23.0759 O   0  0  0  0  0  0  0  0  0  0  0  0
   -5.2951   21.8551  -19.6855 H   0  0  0  0  0  0  0  0  0  0  0  0
   -5.5403   25.9205  -19.6194 H   0  0  0  0  0  0  0  0  0  0  0  0
   -4.5831   26.5872  -23.1044 H   0  0  0  0  0  0  0  0  0  0  0  0
   -3.0244   22.8609  -28.8150 N   0  0  0  0  0  0  0  0  0  0  0  0
   -2.8400   22.7993  -27.4067 C   0  0  0  0  0  0  0  0  0  0  0  0
   -1.6492   22.4579  -26.8568 N   0  0  0  0  0  0  0  0  0  0  0  0
   -1.5100   22.4097  -25.5165 C   0  0  0  0  0  0  0  0  0  0  0  0
   -2.5250   22.6921  -24.6696 N   0  0  0  0  0  0  0  0  0  0  0  0
   -3.7230   23.0351  -25.1607 C   0  0  0  0  0  0  0  0  0  0  0  0
   -4.8656   23.3552  -24.5606 N   0  0  0  0  0  0  0  0  0  0  0  0
   -5.7524   23.6132  -25.5392 C   0  0  0  0  0  0  0  0  0  0  0  0
   -5.1536   23.4512  -26.7316 N   0  0  0  0  0  0  0  0  0  0  0  0
   -3.8723   23.0864  -26.5316 C   0  0  0  0  0  0  0  0  0  0  0  0
   -3.9009   22.4747  -29.2310 H   0  0  0  0  0  0  0  0  0  0  0  0
   -2.3325   23.2728  -29.4771 H   0  0  0  0  0  0  0  0  0  0  0  0
   -8.1666   23.0913  -21.3531 C   0  0  0  0  0  0  0  0  0  0  0  0
   -8.3109   23.8169  -20.1801 O   0  0  0  0  0  0  0  0  0  0  0  0
   -8.8360   24.6337  -20.2712 H   0  0  0  0  0  0  0  0  0  0  0  0
 13 14  1  0  0  0
 14 15  2  0  0  0
 15 16  1  0  0  0
 16 17  2  0  0  0
 17 18  1  0  0  0
 18 19  1  0  0  0
 19 20  1  0  0  0
 20 21  2  0  0  0
 21 22  1  0  0  0
 19  1  1  0  0  0
  1  2  1  0  0  0
  2  3  1  0  0  0
  3 25  1  0  0  0
 25 26  1  0  0  0
  3  4  1  0  0  0
  4  5  1  0  0  0
  4  6  1  0  0  0
  6  7  1  0  0  0
  6  8  1  0  0  0
  8  9  1  0  0  0
 22 14  1  0  0  0
  8  1  1  0  0  0
 22 18  2  0  0  0
 13 23  1  0  0  0
 13 24  1  0  0  0
 26 27  1  0  0  0
  5 10  1  0  0  0
  7 11  1  0  0  0
  9 12  1  0  0  0
M  END
> <minimizedAffinity>
-6.34198

> <CNNscore>
0.2952884734

> <CNNaffinity>
4.2768726349

> <CNN_VS>
1.2629112005

> <CNNaffinity_variance>
0.3197425008

$$$$
[H]c1c([H])c(N([H])C(=O)N([H])c2c([H])c([H])c(N3C([H])([H])C([H])([H])OC([H])([H])C3([H])[H])c([H])c2[H])c([H])c([H])c1-c1nc(N2C([H])([H])C([H])([H])OC([H])([H])C2([H])[H])nc(N2C([H])([H])C([H])([H])OC([H])([H])[C@@]2([H])C([H])([H])[H])n1


 43 48  0  0  0  0  0  0  0  0999 V2000
    2.7922   20.6993  -20.6504 C   0  0  0  0  0  0  0  0  0  0  0  0
    1.4551   21.0326  -20.5933 C   0  0  0  0  0  0  0  0  0  0  0  0
    0.7244   21.3184  -21.7000 C   0  0  0  0  0  0  0  0  0  0  0  0
    1.3549   21.2760  -22.9851 C   0  0  0  0  0  0  0  0  0  0  0  0
    2.7043   20.9331  -23.0403 C   0  0  0  0  0  0  0  0  0  0  0  0
    3.3912   20.6546  -21.8715 C   0  0  0  0  0  0  0  0  0  0  0  0
    4.5601   18.9895  -17.8978 C   0  0  0  0  0  0  0  0  0  0  0  0
    5.0620   20.0822  -17.2895 N   0  0  0  0  0  0  0  0  0  0  0  0
    4.8418   21.3425  -17.6986 C   0  0  0  0  0  0  0  0  0  0  0  0
    4.0676   21.4733  -18.7854 N   0  0  0  0  0  0  0  0  0  0  0  0
    3.5314   20.4330  -19.4476 C   0  0  0  0  0  0  0  0  0  0  0  0
    3.7908   19.1983  -18.9840 N   0  0  0  0  0  0  0  0  0  0  0  0
    2.8870   17.6055  -15.9362 C   0  0  0  0  0  0  0  0  0  0  0  0
    4.2004   17.0331  -16.3189 C   0  0  0  0  0  0  0  0  0  0  0  0
    5.2224   17.1459  -15.1864 C   0  0  0  0  0  0  0  0  0  0  0  0
    6.5109   17.0388  -15.7045 O   0  0  0  0  0  0  0  0  0  0  0  0
    6.6046   16.2342  -16.8330 C   0  0  0  0  0  0  0  0  0  0  0  0
    5.9063   16.8463  -18.0546 C   0  0  0  0  0  0  0  0  0  0  0  0
    4.8499   17.6786  -17.4431 N   0  0  0  0  0  0  0  0  0  0  0  0
    5.3659   22.4836  -17.0579 N   0  0  0  0  0  0  0  0  0  0  0  0
    4.6452   23.3443  -16.1369 C   0  0  0  0  0  0  0  0  0  0  0  0
    4.6099   24.7150  -16.8293 C   0  0  0  0  0  0  0  0  0  0  0  0
    5.8565   25.1102  -17.2353 O   0  0  0  0  0  0  0  0  0  0  0  0
    6.5028   24.2506  -18.1136 C   0  0  0  0  0  0  0  0  0  0  0  0
    6.7454   22.9434  -17.3224 C   0  0  0  0  0  0  0  0  0  0  0  0
    0.6930   21.6599  -24.0483 N   0  0  0  0  0  0  0  0  0  0  0  0
    0.0154   22.0583  -25.1557 C   0  0  0  0  0  0  0  0  0  0  0  0
    0.4881   22.3157  -26.2872 O   0  0  0  0  0  0  0  0  0  0  0  0
   -1.4186   22.2141  -25.0436 N   0  0  0  0  0  0  0  0  0  0  0  0
    1.8712   21.6334  -24.7855 H   0  0  0  0  0  0  0  0  0  0  0  0
   -1.8504   21.9921  -24.1054 H   0  0  0  0  0  0  0  0  0  0  0  0
   -2.1810   22.6519  -26.1363 C   0  0  0  0  0  0  0  0  0  0  0  0
   -3.1312   23.6164  -25.9101 C   0  0  0  0  0  0  0  0  0  0  0  0
   -3.8540   24.1185  -26.9763 C   0  0  0  0  0  0  0  0  0  0  0  0
   -3.6400   23.6667  -28.2890 C   0  0  0  0  0  0  0  0  0  0  0  0
   -2.6914   22.7087  -28.4771 C   0  0  0  0  0  0  0  0  0  0  0  0
   -1.9497   22.1900  -27.3932 C   0  0  0  0  0  0  0  0  0  0  0  0
   -4.3926   24.2424  -29.3209 N   0  0  0  0  0  0  0  0  0  0  0  0
   -5.1935   23.4333  -30.2078 C   0  0  0  0  0  0  0  0  0  0  0  0
   -6.2222   24.3712  -30.8562 C   0  0  0  0  0  0  0  0  0  0  0  0
   -5.6416   25.3782  -31.5780 O   0  0  0  0  0  0  0  0  0  0  0  0
   -4.5591   25.9959  -31.0079 C   0  0  0  0  0  0  0  0  0  0  0  0
   -4.4202   25.6634  -29.5328 C   0  0  0  0  0  0  0  0  0  0  0  0
 13 14  1  0  0  0
 14 15  1  0  0  0
 15 16  1  0  0  0
 16 17  1  0  0  0
 17 18  1  0  0  0
 18 19  1  0  0  0
 19  7  1  0  0  0
  7  8  2  0  0  0
  8  9  1  0  0  0
  9 10  2  0  0  0
 10 11  1  0  0  0
 11 12  2  0  0  0
 11  1  1  0  0  0
  1  2  2  0  0  0
  2  3  1  0  0  0
  3  4  2  0  0  0
  4 26  1  0  0  0
 26 27  1  0  0  0
 27 28  2  0  0  0
 27 29  1  0  0  0
 29 32  1  0  0  0
 32 33  2  0  0  0
 33 34  1  0  0  0
 34 35  2  0  0  0
 35 36  1  0  0  0
 36 37  2  0  0  0
 35 38  1  0  0  0
 38 39  1  0  0  0
 39 40  1  0  0  0
 40 41  1  0  0  0
 41 42  1  0  0  0
 42 43  1  0  0  0
  4  5  1  0  0  0
  5  6  2  0  0  0
  9 20  1  0  0  0
 20 21  1  0  0  0
 21 22  1  0  0  0
 22 23  1  0  0  0
 23 24  1  0  0  0
 24 25  1  0  0  0
 19 14  1  0  0  0
 12  7  1  0  0  0
  6  1  1  0  0  0
 25 20  1  0  0  0
 37 32  1  0  0  0
 43 38  1  0  0  0
 26 30  1  0  0  0
 29 31  1  0  0  0
M  END
> <minimizedAffinity>
-8.43207

> <CNNscore>
0.4601104558

> <CNNaffinity>
6.4557762146

> <CNN_VS>
2.9703700542

> <CNNaffinity_variance>
0.2585059702

$$$$
[H]c1c([H])c(N([H])C(=O)N([H])c2c([H])c([H])c(N3C([H])([H])C([H])([H])OC([H])([H])C3([H])[H])c([H])c2[H])c([H])c([H])c1-c1nc(N2C([H])([H])C([H])([H])OC([H])([H])C2([H])[H])nc(N2C([H])([H])C([H])([H])OC([H])([H])[C@@]2([H])C([H])([H])[H])n1


 43 48  0  0  0  0  0  0  0  0999 V2000
   -7.6269   22.5767  -15.3211 C   0  0  0  0  0  0  0  0  0  0  0  0
   -8.2122   21.9197  -16.3832 C   0  0  0  0  0  0  0  0  0  0  0  0
   -7.7264   21.9953  -17.6477 C   0  0  0  0  0  0  0  0  0  0  0  0
   -6.5599   22.7855  -17.9032 C   0  0  0  0  0  0  0  0  0  0  0  0
   -5.9672   23.4433  -16.8272 C   0  0  0  0  0  0  0  0  0  0  0  0
   -6.5159   23.3246  -15.5621 C   0  0  0  0  0  0  0  0  0  0  0  0
   -8.8814   21.2962  -12.0943 C   0  0  0  0  0  0  0  0  0  0  0  0
   -9.0992   22.4825  -11.4933 N   0  0  0  0  0  0  0  0  0  0  0  0
   -8.8912   23.6742  -12.0770 C   0  0  0  0  0  0  0  0  0  0  0  0
   -8.4378   23.6319  -13.3380 N   0  0  0  0  0  0  0  0  0  0  0  0
   -8.1952   22.4895  -14.0045 C   0  0  0  0  0  0  0  0  0  0  0  0
   -8.4259   21.3317  -13.3618 N   0  0  0  0  0  0  0  0  0  0  0  0
   -6.7349   19.9141  -10.6643 C   0  0  0  0  0  0  0  0  0  0  0  0
   -8.0283   19.2264  -10.8949 C   0  0  0  0  0  0  0  0  0  0  0  0
   -7.9001   18.1028  -11.9248 C   0  0  0  0  0  0  0  0  0  0  0  0
   -9.1550   17.8002  -12.4482 O   0  0  0  0  0  0  0  0  0  0  0  0
  -10.2043   17.9992  -11.5598 C   0  0  0  0  0  0  0  0  0  0  0  0
  -10.4316   19.4819  -11.2366 C   0  0  0  0  0  0  0  0  0  0  0  0
   -9.0871   20.0657  -11.4214 N   0  0  0  0  0  0  0  0  0  0  0  0
   -9.1231   24.9134  -11.4463 N   0  0  0  0  0  0  0  0  0  0  0  0
   -8.6264   26.2007  -11.8988 C   0  0  0  0  0  0  0  0  0  0  0  0
   -7.7085   26.6854  -10.7666 C   0  0  0  0  0  0  0  0  0  0  0  0
   -8.3328   26.6302   -9.5491 O   0  0  0  0  0  0  0  0  0  0  0  0
   -8.7905   25.3768   -9.1650 C   0  0  0  0  0  0  0  0  0  0  0  0
   -9.8900   24.9984  -10.1857 C   0  0  0  0  0  0  0  0  0  0  0  0
   -6.1479   22.9596  -19.1344 N   0  0  0  0  0  0  0  0  0  0  0  0
   -5.7150   23.1475  -20.4077 C   0  0  0  0  0  0  0  0  0  0  0  0
   -4.8867   23.9955  -20.8140 O   0  0  0  0  0  0  0  0  0  0  0  0
   -6.2583   22.2848  -21.4342 N   0  0  0  0  0  0  0  0  0  0  0  0
   -5.2710   23.9453  -18.6965 H   0  0  0  0  0  0  0  0  0  0  0  0
   -6.9500   21.5498  -21.1222 H   0  0  0  0  0  0  0  0  0  0  0  0
   -5.8816   22.4399  -22.7762 C   0  0  0  0  0  0  0  0  0  0  0  0
   -6.6118   23.3060  -23.5514 C   0  0  0  0  0  0  0  0  0  0  0  0
   -6.2271   23.5331  -24.8596 C   0  0  0  0  0  0  0  0  0  0  0  0
   -5.1043   22.8997  -25.4175 C   0  0  0  0  0  0  0  0  0  0  0  0
   -4.4040   22.0461  -24.6214 C   0  0  0  0  0  0  0  0  0  0  0  0
   -4.7913   21.8078  -23.2845 C   0  0  0  0  0  0  0  0  0  0  0  0
   -4.7611   23.2010  -26.7419 N   0  0  0  0  0  0  0  0  0  0  0  0
   -3.4110   23.0355  -27.2241 C   0  0  0  0  0  0  0  0  0  0  0  0
   -3.4917   22.9742  -28.7565 C   0  0  0  0  0  0  0  0  0  0  0  0
   -4.0225   24.1093  -29.3060 O   0  0  0  0  0  0  0  0  0  0  0  0
   -5.1208   24.6381  -28.6794 C   0  0  0  0  0  0  0  0  0  0  0  0
   -5.7374   23.6681  -27.6872 C   0  0  0  0  0  0  0  0  0  0  0  0
 13 14  1  0  0  0
 14 15  1  0  0  0
 15 16  1  0  0  0
 16 17  1  0  0  0
 17 18  1  0  0  0
 18 19  1  0  0  0
 19  7  1  0  0  0
  7  8  2  0  0  0
  8  9  1  0  0  0
  9 10  2  0  0  0
 10 11  1  0  0  0
 11 12  2  0  0  0
 11  1  1  0  0  0
  1  2  2  0  0  0
  2  3  1  0  0  0
  3  4  2  0  0  0
  4 26  1  0  0  0
 26 27  1  0  0  0
 27 28  2  0  0  0
 27 29  1  0  0  0
 29 32  1  0  0  0
 32 33  2  0  0  0
 33 34  1  0  0  0
 34 35  2  0  0  0
 35 36  1  0  0  0
 36 37  2  0  0  0
 35 38  1  0  0  0
 38 39  1  0  0  0
 39 40  1  0  0  0
 40 41  1  0  0  0
 41 42  1  0  0  0
 42 43  1  0  0  0
  4  5  1  0  0  0
  5  6  2  0  0  0
  9 20  1  0  0  0
 20 21  1  0  0  0
 21 22  1  0  0  0
 22 23  1  0  0  0
 23 24  1  0  0  0
 24 25  1  0  0  0
 19 14  1  0  0  0
 12  7  1  0  0  0
  6  1  1  0  0  0
 25 20  1  0  0  0
 37 32  1  0  0  0
 43 38  1  0  0  0
 26 30  1  0  0  0
 29 31  1  0  0  0
M  END
> <minimizedAffinity>
-6.53246

> <CNNscore>
0.4008767009

> <CNNaffinity>
5.7811808586

> <CNN_VS>
2.3175406456

> <CNNaffinity_variance>
0.3581931889

$$$$
[H]c1c([H])c(N([H])C(=O)N([H])c2c([H])c([H])c(N3C([H])([H])C([H])([H])OC([H])([H])C3([H])[H])c([H])c2[H])c([H])c([H])c1-c1nc(N2C([H])([H])C([H])([H])OC([H])([H])C2([H])[H])nc(N2C([H])([H])C([H])([H])OC([H])([H])[C@@]2([H])C([H])([H])[H])n1


 43 48  0  0  0  0  0  0  0  0999 V2000
   -6.0060   23.5776  -16.0007 C   0  0  0  0  0  0  0  0  0  0  0  0
   -5.5725   24.7520  -16.5795 C   0  0  0  0  0  0  0  0  0  0  0  0
   -5.6458   24.9801  -17.9149 C   0  0  0  0  0  0  0  0  0  0  0  0
   -6.1930   23.9690  -18.7686 C   0  0  0  0  0  0  0  0  0  0  0  0
   -6.6357   22.7859  -18.1803 C   0  0  0  0  0  0  0  0  0  0  0  0
   -6.5300   22.6177  -16.8107 C   0  0  0  0  0  0  0  0  0  0  0  0
   -6.7341   23.3301  -12.3904 C   0  0  0  0  0  0  0  0  0  0  0  0
   -5.5673   22.7801  -12.0007 N   0  0  0  0  0  0  0  0  0  0  0  0
   -4.5462   22.5085  -12.8300 C   0  0  0  0  0  0  0  0  0  0  0  0
   -4.7455   22.8213  -14.1184 N   0  0  0  0  0  0  0  0  0  0  0  0
   -5.8809   23.3706  -14.5846 C   0  0  0  0  0  0  0  0  0  0  0  0
   -6.8628   23.6177  -13.7004 N   0  0  0  0  0  0  0  0  0  0  0  0
   -7.0605   25.8825  -10.9971 C   0  0  0  0  0  0  0  0  0  0  0  0
   -7.8794   24.7135  -10.5947 C   0  0  0  0  0  0  0  0  0  0  0  0
   -7.4551   24.1631   -9.2320 C   0  0  0  0  0  0  0  0  0  0  0  0
   -7.8968   22.8489   -9.0983 O   0  0  0  0  0  0  0  0  0  0  0  0
   -9.0785   22.5749   -9.7752 C   0  0  0  0  0  0  0  0  0  0  0  0
   -8.9091   22.6158  -11.2998 C   0  0  0  0  0  0  0  0  0  0  0  0
   -7.7930   23.5671  -11.4783 N   0  0  0  0  0  0  0  0  0  0  0  0
   -3.3255   21.9359  -12.4183 N   0  0  0  0  0  0  0  0  0  0  0  0
   -2.1130   21.8627  -13.2139 C   0  0  0  0  0  0  0  0  0  0  0  0
   -1.8544   20.3594  -13.3946 C   0  0  0  0  0  0  0  0  0  0  0  0
   -1.8786   19.6933  -12.1984 O   0  0  0  0  0  0  0  0  0  0  0  0
   -3.0602   19.7977  -11.4766 C   0  0  0  0  0  0  0  0  0  0  0  0
   -3.1907   21.2914  -11.0951 C   0  0  0  0  0  0  0  0  0  0  0  0
   -6.1648   24.1288  -20.0685 N   0  0  0  0  0  0  0  0  0  0  0  0
   -6.1450   24.2973  -21.4158 C   0  0  0  0  0  0  0  0  0  0  0  0
   -7.0832   24.6871  -22.1491 O   0  0  0  0  0  0  0  0  0  0  0  0
   -4.9120   23.9969  -22.1104 N   0  0  0  0  0  0  0  0  0  0  0  0
   -7.4662   24.6160  -20.0320 H   0  0  0  0  0  0  0  0  0  0  0  0
   -4.0970   23.6780  -21.5187 H   0  0  0  0  0  0  0  0  0  0  0  0
   -4.8255   24.1177  -23.5050 C   0  0  0  0  0  0  0  0  0  0  0  0
   -5.2487   23.0580  -24.2680 C   0  0  0  0  0  0  0  0  0  0  0  0
   -5.2399   23.1691  -25.6460 C   0  0  0  0  0  0  0  0  0  0  0  0
   -4.8089   24.3421  -26.2874 C   0  0  0  0  0  0  0  0  0  0  0  0
   -4.3947   25.3728  -25.5005 C   0  0  0  0  0  0  0  0  0  0  0  0
   -4.3995   25.2666  -24.0925 C   0  0  0  0  0  0  0  0  0  0  0  0
   -4.8544   24.3893  -27.6868 N   0  0  0  0  0  0  0  0  0  0  0  0
   -5.1613   25.6131  -28.3874 C   0  0  0  0  0  0  0  0  0  0  0  0
   -4.6554   25.4390  -29.8269 C   0  0  0  0  0  0  0  0  0  0  0  0
   -5.2537   24.3942  -30.4770 O   0  0  0  0  0  0  0  0  0  0  0  0
   -5.4072   23.2346  -29.7627 C   0  0  0  0  0  0  0  0  0  0  0  0
   -4.5781   23.2307  -28.4906 C   0  0  0  0  0  0  0  0  0  0  0  0
 13 14  1  0  0  0
 14 15  1  0  0  0
 15 16  1  0  0  0
 16 17  1  0  0  0
 17 18  1  0  0  0
 18 19  1  0  0  0
 19  7  1  0  0  0
  7  8  2  0  0  0
  8  9  1  0  0  0
  9 10  2  0  0  0
 10 11  1  0  0  0
 11 12  2  0  0  0
 11  1  1  0  0  0
  1  2  2  0  0  0
  2  3  1  0  0  0
  3  4  2  0  0  0
  4 26  1  0  0  0
 26 27  1  0  0  0
 27 28  2  0  0  0
 27 29  1  0  0  0
 29 32  1  0  0  0
 32 33  2  0  0  0
 33 34  1  0  0  0
 34 35  2  0  0  0
 35 36  1  0  0  0
 36 37  2  0  0  0
 35 38  1  0  0  0
 38 39  1  0  0  0
 39 40  1  0  0  0
 40 41  1  0  0  0
 41 42  1  0  0  0
 42 43  1  0  0  0
  4  5  1  0  0  0
  5  6  2  0  0  0
  9 20  1  0  0  0
 20 21  1  0  0  0
 21 22  1  0  0  0
 22 23  1  0  0  0
 23 24  1  0  0  0
 24 25  1  0  0  0
 19 14  1  0  0  0
 12  7  1  0  0  0
  6  1  1  0  0  0
 25 20  1  0  0  0
 37 32  1  0  0  0
 43 38  1  0  0  0
 26 30  1  0  0  0
 29 31  1  0  0  0
M  END
> <minimizedAffinity>
-6.43619

> <CNNscore>
0.3351679742

> <CNNaffinity>
5.7076463699

> <CNN_VS>
1.9130202532

> <CNNaffinity_variance>
0.2992799580

$$$$
[H]c1c([H])c(N([H])C(=O)N([H])c2c([H])c([H])c(N3C([H])([H])C([H])([H])OC([H])([H])C3([H])[H])c([H])c2[H])c([H])c([H])c1-c1nc(N2C([H])([H])C([H])([H])OC([H])([H])C2([H])[H])nc(N2C([H])([H])C([H])([H])OC([H])([H])[C@@]2([H])C([H])([H])[H])n1


 43 48  0  0  0  0  0  0  0  0999 V2000
   -5.8273   22.3356  -17.1648 C   0  0  0  0  0  0  0  0  0  0  0  0
   -5.8471   21.4100  -18.1870 C   0  0  0  0  0  0  0  0  0  0  0  0
   -5.7423   21.7603  -19.4934 C   0  0  0  0  0  0  0  0  0  0  0  0
   -5.6051   23.1434  -19.8383 C   0  0  0  0  0  0  0  0  0  0  0  0
   -5.5793   24.0758  -18.8032 C   0  0  0  0  0  0  0  0  0  0  0  0
   -5.6928   23.6499  -17.4912 C   0  0  0  0  0  0  0  0  0  0  0  0
   -7.2497   21.3045  -13.9184 C   0  0  0  0  0  0  0  0  0  0  0  0
   -6.0967   20.9724  -13.3051 N   0  0  0  0  0  0  0  0  0  0  0  0
   -4.8821   21.0869  -13.8671 C   0  0  0  0  0  0  0  0  0  0  0  0
   -4.8645   21.5665  -15.1190 N   0  0  0  0  0  0  0  0  0  0  0  0
   -5.9708   21.9184  -15.7976 C   0  0  0  0  0  0  0  0  0  0  0  0
   -7.1542   21.7796  -15.1755 N   0  0  0  0  0  0  0  0  0  0  0  0
   -8.5886   23.4706  -12.4770 C   0  0  0  0  0  0  0  0  0  0  0  0
   -9.1122   22.0866  -12.3792 C   0  0  0  0  0  0  0  0  0  0  0  0
   -8.8673   21.4816  -10.9959 C   0  0  0  0  0  0  0  0  0  0  0  0
   -8.9379   20.0925  -11.0719 O   0  0  0  0  0  0  0  0  0  0  0  0
   -9.8103   19.6202  -12.0443 C   0  0  0  0  0  0  0  0  0  0  0  0
   -9.3212   19.9126  -13.4691 C   0  0  0  0  0  0  0  0  0  0  0  0
   -8.5091   21.1338  -13.2907 N   0  0  0  0  0  0  0  0  0  0  0  0
   -3.6775   20.7416  -13.2213 N   0  0  0  0  0  0  0  0  0  0  0  0
   -3.4855   19.6057  -12.3373 C   0  0  0  0  0  0  0  0  0  0  0  0
   -3.1213   20.2246  -10.9794 C   0  0  0  0  0  0  0  0  0  0  0  0
   -2.1002   21.1301  -11.0924 O   0  0  0  0  0  0  0  0  0  0  0  0
   -2.3344   22.1953  -11.9516 C   0  0  0  0  0  0  0  0  0  0  0  0
   -2.4666   21.5769  -13.3637 C   0  0  0  0  0  0  0  0  0  0  0  0
   -5.6180   23.5051  -21.0972 N   0  0  0  0  0  0  0  0  0  0  0  0
   -5.6353   23.8889  -22.3997 C   0  0  0  0  0  0  0  0  0  0  0  0
   -6.0330   24.9812  -22.8674 O   0  0  0  0  0  0  0  0  0  0  0  0
   -5.1463   22.9464  -23.3823 N   0  0  0  0  0  0  0  0  0  0  0  0
   -6.0870   24.7601  -20.7268 H   0  0  0  0  0  0  0  0  0  0  0  0
   -4.7913   22.0201  -23.0191 H   0  0  0  0  0  0  0  0  0  0  0  0
   -5.1621   23.2607  -24.7491 C   0  0  0  0  0  0  0  0  0  0  0  0
   -6.3658   23.2032  -25.4066 C   0  0  0  0  0  0  0  0  0  0  0  0
   -6.4288   23.5713  -26.7376 C   0  0  0  0  0  0  0  0  0  0  0  0
   -5.2900   24.0048  -27.4365 C   0  0  0  0  0  0  0  0  0  0  0  0
   -4.1128   24.0483  -26.7544 C   0  0  0  0  0  0  0  0  0  0  0  0
   -4.0399   23.6728  -25.3952 C   0  0  0  0  0  0  0  0  0  0  0  0
   -5.4380   24.3870  -28.7761 N   0  0  0  0  0  0  0  0  0  0  0  0
   -5.2694   23.4385  -29.8507 C   0  0  0  0  0  0  0  0  0  0  0  0
   -5.9616   24.0375  -31.0838 C   0  0  0  0  0  0  0  0  0  0  0  0
   -5.4246   25.2374  -31.4634 O   0  0  0  0  0  0  0  0  0  0  0  0
   -5.1375   26.1257  -30.4599 C   0  0  0  0  0  0  0  0  0  0  0  0
   -5.7842   25.7324  -29.1436 C   0  0  0  0  0  0  0  0  0  0  0  0
 13 14  1  0  0  0
 14 15  1  0  0  0
 15 16  1  0  0  0
 16 17  1  0  0  0
 17 18  1  0  0  0
 18 19  1  0  0  0
 19  7  1  0  0  0
  7  8  2  0  0  0
  8  9  1  0  0  0
  9 10  2  0  0  0
 10 11  1  0  0  0
 11 12  2  0  0  0
 11  1  1  0  0  0
  1  2  2  0  0  0
  2  3  1  0  0  0
  3  4  2  0  0  0
  4 26  1  0  0  0
 26 27  1  0  0  0
 27 28  2  0  0  0
 27 29  1  0  0  0
 29 32  1  0  0  0
 32 33  2  0  0  0
 33 34  1  0  0  0
 34 35  2  0  0  0
 35 36  1  0  0  0
 36 37  2  0  0  0
 35 38  1  0  0  0
 38 39  1  0  0  0
 39 40  1  0  0  0
 40 41  1  0  0  0
 41 42  1  0  0  0
 42 43  1  0  0  0
  4  5  1  0  0  0
  5  6  2  0  0  0
  9 20  1  0  0  0
 20 21  1  0  0  0
 21 22  1  0  0  0
 22 23  1  0  0  0
 23 24  1  0  0  0
 24 25  1  0  0  0
 19 14  1  0  0  0
 12  7  1  0  0  0
  6  1  1  0  0  0
 25 20  1  0  0  0
 37 32  1  0  0  0
 43 38  1  0  0  0
 26 30  1  0  0  0
 29 31  1  0  0  0
M  END
> <minimizedAffinity>
-6.54275

> <CNNscore>
0.3294094205

> <CNNaffinity>
5.6973328590

> <CNN_VS>
1.8767551184

> <CNNaffinity_variance>
0.2921760082

$$$$
[H]c1c([H])c(N([H])C(=O)N([H])c2c([H])c([H])c(N3C([H])([H])C([H])([H])OC([H])([H])C3([H])[H])c([H])c2[H])c([H])c([H])c1-c1nc(N2C([H])([H])C([H])([H])OC([H])([H])C2([H])[H])nc(N2C([H])([H])C([H])([H])OC([H])([H])[C@@]2([H])C([H])([H])[H])n1


 43 48  0  0  0  0  0  0  0  0999 V2000
   -6.2492   22.9297  -17.1519 C   0  0  0  0  0  0  0  0  0  0  0  0
   -7.3437   23.3184  -17.8957 C   0  0  0  0  0  0  0  0  0  0  0  0
   -7.2754   23.5532  -19.2302 C   0  0  0  0  0  0  0  0  0  0  0  0
   -6.0226   23.3946  -19.9054 C   0  0  0  0  0  0  0  0  0  0  0  0
   -4.9199   22.9960  -19.1525 C   0  0  0  0  0  0  0  0  0  0  0  0
   -5.0591   22.7748  -17.7934 C   0  0  0  0  0  0  0  0  0  0  0  0
   -7.0379   23.3614  -13.5718 C   0  0  0  0  0  0  0  0  0  0  0  0
   -6.6759   22.1337  -13.1503 N   0  0  0  0  0  0  0  0  0  0  0  0
   -6.1659   21.1812  -13.9483 C   0  0  0  0  0  0  0  0  0  0  0  0
   -6.0259   21.5182  -15.2384 N   0  0  0  0  0  0  0  0  0  0  0  0
   -6.3647   22.7209  -15.7352 C   0  0  0  0  0  0  0  0  0  0  0  0
   -6.8684   23.6287  -14.8814 N   0  0  0  0  0  0  0  0  0  0  0  0
   -5.4028   24.9937  -11.7760 C   0  0  0  0  0  0  0  0  0  0  0  0
   -6.8784   24.9898  -11.6294 C   0  0  0  0  0  0  0  0  0  0  0  0
   -7.3226   24.2580  -10.3617 C   0  0  0  0  0  0  0  0  0  0  0  0
   -8.6565   23.8756  -10.4835 O   0  0  0  0  0  0  0  0  0  0  0  0
   -9.4243   24.7319  -11.2626 C   0  0  0  0  0  0  0  0  0  0  0  0
   -9.0294   24.6958  -12.7449 C   0  0  0  0  0  0  0  0  0  0  0  0
   -7.6016   24.3200  -12.6928 N   0  0  0  0  0  0  0  0  0  0  0  0
   -5.7853   19.8988  -13.5034 N   0  0  0  0  0  0  0  0  0  0  0  0
   -6.4200   18.6483  -13.8800 C   0  0  0  0  0  0  0  0  0  0  0  0
   -6.9754   18.0804  -12.5653 C   0  0  0  0  0  0  0  0  0  0  0  0
   -6.0204   18.0458  -11.5845 O   0  0  0  0  0  0  0  0  0  0  0  0
   -5.4439   19.2676  -11.2641 C   0  0  0  0  0  0  0  0  0  0  0  0
   -4.6844   19.7213  -12.5334 C   0  0  0  0  0  0  0  0  0  0  0  0
   -5.9165   23.7275  -21.1679 N   0  0  0  0  0  0  0  0  0  0  0  0
   -5.8072   24.0823  -22.4742 C   0  0  0  0  0  0  0  0  0  0  0  0
   -5.8187   25.2400  -22.9532 O   0  0  0  0  0  0  0  0  0  0  0  0
   -5.6625   23.0209  -23.4466 N   0  0  0  0  0  0  0  0  0  0  0  0
   -5.9394   25.0708  -20.8107 H   0  0  0  0  0  0  0  0  0  0  0  0
   -5.6360   22.0330  -23.0737 H   0  0  0  0  0  0  0  0  0  0  0  0
   -5.5751   23.3090  -24.8164 C   0  0  0  0  0  0  0  0  0  0  0  0
   -6.7454   23.4080  -25.5270 C   0  0  0  0  0  0  0  0  0  0  0  0
   -6.6988   23.7565  -26.8640 C   0  0  0  0  0  0  0  0  0  0  0  0
   -5.4814   24.0138  -27.5158 C   0  0  0  0  0  0  0  0  0  0  0  0
   -4.3402   23.9052  -26.7818 C   0  0  0  0  0  0  0  0  0  0  0  0
   -4.3794   23.5485  -25.4161 C   0  0  0  0  0  0  0  0  0  0  0  0
   -5.5164   24.3881  -28.8654 N   0  0  0  0  0  0  0  0  0  0  0  0
   -5.4165   23.4074  -29.9195 C   0  0  0  0  0  0  0  0  0  0  0  0
   -5.9688   24.0662  -31.1920 C   0  0  0  0  0  0  0  0  0  0  0  0
   -5.2687   25.1833  -31.5582 O   0  0  0  0  0  0  0  0  0  0  0  0
   -4.9212   26.0464  -30.5518 C   0  0  0  0  0  0  0  0  0  0  0  0
   -5.6740   25.7594  -29.2647 C   0  0  0  0  0  0  0  0  0  0  0  0
 13 14  1  0  0  0
 14 15  1  0  0  0
 15 16  1  0  0  0
 16 17  1  0  0  0
 17 18  1  0  0  0
 18 19  1  0  0  0
 19  7  1  0  0  0
  7  8  2  0  0  0
  8  9  1  0  0  0
  9 10  2  0  0  0
 10 11  1  0  0  0
 11 12  2  0  0  0
 11  1  1  0  0  0
  1  2  2  0  0  0
  2  3  1  0  0  0
  3  4  2  0  0  0
  4 26  1  0  0  0
 26 27  1  0  0  0
 27 28  2  0  0  0
 27 29  1  0  0  0
 29 32  1  0  0  0
 32 33  2  0  0  0
 33 34  1  0  0  0
 34 35  2  0  0  0
 35 36  1  0  0  0
 36 37  2  0  0  0
 35 38  1  0  0  0
 38 39  1  0  0  0
 39 40  1  0  0  0
 40 41  1  0  0  0
 41 42  1  0  0  0
 42 43  1  0  0  0
  4  5  1  0  0  0
  5  6  2  0  0  0
  9 20  1  0  0  0
 20 21  1  0  0  0
 21 22  1  0  0  0
 22 23  1  0  0  0
 23 24  1  0  0  0
 24 25  1  0  0  0
 19 14  1  0  0  0
 12  7  1  0  0  0
  6  1  1  0  0  0
 25 20  1  0  0  0
 37 32  1  0  0  0
 43 38  1  0  0  0
 26 30  1  0  0  0
 29 31  1  0  0  0
M  END
> <minimizedAffinity>
-6.67049

> <CNNscore>
0.3289511204

> <CNNaffinity>
5.8086652756

> <CNN_VS>
1.9107669592

> <CNNaffinity_variance>
0.4812130928

$$$$
[H]c1c([H])c(N([H])C(=O)N([H])c2c([H])c([H])c(N3C([H])([H])C([H])([H])OC([H])([H])C3([H])[H])c([H])c2[H])c([H])c([H])c1-c1nc(N2C([H])([H])C([H])([H])OC([H])([H])C2([H])[H])nc(N2C([H])([H])C([H])([H])OC([H])([H])[C@@]2([H])C([H])([H])[H])n1


 43 48  0  0  0  0  0  0  0  0999 V2000
   -5.0668   21.3733  -17.2266 C   0  0  0  0  0  0  0  0  0  0  0  0
   -5.9809   20.9977  -18.1887 C   0  0  0  0  0  0  0  0  0  0  0  0
   -5.8558   21.3484  -19.4932 C   0  0  0  0  0  0  0  0  0  0  0  0
   -4.7345   22.1404  -19.9006 C   0  0  0  0  0  0  0  0  0  0  0  0
   -3.8095   22.5134  -18.9275 C   0  0  0  0  0  0  0  0  0  0  0  0
   -3.9986   22.1225  -17.6134 C   0  0  0  0  0  0  0  0  0  0  0  0
   -4.4766   20.5428  -13.6787 C   0  0  0  0  0  0  0  0  0  0  0  0
   -5.7635   20.4792  -13.2840 N   0  0  0  0  0  0  0  0  0  0  0  0
   -6.8139   20.6615  -14.1011 C   0  0  0  0  0  0  0  0  0  0  0  0
   -6.5149   20.9209  -15.3821 N   0  0  0  0  0  0  0  0  0  0  0  0
   -5.2576   21.0017  -15.8520 C   0  0  0  0  0  0  0  0  0  0  0  0
   -4.2527   20.8075  -14.9806 N   0  0  0  0  0  0  0  0  0  0  0  0
   -3.4030   22.7561  -12.0940 C   0  0  0  0  0  0  0  0  0  0  0  0
   -2.6844   21.4595  -12.1302 C   0  0  0  0  0  0  0  0  0  0  0  0
   -1.3791   21.5539  -12.9221 C   0  0  0  0  0  0  0  0  0  0  0  0
   -0.9800   20.2809  -13.3228 O   0  0  0  0  0  0  0  0  0  0  0  0
   -1.3516   19.2674  -12.4485 C   0  0  0  0  0  0  0  0  0  0  0  0
   -2.8691   19.0424  -12.4157 C   0  0  0  0  0  0  0  0  0  0  0  0
   -3.4037   20.3739  -12.7678 N   0  0  0  0  0  0  0  0  0  0  0  0
   -8.1591   20.5910  -13.6854 N   0  0  0  0  0  0  0  0  0  0  0  0
   -8.8740   21.6195  -12.9509 C   0  0  0  0  0  0  0  0  0  0  0  0
   -9.2457   20.9587  -11.6150 C   0  0  0  0  0  0  0  0  0  0  0  0
   -9.8677   19.7531  -11.8014 O   0  0  0  0  0  0  0  0  0  0  0  0
   -9.1418   18.8062  -12.5116 C   0  0  0  0  0  0  0  0  0  0  0  0
   -8.9751   19.3846  -13.9369 C   0  0  0  0  0  0  0  0  0  0  0  0
   -4.6616   22.5815  -21.1319 N   0  0  0  0  0  0  0  0  0  0  0  0
   -4.5816   23.0472  -22.4050 C   0  0  0  0  0  0  0  0  0  0  0  0
   -4.0906   24.1338  -22.7899 O   0  0  0  0  0  0  0  0  0  0  0  0
   -5.1201   22.2139  -23.4581 N   0  0  0  0  0  0  0  0  0  0  0  0
   -3.9685   23.7005  -20.6848 H   0  0  0  0  0  0  0  0  0  0  0  0
   -5.5299   21.2845  -23.1680 H   0  0  0  0  0  0  0  0  0  0  0  0
   -5.1008   22.6422  -24.7934 C   0  0  0  0  0  0  0  0  0  0  0  0
   -6.2499   23.1889  -25.3083 C   0  0  0  0  0  0  0  0  0  0  0  0
   -6.2457   23.6822  -26.5997 C   0  0  0  0  0  0  0  0  0  0  0  0
   -5.0926   23.6394  -27.4007 C   0  0  0  0  0  0  0  0  0  0  0  0
   -3.9714   23.0893  -26.8592 C   0  0  0  0  0  0  0  0  0  0  0  0
   -3.9679   22.5821  -25.5413 C   0  0  0  0  0  0  0  0  0  0  0  0
   -5.1585   24.1836  -28.6899 N   0  0  0  0  0  0  0  0  0  0  0  0
   -5.3720   23.3487  -29.8475 C   0  0  0  0  0  0  0  0  0  0  0  0
   -5.8695   24.2685  -30.9722 C   0  0  0  0  0  0  0  0  0  0  0  0
   -4.9706   25.2490  -31.2927 O   0  0  0  0  0  0  0  0  0  0  0  0
   -4.3532   25.8812  -30.2450 C   0  0  0  0  0  0  0  0  0  0  0  0
   -5.0379   25.5969  -28.9198 C   0  0  0  0  0  0  0  0  0  0  0  0
 13 14  1  0  0  0
 14 15  1  0  0  0
 15 16  1  0  0  0
 16 17  1  0  0  0
 17 18  1  0  0  0
 18 19  1  0  0  0
 19  7  1  0  0  0
  7  8  2  0  0  0
  8  9  1  0  0  0
  9 10  2  0  0  0
 10 11  1  0  0  0
 11 12  2  0  0  0
 11  1  1  0  0  0
  1  2  2  0  0  0
  2  3  1  0  0  0
  3  4  2  0  0  0
  4 26  1  0  0  0
 26 27  1  0  0  0
 27 28  2  0  0  0
 27 29  1  0  0  0
 29 32  1  0  0  0
 32 33  2  0  0  0
 33 34  1  0  0  0
 34 35  2  0  0  0
 35 36  1  0  0  0
 36 37  2  0  0  0
 35 38  1  0  0  0
 38 39  1  0  0  0
 39 40  1  0  0  0
 40 41  1  0  0  0
 41 42  1  0  0  0
 42 43  1  0  0  0
  4  5  1  0  0  0
  5  6  2  0  0  0
  9 20  1  0  0  0
 20 21  1  0  0  0
 21 22  1  0  0  0
 22 23  1  0  0  0
 23 24  1  0  0  0
 24 25  1  0  0  0
 19 14  1  0  0  0
 12  7  1  0  0  0
  6  1  1  0  0  0
 25 20  1  0  0  0
 37 32  1  0  0  0
 43 38  1  0  0  0
 26 30  1  0  0  0
 29 31  1  0  0  0
M  END
> <minimizedAffinity>
-6.61151

> <CNNscore>
0.2980628014

> <CNNaffinity>
5.7345442772

> <CNN_VS>
1.7092543840

> <CNNaffinity_variance>
0.2652867436

$$$$
[H]c1c([H])c(N([H])C(=O)N([H])c2c([H])c([H])c(N3C([H])([H])C([H])([H])OC([H])([H])C3([H])[H])c([H])c2[H])c([H])c([H])c1-c1nc(N2C([H])([H])C([H])([H])OC([H])([H])C2([H])[H])nc(N2C([H])([H])C([H])([H])OC([H])([H])[C@@]2([H])C([H])([H])[H])n1


 43 48  0  0  0  0  0  0  0  0999 V2000
   -6.8517   23.0760  -16.3723 C   0  0  0  0  0  0  0  0  0  0  0  0
   -6.1349   24.0323  -17.0606 C   0  0  0  0  0  0  0  0  0  0  0  0
   -6.0743   24.0669  -18.4155 C   0  0  0  0  0  0  0  0  0  0  0  0
   -6.7784   23.0763  -19.1730 C   0  0  0  0  0  0  0  0  0  0  0  0
   -7.5066   22.1150  -18.4750 C   0  0  0  0  0  0  0  0  0  0  0  0
   -7.5245   22.1367  -17.0913 C   0  0  0  0  0  0  0  0  0  0  0  0
   -6.1594   22.2434  -12.8434 C   0  0  0  0  0  0  0  0  0  0  0  0
   -6.8349   23.2610  -12.2743 N   0  0  0  0  0  0  0  0  0  0  0  0
   -7.5250   24.1867  -12.9605 C   0  0  0  0  0  0  0  0  0  0  0  0
   -7.5128   24.0497  -14.2942 N   0  0  0  0  0  0  0  0  0  0  0  0
   -6.8621   23.0632  -14.9357 C   0  0  0  0  0  0  0  0  0  0  0  0
   -6.1920   22.1693  -14.1883 N   0  0  0  0  0  0  0  0  0  0  0  0
   -3.3319   22.6350  -12.1997 C   0  0  0  0  0  0  0  0  0  0  0  0
   -3.9788   21.3316  -11.9140 C   0  0  0  0  0  0  0  0  0  0  0  0
   -3.4862   20.2326  -12.8570 C   0  0  0  0  0  0  0  0  0  0  0  0
   -4.4056   19.1865  -12.8796 O   0  0  0  0  0  0  0  0  0  0  0  0
   -5.0973   19.0120  -11.6877 C   0  0  0  0  0  0  0  0  0  0  0  0
   -6.0596   20.1691  -11.3882 C   0  0  0  0  0  0  0  0  0  0  0  0
   -5.4199   21.3108  -12.0735 N   0  0  0  0  0  0  0  0  0  0  0  0
   -8.2333   25.2483  -12.3616 N   0  0  0  0  0  0  0  0  0  0  0  0
   -8.2496   25.5630  -10.9441 C   0  0  0  0  0  0  0  0  0  0  0  0
   -9.7153   25.3842  -10.5209 C   0  0  0  0  0  0  0  0  0  0  0  0
  -10.5677   26.0737  -11.3414 O   0  0  0  0  0  0  0  0  0  0  0  0
  -10.5106   25.7359  -12.6870 C   0  0  0  0  0  0  0  0  0  0  0  0
   -9.0956   26.1413  -13.1638 C   0  0  0  0  0  0  0  0  0  0  0  0
   -6.6362   23.0289  -20.4743 N   0  0  0  0  0  0  0  0  0  0  0  0
   -6.4908   22.9699  -21.8232 C   0  0  0  0  0  0  0  0  0  0  0  0
   -6.6081   21.9626  -22.5593 O   0  0  0  0  0  0  0  0  0  0  0  0
   -6.1597   24.1963  -22.5155 N   0  0  0  0  0  0  0  0  0  0  0  0
   -6.9899   21.6846  -20.4591 H   0  0  0  0  0  0  0  0  0  0  0  0
   -6.0665   25.0670  -21.9247 H   0  0  0  0  0  0  0  0  0  0  0  0
   -5.9636   24.2066  -23.9042 C   0  0  0  0  0  0  0  0  0  0  0  0
   -7.0663   24.3638  -24.7065 C   0  0  0  0  0  0  0  0  0  0  0  0
   -6.9011   24.4456  -26.0766 C   0  0  0  0  0  0  0  0  0  0  0  0
   -5.6304   24.3729  -26.6707 C   0  0  0  0  0  0  0  0  0  0  0  0
   -4.5590   24.2154  -25.8458 C   0  0  0  0  0  0  0  0  0  0  0  0
   -4.7196   24.1298  -24.4455 C   0  0  0  0  0  0  0  0  0  0  0  0
   -5.5405   24.4906  -28.0638 N   0  0  0  0  0  0  0  0  0  0  0  0
   -5.2622   23.3462  -28.8978 C   0  0  0  0  0  0  0  0  0  0  0  0
   -5.7121   23.7135  -30.3195 C   0  0  0  0  0  0  0  0  0  0  0  0
   -5.0491   24.7998  -30.8221 O   0  0  0  0  0  0  0  0  0  0  0  0
   -4.8708   25.8578  -29.9693 C   0  0  0  0  0  0  0  0  0  0  0  0
   -5.7408   25.7482  -28.7296 C   0  0  0  0  0  0  0  0  0  0  0  0
 13 14  1  0  0  0
 14 15  1  0  0  0
 15 16  1  0  0  0
 16 17  1  0  0  0
 17 18  1  0  0  0
 18 19  1  0  0  0
 19  7  1  0  0  0
  7  8  2  0  0  0
  8  9  1  0  0  0
  9 10  2  0  0  0
 10 11  1  0  0  0
 11 12  2  0  0  0
 11  1  1  0  0  0
  1  2  2  0  0  0
  2  3  1  0  0  0
  3  4  2  0  0  0
  4 26  1  0  0  0
 26 27  1  0  0  0
 27 28  2  0  0  0
 27 29  1  0  0  0
 29 32  1  0  0  0
 32 33  2  0  0  0
 33 34  1  0  0  0
 34 35  2  0  0  0
 35 36  1  0  0  0
 36 37  2  0  0  0
 35 38  1  0  0  0
 38 39  1  0  0  0
 39 40  1  0  0  0
 40 41  1  0  0  0
 41 42  1  0  0  0
 42 43  1  0  0  0
  4  5  1  0  0  0
  5  6  2  0  0  0
  9 20  1  0  0  0
 20 21  1  0  0  0
 21 22  1  0  0  0
 22 23  1  0  0  0
 23 24  1  0  0  0
 24 25  1  0  0  0
 19 14  1  0  0  0
 12  7  1  0  0  0
  6  1  1  0  0  0
 25 20  1  0  0  0
 37 32  1  0  0  0
 43 38  1  0  0  0
 26 30  1  0  0  0
 29 31  1  0  0  0
M  END
> <minimizedAffinity>
-7.01793

> <CNNscore>
0.2968577743

> <CNNaffinity>
5.6527676582

> <CNN_VS>
1.6780680418

> <CNNaffinity_variance>
0.1666902900

$$$$
[H]c1c([H])c(N([H])C(=O)N([H])c2c([H])c([H])c(N3C([H])([H])C([H])([H])OC([H])([H])C3([H])[H])c([H])c2[H])c([H])c([H])c1-c1nc(N2C([H])([H])C([H])([H])OC([H])([H])C2([H])[H])nc(N2C([H])([H])C([H])([H])OC([H])([H])[C@@]2([H])C([H])([H])[H])n1


 43 48  0  0  0  0  0  0  0  0999 V2000
   -7.4382   22.6931  -15.2005 C   0  0  0  0  0  0  0  0  0  0  0  0
   -6.4314   23.5706  -15.5447 C   0  0  0  0  0  0  0  0  0  0  0  0
   -6.0662   23.7968  -16.8315 C   0  0  0  0  0  0  0  0  0  0  0  0
   -6.7454   23.1029  -17.8840 C   0  0  0  0  0  0  0  0  0  0  0  0
   -7.7662   22.2214  -17.5337 C   0  0  0  0  0  0  0  0  0  0  0  0
   -8.0871   22.0363  -16.2002 C   0  0  0  0  0  0  0  0  0  0  0  0
   -8.1133   23.1791  -11.6041 C   0  0  0  0  0  0  0  0  0  0  0  0
   -8.5765   21.9434  -11.3313 N   0  0  0  0  0  0  0  0  0  0  0  0
   -8.6591   20.9516  -12.2333 C   0  0  0  0  0  0  0  0  0  0  0  0
   -8.2431   21.2562  -13.4709 N   0  0  0  0  0  0  0  0  0  0  0  0
   -7.7697   22.4651  -13.8213 C   0  0  0  0  0  0  0  0  0  0  0  0
   -7.7128   23.4122  -12.8692 N   0  0  0  0  0  0  0  0  0  0  0  0
   -9.9481   25.4582  -11.6441 C   0  0  0  0  0  0  0  0  0  0  0  0
   -8.7959   25.4562  -10.7105 C   0  0  0  0  0  0  0  0  0  0  0  0
   -7.7252   26.4669  -11.1254 C   0  0  0  0  0  0  0  0  0  0  0  0
   -6.5086   26.1299  -10.5369 O   0  0  0  0  0  0  0  0  0  0  0  0
   -6.6283   25.5037   -9.3027 C   0  0  0  0  0  0  0  0  0  0  0  0
   -7.2388   24.0999   -9.4092 C   0  0  0  0  0  0  0  0  0  0  0  0
   -8.0770   24.2002  -10.6216 N   0  0  0  0  0  0  0  0  0  0  0  0
   -9.1413   19.6590  -11.9436 N   0  0  0  0  0  0  0  0  0  0  0  0
   -9.4744   18.6397  -12.9227 C   0  0  0  0  0  0  0  0  0  0  0  0
  -10.9781   18.3910  -12.7317 C   0  0  0  0  0  0  0  0  0  0  0  0
  -11.2893   18.1478  -11.4205 O   0  0  0  0  0  0  0  0  0  0  0  0
  -10.9477   19.1530  -10.5257 C   0  0  0  0  0  0  0  0  0  0  0  0
   -9.4028   19.2342  -10.5523 C   0  0  0  0  0  0  0  0  0  0  0  0
   -6.3281   23.2245  -19.1197 N   0  0  0  0  0  0  0  0  0  0  0  0
   -5.8890   23.3577  -20.3978 C   0  0  0  0  0  0  0  0  0  0  0  0
   -4.9938   24.1260  -20.8202 O   0  0  0  0  0  0  0  0  0  0  0  0
   -6.5109   22.5311  -21.4093 N   0  0  0  0  0  0  0  0  0  0  0  0
   -5.3671   24.1372  -18.7002 H   0  0  0  0  0  0  0  0  0  0  0  0
   -7.2609   21.8624  -21.0835 H   0  0  0  0  0  0  0  0  0  0  0  0
   -6.1310   22.6355  -22.7553 C   0  0  0  0  0  0  0  0  0  0  0  0
   -6.7082   23.6266  -23.5097 C   0  0  0  0  0  0  0  0  0  0  0  0
   -6.3073   23.8000  -24.8213 C   0  0  0  0  0  0  0  0  0  0  0  0
   -5.3210   22.9868  -25.4035 C   0  0  0  0  0  0  0  0  0  0  0  0
   -4.7709   22.0130  -24.6276 C   0  0  0  0  0  0  0  0  0  0  0  0
   -5.1758   21.8287  -23.2875 C   0  0  0  0  0  0  0  0  0  0  0  0
   -4.9482   23.2407  -26.7299 N   0  0  0  0  0  0  0  0  0  0  0  0
   -3.5667   23.1908  -27.1444 C   0  0  0  0  0  0  0  0  0  0  0  0
   -3.5675   23.0268  -28.6713 C   0  0  0  0  0  0  0  0  0  0  0  0
   -4.1865   24.0627  -29.3162 O   0  0  0  0  0  0  0  0  0  0  0  0
   -5.3623   24.5091  -28.7715 C   0  0  0  0  0  0  0  0  0  0  0  0
   -5.9216   23.5419  -27.7432 C   0  0  0  0  0  0  0  0  0  0  0  0
 13 14  1  0  0  0
 14 15  1  0  0  0
 15 16  1  0  0  0
 16 17  1  0  0  0
 17 18  1  0  0  0
 18 19  1  0  0  0
 19  7  1  0  0  0
  7  8  2  0  0  0
  8  9  1  0  0  0
  9 10  2  0  0  0
 10 11  1  0  0  0
 11 12  2  0  0  0
 11  1  1  0  0  0
  1  2  2  0  0  0
  2  3  1  0  0  0
  3  4  2  0  0  0
  4 26  1  0  0  0
 26 27  1  0  0  0
 27 28  2  0  0  0
 27 29  1  0  0  0
 29 32  1  0  0  0
 32 33  2  0  0  0
 33 34  1  0  0  0
 34 35  2  0  0  0
 35 36  1  0  0  0
 36 37  2  0  0  0
 35 38  1  0  0  0
 38 39  1  0  0  0
 39 40  1  0  0  0
 40 41  1  0  0  0
 41 42  1  0  0  0
 42 43  1  0  0  0
  4  5  1  0  0  0
  5  6  2  0  0  0
  9 20  1  0  0  0
 20 21  1  0  0  0
 21 22  1  0  0  0
 22 23  1  0  0  0
 23 24  1  0  0  0
 24 25  1  0  0  0
 19 14  1  0  0  0
 12  7  1  0  0  0
  6  1  1  0  0  0
 25 20  1  0  0  0
 37 32  1  0  0  0
 43 38  1  0  0  0
 26 30  1  0  0  0
 29 31  1  0  0  0
M  END
> <minimizedAffinity>
-6.68824

> <CNNscore>
0.2917698324

> <CNNaffinity>
5.7116584778

> <CNN_VS>
1.6664896011

> <CNNaffinity_variance>
0.3467375338

$$$$
[H]c1c([H])c(N([H])C(=O)N([H])c2c([H])c([H])c(N3C([H])([H])C([H])([H])OC([H])([H])C3([H])[H])c([H])c2[H])c([H])c([H])c1-c1nc(N2C([H])([H])C([H])([H])OC([H])([H])C2([H])[H])nc(N2C([H])([H])C([H])([H])OC([H])([H])[C@@]2([H])C([H])([H])[H])n1


 43 48  0  0  0  0  0  0  0  0999 V2000
   -7.1215   23.0840  -16.1267 C   0  0  0  0  0  0  0  0  0  0  0  0
   -7.6379   22.3444  -17.1700 C   0  0  0  0  0  0  0  0  0  0  0  0
   -7.2458   22.5212  -18.4567 C   0  0  0  0  0  0  0  0  0  0  0  0
   -6.2568   23.5124  -18.7570 C   0  0  0  0  0  0  0  0  0  0  0  0
   -5.7325   24.2540  -17.7002 C   0  0  0  0  0  0  0  0  0  0  0  0
   -6.1786   24.0233  -16.4105 C   0  0  0  0  0  0  0  0  0  0  0  0
   -8.3933   23.6454  -12.7072 C   0  0  0  0  0  0  0  0  0  0  0  0
   -8.6121   22.3580  -12.3745 N   0  0  0  0  0  0  0  0  0  0  0  0
   -8.3481   21.3149  -13.1783 C   0  0  0  0  0  0  0  0  0  0  0  0
   -7.8351   21.6218  -14.3785 N   0  0  0  0  0  0  0  0  0  0  0  0
   -7.5896   22.8802  -14.7839 C   0  0  0  0  0  0  0  0  0  0  0  0
   -7.8759   23.8776  -13.9294 N   0  0  0  0  0  0  0  0  0  0  0  0
   -6.4825   24.7269  -10.7729 C   0  0  0  0  0  0  0  0  0  0  0  0
   -7.9063   25.1366  -10.7099 C   0  0  0  0  0  0  0  0  0  0  0  0
   -8.6164   24.5424   -9.4924 C   0  0  0  0  0  0  0  0  0  0  0  0
   -9.9936   24.5526   -9.7010 O   0  0  0  0  0  0  0  0  0  0  0  0
  -10.4403   25.6009  -10.4956 C   0  0  0  0  0  0  0  0  0  0  0  0
   -9.9790   25.4751  -11.9536 C   0  0  0  0  0  0  0  0  0  0  0  0
   -8.7199   24.7120  -11.8325 N   0  0  0  0  0  0  0  0  0  0  0  0
   -8.5753   19.9690  -12.8257 N   0  0  0  0  0  0  0  0  0  0  0  0
   -8.0157   19.2895  -11.6709 C   0  0  0  0  0  0  0  0  0  0  0  0
   -7.1454   18.1694  -12.2604 C   0  0  0  0  0  0  0  0  0  0  0  0
   -7.8356   17.4191  -13.1747 O   0  0  0  0  0  0  0  0  0  0  0  0
   -8.3515   18.1176  -14.2581 C   0  0  0  0  0  0  0  0  0  0  0  0
   -9.4058   19.0864  -13.6718 C   0  0  0  0  0  0  0  0  0  0  0  0
   -5.9531   23.7723  -20.0044 N   0  0  0  0  0  0  0  0  0  0  0  0
   -5.6298   24.0464  -21.2946 C   0  0  0  0  0  0  0  0  0  0  0  0
   -4.6176   24.6542  -21.7143 O   0  0  0  0  0  0  0  0  0  0  0  0
   -6.5431   23.5989  -22.3235 N   0  0  0  0  0  0  0  0  0  0  0  0
   -4.7534   24.3387  -19.5892 H   0  0  0  0  0  0  0  0  0  0  0  0
   -7.4005   23.0714  -22.0034 H   0  0  0  0  0  0  0  0  0  0  0  0
   -6.2912   23.8725  -23.6758 C   0  0  0  0  0  0  0  0  0  0  0  0
   -5.6240   22.9228  -24.4089 C   0  0  0  0  0  0  0  0  0  0  0  0
   -5.4183   23.1311  -25.7600 C   0  0  0  0  0  0  0  0  0  0  0  0
   -5.8766   24.2921  -26.4042 C   0  0  0  0  0  0  0  0  0  0  0  0
   -6.5329   25.2135  -25.6471 C   0  0  0  0  0  0  0  0  0  0  0  0
   -6.7459   25.0088  -24.2663 C   0  0  0  0  0  0  0  0  0  0  0  0
   -5.6541   24.4196  -27.7815 N   0  0  0  0  0  0  0  0  0  0  0  0
   -5.2094   23.3007  -28.5772 C   0  0  0  0  0  0  0  0  0  0  0  0
   -5.5378   23.6376  -30.0390 C   0  0  0  0  0  0  0  0  0  0  0  0
   -4.9081   24.7707  -30.4769 O   0  0  0  0  0  0  0  0  0  0  0  0
   -4.8953   25.8369  -29.6157 C   0  0  0  0  0  0  0  0  0  0  0  0
   -5.8768   25.6608  -28.4705 C   0  0  0  0  0  0  0  0  0  0  0  0
 13 14  1  0  0  0
 14 15  1  0  0  0
 15 16  1  0  0  0
 16 17  1  0  0  0
 17 18  1  0  0  0
 18 19  1  0  0  0
 19  7  1  0  0  0
  7  8  2  0  0  0
  8  9  1  0  0  0
  9 10  2  0  0  0
 10 11  1  0  0  0
 11 12  2  0  0  0
 11  1  1  0  0  0
  1  2  2  0  0  0
  2  3  1  0  0  0
  3  4  2  0  0  0
  4 26  1  0  0  0
 26 27  1  0  0  0
 27 28  2  0  0  0
 27 29  1  0  0  0
 29 32  1  0  0  0
 32 33  2  0  0  0
 33 34  1  0  0  0
 34 35  2  0  0  0
 35 36  1  0  0  0
 36 37  2  0  0  0
 35 38  1  0  0  0
 38 39  1  0  0  0
 39 40  1  0  0  0
 40 41  1  0  0  0
 41 42  1  0  0  0
 42 43  1  0  0  0
  4  5  1  0  0  0
  5  6  2  0  0  0
  9 20  1  0  0  0
 20 21  1  0  0  0
 21 22  1  0  0  0
 22 23  1  0  0  0
 23 24  1  0  0  0
 24 25  1  0  0  0
 19 14  1  0  0  0
 12  7  1  0  0  0
  6  1  1  0  0  0
 25 20  1  0  0  0
 37 32  1  0  0  0
 43 38  1  0  0  0
 26 30  1  0  0  0
 29 31  1  0  0  0
M  END
> <minimizedAffinity>
-6.79230

> <CNNscore>
0.2905865014

> <CNNaffinity>
5.6009564400

> <CNN_VS>
1.6275622845

> <CNNaffinity_variance>
0.2254147530

$$$$
[H]c1c([H])c(C(F)(F)F)c([H])c([H])c1-c1nc2c([H])c([H])c(C(F)(F)F)c([H])c2n1[H]


 24 26  0  0  0  0  0  0  0  0999 V2000
    1.2544   20.9067  -21.5903 C   0  0  0  0  0  0  0  0  0  0  0  0
    2.2854   20.9969  -22.5130 C   0  0  0  0  0  0  0  0  0  0  0  0
    1.9664   21.3326  -23.7875 C   0  0  0  0  0  0  0  0  0  0  0  0
    0.7111   21.5877  -24.2267 C   0  0  0  0  0  0  0  0  0  0  0  0
    0.1561   21.9463  -25.3901 N   0  0  0  0  0  0  0  0  0  0  0  0
   -1.1597   22.0831  -25.2674 C   0  0  0  0  0  0  0  0  0  0  0  0
   -1.4429   21.7976  -23.9778 N   0  0  0  0  0  0  0  0  0  0  0  0
   -0.3205   21.4848  -23.2784 C   0  0  0  0  0  0  0  0  0  0  0  0
   -0.0365   21.1454  -21.9679 C   0  0  0  0  0  0  0  0  0  0  0  0
   -2.4055   21.7811  -23.5844 H   0  0  0  0  0  0  0  0  0  0  0  0
   -2.1404   22.5263  -26.2716 C   0  0  0  0  0  0  0  0  0  0  0  0
   -1.7707   22.7228  -27.6019 C   0  0  0  0  0  0  0  0  0  0  0  0
   -2.7040   23.0247  -28.5564 C   0  0  0  0  0  0  0  0  0  0  0  0
   -4.0257   23.1389  -28.2413 C   0  0  0  0  0  0  0  0  0  0  0  0
   -4.3970   22.9515  -26.9439 C   0  0  0  0  0  0  0  0  0  0  0  0
   -3.4592   22.6452  -25.9484 C   0  0  0  0  0  0  0  0  0  0  0  0
   -4.9902   23.3986  -29.3303 C   0  0  0  0  0  0  0  0  0  0  0  0
   -6.2409   23.4139  -28.6456 F   0  0  0  0  0  0  0  0  0  0  0  0
   -4.8050   24.5709  -29.9956 F   0  0  0  0  0  0  0  0  0  0  0  0
   -5.0269   22.2698  -30.1310 F   0  0  0  0  0  0  0  0  0  0  0  0
    2.1667   19.3544  -20.1396 F   0  0  0  0  0  0  0  0  0  0  0  0
    1.5627   20.5982  -20.1472 C   0  0  0  0  0  0  0  0  0  0  0  0
    0.3902   20.5815  -19.4771 F   0  0  0  0  0  0  0  0  0  0  0  0
    2.4320   21.5690  -19.6820 F   0  0  0  0  0  0  0  0  0  0  0  0
 21 22  1  0  0  0
 22 23  1  0  0  0
 22 24  1  0  0  0
 22  1  1  0  0  0
  1  2  2  0  0  0
  2  3  1  0  0  0
  3  4  2  0  0  0
  4  5  1  0  0  0
  5  6  2  0  0  0
  6  7  1  0  0  0
  7  8  1  0  0  0
  8  9  2  0  0  0
  6 11  1  0  0  0
 11 12  2  0  0  0
 12 13  1  0  0  0
 13 14  2  0  0  0
 14 15  1  0  0  0
 15 16  2  0  0  0
 14 17  1  0  0  0
 17 18  1  0  0  0
 17 19  1  0  0  0
 17 20  1  0  0  0
  9  1  1  0  0  0
 16 11  1  0  0  0
  8  4  1  0  0  0
  7 10  1  0  0  0
M  END
> <minimizedAffinity>
-8.23099

> <CNNscore>
0.6352823973

> <CNNaffinity>
5.6379251480

> <CNN_VS>
3.5816745758

> <CNNaffinity_variance>
0.3014896214

$$$$
[H]c1c([H])c(C(F)(F)F)c([H])c([H])c1-c1nc2c([H])c([H])c(C(F)(F)F)c([H])c2n1[H]


 24 26  0  0  0  0  0  0  0  0999 V2000
    1.4236   21.0745  -22.8011 C   0  0  0  0  0  0  0  0  0  0  0  0
    0.3445   20.9270  -21.9431 C   0  0  0  0  0  0  0  0  0  0  0  0
   -0.8788   21.2982  -22.3953 C   0  0  0  0  0  0  0  0  0  0  0  0
   -1.1251   21.8032  -23.6274 C   0  0  0  0  0  0  0  0  0  0  0  0
   -2.2083   22.2126  -24.2976 N   0  0  0  0  0  0  0  0  0  0  0  0
   -1.8862   22.6160  -25.5217 C   0  0  0  0  0  0  0  0  0  0  0  0
   -0.5488   22.4558  -25.6244 N   0  0  0  0  0  0  0  0  0  0  0  0
   -0.0179   21.9510  -24.4798 C   0  0  0  0  0  0  0  0  0  0  0  0
    1.2466   21.5836  -24.0563 C   0  0  0  0  0  0  0  0  0  0  0  0
    0.0059   22.7247  -26.4621 H   0  0  0  0  0  0  0  0  0  0  0  0
   -2.7696   23.0755  -26.6058 C   0  0  0  0  0  0  0  0  0  0  0  0
   -3.7307   24.0612  -26.3828 C   0  0  0  0  0  0  0  0  0  0  0  0
   -4.4738   24.5682  -27.4143 C   0  0  0  0  0  0  0  0  0  0  0  0
   -4.2973   24.1315  -28.6939 C   0  0  0  0  0  0  0  0  0  0  0  0
   -3.3626   23.1667  -28.9219 C   0  0  0  0  0  0  0  0  0  0  0  0
   -2.5923   22.6298  -27.8816 C   0  0  0  0  0  0  0  0  0  0  0  0
   -5.0830   24.7687  -29.7711 C   0  0  0  0  0  0  0  0  0  0  0  0
   -4.0850   25.4520  -30.5262 F   0  0  0  0  0  0  0  0  0  0  0  0
   -5.7683   23.9069  -30.5704 F   0  0  0  0  0  0  0  0  0  0  0  0
   -5.8490   25.7663  -29.1924 F   0  0  0  0  0  0  0  0  0  0  0  0
    3.1739   21.4607  -21.3403 F   0  0  0  0  0  0  0  0  0  0  0  0
    2.7943   20.6188  -22.3695 C   0  0  0  0  0  0  0  0  0  0  0  0
    3.6157   20.7402  -23.4346 F   0  0  0  0  0  0  0  0  0  0  0  0
    2.6864   19.3140  -21.9219 F   0  0  0  0  0  0  0  0  0  0  0  0
 21 22  1  0  0  0
 22 23  1  0  0  0
 22 24  1  0  0  0
 22  1  1  0  0  0
  1  2  2  0  0  0
  2  3  1  0  0  0
  3  4  2  0  0  0
  4  5  1  0  0  0
  5  6  2  0  0  0
  6  7  1  0  0  0
  7  8  1  0  0  0
  8  9  2  0  0  0
  6 11  1  0  0  0
 11 12  2  0  0  0
 12 13  1  0  0  0
 13 14  2  0  0  0
 14 15  1  0  0  0
 15 16  2  0  0  0
 14 17  1  0  0  0
 17 18  1  0  0  0
 17 19  1  0  0  0
 17 20  1  0  0  0
  9  1  1  0  0  0
 16 11  1  0  0  0
  8  4  1  0  0  0
  7 10  1  0  0  0
M  END
> <minimizedAffinity>
-8.52849

> <CNNscore>
0.5269083381

> <CNNaffinity>
5.7813167572

> <CNN_VS>
3.0462241173

> <CNNaffinity_variance>
0.2784346342

$$$$
[H]c1c([H])c(C(F)(F)F)c([H])c([H])c1-c1nc2c([H])c([H])c(C(F)(F)F)c([H])c2n1[H]


 24 26  0  0  0  0  0  0  0  0999 V2000
    1.7361   20.8828  -22.3720 C   0  0  0  0  0  0  0  0  0  0  0  0
    0.6449   20.6430  -21.5509 C   0  0  0  0  0  0  0  0  0  0  0  0
   -0.5866   20.9482  -22.0298 C   0  0  0  0  0  0  0  0  0  0  0  0
   -0.8298   21.4708  -23.2552 C   0  0  0  0  0  0  0  0  0  0  0  0
   -1.9177   21.8291  -23.9466 N   0  0  0  0  0  0  0  0  0  0  0  0
   -1.5877   22.2863  -25.1496 C   0  0  0  0  0  0  0  0  0  0  0  0
   -0.2405   22.2144  -25.2162 N   0  0  0  0  0  0  0  0  0  0  0  0
    0.2892   21.7126  -24.0697 C   0  0  0  0  0  0  0  0  0  0  0  0
    1.5622   21.4146  -23.6182 C   0  0  0  0  0  0  0  0  0  0  0  0
    0.3192   22.5414  -26.0295 H   0  0  0  0  0  0  0  0  0  0  0  0
   -2.4679   22.7190  -26.2473 C   0  0  0  0  0  0  0  0  0  0  0  0
   -2.0933   22.5506  -27.5801 C   0  0  0  0  0  0  0  0  0  0  0  0
   -2.9574   22.8483  -28.5989 C   0  0  0  0  0  0  0  0  0  0  0  0
   -4.2136   23.3144  -28.3465 C   0  0  0  0  0  0  0  0  0  0  0  0
   -4.5885   23.4850  -27.0478 C   0  0  0  0  0  0  0  0  0  0  0  0
   -3.7202   23.1906  -25.9879 C   0  0  0  0  0  0  0  0  0  0  0  0
   -5.1205   23.5510  -29.4890 C   0  0  0  0  0  0  0  0  0  0  0  0
   -4.9562   22.3700  -30.2709 F   0  0  0  0  0  0  0  0  0  0  0  0
   -6.4301   23.7172  -29.1593 F   0  0  0  0  0  0  0  0  0  0  0  0
   -4.5737   24.5706  -30.2496 F   0  0  0  0  0  0  0  0  0  0  0  0
    3.5153   21.4885  -21.0252 F   0  0  0  0  0  0  0  0  0  0  0  0
    3.1205   20.5033  -21.9114 C   0  0  0  0  0  0  0  0  0  0  0  0
    3.9163   20.4731  -23.0022 F   0  0  0  0  0  0  0  0  0  0  0  0
    3.0352   19.2771  -21.2762 F   0  0  0  0  0  0  0  0  0  0  0  0
 21 22  1  0  0  0
 22 23  1  0  0  0
 22 24  1  0  0  0
 22  1  1  0  0  0
  1  2  2  0  0  0
  2  3  1  0  0  0
  3  4  2  0  0  0
  4  5  1  0  0  0
  5  6  2  0  0  0
  6  7  1  0  0  0
  7  8  1  0  0  0
  8  9  2  0  0  0
  6 11  1  0  0  0
 11 12  2  0  0  0
 12 13  1  0  0  0
 13 14  2  0  0  0
 14 15  1  0  0  0
 15 16  2  0  0  0
 14 17  1  0  0  0
 17 18  1  0  0  0
 17 19  1  0  0  0
 17 20  1  0  0  0
  9  1  1  0  0  0
 16 11  1  0  0  0
  8  4  1  0  0  0
  7 10  1  0  0  0
M  END
> <minimizedAffinity>
-8.23222

> <CNNscore>
0.4602306783

> <CNNaffinity>
5.5891699791

> <CNN_VS>
2.5723075867

> <CNNaffinity_variance>
0.3958871961

$$$$
[H]c1c([H])c(C(F)(F)F)c([H])c([H])c1-c1nc2c([H])c([H])c(C(F)(F)F)c([H])c2n1[H]


 24 26  0  0  0  0  0  0  0  0999 V2000
   -3.0763   23.2570  -27.3374 C   0  0  0  0  0  0  0  0  0  0  0  0
   -3.9364   23.3675  -26.2556 C   0  0  0  0  0  0  0  0  0  0  0  0
   -3.4692   23.0029  -25.0359 C   0  0  0  0  0  0  0  0  0  0  0  0
   -2.2202   22.5382  -24.7958 C   0  0  0  0  0  0  0  0  0  0  0  0
   -1.5342   22.1438  -23.7169 N   0  0  0  0  0  0  0  0  0  0  0  0
   -0.2978   21.7845  -24.0444 C   0  0  0  0  0  0  0  0  0  0  0  0
   -0.2035   21.9578  -25.3807 N   0  0  0  0  0  0  0  0  0  0  0  0
   -1.3658   22.4273  -25.9056 C   0  0  0  0  0  0  0  0  0  0  0  0
   -1.8042   22.7894  -27.1666 C   0  0  0  0  0  0  0  0  0  0  0  0
    0.6415   21.7215  -25.9390 H   0  0  0  0  0  0  0  0  0  0  0  0
    0.8031   21.3555  -23.1664 C   0  0  0  0  0  0  0  0  0  0  0  0
    0.5611   20.9448  -21.8558 C   0  0  0  0  0  0  0  0  0  0  0  0
    1.5673   20.4397  -21.0775 C   0  0  0  0  0  0  0  0  0  0  0  0
    2.8376   20.3162  -21.5572 C   0  0  0  0  0  0  0  0  0  0  0  0
    3.0852   20.7171  -22.8356 C   0  0  0  0  0  0  0  0  0  0  0  0
    2.0722   21.2408  -23.6503 C   0  0  0  0  0  0  0  0  0  0  0  0
    3.8622   19.6995  -20.6891 C   0  0  0  0  0  0  0  0  0  0  0  0
    3.7717   18.3176  -21.0287 F   0  0  0  0  0  0  0  0  0  0  0  0
    5.1309   20.1494  -20.8873 F   0  0  0  0  0  0  0  0  0  0  0  0
    3.4074   19.7846  -19.3842 F   0  0  0  0  0  0  0  0  0  0  0  0
   -4.0794   22.5968  -29.3133 F   0  0  0  0  0  0  0  0  0  0  0  0
   -3.5261   23.7078  -28.7039 C   0  0  0  0  0  0  0  0  0  0  0  0
   -2.4329   24.1415  -29.3677 F   0  0  0  0  0  0  0  0  0  0  0  0
   -4.4770   24.6982  -28.5323 F   0  0  0  0  0  0  0  0  0  0  0  0
 21 22  1  0  0  0
 22 23  1  0  0  0
 22 24  1  0  0  0
 22  1  1  0  0  0
  1  2  2  0  0  0
  2  3  1  0  0  0
  3  4  2  0  0  0
  4  5  1  0  0  0
  5  6  2  0  0  0
  6  7  1  0  0  0
  7  8  1  0  0  0
  8  9  2  0  0  0
  6 11  1  0  0  0
 11 12  2  0  0  0
 12 13  1  0  0  0
 13 14  2  0  0  0
 14 15  1  0  0  0
 15 16  2  0  0  0
 14 17  1  0  0  0
 17 18  1  0  0  0
 17 19  1  0  0  0
 17 20  1  0  0  0
  9  1  1  0  0  0
 16 11  1  0  0  0
  8  4  1  0  0  0
  7 10  1  0  0  0
M  END
> <minimizedAffinity>
-7.27423

> <CNNscore>
0.4581366777

> <CNNaffinity>
5.4875288010

> <CNN_VS>
2.5140383244

> <CNNaffinity_variance>
0.2226112783

$$$$
[H]c1c([H])c(C(F)(F)F)c([H])c([H])c1-c1nc2c([H])c([H])c(C(F)(F)F)c([H])c2n1[H]


 24 26  0  0  0  0  0  0  0  0999 V2000
    2.9973   20.3787  -21.6702 C   0  0  0  0  0  0  0  0  0  0  0  0
    1.9428   20.3264  -20.7715 C   0  0  0  0  0  0  0  0  0  0  0  0
    0.7253   20.7431  -21.1995 C   0  0  0  0  0  0  0  0  0  0  0  0
    0.4627   21.2073  -22.4442 C   0  0  0  0  0  0  0  0  0  0  0  0
   -0.6205   21.6451  -23.0961 N   0  0  0  0  0  0  0  0  0  0  0  0
   -0.3210   21.9777  -24.3470 C   0  0  0  0  0  0  0  0  0  0  0  0
    1.0017   21.7416  -24.4862 N   0  0  0  0  0  0  0  0  0  0  0  0
    1.5454   21.2586  -23.3382 C   0  0  0  0  0  0  0  0  0  0  0  0
    2.8031   20.8423  -22.9404 C   0  0  0  0  0  0  0  0  0  0  0  0
    1.5399   21.9441  -25.3528 H   0  0  0  0  0  0  0  0  0  0  0  0
   -1.2167   22.4372  -25.4209 C   0  0  0  0  0  0  0  0  0  0  0  0
   -0.8154   22.4065  -26.7562 C   0  0  0  0  0  0  0  0  0  0  0  0
   -1.6865   22.7264  -27.7623 C   0  0  0  0  0  0  0  0  0  0  0  0
   -2.9756   23.0808  -27.4948 C   0  0  0  0  0  0  0  0  0  0  0  0
   -3.3770   23.1165  -26.1933 C   0  0  0  0  0  0  0  0  0  0  0  0
   -2.5024   22.7968  -25.1459 C   0  0  0  0  0  0  0  0  0  0  0  0
   -3.8836   23.3472  -28.6299 C   0  0  0  0  0  0  0  0  0  0  0  0
   -3.6143   22.2584  -29.5102 F   0  0  0  0  0  0  0  0  0  0  0  0
   -5.2065   23.3788  -28.3134 F   0  0  0  0  0  0  0  0  0  0  0  0
   -3.4108   24.4714  -29.2854 F   0  0  0  0  0  0  0  0  0  0  0  0
    4.9531   20.8906  -20.5481 F   0  0  0  0  0  0  0  0  0  0  0  0
    4.3566   19.8690  -21.2638 C   0  0  0  0  0  0  0  0  0  0  0  0
    5.0411   19.5941  -22.3952 F   0  0  0  0  0  0  0  0  0  0  0  0
    4.1706   18.7541  -20.4657 F   0  0  0  0  0  0  0  0  0  0  0  0
 21 22  1  0  0  0
 22 23  1  0  0  0
 22 24  1  0  0  0
 22  1  1  0  0  0
  1  2  2  0  0  0
  2  3  1  0  0  0
  3  4  2  0  0  0
  4  5  1  0  0  0
  5  6  2  0  0  0
  6  7  1  0  0  0
  7  8  1  0  0  0
  8  9  2  0  0  0
  6 11  1  0  0  0
 11 12  2  0  0  0
 12 13  1  0  0  0
 13 14  2  0  0  0
 14 15  1  0  0  0
 15 16  2  0  0  0
 14 17  1  0  0  0
 17 18  1  0  0  0
 17 19  1  0  0  0
 17 20  1  0  0  0
  9  1  1  0  0  0
 16 11  1  0  0  0
  8  4  1  0  0  0
  7 10  1  0  0  0
M  END
> <minimizedAffinity>
-7.69400

> <CNNscore>
0.4322473109

> <CNNaffinity>
5.4538459778

> <CNN_VS>
2.3574101925

> <CNNaffinity_variance>
0.1259149462

$$$$
[H]c1c([H])c(C(F)(F)F)c([H])c([H])c1-c1nc2c([H])c([H])c(C(F)(F)F)c([H])c2n1[H]


 24 26  0  0  0  0  0  0  0  0999 V2000
   -0.4816   21.2421  -22.7018 C   0  0  0  0  0  0  0  0  0  0  0  0
    0.6426   21.4868  -23.4756 C   0  0  0  0  0  0  0  0  0  0  0  0
    0.4559   21.9814  -24.7243 C   0  0  0  0  0  0  0  0  0  0  0  0
   -0.7516   22.2557  -25.2727 C   0  0  0  0  0  0  0  0  0  0  0  0
   -1.1862   22.7510  -26.4371 N   0  0  0  0  0  0  0  0  0  0  0  0
   -2.5122   22.8305  -26.4550 C   0  0  0  0  0  0  0  0  0  0  0  0
   -2.9272   22.3655  -25.2565 N   0  0  0  0  0  0  0  0  0  0  0  0
   -1.8787   21.9950  -24.4754 C   0  0  0  0  0  0  0  0  0  0  0  0
   -1.7307   21.4907  -23.1959 C   0  0  0  0  0  0  0  0  0  0  0  0
   -3.9266   22.2672  -24.9859 H   0  0  0  0  0  0  0  0  0  0  0  0
   -3.3914   23.3754  -27.5023 C   0  0  0  0  0  0  0  0  0  0  0  0
   -3.8550   24.6894  -27.4420 C   0  0  0  0  0  0  0  0  0  0  0  0
   -4.5782   25.2303  -28.4704 C   0  0  0  0  0  0  0  0  0  0  0  0
   -4.8658   24.5063  -29.5894 C   0  0  0  0  0  0  0  0  0  0  0  0
   -4.4198   23.2207  -29.6571 C   0  0  0  0  0  0  0  0  0  0  0  0
   -3.6808   22.6439  -28.6154 C   0  0  0  0  0  0  0  0  0  0  0  0
   -5.5909   25.1711  -30.6922 C   0  0  0  0  0  0  0  0  0  0  0  0
   -4.5438   25.8177  -31.4124 F   0  0  0  0  0  0  0  0  0  0  0  0
   -6.2793   24.3343  -31.5151 F   0  0  0  0  0  0  0  0  0  0  0  0
   -6.3396   26.1960  -30.1391 F   0  0  0  0  0  0  0  0  0  0  0  0
   -1.5014   21.0764  -20.6333 F   0  0  0  0  0  0  0  0  0  0  0  0
   -0.3261   20.7513  -21.2849 C   0  0  0  0  0  0  0  0  0  0  0  0
    0.7313   21.3964  -20.7464 F   0  0  0  0  0  0  0  0  0  0  0  0
   -0.1518   19.3794  -21.3277 F   0  0  0  0  0  0  0  0  0  0  0  0
 21 22  1  0  0  0
 22 23  1  0  0  0
 22 24  1  0  0  0
 22  1  1  0  0  0
  1  2  2  0  0  0
  2  3  1  0  0  0
  3  4  2  0  0  0
  4  5  1  0  0  0
  5  6  2  0  0  0
  6  7  1  0  0  0
  7  8  1  0  0  0
  8  9  2  0  0  0
  6 11  1  0  0  0
 11 12  2  0  0  0
 12 13  1  0  0  0
 13 14  2  0  0  0
 14 15  1  0  0  0
 15 16  2  0  0  0
 14 17  1  0  0  0
 17 18  1  0  0  0
 17 19  1  0  0  0
 17 20  1  0  0  0
  9  1  1  0  0  0
 16 11  1  0  0  0
  8  4  1  0  0  0
  7 10  1  0  0  0
M  END
> <minimizedAffinity>
-8.48456

> <CNNscore>
0.4226973355

> <CNNaffinity>
5.9746923447

> <CNN_VS>
2.5254864693

> <CNNaffinity_variance>
0.3150296807

$$$$
[H]c1c([H])c(C(F)(F)F)c([H])c([H])c1-c1nc2c([H])c([H])c(C(F)(F)F)c([H])c2n1[H]


 24 26  0  0  0  0  0  0  0  0999 V2000
   -4.7420   24.2806  -28.9197 C   0  0  0  0  0  0  0  0  0  0  0  0
   -5.7611   23.9808  -28.0286 C   0  0  0  0  0  0  0  0  0  0  0  0
   -5.4247   23.3742  -26.8633 C   0  0  0  0  0  0  0  0  0  0  0  0
   -4.1626   23.0394  -26.5045 C   0  0  0  0  0  0  0  0  0  0  0  0
   -3.5869   22.4719  -25.4384 N   0  0  0  0  0  0  0  0  0  0  0  0
   -2.2707   22.3862  -25.5976 C   0  0  0  0  0  0  0  0  0  0  0  0
   -2.0092   22.9185  -26.8112 N   0  0  0  0  0  0  0  0  0  0  0  0
   -3.1448   23.3454  -27.4235 C   0  0  0  0  0  0  0  0  0  0  0  0
   -3.4466   23.9645  -28.6230 C   0  0  0  0  0  0  0  0  0  0  0  0
   -1.0608   22.9574  -27.2364 H   0  0  0  0  0  0  0  0  0  0  0  0
   -1.2553   21.8960  -24.6513 C   0  0  0  0  0  0  0  0  0  0  0  0
    0.1014   21.9215  -24.9733 C   0  0  0  0  0  0  0  0  0  0  0  0
    1.0518   21.5721  -24.0525 C   0  0  0  0  0  0  0  0  0  0  0  0
    0.7061   21.1924  -22.7894 C   0  0  0  0  0  0  0  0  0  0  0  0
   -0.6169   21.1615  -22.4655 C   0  0  0  0  0  0  0  0  0  0  0  0
   -1.6084   21.5112  -23.3923 C   0  0  0  0  0  0  0  0  0  0  0  0
    1.7837   20.8943  -21.8230 C   0  0  0  0  0  0  0  0  0  0  0  0
    2.9593   21.2703  -22.5370 F   0  0  0  0  0  0  0  0  0  0  0  0
    1.7089   21.5777  -20.6489 F   0  0  0  0  0  0  0  0  0  0  0  0
    1.8591   19.5177  -21.6961 F   0  0  0  0  0  0  0  0  0  0  0  0
   -3.8672   25.5812  -30.6195 F   0  0  0  0  0  0  0  0  0  0  0  0
   -5.0551   25.0107  -30.2010 C   0  0  0  0  0  0  0  0  0  0  0  0
   -5.9808   25.9517  -29.9153 F   0  0  0  0  0  0  0  0  0  0  0  0
   -5.5036   24.0798  -31.1212 F   0  0  0  0  0  0  0  0  0  0  0  0
 21 22  1  0  0  0
 22 23  1  0  0  0
 22 24  1  0  0  0
 22  1  1  0  0  0
  1  2  2  0  0  0
  2  3  1  0  0  0
  3  4  2  0  0  0
  4  5  1  0  0  0
  5  6  2  0  0  0
  6  7  1  0  0  0
  7  8  1  0  0  0
  8  9  2  0  0  0
  6 11  1  0  0  0
 11 12  2  0  0  0
 12 13  1  0  0  0
 13 14  2  0  0  0
 14 15  1  0  0  0
 15 16  2  0  0  0
 14 17  1  0  0  0
 17 18  1  0  0  0
 17 19  1  0  0  0
 17 20  1  0  0  0
  9  1  1  0  0  0
 16 11  1  0  0  0
  8  4  1  0  0  0
  7 10  1  0  0  0
M  END
> <minimizedAffinity>
-8.66574

> <CNNscore>
0.4164385498

> <CNNaffinity>
5.8384923935

> <CNN_VS>
2.4313733578

> <CNNaffinity_variance>
0.1776309311

$$$$
[H]c1c([H])c(C(F)(F)F)c([H])c([H])c1-c1nc2c([H])c([H])c(C(F)(F)F)c([H])c2n1[H]


 24 26  0  0  0  0  0  0  0  0999 V2000
   -3.9397   23.4986  -28.1395 C   0  0  0  0  0  0  0  0  0  0  0  0
   -2.7306   23.0285  -28.6289 C   0  0  0  0  0  0  0  0  0  0  0  0
   -1.7783   22.6756  -27.7303 C   0  0  0  0  0  0  0  0  0  0  0  0
   -1.9221   22.7480  -26.3857 C   0  0  0  0  0  0  0  0  0  0  0  0
   -1.1658   22.4514  -25.3227 N   0  0  0  0  0  0  0  0  0  0  0  0
   -1.8132   22.7085  -24.1914 C   0  0  0  0  0  0  0  0  0  0  0  0
   -3.0223   23.1869  -24.5574 N   0  0  0  0  0  0  0  0  0  0  0  0
   -3.1518   23.2328  -25.9094 C   0  0  0  0  0  0  0  0  0  0  0  0
   -4.1491   23.6028  -26.7936 C   0  0  0  0  0  0  0  0  0  0  0  0
   -3.7447   23.5156  -23.8853 H   0  0  0  0  0  0  0  0  0  0  0  0
   -1.3821   22.4682  -22.8047 C   0  0  0  0  0  0  0  0  0  0  0  0
   -0.4609   21.4664  -22.5000 C   0  0  0  0  0  0  0  0  0  0  0  0
    0.0247   21.3172  -21.2291 C   0  0  0  0  0  0  0  0  0  0  0  0
   -0.3709   22.1442  -20.2198 C   0  0  0  0  0  0  0  0  0  0  0  0
   -1.2727   23.1246  -20.5064 C   0  0  0  0  0  0  0  0  0  0  0  0
   -1.7868   23.2946  -21.7990 C   0  0  0  0  0  0  0  0  0  0  0  0
    0.2432   21.9733  -18.8866 C   0  0  0  0  0  0  0  0  0  0  0  0
    0.6183   23.3046  -18.5401 F   0  0  0  0  0  0  0  0  0  0  0  0
   -0.5808   21.4554  -17.9357 F   0  0  0  0  0  0  0  0  0  0  0  0
    1.4359   21.2926  -19.0625 F   0  0  0  0  0  0  0  0  0  0  0  0
   -6.0123   24.5024  -28.3466 F   0  0  0  0  0  0  0  0  0  0  0  0
   -5.0532   23.8450  -29.0948 C   0  0  0  0  0  0  0  0  0  0  0  0
   -5.5296   22.6863  -29.5991 F   0  0  0  0  0  0  0  0  0  0  0  0
   -4.5330   24.6794  -30.0683 F   0  0  0  0  0  0  0  0  0  0  0  0
 21 22  1  0  0  0
 22 23  1  0  0  0
 22 24  1  0  0  0
 22  1  1  0  0  0
  1  2  2  0  0  0
  2  3  1  0  0  0
  3  4  2  0  0  0
  4  5  1  0  0  0
  5  6  2  0  0  0
  6  7  1  0  0  0
  7  8  1  0  0  0
  8  9  2  0  0  0
  6 11  1  0  0  0
 11 12  2  0  0  0
 12 13  1  0  0  0
 13 14  2  0  0  0
 14 15  1  0  0  0
 15 16  2  0  0  0
 14 17  1  0  0  0
 17 18  1  0  0  0
 17 19  1  0  0  0
 17 20  1  0  0  0
  9  1  1  0  0  0
 16 11  1  0  0  0
  8  4  1  0  0  0
  7 10  1  0  0  0
M  END
> <minimizedAffinity>
-7.54861

> <CNNscore>
0.3985908031

> <CNNaffinity>
5.7907600403

> <CNN_VS>
2.3081436157

> <CNNaffinity_variance>
0.3013675213

$$$$
[H]c1c([H])c(C(F)(F)F)c([H])c([H])c1-c1nc2c([H])c([H])c(C(F)(F)F)c([H])c2n1[H]


 24 26  0  0  0  0  0  0  0  0999 V2000
   -1.3582   22.6820  -27.0155 C   0  0  0  0  0  0  0  0  0  0  0  0
   -2.4587   23.0224  -27.7872 C   0  0  0  0  0  0  0  0  0  0  0  0
   -3.6833   22.9518  -27.2090 C   0  0  0  0  0  0  0  0  0  0  0  0
   -3.9112   22.5731  -25.9290 C   0  0  0  0  0  0  0  0  0  0  0  0
   -4.9865   22.4450  -25.1434 N   0  0  0  0  0  0  0  0  0  0  0  0
   -4.6411   22.0397  -23.9262 C   0  0  0  0  0  0  0  0  0  0  0  0
   -3.2971   21.9060  -23.9481 N   0  0  0  0  0  0  0  0  0  0  0  0
   -2.7841   22.2260  -25.1652 C   0  0  0  0  0  0  0  0  0  0  0  0
   -1.5175   22.2852  -25.7181 C   0  0  0  0  0  0  0  0  0  0  0  0
   -2.7343   21.5620  -23.1440 H   0  0  0  0  0  0  0  0  0  0  0  0
   -5.4928   21.8385  -22.7427 C   0  0  0  0  0  0  0  0  0  0  0  0
   -4.9466   21.8007  -21.4600 C   0  0  0  0  0  0  0  0  0  0  0  0
   -5.7486   21.7272  -20.3534 C   0  0  0  0  0  0  0  0  0  0  0  0
   -7.1070   21.6931  -20.4663 C   0  0  0  0  0  0  0  0  0  0  0  0
   -7.6506   21.7268  -21.7151 C   0  0  0  0  0  0  0  0  0  0  0  0
   -6.8499   21.7983  -22.8631 C   0  0  0  0  0  0  0  0  0  0  0  0
   -7.9171   21.6834  -19.2303 C   0  0  0  0  0  0  0  0  0  0  0  0
   -8.4412   23.0088  -19.1874 F   0  0  0  0  0  0  0  0  0  0  0  0
   -8.9315   20.7768  -19.2143 F   0  0  0  0  0  0  0  0  0  0  0  0
   -7.0421   21.6028  -18.1604 F   0  0  0  0  0  0  0  0  0  0  0  0
    0.5396   21.5191  -27.6416 F   0  0  0  0  0  0  0  0  0  0  0  0
    0.0297   22.8034  -27.5914 C   0  0  0  0  0  0  0  0  0  0  0  0
    0.7472   23.5870  -26.7577 F   0  0  0  0  0  0  0  0  0  0  0  0
   -0.0837   23.3366  -28.8631 F   0  0  0  0  0  0  0  0  0  0  0  0
 21 22  1  0  0  0
 22 23  1  0  0  0
 22 24  1  0  0  0
 22  1  1  0  0  0
  1  2  2  0  0  0
  2  3  1  0  0  0
  3  4  2  0  0  0
  4  5  1  0  0  0
  5  6  2  0  0  0
  6  7  1  0  0  0
  7  8  1  0  0  0
  8  9  2  0  0  0
  6 11  1  0  0  0
 11 12  2  0  0  0
 12 13  1  0  0  0
 13 14  2  0  0  0
 14 15  1  0  0  0
 15 16  2  0  0  0
 14 17  1  0  0  0
 17 18  1  0  0  0
 17 19  1  0  0  0
 17 20  1  0  0  0
  9  1  1  0  0  0
 16 11  1  0  0  0
  8  4  1  0  0  0
  7 10  1  0  0  0
M  END
> <minimizedAffinity>
-7.64229

> <CNNscore>
0.3161204159

> <CNNaffinity>
5.3280763626

> <CNN_VS>
1.6843137741

> <CNNaffinity_variance>
0.1244568974

$$$$
[H]Oc1c([H])c(O[H])c([H])c(C([H])([H])[C@]([H])(O[H])[C@]([H])(N([H])C([H])([H])[C@@]([H])(O[H])[C@]([H])(O[H])c2c([H])c([H])c([H])c(OC([H])([H])[H])c2[H])C([H])([H])O[H])c1[H]


 35 36  0  0  0  0  0  0  0  0999 V2000
   -4.4360   22.8710  -23.5385 C   0  0  0  0  0  0  0  0  0  0  0  0
   -3.9544   21.7443  -24.3670 C   0  0  0  0  0  0  0  0  0  0  0  0
   -4.6515   20.5582  -24.1680 O   0  0  0  0  0  0  0  0  0  0  0  0
   -5.5740   20.5866  -24.4605 H   0  0  0  0  0  0  0  0  0  0  0  0
   -3.4711   22.0542  -25.7144 C   0  0  0  0  0  0  0  0  0  0  0  0
   -1.6685   22.6909  -27.2921 C   0  0  0  0  0  0  0  0  0  0  0  0
   -2.0810   22.2399  -26.0390 C   0  0  0  0  0  0  0  0  0  0  0  0
   -1.0918   21.9630  -25.0953 C   0  0  0  0  0  0  0  0  0  0  0  0
    0.2556   22.1131  -25.3417 C   0  0  0  0  0  0  0  0  0  0  0  0
    1.2453   21.8370  -24.3892 O   0  0  0  0  0  0  0  0  0  0  0  0
    0.6041   22.5602  -26.5974 C   0  0  0  0  0  0  0  0  0  0  0  0
   -0.3399   22.8440  -27.5551 C   0  0  0  0  0  0  0  0  0  0  0  0
    0.0603   23.2938  -28.8076 O   0  0  0  0  0  0  0  0  0  0  0  0
    1.5034   22.6327  -23.8048 H   0  0  0  0  0  0  0  0  0  0  0  0
   -0.5851   23.5172  -29.5496 H   0  0  0  0  0  0  0  0  0  0  0  0
   -3.3332   23.3814  -22.5850 C   0  0  0  0  0  0  0  0  0  0  0  0
   -2.8823   24.6168  -22.7614 O   0  0  0  0  0  0  0  0  0  0  0  0
   -2.0704   24.7258  -23.3273 H   0  0  0  0  0  0  0  0  0  0  0  0
   -4.6531   24.0996  -24.3415 N   0  0  0  0  0  0  0  0  0  0  0  0
   -4.1445   23.9494  -25.2562 H   0  0  0  0  0  0  0  0  0  0  0  0
   -6.0455   24.3611  -24.5328 C   0  0  0  0  0  0  0  0  0  0  0  0
   -6.3024   24.4376  -26.0307 C   0  0  0  0  0  0  0  0  0  0  0  0
   -7.6100   24.9286  -26.2045 O   0  0  0  0  0  0  0  0  0  0  0  0
   -7.9363   25.3591  -25.3682 H   0  0  0  0  0  0  0  0  0  0  0  0
   -5.3237   25.2230  -26.8264 C   0  0  0  0  0  0  0  0  0  0  0  0
   -5.6301   26.5839  -26.9025 O   0  0  0  0  0  0  0  0  0  0  0  0
   -6.5924   26.7273  -27.0659 H   0  0  0  0  0  0  0  0  0  0  0  0
   -5.3800   24.6371  -28.2188 C   0  0  0  0  0  0  0  0  0  0  0  0
   -5.2858   23.2892  -28.4463 C   0  0  0  0  0  0  0  0  0  0  0  0
   -5.3397   22.8035  -29.7583 C   0  0  0  0  0  0  0  0  0  0  0  0
   -5.4843   23.6474  -30.8216 C   0  0  0  0  0  0  0  0  0  0  0  0
   -5.5793   25.0059  -30.6002 C   0  0  0  0  0  0  0  0  0  0  0  0
   -5.5248   25.4789  -29.2858 C   0  0  0  0  0  0  0  0  0  0  0  0
   -5.7285   25.9127  -31.6298 O   0  0  0  0  0  0  0  0  0  0  0  0
   -5.9168   27.2789  -31.3437 C   0  0  0  0  0  0  0  0  0  0  0  0
  6  7  2  0  0  0
  7  5  1  0  0  0
  5  2  1  0  0  0
  2  3  1  0  0  0
  2  1  1  0  0  0
  1 19  1  0  0  0
 19 21  1  0  0  0
 21 22  1  0  0  0
 22 25  1  0  0  0
 25 28  1  0  0  0
 28 29  2  0  0  0
 29 30  1  0  0  0
 30 31  2  0  0  0
 31 32  1  0  0  0
 32 34  1  0  0  0
 34 35  1  0  0  0
 32 33  2  0  0  0
 25 26  1  0  0  0
 22 23  1  0  0  0
  1 16  1  0  0  0
 16 17  1  0  0  0
  7  8  1  0  0  0
  8  9  2  0  0  0
  9 10  1  0  0  0
  9 11  1  0  0  0
 11 12  2  0  0  0
 12 13  1  0  0  0
 12  6  1  0  0  0
 33 28  1  0  0  0
  3  4  1  0  0  0
 19 20  1  0  0  0
 26 27  1  0  0  0
 23 24  1  0  0  0
 17 18  1  0  0  0
 10 14  1  0  0  0
 13 15  1  0  0  0
M  END
> <minimizedAffinity>
-8.44135

> <CNNscore>
0.5845369101

> <CNNaffinity>
6.1088528633

> <CNN_VS>
3.5708498955

> <CNNaffinity_variance>
0.3803390861

$$$$
[H]Oc1c([H])c(O[H])c([H])c(C([H])([H])[C@]([H])(O[H])[C@]([H])(N([H])C([H])([H])[C@@]([H])(O[H])[C@]([H])(O[H])c2c([H])c([H])c([H])c(OC([H])([H])[H])c2[H])C([H])([H])O[H])c1[H]


 35 36  0  0  0  0  0  0  0  0999 V2000
   -5.5109   25.2477  -23.1830 C   0  0  0  0  0  0  0  0  0  0  0  0
   -5.7829   25.9700  -24.4449 C   0  0  0  0  0  0  0  0  0  0  0  0
   -6.6306   27.0620  -24.2994 O   0  0  0  0  0  0  0  0  0  0  0  0
   -6.2565   27.7878  -23.7793 H   0  0  0  0  0  0  0  0  0  0  0  0
   -4.6968   26.0527  -25.4240 C   0  0  0  0  0  0  0  0  0  0  0  0
   -4.0081   24.3354  -27.0732 C   0  0  0  0  0  0  0  0  0  0  0  0
   -4.7588   25.4603  -26.7345 C   0  0  0  0  0  0  0  0  0  0  0  0
   -5.5803   26.0083  -27.7196 C   0  0  0  0  0  0  0  0  0  0  0  0
   -5.6825   25.4954  -28.9945 C   0  0  0  0  0  0  0  0  0  0  0  0
   -6.5119   26.0473  -29.9795 O   0  0  0  0  0  0  0  0  0  0  0  0
   -4.9165   24.3845  -29.2725 C   0  0  0  0  0  0  0  0  0  0  0  0
   -4.0945   23.8147  -28.3299 C   0  0  0  0  0  0  0  0  0  0  0  0
   -3.3415   22.6934  -28.6571 O   0  0  0  0  0  0  0  0  0  0  0  0
   -7.4562   25.6613  -30.0021 H   0  0  0  0  0  0  0  0  0  0  0  0
   -2.7213   22.2326  -28.0090 H   0  0  0  0  0  0  0  0  0  0  0  0
   -6.0257   23.7926  -23.2439 C   0  0  0  0  0  0  0  0  0  0  0  0
   -6.6234   23.3913  -24.3584 O   0  0  0  0  0  0  0  0  0  0  0  0
   -7.6161   23.4611  -24.3901 H   0  0  0  0  0  0  0  0  0  0  0  0
   -4.0629   24.9872  -22.9916 N   0  0  0  0  0  0  0  0  0  0  0  0
   -3.6165   25.9252  -22.7950 H   0  0  0  0  0  0  0  0  0  0  0  0
   -3.8343   24.0475  -21.9388 C   0  0  0  0  0  0  0  0  0  0  0  0
   -2.4376   23.4728  -22.1241 C   0  0  0  0  0  0  0  0  0  0  0  0
   -1.7304   23.7033  -20.9291 O   0  0  0  0  0  0  0  0  0  0  0  0
   -2.3585   23.9140  -20.1858 H   0  0  0  0  0  0  0  0  0  0  0  0
   -2.3622   22.0442  -22.5257 C   0  0  0  0  0  0  0  0  0  0  0  0
   -2.0452   21.1841  -21.4715 O   0  0  0  0  0  0  0  0  0  0  0  0
   -1.3229   21.5538  -20.9103 H   0  0  0  0  0  0  0  0  0  0  0  0
   -1.2554   21.9766  -23.5532 C   0  0  0  0  0  0  0  0  0  0  0  0
    0.0349   21.6637  -23.2144 C   0  0  0  0  0  0  0  0  0  0  0  0
    1.0201   21.6204  -24.2082 C   0  0  0  0  0  0  0  0  0  0  0  0
    0.7223   21.8848  -25.5140 C   0  0  0  0  0  0  0  0  0  0  0  0
   -0.5747   22.2011  -25.8624 C   0  0  0  0  0  0  0  0  0  0  0  0
   -1.5498   22.2407  -24.8615 C   0  0  0  0  0  0  0  0  0  0  0  0
   -0.9428   22.4771  -27.1635 O   0  0  0  0  0  0  0  0  0  0  0  0
    0.0090   22.9749  -28.0746 C   0  0  0  0  0  0  0  0  0  0  0  0
  6  7  2  0  0  0
  7  5  1  0  0  0
  5  2  1  0  0  0
  2  3  1  0  0  0
  2  1  1  0  0  0
  1 19  1  0  0  0
 19 21  1  0  0  0
 21 22  1  0  0  0
 22 25  1  0  0  0
 25 28  1  0  0  0
 28 29  2  0  0  0
 29 30  1  0  0  0
 30 31  2  0  0  0
 31 32  1  0  0  0
 32 34  1  0  0  0
 34 35  1  0  0  0
 32 33  2  0  0  0
 25 26  1  0  0  0
 22 23  1  0  0  0
  1 16  1  0  0  0
 16 17  1  0  0  0
  7  8  1  0  0  0
  8  9  2  0  0  0
  9 10  1  0  0  0
  9 11  1  0  0  0
 11 12  2  0  0  0
 12 13  1  0  0  0
 12  6  1  0  0  0
 33 28  1  0  0  0
  3  4  1  0  0  0
 19 20  1  0  0  0
 26 27  1  0  0  0
 23 24  1  0  0  0
 17 18  1  0  0  0
 10 14  1  0  0  0
 13 15  1  0  0  0
M  END
> <minimizedAffinity>
-8.13503

> <CNNscore>
0.5844768286

> <CNNaffinity>
5.9810404778

> <CNN_VS>
3.4957795143

> <CNNaffinity_variance>
0.2510543168

$$$$
[H]Oc1c([H])c(O[H])c([H])c(C([H])([H])[C@]([H])(O[H])[C@]([H])(N([H])C([H])([H])[C@@]([H])(O[H])[C@]([H])(O[H])c2c([H])c([H])c([H])c(OC([H])([H])[H])c2[H])C([H])([H])O[H])c1[H]


 35 36  0  0  0  0  0  0  0  0999 V2000
   -2.4350   21.8136  -22.2355 C   0  0  0  0  0  0  0  0  0  0  0  0
   -1.8469   22.8013  -23.1664 C   0  0  0  0  0  0  0  0  0  0  0  0
   -1.4877   24.0015  -22.5639 O   0  0  0  0  0  0  0  0  0  0  0  0
   -0.7578   23.9253  -21.9325 H   0  0  0  0  0  0  0  0  0  0  0  0
   -1.0150   22.2897  -24.2578 C   0  0  0  0  0  0  0  0  0  0  0  0
   -0.2640   22.7499  -26.5746 C   0  0  0  0  0  0  0  0  0  0  0  0
   -1.2854   22.5384  -25.6496 C   0  0  0  0  0  0  0  0  0  0  0  0
   -2.5987   22.5815  -26.1176 C   0  0  0  0  0  0  0  0  0  0  0  0
   -2.9280   22.8201  -27.4342 C   0  0  0  0  0  0  0  0  0  0  0  0
   -4.2487   22.8589  -27.9001 O   0  0  0  0  0  0  0  0  0  0  0  0
   -1.8778   23.0236  -28.3024 C   0  0  0  0  0  0  0  0  0  0  0  0
   -0.5700   22.9892  -27.8811 C   0  0  0  0  0  0  0  0  0  0  0  0
    0.4559   23.1993  -28.7947 O   0  0  0  0  0  0  0  0  0  0  0  0
   -4.6115   21.9597  -28.2179 H   0  0  0  0  0  0  0  0  0  0  0  0
    1.4329   23.1866  -28.5451 H   0  0  0  0  0  0  0  0  0  0  0  0
   -2.2448   22.2429  -20.7639 C   0  0  0  0  0  0  0  0  0  0  0  0
   -3.3297   22.3881  -20.0140 O   0  0  0  0  0  0  0  0  0  0  0  0
   -3.7175   23.3029  -19.9512 H   0  0  0  0  0  0  0  0  0  0  0  0
   -3.9173   21.8035  -22.2979 N   0  0  0  0  0  0  0  0  0  0  0  0
   -4.2229   22.8144  -22.2471 H   0  0  0  0  0  0  0  0  0  0  0  0
   -4.3874   21.1547  -23.4818 C   0  0  0  0  0  0  0  0  0  0  0  0
   -5.5503   21.9701  -24.0280 C   0  0  0  0  0  0  0  0  0  0  0  0
   -6.6846   21.1368  -24.0175 O   0  0  0  0  0  0  0  0  0  0  0  0
   -6.5372   20.3525  -23.4221 H   0  0  0  0  0  0  0  0  0  0  0  0
   -5.8260   23.2610  -23.3458 C   0  0  0  0  0  0  0  0  0  0  0  0
   -7.1673   23.4310  -22.9939 O   0  0  0  0  0  0  0  0  0  0  0  0
   -7.7691   23.1456  -23.7217 H   0  0  0  0  0  0  0  0  0  0  0  0
   -5.4506   24.3295  -24.3471 C   0  0  0  0  0  0  0  0  0  0  0  0
   -4.5004   25.2791  -24.0771 C   0  0  0  0  0  0  0  0  0  0  0  0
   -4.1968   26.2477  -25.0413 C   0  0  0  0  0  0  0  0  0  0  0  0
   -4.8299   26.2674  -26.2507 C   0  0  0  0  0  0  0  0  0  0  0  0
   -5.7881   25.3146  -26.5293 C   0  0  0  0  0  0  0  0  0  0  0  0
   -6.0823   24.3523  -25.5588 C   0  0  0  0  0  0  0  0  0  0  0  0
   -6.4636   25.2772  -27.7321 O   0  0  0  0  0  0  0  0  0  0  0  0
   -5.8249   25.7043  -28.9125 C   0  0  0  0  0  0  0  0  0  0  0  0
  6  7  2  0  0  0
  7  5  1  0  0  0
  5  2  1  0  0  0
  2  3  1  0  0  0
  2  1  1  0  0  0
  1 19  1  0  0  0
 19 21  1  0  0  0
 21 22  1  0  0  0
 22 25  1  0  0  0
 25 28  1  0  0  0
 28 29  2  0  0  0
 29 30  1  0  0  0
 30 31  2  0  0  0
 31 32  1  0  0  0
 32 34  1  0  0  0
 34 35  1  0  0  0
 32 33  2  0  0  0
 25 26  1  0  0  0
 22 23  1  0  0  0
  1 16  1  0  0  0
 16 17  1  0  0  0
  7  8  1  0  0  0
  8  9  2  0  0  0
  9 10  1  0  0  0
  9 11  1  0  0  0
 11 12  2  0  0  0
 12 13  1  0  0  0
 12  6  1  0  0  0
 33 28  1  0  0  0
  3  4  1  0  0  0
 19 20  1  0  0  0
 26 27  1  0  0  0
 23 24  1  0  0  0
 17 18  1  0  0  0
 10 14  1  0  0  0
 13 15  1  0  0  0
M  END
> <minimizedAffinity>
-7.38896

> <CNNscore>
0.5313025117

> <CNNaffinity>
5.7844262123

> <CNN_VS>
3.0732800961

> <CNNaffinity_variance>
0.1888778657

$$$$
[H]Oc1c([H])c(O[H])c([H])c(C([H])([H])[C@]([H])(O[H])[C@]([H])(N([H])C([H])([H])[C@@]([H])(O[H])[C@]([H])(O[H])c2c([H])c([H])c([H])c(OC([H])([H])[H])c2[H])C([H])([H])O[H])c1[H]


 35 36  0  0  0  0  0  0  0  0999 V2000
   -4.3245   22.3194  -22.9838 C   0  0  0  0  0  0  0  0  0  0  0  0
   -3.9542   23.0876  -24.1924 C   0  0  0  0  0  0  0  0  0  0  0  0
   -3.3211   24.2954  -23.9223 O   0  0  0  0  0  0  0  0  0  0  0  0
   -2.4457   24.2028  -23.5194 H   0  0  0  0  0  0  0  0  0  0  0  0
   -3.5393   22.3292  -25.3747 C   0  0  0  0  0  0  0  0  0  0  0  0
   -1.9940   22.8555  -27.2398 C   0  0  0  0  0  0  0  0  0  0  0  0
   -2.2181   22.3980  -25.9420 C   0  0  0  0  0  0  0  0  0  0  0  0
   -1.1081   21.9962  -25.1990 C   0  0  0  0  0  0  0  0  0  0  0  0
    0.1819   22.0306  -25.6823 C   0  0  0  0  0  0  0  0  0  0  0  0
    1.2940   21.6292  -24.9307 O   0  0  0  0  0  0  0  0  0  0  0  0
    0.3424   22.4902  -26.9712 C   0  0  0  0  0  0  0  0  0  0  0  0
   -0.7252   22.8953  -27.7360 C   0  0  0  0  0  0  0  0  0  0  0  0
   -0.5131   23.3526  -29.0311 O   0  0  0  0  0  0  0  0  0  0  0  0
    1.7284   22.3754  -24.3869 H   0  0  0  0  0  0  0  0  0  0  0  0
   -1.2557   23.6621  -29.6392 H   0  0  0  0  0  0  0  0  0  0  0  0
   -3.3187   22.5555  -21.8355 C   0  0  0  0  0  0  0  0  0  0  0  0
   -3.4237   23.6799  -21.1391 O   0  0  0  0  0  0  0  0  0  0  0  0
   -2.8610   24.4476  -21.4314 H   0  0  0  0  0  0  0  0  0  0  0  0
   -5.5547   22.8471  -22.3440 N   0  0  0  0  0  0  0  0  0  0  0  0
   -5.2379   23.5846  -21.6558 H   0  0  0  0  0  0  0  0  0  0  0  0
   -6.4674   23.3676  -23.3134 C   0  0  0  0  0  0  0  0  0  0  0  0
   -6.8751   24.7635  -22.8653 C   0  0  0  0  0  0  0  0  0  0  0  0
   -5.7284   25.3811  -22.3315 O   0  0  0  0  0  0  0  0  0  0  0  0
   -4.9056   24.8999  -22.6193 H   0  0  0  0  0  0  0  0  0  0  0  0
   -7.5184   25.6225  -23.8930 C   0  0  0  0  0  0  0  0  0  0  0  0
   -8.7849   25.1771  -24.2794 O   0  0  0  0  0  0  0  0  0  0  0  0
   -8.7985   24.1991  -24.4081 H   0  0  0  0  0  0  0  0  0  0  0  0
   -6.6000   25.5653  -25.0924 C   0  0  0  0  0  0  0  0  0  0  0  0
   -5.5530   26.4349  -25.2502 C   0  0  0  0  0  0  0  0  0  0  0  0
   -4.7379   26.3379  -26.3844 C   0  0  0  0  0  0  0  0  0  0  0  0
   -4.9644   25.3912  -27.3416 C   0  0  0  0  0  0  0  0  0  0  0  0
   -6.0171   24.5125  -27.1896 C   0  0  0  0  0  0  0  0  0  0  0  0
   -6.8237   24.6189  -26.0528 C   0  0  0  0  0  0  0  0  0  0  0  0
   -6.2997   23.5317  -28.1185 O   0  0  0  0  0  0  0  0  0  0  0  0
   -5.4755   23.3742  -29.2497 C   0  0  0  0  0  0  0  0  0  0  0  0
  6  7  2  0  0  0
  7  5  1  0  0  0
  5  2  1  0  0  0
  2  3  1  0  0  0
  2  1  1  0  0  0
  1 19  1  0  0  0
 19 21  1  0  0  0
 21 22  1  0  0  0
 22 25  1  0  0  0
 25 28  1  0  0  0
 28 29  2  0  0  0
 29 30  1  0  0  0
 30 31  2  0  0  0
 31 32  1  0  0  0
 32 34  1  0  0  0
 34 35  1  0  0  0
 32 33  2  0  0  0
 25 26  1  0  0  0
 22 23  1  0  0  0
  1 16  1  0  0  0
 16 17  1  0  0  0
  7  8  1  0  0  0
  8  9  2  0  0  0
  9 10  1  0  0  0
  9 11  1  0  0  0
 11 12  2  0  0  0
 12 13  1  0  0  0
 12  6  1  0  0  0
 33 28  1  0  0  0
  3  4  1  0  0  0
 19 20  1  0  0  0
 26 27  1  0  0  0
 23 24  1  0  0  0
 17 18  1  0  0  0
 10 14  1  0  0  0
 13 15  1  0  0  0
M  END
> <minimizedAffinity>
-8.03999

> <CNNscore>
0.4574447572

> <CNNaffinity>
5.7011022568

> <CNN_VS>
2.6079392433

> <CNNaffinity_variance>
0.4939641058

$$$$
[H]Oc1c([H])c(O[H])c([H])c(C([H])([H])[C@]([H])(O[H])[C@]([H])(N([H])C([H])([H])[C@@]([H])(O[H])[C@]([H])(O[H])c2c([H])c([H])c([H])c(OC([H])([H])[H])c2[H])C([H])([H])O[H])c1[H]


 35 36  0  0  0  0  0  0  0  0999 V2000
   -4.2208   22.6093  -23.3133 C   0  0  0  0  0  0  0  0  0  0  0  0
   -3.8257   21.6200  -24.3395 C   0  0  0  0  0  0  0  0  0  0  0  0
   -4.5636   20.4425  -24.3029 O   0  0  0  0  0  0  0  0  0  0  0  0
   -5.4962   20.5515  -24.5391 H   0  0  0  0  0  0  0  0  0  0  0  0
   -3.3902   22.1327  -25.6405 C   0  0  0  0  0  0  0  0  0  0  0  0
   -1.6318   22.7307  -27.2818 C   0  0  0  0  0  0  0  0  0  0  0  0
   -2.0088   22.2585  -26.0254 C   0  0  0  0  0  0  0  0  0  0  0  0
   -0.9929   21.8995  -25.1396 C   0  0  0  0  0  0  0  0  0  0  0  0
    0.3477   21.9892  -25.4454 C   0  0  0  0  0  0  0  0  0  0  0  0
    1.3646   21.6308  -24.5508 O   0  0  0  0  0  0  0  0  0  0  0  0
    0.6606   22.4608  -26.7015 C   0  0  0  0  0  0  0  0  0  0  0  0
   -0.3106   22.8250  -27.6033 C   0  0  0  0  0  0  0  0  0  0  0  0
    0.0542   23.2964  -28.8587 O   0  0  0  0  0  0  0  0  0  0  0  0
    1.6907   22.3918  -23.9545 H   0  0  0  0  0  0  0  0  0  0  0  0
   -0.6123   23.5777  -29.5613 H   0  0  0  0  0  0  0  0  0  0  0  0
   -3.8337   22.1357  -21.8950 C   0  0  0  0  0  0  0  0  0  0  0  0
   -2.9074   21.1921  -21.7864 O   0  0  0  0  0  0  0  0  0  0  0  0
   -3.2253   20.2507  -21.7238 H   0  0  0  0  0  0  0  0  0  0  0  0
   -3.4052   23.8464  -23.3894 N   0  0  0  0  0  0  0  0  0  0  0  0
   -3.2805   24.0563  -24.4181 H   0  0  0  0  0  0  0  0  0  0  0  0
   -4.0253   24.9266  -22.6877 C   0  0  0  0  0  0  0  0  0  0  0  0
   -5.3354   25.2472  -23.3923 C   0  0  0  0  0  0  0  0  0  0  0  0
   -6.2281   25.7249  -22.4147 O   0  0  0  0  0  0  0  0  0  0  0  0
   -5.7348   25.9996  -21.5945 H   0  0  0  0  0  0  0  0  0  0  0  0
   -5.2508   26.1813  -24.5447 C   0  0  0  0  0  0  0  0  0  0  0  0
   -6.2433   27.1645  -24.5403 O   0  0  0  0  0  0  0  0  0  0  0  0
   -7.1235   26.7860  -24.3050 H   0  0  0  0  0  0  0  0  0  0  0  0
   -5.4324   25.3179  -25.7723 C   0  0  0  0  0  0  0  0  0  0  0  0
   -6.3993   24.3499  -25.8454 C   0  0  0  0  0  0  0  0  0  0  0  0
   -6.5181   23.5768  -27.0066 C   0  0  0  0  0  0  0  0  0  0  0  0
   -5.6873   23.7669  -28.0731 C   0  0  0  0  0  0  0  0  0  0  0  0
   -4.7110   24.7395  -28.0064 C   0  0  0  0  0  0  0  0  0  0  0  0
   -4.6025   25.5053  -26.8419 C   0  0  0  0  0  0  0  0  0  0  0  0
   -3.8404   24.9839  -29.0490 O   0  0  0  0  0  0  0  0  0  0  0  0
   -4.2562   25.7631  -30.1461 C   0  0  0  0  0  0  0  0  0  0  0  0
  6  7  2  0  0  0
  7  5  1  0  0  0
  5  2  1  0  0  0
  2  3  1  0  0  0
  2  1  1  0  0  0
  1 19  1  0  0  0
 19 21  1  0  0  0
 21 22  1  0  0  0
 22 25  1  0  0  0
 25 28  1  0  0  0
 28 29  2  0  0  0
 29 30  1  0  0  0
 30 31  2  0  0  0
 31 32  1  0  0  0
 32 34  1  0  0  0
 34 35  1  0  0  0
 32 33  2  0  0  0
 25 26  1  0  0  0
 22 23  1  0  0  0
  1 16  1  0  0  0
 16 17  1  0  0  0
  7  8  1  0  0  0
  8  9  2  0  0  0
  9 10  1  0  0  0
  9 11  1  0  0  0
 11 12  2  0  0  0
 12 13  1  0  0  0
 12  6  1  0  0  0
 33 28  1  0  0  0
  3  4  1  0  0  0
 19 20  1  0  0  0
 26 27  1  0  0  0
 23 24  1  0  0  0
 17 18  1  0  0  0
 10 14  1  0  0  0
 13 15  1  0  0  0
M  END
> <minimizedAffinity>
-8.32880

> <CNNscore>
0.3883567452

> <CNNaffinity>
5.8131089211

> <CNN_VS>
2.2575600147

> <CNNaffinity_variance>
0.2525747716

$$$$
[H]Oc1c([H])c(O[H])c([H])c(C([H])([H])[C@]([H])(O[H])[C@]([H])(N([H])C([H])([H])[C@@]([H])(O[H])[C@]([H])(O[H])c2c([H])c([H])c([H])c(OC([H])([H])[H])c2[H])C([H])([H])O[H])c1[H]


 35 36  0  0  0  0  0  0  0  0999 V2000
   -4.7272   25.3663  -28.2905 C   0  0  0  0  0  0  0  0  0  0  0  0
   -4.8952   23.8999  -28.1936 C   0  0  0  0  0  0  0  0  0  0  0  0
   -6.1517   23.4483  -28.5805 O   0  0  0  0  0  0  0  0  0  0  0  0
   -6.3433   23.5675  -29.5220 H   0  0  0  0  0  0  0  0  0  0  0  0
   -3.7293   23.0648  -28.4910 C   0  0  0  0  0  0  0  0  0  0  0  0
   -1.3354   22.9150  -27.8663 C   0  0  0  0  0  0  0  0  0  0  0  0
   -2.6849   22.7872  -27.5401 C   0  0  0  0  0  0  0  0  0  0  0  0
   -2.9993   22.3698  -26.2468 C   0  0  0  0  0  0  0  0  0  0  0  0
   -2.0501   22.0822  -25.2902 C   0  0  0  0  0  0  0  0  0  0  0  0
   -2.3710   21.6667  -23.9912 O   0  0  0  0  0  0  0  0  0  0  0  0
   -0.7333   22.2246  -25.6696 C   0  0  0  0  0  0  0  0  0  0  0  0
   -0.3820   22.6333  -26.9339 C   0  0  0  0  0  0  0  0  0  0  0  0
    0.9603   22.7635  -27.2698 O   0  0  0  0  0  0  0  0  0  0  0  0
   -2.4781   22.4265  -23.3186 H   0  0  0  0  0  0  0  0  0  0  0  0
    1.2787   23.0584  -28.1801 H   0  0  0  0  0  0  0  0  0  0  0  0
   -5.2361   25.9037  -29.6463 C   0  0  0  0  0  0  0  0  0  0  0  0
   -6.5476   25.9889  -29.8281 O   0  0  0  0  0  0  0  0  0  0  0  0
   -6.9945   25.2167  -30.2699 H   0  0  0  0  0  0  0  0  0  0  0  0
   -5.6450   26.0933  -27.3791 N   0  0  0  0  0  0  0  0  0  0  0  0
   -6.3013   25.3675  -26.9787 H   0  0  0  0  0  0  0  0  0  0  0  0
   -4.9260   26.7936  -26.3611 C   0  0  0  0  0  0  0  0  0  0  0  0
   -5.1073   26.0316  -25.0565 C   0  0  0  0  0  0  0  0  0  0  0  0
   -4.3472   26.6970  -24.0764 O   0  0  0  0  0  0  0  0  0  0  0  0
   -4.1168   27.6177  -24.3774 H   0  0  0  0  0  0  0  0  0  0  0  0
   -6.5076   25.8277  -24.6031 C   0  0  0  0  0  0  0  0  0  0  0  0
   -6.9018   26.7100  -23.5943 O   0  0  0  0  0  0  0  0  0  0  0  0
   -6.1969   26.8144  -22.9120 H   0  0  0  0  0  0  0  0  0  0  0  0
   -6.5484   24.4192  -24.0555 C   0  0  0  0  0  0  0  0  0  0  0  0
   -6.0542   23.3505  -24.7564 C   0  0  0  0  0  0  0  0  0  0  0  0
   -6.1232   22.0672  -24.2010 C   0  0  0  0  0  0  0  0  0  0  0  0
   -6.6751   21.8558  -22.9704 C   0  0  0  0  0  0  0  0  0  0  0  0
   -7.1751   22.9271  -22.2591 C   0  0  0  0  0  0  0  0  0  0  0  0
   -7.1001   24.2037  -22.8238 C   0  0  0  0  0  0  0  0  0  0  0  0
   -7.7439   22.7826  -21.0100 O   0  0  0  0  0  0  0  0  0  0  0  0
   -8.5301   21.6505  -20.7205 C   0  0  0  0  0  0  0  0  0  0  0  0
  6  7  2  0  0  0
  7  5  1  0  0  0
  5  2  1  0  0  0
  2  3  1  0  0  0
  2  1  1  0  0  0
  1 19  1  0  0  0
 19 21  1  0  0  0
 21 22  1  0  0  0
 22 25  1  0  0  0
 25 28  1  0  0  0
 28 29  2  0  0  0
 29 30  1  0  0  0
 30 31  2  0  0  0
 31 32  1  0  0  0
 32 34  1  0  0  0
 34 35  1  0  0  0
 32 33  2  0  0  0
 25 26  1  0  0  0
 22 23  1  0  0  0
  1 16  1  0  0  0
 16 17  1  0  0  0
  7  8  1  0  0  0
  8  9  2  0  0  0
  9 10  1  0  0  0
  9 11  1  0  0  0
 11 12  2  0  0  0
 12 13  1  0  0  0
 12  6  1  0  0  0
 33 28  1  0  0  0
  3  4  1  0  0  0
 19 20  1  0  0  0
 26 27  1  0  0  0
 23 24  1  0  0  0
 17 18  1  0  0  0
 10 14  1  0  0  0
 13 15  1  0  0  0
M  END
> <minimizedAffinity>
-8.70532

> <CNNscore>
0.3764920235

> <CNNaffinity>
5.8325295448

> <CNN_VS>
2.1959009171

> <CNNaffinity_variance>
0.1049112454

$$$$
[H]Oc1c([H])c(O[H])c([H])c(C([H])([H])[C@]([H])(O[H])[C@]([H])(N([H])C([H])([H])[C@@]([H])(O[H])[C@]([H])(O[H])c2c([H])c([H])c([H])c(OC([H])([H])[H])c2[H])C([H])([H])O[H])c1[H]


 35 36  0  0  0  0  0  0  0  0999 V2000
   -4.7923   25.3664  -28.2593 C   0  0  0  0  0  0  0  0  0  0  0  0
   -4.9190   23.9036  -28.0803 C   0  0  0  0  0  0  0  0  0  0  0  0
   -6.1835   23.4060  -28.3728 O   0  0  0  0  0  0  0  0  0  0  0  0
   -6.4297   23.4729  -29.3067 H   0  0  0  0  0  0  0  0  0  0  0  0
   -3.7513   23.0797  -28.4011 C   0  0  0  0  0  0  0  0  0  0  0  0
   -2.9872   22.3688  -26.1529 C   0  0  0  0  0  0  0  0  0  0  0  0
   -2.7082   22.7744  -27.4573 C   0  0  0  0  0  0  0  0  0  0  0  0
   -1.3674   22.8838  -27.8259 C   0  0  0  0  0  0  0  0  0  0  0  0
   -0.3206   22.6129  -26.9716 C   0  0  0  0  0  0  0  0  0  0  0  0
    1.0246   22.7209  -27.3478 O   0  0  0  0  0  0  0  0  0  0  0  0
   -0.6565   22.2181  -25.6951 C   0  0  0  0  0  0  0  0  0  0  0  0
   -1.9652   22.0980  -25.2928 C   0  0  0  0  0  0  0  0  0  0  0  0
   -2.2545   21.6950  -23.9946 O   0  0  0  0  0  0  0  0  0  0  0  0
    1.4260   21.8653  -27.7326 H   0  0  0  0  0  0  0  0  0  0  0  0
   -3.1936   21.5897  -23.6423 H   0  0  0  0  0  0  0  0  0  0  0  0
   -5.3458   25.8169  -29.6292 C   0  0  0  0  0  0  0  0  0  0  0  0
   -6.6573   25.9804  -29.7459 O   0  0  0  0  0  0  0  0  0  0  0  0
   -7.1813   25.2065  -30.0890 H   0  0  0  0  0  0  0  0  0  0  0  0
   -5.7081   26.1179  -27.3661 N   0  0  0  0  0  0  0  0  0  0  0  0
   -6.4881   25.4508  -27.1123 H   0  0  0  0  0  0  0  0  0  0  0  0
   -5.0244   26.6152  -26.2133 C   0  0  0  0  0  0  0  0  0  0  0  0
   -5.7701   26.1218  -24.9820 C   0  0  0  0  0  0  0  0  0  0  0  0
   -6.3346   27.2495  -24.3571 O   0  0  0  0  0  0  0  0  0  0  0  0
   -6.3588   28.0221  -24.9848 H   0  0  0  0  0  0  0  0  0  0  0  0
   -6.7914   25.0670  -25.2106 C   0  0  0  0  0  0  0  0  0  0  0  0
   -8.0690   25.4226  -24.7715 O   0  0  0  0  0  0  0  0  0  0  0  0
   -8.0367   25.8628  -23.8892 H   0  0  0  0  0  0  0  0  0  0  0  0
   -6.3200   23.8750  -24.4090 C   0  0  0  0  0  0  0  0  0  0  0  0
   -6.3606   22.5996  -24.9080 C   0  0  0  0  0  0  0  0  0  0  0  0
   -5.9148   21.5331  -24.1181 C   0  0  0  0  0  0  0  0  0  0  0  0
   -5.4385   21.7367  -22.8550 C   0  0  0  0  0  0  0  0  0  0  0  0
   -5.3952   23.0182  -22.3458 C   0  0  0  0  0  0  0  0  0  0  0  0
   -5.8425   24.0750  -23.1441 C   0  0  0  0  0  0  0  0  0  0  0  0
   -4.9239   23.2930  -21.0781 O   0  0  0  0  0  0  0  0  0  0  0  0
   -3.9041   22.4992  -20.5182 C   0  0  0  0  0  0  0  0  0  0  0  0
  6  7  2  0  0  0
  7  5  1  0  0  0
  5  2  1  0  0  0
  2  3  1  0  0  0
  2  1  1  0  0  0
  1 19  1  0  0  0
 19 21  1  0  0  0
 21 22  1  0  0  0
 22 25  1  0  0  0
 25 28  1  0  0  0
 28 29  2  0  0  0
 29 30  1  0  0  0
 30 31  2  0  0  0
 31 32  1  0  0  0
 32 34  1  0  0  0
 34 35  1  0  0  0
 32 33  2  0  0  0
 25 26  1  0  0  0
 22 23  1  0  0  0
  1 16  1  0  0  0
 16 17  1  0  0  0
  7  8  1  0  0  0
  8  9  2  0  0  0
  9 10  1  0  0  0
  9 11  1  0  0  0
 11 12  2  0  0  0
 12 13  1  0  0  0
 12  6  1  0  0  0
 33 28  1  0  0  0
  3  4  1  0  0  0
 19 20  1  0  0  0
 26 27  1  0  0  0
 23 24  1  0  0  0
 17 18  1  0  0  0
 10 14  1  0  0  0
 13 15  1  0  0  0
M  END
> <minimizedAffinity>
-8.50928

> <CNNscore>
0.3243688047

> <CNNaffinity>
5.8373742104

> <CNN_VS>
1.8934620619

> <CNNaffinity_variance>
0.1943280697

$$$$
[H]Oc1c([H])c(O[H])c([H])c(C([H])([H])[C@]([H])(O[H])[C@]([H])(N([H])C([H])([H])[C@@]([H])(O[H])[C@]([H])(O[H])c2c([H])c([H])c([H])c(OC([H])([H])[H])c2[H])C([H])([H])O[H])c1[H]


 35 36  0  0  0  0  0  0  0  0999 V2000
   -5.8908   22.5218  -23.5840 C   0  0  0  0  0  0  0  0  0  0  0  0
   -4.4441   22.2213  -23.5157 C   0  0  0  0  0  0  0  0  0  0  0  0
   -3.9742   21.9954  -22.2271 O   0  0  0  0  0  0  0  0  0  0  0  0
   -4.3223   21.1924  -21.8132 H   0  0  0  0  0  0  0  0  0  0  0  0
   -3.8604   21.4535  -24.6180 C   0  0  0  0  0  0  0  0  0  0  0  0
   -1.4218   21.8491  -24.8182 C   0  0  0  0  0  0  0  0  0  0  0  0
   -2.7050   21.8812  -25.3625 C   0  0  0  0  0  0  0  0  0  0  0  0
   -2.8404   22.3530  -26.6681 C   0  0  0  0  0  0  0  0  0  0  0  0
   -1.7785   22.7828  -27.4339 C   0  0  0  0  0  0  0  0  0  0  0  0
   -1.9192   23.2526  -28.7463 O   0  0  0  0  0  0  0  0  0  0  0  0
   -0.5348   22.7300  -26.8435 C   0  0  0  0  0  0  0  0  0  0  0  0
   -0.3591   22.2717  -25.5598 C   0  0  0  0  0  0  0  0  0  0  0  0
    0.9156   22.2361  -25.0074 O   0  0  0  0  0  0  0  0  0  0  0  0
   -1.8408   22.5316  -29.4641 H   0  0  0  0  0  0  0  0  0  0  0  0
    1.1065   21.9112  -24.0719 H   0  0  0  0  0  0  0  0  0  0  0  0
   -6.7419   21.2700  -23.2767 C   0  0  0  0  0  0  0  0  0  0  0  0
   -7.3880   21.2271  -22.1186 O   0  0  0  0  0  0  0  0  0  0  0  0
   -6.9293   20.7726  -21.3608 H   0  0  0  0  0  0  0  0  0  0  0  0
   -6.3309   23.3967  -22.4695 N   0  0  0  0  0  0  0  0  0  0  0  0
   -5.5054   24.0137  -22.2333 H   0  0  0  0  0  0  0  0  0  0  0  0
   -7.4895   24.1551  -22.8249 C   0  0  0  0  0  0  0  0  0  0  0  0
   -7.2715   24.7071  -24.2261 C   0  0  0  0  0  0  0  0  0  0  0  0
   -8.5162   25.1746  -24.6879 O   0  0  0  0  0  0  0  0  0  0  0  0
   -9.1489   25.2942  -23.9284 H   0  0  0  0  0  0  0  0  0  0  0  0
   -6.2210   25.7486  -24.3665 C   0  0  0  0  0  0  0  0  0  0  0  0
   -6.7051   27.0518  -24.2288 O   0  0  0  0  0  0  0  0  0  0  0  0
   -7.5554   27.1729  -24.7141 H   0  0  0  0  0  0  0  0  0  0  0  0
   -5.6780   25.5810  -25.7673 C   0  0  0  0  0  0  0  0  0  0  0  0
   -4.7601   26.4470  -26.3011 C   0  0  0  0  0  0  0  0  0  0  0  0
   -4.2956   26.2449  -27.6064 C   0  0  0  0  0  0  0  0  0  0  0  0
   -4.7395   25.1990  -28.3631 C   0  0  0  0  0  0  0  0  0  0  0  0
   -5.6641   24.3232  -27.8323 C   0  0  0  0  0  0  0  0  0  0  0  0
   -6.1200   24.5350  -26.5279 C   0  0  0  0  0  0  0  0  0  0  0  0
   -6.1520   23.2453  -28.5427 O   0  0  0  0  0  0  0  0  0  0  0  0
   -5.4130   22.7184  -29.6197 C   0  0  0  0  0  0  0  0  0  0  0  0
  6  7  2  0  0  0
  7  5  1  0  0  0
  5  2  1  0  0  0
  2  3  1  0  0  0
  2  1  1  0  0  0
  1 19  1  0  0  0
 19 21  1  0  0  0
 21 22  1  0  0  0
 22 25  1  0  0  0
 25 28  1  0  0  0
 28 29  2  0  0  0
 29 30  1  0  0  0
 30 31  2  0  0  0
 31 32  1  0  0  0
 32 34  1  0  0  0
 34 35  1  0  0  0
 32 33  2  0  0  0
 25 26  1  0  0  0
 22 23  1  0  0  0
  1 16  1  0  0  0
 16 17  1  0  0  0
  7  8  1  0  0  0
  8  9  2  0  0  0
  9 10  1  0  0  0
  9 11  1  0  0  0
 11 12  2  0  0  0
 12 13  1  0  0  0
 12  6  1  0  0  0
 33 28  1  0  0  0
  3  4  1  0  0  0
 19 20  1  0  0  0
 26 27  1  0  0  0
 23 24  1  0  0  0
 17 18  1  0  0  0
 10 14  1  0  0  0
 13 15  1  0  0  0
M  END
> <minimizedAffinity>
-7.37487

> <CNNscore>
0.3149636388

> <CNNaffinity>
5.6918625832

> <CNN_VS>
1.7927297354

> <CNNaffinity_variance>
0.2424954474

$$$$
[H]Oc1c([H])c(O[H])c([H])c(C([H])([H])[C@]([H])(O[H])[C@]([H])(N([H])C([H])([H])[C@@]([H])(O[H])[C@]([H])(O[H])c2c([H])c([H])c([H])c(OC([H])([H])[H])c2[H])C([H])([H])O[H])c1[H]


 35 36  0  0  0  0  0  0  0  0999 V2000
   -3.2899   23.3739  -22.3162 C   0  0  0  0  0  0  0  0  0  0  0  0
   -3.3551   22.0854  -23.0397 C   0  0  0  0  0  0  0  0  0  0  0  0
   -4.0421   21.0882  -22.3570 O   0  0  0  0  0  0  0  0  0  0  0  0
   -4.9894   21.2593  -22.2529 H   0  0  0  0  0  0  0  0  0  0  0  0
   -3.4613   22.1345  -24.4996 C   0  0  0  0  0  0  0  0  0  0  0  0
   -1.0330   21.9448  -24.9587 C   0  0  0  0  0  0  0  0  0  0  0  0
   -2.3266   22.2535  -25.3773 C   0  0  0  0  0  0  0  0  0  0  0  0
   -2.4919   22.6940  -26.6904 C   0  0  0  0  0  0  0  0  0  0  0  0
   -1.4495   22.8360  -27.5804 C   0  0  0  0  0  0  0  0  0  0  0  0
   -1.6211   23.2755  -28.8995 O   0  0  0  0  0  0  0  0  0  0  0  0
   -0.1938   22.5180  -27.1108 C   0  0  0  0  0  0  0  0  0  0  0  0
    0.0112   22.0805  -25.8242 C   0  0  0  0  0  0  0  0  0  0  0  0
    1.2966   21.7706  -25.3965 O   0  0  0  0  0  0  0  0  0  0  0  0
   -1.7867   22.5294  -29.5756 H   0  0  0  0  0  0  0  0  0  0  0  0
    1.5088   21.4460  -24.4655 H   0  0  0  0  0  0  0  0  0  0  0  0
   -1.8354   23.7408  -21.9479 C   0  0  0  0  0  0  0  0  0  0  0  0
   -1.5009   23.7413  -20.6640 O   0  0  0  0  0  0  0  0  0  0  0  0
   -1.5594   24.6102  -20.1813 H   0  0  0  0  0  0  0  0  0  0  0  0
   -3.6172   24.5233  -23.1955 N   0  0  0  0  0  0  0  0  0  0  0  0
   -3.7047   24.1324  -24.1739 H   0  0  0  0  0  0  0  0  0  0  0  0
   -4.8095   25.1865  -22.7687 C   0  0  0  0  0  0  0  0  0  0  0  0
   -5.5682   25.6245  -24.0130 C   0  0  0  0  0  0  0  0  0  0  0  0
   -6.5739   26.5163  -23.5952 O   0  0  0  0  0  0  0  0  0  0  0  0
   -6.3815   26.8569  -22.6796 H   0  0  0  0  0  0  0  0  0  0  0  0
   -4.7526   26.2099  -25.1084 C   0  0  0  0  0  0  0  0  0  0  0  0
   -5.0791   27.5366  -25.3997 O   0  0  0  0  0  0  0  0  0  0  0  0
   -6.0563   27.6711  -25.4172 H   0  0  0  0  0  0  0  0  0  0  0  0
   -5.0500   25.3617  -26.3240 C   0  0  0  0  0  0  0  0  0  0  0  0
   -5.9159   24.3008  -26.2778 C   0  0  0  0  0  0  0  0  0  0  0  0
   -6.1495   23.5475  -27.4346 C   0  0  0  0  0  0  0  0  0  0  0  0
   -5.5302   23.8479  -28.6136 C   0  0  0  0  0  0  0  0  0  0  0  0
   -4.6567   24.9144  -28.6674 C   0  0  0  0  0  0  0  0  0  0  0  0
   -4.4319   25.6595  -27.5061 C   0  0  0  0  0  0  0  0  0  0  0  0
   -3.9998   25.2724  -29.8271 O   0  0  0  0  0  0  0  0  0  0  0  0
   -4.7355   25.6853  -30.9549 C   0  0  0  0  0  0  0  0  0  0  0  0
  6  7  2  0  0  0
  7  5  1  0  0  0
  5  2  1  0  0  0
  2  3  1  0  0  0
  2  1  1  0  0  0
  1 19  1  0  0  0
 19 21  1  0  0  0
 21 22  1  0  0  0
 22 25  1  0  0  0
 25 28  1  0  0  0
 28 29  2  0  0  0
 29 30  1  0  0  0
 30 31  2  0  0  0
 31 32  1  0  0  0
 32 34  1  0  0  0
 34 35  1  0  0  0
 32 33  2  0  0  0
 25 26  1  0  0  0
 22 23  1  0  0  0
  1 16  1  0  0  0
 16 17  1  0  0  0
  7  8  1  0  0  0
  8  9  2  0  0  0
  9 10  1  0  0  0
  9 11  1  0  0  0
 11 12  2  0  0  0
 12 13  1  0  0  0
 12  6  1  0  0  0
 33 28  1  0  0  0
  3  4  1  0  0  0
 19 20  1  0  0  0
 26 27  1  0  0  0
 23 24  1  0  0  0
 17 18  1  0  0  0
 10 14  1  0  0  0
 13 15  1  0  0  0
M  END
> <minimizedAffinity>
-8.12350

> <CNNscore>
0.2922477424

> <CNNaffinity>
5.7775778770

> <CNN_VS>
1.6884840727

> <CNNaffinity_variance>
0.2097506076

$$$$
[H]c1nc(N([H])c2c([H])c(N3C([H])([H])C([H])([H])OC([H])([H])C3([H])[H])c([H])c(N3C([H])([H])C([H])([H])OC([H])([H])C3([H])[H])c2[H])nc(N(c2c([H])c([H])c([H])c([H])c2C([H])([H])[H])C([H])([H])[H])c1[H]


 35 39  0  0  0  0  0  0  0  0999 V2000
    0.2711   21.8775  -23.9852 C   0  0  0  0  0  0  0  0  0  0  0  0
   -0.9584   22.3096  -23.5736 C   0  0  0  0  0  0  0  0  0  0  0  0
   -1.3958   22.1400  -22.2527 C   0  0  0  0  0  0  0  0  0  0  0  0
   -0.5439   21.5218  -21.3764 C   0  0  0  0  0  0  0  0  0  0  0  0
    0.7049   21.0658  -21.7296 C   0  0  0  0  0  0  0  0  0  0  0  0
    1.1014   21.2469  -23.0285 C   0  0  0  0  0  0  0  0  0  0  0  0
    1.5807   20.4199  -20.7851 N   0  0  0  0  0  0  0  0  0  0  0  0
    2.1789   21.1617  -19.7177 C   0  0  0  0  0  0  0  0  0  0  0  0
    3.2371   20.3674  -19.0232 C   0  0  0  0  0  0  0  0  0  0  0  0
    2.7660   19.0515  -18.8298 O   0  0  0  0  0  0  0  0  0  0  0  0
    2.8497   18.4340  -20.0546 C   0  0  0  0  0  0  0  0  0  0  0  0
    1.8195   19.0056  -20.9685 C   0  0  0  0  0  0  0  0  0  0  0  0
   -2.6963   22.6118  -21.8822 N   0  0  0  0  0  0  0  0  0  0  0  0
   -3.0990   23.9628  -22.2305 C   0  0  0  0  0  0  0  0  0  0  0  0
   -4.5661   24.1485  -21.8809 C   0  0  0  0  0  0  0  0  0  0  0  0
   -4.8270   23.8671  -20.5639 O   0  0  0  0  0  0  0  0  0  0  0  0
   -4.3405   22.6703  -20.1103 C   0  0  0  0  0  0  0  0  0  0  0  0
   -3.6670   21.8202  -21.1650 C   0  0  0  0  0  0  0  0  0  0  0  0
    0.7346   22.0076  -25.2926 N   0  0  0  0  0  0  0  0  0  0  0  0
    1.7540   21.7530  -25.4705 H   0  0  0  0  0  0  0  0  0  0  0  0
   -2.1424   22.9382  -27.3327 C   0  0  0  0  0  0  0  0  0  0  0  0
   -1.5732   23.2839  -28.5404 C   0  0  0  0  0  0  0  0  0  0  0  0
   -0.1818   23.2021  -28.6728 C   0  0  0  0  0  0  0  0  0  0  0  0
    0.5073   22.7899  -27.6077 N   0  0  0  0  0  0  0  0  0  0  0  0
    0.0133   22.4450  -26.4233 C   0  0  0  0  0  0  0  0  0  0  0  0
   -1.3581   22.5375  -26.3290 N   0  0  0  0  0  0  0  0  0  0  0  0
   -4.2347   22.5091  -26.0334 C   0  0  0  0  0  0  0  0  0  0  0  0
   -3.5556   23.0163  -27.1846 N   0  0  0  0  0  0  0  0  0  0  0  0
   -4.3359   23.6193  -28.2114 C   0  0  0  0  0  0  0  0  0  0  0  0
   -4.6903   22.8152  -29.2778 C   0  0  0  0  0  0  0  0  0  0  0  0
   -5.4513   23.3583  -30.3049 C   0  0  0  0  0  0  0  0  0  0  0  0
   -5.8540   24.6694  -30.2787 C   0  0  0  0  0  0  0  0  0  0  0  0
   -5.4824   25.4582  -29.1908 C   0  0  0  0  0  0  0  0  0  0  0  0
   -4.7312   24.9353  -28.1698 C   0  0  0  0  0  0  0  0  0  0  0  0
   -4.3223   25.7467  -27.0040 C   0  0  0  0  0  0  0  0  0  0  0  0
 27 28  1  0  0  0
 28 21  1  0  0  0
 21 22  2  0  0  0
 22 23  1  0  0  0
 23 24  2  0  0  0
 24 25  1  0  0  0
 25 19  1  0  0  0
 19  1  1  0  0  0
  1  2  2  0  0  0
  2  3  1  0  0  0
  3  4  2  0  0  0
  4  5  1  0  0  0
  5  6  2  0  0  0
  5  7  1  0  0  0
  7  8  1  0  0  0
  8  9  1  0  0  0
  9 10  1  0  0  0
 10 11  1  0  0  0
 11 12  1  0  0  0
  3 13  1  0  0  0
 13 14  1  0  0  0
 14 15  1  0  0  0
 15 16  1  0  0  0
 16 17  1  0  0  0
 17 18  1  0  0  0
 25 26  2  0  0  0
 28 29  1  0  0  0
 29 30  2  0  0  0
 30 31  1  0  0  0
 31 32  2  0  0  0
 32 33  1  0  0  0
 33 34  2  0  0  0
 34 35  1  0  0  0
 26 21  1  0  0  0
 34 29  1  0  0  0
  6  1  1  0  0  0
 12  7  1  0  0  0
 18 13  1  0  0  0
 19 20  1  0  0  0
M  END
> <minimizedAffinity>
-9.39599

> <CNNscore>
0.9187908173

> <CNNaffinity>
7.4984197617

> <CNN_VS>
6.8894791603

> <CNNaffinity_variance>
0.0109140249

$$$$
[H]c1nc(N([H])c2c([H])c(N3C([H])([H])C([H])([H])OC([H])([H])C3([H])[H])c([H])c(N3C([H])([H])C([H])([H])OC([H])([H])C3([H])[H])c2[H])nc(N(c2c([H])c([H])c([H])c([H])c2C([H])([H])[H])C([H])([H])[H])c1[H]


 35 39  0  0  0  0  0  0  0  0999 V2000
    0.2311   21.8596  -24.0254 C   0  0  0  0  0  0  0  0  0  0  0  0
    0.9311   21.2449  -23.0254 C   0  0  0  0  0  0  0  0  0  0  0  0
    0.4802   21.2503  -21.6981 C   0  0  0  0  0  0  0  0  0  0  0  0
   -0.6971   21.8970  -21.4305 C   0  0  0  0  0  0  0  0  0  0  0  0
   -1.4468   22.5330  -22.3925 C   0  0  0  0  0  0  0  0  0  0  0  0
   -0.9775   22.5092  -23.6796 C   0  0  0  0  0  0  0  0  0  0  0  0
   -2.6830   23.2046  -22.0815 N   0  0  0  0  0  0  0  0  0  0  0  0
   -3.4952   22.7701  -20.9863 C   0  0  0  0  0  0  0  0  0  0  0  0
   -4.8359   23.4298  -21.0019 C   0  0  0  0  0  0  0  0  0  0  0  0
   -4.6662   24.8001  -21.2927 O   0  0  0  0  0  0  0  0  0  0  0  0
   -4.4117   24.8739  -22.6411 C   0  0  0  0  0  0  0  0  0  0  0  0
   -3.0544   24.3230  -22.9194 C   0  0  0  0  0  0  0  0  0  0  0  0
    1.2594   20.5908  -20.6938 N   0  0  0  0  0  0  0  0  0  0  0  0
    0.7309   19.4123  -20.0300 C   0  0  0  0  0  0  0  0  0  0  0  0
    1.8129   18.8136  -19.1468 C   0  0  0  0  0  0  0  0  0  0  0  0
    2.3104   19.7205  -18.2459 O   0  0  0  0  0  0  0  0  0  0  0  0
    2.6891   20.9262  -18.7728 C   0  0  0  0  0  0  0  0  0  0  0  0
    2.5719   21.0241  -20.2779 C   0  0  0  0  0  0  0  0  0  0  0  0
    0.6551   21.8953  -25.3521 N   0  0  0  0  0  0  0  0  0  0  0  0
    1.6306   21.5185  -25.5569 H   0  0  0  0  0  0  0  0  0  0  0  0
   -2.1979   22.9403  -27.3704 C   0  0  0  0  0  0  0  0  0  0  0  0
   -1.6188   23.3105  -28.5661 C   0  0  0  0  0  0  0  0  0  0  0  0
   -0.2288   23.2061  -28.6976 C   0  0  0  0  0  0  0  0  0  0  0  0
    0.4492   22.7496  -27.6436 N   0  0  0  0  0  0  0  0  0  0  0  0
   -0.0546   22.3795  -26.4710 C   0  0  0  0  0  0  0  0  0  0  0  0
   -1.4243   22.4953  -26.3771 N   0  0  0  0  0  0  0  0  0  0  0  0
   -4.2979   22.5440  -26.0729 C   0  0  0  0  0  0  0  0  0  0  0  0
   -3.6098   23.0410  -27.2233 N   0  0  0  0  0  0  0  0  0  0  0  0
   -4.3796   23.6569  -28.2503 C   0  0  0  0  0  0  0  0  0  0  0  0
   -4.7179   22.8681  -29.3332 C   0  0  0  0  0  0  0  0  0  0  0  0
   -5.4682   23.4243  -30.3612 C   0  0  0  0  0  0  0  0  0  0  0  0
   -5.8759   24.7335  -30.3199 C   0  0  0  0  0  0  0  0  0  0  0  0
   -5.5207   25.5068  -29.2155 C   0  0  0  0  0  0  0  0  0  0  0  0
   -4.7801   24.9708  -28.1935 C   0  0  0  0  0  0  0  0  0  0  0  0
   -4.3886   25.7656  -27.0103 C   0  0  0  0  0  0  0  0  0  0  0  0
 27 28  1  0  0  0
 28 21  1  0  0  0
 21 22  2  0  0  0
 22 23  1  0  0  0
 23 24  2  0  0  0
 24 25  1  0  0  0
 25 19  1  0  0  0
 19  1  1  0  0  0
  1  2  2  0  0  0
  2  3  1  0  0  0
  3  4  2  0  0  0
  4  5  1  0  0  0
  5  6  2  0  0  0
  5  7  1  0  0  0
  7  8  1  0  0  0
  8  9  1  0  0  0
  9 10  1  0  0  0
 10 11  1  0  0  0
 11 12  1  0  0  0
  3 13  1  0  0  0
 13 14  1  0  0  0
 14 15  1  0  0  0
 15 16  1  0  0  0
 16 17  1  0  0  0
 17 18  1  0  0  0
 25 26  2  0  0  0
 28 29  1  0  0  0
 29 30  2  0  0  0
 30 31  1  0  0  0
 31 32  2  0  0  0
 32 33  1  0  0  0
 33 34  2  0  0  0
 34 35  1  0  0  0
 26 21  1  0  0  0
 34 29  1  0  0  0
  6  1  1  0  0  0
 12  7  1  0  0  0
 18 13  1  0  0  0
 19 20  1  0  0  0
M  END
> <minimizedAffinity>
-9.51493

> <CNNscore>
0.8926774263

> <CNNaffinity>
7.4554634094

> <CNN_VS>
6.6553239822

> <CNNaffinity_variance>
0.0129497917

$$$$
[H]c1nc(N([H])c2c([H])c(N3C([H])([H])C([H])([H])OC([H])([H])C3([H])[H])c([H])c(N3C([H])([H])C([H])([H])OC([H])([H])C3([H])[H])c2[H])nc(N(c2c([H])c([H])c([H])c([H])c2C([H])([H])[H])C([H])([H])[H])c1[H]


 35 39  0  0  0  0  0  0  0  0999 V2000
   -1.5772   21.7911  -23.5923 C   0  0  0  0  0  0  0  0  0  0  0  0
   -2.8923   22.0761  -23.3535 C   0  0  0  0  0  0  0  0  0  0  0  0
   -3.3743   22.3030  -22.0569 C   0  0  0  0  0  0  0  0  0  0  0  0
   -2.4772   22.2303  -21.0245 C   0  0  0  0  0  0  0  0  0  0  0  0
   -1.1424   21.9484  -21.2004 C   0  0  0  0  0  0  0  0  0  0  0  0
   -0.7041   21.7314  -22.4803 C   0  0  0  0  0  0  0  0  0  0  0  0
   -0.2210   21.8798  -20.0947 N   0  0  0  0  0  0  0  0  0  0  0  0
    0.9565   21.0705  -20.1739 C   0  0  0  0  0  0  0  0  0  0  0  0
    1.6251   20.9431  -18.8436 C   0  0  0  0  0  0  0  0  0  0  0  0
    1.6438   22.2087  -18.2199 O   0  0  0  0  0  0  0  0  0  0  0  0
    0.3666   22.4252  -17.7613 C   0  0  0  0  0  0  0  0  0  0  0  0
   -0.5423   22.6591  -18.9199 C   0  0  0  0  0  0  0  0  0  0  0  0
   -4.7639   22.5948  -21.8701 N   0  0  0  0  0  0  0  0  0  0  0  0
   -5.7660   21.7995  -22.5571 C   0  0  0  0  0  0  0  0  0  0  0  0
   -7.1442   22.1984  -22.0564 C   0  0  0  0  0  0  0  0  0  0  0  0
   -7.3809   23.5420  -22.1986 O   0  0  0  0  0  0  0  0  0  0  0  0
   -6.4017   24.3667  -21.7129 C   0  0  0  0  0  0  0  0  0  0  0  0
   -5.2585   23.6544  -21.0239 C   0  0  0  0  0  0  0  0  0  0  0  0
   -1.0628   21.5385  -24.8622 N   0  0  0  0  0  0  0  0  0  0  0  0
   -0.3118   20.7862  -24.9375 H   0  0  0  0  0  0  0  0  0  0  0  0
   -3.1869   23.0737  -27.3993 C   0  0  0  0  0  0  0  0  0  0  0  0
   -2.2954   23.4032  -28.3987 C   0  0  0  0  0  0  0  0  0  0  0  0
   -0.9409   23.1008  -28.2143 C   0  0  0  0  0  0  0  0  0  0  0  0
   -0.6007   22.5068  -27.0695 N   0  0  0  0  0  0  0  0  0  0  0  0
   -1.4142   22.1672  -26.0752 C   0  0  0  0  0  0  0  0  0  0  0  0
   -2.7387   22.4794  -26.2906 N   0  0  0  0  0  0  0  0  0  0  0  0
   -5.5453   23.0949  -26.5700 C   0  0  0  0  0  0  0  0  0  0  0  0
   -4.5666   23.3750  -27.5739 N   0  0  0  0  0  0  0  0  0  0  0  0
   -5.0046   23.9780  -28.7869 C   0  0  0  0  0  0  0  0  0  0  0  0
   -5.3051   23.1264  -29.8328 C   0  0  0  0  0  0  0  0  0  0  0  0
   -5.7363   23.6676  -31.0370 C   0  0  0  0  0  0  0  0  0  0  0  0
   -5.8680   25.0227  -31.2043 C   0  0  0  0  0  0  0  0  0  0  0  0
   -5.5582   25.8590  -30.1326 C   0  0  0  0  0  0  0  0  0  0  0  0
   -5.1312   25.3385  -28.9381 C   0  0  0  0  0  0  0  0  0  0  0  0
   -4.7956   26.1997  -27.7845 C   0  0  0  0  0  0  0  0  0  0  0  0
 27 28  1  0  0  0
 28 21  1  0  0  0
 21 22  2  0  0  0
 22 23  1  0  0  0
 23 24  2  0  0  0
 24 25  1  0  0  0
 25 19  1  0  0  0
 19  1  1  0  0  0
  1  2  2  0  0  0
  2  3  1  0  0  0
  3  4  2  0  0  0
  4  5  1  0  0  0
  5  6  2  0  0  0
  5  7  1  0  0  0
  7  8  1  0  0  0
  8  9  1  0  0  0
  9 10  1  0  0  0
 10 11  1  0  0  0
 11 12  1  0  0  0
  3 13  1  0  0  0
 13 14  1  0  0  0
 14 15  1  0  0  0
 15 16  1  0  0  0
 16 17  1  0  0  0
 17 18  1  0  0  0
 25 26  2  0  0  0
 28 29  1  0  0  0
 29 30  2  0  0  0
 30 31  1  0  0  0
 31 32  2  0  0  0
 32 33  1  0  0  0
 33 34  2  0  0  0
 34 35  1  0  0  0
 26 21  1  0  0  0
 34 29  1  0  0  0
  6  1  1  0  0  0
 12  7  1  0  0  0
 18 13  1  0  0  0
 19 20  1  0  0  0
M  END
> <minimizedAffinity>
-8.41536

> <CNNscore>
0.2776632905

> <CNNaffinity>
6.9147310257

> <CNN_VS>
1.9199669361

> <CNNaffinity_variance>
0.0840751901

$$$$
[H]c1nc(N([H])c2c([H])c(N3C([H])([H])C([H])([H])OC([H])([H])C3([H])[H])c([H])c(N3C([H])([H])C([H])([H])OC([H])([H])C3([H])[H])c2[H])nc(N(c2c([H])c([H])c([H])c([H])c2C([H])([H])[H])C([H])([H])[H])c1[H]


 35 39  0  0  0  0  0  0  0  0999 V2000
   -2.3660   21.8681  -23.9024 C   0  0  0  0  0  0  0  0  0  0  0  0
   -3.6076   22.2943  -23.5220 C   0  0  0  0  0  0  0  0  0  0  0  0
   -3.8817   22.6852  -22.2040 C   0  0  0  0  0  0  0  0  0  0  0  0
   -2.8557   22.6273  -21.2985 C   0  0  0  0  0  0  0  0  0  0  0  0
   -1.5856   22.2083  -21.6198 C   0  0  0  0  0  0  0  0  0  0  0  0
   -1.3515   21.8328  -22.9165 C   0  0  0  0  0  0  0  0  0  0  0  0
   -0.5250   22.1590  -20.6457 N   0  0  0  0  0  0  0  0  0  0  0  0
    0.5564   21.2329  -20.7890 C   0  0  0  0  0  0  0  0  0  0  0  0
    1.3948   21.1729  -19.5535 C   0  0  0  0  0  0  0  0  0  0  0  0
    1.6093   22.4863  -19.0841 O   0  0  0  0  0  0  0  0  0  0  0  0
    0.4336   22.8733  -18.4873 C   0  0  0  0  0  0  0  0  0  0  0  0
   -0.6082   23.0797  -19.5338 C   0  0  0  0  0  0  0  0  0  0  0  0
   -5.2035   23.1201  -21.8657 N   0  0  0  0  0  0  0  0  0  0  0  0
   -6.3344   22.6738  -22.6598 C   0  0  0  0  0  0  0  0  0  0  0  0
   -7.6205   23.1318  -21.9924 C   0  0  0  0  0  0  0  0  0  0  0  0
   -7.6481   24.4884  -21.7916 O   0  0  0  0  0  0  0  0  0  0  0  0
   -6.5403   25.0161  -21.1839 C   0  0  0  0  0  0  0  0  0  0  0  0
   -5.5054   23.9974  -20.7599 C   0  0  0  0  0  0  0  0  0  0  0  0
   -2.0582   21.4513  -25.1957 N   0  0  0  0  0  0  0  0  0  0  0  0
   -1.6910   20.4572  -25.3074 H   0  0  0  0  0  0  0  0  0  0  0  0
   -3.5371   23.6556  -27.6975 C   0  0  0  0  0  0  0  0  0  0  0  0
   -2.5691   23.7126  -28.6783 C   0  0  0  0  0  0  0  0  0  0  0  0
   -1.3847   22.9893  -28.4931 C   0  0  0  0  0  0  0  0  0  0  0  0
   -1.2720   22.2852  -27.3659 N   0  0  0  0  0  0  0  0  0  0  0  0
   -2.1692   22.1939  -26.3900 C   0  0  0  0  0  0  0  0  0  0  0  0
   -3.3215   22.9178  -26.6056 N   0  0  0  0  0  0  0  0  0  0  0  0
   -5.4844   24.3622  -29.0971 C   0  0  0  0  0  0  0  0  0  0  0  0
   -4.7459   24.3856  -27.8732 N   0  0  0  0  0  0  0  0  0  0  0  0
   -5.2520   25.1726  -26.8003 C   0  0  0  0  0  0  0  0  0  0  0  0
   -4.6230   26.3798  -26.5627 C   0  0  0  0  0  0  0  0  0  0  0  0
   -5.0805   27.1831  -25.5261 C   0  0  0  0  0  0  0  0  0  0  0  0
   -6.1381   26.8013  -24.7404 C   0  0  0  0  0  0  0  0  0  0  0  0
   -6.7544   25.5784  -25.0021 C   0  0  0  0  0  0  0  0  0  0  0  0
   -6.3132   24.7751  -26.0220 C   0  0  0  0  0  0  0  0  0  0  0  0
   -6.9463   23.4739  -26.3232 C   0  0  0  0  0  0  0  0  0  0  0  0
 27 28  1  0  0  0
 28 21  1  0  0  0
 21 22  2  0  0  0
 22 23  1  0  0  0
 23 24  2  0  0  0
 24 25  1  0  0  0
 25 19  1  0  0  0
 19  1  1  0  0  0
  1  2  2  0  0  0
  2  3  1  0  0  0
  3  4  2  0  0  0
  4  5  1  0  0  0
  5  6  2  0  0  0
  5  7  1  0  0  0
  7  8  1  0  0  0
  8  9  1  0  0  0
  9 10  1  0  0  0
 10 11  1  0  0  0
 11 12  1  0  0  0
  3 13  1  0  0  0
 13 14  1  0  0  0
 14 15  1  0  0  0
 15 16  1  0  0  0
 16 17  1  0  0  0
 17 18  1  0  0  0
 25 26  2  0  0  0
 28 29  1  0  0  0
 29 30  2  0  0  0
 30 31  1  0  0  0
 31 32  2  0  0  0
 32 33  1  0  0  0
 33 34  2  0  0  0
 34 35  1  0  0  0
 26 21  1  0  0  0
 34 29  1  0  0  0
  6  1  1  0  0  0
 12  7  1  0  0  0
 18 13  1  0  0  0
 19 20  1  0  0  0
M  END
> <minimizedAffinity>
-8.15003

> <CNNscore>
0.1227923259

> <CNNaffinity>
6.6352400780

> <CNN_VS>
0.8147565722

> <CNNaffinity_variance>
0.0824680924

$$$$
[H]c1nc(N([H])c2c([H])c(N3C([H])([H])C([H])([H])OC([H])([H])C3([H])[H])c([H])c(N3C([H])([H])C([H])([H])OC([H])([H])C3([H])[H])c2[H])nc(N(c2c([H])c([H])c([H])c([H])c2C([H])([H])[H])C([H])([H])[H])c1[H]


 35 39  0  0  0  0  0  0  0  0999 V2000
   -2.0223   22.7242  -22.3481 C   0  0  0  0  0  0  0  0  0  0  0  0
   -1.6807   21.9883  -21.2483 C   0  0  0  0  0  0  0  0  0  0  0  0
   -2.5377   21.8687  -20.1454 C   0  0  0  0  0  0  0  0  0  0  0  0
   -3.7420   22.5184  -20.2041 C   0  0  0  0  0  0  0  0  0  0  0  0
   -4.1430   23.2729  -21.2820 C   0  0  0  0  0  0  0  0  0  0  0  0
   -3.2815   23.3696  -22.3431 C   0  0  0  0  0  0  0  0  0  0  0  0
   -5.4173   23.9445  -21.3163 N   0  0  0  0  0  0  0  0  0  0  0  0
   -5.7856   24.7563  -22.4357 C   0  0  0  0  0  0  0  0  0  0  0  0
   -7.0176   25.5536  -22.1535 C   0  0  0  0  0  0  0  0  0  0  0  0
   -7.9581   24.7252  -21.5053 O   0  0  0  0  0  0  0  0  0  0  0  0
   -7.5226   24.5984  -20.2081 C   0  0  0  0  0  0  0  0  0  0  0  0
   -6.2911   23.7582  -20.1794 C   0  0  0  0  0  0  0  0  0  0  0  0
   -2.1224   21.0854  -19.0207 N   0  0  0  0  0  0  0  0  0  0  0  0
   -0.7642   21.2053  -18.5211 C   0  0  0  0  0  0  0  0  0  0  0  0
   -0.6375   20.4086  -17.2333 C   0  0  0  0  0  0  0  0  0  0  0  0
   -1.0024   19.0963  -17.3950 O   0  0  0  0  0  0  0  0  0  0  0  0
   -2.2108   18.8925  -18.0060 C   0  0  0  0  0  0  0  0  0  0  0  0
   -2.9797   20.1556  -18.3251 C   0  0  0  0  0  0  0  0  0  0  0  0
   -1.1912   22.8855  -23.4546 N   0  0  0  0  0  0  0  0  0  0  0  0
   -0.1655   23.0994  -23.2602 H   0  0  0  0  0  0  0  0  0  0  0  0
   -3.3050   22.9972  -26.4252 C   0  0  0  0  0  0  0  0  0  0  0  0
   -2.4297   22.6907  -27.4460 C   0  0  0  0  0  0  0  0  0  0  0  0
   -1.0899   22.4394  -27.1265 C   0  0  0  0  0  0  0  0  0  0  0  0
   -0.7472   22.5146  -25.8397 N   0  0  0  0  0  0  0  0  0  0  0  0
   -1.5454   22.8047  -24.8177 C   0  0  0  0  0  0  0  0  0  0  0  0
   -2.8557   23.0459  -25.1687 N   0  0  0  0  0  0  0  0  0  0  0  0
   -5.7339   22.9348  -25.8364 C   0  0  0  0  0  0  0  0  0  0  0  0
   -4.6697   23.2544  -26.7359 N   0  0  0  0  0  0  0  0  0  0  0  0
   -5.0040   23.8520  -27.9840 C   0  0  0  0  0  0  0  0  0  0  0  0
   -5.2008   22.9967  -29.0513 C   0  0  0  0  0  0  0  0  0  0  0  0
   -5.5285   23.5325  -30.2900 C   0  0  0  0  0  0  0  0  0  0  0  0
   -5.6593   24.8861  -30.4705 C   0  0  0  0  0  0  0  0  0  0  0  0
   -5.4554   25.7262  -29.3766 C   0  0  0  0  0  0  0  0  0  0  0  0
   -5.1312   25.2110  -28.1480 C   0  0  0  0  0  0  0  0  0  0  0  0
   -4.9091   26.0764  -26.9704 C   0  0  0  0  0  0  0  0  0  0  0  0
 27 28  1  0  0  0
 28 21  1  0  0  0
 21 22  2  0  0  0
 22 23  1  0  0  0
 23 24  2  0  0  0
 24 25  1  0  0  0
 25 19  1  0  0  0
 19  1  1  0  0  0
  1  2  2  0  0  0
  2  3  1  0  0  0
  3  4  2  0  0  0
  4  5  1  0  0  0
  5  6  2  0  0  0
  5  7  1  0  0  0
  7  8  1  0  0  0
  8  9  1  0  0  0
  9 10  1  0  0  0
 10 11  1  0  0  0
 11 12  1  0  0  0
  3 13  1  0  0  0
 13 14  1  0  0  0
 14 15  1  0  0  0
 15 16  1  0  0  0
 16 17  1  0  0  0
 17 18  1  0  0  0
 25 26  2  0  0  0
 28 29  1  0  0  0
 29 30  2  0  0  0
 30 31  1  0  0  0
 31 32  2  0  0  0
 32 33  1  0  0  0
 33 34  2  0  0  0
 34 35  1  0  0  0
 26 21  1  0  0  0
 34 29  1  0  0  0
  6  1  1  0  0  0
 12  7  1  0  0  0
 18 13  1  0  0  0
 19 20  1  0  0  0
M  END
> <minimizedAffinity>
-8.19174

> <CNNscore>
0.0907152295

> <CNNaffinity>
6.3926353455

> <CNN_VS>
0.5799093843

> <CNNaffinity_variance>
0.1467953622

$$$$
[H]c1nc(N([H])c2c([H])c(N3C([H])([H])C([H])([H])OC([H])([H])C3([H])[H])c([H])c(N3C([H])([H])C([H])([H])OC([H])([H])C3([H])[H])c2[H])nc(N(c2c([H])c([H])c([H])c([H])c2C([H])([H])[H])C([H])([H])[H])c1[H]


 35 39  0  0  0  0  0  0  0  0999 V2000
   -1.8042   22.4339  -22.3268 C   0  0  0  0  0  0  0  0  0  0  0  0
   -0.6964   21.8080  -21.8279 C   0  0  0  0  0  0  0  0  0  0  0  0
    0.3527   21.3914  -22.6591 C   0  0  0  0  0  0  0  0  0  0  0  0
    0.2332   21.6338  -24.0018 C   0  0  0  0  0  0  0  0  0  0  0  0
   -0.8554   22.2592  -24.5638 C   0  0  0  0  0  0  0  0  0  0  0  0
   -1.8633   22.6533  -23.7235 C   0  0  0  0  0  0  0  0  0  0  0  0
   -0.9530   22.5023  -25.9807 N   0  0  0  0  0  0  0  0  0  0  0  0
   -2.2284   22.6750  -26.6063 C   0  0  0  0  0  0  0  0  0  0  0  0
   -2.1156   22.6571  -28.0963 C   0  0  0  0  0  0  0  0  0  0  0  0
   -0.9989   23.4306  -28.4781 O   0  0  0  0  0  0  0  0  0  0  0  0
    0.1072   22.6630  -28.2028 C   0  0  0  0  0  0  0  0  0  0  0  0
    0.2847   22.5624  -26.7258 C   0  0  0  0  0  0  0  0  0  0  0  0
    1.4866   20.7381  -22.0773 N   0  0  0  0  0  0  0  0  0  0  0  0
    2.7570   20.7370  -22.7807 C   0  0  0  0  0  0  0  0  0  0  0  0
    3.8226   20.1370  -21.8787 C   0  0  0  0  0  0  0  0  0  0  0  0
    3.4867   18.8814  -21.4402 O   0  0  0  0  0  0  0  0  0  0  0  0
    2.2336   18.7619  -20.9013 C   0  0  0  0  0  0  0  0  0  0  0  0
    1.4601   20.0584  -20.8042 C   0  0  0  0  0  0  0  0  0  0  0  0
   -2.8771   22.8440  -21.5383 N   0  0  0  0  0  0  0  0  0  0  0  0
   -2.6449   23.2410  -20.5770 H   0  0  0  0  0  0  0  0  0  0  0  0
   -6.0308   23.7680  -23.1212 C   0  0  0  0  0  0  0  0  0  0  0  0
   -6.9225   22.8515  -22.6046 C   0  0  0  0  0  0  0  0  0  0  0  0
   -6.4499   21.8949  -21.6981 C   0  0  0  0  0  0  0  0  0  0  0  0
   -5.1524   21.9359  -21.3919 N   0  0  0  0  0  0  0  0  0  0  0  0
   -4.2503   22.7934  -21.8573 C   0  0  0  0  0  0  0  0  0  0  0  0
   -4.7500   23.7198  -22.7463 N   0  0  0  0  0  0  0  0  0  0  0  0
   -7.4460   25.7521  -23.6787 C   0  0  0  0  0  0  0  0  0  0  0  0
   -6.4979   24.7461  -24.0433 N   0  0  0  0  0  0  0  0  0  0  0  0
   -6.0126   24.7362  -25.3816 C   0  0  0  0  0  0  0  0  0  0  0  0
   -6.5475   23.7868  -26.2311 C   0  0  0  0  0  0  0  0  0  0  0  0
   -6.1055   23.7374  -27.5469 C   0  0  0  0  0  0  0  0  0  0  0  0
   -5.1542   24.6086  -28.0137 C   0  0  0  0  0  0  0  0  0  0  0  0
   -4.6314   25.5566  -27.1351 C   0  0  0  0  0  0  0  0  0  0  0  0
   -5.0584   25.6167  -25.8335 C   0  0  0  0  0  0  0  0  0  0  0  0
   -4.5228   26.6104  -24.8793 C   0  0  0  0  0  0  0  0  0  0  0  0
 27 28  1  0  0  0
 28 21  1  0  0  0
 21 22  2  0  0  0
 22 23  1  0  0  0
 23 24  2  0  0  0
 24 25  1  0  0  0
 25 19  1  0  0  0
 19  1  1  0  0  0
  1  2  2  0  0  0
  2  3  1  0  0  0
  3  4  2  0  0  0
  4  5  1  0  0  0
  5  6  2  0  0  0
  5  7  1  0  0  0
  7  8  1  0  0  0
  8  9  1  0  0  0
  9 10  1  0  0  0
 10 11  1  0  0  0
 11 12  1  0  0  0
  3 13  1  0  0  0
 13 14  1  0  0  0
 14 15  1  0  0  0
 15 16  1  0  0  0
 16 17  1  0  0  0
 17 18  1  0  0  0
 25 26  2  0  0  0
 28 29  1  0  0  0
 29 30  2  0  0  0
 30 31  1  0  0  0
 31 32  2  0  0  0
 32 33  1  0  0  0
 33 34  2  0  0  0
 34 35  1  0  0  0
 26 21  1  0  0  0
 34 29  1  0  0  0
  6  1  1  0  0  0
 12  7  1  0  0  0
 18 13  1  0  0  0
 19 20  1  0  0  0
M  END
> <minimizedAffinity>
-8.61166

> <CNNscore>
0.0776019618

> <CNNaffinity>
6.2958397865

> <CNN_VS>
0.4885695279

> <CNNaffinity_variance>
0.6030048132

$$$$
[H]c1nc(N([H])c2c([H])c(N3C([H])([H])C([H])([H])OC([H])([H])C3([H])[H])c([H])c(N3C([H])([H])C([H])([H])OC([H])([H])C3([H])[H])c2[H])nc(N(c2c([H])c([H])c([H])c([H])c2C([H])([H])[H])C([H])([H])[H])c1[H]


 35 39  0  0  0  0  0  0  0  0999 V2000
   -4.3184   22.2155  -24.9342 C   0  0  0  0  0  0  0  0  0  0  0  0
   -5.1734   22.7006  -23.9848 C   0  0  0  0  0  0  0  0  0  0  0  0
   -6.1651   23.6411  -24.2964 C   0  0  0  0  0  0  0  0  0  0  0  0
   -6.2530   24.0636  -25.5962 C   0  0  0  0  0  0  0  0  0  0  0  0
   -5.4230   23.6128  -26.5962 C   0  0  0  0  0  0  0  0  0  0  0  0
   -4.4643   22.6943  -26.2577 C   0  0  0  0  0  0  0  0  0  0  0  0
   -5.5399   24.0746  -27.9561 N   0  0  0  0  0  0  0  0  0  0  0  0
   -5.5744   23.1446  -29.0431 C   0  0  0  0  0  0  0  0  0  0  0  0
   -5.4397   23.8359  -30.3611 C   0  0  0  0  0  0  0  0  0  0  0  0
   -6.2514   24.9901  -30.3554 O   0  0  0  0  0  0  0  0  0  0  0  0
   -5.5850   25.9196  -29.5936 C   0  0  0  0  0  0  0  0  0  0  0  0
   -5.6201   25.5035  -28.1622 C   0  0  0  0  0  0  0  0  0  0  0  0
   -7.0296   24.1140  -23.2572 N   0  0  0  0  0  0  0  0  0  0  0  0
   -7.4852   23.1984  -22.2263 C   0  0  0  0  0  0  0  0  0  0  0  0
   -8.2370   23.9825  -21.1637 C   0  0  0  0  0  0  0  0  0  0  0  0
   -9.2753   24.7085  -21.6896 O   0  0  0  0  0  0  0  0  0  0  0  0
   -8.9610   25.4855  -22.7723 C   0  0  0  0  0  0  0  0  0  0  0  0
   -7.4974   25.4757  -23.1550 C   0  0  0  0  0  0  0  0  0  0  0  0
   -3.3068   21.2971  -24.6617 N   0  0  0  0  0  0  0  0  0  0  0  0
   -3.5968   20.2771  -24.5575 H   0  0  0  0  0  0  0  0  0  0  0  0
   -0.0723   21.5432  -22.9936 C   0  0  0  0  0  0  0  0  0  0  0  0
    0.7613   22.0060  -23.9902 C   0  0  0  0  0  0  0  0  0  0  0  0
    0.2205   22.2419  -25.2598 C   0  0  0  0  0  0  0  0  0  0  0  0
   -1.0812   21.9998  -25.4209 N   0  0  0  0  0  0  0  0  0  0  0  0
   -1.9293   21.5550  -24.4998 C   0  0  0  0  0  0  0  0  0  0  0  0
   -1.3632   21.3339  -23.2633 N   0  0  0  0  0  0  0  0  0  0  0  0
   -0.0564   21.9251  -20.5230 C   0  0  0  0  0  0  0  0  0  0  0  0
    0.4644   21.2996  -21.6983 N   0  0  0  0  0  0  0  0  0  0  0  0
    1.5597   20.4024  -21.5505 C   0  0  0  0  0  0  0  0  0  0  0  0
    2.8099   20.8849  -21.8876 C   0  0  0  0  0  0  0  0  0  0  0  0
    3.9101   20.0467  -21.7607 C   0  0  0  0  0  0  0  0  0  0  0  0
    3.7776   18.7580  -21.3097 C   0  0  0  0  0  0  0  0  0  0  0  0
    2.5047   18.2969  -20.9765 C   0  0  0  0  0  0  0  0  0  0  0  0
    1.4097   19.1133  -21.0971 C   0  0  0  0  0  0  0  0  0  0  0  0
    0.0483   18.6527  -20.7516 C   0  0  0  0  0  0  0  0  0  0  0  0
 27 28  1  0  0  0
 28 21  1  0  0  0
 21 22  2  0  0  0
 22 23  1  0  0  0
 23 24  2  0  0  0
 24 25  1  0  0  0
 25 19  1  0  0  0
 19  1  1  0  0  0
  1  2  2  0  0  0
  2  3  1  0  0  0
  3  4  2  0  0  0
  4  5  1  0  0  0
  5  6  2  0  0  0
  5  7  1  0  0  0
  7  8  1  0  0  0
  8  9  1  0  0  0
  9 10  1  0  0  0
 10 11  1  0  0  0
 11 12  1  0  0  0
  3 13  1  0  0  0
 13 14  1  0  0  0
 14 15  1  0  0  0
 15 16  1  0  0  0
 16 17  1  0  0  0
 17 18  1  0  0  0
 25 26  2  0  0  0
 28 29  1  0  0  0
 29 30  2  0  0  0
 30 31  1  0  0  0
 31 32  2  0  0  0
 32 33  1  0  0  0
 33 34  2  0  0  0
 34 35  1  0  0  0
 26 21  1  0  0  0
 34 29  1  0  0  0
  6  1  1  0  0  0
 12  7  1  0  0  0
 18 13  1  0  0  0
 19 20  1  0  0  0
M  END
> <minimizedAffinity>
-8.27159

> <CNNscore>
0.0578868315

> <CNNaffinity>
6.2958011627

> <CNN_VS>
0.3644439876

> <CNNaffinity_variance>
0.0169907454

$$$$
[H]c1nc(N([H])c2c([H])c(N3C([H])([H])C([H])([H])OC([H])([H])C3([H])[H])c([H])c(N3C([H])([H])C([H])([H])OC([H])([H])C3([H])[H])c2[H])nc(N(c2c([H])c([H])c([H])c([H])c2C([H])([H])[H])C([H])([H])[H])c1[H]


 35 39  0  0  0  0  0  0  0  0999 V2000
    0.1767   21.5969  -20.3136 C   0  0  0  0  0  0  0  0  0  0  0  0
    1.0633   22.3001  -19.5471 C   0  0  0  0  0  0  0  0  0  0  0  0
    2.0615   21.6603  -18.7993 C   0  0  0  0  0  0  0  0  0  0  0  0
    2.1228   20.2934  -18.8609 C   0  0  0  0  0  0  0  0  0  0  0  0
    1.2605   19.5304  -19.6135 C   0  0  0  0  0  0  0  0  0  0  0  0
    0.2963   20.1871  -20.3322 C   0  0  0  0  0  0  0  0  0  0  0  0
    1.3499   18.0931  -19.6602 N   0  0  0  0  0  0  0  0  0  0  0  0
    0.5328   17.3390  -20.5609 C   0  0  0  0  0  0  0  0  0  0  0  0
    0.5979   15.8754  -20.2663 C   0  0  0  0  0  0  0  0  0  0  0  0
    1.9408   15.5196  -20.0190 O   0  0  0  0  0  0  0  0  0  0  0  0
    2.2271   15.9726  -18.7537 C   0  0  0  0  0  0  0  0  0  0  0  0
    2.2935   17.4621  -18.7644 C   0  0  0  0  0  0  0  0  0  0  0  0
    2.9596   22.4516  -18.0131 N   0  0  0  0  0  0  0  0  0  0  0  0
    2.8531   23.8996  -18.0361 C   0  0  0  0  0  0  0  0  0  0  0  0
    3.7944   24.4827  -16.9953 C   0  0  0  0  0  0  0  0  0  0  0  0
    5.0897   24.0683  -17.1748 O   0  0  0  0  0  0  0  0  0  0  0  0
    5.2607   22.7175  -17.3198 C   0  0  0  0  0  0  0  0  0  0  0  0
    3.9962   21.9001  -17.1736 C   0  0  0  0  0  0  0  0  0  0  0  0
   -0.8421   22.1927  -21.0540 N   0  0  0  0  0  0  0  0  0  0  0  0
   -1.5877   22.7236  -20.5083 H   0  0  0  0  0  0  0  0  0  0  0  0
   -2.5356   22.4909  -24.2708 C   0  0  0  0  0  0  0  0  0  0  0  0
   -1.5417   22.1909  -25.1787 C   0  0  0  0  0  0  0  0  0  0  0  0
   -0.2651   21.8796  -24.6955 C   0  0  0  0  0  0  0  0  0  0  0  0
   -0.0951   21.8946  -23.3727 N   0  0  0  0  0  0  0  0  0  0  0  0
   -1.0134   22.1753  -22.4541 C   0  0  0  0  0  0  0  0  0  0  0  0
   -2.2569   22.4767  -22.9650 N   0  0  0  0  0  0  0  0  0  0  0  0
   -4.9112   21.8644  -24.7336 C   0  0  0  0  0  0  0  0  0  0  0  0
   -3.8379   22.8088  -24.7484 N   0  0  0  0  0  0  0  0  0  0  0  0
   -4.0979   24.1106  -25.2624 C   0  0  0  0  0  0  0  0  0  0  0  0
   -4.2564   25.1251  -24.3377 C   0  0  0  0  0  0  0  0  0  0  0  0
   -4.5121   26.4130  -24.7906 C   0  0  0  0  0  0  0  0  0  0  0  0
   -4.6091   26.6926  -26.1301 C   0  0  0  0  0  0  0  0  0  0  0  0
   -4.4448   25.6503  -27.0413 C   0  0  0  0  0  0  0  0  0  0  0  0
   -4.1921   24.3740  -26.6083 C   0  0  0  0  0  0  0  0  0  0  0  0
   -4.0134   23.2490  -27.5503 C   0  0  0  0  0  0  0  0  0  0  0  0
 27 28  1  0  0  0
 28 21  1  0  0  0
 21 22  2  0  0  0
 22 23  1  0  0  0
 23 24  2  0  0  0
 24 25  1  0  0  0
 25 19  1  0  0  0
 19  1  1  0  0  0
  1  2  2  0  0  0
  2  3  1  0  0  0
  3  4  2  0  0  0
  4  5  1  0  0  0
  5  6  2  0  0  0
  5  7  1  0  0  0
  7  8  1  0  0  0
  8  9  1  0  0  0
  9 10  1  0  0  0
 10 11  1  0  0  0
 11 12  1  0  0  0
  3 13  1  0  0  0
 13 14  1  0  0  0
 14 15  1  0  0  0
 15 16  1  0  0  0
 16 17  1  0  0  0
 17 18  1  0  0  0
 25 26  2  0  0  0
 28 29  1  0  0  0
 29 30  2  0  0  0
 30 31  1  0  0  0
 31 32  2  0  0  0
 32 33  1  0  0  0
 33 34  2  0  0  0
 34 35  1  0  0  0
 26 21  1  0  0  0
 34 29  1  0  0  0
  6  1  1  0  0  0
 12  7  1  0  0  0
 18 13  1  0  0  0
 19 20  1  0  0  0
M  END
> <minimizedAffinity>
-7.25092

> <CNNscore>
0.0536795221

> <CNNaffinity>
5.8241262436

> <CNN_VS>
0.3126363158

> <CNNaffinity_variance>
0.1467234790

$$$$
[H]c1nc(N([H])c2c([H])c(N3C([H])([H])C([H])([H])OC([H])([H])C3([H])[H])c([H])c(N3C([H])([H])C([H])([H])OC([H])([H])C3([H])[H])c2[H])nc(N(c2c([H])c([H])c([H])c([H])c2C([H])([H])[H])C([H])([H])[H])c1[H]


 35 39  0  0  0  0  0  0  0  0999 V2000
   -4.0712   24.8986  -22.7228 C   0  0  0  0  0  0  0  0  0  0  0  0
   -5.1955   24.6206  -21.9972 C   0  0  0  0  0  0  0  0  0  0  0  0
   -5.2133   23.6151  -21.0206 C   0  0  0  0  0  0  0  0  0  0  0  0
   -4.0566   22.9119  -20.8125 C   0  0  0  0  0  0  0  0  0  0  0  0
   -2.8938   23.1446  -21.5094 C   0  0  0  0  0  0  0  0  0  0  0  0
   -2.9105   24.1341  -22.4571 C   0  0  0  0  0  0  0  0  0  0  0  0
   -1.6908   22.3892  -21.2679 N   0  0  0  0  0  0  0  0  0  0  0  0
   -1.3078   21.3250  -22.1444 C   0  0  0  0  0  0  0  0  0  0  0  0
   -0.1857   20.5204  -21.5730 C   0  0  0  0  0  0  0  0  0  0  0  0
    0.7711   21.3994  -21.0224 O   0  0  0  0  0  0  0  0  0  0  0  0
    0.2413   21.8419  -19.8342 C   0  0  0  0  0  0  0  0  0  0  0  0
   -0.9027   22.7568  -20.1126 C   0  0  0  0  0  0  0  0  0  0  0  0
   -6.4230   23.3688  -20.2946 N   0  0  0  0  0  0  0  0  0  0  0  0
   -7.5039   24.3371  -20.3456 C   0  0  0  0  0  0  0  0  0  0  0  0
   -8.7204   23.7599  -19.6411 C   0  0  0  0  0  0  0  0  0  0  0  0
   -8.4436   23.3789  -18.3528 O   0  0  0  0  0  0  0  0  0  0  0  0
   -7.3384   22.5854  -18.1982 C   0  0  0  0  0  0  0  0  0  0  0  0
   -6.6551   22.1933  -19.4898 C   0  0  0  0  0  0  0  0  0  0  0  0
   -4.0179   25.8742  -23.7160 N   0  0  0  0  0  0  0  0  0  0  0  0
   -3.6606   26.8361  -23.4284 H   0  0  0  0  0  0  0  0  0  0  0  0
   -4.1307   24.4865  -27.0874 C   0  0  0  0  0  0  0  0  0  0  0  0
   -4.9971   25.3328  -27.7472 C   0  0  0  0  0  0  0  0  0  0  0  0
   -5.5600   26.4008  -27.0381 C   0  0  0  0  0  0  0  0  0  0  0  0
   -5.2152   26.5285  -25.7560 N   0  0  0  0  0  0  0  0  0  0  0  0
   -4.3882   25.7457  -25.0712 C   0  0  0  0  0  0  0  0  0  0  0  0
   -3.8533   24.7059  -25.7998 N   0  0  0  0  0  0  0  0  0  0  0  0
   -4.2443   22.7049  -28.8376 C   0  0  0  0  0  0  0  0  0  0  0  0
   -3.5512   23.3972  -27.7964 N   0  0  0  0  0  0  0  0  0  0  0  0
   -2.2335   22.9693  -27.4690 C   0  0  0  0  0  0  0  0  0  0  0  0
   -1.2182   23.3784  -28.3124 C   0  0  0  0  0  0  0  0  0  0  0  0
    0.0848   22.9858  -28.0348 C   0  0  0  0  0  0  0  0  0  0  0  0
    0.3787   22.2050  -26.9459 C   0  0  0  0  0  0  0  0  0  0  0  0
   -0.6648   21.8065  -26.1115 C   0  0  0  0  0  0  0  0  0  0  0  0
   -1.9560   22.1864  -26.3736 C   0  0  0  0  0  0  0  0  0  0  0  0
   -3.0826   21.7796  -25.5074 C   0  0  0  0  0  0  0  0  0  0  0  0
 27 28  1  0  0  0
 28 21  1  0  0  0
 21 22  2  0  0  0
 22 23  1  0  0  0
 23 24  2  0  0  0
 24 25  1  0  0  0
 25 19  1  0  0  0
 19  1  1  0  0  0
  1  2  2  0  0  0
  2  3  1  0  0  0
  3  4  2  0  0  0
  4  5  1  0  0  0
  5  6  2  0  0  0
  5  7  1  0  0  0
  7  8  1  0  0  0
  8  9  1  0  0  0
  9 10  1  0  0  0
 10 11  1  0  0  0
 11 12  1  0  0  0
  3 13  1  0  0  0
 13 14  1  0  0  0
 14 15  1  0  0  0
 15 16  1  0  0  0
 16 17  1  0  0  0
 17 18  1  0  0  0
 25 26  2  0  0  0
 28 29  1  0  0  0
 29 30  2  0  0  0
 30 31  1  0  0  0
 31 32  2  0  0  0
 32 33  1  0  0  0
 33 34  2  0  0  0
 34 35  1  0  0  0
 26 21  1  0  0  0
 34 29  1  0  0  0
  6  1  1  0  0  0
 12  7  1  0  0  0
 18 13  1  0  0  0
 19 20  1  0  0  0
M  END
> <minimizedAffinity>
-9.00098

> <CNNscore>
0.0502052605

> <CNNaffinity>
5.7404303551

> <CNN_VS>
0.2881998122

> <CNNaffinity_variance>
0.7072873116

$$$$
[H]c1sc([H])c(N([H])C(=O)c2c([H])c([H])c([H])c([H])c2N2C([H])([H])C([H])([H])N(C([H])([H])[H])C([H])([H])C2([H])[H])c1[H]


 22 24  0  0  0  0  0  0  0  0999 V2000
   -2.1756   22.6328  -25.4448 C   0  0  0  0  0  0  0  0  0  0  0  0
   -1.2265   22.2270  -24.4882 C   0  0  0  0  0  0  0  0  0  0  0  0
    0.0482   21.9655  -24.9069 C   0  0  0  0  0  0  0  0  0  0  0  0
    0.4061   22.0936  -26.2324 C   0  0  0  0  0  0  0  0  0  0  0  0
   -0.5409   22.4934  -27.1465 C   0  0  0  0  0  0  0  0  0  0  0  0
   -1.8650   22.7701  -26.7537 C   0  0  0  0  0  0  0  0  0  0  0  0
   -7.1761   24.5959  -24.8656 C   0  0  0  0  0  0  0  0  0  0  0  0
   -5.9603   23.9361  -25.2841 N   0  0  0  0  0  0  0  0  0  0  0  0
   -5.8888   22.5799  -24.8753 C   0  0  0  0  0  0  0  0  0  0  0  0
   -4.5441   21.9220  -25.0397 C   0  0  0  0  0  0  0  0  0  0  0  0
   -3.4665   22.8576  -24.9290 N   0  0  0  0  0  0  0  0  0  0  0  0
   -3.7392   24.1025  -24.2439 C   0  0  0  0  0  0  0  0  0  0  0  0
   -4.8604   24.7800  -24.9735 C   0  0  0  0  0  0  0  0  0  0  0  0
   -2.8308   23.1905  -27.7475 C   0  0  0  0  0  0  0  0  0  0  0  0
   -3.3491   22.2780  -28.4275 O   0  0  0  0  0  0  0  0  0  0  0  0
   -3.1339   24.5448  -27.9237 N   0  0  0  0  0  0  0  0  0  0  0  0
   -2.6521   25.2620  -27.3158 H   0  0  0  0  0  0  0  0  0  0  0  0
   -4.0520   25.0677  -28.9045 C   0  0  0  0  0  0  0  0  0  0  0  0
   -3.6491   25.5157  -30.1141 C   0  0  0  0  0  0  0  0  0  0  0  0
   -4.6148   25.9617  -30.9684 C   0  0  0  0  0  0  0  0  0  0  0  0
   -6.0518   25.7550  -30.0904 S   0  0  0  0  0  0  0  0  0  0  0  0
   -5.3959   25.0989  -28.6448 C   0  0  0  0  0  0  0  0  0  0  0  0
  7  8  1  0  0  0
  8  9  1  0  0  0
  9 10  1  0  0  0
 10 11  1  0  0  0
 11 12  1  0  0  0
 12 13  1  0  0  0
 11  1  1  0  0  0
  1  2  2  0  0  0
  2  3  1  0  0  0
  3  4  2  0  0  0
  4  5  1  0  0  0
  5  6  2  0  0  0
  6 14  1  0  0  0
 14 15  2  0  0  0
 14 16  1  0  0  0
 16 18  1  0  0  0
 18 19  1  0  0  0
 19 20  2  0  0  0
 20 21  1  0  0  0
 21 22  1  0  0  0
 13  8  1  0  0  0
  6  1  1  0  0  0
 22 18  2  0  0  0
 16 17  1  0  0  0
M  END
> <minimizedAffinity>
-7.16006

> <CNNscore>
0.3702905178

> <CNNaffinity>
5.7587857246

> <CNN_VS>
2.1324236393

> <CNNaffinity_variance>
0.2545008361

$$$$
[H]c1sc([H])c(N([H])C(=O)c2c([H])c([H])c([H])c([H])c2N2C([H])([H])C([H])([H])N(C([H])([H])[H])C([H])([H])C2([H])[H])c1[H]


 22 24  0  0  0  0  0  0  0  0999 V2000
   -5.5035   21.9793  -20.7795 C   0  0  0  0  0  0  0  0  0  0  0  0
   -6.7994   21.8106  -21.3018 C   0  0  0  0  0  0  0  0  0  0  0  0
   -6.9461   21.7072  -22.6569 C   0  0  0  0  0  0  0  0  0  0  0  0
   -5.8570   21.7650  -23.5007 C   0  0  0  0  0  0  0  0  0  0  0  0
   -4.6013   21.9289  -22.9636 C   0  0  0  0  0  0  0  0  0  0  0  0
   -4.4101   22.0412  -21.5726 C   0  0  0  0  0  0  0  0  0  0  0  0
   -7.0379   22.7149  -15.6512 C   0  0  0  0  0  0  0  0  0  0  0  0
   -6.8025   22.2512  -16.9996 N   0  0  0  0  0  0  0  0  0  0  0  0
   -5.7499   21.3051  -17.0917 C   0  0  0  0  0  0  0  0  0  0  0  0
   -5.2776   20.9926  -18.4871 C   0  0  0  0  0  0  0  0  0  0  0  0
   -5.4492   22.1001  -19.3775 N   0  0  0  0  0  0  0  0  0  0  0  0
   -5.5733   23.4135  -18.7831 C   0  0  0  0  0  0  0  0  0  0  0  0
   -6.7557   23.3794  -17.8618 C   0  0  0  0  0  0  0  0  0  0  0  0
   -3.0710   22.2107  -21.0480 C   0  0  0  0  0  0  0  0  0  0  0  0
   -2.6658   23.3897  -20.9521 O   0  0  0  0  0  0  0  0  0  0  0  0
   -2.2953   21.1020  -20.6928 N   0  0  0  0  0  0  0  0  0  0  0  0
   -2.7018   20.1335  -20.8062 H   0  0  0  0  0  0  0  0  0  0  0  0
   -0.9437   21.1615  -20.1948 C   0  0  0  0  0  0  0  0  0  0  0  0
    0.1354   21.0639  -21.0023 C   0  0  0  0  0  0  0  0  0  0  0  0
    1.3641   21.1623  -20.4175 C   0  0  0  0  0  0  0  0  0  0  0  0
    1.0077   21.3865  -18.7739 S   0  0  0  0  0  0  0  0  0  0  0  0
   -0.7075   21.3535  -18.8600 C   0  0  0  0  0  0  0  0  0  0  0  0
  7  8  1  0  0  0
  8  9  1  0  0  0
  9 10  1  0  0  0
 10 11  1  0  0  0
 11 12  1  0  0  0
 12 13  1  0  0  0
 11  1  1  0  0  0
  1  2  2  0  0  0
  2  3  1  0  0  0
  3  4  2  0  0  0
  4  5  1  0  0  0
  5  6  2  0  0  0
  6 14  1  0  0  0
 14 15  2  0  0  0
 14 16  1  0  0  0
 16 18  1  0  0  0
 18 19  1  0  0  0
 19 20  2  0  0  0
 20 21  1  0  0  0
 21 22  1  0  0  0
 13  8  1  0  0  0
  6  1  1  0  0  0
 22 18  2  0  0  0
 16 17  1  0  0  0
M  END
> <minimizedAffinity>
-4.40114

> <CNNscore>
0.2574234009

> <CNNaffinity>
4.3496131897

> <CNN_VS>
1.1196922064

> <CNNaffinity_variance>
0.1635758728

$$$$
[H]c1sc([H])c(N([H])C(=O)c2c([H])c([H])c([H])c([H])c2N2C([H])([H])C([H])([H])N(C([H])([H])[H])C([H])([H])C2([H])[H])c1[H]


 22 24  0  0  0  0  0  0  0  0999 V2000
   -5.5942   21.6652  -19.9047 C   0  0  0  0  0  0  0  0  0  0  0  0
   -6.9095   21.3945  -19.4835 C   0  0  0  0  0  0  0  0  0  0  0  0
   -7.9163   21.4711  -20.4050 C   0  0  0  0  0  0  0  0  0  0  0  0
   -7.6600   21.8041  -21.7183 C   0  0  0  0  0  0  0  0  0  0  0  0
   -6.3650   22.0623  -22.1036 C   0  0  0  0  0  0  0  0  0  0  0  0
   -5.3012   21.9955  -21.1827 C   0  0  0  0  0  0  0  0  0  0  0  0
   -3.3559   21.2960  -15.0008 C   0  0  0  0  0  0  0  0  0  0  0  0
   -4.0534   21.0966  -16.2507 N   0  0  0  0  0  0  0  0  0  0  0  0
   -3.2776   20.4160  -17.2236 C   0  0  0  0  0  0  0  0  0  0  0  0
   -3.8394   20.4194  -18.6209 C   0  0  0  0  0  0  0  0  0  0  0  0
   -4.6258   21.5858  -18.8854 N   0  0  0  0  0  0  0  0  0  0  0  0
   -4.3984   22.7414  -18.0448 C   0  0  0  0  0  0  0  0  0  0  0  0
   -4.6600   22.3245  -16.6284 C   0  0  0  0  0  0  0  0  0  0  0  0
   -3.9520   22.2726  -21.6300 C   0  0  0  0  0  0  0  0  0  0  0  0
   -3.5184   23.4193  -21.3839 O   0  0  0  0  0  0  0  0  0  0  0  0
   -3.2084   21.3008  -22.3081 N   0  0  0  0  0  0  0  0  0  0  0  0
   -3.6422   20.3541  -22.4860 H   0  0  0  0  0  0  0  0  0  0  0  0
   -1.8747   21.4873  -22.8225 C   0  0  0  0  0  0  0  0  0  0  0  0
   -0.7706   21.1203  -22.1353 C   0  0  0  0  0  0  0  0  0  0  0  0
    0.4364   21.3224  -22.7385 C   0  0  0  0  0  0  0  0  0  0  0  0
    0.0258   22.0109  -24.2338 S   0  0  0  0  0  0  0  0  0  0  0  0
   -1.6835   22.0276  -24.0659 C   0  0  0  0  0  0  0  0  0  0  0  0
  7  8  1  0  0  0
  8  9  1  0  0  0
  9 10  1  0  0  0
 10 11  1  0  0  0
 11 12  1  0  0  0
 12 13  1  0  0  0
 11  1  1  0  0  0
  1  2  2  0  0  0
  2  3  1  0  0  0
  3  4  2  0  0  0
  4  5  1  0  0  0
  5  6  2  0  0  0
  6 14  1  0  0  0
 14 15  2  0  0  0
 14 16  1  0  0  0
 16 18  1  0  0  0
 18 19  1  0  0  0
 19 20  2  0  0  0
 20 21  1  0  0  0
 21 22  1  0  0  0
 13  8  1  0  0  0
  6  1  1  0  0  0
 22 18  2  0  0  0
 16 17  1  0  0  0
M  END
> <minimizedAffinity>
-4.63649

> <CNNscore>
0.2523582876

> <CNNaffinity>
4.6299495697

> <CNN_VS>
1.1684061289

> <CNNaffinity_variance>
0.1120594889

$$$$
[H]c1sc([H])c(N([H])C(=O)c2c([H])c([H])c([H])c([H])c2N2C([H])([H])C([H])([H])N(C([H])([H])[H])C([H])([H])C2([H])[H])c1[H]


 22 24  0  0  0  0  0  0  0  0999 V2000
   -2.6399   23.0665  -23.6038 C   0  0  0  0  0  0  0  0  0  0  0  0
   -1.6557   22.7976  -22.6344 C   0  0  0  0  0  0  0  0  0  0  0  0
   -0.5185   22.1475  -23.0250 C   0  0  0  0  0  0  0  0  0  0  0  0
   -0.3299   21.7606  -24.3350 C   0  0  0  0  0  0  0  0  0  0  0  0
   -1.3072   22.0372  -25.2626 C   0  0  0  0  0  0  0  0  0  0  0  0
   -2.4935   22.7035  -24.8981 C   0  0  0  0  0  0  0  0  0  0  0  0
   -7.3287   25.7473  -23.4516 C   0  0  0  0  0  0  0  0  0  0  0  0
   -6.2534   24.7958  -23.6166 N   0  0  0  0  0  0  0  0  0  0  0  0
   -6.1543   23.8702  -22.5466 C   0  0  0  0  0  0  0  0  0  0  0  0
   -4.9006   23.0362  -22.5232 C   0  0  0  0  0  0  0  0  0  0  0  0
   -3.7862   23.7175  -23.1086 N   0  0  0  0  0  0  0  0  0  0  0  0
   -3.8605   25.1604  -23.1880 C   0  0  0  0  0  0  0  0  0  0  0  0
   -5.0797   25.5034  -23.9906 C   0  0  0  0  0  0  0  0  0  0  0  0
   -3.4964   22.9774  -25.9062 C   0  0  0  0  0  0  0  0  0  0  0  0
   -4.5315   22.2779  -25.8528 O   0  0  0  0  0  0  0  0  0  0  0  0
   -3.2850   23.9611  -26.8782 N   0  0  0  0  0  0  0  0  0  0  0  0
   -2.3825   24.5100  -26.8651 H   0  0  0  0  0  0  0  0  0  0  0  0
   -4.2026   24.2862  -27.9415 C   0  0  0  0  0  0  0  0  0  0  0  0
   -4.9478   25.4134  -27.9418 C   0  0  0  0  0  0  0  0  0  0  0  0
   -5.7600   25.6249  -29.0175 C   0  0  0  0  0  0  0  0  0  0  0  0
   -5.4804   24.2715  -30.0018 S   0  0  0  0  0  0  0  0  0  0  0  0
   -4.3271   23.4569  -29.0237 C   0  0  0  0  0  0  0  0  0  0  0  0
  7  8  1  0  0  0
  8  9  1  0  0  0
  9 10  1  0  0  0
 10 11  1  0  0  0
 11 12  1  0  0  0
 12 13  1  0  0  0
 11  1  1  0  0  0
  1  2  2  0  0  0
  2  3  1  0  0  0
  3  4  2  0  0  0
  4  5  1  0  0  0
  5  6  2  0  0  0
  6 14  1  0  0  0
 14 15  2  0  0  0
 14 16  1  0  0  0
 16 18  1  0  0  0
 18 19  1  0  0  0
 19 20  2  0  0  0
 20 21  1  0  0  0
 21 22  1  0  0  0
 13  8  1  0  0  0
  6  1  1  0  0  0
 22 18  2  0  0  0
 16 17  1  0  0  0
M  END
> <minimizedAffinity>
-6.79760

> <CNNscore>
0.2367093414

> <CNNaffinity>
5.3652029037

> <CNN_VS>
1.2699936628

> <CNNaffinity_variance>
0.1564098299

$$$$
[H]c1sc([H])c(N([H])C(=O)c2c([H])c([H])c([H])c([H])c2N2C([H])([H])C([H])([H])N(C([H])([H])[H])C([H])([H])C2([H])[H])c1[H]


 22 24  0  0  0  0  0  0  0  0999 V2000
   -4.0155   22.9124  -21.0133 C   0  0  0  0  0  0  0  0  0  0  0  0
   -4.6812   22.6471  -19.8020 C   0  0  0  0  0  0  0  0  0  0  0  0
   -3.9833   22.0397  -18.7958 C   0  0  0  0  0  0  0  0  0  0  0  0
   -2.6583   21.6917  -18.9532 C   0  0  0  0  0  0  0  0  0  0  0  0
   -2.0313   21.9640  -20.1469 C   0  0  0  0  0  0  0  0  0  0  0  0
   -2.7177   22.5867  -21.2077 C   0  0  0  0  0  0  0  0  0  0  0  0
   -8.3352   24.9138  -23.5685 C   0  0  0  0  0  0  0  0  0  0  0  0
   -7.2280   24.6244  -22.6859 N   0  0  0  0  0  0  0  0  0  0  0  0
   -6.0594   25.3685  -22.9894 C   0  0  0  0  0  0  0  0  0  0  0  0
   -4.8035   24.9194  -22.2902 C   0  0  0  0  0  0  0  0  0  0  0  0
   -4.8168   23.5177  -22.0005 N   0  0  0  0  0  0  0  0  0  0  0  0
   -5.7136   22.6902  -22.7781 C   0  0  0  0  0  0  0  0  0  0  0  0
   -7.1028   23.2141  -22.5685 C   0  0  0  0  0  0  0  0  0  0  0  0
   -2.0198   22.8575  -22.4474 C   0  0  0  0  0  0  0  0  0  0  0  0
   -1.4520   23.9688  -22.5245 O   0  0  0  0  0  0  0  0  0  0  0  0
   -2.0121   21.9188  -23.4847 N   0  0  0  0  0  0  0  0  0  0  0  0
   -2.5189   21.0017  -23.3508 H   0  0  0  0  0  0  0  0  0  0  0  0
   -1.3780   22.1049  -24.7660 C   0  0  0  0  0  0  0  0  0  0  0  0
   -2.0675   22.4409  -25.8785 C   0  0  0  0  0  0  0  0  0  0  0  0
   -1.3526   22.6162  -27.0272 C   0  0  0  0  0  0  0  0  0  0  0  0
    0.2481   22.3158  -26.5518 S   0  0  0  0  0  0  0  0  0  0  0  0
   -0.0210   21.9729  -24.8904 C   0  0  0  0  0  0  0  0  0  0  0  0
  7  8  1  0  0  0
  8  9  1  0  0  0
  9 10  1  0  0  0
 10 11  1  0  0  0
 11 12  1  0  0  0
 12 13  1  0  0  0
 11  1  1  0  0  0
  1  2  2  0  0  0
  2  3  1  0  0  0
  3  4  2  0  0  0
  4  5  1  0  0  0
  5  6  2  0  0  0
  6 14  1  0  0  0
 14 15  2  0  0  0
 14 16  1  0  0  0
 16 18  1  0  0  0
 18 19  1  0  0  0
 19 20  2  0  0  0
 20 21  1  0  0  0
 21 22  1  0  0  0
 13  8  1  0  0  0
  6  1  1  0  0  0
 22 18  2  0  0  0
 16 17  1  0  0  0
M  END
> <minimizedAffinity>
-5.82626

> <CNNscore>
0.2268302441

> <CNNaffinity>
5.0837259293

> <CNN_VS>
1.1531428099

> <CNNaffinity_variance>
0.0445936993

$$$$
[H]c1sc([H])c(N([H])C(=O)c2c([H])c([H])c([H])c([H])c2N2C([H])([H])C([H])([H])N(C([H])([H])[H])C([H])([H])C2([H])[H])c1[H]


 22 24  0  0  0  0  0  0  0  0999 V2000
   -1.8207   21.8948  -18.3327 C   0  0  0  0  0  0  0  0  0  0  0  0
   -1.2789   21.6754  -17.0525 C   0  0  0  0  0  0  0  0  0  0  0  0
    0.0630   21.8639  -16.8731 C   0  0  0  0  0  0  0  0  0  0  0  0
    0.8752   22.2600  -17.9146 C   0  0  0  0  0  0  0  0  0  0  0  0
    0.3195   22.4691  -19.1555 C   0  0  0  0  0  0  0  0  0  0  0  0
   -1.0586   22.2833  -19.3800 C   0  0  0  0  0  0  0  0  0  0  0  0
   -6.8768   21.8532  -20.2375 C   0  0  0  0  0  0  0  0  0  0  0  0
   -5.4668   21.6723  -19.9775 N   0  0  0  0  0  0  0  0  0  0  0  0
   -5.1766   20.4835  -19.2606 C   0  0  0  0  0  0  0  0  0  0  0  0
   -3.7734   20.3741  -18.7248 C   0  0  0  0  0  0  0  0  0  0  0  0
   -3.2047   21.6544  -18.4311 N   0  0  0  0  0  0  0  0  0  0  0  0
   -4.1222   22.7546  -18.2271 C   0  0  0  0  0  0  0  0  0  0  0  0
   -4.9414   22.8931  -19.4753 C   0  0  0  0  0  0  0  0  0  0  0  0
   -1.6039   22.5162  -20.7012 C   0  0  0  0  0  0  0  0  0  0  0  0
   -1.8417   23.7087  -20.9928 O   0  0  0  0  0  0  0  0  0  0  0  0
   -1.8535   21.4495  -21.5713 N   0  0  0  0  0  0  0  0  0  0  0  0
   -1.6327   20.4663  -21.2545 H   0  0  0  0  0  0  0  0  0  0  0  0
   -2.4241   21.5716  -22.8896 C   0  0  0  0  0  0  0  0  0  0  0  0
   -1.6722   21.7815  -23.9925 C   0  0  0  0  0  0  0  0  0  0  0  0
   -2.3243   21.8519  -25.1889 C   0  0  0  0  0  0  0  0  0  0  0  0
   -3.9532   21.6280  -24.7701 S   0  0  0  0  0  0  0  0  0  0  0  0
   -3.7751   21.4453  -23.0715 C   0  0  0  0  0  0  0  0  0  0  0  0
  7  8  1  0  0  0
  8  9  1  0  0  0
  9 10  1  0  0  0
 10 11  1  0  0  0
 11 12  1  0  0  0
 12 13  1  0  0  0
 11  1  1  0  0  0
  1  2  2  0  0  0
  2  3  1  0  0  0
  3  4  2  0  0  0
  4  5  1  0  0  0
  5  6  2  0  0  0
  6 14  1  0  0  0
 14 15  2  0  0  0
 14 16  1  0  0  0
 16 18  1  0  0  0
 18 19  1  0  0  0
 19 20  2  0  0  0
 20 21  1  0  0  0
 21 22  1  0  0  0
 13  8  1  0  0  0
  6  1  1  0  0  0
 22 18  2  0  0  0
 16 17  1  0  0  0
M  END
> <minimizedAffinity>
-4.87353

> <CNNscore>
0.1991753876

> <CNNaffinity>
4.3484902382

> <CNN_VS>
0.8661122322

> <CNNaffinity_variance>
0.2085258663

$$$$
[H]c1sc([H])c(N([H])C(=O)c2c([H])c([H])c([H])c([H])c2N2C([H])([H])C([H])([H])N(C([H])([H])[H])C([H])([H])C2([H])[H])c1[H]


 22 24  0  0  0  0  0  0  0  0999 V2000
   -5.1281   23.5366  -26.4937 C   0  0  0  0  0  0  0  0  0  0  0  0
   -6.0763   23.6303  -27.5294 C   0  0  0  0  0  0  0  0  0  0  0  0
   -5.6717   23.3645  -28.8078 C   0  0  0  0  0  0  0  0  0  0  0  0
   -4.3682   23.0115  -29.0866 C   0  0  0  0  0  0  0  0  0  0  0  0
   -3.4621   22.9257  -28.0553 C   0  0  0  0  0  0  0  0  0  0  0  0
   -3.8407   23.1941  -26.7253 C   0  0  0  0  0  0  0  0  0  0  0  0
   -8.4480   25.2066  -22.5715 C   0  0  0  0  0  0  0  0  0  0  0  0
   -7.7752   24.5255  -23.6542 N   0  0  0  0  0  0  0  0  0  0  0  0
   -6.9699   23.4415  -23.2206 C   0  0  0  0  0  0  0  0  0  0  0  0
   -6.0381   22.8695  -24.2562 C   0  0  0  0  0  0  0  0  0  0  0  0
   -5.6264   23.8499  -25.2145 N   0  0  0  0  0  0  0  0  0  0  0  0
   -5.7368   25.2399  -24.8278 C   0  0  0  0  0  0  0  0  0  0  0  0
   -7.1756   25.5004  -24.4958 C   0  0  0  0  0  0  0  0  0  0  0  0
   -2.8560   23.0902  -25.6685 C   0  0  0  0  0  0  0  0  0  0  0  0
   -2.6852   24.1175  -24.9765 O   0  0  0  0  0  0  0  0  0  0  0  0
   -2.1430   21.9033  -25.4680 N   0  0  0  0  0  0  0  0  0  0  0  0
   -2.3363   21.0761  -26.0959 H   0  0  0  0  0  0  0  0  0  0  0  0
   -1.1216   21.7088  -24.4694 C   0  0  0  0  0  0  0  0  0  0  0  0
   -1.4065   21.3849  -23.1889 C   0  0  0  0  0  0  0  0  0  0  0  0
   -0.3529   21.1997  -22.3422 C   0  0  0  0  0  0  0  0  0  0  0  0
    1.0028   21.4746  -23.3247 S   0  0  0  0  0  0  0  0  0  0  0  0
    0.2013   21.8198  -24.8043 C   0  0  0  0  0  0  0  0  0  0  0  0
  7  8  1  0  0  0
  8  9  1  0  0  0
  9 10  1  0  0  0
 10 11  1  0  0  0
 11 12  1  0  0  0
 12 13  1  0  0  0
 11  1  1  0  0  0
  1  2  2  0  0  0
  2  3  1  0  0  0
  3  4  2  0  0  0
  4  5  1  0  0  0
  5  6  2  0  0  0
  6 14  1  0  0  0
 14 15  2  0  0  0
 14 16  1  0  0  0
 16 18  1  0  0  0
 18 19  1  0  0  0
 19 20  2  0  0  0
 20 21  1  0  0  0
 21 22  1  0  0  0
 13  8  1  0  0  0
  6  1  1  0  0  0
 22 18  2  0  0  0
 16 17  1  0  0  0
M  END
> <minimizedAffinity>
-6.68199

> <CNNscore>
0.1909853071

> <CNNaffinity>
5.2772641182

> <CNN_VS>
1.0078798532

> <CNNaffinity_variance>
0.0728587955

$$$$
[H]c1sc([H])c(N([H])C(=O)c2c([H])c([H])c([H])c([H])c2N2C([H])([H])C([H])([H])N(C([H])([H])[H])C([H])([H])C2([H])[H])c1[H]


 22 24  0  0  0  0  0  0  0  0999 V2000
   -5.6661   23.6890  -22.6246 C   0  0  0  0  0  0  0  0  0  0  0  0
   -6.8360   23.6426  -21.8435 C   0  0  0  0  0  0  0  0  0  0  0  0
   -6.7415   23.1904  -20.5570 C   0  0  0  0  0  0  0  0  0  0  0  0
   -5.5338   22.7877  -20.0272 C   0  0  0  0  0  0  0  0  0  0  0  0
   -4.4055   22.8448  -20.8120 C   0  0  0  0  0  0  0  0  0  0  0  0
   -4.4632   23.3029  -22.1428 C   0  0  0  0  0  0  0  0  0  0  0  0
   -4.6410   25.5898  -27.5774 C   0  0  0  0  0  0  0  0  0  0  0  0
   -4.7590   24.8227  -26.3583 N   0  0  0  0  0  0  0  0  0  0  0  0
   -5.8479   23.9141  -26.3704 C   0  0  0  0  0  0  0  0  0  0  0  0
   -6.1876   23.2895  -25.0429 C   0  0  0  0  0  0  0  0  0  0  0  0
   -5.8607   24.1448  -23.9427 N   0  0  0  0  0  0  0  0  0  0  0  0
   -5.7258   25.5583  -24.2212 C   0  0  0  0  0  0  0  0  0  0  0  0
   -4.6507   25.7114  -25.2551 C   0  0  0  0  0  0  0  0  0  0  0  0
   -3.2514   23.3492  -22.9344 C   0  0  0  0  0  0  0  0  0  0  0  0
   -2.5111   24.3390  -22.7448 O   0  0  0  0  0  0  0  0  0  0  0  0
   -2.9609   22.3403  -23.8590 N   0  0  0  0  0  0  0  0  0  0  0  0
   -3.6363   21.5357  -23.9700 H   0  0  0  0  0  0  0  0  0  0  0  0
   -1.8023   22.3107  -24.7166 C   0  0  0  0  0  0  0  0  0  0  0  0
   -0.5985   21.8600  -24.2998 C   0  0  0  0  0  0  0  0  0  0  0  0
    0.4164   21.8550  -25.2117 C   0  0  0  0  0  0  0  0  0  0  0  0
   -0.3069   22.4691  -26.6183 S   0  0  0  0  0  0  0  0  0  0  0  0
   -1.8971   22.7204  -26.0195 C   0  0  0  0  0  0  0  0  0  0  0  0
  7  8  1  0  0  0
  8  9  1  0  0  0
  9 10  1  0  0  0
 10 11  1  0  0  0
 11 12  1  0  0  0
 12 13  1  0  0  0
 11  1  1  0  0  0
  1  2  2  0  0  0
  2  3  1  0  0  0
  3  4  2  0  0  0
  4  5  1  0  0  0
  5  6  2  0  0  0
  6 14  1  0  0  0
 14 15  2  0  0  0
 14 16  1  0  0  0
 16 18  1  0  0  0
 18 19  1  0  0  0
 19 20  2  0  0  0
 20 21  1  0  0  0
 21 22  1  0  0  0
 13  8  1  0  0  0
  6  1  1  0  0  0
 22 18  2  0  0  0
 16 17  1  0  0  0
M  END
> <minimizedAffinity>
-5.82608

> <CNNscore>
0.1844315380

> <CNNaffinity>
5.0722122192

> <CNN_VS>
0.9354758859

> <CNNaffinity_variance>
0.3137688041

$$$$
[H]c1sc([H])c(N([H])C(=O)c2c([H])c([H])c([H])c([H])c2N2C([H])([H])C([H])([H])N(C([H])([H])[H])C([H])([H])C2([H])[H])c1[H]


 22 24  0  0  0  0  0  0  0  0999 V2000
   -1.4294   22.2484  -24.0012 C   0  0  0  0  0  0  0  0  0  0  0  0
   -0.2004   21.8638  -23.4335 C   0  0  0  0  0  0  0  0  0  0  0  0
    0.8838   21.7344  -24.2559 C   0  0  0  0  0  0  0  0  0  0  0  0
    0.7866   21.9732  -25.6105 C   0  0  0  0  0  0  0  0  0  0  0  0
   -0.4264   22.3495  -26.1391 C   0  0  0  0  0  0  0  0  0  0  0  0
   -1.5665   22.4914  -25.3242 C   0  0  0  0  0  0  0  0  0  0  0  0
   -5.9055   23.9769  -21.5169 C   0  0  0  0  0  0  0  0  0  0  0  0
   -4.9102   23.4453  -22.4199 N   0  0  0  0  0  0  0  0  0  0  0  0
   -4.8082   22.0314  -22.3727 C   0  0  0  0  0  0  0  0  0  0  0  0
   -3.6154   21.4423  -23.0784 C   0  0  0  0  0  0  0  0  0  0  0  0
   -2.4955   22.3338  -23.0851 N   0  0  0  0  0  0  0  0  0  0  0  0
   -2.4759   23.3786  -22.0841 C   0  0  0  0  0  0  0  0  0  0  0  0
   -3.7163   24.2004  -22.2689 C   0  0  0  0  0  0  0  0  0  0  0  0
   -2.8241   22.8915  -25.9205 C   0  0  0  0  0  0  0  0  0  0  0  0
   -3.3646   22.0520  -26.6733 O   0  0  0  0  0  0  0  0  0  0  0  0
   -3.3692   24.1539  -25.6632 N   0  0  0  0  0  0  0  0  0  0  0  0
   -2.8534   24.8144  -25.0201 H   0  0  0  0  0  0  0  0  0  0  0  0
   -4.5938   24.6594  -26.2319 C   0  0  0  0  0  0  0  0  0  0  0  0
   -5.7443   24.7426  -25.5279 C   0  0  0  0  0  0  0  0  0  0  0  0
   -6.8311   25.2642  -26.1669 C   0  0  0  0  0  0  0  0  0  0  0  0
   -6.2469   25.6275  -27.7178 S   0  0  0  0  0  0  0  0  0  0  0  0
   -4.6207   25.1091  -27.5247 C   0  0  0  0  0  0  0  0  0  0  0  0
  7  8  1  0  0  0
  8  9  1  0  0  0
  9 10  1  0  0  0
 10 11  1  0  0  0
 11 12  1  0  0  0
 12 13  1  0  0  0
 11  1  1  0  0  0
  1  2  2  0  0  0
  2  3  1  0  0  0
  3  4  2  0  0  0
  4  5  1  0  0  0
  5  6  2  0  0  0
  6 14  1  0  0  0
 14 15  2  0  0  0
 14 16  1  0  0  0
 16 18  1  0  0  0
 18 19  1  0  0  0
 19 20  2  0  0  0
 20 21  1  0  0  0
 21 22  1  0  0  0
 13  8  1  0  0  0
  6  1  1  0  0  0
 22 18  2  0  0  0
 16 17  1  0  0  0
M  END
> <minimizedAffinity>
-6.48735

> <CNNscore>
0.1684550941

> <CNNaffinity>
5.2042598724

> <CNN_VS>
0.8766840696

> <CNNaffinity_variance>
0.1099348664

$$$$
[H]c1c([H])c([H])c(C([H])([H])[C@@]([H])(C(=O)N([H])[C@]([H])(C(=O)N([H])[C@]([H])(C(=O)N([H])[H])C([H])([H])c2c([H])n([H])c3c([H])c([H])c([H])c([H])c23)C([H])([H])C([H])([H])C([H])([H])N=C(N([H])[H])N([H])[H])N([H])C(=O)[C@@]([H])(N([H])[H])C([H])([H])C([H])(C([H])([H])[H])C([H])([H])[H])c([H])c1[H]


 57 59  0  0  0  0  0  0  0  0999 V2000
   -4.8341   25.6710  -24.1299 C   0  0  0  0  0  0  0  0  0  0  0  0
   -3.1922   23.9514  -23.4536 C   0  0  0  0  0  0  0  0  0  0  0  0
   -3.3283   24.3992  -22.2452 O   0  0  0  0  0  0  0  0  0  0  0  0
   -3.9665   24.5611  -24.4631 N   0  0  0  0  0  0  0  0  0  0  0  0
   -3.9198   24.2214  -25.4299 H   0  0  0  0  0  0  0  0  0  0  0  0
   -2.2554   22.8628  -23.7072 C   0  0  0  0  0  0  0  0  0  0  0  0
   -0.7819   21.5493  -22.1193 C   0  0  0  0  0  0  0  0  0  0  0  0
    0.1841   21.6268  -22.9156 O   0  0  0  0  0  0  0  0  0  0  0  0
   -2.0177   22.1423  -22.4539 N   0  0  0  0  0  0  0  0  0  0  0  0
   -2.8087   22.0808  -21.7905 H   0  0  0  0  0  0  0  0  0  0  0  0
   -0.6625   20.8456  -20.8170 C   0  0  0  0  0  0  0  0  0  0  0  0
   -0.3827   19.4466  -21.0139 N   0  0  0  0  0  0  0  0  0  0  0  0
    0.6267   19.2223  -20.9762 H   0  0  0  0  0  0  0  0  0  0  0  0
   -0.9652   18.8339  -20.4148 H   0  0  0  0  0  0  0  0  0  0  0  0
    0.2946   21.5176  -19.8874 C   0  0  0  0  0  0  0  0  0  0  0  0
   -0.9231   23.3980  -18.8914 C   0  0  0  0  0  0  0  0  0  0  0  0
   -0.4087   22.0022  -18.6269 C   0  0  0  0  0  0  0  0  0  0  0  0
    0.5218   21.9942  -17.4475 C   0  0  0  0  0  0  0  0  0  0  0  0
   -2.4754   21.9594  -24.8470 C   0  0  0  0  0  0  0  0  0  0  0  0
   -1.8854   22.3481  -26.1385 C   0  0  0  0  0  0  0  0  0  0  0  0
   -0.5023   22.3710  -26.2644 C   0  0  0  0  0  0  0  0  0  0  0  0
    0.0860   22.7599  -27.4353 C   0  0  0  0  0  0  0  0  0  0  0  0
   -0.6683   23.1465  -28.5418 C   0  0  0  0  0  0  0  0  0  0  0  0
   -2.0302   23.1096  -28.3746 C   0  0  0  0  0  0  0  0  0  0  0  0
   -2.6412   22.7226  -27.2081 C   0  0  0  0  0  0  0  0  0  0  0  0
   -6.0806   25.1955  -23.5149 C   0  0  0  0  0  0  0  0  0  0  0  0
   -6.8751   24.3960  -24.0865 O   0  0  0  0  0  0  0  0  0  0  0  0
   -6.3963   25.6507  -22.2200 N   0  0  0  0  0  0  0  0  0  0  0  0
   -5.8022   26.2984  -21.7107 H   0  0  0  0  0  0  0  0  0  0  0  0
   -7.6317   25.1739  -21.5748 C   0  0  0  0  0  0  0  0  0  0  0  0
   -8.7710   26.0013  -21.9262 C   0  0  0  0  0  0  0  0  0  0  0  0
   -9.6186   25.7646  -23.0486 N   0  0  0  0  0  0  0  0  0  0  0  0
   -9.1129   27.0409  -21.2460 O   0  0  0  0  0  0  0  0  0  0  0  0
  -10.6318   25.7123  -22.9154 H   0  0  0  0  0  0  0  0  0  0  0  0
   -9.2000   25.6493  -23.9819 H   0  0  0  0  0  0  0  0  0  0  0  0
   -7.3063   24.9418  -20.1405 C   0  0  0  0  0  0  0  0  0  0  0  0
   -6.3920   23.8729  -19.7926 C   0  0  0  0  0  0  0  0  0  0  0  0
   -6.0895   22.7685  -20.6109 C   0  0  0  0  0  0  0  0  0  0  0  0
   -5.2523   22.0121  -19.9080 N   0  0  0  0  0  0  0  0  0  0  0  0
   -4.9848   22.5498  -18.6805 C   0  0  0  0  0  0  0  0  0  0  0  0
   -4.1750   22.1425  -17.6451 C   0  0  0  0  0  0  0  0  0  0  0  0
   -4.0461   22.8834  -16.5015 C   0  0  0  0  0  0  0  0  0  0  0  0
   -4.7554   24.0780  -16.3907 C   0  0  0  0  0  0  0  0  0  0  0  0
   -5.5614   24.4714  -17.4336 C   0  0  0  0  0  0  0  0  0  0  0  0
   -5.6971   23.7245  -18.5947 C   0  0  0  0  0  0  0  0  0  0  0  0
   -4.8489   21.1041  -20.2717 H   0  0  0  0  0  0  0  0  0  0  0  0
   -5.0477   26.5951  -25.2937 C   0  0  0  0  0  0  0  0  0  0  0  0
   -4.6769   25.9447  -26.6102 C   0  0  0  0  0  0  0  0  0  0  0  0
   -5.9796   25.6279  -27.3514 C   0  0  0  0  0  0  0  0  0  0  0  0
   -5.7527   24.5140  -28.2620 N   0  0  0  0  0  0  0  0  0  0  0  0
   -5.7587   24.5977  -29.5332 C   0  0  0  0  0  0  0  0  0  0  0  0
   -5.5304   23.4683  -30.3425 N   0  0  0  0  0  0  0  0  0  0  0  0
   -5.9996   25.8456  -30.1599 N   0  0  0  0  0  0  0  0  0  0  0  0
   -4.6686   23.3069  -30.8767 H   0  0  0  0  0  0  0  0  0  0  0  0
   -6.2830   22.7374  -30.4137 H   0  0  0  0  0  0  0  0  0  0  0  0
   -5.4460   26.6954  -29.8478 H   0  0  0  0  0  0  0  0  0  0  0  0
   -6.6952   25.9355  -30.9048 H   0  0  0  0  0  0  0  0  0  0  0  0
 16 17  1  0  0  0
 17 18  1  0  0  0
 17 15  1  0  0  0
 15 11  1  0  0  0
 11 12  1  0  0  0
 11  7  1  0  0  0
  7  8  2  0  0  0
  7  9  1  0  0  0
  9  6  1  0  0  0
  6 19  1  0  0  0
 19 20  1  0  0  0
 20 21  2  0  0  0
 21 22  1  0  0  0
 22 23  2  0  0  0
 23 24  1  0  0  0
 24 25  2  0  0  0
  6  2  1  0  0  0
  2  3  2  0  0  0
  2  4  1  0  0  0
  4  1  1  0  0  0
  1 47  1  0  0  0
 47 48  1  0  0  0
 48 49  1  0  0  0
 49 50  1  0  0  0
 50 51  2  0  0  0
 51 52  1  0  0  0
 51 53  1  0  0  0
  1 26  1  0  0  0
 26 27  2  0  0  0
 26 28  1  0  0  0
 28 30  1  0  0  0
 30 36  1  0  0  0
 36 37  1  0  0  0
 37 38  2  0  0  0
 38 39  1  0  0  0
 39 40  1  0  0  0
 40 41  2  0  0  0
 41 42  1  0  0  0
 42 43  2  0  0  0
 43 44  1  0  0  0
 44 45  2  0  0  0
 30 31  1  0  0  0
 31 32  1  0  0  0
 31 33  2  0  0  0
 25 20  1  0  0  0
 45 37  1  0  0  0
 45 40  1  0  0  0
 12 13  1  0  0  0
 12 14  1  0  0  0
  9 10  1  0  0  0
  4  5  1  0  0  0
 52 54  1  0  0  0
 52 55  1  0  0  0
 53 56  1  0  0  0
 53 57  1  0  0  0
 28 29  1  0  0  0
 39 46  1  0  0  0
 32 34  1  0  0  0
 32 35  1  0  0  0
M  END
> <minimizedAffinity>
-8.45176

> <CNNscore>
0.2570497394

> <CNNaffinity>
7.1031312943

> <CNN_VS>
1.8258579969

> <CNNaffinity_variance>
0.4670174718

$$$$
[H]c1c([H])c([H])c(C([H])([H])[C@@]([H])(C(=O)N([H])[C@]([H])(C(=O)N([H])[C@]([H])(C(=O)N([H])[H])C([H])([H])c2c([H])n([H])c3c([H])c([H])c([H])c([H])c23)C([H])([H])C([H])([H])C([H])([H])N=C(N([H])[H])N([H])[H])N([H])C(=O)[C@@]([H])(N([H])[H])C([H])([H])C([H])(C([H])([H])[H])C([H])([H])[H])c([H])c1[H]


 57 59  0  0  0  0  0  0  0  0999 V2000
   -2.1513   21.9289  -23.1353 C   0  0  0  0  0  0  0  0  0  0  0  0
   -4.1293   22.3297  -24.5627 C   0  0  0  0  0  0  0  0  0  0  0  0
   -4.6311   21.2522  -24.0464 O   0  0  0  0  0  0  0  0  0  0  0  0
   -2.8569   22.7358  -24.1084 N   0  0  0  0  0  0  0  0  0  0  0  0
   -2.4306   23.5995  -24.4615 H   0  0  0  0  0  0  0  0  0  0  0  0
   -4.8887   23.0527  -25.5763 C   0  0  0  0  0  0  0  0  0  0  0  0
   -6.1159   24.4708  -23.8731 C   0  0  0  0  0  0  0  0  0  0  0  0
   -5.0298   24.8556  -23.3774 O   0  0  0  0  0  0  0  0  0  0  0  0
   -6.1124   23.5774  -24.9652 N   0  0  0  0  0  0  0  0  0  0  0  0
   -7.0109   23.2688  -25.3739 H   0  0  0  0  0  0  0  0  0  0  0  0
   -7.4222   24.9345  -23.3404 C   0  0  0  0  0  0  0  0  0  0  0  0
   -8.3777   25.1071  -24.4041 N   0  0  0  0  0  0  0  0  0  0  0  0
   -8.9815   24.2795  -24.5495 H   0  0  0  0  0  0  0  0  0  0  0  0
   -8.9052   25.9957  -24.3278 H   0  0  0  0  0  0  0  0  0  0  0  0
   -7.9239   24.0768  -22.2247 C   0  0  0  0  0  0  0  0  0  0  0  0
   -7.4082   25.6199  -20.3906 C   0  0  0  0  0  0  0  0  0  0  0  0
   -8.5350   24.9191  -21.1132 C   0  0  0  0  0  0  0  0  0  0  0  0
   -9.3291   24.0704  -20.1614 C   0  0  0  0  0  0  0  0  0  0  0  0
   -4.2124   24.0420  -26.4294 C   0  0  0  0  0  0  0  0  0  0  0  0
   -4.6941   24.1796  -27.8136 C   0  0  0  0  0  0  0  0  0  0  0  0
   -5.0033   25.4460  -28.2934 C   0  0  0  0  0  0  0  0  0  0  0  0
   -5.4869   25.6136  -29.5608 C   0  0  0  0  0  0  0  0  0  0  0  0
   -5.6888   24.5328  -30.4175 C   0  0  0  0  0  0  0  0  0  0  0  0
   -5.3710   23.3002  -29.9039 C   0  0  0  0  0  0  0  0  0  0  0  0
   -4.8844   23.1095  -28.6347 C   0  0  0  0  0  0  0  0  0  0  0  0
   -2.4497   22.3763  -21.7683 C   0  0  0  0  0  0  0  0  0  0  0  0
   -1.9675   23.4292  -21.2622 O   0  0  0  0  0  0  0  0  0  0  0  0
   -3.3241   21.5925  -20.9905 N   0  0  0  0  0  0  0  0  0  0  0  0
   -3.7391   20.7329  -21.3377 H   0  0  0  0  0  0  0  0  0  0  0  0
   -3.6530   22.0300  -19.6230 C   0  0  0  0  0  0  0  0  0  0  0  0
   -3.5091   20.9475  -18.6672 C   0  0  0  0  0  0  0  0  0  0  0  0
   -2.6396   20.9852  -17.5373 N   0  0  0  0  0  0  0  0  0  0  0  0
   -4.1606   19.8401  -18.7658 O   0  0  0  0  0  0  0  0  0  0  0  0
   -3.0095   20.7744  -16.6068 H   0  0  0  0  0  0  0  0  0  0  0  0
   -1.6475   21.2243  -17.6716 H   0  0  0  0  0  0  0  0  0  0  0  0
   -4.9421   22.7705  -19.7063 C   0  0  0  0  0  0  0  0  0  0  0  0
   -5.7772   22.8602  -18.5256 C   0  0  0  0  0  0  0  0  0  0  0  0
   -5.5581   23.7338  -17.4441 C   0  0  0  0  0  0  0  0  0  0  0  0
   -6.5160   23.4689  -16.5613 N   0  0  0  0  0  0  0  0  0  0  0  0
   -7.3510   22.4777  -16.9946 C   0  0  0  0  0  0  0  0  0  0  0  0
   -8.4711   21.8998  -16.4419 C   0  0  0  0  0  0  0  0  0  0  0  0
   -9.1711   20.9228  -17.0967 C   0  0  0  0  0  0  0  0  0  0  0  0
   -8.7325   20.5088  -18.3531 C   0  0  0  0  0  0  0  0  0  0  0  0
   -7.6110   21.0951  -18.8921 C   0  0  0  0  0  0  0  0  0  0  0  0
   -6.8966   22.0849  -18.2330 C   0  0  0  0  0  0  0  0  0  0  0  0
   -6.6075   23.9762  -15.6374 H   0  0  0  0  0  0  0  0  0  0  0  0
   -0.6831   21.8329  -23.4337 C   0  0  0  0  0  0  0  0  0  0  0  0
   -0.2759   22.7391  -24.5768 C   0  0  0  0  0  0  0  0  0  0  0  0
    0.5085   21.8899  -25.5819 C   0  0  0  0  0  0  0  0  0  0  0  0
    0.6092   22.6125  -26.8425 N   0  0  0  0  0  0  0  0  0  0  0  0
   -0.3191   22.6984  -27.7106 C   0  0  0  0  0  0  0  0  0  0  0  0
   -0.1385   23.4186  -28.9071 N   0  0  0  0  0  0  0  0  0  0  0  0
   -1.5639   22.0609  -27.4822 N   0  0  0  0  0  0  0  0  0  0  0  0
   -0.5793   24.3240  -29.1068 H   0  0  0  0  0  0  0  0  0  0  0  0
    0.4838   23.0133  -29.6516 H   0  0  0  0  0  0  0  0  0  0  0  0
   -2.0605   22.2145  -26.5571 H   0  0  0  0  0  0  0  0  0  0  0  0
   -1.9863   21.4597  -28.1942 H   0  0  0  0  0  0  0  0  0  0  0  0
 16 17  1  0  0  0
 17 18  1  0  0  0
 17 15  1  0  0  0
 15 11  1  0  0  0
 11 12  1  0  0  0
 11  7  1  0  0  0
  7  8  2  0  0  0
  7  9  1  0  0  0
  9  6  1  0  0  0
  6 19  1  0  0  0
 19 20  1  0  0  0
 20 21  2  0  0  0
 21 22  1  0  0  0
 22 23  2  0  0  0
 23 24  1  0  0  0
 24 25  2  0  0  0
  6  2  1  0  0  0
  2  3  2  0  0  0
  2  4  1  0  0  0
  4  1  1  0  0  0
  1 47  1  0  0  0
 47 48  1  0  0  0
 48 49  1  0  0  0
 49 50  1  0  0  0
 50 51  2  0  0  0
 51 52  1  0  0  0
 51 53  1  0  0  0
  1 26  1  0  0  0
 26 27  2  0  0  0
 26 28  1  0  0  0
 28 30  1  0  0  0
 30 36  1  0  0  0
 36 37  1  0  0  0
 37 38  2  0  0  0
 38 39  1  0  0  0
 39 40  1  0  0  0
 40 41  2  0  0  0
 41 42  1  0  0  0
 42 43  2  0  0  0
 43 44  1  0  0  0
 44 45  2  0  0  0
 30 31  1  0  0  0
 31 32  1  0  0  0
 31 33  2  0  0  0
 25 20  1  0  0  0
 45 37  1  0  0  0
 45 40  1  0  0  0
 12 13  1  0  0  0
 12 14  1  0  0  0
  9 10  1  0  0  0
  4  5  1  0  0  0
 52 54  1  0  0  0
 52 55  1  0  0  0
 53 56  1  0  0  0
 53 57  1  0  0  0
 28 29  1  0  0  0
 39 46  1  0  0  0
 32 34  1  0  0  0
 32 35  1  0  0  0
M  END
> <minimizedAffinity>
-7.66943

> <CNNscore>
0.2533465624

> <CNNaffinity>
7.1655492783

> <CNN_VS>
1.8153672218

> <CNNaffinity_variance>
0.2939940095

$$$$
[H]c1c([H])c([H])c(C([H])([H])[C@@]([H])(C(=O)N([H])[C@]([H])(C(=O)N([H])[C@]([H])(C(=O)N([H])[H])C([H])([H])c2c([H])n([H])c3c([H])c([H])c([H])c([H])c23)C([H])([H])C([H])([H])C([H])([H])N=C(N([H])[H])N([H])[H])N([H])C(=O)[C@@]([H])(N([H])[H])C([H])([H])C([H])(C([H])([H])[H])C([H])([H])[H])c([H])c1[H]


 57 59  0  0  0  0  0  0  0  0999 V2000
   -3.4612   23.0338  -23.3594 C   0  0  0  0  0  0  0  0  0  0  0  0
   -1.4007   22.3556  -22.1741 C   0  0  0  0  0  0  0  0  0  0  0  0
   -0.7520   23.0596  -23.0477 O   0  0  0  0  0  0  0  0  0  0  0  0
   -2.8074   22.3274  -22.2780 N   0  0  0  0  0  0  0  0  0  0  0  0
   -3.3686   21.8118  -21.5914 H   0  0  0  0  0  0  0  0  0  0  0  0
   -0.6564   21.6332  -21.1489 C   0  0  0  0  0  0  0  0  0  0  0  0
   -1.3265   22.7996  -19.0023 C   0  0  0  0  0  0  0  0  0  0  0  0
   -0.5974   23.7814  -19.2815 O   0  0  0  0  0  0  0  0  0  0  0  0
   -1.3989   21.7037  -19.8880 N   0  0  0  0  0  0  0  0  0  0  0  0
   -2.0069   20.9000  -19.6556 H   0  0  0  0  0  0  0  0  0  0  0  0
   -2.1281   22.7560  -17.7530 C   0  0  0  0  0  0  0  0  0  0  0  0
   -3.5153   23.0329  -18.0238 N   0  0  0  0  0  0  0  0  0  0  0  0
   -4.0843   22.1790  -18.1567 H   0  0  0  0  0  0  0  0  0  0  0  0
   -3.9280   23.7044  -17.3512 H   0  0  0  0  0  0  0  0  0  0  0  0
   -1.9143   21.4969  -16.9778 C   0  0  0  0  0  0  0  0  0  0  0  0
   -0.0103   19.9548  -17.0658 C   0  0  0  0  0  0  0  0  0  0  0  0
   -0.4495   21.3235  -16.6001 C   0  0  0  0  0  0  0  0  0  0  0  0
   -0.2486   21.4697  -15.1186 C   0  0  0  0  0  0  0  0  0  0  0  0
   -0.1458   20.2828  -21.4309 C   0  0  0  0  0  0  0  0  0  0  0  0
    1.3144   20.1201  -21.5224 C   0  0  0  0  0  0  0  0  0  0  0  0
    2.0095   20.8334  -22.4906 C   0  0  0  0  0  0  0  0  0  0  0  0
    3.3609   20.6843  -22.6321 C   0  0  0  0  0  0  0  0  0  0  0  0
    4.0921   19.8192  -21.8198 C   0  0  0  0  0  0  0  0  0  0  0  0
    3.3668   19.1342  -20.8770 C   0  0  0  0  0  0  0  0  0  0  0  0
    2.0102   19.2688  -20.7181 C   0  0  0  0  0  0  0  0  0  0  0  0
   -4.5654   23.8600  -22.8535 C   0  0  0  0  0  0  0  0  0  0  0  0
   -4.4011   24.8194  -22.0474 O   0  0  0  0  0  0  0  0  0  0  0  0
   -5.8693   23.5685  -23.2993 N   0  0  0  0  0  0  0  0  0  0  0  0
   -6.0675   22.8071  -23.9417 H   0  0  0  0  0  0  0  0  0  0  0  0
   -6.9911   24.3944  -22.8204 C   0  0  0  0  0  0  0  0  0  0  0  0
   -7.8867   23.6353  -21.9673 C   0  0  0  0  0  0  0  0  0  0  0  0
   -8.9750   24.2024  -21.2406 N   0  0  0  0  0  0  0  0  0  0  0  0
   -7.7664   22.3651  -21.7864 O   0  0  0  0  0  0  0  0  0  0  0  0
   -9.9108   23.7992  -21.3342 H   0  0  0  0  0  0  0  0  0  0  0  0
   -8.8057   25.0124  -20.6284 H   0  0  0  0  0  0  0  0  0  0  0  0
   -7.5364   25.1095  -24.0070 C   0  0  0  0  0  0  0  0  0  0  0  0
   -6.6147   25.6385  -24.9921 C   0  0  0  0  0  0  0  0  0  0  0  0
   -5.9350   26.8663  -24.8869 C   0  0  0  0  0  0  0  0  0  0  0  0
   -5.2328   26.9919  -26.0086 N   0  0  0  0  0  0  0  0  0  0  0  0
   -5.4072   25.9241  -26.8435 C   0  0  0  0  0  0  0  0  0  0  0  0
   -4.8763   25.6115  -28.0740 C   0  0  0  0  0  0  0  0  0  0  0  0
   -5.1875   24.4418  -28.7130 C   0  0  0  0  0  0  0  0  0  0  0  0
   -6.0640   23.5511  -28.0958 C   0  0  0  0  0  0  0  0  0  0  0  0
   -6.5871   23.8779  -26.8663 C   0  0  0  0  0  0  0  0  0  0  0  0
   -6.2765   25.0623  -26.2141 C   0  0  0  0  0  0  0  0  0  0  0  0
   -4.6155   27.8262  -26.2143 H   0  0  0  0  0  0  0  0  0  0  0  0
   -3.8559   22.1170  -24.4808 C   0  0  0  0  0  0  0  0  0  0  0  0
   -3.3698   22.6210  -25.8236 C   0  0  0  0  0  0  0  0  0  0  0  0
   -2.0212   21.9517  -26.1070 C   0  0  0  0  0  0  0  0  0  0  0  0
   -1.5219   22.4096  -27.3964 N   0  0  0  0  0  0  0  0  0  0  0  0
   -0.3438   22.8447  -27.6100 C   0  0  0  0  0  0  0  0  0  0  0  0
    0.0589   23.2696  -28.8907 N   0  0  0  0  0  0  0  0  0  0  0  0
    0.5913   22.9090  -26.5472 N   0  0  0  0  0  0  0  0  0  0  0  0
    0.7029   22.7465  -29.4953 H   0  0  0  0  0  0  0  0  0  0  0  0
   -0.3157   24.1793  -29.2619 H   0  0  0  0  0  0  0  0  0  0  0  0
    0.7386   22.0537  -25.9367 H   0  0  0  0  0  0  0  0  0  0  0  0
    1.1224   23.7641  -26.3639 H   0  0  0  0  0  0  0  0  0  0  0  0
 16 17  1  0  0  0
 17 18  1  0  0  0
 17 15  1  0  0  0
 15 11  1  0  0  0
 11 12  1  0  0  0
 11  7  1  0  0  0
  7  8  2  0  0  0
  7  9  1  0  0  0
  9  6  1  0  0  0
  6 19  1  0  0  0
 19 20  1  0  0  0
 20 21  2  0  0  0
 21 22  1  0  0  0
 22 23  2  0  0  0
 23 24  1  0  0  0
 24 25  2  0  0  0
  6  2  1  0  0  0
  2  3  2  0  0  0
  2  4  1  0  0  0
  4  1  1  0  0  0
  1 47  1  0  0  0
 47 48  1  0  0  0
 48 49  1  0  0  0
 49 50  1  0  0  0
 50 51  2  0  0  0
 51 52  1  0  0  0
 51 53  1  0  0  0
  1 26  1  0  0  0
 26 27  2  0  0  0
 26 28  1  0  0  0
 28 30  1  0  0  0
 30 36  1  0  0  0
 36 37  1  0  0  0
 37 38  2  0  0  0
 38 39  1  0  0  0
 39 40  1  0  0  0
 40 41  2  0  0  0
 41 42  1  0  0  0
 42 43  2  0  0  0
 43 44  1  0  0  0
 44 45  2  0  0  0
 30 31  1  0  0  0
 31 32  1  0  0  0
 31 33  2  0  0  0
 25 20  1  0  0  0
 45 37  1  0  0  0
 45 40  1  0  0  0
 12 13  1  0  0  0
 12 14  1  0  0  0
  9 10  1  0  0  0
  4  5  1  0  0  0
 52 54  1  0  0  0
 52 55  1  0  0  0
 53 56  1  0  0  0
 53 57  1  0  0  0
 28 29  1  0  0  0
 39 46  1  0  0  0
 32 34  1  0  0  0
 32 35  1  0  0  0
M  END
> <minimizedAffinity>
-7.80381

> <CNNscore>
0.2416201085

> <CNNaffinity>
7.2529945374

> <CNN_VS>
1.7524693012

> <CNNaffinity_variance>
0.2575067282

$$$$
[H]c1c([H])c([H])c(C([H])([H])[C@@]([H])(C(=O)N([H])[C@]([H])(C(=O)N([H])[C@]([H])(C(=O)N([H])[H])C([H])([H])c2c([H])n([H])c3c([H])c([H])c([H])c([H])c23)C([H])([H])C([H])([H])C([H])([H])N=C(N([H])[H])N([H])[H])N([H])C(=O)[C@@]([H])(N([H])[H])C([H])([H])C([H])(C([H])([H])[H])C([H])([H])[H])c([H])c1[H]


 57 59  0  0  0  0  0  0  0  0999 V2000
   -2.9905   22.4839  -24.8711 C   0  0  0  0  0  0  0  0  0  0  0  0
   -3.8363   22.7045  -22.5589 C   0  0  0  0  0  0  0  0  0  0  0  0
   -3.7308   23.9862  -22.7188 O   0  0  0  0  0  0  0  0  0  0  0  0
   -3.4866   21.8828  -23.6511 N   0  0  0  0  0  0  0  0  0  0  0  0
   -3.5840   20.8637  -23.5865 H   0  0  0  0  0  0  0  0  0  0  0  0
   -4.2962   22.1835  -21.2767 C   0  0  0  0  0  0  0  0  0  0  0  0
   -2.1294   22.0795  -19.9684 C   0  0  0  0  0  0  0  0  0  0  0  0
   -2.0907   23.3308  -19.8892 O   0  0  0  0  0  0  0  0  0  0  0  0
   -3.1973   21.4507  -20.6429 N   0  0  0  0  0  0  0  0  0  0  0  0
   -3.2272   20.4185  -20.6992 H   0  0  0  0  0  0  0  0  0  0  0  0
   -1.0730   21.2285  -19.3641 C   0  0  0  0  0  0  0  0  0  0  0  0
   -0.8408   20.0536  -20.1642 N   0  0  0  0  0  0  0  0  0  0  0  0
   -0.0597   20.1629  -20.8339 H   0  0  0  0  0  0  0  0  0  0  0  0
   -0.7814   19.1886  -19.5969 H   0  0  0  0  0  0  0  0  0  0  0  0
    0.1731   21.9929  -19.0560 C   0  0  0  0  0  0  0  0  0  0  0  0
   -0.3413   21.4836  -16.7135 C   0  0  0  0  0  0  0  0  0  0  0  0
    0.7758   21.5536  -17.7285 C   0  0  0  0  0  0  0  0  0  0  0  0
    1.8458   22.5056  -17.2752 C   0  0  0  0  0  0  0  0  0  0  0  0
   -5.0022   23.0693  -20.3383 C   0  0  0  0  0  0  0  0  0  0  0  0
   -6.4738   23.0409  -20.3624 C   0  0  0  0  0  0  0  0  0  0  0  0
   -7.1137   22.0360  -21.0767 C   0  0  0  0  0  0  0  0  0  0  0  0
   -8.4778   21.9941  -21.1536 C   0  0  0  0  0  0  0  0  0  0  0  0
   -9.2772   22.9477  -20.5256 C   0  0  0  0  0  0  0  0  0  0  0  0
   -8.6049   23.9224  -19.8313 C   0  0  0  0  0  0  0  0  0  0  0  0
   -7.2367   23.9832  -19.7414 C   0  0  0  0  0  0  0  0  0  0  0  0
   -4.0945   22.7942  -25.7891 C   0  0  0  0  0  0  0  0  0  0  0  0
   -5.2580   22.3176  -25.6609 O   0  0  0  0  0  0  0  0  0  0  0  0
   -3.8394   23.6738  -26.8591 N   0  0  0  0  0  0  0  0  0  0  0  0
   -2.9244   24.0848  -27.0196 H   0  0  0  0  0  0  0  0  0  0  0  0
   -4.9351   24.0146  -27.7827 C   0  0  0  0  0  0  0  0  0  0  0  0
   -4.6764   23.5217  -29.1229 C   0  0  0  0  0  0  0  0  0  0  0  0
   -5.4242   23.9026  -30.2760 N   0  0  0  0  0  0  0  0  0  0  0  0
   -3.7380   22.6785  -29.3858 O   0  0  0  0  0  0  0  0  0  0  0  0
   -4.9347   24.2516  -31.1041 H   0  0  0  0  0  0  0  0  0  0  0  0
   -6.4502   23.8212  -30.2618 H   0  0  0  0  0  0  0  0  0  0  0  0
   -5.2390   25.4575  -27.5761 C   0  0  0  0  0  0  0  0  0  0  0  0
   -5.4419   25.9455  -26.2269 C   0  0  0  0  0  0  0  0  0  0  0  0
   -4.5855   26.8343  -25.5506 C   0  0  0  0  0  0  0  0  0  0  0  0
   -5.1052   26.9893  -24.3370 N   0  0  0  0  0  0  0  0  0  0  0  0
   -6.2492   26.2598  -24.1734 C   0  0  0  0  0  0  0  0  0  0  0  0
   -7.1242   26.1293  -23.1193 C   0  0  0  0  0  0  0  0  0  0  0  0
   -8.2418   25.3443  -23.2081 C   0  0  0  0  0  0  0  0  0  0  0  0
   -8.4926   24.6638  -24.3983 C   0  0  0  0  0  0  0  0  0  0  0  0
   -7.6084   24.8035  -25.4427 C   0  0  0  0  0  0  0  0  0  0  0  0
   -6.4735   25.5967  -25.3585 C   0  0  0  0  0  0  0  0  0  0  0  0
   -4.6722   27.6095  -23.5972 H   0  0  0  0  0  0  0  0  0  0  0  0
   -1.8918   21.6749  -25.4975 C   0  0  0  0  0  0  0  0  0  0  0  0
   -0.5412   22.3449  -25.3541 C   0  0  0  0  0  0  0  0  0  0  0  0
    0.0351   21.9354  -23.9951 C   0  0  0  0  0  0  0  0  0  0  0  0
    1.4575   21.6593  -24.1427 N   0  0  0  0  0  0  0  0  0  0  0  0
    2.1863   21.0945  -23.2636 C   0  0  0  0  0  0  0  0  0  0  0  0
    3.5576   20.8649  -23.4867 N   0  0  0  0  0  0  0  0  0  0  0  0
    1.6201   20.6841  -22.0311 N   0  0  0  0  0  0  0  0  0  0  0  0
    3.9651   19.9402  -23.6676 H   0  0  0  0  0  0  0  0  0  0  0  0
    4.2164   21.6843  -23.4680 H   0  0  0  0  0  0  0  0  0  0  0  0
    0.7302   20.1062  -22.0388 H   0  0  0  0  0  0  0  0  0  0  0  0
    2.0569   20.9360  -21.1409 H   0  0  0  0  0  0  0  0  0  0  0  0
 16 17  1  0  0  0
 17 18  1  0  0  0
 17 15  1  0  0  0
 15 11  1  0  0  0
 11 12  1  0  0  0
 11  7  1  0  0  0
  7  8  2  0  0  0
  7  9  1  0  0  0
  9  6  1  0  0  0
  6 19  1  0  0  0
 19 20  1  0  0  0
 20 21  2  0  0  0
 21 22  1  0  0  0
 22 23  2  0  0  0
 23 24  1  0  0  0
 24 25  2  0  0  0
  6  2  1  0  0  0
  2  3  2  0  0  0
  2  4  1  0  0  0
  4  1  1  0  0  0
  1 47  1  0  0  0
 47 48  1  0  0  0
 48 49  1  0  0  0
 49 50  1  0  0  0
 50 51  2  0  0  0
 51 52  1  0  0  0
 51 53  1  0  0  0
  1 26  1  0  0  0
 26 27  2  0  0  0
 26 28  1  0  0  0
 28 30  1  0  0  0
 30 36  1  0  0  0
 36 37  1  0  0  0
 37 38  2  0  0  0
 38 39  1  0  0  0
 39 40  1  0  0  0
 40 41  2  0  0  0
 41 42  1  0  0  0
 42 43  2  0  0  0
 43 44  1  0  0  0
 44 45  2  0  0  0
 30 31  1  0  0  0
 31 32  1  0  0  0
 31 33  2  0  0  0
 25 20  1  0  0  0
 45 37  1  0  0  0
 45 40  1  0  0  0
 12 13  1  0  0  0
 12 14  1  0  0  0
  9 10  1  0  0  0
  4  5  1  0  0  0
 52 54  1  0  0  0
 52 55  1  0  0  0
 53 56  1  0  0  0
 53 57  1  0  0  0
 28 29  1  0  0  0
 39 46  1  0  0  0
 32 34  1  0  0  0
 32 35  1  0  0  0
M  END
> <minimizedAffinity>
-7.70366

> <CNNscore>
0.1995025277

> <CNNaffinity>
7.1270995140

> <CNN_VS>
1.4218744040

> <CNNaffinity_variance>
0.4521299005

$$$$
[H]c1c([H])c([H])c(C([H])([H])[C@@]([H])(C(=O)N([H])[C@]([H])(C(=O)N([H])[C@]([H])(C(=O)N([H])[H])C([H])([H])c2c([H])n([H])c3c([H])c([H])c([H])c([H])c23)C([H])([H])C([H])([H])C([H])([H])N=C(N([H])[H])N([H])[H])N([H])C(=O)[C@@]([H])(N([H])[H])C([H])([H])C([H])(C([H])([H])[H])C([H])([H])[H])c([H])c1[H]


 57 59  0  0  0  0  0  0  0  0999 V2000
   -1.4703   22.4544  -20.6581 C   0  0  0  0  0  0  0  0  0  0  0  0
   -2.3629   22.7615  -18.3735 C   0  0  0  0  0  0  0  0  0  0  0  0
   -1.3512   23.5427  -18.1604 O   0  0  0  0  0  0  0  0  0  0  0  0
   -2.4829   22.1901  -19.6578 N   0  0  0  0  0  0  0  0  0  0  0  0
   -3.2836   21.5912  -19.8871 H   0  0  0  0  0  0  0  0  0  0  0  0
   -3.3073   22.5097  -17.2910 C   0  0  0  0  0  0  0  0  0  0  0  0
   -5.4996   23.6841  -17.7730 C   0  0  0  0  0  0  0  0  0  0  0  0
   -5.0803   24.7366  -17.2345 O   0  0  0  0  0  0  0  0  0  0  0  0
   -4.6679   22.5459  -17.8329 N   0  0  0  0  0  0  0  0  0  0  0  0
   -5.0167   21.6831  -18.2840 H   0  0  0  0  0  0  0  0  0  0  0  0
   -6.8613   23.5990  -18.3592 C   0  0  0  0  0  0  0  0  0  0  0  0
   -7.2107   24.8274  -19.0251 N   0  0  0  0  0  0  0  0  0  0  0  0
   -7.0131   24.8125  -20.0406 H   0  0  0  0  0  0  0  0  0  0  0  0
   -8.1684   25.1490  -18.7947 H   0  0  0  0  0  0  0  0  0  0  0  0
   -7.0433   22.3875  -19.2143 C   0  0  0  0  0  0  0  0  0  0  0  0
   -7.3652   20.0090  -18.7143 C   0  0  0  0  0  0  0  0  0  0  0  0
   -7.9765   21.3815  -18.5544 C   0  0  0  0  0  0  0  0  0  0  0  0
   -9.3469   21.4269  -19.1681 C   0  0  0  0  0  0  0  0  0  0  0  0
   -3.0902   21.3751  -16.3804 C   0  0  0  0  0  0  0  0  0  0  0  0
   -2.6010   20.1195  -16.9730 C   0  0  0  0  0  0  0  0  0  0  0  0
   -1.2371   19.8564  -16.9559 C   0  0  0  0  0  0  0  0  0  0  0  0
   -0.7382   18.7190  -17.5265 C   0  0  0  0  0  0  0  0  0  0  0  0
   -1.5673   17.7839  -18.1440 C   0  0  0  0  0  0  0  0  0  0  0  0
   -2.9070   18.0828  -18.1387 C   0  0  0  0  0  0  0  0  0  0  0  0
   -3.4288   19.2186  -17.5718 C   0  0  0  0  0  0  0  0  0  0  0  0
   -2.0298   23.2184  -21.7811 C   0  0  0  0  0  0  0  0  0  0  0  0
   -1.3801   24.0993  -22.4128 O   0  0  0  0  0  0  0  0  0  0  0  0
   -3.3545   22.9452  -22.1738 N   0  0  0  0  0  0  0  0  0  0  0  0
   -3.9304   22.2538  -21.7025 H   0  0  0  0  0  0  0  0  0  0  0  0
   -3.9319   23.6854  -23.3089 C   0  0  0  0  0  0  0  0  0  0  0  0
   -5.0201   24.5474  -22.8860 C   0  0  0  0  0  0  0  0  0  0  0  0
   -5.4996   25.6610  -23.6369 N   0  0  0  0  0  0  0  0  0  0  0  0
   -5.6494   24.3799  -21.7740 O   0  0  0  0  0  0  0  0  0  0  0  0
   -6.4983   25.7379  -23.8464 H   0  0  0  0  0  0  0  0  0  0  0  0
   -4.8337   26.3766  -23.9597 H   0  0  0  0  0  0  0  0  0  0  0  0
   -4.1590   22.6953  -24.3976 C   0  0  0  0  0  0  0  0  0  0  0  0
   -3.4623   22.8650  -25.6567 C   0  0  0  0  0  0  0  0  0  0  0  0
   -4.0562   23.2926  -26.8588 C   0  0  0  0  0  0  0  0  0  0  0  0
   -3.0896   23.2714  -27.7711 N   0  0  0  0  0  0  0  0  0  0  0  0
   -1.8982   22.8580  -27.2445 C   0  0  0  0  0  0  0  0  0  0  0  0
   -0.6444   22.7064  -27.7911 C   0  0  0  0  0  0  0  0  0  0  0  0
    0.4221   22.2976  -27.0367 C   0  0  0  0  0  0  0  0  0  0  0  0
    0.2251   22.0306  -25.6831 C   0  0  0  0  0  0  0  0  0  0  0  0
   -1.0340   22.1859  -25.1514 C   0  0  0  0  0  0  0  0  0  0  0  0
   -2.1190   22.5987  -25.9108 C   0  0  0  0  0  0  0  0  0  0  0  0
   -3.2415   23.5466  -28.7813 H   0  0  0  0  0  0  0  0  0  0  0  0
   -0.7449   21.2082  -21.0759 C   0  0  0  0  0  0  0  0  0  0  0  0
    0.4717   20.9436  -20.2136 C   0  0  0  0  0  0  0  0  0  0  0  0
    1.3213   19.8866  -20.9261 C   0  0  0  0  0  0  0  0  0  0  0  0
    1.7852   20.4239  -22.1978 N   0  0  0  0  0  0  0  0  0  0  0  0
    3.0015   20.6699  -22.4859 C   0  0  0  0  0  0  0  0  0  0  0  0
    3.3654   21.1911  -23.7425 N   0  0  0  0  0  0  0  0  0  0  0  0
    4.0199   20.4202  -21.5328 N   0  0  0  0  0  0  0  0  0  0  0  0
    3.8442   20.6519  -24.4732 H   0  0  0  0  0  0  0  0  0  0  0  0
    3.1392   22.1952  -23.9576 H   0  0  0  0  0  0  0  0  0  0  0  0
    4.0548   19.4758  -21.0501 H   0  0  0  0  0  0  0  0  0  0  0  0
    4.7170   21.1343  -21.3073 H   0  0  0  0  0  0  0  0  0  0  0  0
 16 17  1  0  0  0
 17 18  1  0  0  0
 17 15  1  0  0  0
 15 11  1  0  0  0
 11 12  1  0  0  0
 11  7  1  0  0  0
  7  8  2  0  0  0
  7  9  1  0  0  0
  9  6  1  0  0  0
  6 19  1  0  0  0
 19 20  1  0  0  0
 20 21  2  0  0  0
 21 22  1  0  0  0
 22 23  2  0  0  0
 23 24  1  0  0  0
 24 25  2  0  0  0
  6  2  1  0  0  0
  2  3  2  0  0  0
  2  4  1  0  0  0
  4  1  1  0  0  0
  1 47  1  0  0  0
 47 48  1  0  0  0
 48 49  1  0  0  0
 49 50  1  0  0  0
 50 51  2  0  0  0
 51 52  1  0  0  0
 51 53  1  0  0  0
  1 26  1  0  0  0
 26 27  2  0  0  0
 26 28  1  0  0  0
 28 30  1  0  0  0
 30 36  1  0  0  0
 36 37  1  0  0  0
 37 38  2  0  0  0
 38 39  1  0  0  0
 39 40  1  0  0  0
 40 41  2  0  0  0
 41 42  1  0  0  0
 42 43  2  0  0  0
 43 44  1  0  0  0
 44 45  2  0  0  0
 30 31  1  0  0  0
 31 32  1  0  0  0
 31 33  2  0  0  0
 25 20  1  0  0  0
 45 37  1  0  0  0
 45 40  1  0  0  0
 12 13  1  0  0  0
 12 14  1  0  0  0
  9 10  1  0  0  0
  4  5  1  0  0  0
 52 54  1  0  0  0
 52 55  1  0  0  0
 53 56  1  0  0  0
 53 57  1  0  0  0
 28 29  1  0  0  0
 39 46  1  0  0  0
 32 34  1  0  0  0
 32 35  1  0  0  0
M  END
> <minimizedAffinity>
-7.19366

> <CNNscore>
0.1509651393

> <CNNaffinity>
6.6202497482

> <CNN_VS>
0.9994269013

> <CNNaffinity_variance>
0.4825219512

$$$$
[H]c1c([H])c([H])c(C([H])([H])[C@@]([H])(C(=O)N([H])[C@]([H])(C(=O)N([H])[C@]([H])(C(=O)N([H])[H])C([H])([H])c2c([H])n([H])c3c([H])c([H])c([H])c([H])c23)C([H])([H])C([H])([H])C([H])([H])N=C(N([H])[H])N([H])[H])N([H])C(=O)[C@@]([H])(N([H])[H])C([H])([H])C([H])(C([H])([H])[H])C([H])([H])[H])c([H])c1[H]


 57 59  0  0  0  0  0  0  0  0999 V2000
   -1.6497   21.8055  -21.1421 C   0  0  0  0  0  0  0  0  0  0  0  0
   -3.4469   21.8590  -19.4457 C   0  0  0  0  0  0  0  0  0  0  0  0
   -2.9758   23.0116  -19.0868 O   0  0  0  0  0  0  0  0  0  0  0  0
   -2.8098   21.2030  -20.5200 N   0  0  0  0  0  0  0  0  0  0  0  0
   -3.1648   20.3040  -20.8637 H   0  0  0  0  0  0  0  0  0  0  0  0
   -4.5884   21.3028  -18.7283 C   0  0  0  0  0  0  0  0  0  0  0  0
   -6.1951   21.9966  -20.5600 C   0  0  0  0  0  0  0  0  0  0  0  0
   -5.4755   21.4495  -21.4297 O   0  0  0  0  0  0  0  0  0  0  0  0
   -5.8098   21.9578  -19.2032 N   0  0  0  0  0  0  0  0  0  0  0  0
   -6.4104   22.4049  -18.4899 H   0  0  0  0  0  0  0  0  0  0  0  0
   -7.4578   22.6908  -20.9190 C   0  0  0  0  0  0  0  0  0  0  0  0
   -7.3273   23.3725  -22.1810 N   0  0  0  0  0  0  0  0  0  0  0  0
   -7.6651   22.8143  -22.9841 H   0  0  0  0  0  0  0  0  0  0  0  0
   -7.7090   24.3355  -22.1568 H   0  0  0  0  0  0  0  0  0  0  0  0
   -8.6474   21.7895  -20.8512 C   0  0  0  0  0  0  0  0  0  0  0  0
   -9.4580   23.7125  -19.5644 C   0  0  0  0  0  0  0  0  0  0  0  0
   -9.6033   22.2197  -19.7468 C   0  0  0  0  0  0  0  0  0  0  0  0
   -9.3112   21.4971  -18.4625 C   0  0  0  0  0  0  0  0  0  0  0  0
   -4.7373   19.8442  -18.6096 C   0  0  0  0  0  0  0  0  0  0  0  0
   -5.9553   19.3425  -17.9525 C   0  0  0  0  0  0  0  0  0  0  0  0
   -6.1695   19.6470  -16.6143 C   0  0  0  0  0  0  0  0  0  0  0  0
   -7.2698   19.1715  -15.9574 C   0  0  0  0  0  0  0  0  0  0  0  0
   -8.2144   18.3688  -16.5949 C   0  0  0  0  0  0  0  0  0  0  0  0
   -7.9643   18.0922  -17.9159 C   0  0  0  0  0  0  0  0  0  0  0  0
   -6.8663   18.5591  -18.5943 C   0  0  0  0  0  0  0  0  0  0  0  0
   -2.0478   22.8694  -22.0736 C   0  0  0  0  0  0  0  0  0  0  0  0
   -1.3172   23.8648  -22.3429 O   0  0  0  0  0  0  0  0  0  0  0  0
   -3.3045   22.7649  -22.7009 N   0  0  0  0  0  0  0  0  0  0  0  0
   -3.9399   21.9929  -22.5217 H   0  0  0  0  0  0  0  0  0  0  0  0
   -3.7186   23.8098  -23.6530 C   0  0  0  0  0  0  0  0  0  0  0  0
   -4.5432   24.8183  -23.0133 C   0  0  0  0  0  0  0  0  0  0  0  0
   -5.3695   25.7435  -23.7171 N   0  0  0  0  0  0  0  0  0  0  0  0
   -4.5922   24.9693  -21.7345 O   0  0  0  0  0  0  0  0  0  0  0  0
   -6.3576   25.8319  -23.4662 H   0  0  0  0  0  0  0  0  0  0  0  0
   -4.9610   26.3132  -24.4708 H   0  0  0  0  0  0  0  0  0  0  0  0
   -4.2220   23.1107  -24.8673 C   0  0  0  0  0  0  0  0  0  0  0  0
   -3.4599   23.2024  -26.0963 C   0  0  0  0  0  0  0  0  0  0  0  0
   -3.9669   23.6474  -27.3314 C   0  0  0  0  0  0  0  0  0  0  0  0
   -2.9653   23.5362  -28.1984 N   0  0  0  0  0  0  0  0  0  0  0  0
   -1.8323   23.0475  -27.6110 C   0  0  0  0  0  0  0  0  0  0  0  0
   -0.5704   22.7928  -28.0973 C   0  0  0  0  0  0  0  0  0  0  0  0
    0.4285   22.3226  -27.2882 C   0  0  0  0  0  0  0  0  0  0  0  0
    0.1528   22.0990  -25.9405 C   0  0  0  0  0  0  0  0  0  0  0  0
   -1.1135   22.3574  -25.4693 C   0  0  0  0  0  0  0  0  0  0  0  0
   -2.1302   22.8330  -26.2844 C   0  0  0  0  0  0  0  0  0  0  0  0
   -3.0517   23.8008  -29.2191 H   0  0  0  0  0  0  0  0  0  0  0  0
   -0.7337   20.7821  -21.7482 C   0  0  0  0  0  0  0  0  0  0  0  0
    0.6915   20.9360  -21.2596 C   0  0  0  0  0  0  0  0  0  0  0  0
    0.6456   21.0560  -19.7330 C   0  0  0  0  0  0  0  0  0  0  0  0
    1.6224   22.0466  -19.3018 N   0  0  0  0  0  0  0  0  0  0  0  0
    1.3383   23.2062  -18.8573 C   0  0  0  0  0  0  0  0  0  0  0  0
    2.3466   24.1058  -18.4613 N   0  0  0  0  0  0  0  0  0  0  0  0
   -0.0150   23.6136  -18.7543 N   0  0  0  0  0  0  0  0  0  0  0  0
    2.5494   24.3508  -17.4851 H   0  0  0  0  0  0  0  0  0  0  0  0
    2.9350   24.5635  -19.2029 H   0  0  0  0  0  0  0  0  0  0  0  0
   -0.7112   22.9744  -18.2719 H   0  0  0  0  0  0  0  0  0  0  0  0
   -0.3256   24.5105  -19.1362 H   0  0  0  0  0  0  0  0  0  0  0  0
 16 17  1  0  0  0
 17 18  1  0  0  0
 17 15  1  0  0  0
 15 11  1  0  0  0
 11 12  1  0  0  0
 11  7  1  0  0  0
  7  8  2  0  0  0
  7  9  1  0  0  0
  9  6  1  0  0  0
  6 19  1  0  0  0
 19 20  1  0  0  0
 20 21  2  0  0  0
 21 22  1  0  0  0
 22 23  2  0  0  0
 23 24  1  0  0  0
 24 25  2  0  0  0
  6  2  1  0  0  0
  2  3  2  0  0  0
  2  4  1  0  0  0
  4  1  1  0  0  0
  1 47  1  0  0  0
 47 48  1  0  0  0
 48 49  1  0  0  0
 49 50  1  0  0  0
 50 51  2  0  0  0
 51 52  1  0  0  0
 51 53  1  0  0  0
  1 26  1  0  0  0
 26 27  2  0  0  0
 26 28  1  0  0  0
 28 30  1  0  0  0
 30 36  1  0  0  0
 36 37  1  0  0  0
 37 38  2  0  0  0
 38 39  1  0  0  0
 39 40  1  0  0  0
 40 41  2  0  0  0
 41 42  1  0  0  0
 42 43  2  0  0  0
 43 44  1  0  0  0
 44 45  2  0  0  0
 30 31  1  0  0  0
 31 32  1  0  0  0
 31 33  2  0  0  0
 25 20  1  0  0  0
 45 37  1  0  0  0
 45 40  1  0  0  0
 12 13  1  0  0  0
 12 14  1  0  0  0
  9 10  1  0  0  0
  4  5  1  0  0  0
 52 54  1  0  0  0
 52 55  1  0  0  0
 53 56  1  0  0  0
 53 57  1  0  0  0
 28 29  1  0  0  0
 39 46  1  0  0  0
 32 34  1  0  0  0
 32 35  1  0  0  0
M  END
> <minimizedAffinity>
-7.36099

> <CNNscore>
0.1494534016

> <CNNaffinity>
6.4351310730

> <CNN_VS>
0.9617522359

> <CNNaffinity_variance>
0.4982203841

$$$$
[H]c1c([H])c([H])c(C([H])([H])[C@@]([H])(C(=O)N([H])[C@]([H])(C(=O)N([H])[C@]([H])(C(=O)N([H])[H])C([H])([H])c2c([H])n([H])c3c([H])c([H])c([H])c([H])c23)C([H])([H])C([H])([H])C([H])([H])N=C(N([H])[H])N([H])[H])N([H])C(=O)[C@@]([H])(N([H])[H])C([H])([H])C([H])(C([H])([H])[H])C([H])([H])[H])c([H])c1[H]


 57 59  0  0  0  0  0  0  0  0999 V2000
   -1.6708   22.2901  -20.5831 C   0  0  0  0  0  0  0  0  0  0  0  0
   -2.8600   23.8418  -22.0958 C   0  0  0  0  0  0  0  0  0  0  0  0
   -1.7102   24.3996  -22.3110 O   0  0  0  0  0  0  0  0  0  0  0  0
   -2.8905   22.7314  -21.2261 N   0  0  0  0  0  0  0  0  0  0  0  0
   -3.7702   22.2344  -21.0489 H   0  0  0  0  0  0  0  0  0  0  0  0
   -4.0468   24.3853  -22.7462 C   0  0  0  0  0  0  0  0  0  0  0  0
   -5.9727   24.1914  -21.1119 C   0  0  0  0  0  0  0  0  0  0  0  0
   -6.1635   22.9968  -21.4434 O   0  0  0  0  0  0  0  0  0  0  0  0
   -4.9385   24.9332  -21.7210 N   0  0  0  0  0  0  0  0  0  0  0  0
   -4.7818   25.9157  -21.4388 H   0  0  0  0  0  0  0  0  0  0  0  0
   -6.8113   24.8569  -20.0827 C   0  0  0  0  0  0  0  0  0  0  0  0
   -5.9903   25.4871  -19.0811 N   0  0  0  0  0  0  0  0  0  0  0  0
   -5.8146   26.4895  -19.2680 H   0  0  0  0  0  0  0  0  0  0  0  0
   -6.3191   25.2974  -18.1170 H   0  0  0  0  0  0  0  0  0  0  0  0
   -7.8304   25.7731  -20.6778 C   0  0  0  0  0  0  0  0  0  0  0  0
   -8.9365   25.3439  -22.8233 C   0  0  0  0  0  0  0  0  0  0  0  0
   -8.9478   24.9907  -21.3543 C   0  0  0  0  0  0  0  0  0  0  0  0
  -10.2823   25.3086  -20.7422 C   0  0  0  0  0  0  0  0  0  0  0  0
   -3.9008   25.2783  -23.9059 C   0  0  0  0  0  0  0  0  0  0  0  0
   -4.6338   24.9177  -25.1305 C   0  0  0  0  0  0  0  0  0  0  0  0
   -5.5120   23.8421  -25.0944 C   0  0  0  0  0  0  0  0  0  0  0  0
   -6.1856   23.4525  -26.2182 C   0  0  0  0  0  0  0  0  0  0  0  0
   -6.0220   24.1104  -27.4362 C   0  0  0  0  0  0  0  0  0  0  0  0
   -5.1454   25.1667  -27.4277 C   0  0  0  0  0  0  0  0  0  0  0  0
   -4.4591   25.5743  -26.3112 C   0  0  0  0  0  0  0  0  0  0  0  0
   -0.8680   21.4629  -21.4938 C   0  0  0  0  0  0  0  0  0  0  0  0
   -1.0122   20.2121  -21.6037 O   0  0  0  0  0  0  0  0  0  0  0  0
    0.1038   22.1028  -22.2874 N   0  0  0  0  0  0  0  0  0  0  0  0
    0.2721   23.1034  -22.2406 H   0  0  0  0  0  0  0  0  0  0  0  0
    0.9090   21.2974  -23.2216 C   0  0  0  0  0  0  0  0  0  0  0  0
    2.2079   20.9713  -22.6626 C   0  0  0  0  0  0  0  0  0  0  0  0
    3.4200   20.9415  -23.4137 N   0  0  0  0  0  0  0  0  0  0  0  0
    2.3759   20.6689  -21.4213 O   0  0  0  0  0  0  0  0  0  0  0  0
    4.2315   21.4718  -23.0861 H   0  0  0  0  0  0  0  0  0  0  0  0
    3.4643   20.3851  -24.2786 H   0  0  0  0  0  0  0  0  0  0  0  0
    0.8271   21.9676  -24.5486 C   0  0  0  0  0  0  0  0  0  0  0  0
   -0.4576   22.0529  -25.2134 C   0  0  0  0  0  0  0  0  0  0  0  0
   -1.6855   21.6503  -24.6558 C   0  0  0  0  0  0  0  0  0  0  0  0
   -2.5991   21.8539  -25.5997 N   0  0  0  0  0  0  0  0  0  0  0  0
   -2.0496   22.3656  -26.7415 C   0  0  0  0  0  0  0  0  0  0  0  0
   -2.5975   22.7497  -27.9441 C   0  0  0  0  0  0  0  0  0  0  0  0
   -1.8284   23.2737  -28.9477 C   0  0  0  0  0  0  0  0  0  0  0  0
   -0.4580   23.4185  -28.7388 C   0  0  0  0  0  0  0  0  0  0  0  0
    0.0751   23.0294  -27.5319 C   0  0  0  0  0  0  0  0  0  0  0  0
   -0.6989   22.4967  -26.5113 C   0  0  0  0  0  0  0  0  0  0  0  0
   -3.6267   21.6407  -25.4657 H   0  0  0  0  0  0  0  0  0  0  0  0
   -1.9306   21.6468  -19.2517 C   0  0  0  0  0  0  0  0  0  0  0  0
   -2.2092   22.6709  -18.1714 C   0  0  0  0  0  0  0  0  0  0  0  0
   -3.6247   22.4133  -17.6453 C   0  0  0  0  0  0  0  0  0  0  0  0
   -4.2641   23.6880  -17.3493 N   0  0  0  0  0  0  0  0  0  0  0  0
   -4.5955   24.0853  -16.1852 C   0  0  0  0  0  0  0  0  0  0  0  0
   -5.2121   25.3355  -15.9860 N   0  0  0  0  0  0  0  0  0  0  0  0
   -4.3459   23.2632  -15.0583 N   0  0  0  0  0  0  0  0  0  0  0  0
   -4.7464   26.1468  -15.5631 H   0  0  0  0  0  0  0  0  0  0  0  0
   -6.2131   25.4581  -16.2838 H   0  0  0  0  0  0  0  0  0  0  0  0
   -3.3773   22.8509  -14.9244 H   0  0  0  0  0  0  0  0  0  0  0  0
   -5.0831   23.0651  -14.3771 H   0  0  0  0  0  0  0  0  0  0  0  0
 16 17  1  0  0  0
 17 18  1  0  0  0
 17 15  1  0  0  0
 15 11  1  0  0  0
 11 12  1  0  0  0
 11  7  1  0  0  0
  7  8  2  0  0  0
  7  9  1  0  0  0
  9  6  1  0  0  0
  6 19  1  0  0  0
 19 20  1  0  0  0
 20 21  2  0  0  0
 21 22  1  0  0  0
 22 23  2  0  0  0
 23 24  1  0  0  0
 24 25  2  0  0  0
  6  2  1  0  0  0
  2  3  2  0  0  0
  2  4  1  0  0  0
  4  1  1  0  0  0
  1 47  1  0  0  0
 47 48  1  0  0  0
 48 49  1  0  0  0
 49 50  1  0  0  0
 50 51  2  0  0  0
 51 52  1  0  0  0
 51 53  1  0  0  0
  1 26  1  0  0  0
 26 27  2  0  0  0
 26 28  1  0  0  0
 28 30  1  0  0  0
 30 36  1  0  0  0
 36 37  1  0  0  0
 37 38  2  0  0  0
 38 39  1  0  0  0
 39 40  1  0  0  0
 40 41  2  0  0  0
 41 42  1  0  0  0
 42 43  2  0  0  0
 43 44  1  0  0  0
 44 45  2  0  0  0
 30 31  1  0  0  0
 31 32  1  0  0  0
 31 33  2  0  0  0
 25 20  1  0  0  0
 45 37  1  0  0  0
 45 40  1  0  0  0
 12 13  1  0  0  0
 12 14  1  0  0  0
  9 10  1  0  0  0
  4  5  1  0  0  0
 52 54  1  0  0  0
 52 55  1  0  0  0
 53 56  1  0  0  0
 53 57  1  0  0  0
 28 29  1  0  0  0
 39 46  1  0  0  0
 32 34  1  0  0  0
 32 35  1  0  0  0
M  END
> <minimizedAffinity>
-8.54579

> <CNNscore>
0.1259047091

> <CNNaffinity>
6.6682062149

> <CNN_VS>
0.8395585418

> <CNNaffinity_variance>
0.7077605724

$$$$
[H]c1c([H])c([H])c(C([H])([H])[C@@]([H])(C(=O)N([H])[C@]([H])(C(=O)N([H])[C@]([H])(C(=O)N([H])[H])C([H])([H])c2c([H])n([H])c3c([H])c([H])c([H])c([H])c23)C([H])([H])C([H])([H])C([H])([H])N=C(N([H])[H])N([H])[H])N([H])C(=O)[C@@]([H])(N([H])[H])C([H])([H])C([H])(C([H])([H])[H])C([H])([H])[H])c([H])c1[H]


 57 59  0  0  0  0  0  0  0  0999 V2000
   -3.4558   22.5684  -20.6275 C   0  0  0  0  0  0  0  0  0  0  0  0
   -4.1215   23.0960  -22.9489 C   0  0  0  0  0  0  0  0  0  0  0  0
   -4.0871   24.3434  -22.5993 O   0  0  0  0  0  0  0  0  0  0  0  0
   -3.7813   22.1379  -21.9708 N   0  0  0  0  0  0  0  0  0  0  0  0
   -3.7611   21.1397  -22.2065 H   0  0  0  0  0  0  0  0  0  0  0  0
   -4.5113   22.7498  -24.3109 C   0  0  0  0  0  0  0  0  0  0  0  0
   -5.6575   24.2804  -25.9726 C   0  0  0  0  0  0  0  0  0  0  0  0
   -6.6146   23.4776  -26.0863 O   0  0  0  0  0  0  0  0  0  0  0  0
   -4.5847   23.9769  -25.1078 N   0  0  0  0  0  0  0  0  0  0  0  0
   -3.8016   24.6457  -25.0132 H   0  0  0  0  0  0  0  0  0  0  0  0
   -5.6195   25.5581  -26.7284 C   0  0  0  0  0  0  0  0  0  0  0  0
   -4.4743   26.3447  -26.3488 N   0  0  0  0  0  0  0  0  0  0  0  0
   -3.6597   26.2081  -26.9720 H   0  0  0  0  0  0  0  0  0  0  0  0
   -4.7089   27.3409  -26.1870 H   0  0  0  0  0  0  0  0  0  0  0  0
   -5.7383   25.3558  -28.2038 C   0  0  0  0  0  0  0  0  0  0  0  0
   -3.8711   25.4715  -29.7884 C   0  0  0  0  0  0  0  0  0  0  0  0
   -4.5397   24.5955  -28.7548 C   0  0  0  0  0  0  0  0  0  0  0  0
   -4.9576   23.2854  -29.3596 C   0  0  0  0  0  0  0  0  0  0  0  0
   -3.8202   21.6582  -25.0141 C   0  0  0  0  0  0  0  0  0  0  0  0
   -2.4922   21.9533  -25.5767 C   0  0  0  0  0  0  0  0  0  0  0  0
   -1.3813   21.8849  -24.7455 C   0  0  0  0  0  0  0  0  0  0  0  0
   -0.1350   22.1855  -25.2195 C   0  0  0  0  0  0  0  0  0  0  0  0
    0.0730   22.5699  -26.5431 C   0  0  0  0  0  0  0  0  0  0  0  0
   -1.0507   22.6249  -27.3294 C   0  0  0  0  0  0  0  0  0  0  0  0
   -2.3108   22.3274  -26.8739 C   0  0  0  0  0  0  0  0  0  0  0  0
   -2.0012   22.6645  -20.4460 C   0  0  0  0  0  0  0  0  0  0  0  0
   -1.3479   23.7303  -20.6316 O   0  0  0  0  0  0  0  0  0  0  0  0
   -1.3067   21.5095  -20.0368 N   0  0  0  0  0  0  0  0  0  0  0  0
   -1.7734   20.6215  -19.8774 H   0  0  0  0  0  0  0  0  0  0  0  0
    0.1498   21.5853  -19.8304 C   0  0  0  0  0  0  0  0  0  0  0  0
    0.8450   20.5257  -20.5376 C   0  0  0  0  0  0  0  0  0  0  0  0
    0.2980   19.2316  -20.7825 N   0  0  0  0  0  0  0  0  0  0  0  0
    2.0378   20.6661  -21.0045 O   0  0  0  0  0  0  0  0  0  0  0  0
    0.2901   18.8574  -21.7349 H   0  0  0  0  0  0  0  0  0  0  0  0
   -0.0829   18.6874  -19.9961 H   0  0  0  0  0  0  0  0  0  0  0  0
    0.3688   21.7598  -18.3680 C   0  0  0  0  0  0  0  0  0  0  0  0
    1.4405   22.6247  -17.9174 C   0  0  0  0  0  0  0  0  0  0  0  0
    2.0419   23.6368  -18.6885 C   0  0  0  0  0  0  0  0  0  0  0  0
    2.9988   24.1564  -17.9261 N   0  0  0  0  0  0  0  0  0  0  0  0
    3.0635   23.5507  -16.7027 C   0  0  0  0  0  0  0  0  0  0  0  0
    3.8609   23.7651  -15.6018 C   0  0  0  0  0  0  0  0  0  0  0  0
    3.7125   23.0323  -14.4554 C   0  0  0  0  0  0  0  0  0  0  0  0
    2.7278   22.0471  -14.4099 C   0  0  0  0  0  0  0  0  0  0  0  0
    1.9392   21.8440  -15.5185 C   0  0  0  0  0  0  0  0  0  0  0  0
    2.0853   22.5826  -16.6836 C   0  0  0  0  0  0  0  0  0  0  0  0
    3.6265   24.9466  -18.2439 H   0  0  0  0  0  0  0  0  0  0  0  0
   -4.1424   21.7378  -19.5822 C   0  0  0  0  0  0  0  0  0  0  0  0
   -5.5845   22.1552  -19.3829 C   0  0  0  0  0  0  0  0  0  0  0  0
   -5.5874   23.6402  -19.0067 C   0  0  0  0  0  0  0  0  0  0  0  0
   -6.9201   24.1859  -19.2246 N   0  0  0  0  0  0  0  0  0  0  0  0
   -7.1972   25.1366  -20.0261 C   0  0  0  0  0  0  0  0  0  0  0  0
   -8.5162   25.6061  -20.1770 N   0  0  0  0  0  0  0  0  0  0  0  0
   -6.1681   25.7445  -20.7872 N   0  0  0  0  0  0  0  0  0  0  0  0
   -9.0983   25.4331  -21.0047 H   0  0  0  0  0  0  0  0  0  0  0  0
   -8.9428   26.1721  -19.4002 H   0  0  0  0  0  0  0  0  0  0  0  0
   -5.5007   25.1294  -21.3371 H   0  0  0  0  0  0  0  0  0  0  0  0
   -6.0627   26.7618  -20.8130 H   0  0  0  0  0  0  0  0  0  0  0  0
 16 17  1  0  0  0
 17 18  1  0  0  0
 17 15  1  0  0  0
 15 11  1  0  0  0
 11 12  1  0  0  0
 11  7  1  0  0  0
  7  8  2  0  0  0
  7  9  1  0  0  0
  9  6  1  0  0  0
  6 19  1  0  0  0
 19 20  1  0  0  0
 20 21  2  0  0  0
 21 22  1  0  0  0
 22 23  2  0  0  0
 23 24  1  0  0  0
 24 25  2  0  0  0
  6  2  1  0  0  0
  2  3  2  0  0  0
  2  4  1  0  0  0
  4  1  1  0  0  0
  1 47  1  0  0  0
 47 48  1  0  0  0
 48 49  1  0  0  0
 49 50  1  0  0  0
 50 51  2  0  0  0
 51 52  1  0  0  0
 51 53  1  0  0  0
  1 26  1  0  0  0
 26 27  2  0  0  0
 26 28  1  0  0  0
 28 30  1  0  0  0
 30 36  1  0  0  0
 36 37  1  0  0  0
 37 38  2  0  0  0
 38 39  1  0  0  0
 39 40  1  0  0  0
 40 41  2  0  0  0
 41 42  1  0  0  0
 42 43  2  0  0  0
 43 44  1  0  0  0
 44 45  2  0  0  0
 30 31  1  0  0  0
 31 32  1  0  0  0
 31 33  2  0  0  0
 25 20  1  0  0  0
 45 37  1  0  0  0
 45 40  1  0  0  0
 12 13  1  0  0  0
 12 14  1  0  0  0
  9 10  1  0  0  0
  4  5  1  0  0  0
 52 54  1  0  0  0
 52 55  1  0  0  0
 53 56  1  0  0  0
 53 57  1  0  0  0
 28 29  1  0  0  0
 39 46  1  0  0  0
 32 34  1  0  0  0
 32 35  1  0  0  0
M  END
> <minimizedAffinity>
-8.49856

> <CNNscore>
0.1258203238

> <CNNaffinity>
6.0717415810

> <CNN_VS>
0.7639485002

> <CNNaffinity_variance>
1.1053180695

$$$$
[H]c1c([H])c([H])c(C([H])([H])[C@@]([H])(C(=O)N([H])[C@]([H])(C(=O)N([H])[C@]([H])(C(=O)N([H])[H])C([H])([H])c2c([H])n([H])c3c([H])c([H])c([H])c([H])c23)C([H])([H])C([H])([H])C([H])([H])N=C(N([H])[H])N([H])[H])N([H])C(=O)[C@@]([H])(N([H])[H])C([H])([H])C([H])(C([H])([H])[H])C([H])([H])[H])c([H])c1[H]


 57 59  0  0  0  0  0  0  0  0999 V2000
   -6.0681   23.4319  -21.0539 C   0  0  0  0  0  0  0  0  0  0  0  0
   -3.8518   22.8712  -21.9942 C   0  0  0  0  0  0  0  0  0  0  0  0
   -3.4133   23.9427  -21.4119 O   0  0  0  0  0  0  0  0  0  0  0  0
   -5.2146   22.5498  -21.8215 N   0  0  0  0  0  0  0  0  0  0  0  0
   -5.6029   21.6948  -22.2344 H   0  0  0  0  0  0  0  0  0  0  0  0
   -2.9321   22.0684  -22.7920 C   0  0  0  0  0  0  0  0  0  0  0  0
   -0.6776   21.1882  -22.0438 C   0  0  0  0  0  0  0  0  0  0  0  0
   -0.1071   21.7775  -22.9928 O   0  0  0  0  0  0  0  0  0  0  0  0
   -2.0761   21.2941  -21.8898 N   0  0  0  0  0  0  0  0  0  0  0  0
   -2.5400   20.8113  -21.1016 H   0  0  0  0  0  0  0  0  0  0  0  0
    0.0842   20.3738  -21.0630 C   0  0  0  0  0  0  0  0  0  0  0  0
   -0.1860   18.9705  -21.2419 N   0  0  0  0  0  0  0  0  0  0  0  0
    0.5083   18.4939  -21.8431 H   0  0  0  0  0  0  0  0  0  0  0  0
   -0.3640   18.4800  -20.3467 H   0  0  0  0  0  0  0  0  0  0  0  0
    1.5418   20.7015  -21.0542 C   0  0  0  0  0  0  0  0  0  0  0  0
    3.1852   19.2193  -19.9992 C   0  0  0  0  0  0  0  0  0  0  0  0
    2.3892   19.4537  -21.2618 C   0  0  0  0  0  0  0  0  0  0  0  0
    3.3027   19.6070  -22.4444 C   0  0  0  0  0  0  0  0  0  0  0  0
   -3.4453   21.2666  -23.9133 C   0  0  0  0  0  0  0  0  0  0  0  0
   -3.4118   21.8799  -25.2511 C   0  0  0  0  0  0  0  0  0  0  0  0
   -2.2547   21.7681  -26.0115 C   0  0  0  0  0  0  0  0  0  0  0  0
   -2.1698   22.3530  -27.2440 C   0  0  0  0  0  0  0  0  0  0  0  0
   -3.2292   23.0793  -27.7854 C   0  0  0  0  0  0  0  0  0  0  0  0
   -4.3526   23.1651  -27.0015 C   0  0  0  0  0  0  0  0  0  0  0  0
   -4.4589   22.5859  -25.7618 C   0  0  0  0  0  0  0  0  0  0  0  0
   -6.1702   22.9799  -19.6599 C   0  0  0  0  0  0  0  0  0  0  0  0
   -7.1931   22.4053  -19.1901 O   0  0  0  0  0  0  0  0  0  0  0  0
   -5.0663   23.1933  -18.8115 N   0  0  0  0  0  0  0  0  0  0  0  0
   -4.2183   23.6548  -19.1272 H   0  0  0  0  0  0  0  0  0  0  0  0
   -5.1377   22.7327  -17.4142 C   0  0  0  0  0  0  0  0  0  0  0  0
   -4.7040   23.7637  -16.4895 C   0  0  0  0  0  0  0  0  0  0  0  0
   -4.7910   23.6563  -15.0700 N   0  0  0  0  0  0  0  0  0  0  0  0
   -4.2026   24.8843  -16.8810 O   0  0  0  0  0  0  0  0  0  0  0  0
   -3.9598   23.8258  -14.4977 H   0  0  0  0  0  0  0  0  0  0  0  0
   -5.6915   23.4094  -14.6367 H   0  0  0  0  0  0  0  0  0  0  0  0
   -4.4969   21.3894  -17.3706 C   0  0  0  0  0  0  0  0  0  0  0  0
   -3.1330   21.2778  -16.8940 C   0  0  0  0  0  0  0  0  0  0  0  0
   -2.7333   20.5741  -15.7426 C   0  0  0  0  0  0  0  0  0  0  0  0
   -1.4206   20.7570  -15.6406 N   0  0  0  0  0  0  0  0  0  0  0  0
   -0.9324   21.5352  -16.6524 C   0  0  0  0  0  0  0  0  0  0  0  0
    0.3381   21.9615  -16.9654 C   0  0  0  0  0  0  0  0  0  0  0  0
    0.5852   22.7264  -18.0732 C   0  0  0  0  0  0  0  0  0  0  0  0
   -0.4810   23.0777  -18.8991 C   0  0  0  0  0  0  0  0  0  0  0  0
   -1.7452   22.6449  -18.5727 C   0  0  0  0  0  0  0  0  0  0  0  0
   -2.0023   21.8704  -17.4509 C   0  0  0  0  0  0  0  0  0  0  0  0
   -0.8373   20.3407  -14.8623 H   0  0  0  0  0  0  0  0  0  0  0  0
   -7.3966   23.6559  -21.7162 C   0  0  0  0  0  0  0  0  0  0  0  0
   -7.2451   24.1082  -23.1536 C   0  0  0  0  0  0  0  0  0  0  0  0
   -6.9288   25.6069  -23.1349 C   0  0  0  0  0  0  0  0  0  0  0  0
   -6.3455   25.9884  -24.4138 N   0  0  0  0  0  0  0  0  0  0  0  0
   -5.1041   26.1873  -24.6194 C   0  0  0  0  0  0  0  0  0  0  0  0
   -4.6221   26.5554  -25.8902 N   0  0  0  0  0  0  0  0  0  0  0  0
   -4.1775   26.0399  -23.5574 N   0  0  0  0  0  0  0  0  0  0  0  0
   -4.0925   25.9303  -26.5089 H   0  0  0  0  0  0  0  0  0  0  0  0
   -4.8086   27.5299  -26.2384 H   0  0  0  0  0  0  0  0  0  0  0  0
   -4.2036   25.1577  -22.9683 H   0  0  0  0  0  0  0  0  0  0  0  0
   -3.4885   26.7685  -23.3546 H   0  0  0  0  0  0  0  0  0  0  0  0
 16 17  1  0  0  0
 17 18  1  0  0  0
 17 15  1  0  0  0
 15 11  1  0  0  0
 11 12  1  0  0  0
 11  7  1  0  0  0
  7  8  2  0  0  0
  7  9  1  0  0  0
  9  6  1  0  0  0
  6 19  1  0  0  0
 19 20  1  0  0  0
 20 21  2  0  0  0
 21 22  1  0  0  0
 22 23  2  0  0  0
 23 24  1  0  0  0
 24 25  2  0  0  0
  6  2  1  0  0  0
  2  3  2  0  0  0
  2  4  1  0  0  0
  4  1  1  0  0  0
  1 47  1  0  0  0
 47 48  1  0  0  0
 48 49  1  0  0  0
 49 50  1  0  0  0
 50 51  2  0  0  0
 51 52  1  0  0  0
 51 53  1  0  0  0
  1 26  1  0  0  0
 26 27  2  0  0  0
 26 28  1  0  0  0
 28 30  1  0  0  0
 30 36  1  0  0  0
 36 37  1  0  0  0
 37 38  2  0  0  0
 38 39  1  0  0  0
 39 40  1  0  0  0
 40 41  2  0  0  0
 41 42  1  0  0  0
 42 43  2  0  0  0
 43 44  1  0  0  0
 44 45  2  0  0  0
 30 31  1  0  0  0
 31 32  1  0  0  0
 31 33  2  0  0  0
 25 20  1  0  0  0
 45 37  1  0  0  0
 45 40  1  0  0  0
 12 13  1  0  0  0
 12 14  1  0  0  0
  9 10  1  0  0  0
  4  5  1  0  0  0
 52 54  1  0  0  0
 52 55  1  0  0  0
 53 56  1  0  0  0
 53 57  1  0  0  0
 28 29  1  0  0  0
 39 46  1  0  0  0
 32 34  1  0  0  0
 32 35  1  0  0  0
M  END
> <minimizedAffinity>
-7.30779

> <CNNscore>
0.1168463975

> <CNNaffinity>
6.2448077202

> <CNN_VS>
0.7296832800

> <CNNaffinity_variance>
0.8768512011

$$$$
[H]OC(=O)[C@@]1([H])N(C(=O)[C@]2([H])C([H])([H])N(C(=O)[C@@]3([H])N(C(=O)[C@@]([H])(N([H])C(=O)OC(C([H])([H])[H])(C([H])([H])[H])C([H])([H])[H])C([H])([H])c4c([H])c([H])c([H])c([H])c4[H])C([H])([H])C([H])([H])C3([H])[H])C([H])([H])C([H])([H])[C@@]2([H])c2c([H])c([H])c([H])c([H])c2[H])C([H])([H])C([H])([H])C1([H])[H]


 49 53  0  0  0  0  0  0  0  0999 V2000
   -6.3796   22.7388  -15.5618 C   0  0  0  0  0  0  0  0  0  0  0  0
   -6.3162   23.8256  -16.6095 C   0  0  0  0  0  0  0  0  0  0  0  0
   -6.9672   23.3349  -17.8466 N   0  0  0  0  0  0  0  0  0  0  0  0
   -7.5490   22.0211  -17.7192 C   0  0  0  0  0  0  0  0  0  0  0  0
   -8.4615   21.9521  -16.5275 C   0  0  0  0  0  0  0  0  0  0  0  0
   -7.8114   22.4889  -15.2582 C   0  0  0  0  0  0  0  0  0  0  0  0
   -6.9811   24.0904  -19.0159 C   0  0  0  0  0  0  0  0  0  0  0  0
   -6.2527   25.2593  -18.7383 O   0  0  0  0  0  0  0  0  0  0  0  0
   -6.4771   24.7553  -13.0373 C   0  0  0  0  0  0  0  0  0  0  0  0
   -6.5384   24.6467  -11.5025 C   0  0  0  0  0  0  0  0  0  0  0  0
   -5.1476   24.2506  -11.1008 C   0  0  0  0  0  0  0  0  0  0  0  0
   -4.4274   23.8929  -12.3765 C   0  0  0  0  0  0  0  0  0  0  0  0
   -5.4807   23.8124  -13.3660 N   0  0  0  0  0  0  0  0  0  0  0  0
   -5.4357   22.9152  -14.4694 C   0  0  0  0  0  0  0  0  0  0  0  0
   -4.3822   22.1485  -14.4728 O   0  0  0  0  0  0  0  0  0  0  0  0
   -5.8844   26.5534  -14.6105 O   0  0  0  0  0  0  0  0  0  0  0  0
   -6.0769   26.1915  -13.2782 C   0  0  0  0  0  0  0  0  0  0  0  0
   -5.9147   27.0237  -12.3675 O   0  0  0  0  0  0  0  0  0  0  0  0
   -6.5542   26.8445  -15.2637 H   0  0  0  0  0  0  0  0  0  0  0  0
   -7.4218   24.1402  -20.3385 C   0  0  0  0  0  0  0  0  0  0  0  0
   -8.5909   23.1231  -20.4962 C   0  0  0  0  0  0  0  0  0  0  0  0
   -7.9365   21.8937  -21.0280 C   0  0  0  0  0  0  0  0  0  0  0  0
   -6.5697   22.3643  -21.5842 C   0  0  0  0  0  0  0  0  0  0  0  0
   -6.6704   23.8035  -21.5021 N   0  0  0  0  0  0  0  0  0  0  0  0
   -6.2703   24.7055  -22.5486 C   0  0  0  0  0  0  0  0  0  0  0  0
   -6.7592   25.8945  -22.4448 O   0  0  0  0  0  0  0  0  0  0  0  0
   -5.4311   24.4332  -23.6704 C   0  0  0  0  0  0  0  0  0  0  0  0
   -5.7328   24.9808  -24.9479 N   0  0  0  0  0  0  0  0  0  0  0  0
   -6.0808   24.0255  -25.9778 C   0  0  0  0  0  0  0  0  0  0  0  0
   -6.1151   22.7787  -25.7373 O   0  0  0  0  0  0  0  0  0  0  0  0
   -5.7433   25.9696  -25.1549 H   0  0  0  0  0  0  0  0  0  0  0  0
   -6.3910   24.3878  -27.2808 O   0  0  0  0  0  0  0  0  0  0  0  0
   -5.4771   24.3623  -28.3553 C   0  0  0  0  0  0  0  0  0  0  0  0
   -4.0246   24.4474  -27.9048 C   0  0  0  0  0  0  0  0  0  0  0  0
   -5.7597   25.6085  -29.1860 C   0  0  0  0  0  0  0  0  0  0  0  0
   -5.6112   23.1786  -29.2671 C   0  0  0  0  0  0  0  0  0  0  0  0
   -3.9671   24.9201  -23.4095 C   0  0  0  0  0  0  0  0  0  0  0  0
   -2.9710   23.8596  -23.3108 C   0  0  0  0  0  0  0  0  0  0  0  0
   -2.1337   23.6408  -22.2679 C   0  0  0  0  0  0  0  0  0  0  0  0
   -1.1681   22.6346  -22.3266 C   0  0  0  0  0  0  0  0  0  0  0  0
   -1.0354   21.8318  -23.4426 C   0  0  0  0  0  0  0  0  0  0  0  0
   -1.8875   22.0365  -24.5351 C   0  0  0  0  0  0  0  0  0  0  0  0
   -2.8169   23.0316  -24.4406 C   0  0  0  0  0  0  0  0  0  0  0  0
   -8.1032   21.5460  -14.1905 C   0  0  0  0  0  0  0  0  0  0  0  0
   -8.7970   21.9996  -13.0827 C   0  0  0  0  0  0  0  0  0  0  0  0
   -9.1360   21.1597  -12.0495 C   0  0  0  0  0  0  0  0  0  0  0  0
   -8.8096   19.8179  -12.0513 C   0  0  0  0  0  0  0  0  0  0  0  0
   -8.1192   19.3673  -13.1473 C   0  0  0  0  0  0  0  0  0  0  0  0
   -7.7809   20.2061  -14.1806 C   0  0  0  0  0  0  0  0  0  0  0  0
 16 17  1  0  0  0
 17 18  2  0  0  0
 17  9  1  0  0  0
  9 10  1  0  0  0
 10 11  1  0  0  0
 11 12  1  0  0  0
 12 13  1  0  0  0
 13 14  1  0  0  0
 14 15  2  0  0  0
 14  1  1  0  0  0
  1  2  1  0  0  0
  2  3  1  0  0  0
  3  4  1  0  0  0
  4  5  1  0  0  0
  5  6  1  0  0  0
  6 44  1  0  0  0
 44 45  2  0  0  0
 45 46  1  0  0  0
 46 47  2  0  0  0
 47 48  1  0  0  0
 48 49  2  0  0  0
  3  7  1  0  0  0
  7  8  2  0  0  0
  7 20  1  0  0  0
 20 21  1  0  0  0
 21 22  1  0  0  0
 22 23  1  0  0  0
 23 24  1  0  0  0
 24 25  1  0  0  0
 25 26  2  0  0  0
 25 27  1  0  0  0
 27 37  1  0  0  0
 37 38  1  0  0  0
 38 39  2  0  0  0
 39 40  1  0  0  0
 40 41  2  0  0  0
 41 42  1  0  0  0
 42 43  2  0  0  0
 27 28  1  0  0  0
 28 29  1  0  0  0
 29 30  2  0  0  0
 29 32  1  0  0  0
 32 33  1  0  0  0
 33 34  1  0  0  0
 33 35  1  0  0  0
 33 36  1  0  0  0
 13  9  1  0  0  0
  6  1  1  0  0  0
 49 44  1  0  0  0
 24 20  1  0  0  0
 43 38  1  0  0  0
 16 19  1  0  0  0
 28 31  1  0  0  0
M  END
> <minimizedAffinity>
-8.76055

> <CNNscore>
0.1716484874

> <CNNaffinity>
6.3486146927

> <CNN_VS>
1.0897301435

> <CNNaffinity_variance>
0.0765314922

$$$$
[H]OC(=O)[C@@]1([H])N(C(=O)[C@]2([H])C([H])([H])N(C(=O)[C@@]3([H])N(C(=O)[C@@]([H])(N([H])C(=O)OC(C([H])([H])[H])(C([H])([H])[H])C([H])([H])[H])C([H])([H])c4c([H])c([H])c([H])c([H])c4[H])C([H])([H])C([H])([H])C3([H])[H])C([H])([H])C([H])([H])[C@@]2([H])c2c([H])c([H])c([H])c([H])c2[H])C([H])([H])C([H])([H])C1([H])[H]


 49 53  0  0  0  0  0  0  0  0999 V2000
   -3.0483   22.2494  -23.6460 C   0  0  0  0  0  0  0  0  0  0  0  0
   -3.3356   22.6346  -22.2136 C   0  0  0  0  0  0  0  0  0  0  0  0
   -2.2828   22.0596  -21.3440 N   0  0  0  0  0  0  0  0  0  0  0  0
   -1.2410   21.3703  -22.0654 C   0  0  0  0  0  0  0  0  0  0  0  0
   -0.6734   22.2414  -23.1501 C   0  0  0  0  0  0  0  0  0  0  0  0
   -1.7521   22.8657  -24.0267 C   0  0  0  0  0  0  0  0  0  0  0  0
   -2.3346   22.1748  -19.9576 C   0  0  0  0  0  0  0  0  0  0  0  0
   -3.5325   22.8469  -19.6625 O   0  0  0  0  0  0  0  0  0  0  0  0
   -4.6670   24.8896  -24.5721 C   0  0  0  0  0  0  0  0  0  0  0  0
   -4.9588   25.6364  -25.8867 C   0  0  0  0  0  0  0  0  0  0  0  0
   -5.9920   24.7922  -26.5739 C   0  0  0  0  0  0  0  0  0  0  0  0
   -6.0633   23.5009  -25.7982 C   0  0  0  0  0  0  0  0  0  0  0  0
   -4.9062   23.5462  -24.9299 N   0  0  0  0  0  0  0  0  0  0  0  0
   -4.1924   22.3806  -24.5342 C   0  0  0  0  0  0  0  0  0  0  0  0
   -4.6538   21.2839  -25.0651 O   0  0  0  0  0  0  0  0  0  0  0  0
   -6.1073   26.7603  -23.8753 O   0  0  0  0  0  0  0  0  0  0  0  0
   -5.6742   25.4635  -23.6040 C   0  0  0  0  0  0  0  0  0  0  0  0
   -6.1065   24.8470  -22.6135 O   0  0  0  0  0  0  0  0  0  0  0  0
   -6.8262   27.0475  -24.4760 H   0  0  0  0  0  0  0  0  0  0  0  0
   -1.6775   21.8838  -18.7619 C   0  0  0  0  0  0  0  0  0  0  0  0
   -0.6636   23.0314  -18.4768 C   0  0  0  0  0  0  0  0  0  0  0  0
    0.6287   22.5196  -19.0156 C   0  0  0  0  0  0  0  0  0  0  0  0
    0.4386   20.9886  -19.1526 C   0  0  0  0  0  0  0  0  0  0  0  0
   -0.8325   20.7656  -18.5022 N   0  0  0  0  0  0  0  0  0  0  0  0
   -1.0914   19.6998  -17.5717 C   0  0  0  0  0  0  0  0  0  0  0  0
   -2.1388   19.8730  -16.8391 O   0  0  0  0  0  0  0  0  0  0  0  0
   -0.3276   18.5130  -17.3600 C   0  0  0  0  0  0  0  0  0  0  0  0
   -0.5165   17.7321  -16.1863 N   0  0  0  0  0  0  0  0  0  0  0  0
    0.5529   17.7871  -15.2128 C   0  0  0  0  0  0  0  0  0  0  0  0
    1.5873   18.4982  -15.4080 O   0  0  0  0  0  0  0  0  0  0  0  0
   -1.3435   17.1845  -15.9944 H   0  0  0  0  0  0  0  0  0  0  0  0
    0.5357   17.0785  -14.0200 O   0  0  0  0  0  0  0  0  0  0  0  0
    0.9832   15.7484  -13.8753 C   0  0  0  0  0  0  0  0  0  0  0  0
    1.5141   15.1535  -15.1731 C   0  0  0  0  0  0  0  0  0  0  0  0
   -0.2375   14.9281  -13.4758 C   0  0  0  0  0  0  0  0  0  0  0  0
    2.0232   15.5468  -12.8132 C   0  0  0  0  0  0  0  0  0  0  0  0
   -0.5564   17.4828  -18.5153 C   0  0  0  0  0  0  0  0  0  0  0  0
    0.6558   17.0224  -19.1824 C   0  0  0  0  0  0  0  0  0  0  0  0
    1.9130   17.0625  -18.6779 C   0  0  0  0  0  0  0  0  0  0  0  0
    3.0048   16.6600  -19.4488 C   0  0  0  0  0  0  0  0  0  0  0  0
    2.8413   16.2084  -20.7438 C   0  0  0  0  0  0  0  0  0  0  0  0
    1.5528   16.1571  -21.2904 C   0  0  0  0  0  0  0  0  0  0  0  0
    0.5113   16.5614  -20.5062 C   0  0  0  0  0  0  0  0  0  0  0  0
   -1.3300   22.7100  -25.4094 C   0  0  0  0  0  0  0  0  0  0  0  0
   -2.1900   23.1236  -26.4112 C   0  0  0  0  0  0  0  0  0  0  0  0
   -1.8465   23.0370  -27.7388 C   0  0  0  0  0  0  0  0  0  0  0  0
   -0.6288   22.5365  -28.1552 C   0  0  0  0  0  0  0  0  0  0  0  0
    0.2238   22.1233  -27.1636 C   0  0  0  0  0  0  0  0  0  0  0  0
   -0.1186   22.2104  -25.8366 C   0  0  0  0  0  0  0  0  0  0  0  0
 16 17  1  0  0  0
 17 18  2  0  0  0
 17  9  1  0  0  0
  9 10  1  0  0  0
 10 11  1  0  0  0
 11 12  1  0  0  0
 12 13  1  0  0  0
 13 14  1  0  0  0
 14 15  2  0  0  0
 14  1  1  0  0  0
  1  2  1  0  0  0
  2  3  1  0  0  0
  3  4  1  0  0  0
  4  5  1  0  0  0
  5  6  1  0  0  0
  6 44  1  0  0  0
 44 45  2  0  0  0
 45 46  1  0  0  0
 46 47  2  0  0  0
 47 48  1  0  0  0
 48 49  2  0  0  0
  3  7  1  0  0  0
  7  8  2  0  0  0
  7 20  1  0  0  0
 20 21  1  0  0  0
 21 22  1  0  0  0
 22 23  1  0  0  0
 23 24  1  0  0  0
 24 25  1  0  0  0
 25 26  2  0  0  0
 25 27  1  0  0  0
 27 37  1  0  0  0
 37 38  1  0  0  0
 38 39  2  0  0  0
 39 40  1  0  0  0
 40 41  2  0  0  0
 41 42  1  0  0  0
 42 43  2  0  0  0
 27 28  1  0  0  0
 28 29  1  0  0  0
 29 30  2  0  0  0
 29 32  1  0  0  0
 32 33  1  0  0  0
 33 34  1  0  0  0
 33 35  1  0  0  0
 33 36  1  0  0  0
 13  9  1  0  0  0
  6  1  1  0  0  0
 49 44  1  0  0  0
 24 20  1  0  0  0
 43 38  1  0  0  0
 16 19  1  0  0  0
 28 31  1  0  0  0
M  END
> <minimizedAffinity>
-7.55661

> <CNNscore>
0.1686592698

> <CNNaffinity>
6.3271164894

> <CNN_VS>
1.0671268702

> <CNNaffinity_variance>
0.2191134393

$$$$
[H]OC(=O)[C@@]1([H])N(C(=O)[C@]2([H])C([H])([H])N(C(=O)[C@@]3([H])N(C(=O)[C@@]([H])(N([H])C(=O)OC(C([H])([H])[H])(C([H])([H])[H])C([H])([H])[H])C([H])([H])c4c([H])c([H])c([H])c([H])c4[H])C([H])([H])C([H])([H])C3([H])[H])C([H])([H])C([H])([H])[C@@]2([H])c2c([H])c([H])c([H])c([H])c2[H])C([H])([H])C([H])([H])C1([H])[H]


 49 53  0  0  0  0  0  0  0  0999 V2000
   -3.2105   22.3696  -23.6240 C   0  0  0  0  0  0  0  0  0  0  0  0
   -3.6064   22.7679  -22.2214 C   0  0  0  0  0  0  0  0  0  0  0  0
   -2.6485   22.1651  -21.2653 N   0  0  0  0  0  0  0  0  0  0  0  0
   -1.5703   21.4431  -21.8953 C   0  0  0  0  0  0  0  0  0  0  0  0
   -0.8874   22.2934  -22.9287 C   0  0  0  0  0  0  0  0  0  0  0  0
   -1.8691   22.9462  -23.8942 C   0  0  0  0  0  0  0  0  0  0  0  0
   -2.8140   22.2865  -19.8883 C   0  0  0  0  0  0  0  0  0  0  0  0
   -4.0122   22.9946  -19.6964 O   0  0  0  0  0  0  0  0  0  0  0  0
   -4.6494   25.0551  -24.7040 C   0  0  0  0  0  0  0  0  0  0  0  0
   -4.8031   25.7971  -26.0444 C   0  0  0  0  0  0  0  0  0  0  0  0
   -5.8053   24.9825  -26.8090 C   0  0  0  0  0  0  0  0  0  0  0  0
   -5.9879   23.7032  -26.0315 C   0  0  0  0  0  0  0  0  0  0  0  0
   -4.9065   23.7171  -25.0696 N   0  0  0  0  0  0  0  0  0  0  0  0
   -4.2709   22.5315  -24.6061 C   0  0  0  0  0  0  0  0  0  0  0  0
   -4.7258   21.4459  -25.1649 O   0  0  0  0  0  0  0  0  0  0  0  0
   -6.0953   26.9727  -24.1639 O   0  0  0  0  0  0  0  0  0  0  0  0
   -5.7124   25.6751  -23.8285 C   0  0  0  0  0  0  0  0  0  0  0  0
   -6.2304   25.0943  -22.8576 O   0  0  0  0  0  0  0  0  0  0  0  0
   -6.7612   27.2582  -24.8236 H   0  0  0  0  0  0  0  0  0  0  0  0
   -2.2694   21.9804  -18.6411 C   0  0  0  0  0  0  0  0  0  0  0  0
   -1.0858   22.9582  -18.3782 C   0  0  0  0  0  0  0  0  0  0  0  0
    0.1208   22.1956  -18.8085 C   0  0  0  0  0  0  0  0  0  0  0  0
   -0.3249   20.7129  -18.8521 C   0  0  0  0  0  0  0  0  0  0  0  0
   -1.6424   20.7584  -18.2599 N   0  0  0  0  0  0  0  0  0  0  0  0
   -2.1215   19.8257  -17.2753 C   0  0  0  0  0  0  0  0  0  0  0  0
   -3.1538   20.2288  -16.6155 O   0  0  0  0  0  0  0  0  0  0  0  0
   -1.5841   18.5463  -16.9418 C   0  0  0  0  0  0  0  0  0  0  0  0
   -0.7423   18.3901  -15.8060 N   0  0  0  0  0  0  0  0  0  0  0  0
    0.5787   17.8601  -16.0676 C   0  0  0  0  0  0  0  0  0  0  0  0
    0.9492   17.5628  -17.2457 O   0  0  0  0  0  0  0  0  0  0  0  0
   -1.0030   18.6490  -14.8649 H   0  0  0  0  0  0  0  0  0  0  0  0
    1.5203   17.6342  -15.0739 O   0  0  0  0  0  0  0  0  0  0  0  0
    1.5160   16.5197  -14.2089 C   0  0  0  0  0  0  0  0  0  0  0  0
    0.5884   15.4057  -14.6764 C   0  0  0  0  0  0  0  0  0  0  0  0
    0.9764   17.0177  -12.8733 C   0  0  0  0  0  0  0  0  0  0  0  0
    2.8664   15.9202  -13.9487 C   0  0  0  0  0  0  0  0  0  0  0  0
   -2.7246   17.5057  -16.6871 C   0  0  0  0  0  0  0  0  0  0  0  0
   -3.1293   16.7333  -17.8559 C   0  0  0  0  0  0  0  0  0  0  0  0
   -4.3848   16.6355  -18.3568 C   0  0  0  0  0  0  0  0  0  0  0  0
   -4.6579   15.7990  -19.4403 C   0  0  0  0  0  0  0  0  0  0  0  0
   -3.6633   15.0485  -20.0360 C   0  0  0  0  0  0  0  0  0  0  0  0
   -2.3567   15.1302  -19.5381 C   0  0  0  0  0  0  0  0  0  0  0  0
   -2.1300   15.9571  -18.4762 C   0  0  0  0  0  0  0  0  0  0  0  0
   -1.3362   22.7735  -25.2359 C   0  0  0  0  0  0  0  0  0  0  0  0
   -0.0473   22.2903  -25.3756 C   0  0  0  0  0  0  0  0  0  0  0  0
    0.5118   22.0716  -26.6115 C   0  0  0  0  0  0  0  0  0  0  0  0
   -0.1729   22.3167  -27.7854 C   0  0  0  0  0  0  0  0  0  0  0  0
   -1.4497   22.7986  -27.6488 C   0  0  0  0  0  0  0  0  0  0  0  0
   -2.0092   23.0166  -26.4138 C   0  0  0  0  0  0  0  0  0  0  0  0
 16 17  1  0  0  0
 17 18  2  0  0  0
 17  9  1  0  0  0
  9 10  1  0  0  0
 10 11  1  0  0  0
 11 12  1  0  0  0
 12 13  1  0  0  0
 13 14  1  0  0  0
 14 15  2  0  0  0
 14  1  1  0  0  0
  1  2  1  0  0  0
  2  3  1  0  0  0
  3  4  1  0  0  0
  4  5  1  0  0  0
  5  6  1  0  0  0
  6 44  1  0  0  0
 44 45  2  0  0  0
 45 46  1  0  0  0
 46 47  2  0  0  0
 47 48  1  0  0  0
 48 49  2  0  0  0
  3  7  1  0  0  0
  7  8  2  0  0  0
  7 20  1  0  0  0
 20 21  1  0  0  0
 21 22  1  0  0  0
 22 23  1  0  0  0
 23 24  1  0  0  0
 24 25  1  0  0  0
 25 26  2  0  0  0
 25 27  1  0  0  0
 27 37  1  0  0  0
 37 38  1  0  0  0
 38 39  2  0  0  0
 39 40  1  0  0  0
 40 41  2  0  0  0
 41 42  1  0  0  0
 42 43  2  0  0  0
 27 28  1  0  0  0
 28 29  1  0  0  0
 29 30  2  0  0  0
 29 32  1  0  0  0
 32 33  1  0  0  0
 33 34  1  0  0  0
 33 35  1  0  0  0
 33 36  1  0  0  0
 13  9  1  0  0  0
  6  1  1  0  0  0
 49 44  1  0  0  0
 24 20  1  0  0  0
 43 38  1  0  0  0
 16 19  1  0  0  0
 28 31  1  0  0  0
M  END
> <minimizedAffinity>
-7.77796

> <CNNscore>
0.1664196849

> <CNNaffinity>
6.4653716087

> <CNN_VS>
1.0759650469

> <CNNaffinity_variance>
0.1209229976

$$$$
[H]OC(=O)[C@@]1([H])N(C(=O)[C@]2([H])C([H])([H])N(C(=O)[C@@]3([H])N(C(=O)[C@@]([H])(N([H])C(=O)OC(C([H])([H])[H])(C([H])([H])[H])C([H])([H])[H])C([H])([H])c4c([H])c([H])c([H])c([H])c4[H])C([H])([H])C([H])([H])C3([H])[H])C([H])([H])C([H])([H])[C@@]2([H])c2c([H])c([H])c([H])c([H])c2[H])C([H])([H])C([H])([H])C1([H])[H]


 49 53  0  0  0  0  0  0  0  0999 V2000
   -2.8212   21.9446  -23.5635 C   0  0  0  0  0  0  0  0  0  0  0  0
   -3.0218   22.1852  -22.0855 C   0  0  0  0  0  0  0  0  0  0  0  0
   -1.8813   21.5952  -21.3464 N   0  0  0  0  0  0  0  0  0  0  0  0
   -0.8622   21.0314  -22.1976 C   0  0  0  0  0  0  0  0  0  0  0  0
   -0.4189   22.0251  -23.2337 C   0  0  0  0  0  0  0  0  0  0  0  0
   -1.5882   22.6633  -23.9735 C   0  0  0  0  0  0  0  0  0  0  0  0
   -1.8373   21.5845  -19.9550 C   0  0  0  0  0  0  0  0  0  0  0  0
   -3.0422   22.1602  -19.5183 O   0  0  0  0  0  0  0  0  0  0  0  0
   -4.4495   24.6089  -24.3994 C   0  0  0  0  0  0  0  0  0  0  0  0
   -4.8327   25.3416  -25.6984 C   0  0  0  0  0  0  0  0  0  0  0  0
   -5.9391   24.5122  -26.2819 C   0  0  0  0  0  0  0  0  0  0  0  0
   -5.9754   23.2357  -25.4798 C   0  0  0  0  0  0  0  0  0  0  0  0
   -4.7491   23.2663  -24.7117 N   0  0  0  0  0  0  0  0  0  0  0  0
   -4.0321   22.0899  -24.3558 C   0  0  0  0  0  0  0  0  0  0  0  0
   -4.5617   20.9965  -24.8266 O   0  0  0  0  0  0  0  0  0  0  0  0
   -5.8521   26.4919  -23.6601 O   0  0  0  0  0  0  0  0  0  0  0  0
   -5.3587   25.2230  -23.3614 C   0  0  0  0  0  0  0  0  0  0  0  0
   -5.6634   24.6616  -22.2936 O   0  0  0  0  0  0  0  0  0  0  0  0
   -6.6399   26.7274  -24.1933 H   0  0  0  0  0  0  0  0  0  0  0  0
   -1.0812   21.2262  -18.8388 C   0  0  0  0  0  0  0  0  0  0  0  0
   -0.5814   22.5332  -18.1546 C   0  0  0  0  0  0  0  0  0  0  0  0
    0.7904   22.7314  -18.7032 C   0  0  0  0  0  0  0  0  0  0  0  0
    1.2029   21.3560  -19.2839 C   0  0  0  0  0  0  0  0  0  0  0  0
    0.1383   20.4881  -18.8348 N   0  0  0  0  0  0  0  0  0  0  0  0
    0.3414   19.1810  -18.2697 C   0  0  0  0  0  0  0  0  0  0  0  0
   -0.6676   18.7213  -17.6108 O   0  0  0  0  0  0  0  0  0  0  0  0
    1.5110   18.3661  -18.3379 C   0  0  0  0  0  0  0  0  0  0  0  0
    2.0893   17.8319  -17.1534 N   0  0  0  0  0  0  0  0  0  0  0  0
    3.4261   18.2901  -16.8415 C   0  0  0  0  0  0  0  0  0  0  0  0
    4.0294   19.1225  -17.5877 O   0  0  0  0  0  0  0  0  0  0  0  0
    1.6176   17.1941  -16.5278 H   0  0  0  0  0  0  0  0  0  0  0  0
    4.1399   17.8611  -15.7317 O   0  0  0  0  0  0  0  0  0  0  0  0
    4.7262   16.5842  -15.6046 C   0  0  0  0  0  0  0  0  0  0  0  0
    3.8917   15.6259  -14.7647 C   0  0  0  0  0  0  0  0  0  0  0  0
    6.0441   16.7907  -14.8676 C   0  0  0  0  0  0  0  0  0  0  0  0
    5.0436   15.9057  -16.9044 C   0  0  0  0  0  0  0  0  0  0  0  0
    1.2620   17.0965  -19.2181 C   0  0  0  0  0  0  0  0  0  0  0  0
    2.0226   17.0470  -20.4613 C   0  0  0  0  0  0  0  0  0  0  0  0
    2.1264   15.9842  -21.2957 C   0  0  0  0  0  0  0  0  0  0  0  0
    2.9509   16.0377  -22.4208 C   0  0  0  0  0  0  0  0  0  0  0  0
    3.6831   17.1697  -22.7205 C   0  0  0  0  0  0  0  0  0  0  0  0
    3.5949   18.2827  -21.8747 C   0  0  0  0  0  0  0  0  0  0  0  0
    2.7802   18.1907  -20.7835 C   0  0  0  0  0  0  0  0  0  0  0  0
   -1.2609   22.6541  -25.3902 C   0  0  0  0  0  0  0  0  0  0  0  0
    0.0187   22.2879  -25.7682 C   0  0  0  0  0  0  0  0  0  0  0  0
    0.3912   22.2256  -27.0893 C   0  0  0  0  0  0  0  0  0  0  0  0
   -0.4822   22.5206  -28.1174 C   0  0  0  0  0  0  0  0  0  0  0  0
   -1.7503   22.8866  -27.7443 C   0  0  0  0  0  0  0  0  0  0  0  0
   -2.1233   22.9483  -26.4242 C   0  0  0  0  0  0  0  0  0  0  0  0
 16 17  1  0  0  0
 17 18  2  0  0  0
 17  9  1  0  0  0
  9 10  1  0  0  0
 10 11  1  0  0  0
 11 12  1  0  0  0
 12 13  1  0  0  0
 13 14  1  0  0  0
 14 15  2  0  0  0
 14  1  1  0  0  0
  1  2  1  0  0  0
  2  3  1  0  0  0
  3  4  1  0  0  0
  4  5  1  0  0  0
  5  6  1  0  0  0
  6 44  1  0  0  0
 44 45  2  0  0  0
 45 46  1  0  0  0
 46 47  2  0  0  0
 47 48  1  0  0  0
 48 49  2  0  0  0
  3  7  1  0  0  0
  7  8  2  0  0  0
  7 20  1  0  0  0
 20 21  1  0  0  0
 21 22  1  0  0  0
 22 23  1  0  0  0
 23 24  1  0  0  0
 24 25  1  0  0  0
 25 26  2  0  0  0
 25 27  1  0  0  0
 27 37  1  0  0  0
 37 38  1  0  0  0
 38 39  2  0  0  0
 39 40  1  0  0  0
 40 41  2  0  0  0
 41 42  1  0  0  0
 42 43  2  0  0  0
 27 28  1  0  0  0
 28 29  1  0  0  0
 29 30  2  0  0  0
 29 32  1  0  0  0
 32 33  1  0  0  0
 33 34  1  0  0  0
 33 35  1  0  0  0
 33 36  1  0  0  0
 13  9  1  0  0  0
  6  1  1  0  0  0
 49 44  1  0  0  0
 24 20  1  0  0  0
 43 38  1  0  0  0
 16 19  1  0  0  0
 28 31  1  0  0  0
M  END
> <minimizedAffinity>
-8.08119

> <CNNscore>
0.1648348123

> <CNNaffinity>
6.4846849442

> <CNN_VS>
1.0689017773

> <CNNaffinity_variance>
0.2551966608

$$$$
[H]OC(=O)[C@@]1([H])N(C(=O)[C@]2([H])C([H])([H])N(C(=O)[C@@]3([H])N(C(=O)[C@@]([H])(N([H])C(=O)OC(C([H])([H])[H])(C([H])([H])[H])C([H])([H])[H])C([H])([H])c4c([H])c([H])c([H])c([H])c4[H])C([H])([H])C([H])([H])C3([H])[H])C([H])([H])C([H])([H])[C@@]2([H])c2c([H])c([H])c([H])c([H])c2[H])C([H])([H])C([H])([H])C1([H])[H]


 49 53  0  0  0  0  0  0  0  0999 V2000
   -3.2928   22.4172  -23.6504 C   0  0  0  0  0  0  0  0  0  0  0  0
   -3.7078   22.8282  -22.2570 C   0  0  0  0  0  0  0  0  0  0  0  0
   -2.7623   22.2352  -21.2826 N   0  0  0  0  0  0  0  0  0  0  0  0
   -1.6752   21.5083  -21.8913 C   0  0  0  0  0  0  0  0  0  0  0  0
   -0.9792   22.3496  -22.9234 C   0  0  0  0  0  0  0  0  0  0  0  0
   -1.9483   22.9925  -23.9079 C   0  0  0  0  0  0  0  0  0  0  0  0
   -2.9463   22.3692  -19.9091 C   0  0  0  0  0  0  0  0  0  0  0  0
   -4.1476   23.0779  -19.7399 O   0  0  0  0  0  0  0  0  0  0  0  0
   -4.7181   25.0914  -24.7755 C   0  0  0  0  0  0  0  0  0  0  0  0
   -4.8543   25.8203  -26.1250 C   0  0  0  0  0  0  0  0  0  0  0  0
   -5.8458   24.9977  -26.8949 C   0  0  0  0  0  0  0  0  0  0  0  0
   -6.0383   23.7260  -26.1076 C   0  0  0  0  0  0  0  0  0  0  0  0
   -4.9698   23.7498  -25.1315 N   0  0  0  0  0  0  0  0  0  0  0  0
   -4.3401   22.5690  -24.6480 C   0  0  0  0  0  0  0  0  0  0  0  0
   -4.7871   21.4779  -25.2023 O   0  0  0  0  0  0  0  0  0  0  0  0
   -6.1486   27.0254  -24.2529 O   0  0  0  0  0  0  0  0  0  0  0  0
   -5.7930   25.7193  -23.9203 C   0  0  0  0  0  0  0  0  0  0  0  0
   -6.3429   25.1377  -22.9676 O   0  0  0  0  0  0  0  0  0  0  0  0
   -6.7940   27.3266  -24.9259 H   0  0  0  0  0  0  0  0  0  0  0  0
   -2.4183   22.0752  -18.6519 C   0  0  0  0  0  0  0  0  0  0  0  0
   -1.1523   22.9579  -18.4417 C   0  0  0  0  0  0  0  0  0  0  0  0
   -0.0201   22.0746  -18.8424 C   0  0  0  0  0  0  0  0  0  0  0  0
   -0.5925   20.6356  -18.8140 C   0  0  0  0  0  0  0  0  0  0  0  0
   -1.8953   20.8224  -18.2172 N   0  0  0  0  0  0  0  0  0  0  0  0
   -2.4436   19.9813  -17.1873 C   0  0  0  0  0  0  0  0  0  0  0  0
   -3.4310   20.5024  -16.5415 O   0  0  0  0  0  0  0  0  0  0  0  0
   -2.0154   18.6770  -16.7970 C   0  0  0  0  0  0  0  0  0  0  0  0
   -1.6782   17.7038  -17.7778 N   0  0  0  0  0  0  0  0  0  0  0  0
   -2.6785   16.6888  -18.0298 C   0  0  0  0  0  0  0  0  0  0  0  0
   -3.7863   16.6851  -17.4082 O   0  0  0  0  0  0  0  0  0  0  0  0
   -0.8179   17.7044  -18.3075 H   0  0  0  0  0  0  0  0  0  0  0  0
   -2.5073   15.6597  -18.9447 O   0  0  0  0  0  0  0  0  0  0  0  0
   -2.0675   14.3611  -18.6121 C   0  0  0  0  0  0  0  0  0  0  0  0
   -0.9828   13.8414  -19.5466 C   0  0  0  0  0  0  0  0  0  0  0  0
   -3.2747   13.4458  -18.7781 C   0  0  0  0  0  0  0  0  0  0  0  0
   -1.5792   14.2042  -17.2023 C   0  0  0  0  0  0  0  0  0  0  0  0
   -0.7295   18.7492  -15.9083 C   0  0  0  0  0  0  0  0  0  0  0  0
   -0.4346   17.5403  -15.1479 C   0  0  0  0  0  0  0  0  0  0  0  0
    0.7047   16.8095  -15.2143 C   0  0  0  0  0  0  0  0  0  0  0  0
    0.8357   15.6240  -14.4892 C   0  0  0  0  0  0  0  0  0  0  0  0
   -0.1850   15.1595  -13.6830 C   0  0  0  0  0  0  0  0  0  0  0  0
   -1.3738   15.8950  -13.5962 C   0  0  0  0  0  0  0  0  0  0  0  0
   -1.4646   17.0473  -14.3221 C   0  0  0  0  0  0  0  0  0  0  0  0
   -1.3974   22.8078  -25.2407 C   0  0  0  0  0  0  0  0  0  0  0  0
   -0.1087   22.3183  -25.3587 C   0  0  0  0  0  0  0  0  0  0  0  0
    0.4667   22.0883  -26.5851 C   0  0  0  0  0  0  0  0  0  0  0  0
   -0.2003   22.3277  -27.7702 C   0  0  0  0  0  0  0  0  0  0  0  0
   -1.4769   22.8158  -27.6551 C   0  0  0  0  0  0  0  0  0  0  0  0
   -2.0527   23.0451  -26.4297 C   0  0  0  0  0  0  0  0  0  0  0  0
 16 17  1  0  0  0
 17 18  2  0  0  0
 17  9  1  0  0  0
  9 10  1  0  0  0
 10 11  1  0  0  0
 11 12  1  0  0  0
 12 13  1  0  0  0
 13 14  1  0  0  0
 14 15  2  0  0  0
 14  1  1  0  0  0
  1  2  1  0  0  0
  2  3  1  0  0  0
  3  4  1  0  0  0
  4  5  1  0  0  0
  5  6  1  0  0  0
  6 44  1  0  0  0
 44 45  2  0  0  0
 45 46  1  0  0  0
 46 47  2  0  0  0
 47 48  1  0  0  0
 48 49  2  0  0  0
  3  7  1  0  0  0
  7  8  2  0  0  0
  7 20  1  0  0  0
 20 21  1  0  0  0
 21 22  1  0  0  0
 22 23  1  0  0  0
 23 24  1  0  0  0
 24 25  1  0  0  0
 25 26  2  0  0  0
 25 27  1  0  0  0
 27 37  1  0  0  0
 37 38  1  0  0  0
 38 39  2  0  0  0
 39 40  1  0  0  0
 40 41  2  0  0  0
 41 42  1  0  0  0
 42 43  2  0  0  0
 27 28  1  0  0  0
 28 29  1  0  0  0
 29 30  2  0  0  0
 29 32  1  0  0  0
 32 33  1  0  0  0
 33 34  1  0  0  0
 33 35  1  0  0  0
 33 36  1  0  0  0
 13  9  1  0  0  0
  6  1  1  0  0  0
 49 44  1  0  0  0
 24 20  1  0  0  0
 43 38  1  0  0  0
 16 19  1  0  0  0
 28 31  1  0  0  0
M  END
> <minimizedAffinity>
-7.49005

> <CNNscore>
0.1623666286

> <CNNaffinity>
6.4098472595

> <CNN_VS>
1.0407452583

> <CNNaffinity_variance>
0.0606218502

$$$$
[H]OC(=O)[C@@]1([H])N(C(=O)[C@]2([H])C([H])([H])N(C(=O)[C@@]3([H])N(C(=O)[C@@]([H])(N([H])C(=O)OC(C([H])([H])[H])(C([H])([H])[H])C([H])([H])[H])C([H])([H])c4c([H])c([H])c([H])c([H])c4[H])C([H])([H])C([H])([H])C3([H])[H])C([H])([H])C([H])([H])[C@@]2([H])c2c([H])c([H])c([H])c([H])c2[H])C([H])([H])C([H])([H])C1([H])[H]


 49 53  0  0  0  0  0  0  0  0999 V2000
   -0.1635   22.0505  -20.2258 C   0  0  0  0  0  0  0  0  0  0  0  0
   -1.6105   22.4086  -19.9801 C   0  0  0  0  0  0  0  0  0  0  0  0
   -2.1889   22.9468  -21.2334 N   0  0  0  0  0  0  0  0  0  0  0  0
   -1.2819   22.9189  -22.3547 C   0  0  0  0  0  0  0  0  0  0  0  0
   -0.6981   21.5466  -22.5380 C   0  0  0  0  0  0  0  0  0  0  0  0
   -0.1335   20.9711  -21.2450 C   0  0  0  0  0  0  0  0  0  0  0  0
   -3.4877   23.4455  -21.2856 C   0  0  0  0  0  0  0  0  0  0  0  0
   -3.9965   23.3566  -19.9790 O   0  0  0  0  0  0  0  0  0  0  0  0
   -0.3353   19.8351  -17.8783 C   0  0  0  0  0  0  0  0  0  0  0  0
    0.5756   18.7491  -17.2767 C   0  0  0  0  0  0  0  0  0  0  0  0
    1.5695   19.5118  -16.4502 C   0  0  0  0  0  0  0  0  0  0  0  0
    1.3796   20.9662  -16.8007 C   0  0  0  0  0  0  0  0  0  0  0  0
    0.5376   20.9388  -17.9776 N   0  0  0  0  0  0  0  0  0  0  0  0
    0.6256   21.9119  -19.0120 C   0  0  0  0  0  0  0  0  0  0  0  0
    1.5635   22.7948  -18.8160 O   0  0  0  0  0  0  0  0  0  0  0  0
   -1.7780   18.8440  -16.1474 O   0  0  0  0  0  0  0  0  0  0  0  0
   -1.4269   19.9972  -16.8472 C   0  0  0  0  0  0  0  0  0  0  0  0
   -2.0017   21.0763  -16.6161 O   0  0  0  0  0  0  0  0  0  0  0  0
   -1.3580   18.4684  -15.3457 H   0  0  0  0  0  0  0  0  0  0  0  0
   -4.4671   23.9971  -22.1116 C   0  0  0  0  0  0  0  0  0  0  0  0
   -5.8457   23.8239  -21.4077 C   0  0  0  0  0  0  0  0  0  0  0  0
   -6.4063   22.5777  -22.0036 C   0  0  0  0  0  0  0  0  0  0  0  0
   -5.5991   22.3460  -23.3051 C   0  0  0  0  0  0  0  0  0  0  0  0
   -4.8249   23.5608  -23.4206 N   0  0  0  0  0  0  0  0  0  0  0  0
   -4.6565   24.3020  -24.6417 C   0  0  0  0  0  0  0  0  0  0  0  0
   -4.2510   25.5155  -24.4783 O   0  0  0  0  0  0  0  0  0  0  0  0
   -4.9009   23.8627  -25.9774 C   0  0  0  0  0  0  0  0  0  0  0  0
   -4.5721   24.6947  -27.0831 N   0  0  0  0  0  0  0  0  0  0  0  0
   -5.6868   25.3484  -27.7345 C   0  0  0  0  0  0  0  0  0  0  0  0
   -6.8788   25.1825  -27.3278 O   0  0  0  0  0  0  0  0  0  0  0  0
   -3.6301   24.8673  -27.4048 H   0  0  0  0  0  0  0  0  0  0  0  0
   -5.5451   26.1835  -28.8335 O   0  0  0  0  0  0  0  0  0  0  0  0
   -5.1820   25.7478  -30.1253 C   0  0  0  0  0  0  0  0  0  0  0  0
   -5.6375   24.3255  -30.4248 C   0  0  0  0  0  0  0  0  0  0  0  0
   -3.6584   25.7448  -30.1625 C   0  0  0  0  0  0  0  0  0  0  0  0
   -5.6537   26.6308  -31.2426 C   0  0  0  0  0  0  0  0  0  0  0  0
   -4.1271   22.5378  -26.2846 C   0  0  0  0  0  0  0  0  0  0  0  0
   -2.7873   22.7168  -26.8319 C   0  0  0  0  0  0  0  0  0  0  0  0
   -2.4775   22.9674  -28.1272 C   0  0  0  0  0  0  0  0  0  0  0  0
   -1.1466   23.0426  -28.5412 C   0  0  0  0  0  0  0  0  0  0  0  0
   -0.1067   22.8666  -27.6494 C   0  0  0  0  0  0  0  0  0  0  0  0
   -0.3985   22.6058  -26.3046 C   0  0  0  0  0  0  0  0  0  0  0  0
   -1.7118   22.5374  -25.9392 C   0  0  0  0  0  0  0  0  0  0  0  0
    1.1650   20.3966  -21.5577 C   0  0  0  0  0  0  0  0  0  0  0  0
    1.4744   19.1495  -21.0444 C   0  0  0  0  0  0  0  0  0  0  0  0
    2.6689   18.5302  -21.3230 C   0  0  0  0  0  0  0  0  0  0  0  0
    3.6299   19.1081  -22.1289 C   0  0  0  0  0  0  0  0  0  0  0  0
    3.3261   20.3457  -22.6361 C   0  0  0  0  0  0  0  0  0  0  0  0
    2.1321   20.9647  -22.3587 C   0  0  0  0  0  0  0  0  0  0  0  0
 16 17  1  0  0  0
 17 18  2  0  0  0
 17  9  1  0  0  0
  9 10  1  0  0  0
 10 11  1  0  0  0
 11 12  1  0  0  0
 12 13  1  0  0  0
 13 14  1  0  0  0
 14 15  2  0  0  0
 14  1  1  0  0  0
  1  2  1  0  0  0
  2  3  1  0  0  0
  3  4  1  0  0  0
  4  5  1  0  0  0
  5  6  1  0  0  0
  6 44  1  0  0  0
 44 45  2  0  0  0
 45 46  1  0  0  0
 46 47  2  0  0  0
 47 48  1  0  0  0
 48 49  2  0  0  0
  3  7  1  0  0  0
  7  8  2  0  0  0
  7 20  1  0  0  0
 20 21  1  0  0  0
 21 22  1  0  0  0
 22 23  1  0  0  0
 23 24  1  0  0  0
 24 25  1  0  0  0
 25 26  2  0  0  0
 25 27  1  0  0  0
 27 37  1  0  0  0
 37 38  1  0  0  0
 38 39  2  0  0  0
 39 40  1  0  0  0
 40 41  2  0  0  0
 41 42  1  0  0  0
 42 43  2  0  0  0
 27 28  1  0  0  0
 28 29  1  0  0  0
 29 30  2  0  0  0
 29 32  1  0  0  0
 32 33  1  0  0  0
 33 34  1  0  0  0
 33 35  1  0  0  0
 33 36  1  0  0  0
 13  9  1  0  0  0
  6  1  1  0  0  0
 49 44  1  0  0  0
 24 20  1  0  0  0
 43 38  1  0  0  0
 16 19  1  0  0  0
 28 31  1  0  0  0
M  END
> <minimizedAffinity>
-10.39302

> <CNNscore>
0.1557136476

> <CNNaffinity>
7.0037622452

> <CNN_VS>
1.0905814171

> <CNNaffinity_variance>
0.3567125499

$$$$
[H]OC(=O)[C@@]1([H])N(C(=O)[C@]2([H])C([H])([H])N(C(=O)[C@@]3([H])N(C(=O)[C@@]([H])(N([H])C(=O)OC(C([H])([H])[H])(C([H])([H])[H])C([H])([H])[H])C([H])([H])c4c([H])c([H])c([H])c([H])c4[H])C([H])([H])C([H])([H])C3([H])[H])C([H])([H])C([H])([H])[C@@]2([H])c2c([H])c([H])c([H])c([H])c2[H])C([H])([H])C([H])([H])C1([H])[H]


 49 53  0  0  0  0  0  0  0  0999 V2000
   -3.3857   22.3860  -23.3675 C   0  0  0  0  0  0  0  0  0  0  0  0
   -3.6630   22.8302  -21.9503 C   0  0  0  0  0  0  0  0  0  0  0  0
   -2.5391   22.3995  -21.0863 N   0  0  0  0  0  0  0  0  0  0  0  0
   -1.4632   21.7594  -21.8027 C   0  0  0  0  0  0  0  0  0  0  0  0
   -1.0055   22.6092  -22.9542 C   0  0  0  0  0  0  0  0  0  0  0  0
   -2.1597   23.0862  -23.8272 C   0  0  0  0  0  0  0  0  0  0  0  0
   -2.5598   22.5924  -19.7077 C   0  0  0  0  0  0  0  0  0  0  0  0
   -3.8024   23.1768  -19.4102 O   0  0  0  0  0  0  0  0  0  0  0  0
   -5.1901   24.8289  -24.4742 C   0  0  0  0  0  0  0  0  0  0  0  0
   -5.5673   25.4301  -25.8407 C   0  0  0  0  0  0  0  0  0  0  0  0
   -6.5678   24.4664  -26.4088 C   0  0  0  0  0  0  0  0  0  0  0  0
   -6.5363   23.2523  -25.5150 C   0  0  0  0  0  0  0  0  0  0  0  0
   -5.3579   23.4461  -24.6973 N   0  0  0  0  0  0  0  0  0  0  0  0
   -4.5625   22.3664  -24.2218 C   0  0  0  0  0  0  0  0  0  0  0  0
   -4.9723   21.1996  -24.6319 O   0  0  0  0  0  0  0  0  0  0  0  0
   -6.5788   26.7461  -23.7993 O   0  0  0  0  0  0  0  0  0  0  0  0
   -6.2001   25.4325  -23.5273 C   0  0  0  0  0  0  0  0  0  0  0  0
   -6.6794   24.8254  -22.5526 O   0  0  0  0  0  0  0  0  0  0  0  0
   -7.2714   27.0633  -24.4156 H   0  0  0  0  0  0  0  0  0  0  0  0
   -1.8451   22.4302  -18.5208 C   0  0  0  0  0  0  0  0  0  0  0  0
   -0.5253   23.2494  -18.6363 C   0  0  0  0  0  0  0  0  0  0  0  0
    0.4868   22.2507  -19.0842 C   0  0  0  0  0  0  0  0  0  0  0  0
   -0.1338   20.8673  -18.7677 C   0  0  0  0  0  0  0  0  0  0  0  0
   -1.3115   21.2131  -18.0050 N   0  0  0  0  0  0  0  0  0  0  0  0
   -1.7182   20.5494  -16.7955 C   0  0  0  0  0  0  0  0  0  0  0  0
   -2.5627   21.2121  -16.0806 O   0  0  0  0  0  0  0  0  0  0  0  0
   -1.2875   19.2817  -16.3011 C   0  0  0  0  0  0  0  0  0  0  0  0
   -1.3052   18.1346  -17.1417 N   0  0  0  0  0  0  0  0  0  0  0  0
   -2.1783   17.0589  -16.7232 C   0  0  0  0  0  0  0  0  0  0  0  0
   -2.8825   17.1521  -15.6701 O   0  0  0  0  0  0  0  0  0  0  0  0
   -0.7791   18.0501  -18.0000 H   0  0  0  0  0  0  0  0  0  0  0  0
   -2.3069   15.8660  -17.4201 O   0  0  0  0  0  0  0  0  0  0  0  0
   -3.3330   15.5907  -18.3484 C   0  0  0  0  0  0  0  0  0  0  0  0
   -4.2833   16.7636  -18.5520 C   0  0  0  0  0  0  0  0  0  0  0  0
   -4.1524   14.4515  -17.7538 C   0  0  0  0  0  0  0  0  0  0  0  0
   -2.8564   15.1404  -19.6976 C   0  0  0  0  0  0  0  0  0  0  0  0
    0.1976   19.3434  -15.8119 C   0  0  0  0  0  0  0  0  0  0  0  0
    0.5472   20.5335  -15.0452 C   0  0  0  0  0  0  0  0  0  0  0  0
    1.3683   21.5338  -15.4477 C   0  0  0  0  0  0  0  0  0  0  0  0
    1.6858   22.5864  -14.5877 C   0  0  0  0  0  0  0  0  0  0  0  0
    1.1754   22.6444  -13.3057 C   0  0  0  0  0  0  0  0  0  0  0  0
    0.3245   21.6234  -12.8636 C   0  0  0  0  0  0  0  0  0  0  0  0
    0.0398   20.6103  -13.7328 C   0  0  0  0  0  0  0  0  0  0  0  0
   -1.7665   22.8848  -25.2125 C   0  0  0  0  0  0  0  0  0  0  0  0
   -0.5237   22.3344  -25.4710 C   0  0  0  0  0  0  0  0  0  0  0  0
   -0.0969   22.0857  -26.7531 C   0  0  0  0  0  0  0  0  0  0  0  0
   -0.8763   22.3656  -27.8582 C   0  0  0  0  0  0  0  0  0  0  0  0
   -2.1074   22.9140  -27.6038 C   0  0  0  0  0  0  0  0  0  0  0  0
   -2.5348   23.1620  -26.3226 C   0  0  0  0  0  0  0  0  0  0  0  0
 16 17  1  0  0  0
 17 18  2  0  0  0
 17  9  1  0  0  0
  9 10  1  0  0  0
 10 11  1  0  0  0
 11 12  1  0  0  0
 12 13  1  0  0  0
 13 14  1  0  0  0
 14 15  2  0  0  0
 14  1  1  0  0  0
  1  2  1  0  0  0
  2  3  1  0  0  0
  3  4  1  0  0  0
  4  5  1  0  0  0
  5  6  1  0  0  0
  6 44  1  0  0  0
 44 45  2  0  0  0
 45 46  1  0  0  0
 46 47  2  0  0  0
 47 48  1  0  0  0
 48 49  2  0  0  0
  3  7  1  0  0  0
  7  8  2  0  0  0
  7 20  1  0  0  0
 20 21  1  0  0  0
 21 22  1  0  0  0
 22 23  1  0  0  0
 23 24  1  0  0  0
 24 25  1  0  0  0
 25 26  2  0  0  0
 25 27  1  0  0  0
 27 37  1  0  0  0
 37 38  1  0  0  0
 38 39  2  0  0  0
 39 40  1  0  0  0
 40 41  2  0  0  0
 41 42  1  0  0  0
 42 43  2  0  0  0
 27 28  1  0  0  0
 28 29  1  0  0  0
 29 30  2  0  0  0
 29 32  1  0  0  0
 32 33  1  0  0  0
 33 34  1  0  0  0
 33 35  1  0  0  0
 33 36  1  0  0  0
 13  9  1  0  0  0
  6  1  1  0  0  0
 49 44  1  0  0  0
 24 20  1  0  0  0
 43 38  1  0  0  0
 16 19  1  0  0  0
 28 31  1  0  0  0
M  END
> <minimizedAffinity>
-7.95697

> <CNNscore>
0.1528253108

> <CNNaffinity>
6.3248648643

> <CNN_VS>
0.9665994644

> <CNNaffinity_variance>
0.3156865835

$$$$
[H]OC(=O)[C@@]1([H])N(C(=O)[C@]2([H])C([H])([H])N(C(=O)[C@@]3([H])N(C(=O)[C@@]([H])(N([H])C(=O)OC(C([H])([H])[H])(C([H])([H])[H])C([H])([H])[H])C([H])([H])c4c([H])c([H])c([H])c([H])c4[H])C([H])([H])C([H])([H])C3([H])[H])C([H])([H])C([H])([H])[C@@]2([H])c2c([H])c([H])c([H])c([H])c2[H])C([H])([H])C([H])([H])C1([H])[H]


 49 53  0  0  0  0  0  0  0  0999 V2000
   -4.0606   22.5641  -24.2133 C   0  0  0  0  0  0  0  0  0  0  0  0
   -5.3493   23.2850  -23.8939 C   0  0  0  0  0  0  0  0  0  0  0  0
   -5.6948   23.0391  -22.4743 N   0  0  0  0  0  0  0  0  0  0  0  0
   -4.7081   22.2688  -21.7576 C   0  0  0  0  0  0  0  0  0  0  0  0
   -3.3400   22.8692  -21.9169 C   0  0  0  0  0  0  0  0  0  0  0  0
   -2.9914   23.1586  -23.3718 C   0  0  0  0  0  0  0  0  0  0  0  0
   -6.8825   23.5064  -21.9182 C   0  0  0  0  0  0  0  0  0  0  0  0
   -7.5837   24.1373  -22.9595 O   0  0  0  0  0  0  0  0  0  0  0  0
   -4.8021   24.4698  -26.7168 C   0  0  0  0  0  0  0  0  0  0  0  0
   -4.0486   25.2329  -27.8217 C   0  0  0  0  0  0  0  0  0  0  0  0
   -3.6268   24.1667  -28.7901 C   0  0  0  0  0  0  0  0  0  0  0  0
   -3.8999   22.8490  -28.1097 C   0  0  0  0  0  0  0  0  0  0  0  0
   -4.1666   23.2105  -26.7338 N   0  0  0  0  0  0  0  0  0  0  0  0
   -3.8283   22.3709  -25.6360 C   0  0  0  0  0  0  0  0  0  0  0  0
   -3.2182   21.2751  -25.9889 O   0  0  0  0  0  0  0  0  0  0  0  0
   -6.6313   25.5568  -27.9544 O   0  0  0  0  0  0  0  0  0  0  0  0
   -6.2309   24.4512  -27.2060 C   0  0  0  0  0  0  0  0  0  0  0  0
   -7.0284   23.5261  -26.9689 O   0  0  0  0  0  0  0  0  0  0  0  0
   -6.5194   25.7128  -28.9153 H   0  0  0  0  0  0  0  0  0  0  0  0
   -7.6432   23.5881  -20.7517 C   0  0  0  0  0  0  0  0  0  0  0  0
   -7.7578   25.0898  -20.3545 C   0  0  0  0  0  0  0  0  0  0  0  0
   -6.6693   25.2877  -19.3552 C   0  0  0  0  0  0  0  0  0  0  0  0
   -6.2903   23.8650  -18.8742 C   0  0  0  0  0  0  0  0  0  0  0  0
   -7.3132   23.0414  -19.4773 N   0  0  0  0  0  0  0  0  0  0  0  0
   -8.0197   21.9934  -18.7908 C   0  0  0  0  0  0  0  0  0  0  0  0
   -9.1159   21.6252  -19.3620 O   0  0  0  0  0  0  0  0  0  0  0  0
   -7.6630   21.3465  -17.5696 C   0  0  0  0  0  0  0  0  0  0  0  0
   -8.0135   21.9231  -16.3176 N   0  0  0  0  0  0  0  0  0  0  0  0
   -6.9069   22.2948  -15.4621 C   0  0  0  0  0  0  0  0  0  0  0  0
   -5.7028   22.1150  -15.8248 O   0  0  0  0  0  0  0  0  0  0  0  0
   -8.9617   22.1052  -16.0206 H   0  0  0  0  0  0  0  0  0  0  0  0
   -7.0707   22.8579  -14.2046 O   0  0  0  0  0  0  0  0  0  0  0  0
   -7.4237   22.1344  -13.0460 C   0  0  0  0  0  0  0  0  0  0  0  0
   -7.1843   20.6364  -13.1826 C   0  0  0  0  0  0  0  0  0  0  0  0
   -8.9236   22.3307  -12.8604 C   0  0  0  0  0  0  0  0  0  0  0  0
   -6.7539   22.5982  -11.7864 C   0  0  0  0  0  0  0  0  0  0  0  0
   -8.2850   19.9129  -17.4895 C   0  0  0  0  0  0  0  0  0  0  0  0
   -7.4171   18.8356  -17.9506 C   0  0  0  0  0  0  0  0  0  0  0  0
   -7.8087   17.5891  -18.3106 C   0  0  0  0  0  0  0  0  0  0  0  0
   -6.8686   16.6193  -18.6626 C   0  0  0  0  0  0  0  0  0  0  0  0
   -5.5155   16.8964  -18.6576 C   0  0  0  0  0  0  0  0  0  0  0  0
   -5.0830   18.1766  -18.2892 C   0  0  0  0  0  0  0  0  0  0  0  0
   -6.0323   19.0965  -17.9492 C   0  0  0  0  0  0  0  0  0  0  0  0
   -1.6360   22.6820  -23.5952 C   0  0  0  0  0  0  0  0  0  0  0  0
   -1.1032   21.7693  -22.7022 C   0  0  0  0  0  0  0  0  0  0  0  0
    0.1586   21.2509  -22.8664 C   0  0  0  0  0  0  0  0  0  0  0  0
    0.9697   21.6041  -23.9268 C   0  0  0  0  0  0  0  0  0  0  0  0
    0.4442   22.5111  -24.8113 C   0  0  0  0  0  0  0  0  0  0  0  0
   -0.8172   23.0288  -24.6481 C   0  0  0  0  0  0  0  0  0  0  0  0
 16 17  1  0  0  0
 17 18  2  0  0  0
 17  9  1  0  0  0
  9 10  1  0  0  0
 10 11  1  0  0  0
 11 12  1  0  0  0
 12 13  1  0  0  0
 13 14  1  0  0  0
 14 15  2  0  0  0
 14  1  1  0  0  0
  1  2  1  0  0  0
  2  3  1  0  0  0
  3  4  1  0  0  0
  4  5  1  0  0  0
  5  6  1  0  0  0
  6 44  1  0  0  0
 44 45  2  0  0  0
 45 46  1  0  0  0
 46 47  2  0  0  0
 47 48  1  0  0  0
 48 49  2  0  0  0
  3  7  1  0  0  0
  7  8  2  0  0  0
  7 20  1  0  0  0
 20 21  1  0  0  0
 21 22  1  0  0  0
 22 23  1  0  0  0
 23 24  1  0  0  0
 24 25  1  0  0  0
 25 26  2  0  0  0
 25 27  1  0  0  0
 27 37  1  0  0  0
 37 38  1  0  0  0
 38 39  2  0  0  0
 39 40  1  0  0  0
 40 41  2  0  0  0
 41 42  1  0  0  0
 42 43  2  0  0  0
 27 28  1  0  0  0
 28 29  1  0  0  0
 29 30  2  0  0  0
 29 32  1  0  0  0
 32 33  1  0  0  0
 33 34  1  0  0  0
 33 35  1  0  0  0
 33 36  1  0  0  0
 13  9  1  0  0  0
  6  1  1  0  0  0
 49 44  1  0  0  0
 24 20  1  0  0  0
 43 38  1  0  0  0
 16 19  1  0  0  0
 28 31  1  0  0  0
M  END
> <minimizedAffinity>
-7.79172

> <CNNscore>
0.1521281898

> <CNNaffinity>
6.8348741531

> <CNN_VS>
1.0397770405

> <CNNaffinity_variance>
0.0430020057

$$$$
[H]OC(=O)[C@@]1([H])N(C(=O)[C@]2([H])C([H])([H])N(C(=O)[C@@]3([H])N(C(=O)[C@@]([H])(N([H])C(=O)OC(C([H])([H])[H])(C([H])([H])[H])C([H])([H])[H])C([H])([H])c4c([H])c([H])c([H])c([H])c4[H])C([H])([H])C([H])([H])C3([H])[H])C([H])([H])C([H])([H])[C@@]2([H])c2c([H])c([H])c([H])c([H])c2[H])C([H])([H])C([H])([H])C1([H])[H]


 49 53  0  0  0  0  0  0  0  0999 V2000
   -6.2931   21.6077  -17.8645 C   0  0  0  0  0  0  0  0  0  0  0  0
   -6.9233   22.9166  -18.2796 C   0  0  0  0  0  0  0  0  0  0  0  0
   -6.4333   23.2753  -19.6310 N   0  0  0  0  0  0  0  0  0  0  0  0
   -5.5726   22.2810  -20.2235 C   0  0  0  0  0  0  0  0  0  0  0  0
   -6.2186   20.9248  -20.1913 C   0  0  0  0  0  0  0  0  0  0  0  0
   -6.7576   20.5636  -18.8126 C   0  0  0  0  0  0  0  0  0  0  0  0
   -6.7757   24.4806  -20.2379 C   0  0  0  0  0  0  0  0  0  0  0  0
   -7.5598   25.1819  -19.3067 O   0  0  0  0  0  0  0  0  0  0  0  0
   -8.7814   20.6997  -16.0118 C   0  0  0  0  0  0  0  0  0  0  0  0
   -9.1526   19.4986  -15.1226 C   0  0  0  0  0  0  0  0  0  0  0  0
   -8.3287   19.6842  -13.8820 C   0  0  0  0  0  0  0  0  0  0  0  0
   -7.3481   20.7877  -14.1899 C   0  0  0  0  0  0  0  0  0  0  0  0
   -7.4509   20.9620  -15.6230 N   0  0  0  0  0  0  0  0  0  0  0  0
   -6.3488   21.3522  -16.4338 C   0  0  0  0  0  0  0  0  0  0  0  0
   -5.2374   21.4904  -15.7680 O   0  0  0  0  0  0  0  0  0  0  0  0
  -11.1113   21.4769  -15.8469 O   0  0  0  0  0  0  0  0  0  0  0  0
   -9.7697   21.7660  -15.6027 C   0  0  0  0  0  0  0  0  0  0  0  0
   -9.4406   22.8479  -15.0838 O   0  0  0  0  0  0  0  0  0  0  0  0
  -11.7356   20.9713  -15.2859 H   0  0  0  0  0  0  0  0  0  0  0  0
   -6.6430   25.2583  -21.3883 C   0  0  0  0  0  0  0  0  0  0  0  0
   -7.7656   26.3379  -21.3731 C   0  0  0  0  0  0  0  0  0  0  0  0
   -8.8522   25.7471  -22.2054 C   0  0  0  0  0  0  0  0  0  0  0  0
   -8.1749   24.6207  -23.0250 C   0  0  0  0  0  0  0  0  0  0  0  0
   -6.7723   24.8164  -22.7373 N   0  0  0  0  0  0  0  0  0  0  0  0
   -5.7293   24.7846  -23.7273 C   0  0  0  0  0  0  0  0  0  0  0  0
   -4.6205   25.3264  -23.3525 O   0  0  0  0  0  0  0  0  0  0  0  0
   -5.7892   24.2527  -25.0503 C   0  0  0  0  0  0  0  0  0  0  0  0
   -5.0983   24.8907  -26.1174 N   0  0  0  0  0  0  0  0  0  0  0  0
   -5.9290   25.4478  -27.1633 C   0  0  0  0  0  0  0  0  0  0  0  0
   -7.1958   25.3678  -27.1131 O   0  0  0  0  0  0  0  0  0  0  0  0
   -4.0945   24.9947  -26.1635 H   0  0  0  0  0  0  0  0  0  0  0  0
   -5.4184   26.0928  -28.2806 O   0  0  0  0  0  0  0  0  0  0  0  0
   -5.0354   25.4419  -29.4723 C   0  0  0  0  0  0  0  0  0  0  0  0
   -3.5277   25.4322  -29.6883 C   0  0  0  0  0  0  0  0  0  0  0  0
   -5.6438   26.2481  -30.6137 C   0  0  0  0  0  0  0  0  0  0  0  0
   -5.5323   24.0329  -29.6070 C   0  0  0  0  0  0  0  0  0  0  0  0
   -5.2394   22.7883  -25.0936 C   0  0  0  0  0  0  0  0  0  0  0  0
   -3.8480   22.6622  -25.5116 C   0  0  0  0  0  0  0  0  0  0  0  0
   -2.7650   22.6431  -24.6972 C   0  0  0  0  0  0  0  0  0  0  0  0
   -1.4744   22.5948  -25.2267 C   0  0  0  0  0  0  0  0  0  0  0  0
   -1.2591   22.5634  -26.5906 C   0  0  0  0  0  0  0  0  0  0  0  0
   -2.3607   22.5826  -27.4554 C   0  0  0  0  0  0  0  0  0  0  0  0
   -3.6063   22.6326  -26.8996 C   0  0  0  0  0  0  0  0  0  0  0  0
   -6.3531   19.1949  -18.5348 C   0  0  0  0  0  0  0  0  0  0  0  0
   -7.3376   18.2334  -18.3914 C   0  0  0  0  0  0  0  0  0  0  0  0
   -7.0302   16.9144  -18.1594 C   0  0  0  0  0  0  0  0  0  0  0  0
   -5.7279   16.4669  -18.0568 C   0  0  0  0  0  0  0  0  0  0  0  0
   -4.7508   17.4192  -18.1956 C   0  0  0  0  0  0  0  0  0  0  0  0
   -5.0574   18.7374  -18.4284 C   0  0  0  0  0  0  0  0  0  0  0  0
 16 17  1  0  0  0
 17 18  2  0  0  0
 17  9  1  0  0  0
  9 10  1  0  0  0
 10 11  1  0  0  0
 11 12  1  0  0  0
 12 13  1  0  0  0
 13 14  1  0  0  0
 14 15  2  0  0  0
 14  1  1  0  0  0
  1  2  1  0  0  0
  2  3  1  0  0  0
  3  4  1  0  0  0
  4  5  1  0  0  0
  5  6  1  0  0  0
  6 44  1  0  0  0
 44 45  2  0  0  0
 45 46  1  0  0  0
 46 47  2  0  0  0
 47 48  1  0  0  0
 48 49  2  0  0  0
  3  7  1  0  0  0
  7  8  2  0  0  0
  7 20  1  0  0  0
 20 21  1  0  0  0
 21 22  1  0  0  0
 22 23  1  0  0  0
 23 24  1  0  0  0
 24 25  1  0  0  0
 25 26  2  0  0  0
 25 27  1  0  0  0
 27 37  1  0  0  0
 37 38  1  0  0  0
 38 39  2  0  0  0
 39 40  1  0  0  0
 40 41  2  0  0  0
 41 42  1  0  0  0
 42 43  2  0  0  0
 27 28  1  0  0  0
 28 29  1  0  0  0
 29 30  2  0  0  0
 29 32  1  0  0  0
 32 33  1  0  0  0
 33 34  1  0  0  0
 33 35  1  0  0  0
 33 36  1  0  0  0
 13  9  1  0  0  0
  6  1  1  0  0  0
 49 44  1  0  0  0
 24 20  1  0  0  0
 43 38  1  0  0  0
 16 19  1  0  0  0
 28 31  1  0  0  0
M  END
> <minimizedAffinity>
-9.10650

> <CNNscore>
0.1504004449

> <CNNaffinity>
6.4925699234

> <CNN_VS>
0.9764854312

> <CNNaffinity_variance>
0.2669687867

$$$$
[H]O[C@@]1([H])c2c(nc([H])n(C([H])([H])C(=O)N([H])C([H])([H])C([H])([H])c3c([H])c([H])c(Cl)c([H])c3OC(F)(F)F)c2=O)O[C@@]1([H])[C@@]([H])(c1sc(C#N)c([H])c1F)N([H])[H]


 43 46  0  0  0  0  0  0  0  0999 V2000
   -5.1815   25.9652  -24.0761 N   0  0  0  0  0  0  0  0  0  0  0  0
   -4.1471   25.7034  -23.2166 C   0  0  0  0  0  0  0  0  0  0  0  0
   -4.3029   24.9047  -22.1547 N   0  0  0  0  0  0  0  0  0  0  0  0
   -5.5003   24.3033  -21.8632 C   0  0  0  0  0  0  0  0  0  0  0  0
   -6.5323   24.5608  -22.7153 C   0  0  0  0  0  0  0  0  0  0  0  0
   -6.3624   25.3946  -23.8219 C   0  0  0  0  0  0  0  0  0  0  0  0
   -7.3640   25.6005  -24.5886 O   0  0  0  0  0  0  0  0  0  0  0  0
   -7.7440   23.8293  -22.2146 C   0  0  0  0  0  0  0  0  0  0  0  0
   -8.7729   24.7685  -22.0836 O   0  0  0  0  0  0  0  0  0  0  0  0
   -7.2669   23.2851  -20.8932 C   0  0  0  0  0  0  0  0  0  0  0  0
   -5.8910   23.4603  -20.8484 O   0  0  0  0  0  0  0  0  0  0  0  0
   -8.3409   25.5889  -21.7170 H   0  0  0  0  0  0  0  0  0  0  0  0
   -7.9784   23.9858  -19.7500 C   0  0  0  0  0  0  0  0  0  0  0  0
   -7.0186   24.4983  -18.7832 N   0  0  0  0  0  0  0  0  0  0  0  0
   -7.2616   25.4777  -18.5005 H   0  0  0  0  0  0  0  0  0  0  0  0
   -6.0544   24.4592  -19.1904 H   0  0  0  0  0  0  0  0  0  0  0  0
   -8.7800   22.9243  -19.0359 C   0  0  0  0  0  0  0  0  0  0  0  0
   -8.3041   21.8514  -17.7995 S   0  0  0  0  0  0  0  0  0  0  0  0
   -9.7830   21.0374  -17.5586 C   0  0  0  0  0  0  0  0  0  0  0  0
  -10.6156   21.6389  -18.4663 C   0  0  0  0  0  0  0  0  0  0  0  0
  -10.0957   22.6100  -19.2249 C   0  0  0  0  0  0  0  0  0  0  0  0
  -10.8374   23.2884  -20.1749 F   0  0  0  0  0  0  0  0  0  0  0  0
  -10.1102   19.9629  -16.6251 C   0  0  0  0  0  0  0  0  0  0  0  0
  -10.3714   19.1236  -15.8747 N   0  0  0  0  0  0  0  0  0  0  0  0
   -4.9698   26.8470  -25.2068 C   0  0  0  0  0  0  0  0  0  0  0  0
   -3.9685   24.9381  -26.5473 N   0  0  0  0  0  0  0  0  0  0  0  0
   -4.8572   26.0360  -26.4667 C   0  0  0  0  0  0  0  0  0  0  0  0
   -5.5784   26.3787  -27.4258 O   0  0  0  0  0  0  0  0  0  0  0  0
   -3.3788   24.6683  -25.7006 H   0  0  0  0  0  0  0  0  0  0  0  0
   -3.8542   24.1823  -27.7615 C   0  0  0  0  0  0  0  0  0  0  0  0
   -3.7278   22.6844  -27.5137 C   0  0  0  0  0  0  0  0  0  0  0  0
   -2.7627   22.3335  -25.2384 C   0  0  0  0  0  0  0  0  0  0  0  0
   -2.6013   22.4039  -26.5983 C   0  0  0  0  0  0  0  0  0  0  0  0
   -1.3092   22.2764  -27.1419 C   0  0  0  0  0  0  0  0  0  0  0  0
   -0.1945   22.0857  -26.3754 C   0  0  0  0  0  0  0  0  0  0  0  0
   -0.3543   22.0175  -25.0129 C   0  0  0  0  0  0  0  0  0  0  0  0
    1.0807   21.7741  -24.0373 Cl  0  0  0  0  0  0  0  0  0  0  0  0
   -1.6060   22.1389  -24.4691 C   0  0  0  0  0  0  0  0  0  0  0  0
   -3.9909   22.4350  -24.5996 O   0  0  0  0  0  0  0  0  0  0  0  0
   -4.6527   21.3499  -24.0273 C   0  0  0  0  0  0  0  0  0  0  0  0
   -4.3781   20.1478  -24.5866 F   0  0  0  0  0  0  0  0  0  0  0  0
   -4.3836   21.2810  -22.6569 F   0  0  0  0  0  0  0  0  0  0  0  0
   -6.0452   21.5570  -24.1046 F   0  0  0  0  0  0  0  0  0  0  0  0
 32 39  1  0  0  0
 39 40  1  0  0  0
 40 41  1  0  0  0
 40 42  1  0  0  0
 40 43  1  0  0  0
 32 33  2  0  0  0
 33 31  1  0  0  0
 31 30  1  0  0  0
 30 26  1  0  0  0
 26 27  1  0  0  0
 27 25  1  0  0  0
 25  1  1  0  0  0
  1  2  1  0  0  0
  2  3  2  0  0  0
  3  4  1  0  0  0
  4  5  2  0  0  0
  5  6  1  0  0  0
  6  7  2  0  0  0
  5  8  1  0  0  0
  8  9  1  0  0  0
  8 10  1  0  0  0
 10 13  1  0  0  0
 13 17  1  0  0  0
 17 18  1  0  0  0
 18 19  1  0  0  0
 19 23  1  0  0  0
 23 24  3  0  0  0
 19 20  2  0  0  0
 20 21  1  0  0  0
 21 22  1  0  0  0
 13 14  1  0  0  0
 10 11  1  0  0  0
 27 28  2  0  0  0
 33 34  1  0  0  0
 34 35  2  0  0  0
 35 36  1  0  0  0
 36 37  1  0  0  0
 36 38  2  0  0  0
 38 32  1  0  0  0
  6  1  1  0  0  0
 21 17  2  0  0  0
 11  4  1  0  0  0
 26 29  1  0  0  0
  9 12  1  0  0  0
 14 15  1  0  0  0
 14 16  1  0  0  0
M  END
> <minimizedAffinity>
-8.65176

> <CNNscore>
0.2273274362

> <CNNaffinity>
6.4627141953

> <CNN_VS>
1.4691522121

> <CNNaffinity_variance>
0.2802900672

$$$$
[H]O[C@@]1([H])c2c(nc([H])n(C([H])([H])C(=O)N([H])C([H])([H])C([H])([H])c3c([H])c([H])c(Cl)c([H])c3OC(F)(F)F)c2=O)O[C@@]1([H])[C@@]([H])(c1sc(C#N)c([H])c1F)N([H])[H]


 43 46  0  0  0  0  0  0  0  0999 V2000
   -7.4767   23.9451  -19.9409 N   0  0  0  0  0  0  0  0  0  0  0  0
   -6.7504   25.0945  -20.1103 C   0  0  0  0  0  0  0  0  0  0  0  0
   -5.9667   25.5781  -19.1399 N   0  0  0  0  0  0  0  0  0  0  0  0
   -5.8435   24.9570  -17.9235 C   0  0  0  0  0  0  0  0  0  0  0  0
   -6.5642   23.8132  -17.7502 C   0  0  0  0  0  0  0  0  0  0  0  0
   -7.3794   23.3139  -18.7674 C   0  0  0  0  0  0  0  0  0  0  0  0
   -8.0321   22.2366  -18.5511 O   0  0  0  0  0  0  0  0  0  0  0  0
   -6.3054   23.3049  -16.3615 C   0  0  0  0  0  0  0  0  0  0  0  0
   -7.5481   23.1400  -15.7401 O   0  0  0  0  0  0  0  0  0  0  0  0
   -5.4855   24.4170  -15.7605 C   0  0  0  0  0  0  0  0  0  0  0  0
   -5.1142   25.2613  -16.7973 O   0  0  0  0  0  0  0  0  0  0  0  0
   -8.0972   23.9204  -16.0290 H   0  0  0  0  0  0  0  0  0  0  0  0
   -6.2824   25.1339  -14.6857 C   0  0  0  0  0  0  0  0  0  0  0  0
   -5.8777   26.5287  -14.5889 N   0  0  0  0  0  0  0  0  0  0  0  0
   -6.7148   27.1561  -14.5280 H   0  0  0  0  0  0  0  0  0  0  0  0
   -5.2855   26.7811  -15.4151 H   0  0  0  0  0  0  0  0  0  0  0  0
   -5.9043   24.4865  -13.3753 C   0  0  0  0  0  0  0  0  0  0  0  0
   -4.6829   23.3456  -13.0397 S   0  0  0  0  0  0  0  0  0  0  0  0
   -4.9193   23.1771  -11.3594 C   0  0  0  0  0  0  0  0  0  0  0  0
   -5.9619   24.0311  -11.1091 C   0  0  0  0  0  0  0  0  0  0  0  0
   -6.4662   24.7036  -12.1495 C   0  0  0  0  0  0  0  0  0  0  0  0
   -7.5183   25.5920  -12.0205 F   0  0  0  0  0  0  0  0  0  0  0  0
   -4.2044   22.3390  -10.4005 C   0  0  0  0  0  0  0  0  0  0  0  0
   -3.6451   21.6625   -9.6487 N   0  0  0  0  0  0  0  0  0  0  0  0
   -8.3225   23.4652  -21.0157 C   0  0  0  0  0  0  0  0  0  0  0  0
   -6.7559   23.1451  -22.9872 N   0  0  0  0  0  0  0  0  0  0  0  0
   -7.5218   22.5881  -21.9362 C   0  0  0  0  0  0  0  0  0  0  0  0
   -7.5689   21.3584  -21.7280 O   0  0  0  0  0  0  0  0  0  0  0  0
   -6.7306   24.2025  -23.1238 H   0  0  0  0  0  0  0  0  0  0  0  0
   -6.0106   22.2972  -23.8727 C   0  0  0  0  0  0  0  0  0  0  0  0
   -5.8982   22.8689  -25.2805 C   0  0  0  0  0  0  0  0  0  0  0  0
   -4.1159   23.2987  -26.9748 C   0  0  0  0  0  0  0  0  0  0  0  0
   -4.5036   22.7850  -25.7639 C   0  0  0  0  0  0  0  0  0  0  0  0
   -3.5617   22.0904  -24.9818 C   0  0  0  0  0  0  0  0  0  0  0  0
   -2.2668   21.8978  -25.3724 C   0  0  0  0  0  0  0  0  0  0  0  0
   -1.8778   22.4096  -26.5861 C   0  0  0  0  0  0  0  0  0  0  0  0
   -0.2157   22.1569  -27.0799 Cl  0  0  0  0  0  0  0  0  0  0  0  0
   -2.7831   23.0890  -27.3582 C   0  0  0  0  0  0  0  0  0  0  0  0
   -4.9589   24.0089  -27.8186 O   0  0  0  0  0  0  0  0  0  0  0  0
   -4.9447   25.3983  -27.9294 C   0  0  0  0  0  0  0  0  0  0  0  0
   -4.2490   25.8847  -28.9842 F   0  0  0  0  0  0  0  0  0  0  0  0
   -6.2499   25.8975  -27.9818 F   0  0  0  0  0  0  0  0  0  0  0  0
   -4.3994   25.9560  -26.7549 F   0  0  0  0  0  0  0  0  0  0  0  0
 32 39  1  0  0  0
 39 40  1  0  0  0
 40 41  1  0  0  0
 40 42  1  0  0  0
 40 43  1  0  0  0
 32 33  2  0  0  0
 33 31  1  0  0  0
 31 30  1  0  0  0
 30 26  1  0  0  0
 26 27  1  0  0  0
 27 25  1  0  0  0
 25  1  1  0  0  0
  1  2  1  0  0  0
  2  3  2  0  0  0
  3  4  1  0  0  0
  4  5  2  0  0  0
  5  6  1  0  0  0
  6  7  2  0  0  0
  5  8  1  0  0  0
  8  9  1  0  0  0
  8 10  1  0  0  0
 10 13  1  0  0  0
 13 17  1  0  0  0
 17 18  1  0  0  0
 18 19  1  0  0  0
 19 23  1  0  0  0
 23 24  3  0  0  0
 19 20  2  0  0  0
 20 21  1  0  0  0
 21 22  1  0  0  0
 13 14  1  0  0  0
 10 11  1  0  0  0
 27 28  2  0  0  0
 33 34  1  0  0  0
 34 35  2  0  0  0
 35 36  1  0  0  0
 36 37  1  0  0  0
 36 38  2  0  0  0
 38 32  1  0  0  0
  6  1  1  0  0  0
 21 17  2  0  0  0
 11  4  1  0  0  0
 26 29  1  0  0  0
  9 12  1  0  0  0
 14 15  1  0  0  0
 14 16  1  0  0  0
M  END
> <minimizedAffinity>
-8.43450

> <CNNscore>
0.2020735294

> <CNNaffinity>
5.7862482071

> <CNN_VS>
1.1692476273

> <CNNaffinity_variance>
0.0263556503

$$$$
[H]O[C@@]1([H])c2c(nc([H])n(C([H])([H])C(=O)N([H])C([H])([H])C([H])([H])c3c([H])c([H])c(Cl)c([H])c3OC(F)(F)F)c2=O)O[C@@]1([H])[C@@]([H])(c1sc(C#N)c([H])c1F)N([H])[H]


 43 46  0  0  0  0  0  0  0  0999 V2000
   -1.4070   22.1643  -23.7388 N   0  0  0  0  0  0  0  0  0  0  0  0
   -0.8708   23.1214  -22.9180 C   0  0  0  0  0  0  0  0  0  0  0  0
   -1.5859   23.6852  -21.9379 N   0  0  0  0  0  0  0  0  0  0  0  0
   -2.8915   23.3421  -21.6968 C   0  0  0  0  0  0  0  0  0  0  0  0
   -3.4293   22.3904  -22.5108 C   0  0  0  0  0  0  0  0  0  0  0  0
   -2.6771   21.8057  -23.5310 C   0  0  0  0  0  0  0  0  0  0  0  0
   -3.2314   20.9173  -24.2638 O   0  0  0  0  0  0  0  0  0  0  0  0
   -4.8558   22.1738  -22.0958 C   0  0  0  0  0  0  0  0  0  0  0  0
   -5.6512   22.3446  -23.2343 O   0  0  0  0  0  0  0  0  0  0  0  0
   -5.0575   23.2539  -21.0649 C   0  0  0  0  0  0  0  0  0  0  0  0
   -3.8071   23.7766  -20.7663 O   0  0  0  0  0  0  0  0  0  0  0  0
   -5.2522   23.1146  -23.7262 H   0  0  0  0  0  0  0  0  0  0  0  0
   -6.0163   24.3072  -21.5897 C   0  0  0  0  0  0  0  0  0  0  0  0
   -5.6788   25.6202  -21.0602 N   0  0  0  0  0  0  0  0  0  0  0  0
   -5.7021   26.3444  -21.8172 H   0  0  0  0  0  0  0  0  0  0  0  0
   -4.7336   25.5855  -20.6102 H   0  0  0  0  0  0  0  0  0  0  0  0
   -7.3755   23.9576  -21.0332 C   0  0  0  0  0  0  0  0  0  0  0  0
   -7.7945   23.3258  -19.5063 S   0  0  0  0  0  0  0  0  0  0  0  0
   -9.4883   23.2593  -19.6926 C   0  0  0  0  0  0  0  0  0  0  0  0
   -9.6763   23.7403  -20.9623 C   0  0  0  0  0  0  0  0  0  0  0  0
   -8.5862   24.0989  -21.6493 C   0  0  0  0  0  0  0  0  0  0  0  0
   -8.6505   24.5968  -22.9380 F   0  0  0  0  0  0  0  0  0  0  0  0
  -10.5089   22.8068  -18.7511 C   0  0  0  0  0  0  0  0  0  0  0  0
  -11.3260   22.4442  -18.0184 N   0  0  0  0  0  0  0  0  0  0  0  0
   -0.5984   21.5901  -24.7959 C   0  0  0  0  0  0  0  0  0  0  0  0
   -1.8811   22.1404  -26.9161 N   0  0  0  0  0  0  0  0  0  0  0  0
   -0.7813   22.3820  -26.0596 C   0  0  0  0  0  0  0  0  0  0  0  0
    0.0779   23.2517  -26.3109 O   0  0  0  0  0  0  0  0  0  0  0  0
   -2.6018   21.3975  -26.6590 H   0  0  0  0  0  0  0  0  0  0  0  0
   -2.0357   22.8888  -28.1304 C   0  0  0  0  0  0  0  0  0  0  0  0
   -3.4882   22.9908  -28.5790 C   0  0  0  0  0  0  0  0  0  0  0  0
   -4.4985   25.2364  -28.1687 C   0  0  0  0  0  0  0  0  0  0  0  0
   -4.2221   23.9630  -27.7414 C   0  0  0  0  0  0  0  0  0  0  0  0
   -4.5844   23.5858  -26.4346 C   0  0  0  0  0  0  0  0  0  0  0  0
   -5.2026   24.4333  -25.5593 C   0  0  0  0  0  0  0  0  0  0  0  0
   -5.4777   25.7098  -25.9852 C   0  0  0  0  0  0  0  0  0  0  0  0
   -6.2695   26.7905  -24.8559 Cl  0  0  0  0  0  0  0  0  0  0  0  0
   -5.1320   26.0914  -27.2549 C   0  0  0  0  0  0  0  0  0  0  0  0
   -4.1955   25.7082  -29.4385 O   0  0  0  0  0  0  0  0  0  0  0  0
   -5.0649   25.6103  -30.5236 C   0  0  0  0  0  0  0  0  0  0  0  0
   -5.6416   24.3969  -30.6918 F   0  0  0  0  0  0  0  0  0  0  0  0
   -6.0702   26.5781  -30.4329 F   0  0  0  0  0  0  0  0  0  0  0  0
   -4.3719   25.9300  -31.7091 F   0  0  0  0  0  0  0  0  0  0  0  0
 32 39  1  0  0  0
 39 40  1  0  0  0
 40 41  1  0  0  0
 40 42  1  0  0  0
 40 43  1  0  0  0
 32 33  2  0  0  0
 33 31  1  0  0  0
 31 30  1  0  0  0
 30 26  1  0  0  0
 26 27  1  0  0  0
 27 25  1  0  0  0
 25  1  1  0  0  0
  1  2  1  0  0  0
  2  3  2  0  0  0
  3  4  1  0  0  0
  4  5  2  0  0  0
  5  6  1  0  0  0
  6  7  2  0  0  0
  5  8  1  0  0  0
  8  9  1  0  0  0
  8 10  1  0  0  0
 10 13  1  0  0  0
 13 17  1  0  0  0
 17 18  1  0  0  0
 18 19  1  0  0  0
 19 23  1  0  0  0
 23 24  3  0  0  0
 19 20  2  0  0  0
 20 21  1  0  0  0
 21 22  1  0  0  0
 13 14  1  0  0  0
 10 11  1  0  0  0
 27 28  2  0  0  0
 33 34  1  0  0  0
 34 35  2  0  0  0
 35 36  1  0  0  0
 36 37  1  0  0  0
 36 38  2  0  0  0
 38 32  1  0  0  0
  6  1  1  0  0  0
 21 17  2  0  0  0
 11  4  1  0  0  0
 26 29  1  0  0  0
  9 12  1  0  0  0
 14 15  1  0  0  0
 14 16  1  0  0  0
M  END
> <minimizedAffinity>
-9.08380

> <CNNscore>
0.1672548354

> <CNNaffinity>
7.0333871841

> <CNN_VS>
1.1763679981

> <CNNaffinity_variance>
0.1488167346

$$$$
[H]O[C@@]1([H])c2c(nc([H])n(C([H])([H])C(=O)N([H])C([H])([H])C([H])([H])c3c([H])c([H])c(Cl)c([H])c3OC(F)(F)F)c2=O)O[C@@]1([H])[C@@]([H])(c1sc(C#N)c([H])c1F)N([H])[H]


 43 46  0  0  0  0  0  0  0  0999 V2000
   -7.8868   24.4146  -21.4906 N   0  0  0  0  0  0  0  0  0  0  0  0
   -7.6039   23.1184  -21.8328 C   0  0  0  0  0  0  0  0  0  0  0  0
   -7.0140   22.2793  -20.9740 N   0  0  0  0  0  0  0  0  0  0  0  0
   -6.6582   22.6629  -19.7065 C   0  0  0  0  0  0  0  0  0  0  0  0
   -6.9375   23.9515  -19.3614 C   0  0  0  0  0  0  0  0  0  0  0  0
   -7.5539   24.8215  -20.2623 C   0  0  0  0  0  0  0  0  0  0  0  0
   -7.7937   26.0190  -19.8854 O   0  0  0  0  0  0  0  0  0  0  0  0
   -6.4586   24.1721  -17.9556 C   0  0  0  0  0  0  0  0  0  0  0  0
   -5.6116   25.2856  -17.9741 O   0  0  0  0  0  0  0  0  0  0  0  0
   -5.7369   22.8837  -17.6569 C   0  0  0  0  0  0  0  0  0  0  0  0
   -6.0537   21.9898  -18.6699 O   0  0  0  0  0  0  0  0  0  0  0  0
   -5.0773   25.2013  -18.8116 H   0  0  0  0  0  0  0  0  0  0  0  0
   -4.2433   23.1324  -17.5488 C   0  0  0  0  0  0  0  0  0  0  0  0
   -3.5848   22.8725  -18.8205 N   0  0  0  0  0  0  0  0  0  0  0  0
   -2.9035   23.6349  -19.0498 H   0  0  0  0  0  0  0  0  0  0  0  0
   -4.3040   22.7793  -19.5762 H   0  0  0  0  0  0  0  0  0  0  0  0
   -3.7128   22.1081  -16.5748 C   0  0  0  0  0  0  0  0  0  0  0  0
   -2.9731   20.6023  -16.8773 S   0  0  0  0  0  0  0  0  0  0  0  0
   -2.6665   20.1198  -15.2707 C   0  0  0  0  0  0  0  0  0  0  0  0
   -3.1597   21.1670  -14.5365 C   0  0  0  0  0  0  0  0  0  0  0  0
   -3.6975   22.1888  -15.2114 C   0  0  0  0  0  0  0  0  0  0  0  0
   -4.2273   23.2995  -14.5802 F   0  0  0  0  0  0  0  0  0  0  0  0
   -2.0371   18.9001  -14.7715 C   0  0  0  0  0  0  0  0  0  0  0  0
   -1.5279   17.9439  -14.3688 N   0  0  0  0  0  0  0  0  0  0  0  0
   -8.5154   25.2919  -22.4581 C   0  0  0  0  0  0  0  0  0  0  0  0
   -7.7019   24.6312  -24.7701 N   0  0  0  0  0  0  0  0  0  0  0  0
   -7.6057   25.4764  -23.6396 C   0  0  0  0  0  0  0  0  0  0  0  0
   -6.7709   26.4017  -23.5710 O   0  0  0  0  0  0  0  0  0  0  0  0
   -8.4383   23.8601  -24.7960 H   0  0  0  0  0  0  0  0  0  0  0  0
   -6.8153   24.8034  -25.8848 C   0  0  0  0  0  0  0  0  0  0  0  0
   -6.5835   23.5116  -26.6586 C   0  0  0  0  0  0  0  0  0  0  0  0
   -4.3168   22.8984  -25.8112 C   0  0  0  0  0  0  0  0  0  0  0  0
   -5.1366   23.2720  -26.8450 C   0  0  0  0  0  0  0  0  0  0  0  0
   -4.5745   23.5059  -28.1142 C   0  0  0  0  0  0  0  0  0  0  0  0
   -3.2387   23.3804  -28.3714 C   0  0  0  0  0  0  0  0  0  0  0  0
   -2.4161   23.0087  -27.3363 C   0  0  0  0  0  0  0  0  0  0  0  0
   -0.7041   22.8513  -27.6747 Cl  0  0  0  0  0  0  0  0  0  0  0  0
   -2.9486   22.7765  -26.0954 C   0  0  0  0  0  0  0  0  0  0  0  0
   -4.7670   22.6324  -24.5253 O   0  0  0  0  0  0  0  0  0  0  0  0
   -4.9670   21.3445  -24.0311 C   0  0  0  0  0  0  0  0  0  0  0  0
   -4.2909   20.3673  -24.6800 F   0  0  0  0  0  0  0  0  0  0  0  0
   -4.6457   21.2878  -22.6713 F   0  0  0  0  0  0  0  0  0  0  0  0
   -6.3406   21.0309  -24.0836 F   0  0  0  0  0  0  0  0  0  0  0  0
 32 39  1  0  0  0
 39 40  1  0  0  0
 40 41  1  0  0  0
 40 42  1  0  0  0
 40 43  1  0  0  0
 32 33  2  0  0  0
 33 31  1  0  0  0
 31 30  1  0  0  0
 30 26  1  0  0  0
 26 27  1  0  0  0
 27 25  1  0  0  0
 25  1  1  0  0  0
  1  2  1  0  0  0
  2  3  2  0  0  0
  3  4  1  0  0  0
  4  5  2  0  0  0
  5  6  1  0  0  0
  6  7  2  0  0  0
  5  8  1  0  0  0
  8  9  1  0  0  0
  8 10  1  0  0  0
 10 13  1  0  0  0
 13 17  1  0  0  0
 17 18  1  0  0  0
 18 19  1  0  0  0
 19 23  1  0  0  0
 23 24  3  0  0  0
 19 20  2  0  0  0
 20 21  1  0  0  0
 21 22  1  0  0  0
 13 14  1  0  0  0
 10 11  1  0  0  0
 27 28  2  0  0  0
 33 34  1  0  0  0
 34 35  2  0  0  0
 35 36  1  0  0  0
 36 37  1  0  0  0
 36 38  2  0  0  0
 38 32  1  0  0  0
  6  1  1  0  0  0
 21 17  2  0  0  0
 11  4  1  0  0  0
 26 29  1  0  0  0
  9 12  1  0  0  0
 14 15  1  0  0  0
 14 16  1  0  0  0
M  END
> <minimizedAffinity>
-7.81296

> <CNNscore>
0.1620151848

> <CNNaffinity>
5.9432582855

> <CNN_VS>
0.9628980756

> <CNNaffinity_variance>
0.3292389810

$$$$
[H]O[C@@]1([H])c2c(nc([H])n(C([H])([H])C(=O)N([H])C([H])([H])C([H])([H])c3c([H])c([H])c(Cl)c([H])c3OC(F)(F)F)c2=O)O[C@@]1([H])[C@@]([H])(c1sc(C#N)c([H])c1F)N([H])[H]


 43 46  0  0  0  0  0  0  0  0999 V2000
   -1.7598   23.2713  -22.1744 N   0  0  0  0  0  0  0  0  0  0  0  0
   -1.2183   22.7222  -23.3069 C   0  0  0  0  0  0  0  0  0  0  0  0
   -0.2094   21.8456  -23.2477 N   0  0  0  0  0  0  0  0  0  0  0  0
    0.3413   21.4458  -22.0571 C   0  0  0  0  0  0  0  0  0  0  0  0
   -0.1941   21.9894  -20.9277 C   0  0  0  0  0  0  0  0  0  0  0  0
   -1.2472   22.9029  -20.9969 C   0  0  0  0  0  0  0  0  0  0  0  0
   -1.7118   23.3804  -19.9062 O   0  0  0  0  0  0  0  0  0  0  0  0
    0.5529   21.4405  -19.7467 C   0  0  0  0  0  0  0  0  0  0  0  0
    1.0103   22.5315  -18.9996 O   0  0  0  0  0  0  0  0  0  0  0  0
    1.6649   20.6641  -20.4032 C   0  0  0  0  0  0  0  0  0  0  0  0
    1.3627   20.5751  -21.7546 O   0  0  0  0  0  0  0  0  0  0  0  0
    1.3072   23.2083  -19.6688 H   0  0  0  0  0  0  0  0  0  0  0  0
    2.9987   21.3433  -20.1504 C   0  0  0  0  0  0  0  0  0  0  0  0
    3.7883   21.3978  -21.3719 N   0  0  0  0  0  0  0  0  0  0  0  0
    4.2154   22.3465  -21.4973 H   0  0  0  0  0  0  0  0  0  0  0  0
    3.1847   21.1525  -22.1920 H   0  0  0  0  0  0  0  0  0  0  0  0
    3.7527   20.4527  -19.1926 C   0  0  0  0  0  0  0  0  0  0  0  0
    3.4817   18.8198  -18.7851 S   0  0  0  0  0  0  0  0  0  0  0  0
    4.7664   18.5943  -17.6867 C   0  0  0  0  0  0  0  0  0  0  0  0
    5.3767   19.8217  -17.6724 C   0  0  0  0  0  0  0  0  0  0  0  0
    4.8520   20.7759  -18.4491 C   0  0  0  0  0  0  0  0  0  0  0  0
    5.3801   22.0523  -18.5173 F   0  0  0  0  0  0  0  0  0  0  0  0
    5.1460   17.4019  -16.9338 C   0  0  0  0  0  0  0  0  0  0  0  0
    5.4324   16.4511  -16.3424 N   0  0  0  0  0  0  0  0  0  0  0  0
   -2.8438   24.2268  -22.2874 C   0  0  0  0  0  0  0  0  0  0  0  0
   -4.5557   24.0163  -24.1498 N   0  0  0  0  0  0  0  0  0  0  0  0
   -4.0388   23.5646  -22.9128 C   0  0  0  0  0  0  0  0  0  0  0  0
   -4.5452   22.6086  -22.2904 O   0  0  0  0  0  0  0  0  0  0  0  0
   -4.0858   24.8280  -24.6576 H   0  0  0  0  0  0  0  0  0  0  0  0
   -5.7092   23.3895  -24.7287 C   0  0  0  0  0  0  0  0  0  0  0  0
   -5.6101   23.2570  -26.2433 C   0  0  0  0  0  0  0  0  0  0  0  0
   -3.6303   23.9560  -27.5936 C   0  0  0  0  0  0  0  0  0  0  0  0
   -4.1979   23.1266  -26.6607 C   0  0  0  0  0  0  0  0  0  0  0  0
   -3.4354   22.0684  -26.1312 C   0  0  0  0  0  0  0  0  0  0  0  0
   -2.1448   21.8212  -26.5047 C   0  0  0  0  0  0  0  0  0  0  0  0
   -1.5758   22.6495  -27.4409 C   0  0  0  0  0  0  0  0  0  0  0  0
    0.0794   22.3245  -27.9151 Cl  0  0  0  0  0  0  0  0  0  0  0  0
   -2.3051   23.6845  -27.9647 C   0  0  0  0  0  0  0  0  0  0  0  0
   -4.2871   25.0341  -28.1707 O   0  0  0  0  0  0  0  0  0  0  0  0
   -4.5848   25.1160  -29.5299 C   0  0  0  0  0  0  0  0  0  0  0  0
   -3.6011   25.6306  -30.3049 F   0  0  0  0  0  0  0  0  0  0  0  0
   -4.9401   23.8589  -30.0288 F   0  0  0  0  0  0  0  0  0  0  0  0
   -5.7381   25.9070  -29.7097 F   0  0  0  0  0  0  0  0  0  0  0  0
 32 39  1  0  0  0
 39 40  1  0  0  0
 40 41  1  0  0  0
 40 42  1  0  0  0
 40 43  1  0  0  0
 32 33  2  0  0  0
 33 31  1  0  0  0
 31 30  1  0  0  0
 30 26  1  0  0  0
 26 27  1  0  0  0
 27 25  1  0  0  0
 25  1  1  0  0  0
  1  2  1  0  0  0
  2  3  2  0  0  0
  3  4  1  0  0  0
  4  5  2  0  0  0
  5  6  1  0  0  0
  6  7  2  0  0  0
  5  8  1  0  0  0
  8  9  1  0  0  0
  8 10  1  0  0  0
 10 13  1  0  0  0
 13 17  1  0  0  0
 17 18  1  0  0  0
 18 19  1  0  0  0
 19 23  1  0  0  0
 23 24  3  0  0  0
 19 20  2  0  0  0
 20 21  1  0  0  0
 21 22  1  0  0  0
 13 14  1  0  0  0
 10 11  1  0  0  0
 27 28  2  0  0  0
 33 34  1  0  0  0
 34 35  2  0  0  0
 35 36  1  0  0  0
 36 37  1  0  0  0
 36 38  2  0  0  0
 38 32  1  0  0  0
  6  1  1  0  0  0
 21 17  2  0  0  0
 11  4  1  0  0  0
 26 29  1  0  0  0
  9 12  1  0  0  0
 14 15  1  0  0  0
 14 16  1  0  0  0
M  END
> <minimizedAffinity>
-7.66944

> <CNNscore>
0.1461148411

> <CNNaffinity>
6.5719680786

> <CNN_VS>
0.9602620602

> <CNNaffinity_variance>
0.0807247311

$$$$
[H]O[C@@]1([H])c2c(nc([H])n(C([H])([H])C(=O)N([H])C([H])([H])C([H])([H])c3c([H])c([H])c(Cl)c([H])c3OC(F)(F)F)c2=O)O[C@@]1([H])[C@@]([H])(c1sc(C#N)c([H])c1F)N([H])[H]


 43 46  0  0  0  0  0  0  0  0999 V2000
   -0.6680   21.4101  -21.3852 N   0  0  0  0  0  0  0  0  0  0  0  0
   -1.5674   22.0428  -20.5678 C   0  0  0  0  0  0  0  0  0  0  0  0
   -1.1982   22.5716  -19.3956 N   0  0  0  0  0  0  0  0  0  0  0  0
    0.0950   22.5125  -18.9432 C   0  0  0  0  0  0  0  0  0  0  0  0
    0.9933   21.8841  -19.7529 C   0  0  0  0  0  0  0  0  0  0  0  0
    0.6013   21.3353  -20.9750 C   0  0  0  0  0  0  0  0  0  0  0  0
    1.4856   20.7583  -21.6951 O   0  0  0  0  0  0  0  0  0  0  0  0
    2.3324   21.9129  -19.0745 C   0  0  0  0  0  0  0  0  0  0  0  0
    2.7948   20.5939  -19.0097 O   0  0  0  0  0  0  0  0  0  0  0  0
    1.9954   22.4895  -17.7240 C   0  0  0  0  0  0  0  0  0  0  0  0
    0.6973   22.9748  -17.7958 O   0  0  0  0  0  0  0  0  0  0  0  0
    1.9946   20.0403  -18.7924 H   0  0  0  0  0  0  0  0  0  0  0  0
    2.1609   21.4329  -16.6467 C   0  0  0  0  0  0  0  0  0  0  0  0
    1.0237   20.5246  -16.6374 N   0  0  0  0  0  0  0  0  0  0  0  0
    1.3428   19.5290  -16.5653 H   0  0  0  0  0  0  0  0  0  0  0  0
    0.4520   20.6681  -17.5032 H   0  0  0  0  0  0  0  0  0  0  0  0
    2.1343   22.1657  -15.3271 C   0  0  0  0  0  0  0  0  0  0  0  0
    1.0537   22.0076  -14.0181 S   0  0  0  0  0  0  0  0  0  0  0  0
    1.7394   23.1524  -12.9565 C   0  0  0  0  0  0  0  0  0  0  0  0
    2.8083   23.6302  -13.6695 C   0  0  0  0  0  0  0  0  0  0  0  0
    3.0084   23.1197  -14.8895 C   0  0  0  0  0  0  0  0  0  0  0  0
    4.0524   23.5234  -15.7017 F   0  0  0  0  0  0  0  0  0  0  0  0
    1.3149   23.5466  -11.6159 C   0  0  0  0  0  0  0  0  0  0  0  0
    0.9785   23.8742  -10.5598 N   0  0  0  0  0  0  0  0  0  0  0  0
   -1.1157   20.8410  -22.6408 C   0  0  0  0  0  0  0  0  0  0  0  0
   -1.4648   21.5910  -25.0406 N   0  0  0  0  0  0  0  0  0  0  0  0
   -1.1205   21.9025  -23.7042 C   0  0  0  0  0  0  0  0  0  0  0  0
   -0.8073   23.0578  -23.3508 O   0  0  0  0  0  0  0  0  0  0  0  0
   -1.7402   20.5938  -25.2999 H   0  0  0  0  0  0  0  0  0  0  0  0
   -1.4471   22.6081  -26.0524 C   0  0  0  0  0  0  0  0  0  0  0  0
   -2.6929   22.5889  -26.9293 C   0  0  0  0  0  0  0  0  0  0  0  0
   -4.1700   24.4381  -27.7232 C   0  0  0  0  0  0  0  0  0  0  0  0
   -3.5023   23.8056  -26.7061 C   0  0  0  0  0  0  0  0  0  0  0  0
   -3.5267   24.3696  -25.4166 C   0  0  0  0  0  0  0  0  0  0  0  0
   -4.1873   25.5289  -25.1234 C   0  0  0  0  0  0  0  0  0  0  0  0
   -4.8543   26.1648  -26.1418 C   0  0  0  0  0  0  0  0  0  0  0  0
   -5.6978   27.6518  -25.7573 Cl  0  0  0  0  0  0  0  0  0  0  0  0
   -4.8406   25.6275  -27.4021 C   0  0  0  0  0  0  0  0  0  0  0  0
   -4.2204   23.9638  -29.0268 O   0  0  0  0  0  0  0  0  0  0  0  0
   -5.3674   23.4224  -29.6050 C   0  0  0  0  0  0  0  0  0  0  0  0
   -6.0647   24.2673  -30.4007 F   0  0  0  0  0  0  0  0  0  0  0  0
   -5.0503   22.2736  -30.3363 F   0  0  0  0  0  0  0  0  0  0  0  0
   -6.2336   22.9678  -28.5896 F   0  0  0  0  0  0  0  0  0  0  0  0
 32 39  1  0  0  0
 39 40  1  0  0  0
 40 41  1  0  0  0
 40 42  1  0  0  0
 40 43  1  0  0  0
 32 33  2  0  0  0
 33 31  1  0  0  0
 31 30  1  0  0  0
 30 26  1  0  0  0
 26 27  1  0  0  0
 27 25  1  0  0  0
 25  1  1  0  0  0
  1  2  1  0  0  0
  2  3  2  0  0  0
  3  4  1  0  0  0
  4  5  2  0  0  0
  5  6  1  0  0  0
  6  7  2  0  0  0
  5  8  1  0  0  0
  8  9  1  0  0  0
  8 10  1  0  0  0
 10 13  1  0  0  0
 13 17  1  0  0  0
 17 18  1  0  0  0
 18 19  1  0  0  0
 19 23  1  0  0  0
 23 24  3  0  0  0
 19 20  2  0  0  0
 20 21  1  0  0  0
 21 22  1  0  0  0
 13 14  1  0  0  0
 10 11  1  0  0  0
 27 28  2  0  0  0
 33 34  1  0  0  0
 34 35  2  0  0  0
 35 36  1  0  0  0
 36 37  1  0  0  0
 36 38  2  0  0  0
 38 32  1  0  0  0
  6  1  1  0  0  0
 21 17  2  0  0  0
 11  4  1  0  0  0
 26 29  1  0  0  0
  9 12  1  0  0  0
 14 15  1  0  0  0
 14 16  1  0  0  0
M  END
> <minimizedAffinity>
-7.52975

> <CNNscore>
0.1383567750

> <CNNaffinity>
5.9003090858

> <CNN_VS>
0.8163477182

> <CNNaffinity_variance>
0.0542776883

$$$$
[H]O[C@@]1([H])c2c(nc([H])n(C([H])([H])C(=O)N([H])C([H])([H])C([H])([H])c3c([H])c([H])c(Cl)c([H])c3OC(F)(F)F)c2=O)O[C@@]1([H])[C@@]([H])(c1sc(C#N)c([H])c1F)N([H])[H]


 43 46  0  0  0  0  0  0  0  0999 V2000
   -7.0718   24.5739  -20.9273 N   0  0  0  0  0  0  0  0  0  0  0  0
   -6.6452   25.2801  -19.8334 C   0  0  0  0  0  0  0  0  0  0  0  0
   -6.7327   24.7774  -18.5966 N   0  0  0  0  0  0  0  0  0  0  0  0
   -7.2519   23.5325  -18.3497 C   0  0  0  0  0  0  0  0  0  0  0  0
   -7.6776   22.8261  -19.4348 C   0  0  0  0  0  0  0  0  0  0  0  0
   -7.5826   23.3565  -20.7226 C   0  0  0  0  0  0  0  0  0  0  0  0
   -7.9960   22.6499  -21.7041 O   0  0  0  0  0  0  0  0  0  0  0  0
   -8.2205   21.5122  -18.9522 C   0  0  0  0  0  0  0  0  0  0  0  0
   -9.5184   21.3864  -19.4596 O   0  0  0  0  0  0  0  0  0  0  0  0
   -8.1833   21.6801  -17.4554 C   0  0  0  0  0  0  0  0  0  0  0  0
   -7.4393   22.8205  -17.1874 O   0  0  0  0  0  0  0  0  0  0  0  0
   -9.9226   22.2950  -19.3884 H   0  0  0  0  0  0  0  0  0  0  0  0
   -9.5943   21.7647  -16.9021 C   0  0  0  0  0  0  0  0  0  0  0  0
   -9.6363   22.6244  -15.7283 N   0  0  0  0  0  0  0  0  0  0  0  0
  -10.4534   23.2789  -15.7750 H   0  0  0  0  0  0  0  0  0  0  0  0
   -8.7385   23.1582  -15.6512 H   0  0  0  0  0  0  0  0  0  0  0  0
   -9.9474   20.3755  -16.4281 C   0  0  0  0  0  0  0  0  0  0  0  0
   -9.1404   19.3703  -15.3126 S   0  0  0  0  0  0  0  0  0  0  0  0
  -10.1947   18.0303  -15.3383 C   0  0  0  0  0  0  0  0  0  0  0  0
  -11.1597   18.4164  -16.2321 C   0  0  0  0  0  0  0  0  0  0  0  0
  -11.0290   19.6245  -16.7910 C   0  0  0  0  0  0  0  0  0  0  0  0
  -11.9385   20.1220  -17.7064 F   0  0  0  0  0  0  0  0  0  0  0  0
  -10.1146   16.7715  -14.6022 C   0  0  0  0  0  0  0  0  0  0  0  0
  -10.0351   15.7774  -14.0181 N   0  0  0  0  0  0  0  0  0  0  0  0
   -6.9691   25.1636  -22.2473 C   0  0  0  0  0  0  0  0  0  0  0  0
   -6.5812   23.5190  -24.1416 N   0  0  0  0  0  0  0  0  0  0  0  0
   -6.0606   24.3289  -23.1050 C   0  0  0  0  0  0  0  0  0  0  0  0
   -4.8388   24.3862  -22.8566 O   0  0  0  0  0  0  0  0  0  0  0  0
   -7.6306   23.5081  -24.3314 H   0  0  0  0  0  0  0  0  0  0  0  0
   -5.7068   22.7106  -24.9419 C   0  0  0  0  0  0  0  0  0  0  0  0
   -5.3935   23.3412  -26.2931 C   0  0  0  0  0  0  0  0  0  0  0  0
   -3.4940   23.3331  -27.9129 C   0  0  0  0  0  0  0  0  0  0  0  0
   -3.9714   23.1381  -26.6422 C   0  0  0  0  0  0  0  0  0  0  0  0
   -3.0969   22.6598  -25.6483 C   0  0  0  0  0  0  0  0  0  0  0  0
   -1.7824   22.3747  -25.8877 C   0  0  0  0  0  0  0  0  0  0  0  0
   -1.3036   22.5671  -27.1605 C   0  0  0  0  0  0  0  0  0  0  0  0
    0.3831   22.1978  -27.4590 Cl  0  0  0  0  0  0  0  0  0  0  0  0
   -2.1425   23.0332  -28.1385 C   0  0  0  0  0  0  0  0  0  0  0  0
   -4.2654   23.8109  -28.9633 O   0  0  0  0  0  0  0  0  0  0  0  0
   -4.3839   25.1636  -29.2780 C   0  0  0  0  0  0  0  0  0  0  0  0
   -5.5177   25.5050  -29.9345 F   0  0  0  0  0  0  0  0  0  0  0  0
   -4.2797   25.9448  -28.1228 F   0  0  0  0  0  0  0  0  0  0  0  0
   -3.2870   25.5574  -30.0716 F   0  0  0  0  0  0  0  0  0  0  0  0
 32 39  1  0  0  0
 39 40  1  0  0  0
 40 41  1  0  0  0
 40 42  1  0  0  0
 40 43  1  0  0  0
 32 33  2  0  0  0
 33 31  1  0  0  0
 31 30  1  0  0  0
 30 26  1  0  0  0
 26 27  1  0  0  0
 27 25  1  0  0  0
 25  1  1  0  0  0
  1  2  1  0  0  0
  2  3  2  0  0  0
  3  4  1  0  0  0
  4  5  2  0  0  0
  5  6  1  0  0  0
  6  7  2  0  0  0
  5  8  1  0  0  0
  8  9  1  0  0  0
  8 10  1  0  0  0
 10 13  1  0  0  0
 13 17  1  0  0  0
 17 18  1  0  0  0
 18 19  1  0  0  0
 19 23  1  0  0  0
 23 24  3  0  0  0
 19 20  2  0  0  0
 20 21  1  0  0  0
 21 22  1  0  0  0
 13 14  1  0  0  0
 10 11  1  0  0  0
 27 28  2  0  0  0
 33 34  1  0  0  0
 34 35  2  0  0  0
 35 36  1  0  0  0
 36 37  1  0  0  0
 36 38  2  0  0  0
 38 32  1  0  0  0
  6  1  1  0  0  0
 21 17  2  0  0  0
 11  4  1  0  0  0
 26 29  1  0  0  0
  9 12  1  0  0  0
 14 15  1  0  0  0
 14 16  1  0  0  0
M  END
> <minimizedAffinity>
-8.27061

> <CNNscore>
0.1364573836

> <CNNaffinity>
6.0089588165

> <CNN_VS>
0.8199667931

> <CNNaffinity_variance>
0.1569405943

$$$$
[H]O[C@@]1([H])c2c(nc([H])n(C([H])([H])C(=O)N([H])C([H])([H])C([H])([H])c3c([H])c([H])c(Cl)c([H])c3OC(F)(F)F)c2=O)O[C@@]1([H])[C@@]([H])(c1sc(C#N)c([H])c1F)N([H])[H]


 43 46  0  0  0  0  0  0  0  0999 V2000
   -5.6655   25.7687  -24.3237 N   0  0  0  0  0  0  0  0  0  0  0  0
   -4.4059   25.8216  -23.7873 C   0  0  0  0  0  0  0  0  0  0  0  0
   -4.1119   25.2228  -22.6276 N   0  0  0  0  0  0  0  0  0  0  0  0
   -5.0478   24.5241  -21.9091 C   0  0  0  0  0  0  0  0  0  0  0  0
   -6.3025   24.4687  -22.4387 C   0  0  0  0  0  0  0  0  0  0  0  0
   -6.6020   25.0952  -23.6496 C   0  0  0  0  0  0  0  0  0  0  0  0
   -7.7947   25.0100  -24.1006 O   0  0  0  0  0  0  0  0  0  0  0  0
   -7.1702   23.6807  -21.5005 C   0  0  0  0  0  0  0  0  0  0  0  0
   -8.2830   24.4731  -21.1979 O   0  0  0  0  0  0  0  0  0  0  0  0
   -6.2567   23.4674  -20.3215 C   0  0  0  0  0  0  0  0  0  0  0  0
   -4.9800   23.8402  -20.7172 O   0  0  0  0  0  0  0  0  0  0  0  0
   -7.9312   25.4004  -21.0957 H   0  0  0  0  0  0  0  0  0  0  0  0
   -6.7491   24.2629  -19.1261 C   0  0  0  0  0  0  0  0  0  0  0  0
   -6.2041   25.6123  -19.1459 N   0  0  0  0  0  0  0  0  0  0  0  0
   -6.9490   26.3180  -18.9332 H   0  0  0  0  0  0  0  0  0  0  0  0
   -5.7700   25.8025  -20.0800 H   0  0  0  0  0  0  0  0  0  0  0  0
   -6.1764   23.5878  -17.9032 C   0  0  0  0  0  0  0  0  0  0  0  0
   -4.9581   24.1224  -16.8374 S   0  0  0  0  0  0  0  0  0  0  0  0
   -4.9471   22.8074  -15.7518 C   0  0  0  0  0  0  0  0  0  0  0  0
   -5.9109   21.9784  -16.2644 C   0  0  0  0  0  0  0  0  0  0  0  0
   -6.5418   22.3837  -17.3720 C   0  0  0  0  0  0  0  0  0  0  0  0
   -7.5310   21.6328  -17.9806 F   0  0  0  0  0  0  0  0  0  0  0  0
   -4.1259   22.5911  -14.5636 C   0  0  0  0  0  0  0  0  0  0  0  0
   -3.4811   22.4044  -13.6227 N   0  0  0  0  0  0  0  0  0  0  0  0
   -5.9413   26.4433  -25.5766 C   0  0  0  0  0  0  0  0  0  0  0  0
   -4.3308   25.2696  -27.1490 N   0  0  0  0  0  0  0  0  0  0  0  0
   -5.6576   25.5153  -26.7238 C   0  0  0  0  0  0  0  0  0  0  0  0
   -6.6416   24.9812  -27.2753 O   0  0  0  0  0  0  0  0  0  0  0  0
   -3.5157   25.7348  -26.6425 H   0  0  0  0  0  0  0  0  0  0  0  0
   -4.0721   24.3971  -28.2581 C   0  0  0  0  0  0  0  0  0  0  0  0
   -4.0636   22.9261  -27.8614 C   0  0  0  0  0  0  0  0  0  0  0  0
   -3.0824   22.5154  -25.6030 C   0  0  0  0  0  0  0  0  0  0  0  0
   -2.9276   22.6392  -26.9599 C   0  0  0  0  0  0  0  0  0  0  0  0
   -1.6347   22.5623  -27.5111 C   0  0  0  0  0  0  0  0  0  0  0  0
   -0.5131   22.3704  -26.7551 C   0  0  0  0  0  0  0  0  0  0  0  0
   -0.6665   22.2487  -25.3956 C   0  0  0  0  0  0  0  0  0  0  0  0
    0.7773   22.0040  -24.4333 Cl  0  0  0  0  0  0  0  0  0  0  0  0
   -1.9188   22.3204  -24.8444 C   0  0  0  0  0  0  0  0  0  0  0  0
   -4.3104   22.5643  -24.9577 O   0  0  0  0  0  0  0  0  0  0  0  0
   -4.8514   21.4919  -24.2504 C   0  0  0  0  0  0  0  0  0  0  0  0
   -4.4757   20.2664  -24.6865 F   0  0  0  0  0  0  0  0  0  0  0  0
   -4.5450   21.5994  -22.8903 F   0  0  0  0  0  0  0  0  0  0  0  0
   -6.2587   21.5589  -24.3026 F   0  0  0  0  0  0  0  0  0  0  0  0
 32 39  1  0  0  0
 39 40  1  0  0  0
 40 41  1  0  0  0
 40 42  1  0  0  0
 40 43  1  0  0  0
 32 33  2  0  0  0
 33 31  1  0  0  0
 31 30  1  0  0  0
 30 26  1  0  0  0
 26 27  1  0  0  0
 27 25  1  0  0  0
 25  1  1  0  0  0
  1  2  1  0  0  0
  2  3  2  0  0  0
  3  4  1  0  0  0
  4  5  2  0  0  0
  5  6  1  0  0  0
  6  7  2  0  0  0
  5  8  1  0  0  0
  8  9  1  0  0  0
  8 10  1  0  0  0
 10 13  1  0  0  0
 13 17  1  0  0  0
 17 18  1  0  0  0
 18 19  1  0  0  0
 19 23  1  0  0  0
 23 24  3  0  0  0
 19 20  2  0  0  0
 20 21  1  0  0  0
 21 22  1  0  0  0
 13 14  1  0  0  0
 10 11  1  0  0  0
 27 28  2  0  0  0
 33 34  1  0  0  0
 34 35  2  0  0  0
 35 36  1  0  0  0
 36 37  1  0  0  0
 36 38  2  0  0  0
 38 32  1  0  0  0
  6  1  1  0  0  0
 21 17  2  0  0  0
 11  4  1  0  0  0
 26 29  1  0  0  0
  9 12  1  0  0  0
 14 15  1  0  0  0
 14 16  1  0  0  0
M  END
> <minimizedAffinity>
-8.56737

> <CNNscore>
0.1350799203

> <CNNaffinity>
6.3527650833

> <CNN_VS>
0.8581309915

> <CNNaffinity_variance>
0.4053535461

$$$$
[H]O[C@@]1([H])c2c(nc([H])n(C([H])([H])C(=O)N([H])C([H])([H])C([H])([H])c3c([H])c([H])c(Cl)c([H])c3OC(F)(F)F)c2=O)O[C@@]1([H])[C@@]([H])(c1sc(C#N)c([H])c1F)N([H])[H]


 43 46  0  0  0  0  0  0  0  0999 V2000
   -6.7313   25.1118  -22.1752 N   0  0  0  0  0  0  0  0  0  0  0  0
   -6.0754   25.5171  -21.0426 C   0  0  0  0  0  0  0  0  0  0  0  0
   -5.8121   24.6677  -20.0430 N   0  0  0  0  0  0  0  0  0  0  0  0
   -6.1807   23.3477  -20.0905 C   0  0  0  0  0  0  0  0  0  0  0  0
   -6.8335   22.9399  -21.2153 C   0  0  0  0  0  0  0  0  0  0  0  0
   -7.1043   23.8314  -22.2547 C   0  0  0  0  0  0  0  0  0  0  0  0
   -7.7184   23.3947  -23.2870 O   0  0  0  0  0  0  0  0  0  0  0  0
   -7.1603   21.4826  -21.0622 C   0  0  0  0  0  0  0  0  0  0  0  0
   -8.5364   21.3401  -21.2716 O   0  0  0  0  0  0  0  0  0  0  0  0
   -6.7461   21.2087  -19.6397 C   0  0  0  0  0  0  0  0  0  0  0  0
   -6.0216   22.3087  -19.2029 O   0  0  0  0  0  0  0  0  0  0  0  0
   -8.9575   22.1264  -20.8261 H   0  0  0  0  0  0  0  0  0  0  0  0
   -7.9682   20.9403  -18.7803 C   0  0  0  0  0  0  0  0  0  0  0  0
   -8.0019   21.8414  -17.6377 N   0  0  0  0  0  0  0  0  0  0  0  0
   -8.9627   22.2379  -17.5044 H   0  0  0  0  0  0  0  0  0  0  0  0
   -7.3009   22.6077  -17.7735 H   0  0  0  0  0  0  0  0  0  0  0  0
   -7.7962   19.5480  -18.2225 C   0  0  0  0  0  0  0  0  0  0  0  0
   -6.4687   18.4855  -18.3434 S   0  0  0  0  0  0  0  0  0  0  0  0
   -7.0799   17.1784  -17.4346 C   0  0  0  0  0  0  0  0  0  0  0  0
   -8.3221   17.6201  -17.0593 C   0  0  0  0  0  0  0  0  0  0  0  0
   -8.6873   18.8406  -17.4667 C   0  0  0  0  0  0  0  0  0  0  0  0
   -9.9154   19.3928  -17.1511 F   0  0  0  0  0  0  0  0  0  0  0  0
   -6.4576   15.8955  -17.1188 C   0  0  0  0  0  0  0  0  0  0  0  0
   -5.9604   14.8788  -16.8843 N   0  0  0  0  0  0  0  0  0  0  0  0
   -7.0063   26.0701  -23.2273 C   0  0  0  0  0  0  0  0  0  0  0  0
   -6.7907   25.3415  -25.6494 N   0  0  0  0  0  0  0  0  0  0  0  0
   -6.1793   25.7428  -24.4383 C   0  0  0  0  0  0  0  0  0  0  0  0
   -4.9407   25.8411  -24.3202 O   0  0  0  0  0  0  0  0  0  0  0  0
   -7.8537   25.2831  -25.7142 H   0  0  0  0  0  0  0  0  0  0  0  0
   -5.9909   25.0123  -26.7940 C   0  0  0  0  0  0  0  0  0  0  0  0
   -5.8328   23.5097  -26.9902 C   0  0  0  0  0  0  0  0  0  0  0  0
   -3.7690   22.7087  -25.8366 C   0  0  0  0  0  0  0  0  0  0  0  0
   -4.4033   23.1329  -26.9759 C   0  0  0  0  0  0  0  0  0  0  0  0
   -3.6563   23.2848  -28.1592 C   0  0  0  0  0  0  0  0  0  0  0  0
   -2.3160   23.0303  -28.2313 C   0  0  0  0  0  0  0  0  0  0  0  0
   -1.6788   22.6078  -27.0903 C   0  0  0  0  0  0  0  0  0  0  0  0
    0.0404   22.2849  -27.1914 Cl  0  0  0  0  0  0  0  0  0  0  0  0
   -2.3928   22.4542  -25.9310 C   0  0  0  0  0  0  0  0  0  0  0  0
   -4.4109   22.5148  -24.6212 O   0  0  0  0  0  0  0  0  0  0  0  0
   -4.6968   21.2566  -24.0939 C   0  0  0  0  0  0  0  0  0  0  0  0
   -4.0703   20.2217  -24.7019 F   0  0  0  0  0  0  0  0  0  0  0  0
   -4.4025   21.2212  -22.7274 F   0  0  0  0  0  0  0  0  0  0  0  0
   -6.0858   21.0246  -24.1630 F   0  0  0  0  0  0  0  0  0  0  0  0
 32 39  1  0  0  0
 39 40  1  0  0  0
 40 41  1  0  0  0
 40 42  1  0  0  0
 40 43  1  0  0  0
 32 33  2  0  0  0
 33 31  1  0  0  0
 31 30  1  0  0  0
 30 26  1  0  0  0
 26 27  1  0  0  0
 27 25  1  0  0  0
 25  1  1  0  0  0
  1  2  1  0  0  0
  2  3  2  0  0  0
  3  4  1  0  0  0
  4  5  2  0  0  0
  5  6  1  0  0  0
  6  7  2  0  0  0
  5  8  1  0  0  0
  8  9  1  0  0  0
  8 10  1  0  0  0
 10 13  1  0  0  0
 13 17  1  0  0  0
 17 18  1  0  0  0
 18 19  1  0  0  0
 19 23  1  0  0  0
 23 24  3  0  0  0
 19 20  2  0  0  0
 20 21  1  0  0  0
 21 22  1  0  0  0
 13 14  1  0  0  0
 10 11  1  0  0  0
 27 28  2  0  0  0
 33 34  1  0  0  0
 34 35  2  0  0  0
 35 36  1  0  0  0
 36 37  1  0  0  0
 36 38  2  0  0  0
 38 32  1  0  0  0
  6  1  1  0  0  0
 21 17  2  0  0  0
 11  4  1  0  0  0
 26 29  1  0  0  0
  9 12  1  0  0  0
 14 15  1  0  0  0
 14 16  1  0  0  0
M  END
> <minimizedAffinity>
-7.55152

> <CNNscore>
0.1321683079

> <CNNaffinity>
6.0474863052

> <CNN_VS>
0.7992860079

> <CNNaffinity_variance>
0.3031991124

$$$$
[H]c1nc2c([H])c([H])c([H])c([H])c2c(-c2c([H])nn3c([H])c(-c4c([H])c([H])c(N5C([H])([H])C([H])([H])N([H])C([H])([H])C5([H])[H])c([H])c4[H])c([H])nc23)c1[H]


 32 37  0  0  0  0  0  0  0  0999 V2000
    0.0604   21.8686  -24.7137 C   0  0  0  0  0  0  0  0  0  0  0  0
   -1.3119   21.9198  -24.5923 C   0  0  0  0  0  0  0  0  0  0  0  0
   -2.0611   22.3324  -25.6209 N   0  0  0  0  0  0  0  0  0  0  0  0
   -1.5162   22.7110  -26.8053 C   0  0  0  0  0  0  0  0  0  0  0  0
   -2.0826   23.1623  -27.9800 C   0  0  0  0  0  0  0  0  0  0  0  0
   -1.0291   23.3866  -28.8212 C   0  0  0  0  0  0  0  0  0  0  0  0
    0.1170   23.0725  -28.1510 N   0  0  0  0  0  0  0  0  0  0  0  0
   -0.1699   22.6655  -26.9379 N   0  0  0  0  0  0  0  0  0  0  0  0
    0.6153   22.2564  -25.9260 C   0  0  0  0  0  0  0  0  0  0  0  0
   -3.4862   23.3860  -28.2210 C   0  0  0  0  0  0  0  0  0  0  0  0
   -4.1563   22.6746  -29.2321 C   0  0  0  0  0  0  0  0  0  0  0  0
   -5.4761   22.8123  -29.4916 C   0  0  0  0  0  0  0  0  0  0  0  0
   -6.1840   23.6667  -28.7524 N   0  0  0  0  0  0  0  0  0  0  0  0
   -5.6292   24.3911  -27.7641 C   0  0  0  0  0  0  0  0  0  0  0  0
   -6.4432   25.2564  -27.0618 C   0  0  0  0  0  0  0  0  0  0  0  0
   -5.8670   26.0039  -26.0580 C   0  0  0  0  0  0  0  0  0  0  0  0
   -4.5239   25.8827  -25.7750 C   0  0  0  0  0  0  0  0  0  0  0  0
   -3.7132   25.0052  -26.4918 C   0  0  0  0  0  0  0  0  0  0  0  0
   -4.2621   24.2537  -27.4901 C   0  0  0  0  0  0  0  0  0  0  0  0
    2.4133   20.5459  -21.3857 C   0  0  0  0  0  0  0  0  0  0  0  0
    1.0723   20.7740  -21.2609 C   0  0  0  0  0  0  0  0  0  0  0  0
    0.3263   21.2064  -22.3517 C   0  0  0  0  0  0  0  0  0  0  0  0
    0.8767   21.4259  -23.5938 C   0  0  0  0  0  0  0  0  0  0  0  0
    2.2335   21.1905  -23.7023 C   0  0  0  0  0  0  0  0  0  0  0  0
    2.9829   20.7600  -22.6191 C   0  0  0  0  0  0  0  0  0  0  0  0
    4.3251   18.1375  -19.4133 C   0  0  0  0  0  0  0  0  0  0  0  0
    3.0120   18.8553  -19.6909 C   0  0  0  0  0  0  0  0  0  0  0  0
    3.2299   20.1184  -20.3254 N   0  0  0  0  0  0  0  0  0  0  0  0
    4.3130   20.9405  -19.8710 C   0  0  0  0  0  0  0  0  0  0  0  0
    5.5586   20.1072  -19.5727 C   0  0  0  0  0  0  0  0  0  0  0  0
    5.2029   19.0394  -18.6619 N   0  0  0  0  0  0  0  0  0  0  0  0
    4.6772   19.4458  -17.8721 H   0  0  0  0  0  0  0  0  0  0  0  0
 26 27  1  0  0  0
 27 28  1  0  0  0
 28 29  1  0  0  0
 29 30  1  0  0  0
 30 31  1  0  0  0
 28 20  1  0  0  0
 20 21  2  0  0  0
 21 22  1  0  0  0
 22 23  2  0  0  0
 23 24  1  0  0  0
 24 25  2  0  0  0
 23  1  1  0  0  0
  1  2  1  0  0  0
  2  3  2  0  0  0
  3  4  1  0  0  0
  4  5  2  0  0  0
  5  6  1  0  0  0
  6  7  2  0  0  0
  7  8  1  0  0  0
  8  9  1  0  0  0
  5 10  1  0  0  0
 10 11  2  0  0  0
 11 12  1  0  0  0
 12 13  2  0  0  0
 13 14  1  0  0  0
 14 15  2  0  0  0
 15 16  1  0  0  0
 16 17  2  0  0  0
 17 18  1  0  0  0
 18 19  2  0  0  0
 31 26  1  0  0  0
 25 20  1  0  0  0
  9  1  2  0  0  0
 19 10  1  0  0  0
  8  4  1  0  0  0
 19 14  1  0  0  0
 31 32  1  0  0  0
M  END
> <minimizedAffinity>
-9.68992

> <CNNscore>
0.9626830220

> <CNNaffinity>
7.5110549927

> <CNN_VS>
7.2307653427

> <CNNaffinity_variance>
0.1622661799

$$$$
[H]c1nc2c([H])c([H])c([H])c([H])c2c(-c2c([H])nn3c([H])c(-c4c([H])c([H])c(N5C([H])([H])C([H])([H])N([H])C([H])([H])C5([H])[H])c([H])c4[H])c([H])nc23)c1[H]


 32 37  0  0  0  0  0  0  0  0999 V2000
    0.0644   21.8249  -24.3017 C   0  0  0  0  0  0  0  0  0  0  0  0
   -1.2450   22.1373  -24.0040 C   0  0  0  0  0  0  0  0  0  0  0  0
   -2.0724   22.5498  -24.9707 N   0  0  0  0  0  0  0  0  0  0  0  0
   -1.6694   22.6767  -26.2610 C   0  0  0  0  0  0  0  0  0  0  0  0
   -2.3359   23.0762  -27.4015 C   0  0  0  0  0  0  0  0  0  0  0  0
   -1.4075   23.0025  -28.4017 C   0  0  0  0  0  0  0  0  0  0  0  0
   -0.2347   22.5709  -27.8545 N   0  0  0  0  0  0  0  0  0  0  0  0
   -0.3863   22.3733  -26.5670 N   0  0  0  0  0  0  0  0  0  0  0  0
    0.4741   21.9557  -25.6220 C   0  0  0  0  0  0  0  0  0  0  0  0
   -3.7058   23.5183  -27.4799 C   0  0  0  0  0  0  0  0  0  0  0  0
   -4.6505   23.0768  -26.5363 C   0  0  0  0  0  0  0  0  0  0  0  0
   -5.9427   23.4749  -26.5323 C   0  0  0  0  0  0  0  0  0  0  0  0
   -6.3475   24.3310  -27.4708 N   0  0  0  0  0  0  0  0  0  0  0  0
   -5.5159   24.8070  -28.4148 C   0  0  0  0  0  0  0  0  0  0  0  0
   -6.0320   25.6815  -29.3494 C   0  0  0  0  0  0  0  0  0  0  0  0
   -5.1781   26.1570  -30.3206 C   0  0  0  0  0  0  0  0  0  0  0  0
   -3.8572   25.7655  -30.3469 C   0  0  0  0  0  0  0  0  0  0  0  0
   -3.3488   24.8820  -29.3972 C   0  0  0  0  0  0  0  0  0  0  0  0
   -4.1758   24.3985  -28.4251 C   0  0  0  0  0  0  0  0  0  0  0  0
    2.6739   20.5009  -21.1715 C   0  0  0  0  0  0  0  0  0  0  0  0
    1.3433   20.7107  -20.9451 C   0  0  0  0  0  0  0  0  0  0  0  0
    0.5131   21.1439  -21.9730 C   0  0  0  0  0  0  0  0  0  0  0  0
    0.9670   21.3821  -23.2502 C   0  0  0  0  0  0  0  0  0  0  0  0
    2.3147   21.1651  -23.4615 C   0  0  0  0  0  0  0  0  0  0  0  0
    3.1476   20.7339  -22.4415 C   0  0  0  0  0  0  0  0  0  0  0  0
    4.8942   18.1469  -19.4761 C   0  0  0  0  0  0  0  0  0  0  0  0
    3.5064   18.7477  -19.6476 C   0  0  0  0  0  0  0  0  0  0  0  0
    3.5721   20.0738  -20.1792 N   0  0  0  0  0  0  0  0  0  0  0  0
    4.5871   20.9620  -19.6929 C   0  0  0  0  0  0  0  0  0  0  0  0
    5.9200   20.2381  -19.5083 C   0  0  0  0  0  0  0  0  0  0  0  0
    5.7095   19.0692  -18.6803 N   0  0  0  0  0  0  0  0  0  0  0  0
    5.1797   19.3545  -17.8417 H   0  0  0  0  0  0  0  0  0  0  0  0
 26 27  1  0  0  0
 27 28  1  0  0  0
 28 29  1  0  0  0
 29 30  1  0  0  0
 30 31  1  0  0  0
 28 20  1  0  0  0
 20 21  2  0  0  0
 21 22  1  0  0  0
 22 23  2  0  0  0
 23 24  1  0  0  0
 24 25  2  0  0  0
 23  1  1  0  0  0
  1  2  1  0  0  0
  2  3  2  0  0  0
  3  4  1  0  0  0
  4  5  2  0  0  0
  5  6  1  0  0  0
  6  7  2  0  0  0
  7  8  1  0  0  0
  8  9  1  0  0  0
  5 10  1  0  0  0
 10 11  2  0  0  0
 11 12  1  0  0  0
 12 13  2  0  0  0
 13 14  1  0  0  0
 14 15  2  0  0  0
 15 16  1  0  0  0
 16 17  2  0  0  0
 17 18  1  0  0  0
 18 19  2  0  0  0
 31 26  1  0  0  0
 25 20  1  0  0  0
  9  1  2  0  0  0
 19 10  1  0  0  0
  8  4  1  0  0  0
 19 14  1  0  0  0
 31 32  1  0  0  0
M  END
> <minimizedAffinity>
-9.78438

> <CNNscore>
0.9468498826

> <CNNaffinity>
7.4513387680

> <CNN_VS>
7.0552992821

> <CNNaffinity_variance>
0.2697501779

$$$$
[H]c1nc2c([H])c([H])c([H])c([H])c2c(-c2c([H])nn3c([H])c(-c4c([H])c([H])c(N5C([H])([H])C([H])([H])N([H])C([H])([H])C5([H])[H])c([H])c4[H])c([H])nc23)c1[H]


 32 37  0  0  0  0  0  0  0  0999 V2000
   -1.0794   22.2512  -23.3675 C   0  0  0  0  0  0  0  0  0  0  0  0
   -2.1607   23.1000  -23.2619 C   0  0  0  0  0  0  0  0  0  0  0  0
   -2.8432   23.4558  -24.3560 N   0  0  0  0  0  0  0  0  0  0  0  0
   -2.5097   23.0070  -25.5931 C   0  0  0  0  0  0  0  0  0  0  0  0
   -3.0592   23.2369  -26.8380 C   0  0  0  0  0  0  0  0  0  0  0  0
   -2.2917   22.5125  -27.7062 C   0  0  0  0  0  0  0  0  0  0  0  0
   -1.3238   21.8793  -26.9827 N   0  0  0  0  0  0  0  0  0  0  0  0
   -1.4501   22.1731  -25.7109 N   0  0  0  0  0  0  0  0  0  0  0  0
   -0.7403   21.7937  -24.6338 C   0  0  0  0  0  0  0  0  0  0  0  0
   -4.1745   24.1013  -27.1331 C   0  0  0  0  0  0  0  0  0  0  0  0
   -4.1379   24.9521  -28.2522 C   0  0  0  0  0  0  0  0  0  0  0  0
   -5.1592   25.7651  -28.6046 C   0  0  0  0  0  0  0  0  0  0  0  0
   -6.2614   25.7637  -27.8545 N   0  0  0  0  0  0  0  0  0  0  0  0
   -6.3873   24.9844  -26.7654 C   0  0  0  0  0  0  0  0  0  0  0  0
   -7.5636   25.0615  -26.0479 C   0  0  0  0  0  0  0  0  0  0  0  0
   -7.6823   24.2691  -24.9270 C   0  0  0  0  0  0  0  0  0  0  0  0
   -6.6552   23.4331  -24.5462 C   0  0  0  0  0  0  0  0  0  0  0  0
   -5.4727   23.3648  -25.2796 C   0  0  0  0  0  0  0  0  0  0  0  0
   -5.3328   24.1399  -26.3942 C   0  0  0  0  0  0  0  0  0  0  0  0
    1.1690   21.1088  -19.9033 C   0  0  0  0  0  0  0  0  0  0  0  0
    1.5264   20.6869  -21.1523 C   0  0  0  0  0  0  0  0  0  0  0  0
    0.7819   21.0655  -22.2641 C   0  0  0  0  0  0  0  0  0  0  0  0
   -0.3326   21.8683  -22.1791 C   0  0  0  0  0  0  0  0  0  0  0  0
   -0.6798   22.2857  -20.9090 C   0  0  0  0  0  0  0  0  0  0  0  0
    0.0574   21.9118  -19.7968 C   0  0  0  0  0  0  0  0  0  0  0  0
    3.1758   21.7142  -16.9113 C   0  0  0  0  0  0  0  0  0  0  0  0
    3.1030   21.3942  -18.3975 C   0  0  0  0  0  0  0  0  0  0  0  0
    1.8676   20.7579  -18.7360 N   0  0  0  0  0  0  0  0  0  0  0  0
    1.3404   19.7609  -17.8507 C   0  0  0  0  0  0  0  0  0  0  0  0
    1.5172   20.1646  -16.3877 C   0  0  0  0  0  0  0  0  0  0  0  0
    2.9090   20.4879  -16.1539 N   0  0  0  0  0  0  0  0  0  0  0  0
    3.4895   19.7222  -16.5308 H   0  0  0  0  0  0  0  0  0  0  0  0
 26 27  1  0  0  0
 27 28  1  0  0  0
 28 29  1  0  0  0
 29 30  1  0  0  0
 30 31  1  0  0  0
 28 20  1  0  0  0
 20 21  2  0  0  0
 21 22  1  0  0  0
 22 23  2  0  0  0
 23 24  1  0  0  0
 24 25  2  0  0  0
 23  1  1  0  0  0
  1  2  1  0  0  0
  2  3  2  0  0  0
  3  4  1  0  0  0
  4  5  2  0  0  0
  5  6  1  0  0  0
  6  7  2  0  0  0
  7  8  1  0  0  0
  8  9  1  0  0  0
  5 10  1  0  0  0
 10 11  2  0  0  0
 11 12  1  0  0  0
 12 13  2  0  0  0
 13 14  1  0  0  0
 14 15  2  0  0  0
 15 16  1  0  0  0
 16 17  2  0  0  0
 17 18  1  0  0  0
 18 19  2  0  0  0
 31 26  1  0  0  0
 25 20  1  0  0  0
  9  1  2  0  0  0
 19 10  1  0  0  0
  8  4  1  0  0  0
 19 14  1  0  0  0
 31 32  1  0  0  0
M  END
> <minimizedAffinity>
-8.46405

> <CNNscore>
0.4546760917

> <CNNaffinity>
6.7751402855

> <CNN_VS>
3.0804944038

> <CNNaffinity_variance>
0.4242777824

$$$$
[H]c1nc2c([H])c([H])c([H])c([H])c2c(-c2c([H])nn3c([H])c(-c4c([H])c([H])c(N5C([H])([H])C([H])([H])N([H])C([H])([H])C5([H])[H])c([H])c4[H])c([H])nc23)c1[H]


 32 37  0  0  0  0  0  0  0  0999 V2000
   -1.2411   21.8009  -23.6472 C   0  0  0  0  0  0  0  0  0  0  0  0
   -1.1705   22.9264  -24.4404 C   0  0  0  0  0  0  0  0  0  0  0  0
   -2.2766   23.4123  -25.0148 N   0  0  0  0  0  0  0  0  0  0  0  0
   -3.4924   22.8322  -24.8465 C   0  0  0  0  0  0  0  0  0  0  0  0
   -4.7438   23.1530  -25.3320 C   0  0  0  0  0  0  0  0  0  0  0  0
   -5.5800   22.2008  -24.8205 C   0  0  0  0  0  0  0  0  0  0  0  0
   -4.8323   21.3516  -24.0583 N   0  0  0  0  0  0  0  0  0  0  0  0
   -3.5758   21.7265  -24.0703 N   0  0  0  0  0  0  0  0  0  0  0  0
   -2.4857   21.2095  -23.4768 C   0  0  0  0  0  0  0  0  0  0  0  0
   -5.0607   24.2385  -26.2262 C   0  0  0  0  0  0  0  0  0  0  0  0
   -5.2394   25.5413  -25.7276 C   0  0  0  0  0  0  0  0  0  0  0  0
   -5.5076   26.6096  -26.5117 C   0  0  0  0  0  0  0  0  0  0  0  0
   -5.6092   26.4231  -27.8280 N   0  0  0  0  0  0  0  0  0  0  0  0
   -5.4548   25.2134  -28.3954 C   0  0  0  0  0  0  0  0  0  0  0  0
   -5.5889   25.1205  -29.7658 C   0  0  0  0  0  0  0  0  0  0  0  0
   -5.4406   23.8769  -30.3402 C   0  0  0  0  0  0  0  0  0  0  0  0
   -5.1683   22.7724  -29.5626 C   0  0  0  0  0  0  0  0  0  0  0  0
   -5.0353   22.8801  -28.1799 C   0  0  0  0  0  0  0  0  0  0  0  0
   -5.1771   24.1020  -27.5888 C   0  0  0  0  0  0  0  0  0  0  0  0
    2.3370   20.2699  -21.8544 C   0  0  0  0  0  0  0  0  0  0  0  0
    2.3721   20.9563  -23.0348 C   0  0  0  0  0  0  0  0  0  0  0  0
    1.1997   21.4424  -23.6028 C   0  0  0  0  0  0  0  0  0  0  0  0
   -0.0380   21.2679  -23.0269 C   0  0  0  0  0  0  0  0  0  0  0  0
   -0.0553   20.5717  -21.8340 C   0  0  0  0  0  0  0  0  0  0  0  0
    1.1093   20.0842  -21.2628 C   0  0  0  0  0  0  0  0  0  0  0  0
    5.6994   18.8493  -21.7064 C   0  0  0  0  0  0  0  0  0  0  0  0
    4.1943   18.6460  -21.8051 C   0  0  0  0  0  0  0  0  0  0  0  0
    3.4790   19.7424  -21.2290 N   0  0  0  0  0  0  0  0  0  0  0  0
    3.9586   20.3103  -20.0030 C   0  0  0  0  0  0  0  0  0  0  0  0
    5.4829   20.4159  -19.9960 C   0  0  0  0  0  0  0  0  0  0  0  0
    6.0455   19.1187  -20.3077 N   0  0  0  0  0  0  0  0  0  0  0  0
    5.5943   18.4137  -19.7038 H   0  0  0  0  0  0  0  0  0  0  0  0
 26 27  1  0  0  0
 27 28  1  0  0  0
 28 29  1  0  0  0
 29 30  1  0  0  0
 30 31  1  0  0  0
 28 20  1  0  0  0
 20 21  2  0  0  0
 21 22  1  0  0  0
 22 23  2  0  0  0
 23 24  1  0  0  0
 24 25  2  0  0  0
 23  1  1  0  0  0
  1  2  1  0  0  0
  2  3  2  0  0  0
  3  4  1  0  0  0
  4  5  2  0  0  0
  5  6  1  0  0  0
  6  7  2  0  0  0
  7  8  1  0  0  0
  8  9  1  0  0  0
  5 10  1  0  0  0
 10 11  2  0  0  0
 11 12  1  0  0  0
 12 13  2  0  0  0
 13 14  1  0  0  0
 14 15  2  0  0  0
 15 16  1  0  0  0
 16 17  2  0  0  0
 17 18  1  0  0  0
 18 19  2  0  0  0
 31 26  1  0  0  0
 25 20  1  0  0  0
  9  1  2  0  0  0
 19 10  1  0  0  0
  8  4  1  0  0  0
 19 14  1  0  0  0
 31 32  1  0  0  0
M  END
> <minimizedAffinity>
-8.58685

> <CNNscore>
0.3097335398

> <CNNaffinity>
6.7314047813

> <CNN_VS>
2.0849418640

> <CNNaffinity_variance>
0.3768218458

$$$$
[H]c1nc2c([H])c([H])c([H])c([H])c2c(-c2c([H])nn3c([H])c(-c4c([H])c([H])c(N5C([H])([H])C([H])([H])N([H])C([H])([H])C5([H])[H])c([H])c4[H])c([H])nc23)c1[H]


 32 37  0  0  0  0  0  0  0  0999 V2000
   -0.7349   21.9574  -23.0558 C   0  0  0  0  0  0  0  0  0  0  0  0
   -1.4673   21.5092  -24.1344 C   0  0  0  0  0  0  0  0  0  0  0  0
   -2.5438   22.1899  -24.5433 N   0  0  0  0  0  0  0  0  0  0  0  0
   -2.9551   23.3283  -23.9284 C   0  0  0  0  0  0  0  0  0  0  0  0
   -4.0143   24.1786  -24.1723 C   0  0  0  0  0  0  0  0  0  0  0  0
   -3.9150   25.1546  -23.2209 C   0  0  0  0  0  0  0  0  0  0  0  0
   -2.8263   24.8768  -22.4470 N   0  0  0  0  0  0  0  0  0  0  0  0
   -2.2450   23.7793  -22.8680 N   0  0  0  0  0  0  0  0  0  0  0  0
   -1.1576   23.1218  -22.4286 C   0  0  0  0  0  0  0  0  0  0  0  0
   -5.0222   24.0176  -25.1904 C   0  0  0  0  0  0  0  0  0  0  0  0
   -6.3865   24.1011  -24.8598 C   0  0  0  0  0  0  0  0  0  0  0  0
   -7.3820   23.9904  -25.7679 C   0  0  0  0  0  0  0  0  0  0  0  0
   -7.0582   23.7914  -27.0458 N   0  0  0  0  0  0  0  0  0  0  0  0
   -5.7807   23.6974  -27.4561 C   0  0  0  0  0  0  0  0  0  0  0  0
   -5.5474   23.4806  -28.7990 C   0  0  0  0  0  0  0  0  0  0  0  0
   -4.2371   23.3742  -29.2116 C   0  0  0  0  0  0  0  0  0  0  0  0
   -3.2047   23.4821  -28.3054 C   0  0  0  0  0  0  0  0  0  0  0  0
   -3.4541   23.7010  -26.9522 C   0  0  0  0  0  0  0  0  0  0  0  0
   -4.7441   23.8108  -26.5204 C   0  0  0  0  0  0  0  0  0  0  0  0
    2.7400   19.8079  -21.7649 C   0  0  0  0  0  0  0  0  0  0  0  0
    2.7736   20.6163  -22.8653 C   0  0  0  0  0  0  0  0  0  0  0  0
    1.6345   21.3030  -23.2707 C   0  0  0  0  0  0  0  0  0  0  0  0
    0.4325   21.2146  -22.6063 C   0  0  0  0  0  0  0  0  0  0  0  0
    0.4162   20.3930  -21.4960 C   0  0  0  0  0  0  0  0  0  0  0  0
    1.5476   19.7055  -21.0869 C   0  0  0  0  0  0  0  0  0  0  0  0
    5.4869   18.9953  -19.4978 C   0  0  0  0  0  0  0  0  0  0  0  0
    4.9763   19.7380  -20.7241 C   0  0  0  0  0  0  0  0  0  0  0  0
    3.8481   19.0775  -21.3042 N   0  0  0  0  0  0  0  0  0  0  0  0
    3.8579   17.6466  -21.3935 C   0  0  0  0  0  0  0  0  0  0  0  0
    4.4399   17.0129  -20.1308 C   0  0  0  0  0  0  0  0  0  0  0  0
    5.7372   17.5986  -19.8659 N   0  0  0  0  0  0  0  0  0  0  0  0
    6.2918   17.5704  -20.7359 H   0  0  0  0  0  0  0  0  0  0  0  0
 26 27  1  0  0  0
 27 28  1  0  0  0
 28 29  1  0  0  0
 29 30  1  0  0  0
 30 31  1  0  0  0
 28 20  1  0  0  0
 20 21  2  0  0  0
 21 22  1  0  0  0
 22 23  2  0  0  0
 23 24  1  0  0  0
 24 25  2  0  0  0
 23  1  1  0  0  0
  1  2  1  0  0  0
  2  3  2  0  0  0
  3  4  1  0  0  0
  4  5  2  0  0  0
  5  6  1  0  0  0
  6  7  2  0  0  0
  7  8  1  0  0  0
  8  9  1  0  0  0
  5 10  1  0  0  0
 10 11  2  0  0  0
 11 12  1  0  0  0
 12 13  2  0  0  0
 13 14  1  0  0  0
 14 15  2  0  0  0
 15 16  1  0  0  0
 16 17  2  0  0  0
 17 18  1  0  0  0
 18 19  2  0  0  0
 31 26  1  0  0  0
 25 20  1  0  0  0
  9  1  2  0  0  0
 19 10  1  0  0  0
  8  4  1  0  0  0
 19 14  1  0  0  0
 31 32  1  0  0  0
M  END
> <minimizedAffinity>
-8.80017

> <CNNscore>
0.2241449356

> <CNNaffinity>
6.3758859634

> <CNN_VS>
1.4291225672

> <CNNaffinity_variance>
0.1078640372

$$$$
[H]c1nc2c([H])c([H])c([H])c([H])c2c(-c2c([H])nn3c([H])c(-c4c([H])c([H])c(N5C([H])([H])C([H])([H])N([H])C([H])([H])C5([H])[H])c([H])c4[H])c([H])nc23)c1[H]


 32 37  0  0  0  0  0  0  0  0999 V2000
   -1.2127   22.1075  -24.5075 C   0  0  0  0  0  0  0  0  0  0  0  0
   -1.7453   21.6109  -23.3368 C   0  0  0  0  0  0  0  0  0  0  0  0
   -0.9394   21.1189  -22.3892 N   0  0  0  0  0  0  0  0  0  0  0  0
    0.4101   21.0871  -22.5337 C   0  0  0  0  0  0  0  0  0  0  0  0
    1.4171   20.6352  -21.7054 C   0  0  0  0  0  0  0  0  0  0  0  0
    2.5754   20.8649  -22.3935 C   0  0  0  0  0  0  0  0  0  0  0  0
    2.2473   21.4355  -23.5885 N   0  0  0  0  0  0  0  0  0  0  0  0
    0.9461   21.5716  -23.6784 N   0  0  0  0  0  0  0  0  0  0  0  0
    0.1678   22.0738  -24.6529 C   0  0  0  0  0  0  0  0  0  0  0  0
    1.2481   20.0131  -20.4159 C   0  0  0  0  0  0  0  0  0  0  0  0
    1.0592   18.6232  -20.3164 C   0  0  0  0  0  0  0  0  0  0  0  0
    0.9248   17.9712  -19.1395 C   0  0  0  0  0  0  0  0  0  0  0  0
    0.9732   18.6793  -18.0109 N   0  0  0  0  0  0  0  0  0  0  0  0
    1.1496   20.0127  -18.0073 C   0  0  0  0  0  0  0  0  0  0  0  0
    1.1755   20.6580  -16.7876 C   0  0  0  0  0  0  0  0  0  0  0  0
    1.3454   22.0253  -16.7908 C   0  0  0  0  0  0  0  0  0  0  0  0
    1.4833   22.7129  -17.9769 C   0  0  0  0  0  0  0  0  0  0  0  0
    1.4553   22.0492  -19.2016 C   0  0  0  0  0  0  0  0  0  0  0  0
    1.2891   20.6947  -19.2231 C   0  0  0  0  0  0  0  0  0  0  0  0
   -3.7648   23.6303  -27.5944 C   0  0  0  0  0  0  0  0  0  0  0  0
   -2.6003   22.9813  -27.8920 C   0  0  0  0  0  0  0  0  0  0  0  0
   -1.7835   22.4973  -26.8761 C   0  0  0  0  0  0  0  0  0  0  0  0
   -2.0884   22.6372  -25.5414 C   0  0  0  0  0  0  0  0  0  0  0  0
   -3.2693   23.2958  -25.2584 C   0  0  0  0  0  0  0  0  0  0  0  0
   -4.0875   23.7809  -26.2659 C   0  0  0  0  0  0  0  0  0  0  0  0
   -4.7305   25.7677  -30.3952 C   0  0  0  0  0  0  0  0  0  0  0  0
   -4.6200   25.5460  -28.8935 C   0  0  0  0  0  0  0  0  0  0  0  0
   -4.6324   24.1534  -28.5677 N   0  0  0  0  0  0  0  0  0  0  0  0
   -5.5387   23.2899  -29.2667 C   0  0  0  0  0  0  0  0  0  0  0  0
   -5.6084   23.6398  -30.7524 C   0  0  0  0  0  0  0  0  0  0  0  0
   -5.9086   25.0495  -30.8899 N   0  0  0  0  0  0  0  0  0  0  0  0
   -6.7187   25.2706  -30.2897 H   0  0  0  0  0  0  0  0  0  0  0  0
 26 27  1  0  0  0
 27 28  1  0  0  0
 28 29  1  0  0  0
 29 30  1  0  0  0
 30 31  1  0  0  0
 28 20  1  0  0  0
 20 21  2  0  0  0
 21 22  1  0  0  0
 22 23  2  0  0  0
 23 24  1  0  0  0
 24 25  2  0  0  0
 23  1  1  0  0  0
  1  2  1  0  0  0
  2  3  2  0  0  0
  3  4  1  0  0  0
  4  5  2  0  0  0
  5  6  1  0  0  0
  6  7  2  0  0  0
  7  8  1  0  0  0
  8  9  1  0  0  0
  5 10  1  0  0  0
 10 11  2  0  0  0
 11 12  1  0  0  0
 12 13  2  0  0  0
 13 14  1  0  0  0
 14 15  2  0  0  0
 15 16  1  0  0  0
 16 17  2  0  0  0
 17 18  1  0  0  0
 18 19  2  0  0  0
 31 26  1  0  0  0
 25 20  1  0  0  0
  9  1  2  0  0  0
 19 10  1  0  0  0
  8  4  1  0  0  0
 19 14  1  0  0  0
 31 32  1  0  0  0
M  END
> <minimizedAffinity>
-9.42379

> <CNNscore>
0.1918108314

> <CNNaffinity>
6.1183862686

> <CNN_VS>
1.1735727787

> <CNNaffinity_variance>
0.0975980014

$$$$
[H]c1nc2c([H])c([H])c([H])c([H])c2c(-c2c([H])nn3c([H])c(-c4c([H])c([H])c(N5C([H])([H])C([H])([H])N([H])C([H])([H])C5([H])[H])c([H])c4[H])c([H])nc23)c1[H]


 32 37  0  0  0  0  0  0  0  0999 V2000
   -0.5320   22.0387  -23.5558 C   0  0  0  0  0  0  0  0  0  0  0  0
   -1.2320   22.9986  -22.8562 C   0  0  0  0  0  0  0  0  0  0  0  0
   -2.2980   23.5876  -23.4094 N   0  0  0  0  0  0  0  0  0  0  0  0
   -2.7299   23.2738  -24.6576 C   0  0  0  0  0  0  0  0  0  0  0  0
   -3.7840   23.7426  -25.4150 C   0  0  0  0  0  0  0  0  0  0  0  0
   -3.7137   23.0508  -26.5915 C   0  0  0  0  0  0  0  0  0  0  0  0
   -2.6472   22.2032  -26.5167 N   0  0  0  0  0  0  0  0  0  0  0  0
   -2.0517   22.3330  -25.3556 N   0  0  0  0  0  0  0  0  0  0  0  0
   -0.9758   21.7197  -24.8323 C   0  0  0  0  0  0  0  0  0  0  0  0
   -4.7138   24.7774  -25.0371 C   0  0  0  0  0  0  0  0  0  0  0  0
   -4.5700   26.0818  -25.5426 C   0  0  0  0  0  0  0  0  0  0  0  0
   -5.4219   27.0915  -25.2545 C   0  0  0  0  0  0  0  0  0  0  0  0
   -6.4545   26.8422  -24.4489 N   0  0  0  0  0  0  0  0  0  0  0  0
   -6.6727   25.6261  -23.9173 C   0  0  0  0  0  0  0  0  0  0  0  0
   -7.7636   25.4701  -23.0864 C   0  0  0  0  0  0  0  0  0  0  0  0
   -7.9756   24.2249  -22.5360 C   0  0  0  0  0  0  0  0  0  0  0  0
   -7.1211   23.1800  -22.8131 C   0  0  0  0  0  0  0  0  0  0  0  0
   -6.0233   23.3510  -23.6537 C   0  0  0  0  0  0  0  0  0  0  0  0
   -5.7937   24.5754  -24.2112 C   0  0  0  0  0  0  0  0  0  0  0  0
    2.8566   20.1328  -21.7543 C   0  0  0  0  0  0  0  0  0  0  0  0
    1.6566   20.2075  -21.1062 C   0  0  0  0  0  0  0  0  0  0  0  0
    0.5693   20.8333  -21.7059 C   0  0  0  0  0  0  0  0  0  0  0  0
    0.6312   21.4018  -22.9577 C   0  0  0  0  0  0  0  0  0  0  0  0
    1.8519   21.3174  -23.5987 C   0  0  0  0  0  0  0  0  0  0  0  0
    2.9395   20.6956  -23.0066 C   0  0  0  0  0  0  0  0  0  0  0  0
    5.1452   19.1357  -19.0871 C   0  0  0  0  0  0  0  0  0  0  0  0
    4.7256   20.1482  -20.1432 C   0  0  0  0  0  0  0  0  0  0  0  0
    3.9985   19.5254  -21.2058 N   0  0  0  0  0  0  0  0  0  0  0  0
    4.4461   18.2542  -21.6949 C   0  0  0  0  0  0  0  0  0  0  0  0
    4.8921   17.3427  -20.5526 C   0  0  0  0  0  0  0  0  0  0  0  0
    5.8685   18.0438  -19.7455 N   0  0  0  0  0  0  0  0  0  0  0  0
    6.5859   18.4404  -20.3725 H   0  0  0  0  0  0  0  0  0  0  0  0
 26 27  1  0  0  0
 27 28  1  0  0  0
 28 29  1  0  0  0
 29 30  1  0  0  0
 30 31  1  0  0  0
 28 20  1  0  0  0
 20 21  2  0  0  0
 21 22  1  0  0  0
 22 23  2  0  0  0
 23 24  1  0  0  0
 24 25  2  0  0  0
 23  1  1  0  0  0
  1  2  1  0  0  0
  2  3  2  0  0  0
  3  4  1  0  0  0
  4  5  2  0  0  0
  5  6  1  0  0  0
  6  7  2  0  0  0
  7  8  1  0  0  0
  8  9  1  0  0  0
  5 10  1  0  0  0
 10 11  2  0  0  0
 11 12  1  0  0  0
 12 13  2  0  0  0
 13 14  1  0  0  0
 14 15  2  0  0  0
 15 16  1  0  0  0
 16 17  2  0  0  0
 17 18  1  0  0  0
 18 19  2  0  0  0
 31 26  1  0  0  0
 25 20  1  0  0  0
  9  1  2  0  0  0
 19 10  1  0  0  0
  8  4  1  0  0  0
 19 14  1  0  0  0
 31 32  1  0  0  0
M  END
> <minimizedAffinity>
-8.90142

> <CNNscore>
0.1808669418

> <CNNaffinity>
6.1367421150

> <CNN_VS>
1.1099337339

> <CNNaffinity_variance>
0.0907774121

$$$$
[H]c1nc2c([H])c([H])c([H])c([H])c2c(-c2c([H])nn3c([H])c(-c4c([H])c([H])c(N5C([H])([H])C([H])([H])N([H])C([H])([H])C5([H])[H])c([H])c4[H])c([H])nc23)c1[H]


 32 37  0  0  0  0  0  0  0  0999 V2000
   -1.1507   22.1820  -24.5041 C   0  0  0  0  0  0  0  0  0  0  0  0
   -1.6460   21.9307  -23.2422 C   0  0  0  0  0  0  0  0  0  0  0  0
   -0.8358   21.4679  -22.2838 N   0  0  0  0  0  0  0  0  0  0  0  0
    0.4824   21.2299  -22.5048 C   0  0  0  0  0  0  0  0  0  0  0  0
    1.4869   20.7620  -21.6823 C   0  0  0  0  0  0  0  0  0  0  0  0
    2.6056   20.7317  -22.4669 C   0  0  0  0  0  0  0  0  0  0  0  0
    2.2577   21.1713  -23.7107 N   0  0  0  0  0  0  0  0  0  0  0  0
    0.9817   21.4724  -23.7394 N   0  0  0  0  0  0  0  0  0  0  0  0
    0.1978   21.9377  -24.7277 C   0  0  0  0  0  0  0  0  0  0  0  0
    1.3444   20.3539  -20.3071 C   0  0  0  0  0  0  0  0  0  0  0  0
    1.6940   21.2313  -19.2652 C   0  0  0  0  0  0  0  0  0  0  0  0
    1.5574   20.9254  -17.9552 C   0  0  0  0  0  0  0  0  0  0  0  0
    1.0658   19.7298  -17.6290 N   0  0  0  0  0  0  0  0  0  0  0  0
    0.7049   18.8249  -18.5565 C   0  0  0  0  0  0  0  0  0  0  0  0
    0.2159   17.6108  -18.1190 C   0  0  0  0  0  0  0  0  0  0  0  0
   -0.1418   16.6838  -19.0735 C   0  0  0  0  0  0  0  0  0  0  0  0
   -0.0109   16.9709  -20.4149 C   0  0  0  0  0  0  0  0  0  0  0  0
    0.4842   18.2008  -20.8431 C   0  0  0  0  0  0  0  0  0  0  0  0
    0.8441   19.1351  -19.9156 C   0  0  0  0  0  0  0  0  0  0  0  0
   -3.7188   23.6098  -27.6229 C   0  0  0  0  0  0  0  0  0  0  0  0
   -2.5427   22.9756  -27.9065 C   0  0  0  0  0  0  0  0  0  0  0  0
   -1.7209   22.5225  -26.8804 C   0  0  0  0  0  0  0  0  0  0  0  0
   -2.0321   22.6795  -25.5491 C   0  0  0  0  0  0  0  0  0  0  0  0
   -3.2246   23.3228  -25.2803 C   0  0  0  0  0  0  0  0  0  0  0  0
   -4.0479   23.7773  -26.2980 C   0  0  0  0  0  0  0  0  0  0  0  0
   -4.6907   25.6302  -30.5072 C   0  0  0  0  0  0  0  0  0  0  0  0
   -4.5611   25.4772  -28.9985 C   0  0  0  0  0  0  0  0  0  0  0  0
   -4.5922   24.1020  -28.6072 N   0  0  0  0  0  0  0  0  0  0  0  0
   -5.5236   23.2227  -29.2514 C   0  0  0  0  0  0  0  0  0  0  0  0
   -5.6101   23.5037  -30.7509 C   0  0  0  0  0  0  0  0  0  0  0  0
   -5.8883   24.9105  -30.9504 N   0  0  0  0  0  0  0  0  0  0  0  0
   -6.6852   25.1738  -30.3496 H   0  0  0  0  0  0  0  0  0  0  0  0
 26 27  1  0  0  0
 27 28  1  0  0  0
 28 29  1  0  0  0
 29 30  1  0  0  0
 30 31  1  0  0  0
 28 20  1  0  0  0
 20 21  2  0  0  0
 21 22  1  0  0  0
 22 23  2  0  0  0
 23 24  1  0  0  0
 24 25  2  0  0  0
 23  1  1  0  0  0
  1  2  1  0  0  0
  2  3  2  0  0  0
  3  4  1  0  0  0
  4  5  2  0  0  0
  5  6  1  0  0  0
  6  7  2  0  0  0
  7  8  1  0  0  0
  8  9  1  0  0  0
  5 10  1  0  0  0
 10 11  2  0  0  0
 11 12  1  0  0  0
 12 13  2  0  0  0
 13 14  1  0  0  0
 14 15  2  0  0  0
 15 16  1  0  0  0
 16 17  2  0  0  0
 17 18  1  0  0  0
 18 19  2  0  0  0
 31 26  1  0  0  0
 25 20  1  0  0  0
  9  1  2  0  0  0
 19 10  1  0  0  0
  8  4  1  0  0  0
 19 14  1  0  0  0
 31 32  1  0  0  0
M  END
> <minimizedAffinity>
-9.25909

> <CNNscore>
0.1677801311

> <CNNaffinity>
6.1374912262

> <CNN_VS>
1.0297490358

> <CNNaffinity_variance>
0.0990344658

$$$$
[H]c1nc2c([H])c([H])c([H])c([H])c2c(-c2c([H])nn3c([H])c(-c4c([H])c([H])c(N5C([H])([H])C([H])([H])N([H])C([H])([H])C5([H])[H])c([H])c4[H])c([H])nc23)c1[H]


 32 37  0  0  0  0  0  0  0  0999 V2000
    0.0637   22.4067  -19.1817 C   0  0  0  0  0  0  0  0  0  0  0  0
   -0.8878   23.3737  -19.4273 C   0  0  0  0  0  0  0  0  0  0  0  0
   -1.4606   23.4598  -20.6331 N   0  0  0  0  0  0  0  0  0  0  0  0
   -1.1383   22.6173  -21.6477 C   0  0  0  0  0  0  0  0  0  0  0  0
   -1.5908   22.5222  -22.9480 C   0  0  0  0  0  0  0  0  0  0  0  0
   -0.8964   21.4785  -23.4921 C   0  0  0  0  0  0  0  0  0  0  0  0
   -0.0642   20.9821  -22.5317 N   0  0  0  0  0  0  0  0  0  0  0  0
   -0.2055   21.6633  -21.4200 N   0  0  0  0  0  0  0  0  0  0  0  0
    0.3916   21.5463  -20.2211 C   0  0  0  0  0  0  0  0  0  0  0  0
   -2.5552   23.3858  -23.5823 C   0  0  0  0  0  0  0  0  0  0  0  0
   -3.2597   24.3404  -22.8273 C   0  0  0  0  0  0  0  0  0  0  0  0
   -4.1544   25.2016  -23.3621 C   0  0  0  0  0  0  0  0  0  0  0  0
   -4.3844   25.1467  -24.6742 N   0  0  0  0  0  0  0  0  0  0  0  0
   -3.7587   24.2667  -25.4762 C   0  0  0  0  0  0  0  0  0  0  0  0
   -4.0720   24.2808  -26.8202 C   0  0  0  0  0  0  0  0  0  0  0  0
   -3.4360   23.3697  -27.6349 C   0  0  0  0  0  0  0  0  0  0  0  0
   -2.5211   22.4807  -27.1140 C   0  0  0  0  0  0  0  0  0  0  0  0
   -2.2138   22.4771  -25.7551 C   0  0  0  0  0  0  0  0  0  0  0  0
   -2.8307   23.3712  -24.9287 C   0  0  0  0  0  0  0  0  0  0  0  0
    1.9520   22.1856  -15.3416 C   0  0  0  0  0  0  0  0  0  0  0  0
    2.5612   22.8014  -16.3978 C   0  0  0  0  0  0  0  0  0  0  0  0
    1.9338   22.8598  -17.6373 C   0  0  0  0  0  0  0  0  0  0  0  0
    0.6918   22.3158  -17.8727 C   0  0  0  0  0  0  0  0  0  0  0  0
    0.0903   21.6970  -16.7941 C   0  0  0  0  0  0  0  0  0  0  0  0
    0.7102   21.6348  -15.5563 C   0  0  0  0  0  0  0  0  0  0  0  0
    3.0296   23.3814  -12.0622 C   0  0  0  0  0  0  0  0  0  0  0  0
    3.3357   23.1353  -13.5326 C   0  0  0  0  0  0  0  0  0  0  0  0
    2.5303   22.0804  -14.0656 N   0  0  0  0  0  0  0  0  0  0  0  0
    2.3061   20.9123  -13.2650 C   0  0  0  0  0  0  0  0  0  0  0  0
    2.0641   21.2775  -11.8011 C   0  0  0  0  0  0  0  0  0  0  0  0
    3.1528   22.1125  -11.3387 N   0  0  0  0  0  0  0  0  0  0  0  0
    4.0437   21.6593  -11.5961 H   0  0  0  0  0  0  0  0  0  0  0  0
 26 27  1  0  0  0
 27 28  1  0  0  0
 28 29  1  0  0  0
 29 30  1  0  0  0
 30 31  1  0  0  0
 28 20  1  0  0  0
 20 21  2  0  0  0
 21 22  1  0  0  0
 22 23  2  0  0  0
 23 24  1  0  0  0
 24 25  2  0  0  0
 23  1  1  0  0  0
  1  2  1  0  0  0
  2  3  2  0  0  0
  3  4  1  0  0  0
  4  5  2  0  0  0
  5  6  1  0  0  0
  6  7  2  0  0  0
  7  8  1  0  0  0
  8  9  1  0  0  0
  5 10  1  0  0  0
 10 11  2  0  0  0
 11 12  1  0  0  0
 12 13  2  0  0  0
 13 14  1  0  0  0
 14 15  2  0  0  0
 15 16  1  0  0  0
 16 17  2  0  0  0
 17 18  1  0  0  0
 18 19  2  0  0  0
 31 26  1  0  0  0
 25 20  1  0  0  0
  9  1  2  0  0  0
 19 10  1  0  0  0
  8  4  1  0  0  0
 19 14  1  0  0  0
 31 32  1  0  0  0
M  END
> <minimizedAffinity>
-8.34389

> <CNNscore>
0.1534141004

> <CNNaffinity>
5.4508614540

> <CNN_VS>
0.8362389803

> <CNNaffinity_variance>
0.0635185838

$$$$
[H]c1c([H])c(OC([H])(F)F)c([H])c([H])c1C#Cc1c([H])c(O[C@@]([H])(C([H])([H])[H])C([H])([H])OC([H])([H])[H])c([H])c(C(=O)N([H])c2nn(C([H])([H])[H])c([H])c2[H])c1[H]


 34 36  0  0  0  0  0  0  0  0999 V2000
   -5.2997   21.9876  -23.9679 C   0  0  0  0  0  0  0  0  0  0  0  0
   -4.0335   21.7041  -23.4586 C   0  0  0  0  0  0  0  0  0  0  0  0
   -2.8800   21.9790  -24.1314 C   0  0  0  0  0  0  0  0  0  0  0  0
   -3.0061   22.5752  -25.3925 C   0  0  0  0  0  0  0  0  0  0  0  0
   -4.2251   22.8814  -25.9538 C   0  0  0  0  0  0  0  0  0  0  0  0
   -5.3687   22.5722  -25.2087 C   0  0  0  0  0  0  0  0  0  0  0  0
   -4.3479   23.5030  -27.2689 C   0  0  0  0  0  0  0  0  0  0  0  0
   -3.2976   23.7051  -27.9449 O   0  0  0  0  0  0  0  0  0  0  0  0
   -5.5953   23.8871  -27.8150 N   0  0  0  0  0  0  0  0  0  0  0  0
   -6.4977   23.7512  -27.3163 H   0  0  0  0  0  0  0  0  0  0  0  0
   -5.6642   24.4976  -29.1140 C   0  0  0  0  0  0  0  0  0  0  0  0
   -5.6436   23.8783  -30.3352 C   0  0  0  0  0  0  0  0  0  0  0  0
   -5.7346   24.8681  -31.2784 C   0  0  0  0  0  0  0  0  0  0  0  0
   -5.8091   26.0614  -30.6639 N   0  0  0  0  0  0  0  0  0  0  0  0
   -5.9185   27.3694  -31.3180 C   0  0  0  0  0  0  0  0  0  0  0  0
   -5.7656   25.8203  -29.3654 N   0  0  0  0  0  0  0  0  0  0  0  0
   -1.5670   21.6897  -23.6123 C   0  0  0  0  0  0  0  0  0  0  0  0
   -0.4688   21.4268  -23.1833 C   0  0  0  0  0  0  0  0  0  0  0  0
    0.8353   21.0913  -22.6837 C   0  0  0  0  0  0  0  0  0  0  0  0
    1.0034   20.6514  -21.3933 C   0  0  0  0  0  0  0  0  0  0  0  0
    2.2189   20.3183  -20.8638 C   0  0  0  0  0  0  0  0  0  0  0  0
    3.3857   20.4155  -21.6428 C   0  0  0  0  0  0  0  0  0  0  0  0
    3.2031   20.8560  -22.9285 C   0  0  0  0  0  0  0  0  0  0  0  0
    1.9600   21.1927  -23.4583 C   0  0  0  0  0  0  0  0  0  0  0  0
    4.5847   20.0682  -21.0616 O   0  0  0  0  0  0  0  0  0  0  0  0
    5.1024   18.7806  -21.1032 C   0  0  0  0  0  0  0  0  0  0  0  0
    4.3217   17.9471  -21.9093 F   0  0  0  0  0  0  0  0  0  0  0  0
    5.0418   18.2552  -19.8036 F   0  0  0  0  0  0  0  0  0  0  0  0
   -6.3576   21.6535  -23.1764 O   0  0  0  0  0  0  0  0  0  0  0  0
   -6.8070   22.2972  -22.0143 C   0  0  0  0  0  0  0  0  0  0  0  0
   -7.2965   23.7168  -22.3170 C   0  0  0  0  0  0  0  0  0  0  0  0
   -8.0184   21.5316  -21.5332 C   0  0  0  0  0  0  0  0  0  0  0  0
   -6.6269   21.0419  -19.7551 C   0  0  0  0  0  0  0  0  0  0  0  0
   -7.8559   20.8646  -20.3543 O   0  0  0  0  0  0  0  0  0  0  0  0
 33 34  1  0  0  0
 34 32  1  0  0  0
 32 30  1  0  0  0
 30 31  1  0  0  0
 30 29  1  0  0  0
 29  1  1  0  0  0
  1  2  2  0  0  0
  2  3  1  0  0  0
  3  4  2  0  0  0
  4  5  1  0  0  0
  5  6  2  0  0  0
  5  7  1  0  0  0
  7  8  2  0  0  0
  7  9  1  0  0  0
  9 11  1  0  0  0
 11 12  1  0  0  0
 12 13  2  0  0  0
 13 14  1  0  0  0
 14 15  1  0  0  0
 14 16  1  0  0  0
  3 17  1  0  0  0
 17 18  3  0  0  0
 18 19  1  0  0  0
 19 20  2  0  0  0
 20 21  1  0  0  0
 21 22  2  0  0  0
 22 25  1  0  0  0
 25 26  1  0  0  0
 26 27  1  0  0  0
 26 28  1  0  0  0
 22 23  1  0  0  0
 23 24  2  0  0  0
  6  1  1  0  0  0
 16 11  2  0  0  0
 24 19  1  0  0  0
  9 10  1  0  0  0
M  END
> <minimizedAffinity>
-7.46181

> <CNNscore>
0.3028269410

> <CNNaffinity>
6.4501357079

> <CNN_VS>
1.9532748461

> <CNNaffinity_variance>
0.0415210053

$$$$
[H]c1c([H])c(OC([H])(F)F)c([H])c([H])c1C#Cc1c([H])c(O[C@@]([H])(C([H])([H])[H])C([H])([H])OC([H])([H])[H])c([H])c(C(=O)N([H])c2nn(C([H])([H])[H])c([H])c2[H])c1[H]


 34 36  0  0  0  0  0  0  0  0999 V2000
   -2.0103   21.9096  -24.8293 C   0  0  0  0  0  0  0  0  0  0  0  0
   -3.0306   21.8867  -23.8798 C   0  0  0  0  0  0  0  0  0  0  0  0
   -4.3018   22.3053  -24.1403 C   0  0  0  0  0  0  0  0  0  0  0  0
   -4.5639   22.7753  -25.4334 C   0  0  0  0  0  0  0  0  0  0  0  0
   -3.6030   22.8247  -26.4178 C   0  0  0  0  0  0  0  0  0  0  0  0
   -2.3193   22.3795  -26.0821 C   0  0  0  0  0  0  0  0  0  0  0  0
   -3.8846   23.3158  -27.7633 C   0  0  0  0  0  0  0  0  0  0  0  0
   -3.1480   22.9295  -28.7168 O   0  0  0  0  0  0  0  0  0  0  0  0
   -4.9487   24.2062  -28.0406 N   0  0  0  0  0  0  0  0  0  0  0  0
   -5.5931   24.5641  -27.3070 H   0  0  0  0  0  0  0  0  0  0  0  0
   -5.1846   24.6631  -29.3824 C   0  0  0  0  0  0  0  0  0  0  0  0
   -4.6852   25.7855  -29.9873 C   0  0  0  0  0  0  0  0  0  0  0  0
   -5.1854   25.7989  -31.2630 C   0  0  0  0  0  0  0  0  0  0  0  0
   -5.9687   24.7215  -31.4439 N   0  0  0  0  0  0  0  0  0  0  0  0
   -6.6899   24.3689  -32.6713 C   0  0  0  0  0  0  0  0  0  0  0  0
   -5.9568   24.0511  -30.3054 N   0  0  0  0  0  0  0  0  0  0  0  0
   -5.3626   22.2849  -23.1649 C   0  0  0  0  0  0  0  0  0  0  0  0
   -6.2647   22.2772  -22.3616 C   0  0  0  0  0  0  0  0  0  0  0  0
   -7.3530   22.2759  -21.4244 C   0  0  0  0  0  0  0  0  0  0  0  0
   -7.4686   21.2845  -20.4807 C   0  0  0  0  0  0  0  0  0  0  0  0
   -8.4819   21.2316  -19.5646 C   0  0  0  0  0  0  0  0  0  0  0  0
   -9.4806   22.2215  -19.5496 C   0  0  0  0  0  0  0  0  0  0  0  0
   -9.3528   23.2047  -20.4970 C   0  0  0  0  0  0  0  0  0  0  0  0
   -8.3162   23.2493  -21.4259 C   0  0  0  0  0  0  0  0  0  0  0  0
  -10.4791   22.1217  -18.6067 O   0  0  0  0  0  0  0  0  0  0  0  0
  -10.4224   21.2435  -17.5328 C   0  0  0  0  0  0  0  0  0  0  0  0
  -11.3397   20.1996  -17.6837 F   0  0  0  0  0  0  0  0  0  0  0  0
  -10.8045   21.9516  -16.3832 F   0  0  0  0  0  0  0  0  0  0  0  0
   -0.7921   21.4583  -24.4175 O   0  0  0  0  0  0  0  0  0  0  0  0
   -0.0545   21.8595  -23.2942 C   0  0  0  0  0  0  0  0  0  0  0  0
   -0.4493   21.0554  -22.0516 C   0  0  0  0  0  0  0  0  0  0  0  0
    1.3897   21.5119  -23.5748 C   0  0  0  0  0  0  0  0  0  0  0  0
    3.3374   20.4973  -22.8575 C   0  0  0  0  0  0  0  0  0  0  0  0
    2.0328   20.8424  -22.5752 O   0  0  0  0  0  0  0  0  0  0  0  0
 33 34  1  0  0  0
 34 32  1  0  0  0
 32 30  1  0  0  0
 30 31  1  0  0  0
 30 29  1  0  0  0
 29  1  1  0  0  0
  1  2  2  0  0  0
  2  3  1  0  0  0
  3  4  2  0  0  0
  4  5  1  0  0  0
  5  6  2  0  0  0
  5  7  1  0  0  0
  7  8  2  0  0  0
  7  9  1  0  0  0
  9 11  1  0  0  0
 11 12  1  0  0  0
 12 13  2  0  0  0
 13 14  1  0  0  0
 14 15  1  0  0  0
 14 16  1  0  0  0
  3 17  1  0  0  0
 17 18  3  0  0  0
 18 19  1  0  0  0
 19 20  2  0  0  0
 20 21  1  0  0  0
 21 22  2  0  0  0
 22 25  1  0  0  0
 25 26  1  0  0  0
 26 27  1  0  0  0
 26 28  1  0  0  0
 22 23  1  0  0  0
 23 24  2  0  0  0
  6  1  1  0  0  0
 16 11  2  0  0  0
 24 19  1  0  0  0
  9 10  1  0  0  0
M  END
> <minimizedAffinity>
-7.37833

> <CNNscore>
0.2833122909

> <CNNaffinity>
6.4569487572

> <CNN_VS>
1.8293329477

> <CNNaffinity_variance>
0.0942344591

$$$$
[H]c1c([H])c(OC([H])(F)F)c([H])c([H])c1C#Cc1c([H])c(O[C@@]([H])(C([H])([H])[H])C([H])([H])OC([H])([H])[H])c([H])c(C(=O)N([H])c2nn(C([H])([H])[H])c([H])c2[H])c1[H]


 34 36  0  0  0  0  0  0  0  0999 V2000
   -4.8330   21.4475  -17.4031 C   0  0  0  0  0  0  0  0  0  0  0  0
   -4.9122   21.9240  -18.7106 C   0  0  0  0  0  0  0  0  0  0  0  0
   -5.4003   23.1571  -19.0271 C   0  0  0  0  0  0  0  0  0  0  0  0
   -5.8351   23.9604  -17.9653 C   0  0  0  0  0  0  0  0  0  0  0  0
   -5.7848   23.5515  -16.6519 C   0  0  0  0  0  0  0  0  0  0  0  0
   -5.2724   22.2742  -16.3983 C   0  0  0  0  0  0  0  0  0  0  0  0
   -6.2400   24.3952  -15.5510 C   0  0  0  0  0  0  0  0  0  0  0  0
   -5.9052   25.6154  -15.5430 O   0  0  0  0  0  0  0  0  0  0  0  0
   -7.0402   23.9003  -14.4943 N   0  0  0  0  0  0  0  0  0  0  0  0
   -7.3525   22.9100  -14.4365 H   0  0  0  0  0  0  0  0  0  0  0  0
   -7.4619   24.7706  -13.4314 C   0  0  0  0  0  0  0  0  0  0  0  0
   -6.7945   25.0653  -12.2725 C   0  0  0  0  0  0  0  0  0  0  0  0
   -7.5872   25.9384  -11.5747 C   0  0  0  0  0  0  0  0  0  0  0  0
   -8.7086   26.1777  -12.2764 N   0  0  0  0  0  0  0  0  0  0  0  0
   -9.8118   27.0574  -11.8764 C   0  0  0  0  0  0  0  0  0  0  0  0
   -8.6165   25.4689  -13.3877 N   0  0  0  0  0  0  0  0  0  0  0  0
   -5.4855   23.6579  -20.3758 C   0  0  0  0  0  0  0  0  0  0  0  0
   -5.5508   24.0968  -21.4993 C   0  0  0  0  0  0  0  0  0  0  0  0
   -5.6176   24.6400  -22.8272 C   0  0  0  0  0  0  0  0  0  0  0  0
   -4.5049   25.1817  -23.4233 C   0  0  0  0  0  0  0  0  0  0  0  0
   -4.5089   25.7129  -24.6829 C   0  0  0  0  0  0  0  0  0  0  0  0
   -5.6903   25.7276  -25.4457 C   0  0  0  0  0  0  0  0  0  0  0  0
   -6.7929   25.1839  -24.8383 C   0  0  0  0  0  0  0  0  0  0  0  0
   -6.7780   24.6451  -23.5542 C   0  0  0  0  0  0  0  0  0  0  0  0
   -5.6406   26.2744  -26.7084 O   0  0  0  0  0  0  0  0  0  0  0  0
   -5.4100   25.5214  -27.8519 C   0  0  0  0  0  0  0  0  0  0  0  0
   -4.1544   25.8025  -28.3983 F   0  0  0  0  0  0  0  0  0  0  0  0
   -6.3606   25.9020  -28.8112 F   0  0  0  0  0  0  0  0  0  0  0  0
   -4.3217   20.1940  -17.2473 O   0  0  0  0  0  0  0  0  0  0  0  0
   -3.9095   19.2969  -18.2434 C   0  0  0  0  0  0  0  0  0  0  0  0
   -2.5519   18.6733  -17.9049 C   0  0  0  0  0  0  0  0  0  0  0  0
   -4.9037   18.1582  -18.2424 C   0  0  0  0  0  0  0  0  0  0  0  0
   -6.8327   17.4357  -17.1961 C   0  0  0  0  0  0  0  0  0  0  0  0
   -5.5657   17.9635  -17.0656 O   0  0  0  0  0  0  0  0  0  0  0  0
 33 34  1  0  0  0
 34 32  1  0  0  0
 32 30  1  0  0  0
 30 31  1  0  0  0
 30 29  1  0  0  0
 29  1  1  0  0  0
  1  2  2  0  0  0
  2  3  1  0  0  0
  3  4  2  0  0  0
  4  5  1  0  0  0
  5  6  2  0  0  0
  5  7  1  0  0  0
  7  8  2  0  0  0
  7  9  1  0  0  0
  9 11  1  0  0  0
 11 12  1  0  0  0
 12 13  2  0  0  0
 13 14  1  0  0  0
 14 15  1  0  0  0
 14 16  1  0  0  0
  3 17  1  0  0  0
 17 18  3  0  0  0
 18 19  1  0  0  0
 19 20  2  0  0  0
 20 21  1  0  0  0
 21 22  2  0  0  0
 22 25  1  0  0  0
 25 26  1  0  0  0
 26 27  1  0  0  0
 26 28  1  0  0  0
 22 23  1  0  0  0
 23 24  2  0  0  0
  6  1  1  0  0  0
 16 11  2  0  0  0
 24 19  1  0  0  0
  9 10  1  0  0  0
M  END
> <minimizedAffinity>
-5.33342

> <CNNscore>
0.2758935094

> <CNNaffinity>
5.3676185608

> <CNN_VS>
1.4808911085

> <CNNaffinity_variance>
0.2186738253

$$$$
[H]c1c([H])c(OC([H])(F)F)c([H])c([H])c1C#Cc1c([H])c(O[C@@]([H])(C([H])([H])[H])C([H])([H])OC([H])([H])[H])c([H])c(C(=O)N([H])c2nn(C([H])([H])[H])c([H])c2[H])c1[H]


 34 36  0  0  0  0  0  0  0  0999 V2000
   -6.1552   24.2637  -21.6108 C   0  0  0  0  0  0  0  0  0  0  0  0
   -6.0166   24.1072  -20.2326 C   0  0  0  0  0  0  0  0  0  0  0  0
   -4.9689   23.4508  -19.6579 C   0  0  0  0  0  0  0  0  0  0  0  0
   -4.0015   22.9195  -20.5201 C   0  0  0  0  0  0  0  0  0  0  0  0
   -4.0774   23.0381  -21.8894 C   0  0  0  0  0  0  0  0  0  0  0  0
   -5.1794   23.7241  -22.4124 C   0  0  0  0  0  0  0  0  0  0  0  0
   -3.0645   22.4814  -22.7812 C   0  0  0  0  0  0  0  0  0  0  0  0
   -3.1884   21.2827  -23.1669 O   0  0  0  0  0  0  0  0  0  0  0  0
   -1.9514   23.2309  -23.2296 N   0  0  0  0  0  0  0  0  0  0  0  0
   -1.7864   24.2199  -22.9535 H   0  0  0  0  0  0  0  0  0  0  0  0
   -0.9796   22.6374  -24.1061 C   0  0  0  0  0  0  0  0  0  0  0  0
    0.0978   21.8641  -23.7648 C   0  0  0  0  0  0  0  0  0  0  0  0
    0.7273   21.5303  -24.9352 C   0  0  0  0  0  0  0  0  0  0  0  0
    0.0635   22.0776  -25.9681 N   0  0  0  0  0  0  0  0  0  0  0  0
    0.4137   21.9567  -27.3871 C   0  0  0  0  0  0  0  0  0  0  0  0
   -0.9580   22.7383  -25.4523 N   0  0  0  0  0  0  0  0  0  0  0  0
   -4.8175   23.2846  -18.2343 C   0  0  0  0  0  0  0  0  0  0  0  0
   -4.6728   23.1341  -17.0445 C   0  0  0  0  0  0  0  0  0  0  0  0
   -4.4779   22.9452  -15.6342 C   0  0  0  0  0  0  0  0  0  0  0  0
   -5.3604   23.4742  -14.7242 C   0  0  0  0  0  0  0  0  0  0  0  0
   -5.2258   23.3272  -13.3718 C   0  0  0  0  0  0  0  0  0  0  0  0
   -4.1433   22.6052  -12.8383 C   0  0  0  0  0  0  0  0  0  0  0  0
   -3.2704   22.0829  -13.7579 C   0  0  0  0  0  0  0  0  0  0  0  0
   -3.4169   22.2385  -15.1341 C   0  0  0  0  0  0  0  0  0  0  0  0
   -4.0539   22.4869  -11.4694 O   0  0  0  0  0  0  0  0  0  0  0  0
   -3.4550   23.4456  -10.6632 C   0  0  0  0  0  0  0  0  0  0  0  0
   -3.5158   24.7118  -11.2522 F   0  0  0  0  0  0  0  0  0  0  0  0
   -2.0951   23.1188  -10.5514 F   0  0  0  0  0  0  0  0  0  0  0  0
   -7.2576   24.9445  -22.0332 O   0  0  0  0  0  0  0  0  0  0  0  0
   -8.1353   24.6104  -23.0748 C   0  0  0  0  0  0  0  0  0  0  0  0
   -9.5159   25.2396  -22.8639 C   0  0  0  0  0  0  0  0  0  0  0  0
   -7.5782   25.2381  -24.3321 C   0  0  0  0  0  0  0  0  0  0  0  0
   -6.6997   23.7857  -25.8993 C   0  0  0  0  0  0  0  0  0  0  0  0
   -7.7830   24.5275  -25.4783 O   0  0  0  0  0  0  0  0  0  0  0  0
 33 34  1  0  0  0
 34 32  1  0  0  0
 32 30  1  0  0  0
 30 31  1  0  0  0
 30 29  1  0  0  0
 29  1  1  0  0  0
  1  2  2  0  0  0
  2  3  1  0  0  0
  3  4  2  0  0  0
  4  5  1  0  0  0
  5  6  2  0  0  0
  5  7  1  0  0  0
  7  8  2  0  0  0
  7  9  1  0  0  0
  9 11  1  0  0  0
 11 12  1  0  0  0
 12 13  2  0  0  0
 13 14  1  0  0  0
 14 15  1  0  0  0
 14 16  1  0  0  0
  3 17  1  0  0  0
 17 18  3  0  0  0
 18 19  1  0  0  0
 19 20  2  0  0  0
 20 21  1  0  0  0
 21 22  2  0  0  0
 22 25  1  0  0  0
 25 26  1  0  0  0
 26 27  1  0  0  0
 26 28  1  0  0  0
 22 23  1  0  0  0
 23 24  2  0  0  0
  6  1  1  0  0  0
 16 11  2  0  0  0
 24 19  1  0  0  0
  9 10  1  0  0  0
M  END
> <minimizedAffinity>
-5.28196

> <CNNscore>
0.2402805090

> <CNNaffinity>
5.6428608894

> <CNN_VS>
1.3558695316

> <CNNaffinity_variance>
0.5823433995

$$$$
[H]c1c([H])c(OC([H])(F)F)c([H])c([H])c1C#Cc1c([H])c(O[C@@]([H])(C([H])([H])[H])C([H])([H])OC([H])([H])[H])c([H])c(C(=O)N([H])c2nn(C([H])([H])[H])c([H])c2[H])c1[H]


 34 36  0  0  0  0  0  0  0  0999 V2000
    0.2718   20.9944  -20.1544 C   0  0  0  0  0  0  0  0  0  0  0  0
   -0.7133   21.3509  -19.2349 C   0  0  0  0  0  0  0  0  0  0  0  0
   -1.8349   22.0474  -19.5755 C   0  0  0  0  0  0  0  0  0  0  0  0
   -1.9754   22.4074  -20.9217 C   0  0  0  0  0  0  0  0  0  0  0  0
   -1.0409   22.0873  -21.8805 C   0  0  0  0  0  0  0  0  0  0  0  0
    0.0863   21.3714  -21.4619 C   0  0  0  0  0  0  0  0  0  0  0  0
   -1.1951   22.4663  -23.2817 C   0  0  0  0  0  0  0  0  0  0  0  0
   -2.0066   23.3920  -23.5743 O   0  0  0  0  0  0  0  0  0  0  0  0
   -0.4723   21.8382  -24.3233 N   0  0  0  0  0  0  0  0  0  0  0  0
    0.2104   21.0717  -24.1564 H   0  0  0  0  0  0  0  0  0  0  0  0
   -0.6603   22.2458  -25.6884 C   0  0  0  0  0  0  0  0  0  0  0  0
    0.3007   22.5772  -26.6059 C   0  0  0  0  0  0  0  0  0  0  0  0
   -0.3570   22.8951  -27.7652 C   0  0  0  0  0  0  0  0  0  0  0  0
   -1.6813   22.7656  -27.5741 N   0  0  0  0  0  0  0  0  0  0  0  0
   -2.7302   23.0113  -28.5692 C   0  0  0  0  0  0  0  0  0  0  0  0
   -1.8453   22.3752  -26.3224 N   0  0  0  0  0  0  0  0  0  0  0  0
   -2.8584   22.4198  -18.6317 C   0  0  0  0  0  0  0  0  0  0  0  0
   -3.7259   22.7133  -17.8440 C   0  0  0  0  0  0  0  0  0  0  0  0
   -4.7666   23.0388  -16.9092 C   0  0  0  0  0  0  0  0  0  0  0  0
   -4.8594   24.2984  -16.3691 C   0  0  0  0  0  0  0  0  0  0  0  0
   -5.8270   24.6650  -15.4758 C   0  0  0  0  0  0  0  0  0  0  0  0
   -6.7990   23.7382  -15.0586 C   0  0  0  0  0  0  0  0  0  0  0  0
   -6.6942   22.4851  -15.6055 C   0  0  0  0  0  0  0  0  0  0  0  0
   -5.7042   22.1219  -16.5152 C   0  0  0  0  0  0  0  0  0  0  0  0
   -7.7513   24.1581  -14.1571 O   0  0  0  0  0  0  0  0  0  0  0  0
   -8.1478   23.3987  -13.0644 C   0  0  0  0  0  0  0  0  0  0  0  0
   -9.3280   22.7003  -13.3351 F   0  0  0  0  0  0  0  0  0  0  0  0
   -8.4355   24.2827  -12.0135 F   0  0  0  0  0  0  0  0  0  0  0  0
    1.3347   20.2987  -19.6611 O   0  0  0  0  0  0  0  0  0  0  0  0
    2.6762   20.7017  -19.5909 C   0  0  0  0  0  0  0  0  0  0  0  0
    3.3538   20.1661  -18.3258 C   0  0  0  0  0  0  0  0  0  0  0  0
    3.3883   20.0495  -20.7539 C   0  0  0  0  0  0  0  0  0  0  0  0
    5.1449   18.6199  -21.2101 C   0  0  0  0  0  0  0  0  0  0  0  0
    4.0092   18.8687  -20.4690 O   0  0  0  0  0  0  0  0  0  0  0  0
 33 34  1  0  0  0
 34 32  1  0  0  0
 32 30  1  0  0  0
 30 31  1  0  0  0
 30 29  1  0  0  0
 29  1  1  0  0  0
  1  2  2  0  0  0
  2  3  1  0  0  0
  3  4  2  0  0  0
  4  5  1  0  0  0
  5  6  2  0  0  0
  5  7  1  0  0  0
  7  8  2  0  0  0
  7  9  1  0  0  0
  9 11  1  0  0  0
 11 12  1  0  0  0
 12 13  2  0  0  0
 13 14  1  0  0  0
 14 15  1  0  0  0
 14 16  1  0  0  0
  3 17  1  0  0  0
 17 18  3  0  0  0
 18 19  1  0  0  0
 19 20  2  0  0  0
 20 21  1  0  0  0
 21 22  2  0  0  0
 22 25  1  0  0  0
 25 26  1  0  0  0
 26 27  1  0  0  0
 26 28  1  0  0  0
 22 23  1  0  0  0
 23 24  2  0  0  0
  6  1  1  0  0  0
 16 11  2  0  0  0
 24 19  1  0  0  0
  9 10  1  0  0  0
M  END
> <minimizedAffinity>
-5.32574

> <CNNscore>
0.2096557021

> <CNNaffinity>
5.7318968773

> <CNN_VS>
1.2017248869

> <CNNaffinity_variance>
0.2392247468

$$$$
[H]c1c([H])c(OC([H])(F)F)c([H])c([H])c1C#Cc1c([H])c(O[C@@]([H])(C([H])([H])[H])C([H])([H])OC([H])([H])[H])c([H])c(C(=O)N([H])c2nn(C([H])([H])[H])c([H])c2[H])c1[H]


 34 36  0  0  0  0  0  0  0  0999 V2000
   -5.0190   20.6426  -18.7925 C   0  0  0  0  0  0  0  0  0  0  0  0
   -4.9970   21.1143  -20.1040 C   0  0  0  0  0  0  0  0  0  0  0  0
   -5.3074   22.3986  -20.4403 C   0  0  0  0  0  0  0  0  0  0  0  0
   -5.6614   23.2615  -19.3954 C   0  0  0  0  0  0  0  0  0  0  0  0
   -5.7032   22.8607  -18.0792 C   0  0  0  0  0  0  0  0  0  0  0  0
   -5.3727   21.5288  -17.8049 C   0  0  0  0  0  0  0  0  0  0  0  0
   -6.0729   23.7667  -16.9959 C   0  0  0  0  0  0  0  0  0  0  0  0
   -6.2115   24.9974  -17.2548 O   0  0  0  0  0  0  0  0  0  0  0  0
   -6.2819   23.3207  -15.6695 N   0  0  0  0  0  0  0  0  0  0  0  0
   -6.1857   22.3250  -15.3852 H   0  0  0  0  0  0  0  0  0  0  0  0
   -6.6432   24.2523  -14.6368 C   0  0  0  0  0  0  0  0  0  0  0  0
   -5.8086   25.0165  -13.8656 C   0  0  0  0  0  0  0  0  0  0  0  0
   -6.6090   25.7454  -13.0255 C   0  0  0  0  0  0  0  0  0  0  0  0
   -7.8966   25.4440  -13.2667 N   0  0  0  0  0  0  0  0  0  0  0  0
   -9.0636   26.0089  -12.5812 C   0  0  0  0  0  0  0  0  0  0  0  0
   -7.8986   24.5465  -14.2365 N   0  0  0  0  0  0  0  0  0  0  0  0
   -5.2870   22.8948  -21.7932 C   0  0  0  0  0  0  0  0  0  0  0  0
   -5.2502   23.3184  -22.9239 C   0  0  0  0  0  0  0  0  0  0  0  0
   -5.1822   23.8277  -24.2650 C   0  0  0  0  0  0  0  0  0  0  0  0
   -5.9467   23.2798  -25.2661 C   0  0  0  0  0  0  0  0  0  0  0  0
   -5.9232   23.7224  -26.5593 C   0  0  0  0  0  0  0  0  0  0  0  0
   -5.0885   24.7915  -26.9309 C   0  0  0  0  0  0  0  0  0  0  0  0
   -4.3311   25.3286  -25.9219 C   0  0  0  0  0  0  0  0  0  0  0  0
   -4.3626   24.8701  -24.6072 C   0  0  0  0  0  0  0  0  0  0  0  0
   -5.1022   25.1985  -28.2463 O   0  0  0  0  0  0  0  0  0  0  0  0
   -4.2311   24.6970  -29.2041 C   0  0  0  0  0  0  0  0  0  0  0  0
   -3.4347   25.7109  -29.7442 F   0  0  0  0  0  0  0  0  0  0  0  0
   -5.0047   24.1883  -30.2584 F   0  0  0  0  0  0  0  0  0  0  0  0
   -4.6837   19.3335  -18.6160 O   0  0  0  0  0  0  0  0  0  0  0  0
   -5.2919   18.3894  -17.7760 C   0  0  0  0  0  0  0  0  0  0  0  0
   -6.3837   17.6082  -18.5136 C   0  0  0  0  0  0  0  0  0  0  0  0
   -4.2274   17.3788  -17.4142 C   0  0  0  0  0  0  0  0  0  0  0  0
   -2.9435   15.9521  -18.7001 C   0  0  0  0  0  0  0  0  0  0  0  0
   -3.2153   17.2491  -18.3195 O   0  0  0  0  0  0  0  0  0  0  0  0
 33 34  1  0  0  0
 34 32  1  0  0  0
 32 30  1  0  0  0
 30 31  1  0  0  0
 30 29  1  0  0  0
 29  1  1  0  0  0
  1  2  2  0  0  0
  2  3  1  0  0  0
  3  4  2  0  0  0
  4  5  1  0  0  0
  5  6  2  0  0  0
  5  7  1  0  0  0
  7  8  2  0  0  0
  7  9  1  0  0  0
  9 11  1  0  0  0
 11 12  1  0  0  0
 12 13  2  0  0  0
 13 14  1  0  0  0
 14 15  1  0  0  0
 14 16  1  0  0  0
  3 17  1  0  0  0
 17 18  3  0  0  0
 18 19  1  0  0  0
 19 20  2  0  0  0
 20 21  1  0  0  0
 21 22  2  0  0  0
 22 25  1  0  0  0
 25 26  1  0  0  0
 26 27  1  0  0  0
 26 28  1  0  0  0
 22 23  1  0  0  0
 23 24  2  0  0  0
  6  1  1  0  0  0
 16 11  2  0  0  0
 24 19  1  0  0  0
  9 10  1  0  0  0
M  END
> <minimizedAffinity>
-5.81407

> <CNNscore>
0.2049578428

> <CNNaffinity>
5.5014686584

> <CNN_VS>
1.1275691986

> <CNNaffinity_variance>
0.3310848176

$$$$
[H]c1c([H])c(OC([H])(F)F)c([H])c([H])c1C#Cc1c([H])c(O[C@@]([H])(C([H])([H])[H])C([H])([H])OC([H])([H])[H])c([H])c(C(=O)N([H])c2nn(C([H])([H])[H])c([H])c2[H])c1[H]


 34 36  0  0  0  0  0  0  0  0999 V2000
   -1.9630   21.9952  -25.1040 C   0  0  0  0  0  0  0  0  0  0  0  0
   -2.5146   22.1686  -23.8357 C   0  0  0  0  0  0  0  0  0  0  0  0
   -3.6995   22.8071  -23.6183 C   0  0  0  0  0  0  0  0  0  0  0  0
   -4.3711   23.3013  -24.7436 C   0  0  0  0  0  0  0  0  0  0  0  0
   -3.8826   23.1643  -26.0233 C   0  0  0  0  0  0  0  0  0  0  0  0
   -2.6611   22.4983  -26.1742 C   0  0  0  0  0  0  0  0  0  0  0  0
   -4.5891   23.6822  -27.1910 C   0  0  0  0  0  0  0  0  0  0  0  0
   -5.8423   23.5226  -27.2621 O   0  0  0  0  0  0  0  0  0  0  0  0
   -3.9261   24.3549  -28.2444 N   0  0  0  0  0  0  0  0  0  0  0  0
   -2.8996   24.5216  -28.2523 H   0  0  0  0  0  0  0  0  0  0  0  0
   -4.6659   24.8453  -29.3746 C   0  0  0  0  0  0  0  0  0  0  0  0
   -5.2312   24.1180  -30.3879 C   0  0  0  0  0  0  0  0  0  0  0  0
   -5.8295   25.0183  -31.2300 C   0  0  0  0  0  0  0  0  0  0  0  0
   -5.6421   26.2621  -30.7558 N   0  0  0  0  0  0  0  0  0  0  0  0
   -6.1264   27.5054  -31.3646 C   0  0  0  0  0  0  0  0  0  0  0  0
   -4.9420   26.1395  -29.6419 N   0  0  0  0  0  0  0  0  0  0  0  0
   -4.2772   22.9906  -22.3108 C   0  0  0  0  0  0  0  0  0  0  0  0
   -4.7662   23.1236  -21.2143 C   0  0  0  0  0  0  0  0  0  0  0  0
   -5.3497   23.2567  -19.9087 C   0  0  0  0  0  0  0  0  0  0  0  0
   -4.7084   22.7664  -18.7973 C   0  0  0  0  0  0  0  0  0  0  0  0
   -5.2152   22.8638  -17.5314 C   0  0  0  0  0  0  0  0  0  0  0  0
   -6.4542   23.4898  -17.3067 C   0  0  0  0  0  0  0  0  0  0  0  0
   -7.0831   23.9744  -18.4247 C   0  0  0  0  0  0  0  0  0  0  0  0
   -6.5579   23.8700  -19.7103 C   0  0  0  0  0  0  0  0  0  0  0  0
   -6.9199   23.5614  -16.0129 O   0  0  0  0  0  0  0  0  0  0  0  0
   -7.6725   22.5556  -15.4214 C   0  0  0  0  0  0  0  0  0  0  0  0
   -6.9847   21.9694  -14.3550 F   0  0  0  0  0  0  0  0  0  0  0  0
   -7.8640   21.5481  -16.3790 F   0  0  0  0  0  0  0  0  0  0  0  0
   -0.7715   21.3359  -25.1592 O   0  0  0  0  0  0  0  0  0  0  0  0
    0.4640   21.8169  -25.6162 C   0  0  0  0  0  0  0  0  0  0  0  0
    0.3730   23.2914  -26.0211 C   0  0  0  0  0  0  0  0  0  0  0  0
    1.4134   21.7646  -24.4410 C   0  0  0  0  0  0  0  0  0  0  0  0
    1.8022   20.9094  -22.3303 C   0  0  0  0  0  0  0  0  0  0  0  0
    0.8777   21.2898  -23.2797 O   0  0  0  0  0  0  0  0  0  0  0  0
 33 34  1  0  0  0
 34 32  1  0  0  0
 32 30  1  0  0  0
 30 31  1  0  0  0
 30 29  1  0  0  0
 29  1  1  0  0  0
  1  2  2  0  0  0
  2  3  1  0  0  0
  3  4  2  0  0  0
  4  5  1  0  0  0
  5  6  2  0  0  0
  5  7  1  0  0  0
  7  8  2  0  0  0
  7  9  1  0  0  0
  9 11  1  0  0  0
 11 12  1  0  0  0
 12 13  2  0  0  0
 13 14  1  0  0  0
 14 15  1  0  0  0
 14 16  1  0  0  0
  3 17  1  0  0  0
 17 18  3  0  0  0
 18 19  1  0  0  0
 19 20  2  0  0  0
 20 21  1  0  0  0
 21 22  2  0  0  0
 22 25  1  0  0  0
 25 26  1  0  0  0
 26 27  1  0  0  0
 26 28  1  0  0  0
 22 23  1  0  0  0
 23 24  2  0  0  0
  6  1  1  0  0  0
 16 11  2  0  0  0
 24 19  1  0  0  0
  9 10  1  0  0  0
M  END
> <minimizedAffinity>
-6.14008

> <CNNscore>
0.1809241474

> <CNNaffinity>
6.3449316025

> <CNN_VS>
1.1479513645

> <CNNaffinity_variance>
0.2046957314

$$$$
[H]c1c([H])c(OC([H])(F)F)c([H])c([H])c1C#Cc1c([H])c(O[C@@]([H])(C([H])([H])[H])C([H])([H])OC([H])([H])[H])c([H])c(C(=O)N([H])c2nn(C([H])([H])[H])c([H])c2[H])c1[H]


 34 36  0  0  0  0  0  0  0  0999 V2000
   -0.3319   21.7924  -24.0342 C   0  0  0  0  0  0  0  0  0  0  0  0
   -1.1231   21.9589  -22.8987 C   0  0  0  0  0  0  0  0  0  0  0  0
   -2.4085   22.4112  -22.9447 C   0  0  0  0  0  0  0  0  0  0  0  0
   -2.9308   22.7145  -24.2084 C   0  0  0  0  0  0  0  0  0  0  0  0
   -2.2044   22.5729  -25.3690 C   0  0  0  0  0  0  0  0  0  0  0  0
   -0.8913   22.1039  -25.2491 C   0  0  0  0  0  0  0  0  0  0  0  0
   -2.7565   22.8912  -26.6824 C   0  0  0  0  0  0  0  0  0  0  0  0
   -2.0813   22.5982  -27.7116 O   0  0  0  0  0  0  0  0  0  0  0  0
   -4.0162   23.5139  -26.8471 N   0  0  0  0  0  0  0  0  0  0  0  0
   -4.6241   23.7821  -26.0472 H   0  0  0  0  0  0  0  0  0  0  0  0
   -4.5161   23.8087  -28.1618 C   0  0  0  0  0  0  0  0  0  0  0  0
   -5.3140   23.0251  -28.9520 C   0  0  0  0  0  0  0  0  0  0  0  0
   -5.5282   23.7258  -30.1099 C   0  0  0  0  0  0  0  0  0  0  0  0
   -4.8852   24.9043  -30.0410 N   0  0  0  0  0  0  0  0  0  0  0  0
   -4.8643   25.9437  -31.0755 C   0  0  0  0  0  0  0  0  0  0  0  0
   -4.2832   24.9373  -28.8652 N   0  0  0  0  0  0  0  0  0  0  0  0
   -3.2336   22.5861  -21.7761 C   0  0  0  0  0  0  0  0  0  0  0  0
   -3.9079   22.7381  -20.7855 C   0  0  0  0  0  0  0  0  0  0  0  0
   -4.6895   22.9287  -19.5957 C   0  0  0  0  0  0  0  0  0  0  0  0
   -5.8015   23.7350  -19.6053 C   0  0  0  0  0  0  0  0  0  0  0  0
   -6.5825   23.9536  -18.5048 C   0  0  0  0  0  0  0  0  0  0  0  0
   -6.2700   23.3426  -17.2773 C   0  0  0  0  0  0  0  0  0  0  0  0
   -5.1577   22.5407  -17.2823 C   0  0  0  0  0  0  0  0  0  0  0  0
   -4.3688   22.3246  -18.4094 C   0  0  0  0  0  0  0  0  0  0  0  0
   -7.0887   23.5958  -16.1995 O   0  0  0  0  0  0  0  0  0  0  0  0
   -6.6476   24.2276  -15.0445 C   0  0  0  0  0  0  0  0  0  0  0  0
   -5.6771   25.1911  -15.3338 F   0  0  0  0  0  0  0  0  0  0  0  0
   -6.0266   23.2598  -14.2404 F   0  0  0  0  0  0  0  0  0  0  0  0
    0.9336   21.3316  -23.8260 O   0  0  0  0  0  0  0  0  0  0  0  0
    1.6389   21.2541  -22.6163 C   0  0  0  0  0  0  0  0  0  0  0  0
    1.0136   20.2234  -21.6713 C   0  0  0  0  0  0  0  0  0  0  0  0
    3.0182   20.7326  -22.9491 C   0  0  0  0  0  0  0  0  0  0  0  0
    4.4807   19.2810  -21.9042 C   0  0  0  0  0  0  0  0  0  0  0  0
    3.8256   20.4939  -21.8758 O   0  0  0  0  0  0  0  0  0  0  0  0
 33 34  1  0  0  0
 34 32  1  0  0  0
 32 30  1  0  0  0
 30 31  1  0  0  0
 30 29  1  0  0  0
 29  1  1  0  0  0
  1  2  2  0  0  0
  2  3  1  0  0  0
  3  4  2  0  0  0
  4  5  1  0  0  0
  5  6  2  0  0  0
  5  7  1  0  0  0
  7  8  2  0  0  0
  7  9  1  0  0  0
  9 11  1  0  0  0
 11 12  1  0  0  0
 12 13  2  0  0  0
 13 14  1  0  0  0
 14 15  1  0  0  0
 14 16  1  0  0  0
  3 17  1  0  0  0
 17 18  3  0  0  0
 18 19  1  0  0  0
 19 20  2  0  0  0
 20 21  1  0  0  0
 21 22  2  0  0  0
 22 25  1  0  0  0
 25 26  1  0  0  0
 26 27  1  0  0  0
 26 28  1  0  0  0
 22 23  1  0  0  0
 23 24  2  0  0  0
  6  1  1  0  0  0
 16 11  2  0  0  0
 24 19  1  0  0  0
  9 10  1  0  0  0
M  END
> <minimizedAffinity>
-6.73089

> <CNNscore>
0.1794657260

> <CNNaffinity>
6.2729644775

> <CNN_VS>
1.1257821321

> <CNNaffinity_variance>
0.5166432261

$$$$
[H]c1c([H])c(OC([H])(F)F)c([H])c([H])c1C#Cc1c([H])c(O[C@@]([H])(C([H])([H])[H])C([H])([H])OC([H])([H])[H])c([H])c(C(=O)N([H])c2nn(C([H])([H])[H])c([H])c2[H])c1[H]


 34 36  0  0  0  0  0  0  0  0999 V2000
    0.2156   20.3990  -19.8443 C   0  0  0  0  0  0  0  0  0  0  0  0
   -0.6675   20.8837  -18.8808 C   0  0  0  0  0  0  0  0  0  0  0  0
   -1.6330   21.8077  -19.1510 C   0  0  0  0  0  0  0  0  0  0  0  0
   -1.7165   22.2729  -20.4694 C   0  0  0  0  0  0  0  0  0  0  0  0
   -0.8764   21.8364  -21.4687 C   0  0  0  0  0  0  0  0  0  0  0  0
    0.0918   20.8873  -21.1219 C   0  0  0  0  0  0  0  0  0  0  0  0
   -0.9702   22.3263  -22.8406 C   0  0  0  0  0  0  0  0  0  0  0  0
   -1.2687   23.5409  -23.0321 O   0  0  0  0  0  0  0  0  0  0  0  0
   -0.7403   21.4952  -23.9623 N   0  0  0  0  0  0  0  0  0  0  0  0
   -0.4913   20.4889  -23.8798 H   0  0  0  0  0  0  0  0  0  0  0  0
   -0.8467   22.0241  -25.2942 C   0  0  0  0  0  0  0  0  0  0  0  0
    0.1634   22.4726  -26.1028 C   0  0  0  0  0  0  0  0  0  0  0  0
   -0.4221   22.8773  -27.2737 C   0  0  0  0  0  0  0  0  0  0  0  0
   -1.7505   22.6866  -27.1948 N   0  0  0  0  0  0  0  0  0  0  0  0
   -2.7347   22.9910  -28.2387 C   0  0  0  0  0  0  0  0  0  0  0  0
   -1.9876   22.1739  -26.0003 N   0  0  0  0  0  0  0  0  0  0  0  0
   -2.5502   22.3139  -18.1613 C   0  0  0  0  0  0  0  0  0  0  0  0
   -3.3026   22.7476  -17.3217 C   0  0  0  0  0  0  0  0  0  0  0  0
   -4.1783   23.2770  -16.3139 C   0  0  0  0  0  0  0  0  0  0  0  0
   -5.0045   24.3399  -16.5865 C   0  0  0  0  0  0  0  0  0  0  0  0
   -5.8576   24.8852  -15.6680 C   0  0  0  0  0  0  0  0  0  0  0  0
   -5.9272   24.3642  -14.3636 C   0  0  0  0  0  0  0  0  0  0  0  0
   -5.0971   23.3037  -14.1055 C   0  0  0  0  0  0  0  0  0  0  0  0
   -4.2315   22.7555  -15.0488 C   0  0  0  0  0  0  0  0  0  0  0  0
   -6.8027   24.9499  -13.4768 O   0  0  0  0  0  0  0  0  0  0  0  0
   -6.3983   25.8293  -12.4813 C   0  0  0  0  0  0  0  0  0  0  0  0
   -5.3719   26.6651  -12.9307 F   0  0  0  0  0  0  0  0  0  0  0  0
   -5.8654   25.0671  -11.4307 F   0  0  0  0  0  0  0  0  0  0  0  0
    1.1258   19.4777  -19.4201 O   0  0  0  0  0  0  0  0  0  0  0  0
    1.6825   18.4134  -20.1441 C   0  0  0  0  0  0  0  0  0  0  0  0
    3.1909   18.5982  -20.3359 C   0  0  0  0  0  0  0  0  0  0  0  0
    1.5186   17.1749  -19.2930 C   0  0  0  0  0  0  0  0  0  0  0  0
    0.2312   15.2603  -19.1716 C   0  0  0  0  0  0  0  0  0  0  0  0
    1.0251   16.0820  -19.9433 O   0  0  0  0  0  0  0  0  0  0  0  0
 33 34  1  0  0  0
 34 32  1  0  0  0
 32 30  1  0  0  0
 30 31  1  0  0  0
 30 29  1  0  0  0
 29  1  1  0  0  0
  1  2  2  0  0  0
  2  3  1  0  0  0
  3  4  2  0  0  0
  4  5  1  0  0  0
  5  6  2  0  0  0
  5  7  1  0  0  0
  7  8  2  0  0  0
  7  9  1  0  0  0
  9 11  1  0  0  0
 11 12  1  0  0  0
 12 13  2  0  0  0
 13 14  1  0  0  0
 14 15  1  0  0  0
 14 16  1  0  0  0
  3 17  1  0  0  0
 17 18  3  0  0  0
 18 19  1  0  0  0
 19 20  2  0  0  0
 20 21  1  0  0  0
 21 22  2  0  0  0
 22 25  1  0  0  0
 25 26  1  0  0  0
 26 27  1  0  0  0
 26 28  1  0  0  0
 22 23  1  0  0  0
 23 24  2  0  0  0
  6  1  1  0  0  0
 16 11  2  0  0  0
 24 19  1  0  0  0
  9 10  1  0  0  0
M  END
> <minimizedAffinity>
-5.61617

> <CNNscore>
0.1789085120

> <CNNaffinity>
5.4610681534

> <CNN_VS>
0.9770315886

> <CNNaffinity_variance>
0.1610915512

$$$$
[H]OC(=O)C([H])([H])C([H])([H])[C@@]([H])(C(=O)N([H])[C@]([H])(C(=O)N([H])[C@]([H])(/C([H])=C(/[H])C([H])([H])C([H])([H])C([H])([H])C([H])([H])c1c([H])c([H])c([H])c([H])c1[H])C([H])([H])C(=O)O[H])C([H])(C([H])([H])[H])C([H])([H])[H])N([H])C(=O)[C@@]([H])(N([H])C(=O)OC([H])([H])c1c([H])c([H])c([H])c([H])c1[H])C([H])([H])C(=O)O[H]


 59 60  0  0  0  0  0  0  0  0999 V2000
   -6.2536   24.5802  -24.5130 N   0  0  0  0  0  0  0  0  0  0  0  0
   -6.9545   25.1233  -23.4174 C   0  0  0  0  0  0  0  0  0  0  0  0
   -7.2237   26.3857  -23.5186 O   0  0  0  0  0  0  0  0  0  0  0  0
   -5.9756   23.5955  -24.5462 H   0  0  0  0  0  0  0  0  0  0  0  0
   -7.4122   24.4888  -22.1874 C   0  0  0  0  0  0  0  0  0  0  0  0
   -8.8376   24.8319  -21.9332 N   0  0  0  0  0  0  0  0  0  0  0  0
   -9.2213   25.3272  -20.6861 C   0  0  0  0  0  0  0  0  0  0  0  0
   -8.3363   25.4374  -19.7770 O   0  0  0  0  0  0  0  0  0  0  0  0
   -9.4873   24.6732  -22.7208 H   0  0  0  0  0  0  0  0  0  0  0  0
  -10.6507   25.7241  -20.4200 C   0  0  0  0  0  0  0  0  0  0  0  0
  -11.1709   26.5260  -21.3770 N   0  0  0  0  0  0  0  0  0  0  0  0
  -11.7121   27.3287  -22.3681 C   0  0  0  0  0  0  0  0  0  0  0  0
  -12.3432   26.9473  -23.3697 O   0  0  0  0  0  0  0  0  0  0  0  0
  -11.5743   25.4200  -22.0726 H   0  0  0  0  0  0  0  0  0  0  0  0
  -11.5756   28.7489  -22.2984 O   0  0  0  0  0  0  0  0  0  0  0  0
  -12.3837   29.5350  -21.4842 C   0  0  0  0  0  0  0  0  0  0  0  0
  -11.5201   30.2337  -20.4747 C   0  0  0  0  0  0  0  0  0  0  0  0
  -10.2643   29.7187  -20.2110 C   0  0  0  0  0  0  0  0  0  0  0  0
   -9.4529   30.2844  -19.2698 C   0  0  0  0  0  0  0  0  0  0  0  0
   -9.9214   31.3947  -18.5811 C   0  0  0  0  0  0  0  0  0  0  0  0
  -11.1537   31.9258  -18.8180 C   0  0  0  0  0  0  0  0  0  0  0  0
  -11.9697   31.3217  -19.7982 C   0  0  0  0  0  0  0  0  0  0  0  0
  -11.4144   24.3094  -20.3778 C   0  0  0  0  0  0  0  0  0  0  0  0
  -12.3361   24.3250  -19.2586 C   0  0  0  0  0  0  0  0  0  0  0  0
  -12.0538   25.3699  -18.2597 O   0  0  0  0  0  0  0  0  0  0  0  0
  -13.2987   23.6430  -18.9799 O   0  0  0  0  0  0  0  0  0  0  0  0
  -11.5512   26.1701  -18.5666 H   0  0  0  0  0  0  0  0  0  0  0  0
   -7.2317   23.0178  -22.0840 C   0  0  0  0  0  0  0  0  0  0  0  0
   -5.8584   22.5271  -21.7586 C   0  0  0  0  0  0  0  0  0  0  0  0
   -5.0795   23.4119  -20.8678 C   0  0  0  0  0  0  0  0  0  0  0  0
   -5.5022   23.5913  -19.5348 O   0  0  0  0  0  0  0  0  0  0  0  0
   -4.0535   24.0300  -21.1947 O   0  0  0  0  0  0  0  0  0  0  0  0
   -5.2115   22.9329  -18.8352 H   0  0  0  0  0  0  0  0  0  0  0  0
   -5.9007   25.4395  -25.6500 C   0  0  0  0  0  0  0  0  0  0  0  0
   -6.1135   24.7005  -26.9027 C   0  0  0  0  0  0  0  0  0  0  0  0
   -7.0265   23.8542  -27.0189 O   0  0  0  0  0  0  0  0  0  0  0  0
   -5.2501   24.9807  -27.9777 N   0  0  0  0  0  0  0  0  0  0  0  0
   -4.4969   25.6815  -27.8671 H   0  0  0  0  0  0  0  0  0  0  0  0
   -5.3439   24.3333  -29.2583 C   0  0  0  0  0  0  0  0  0  0  0  0
   -4.7511   22.9778  -29.0856 C   0  0  0  0  0  0  0  0  0  0  0  0
   -3.5311   22.7047  -28.6844 C   0  0  0  0  0  0  0  0  0  0  0  0
   -2.5829   23.7716  -28.3406 C   0  0  0  0  0  0  0  0  0  0  0  0
   -1.1436   23.2748  -28.3986 C   0  0  0  0  0  0  0  0  0  0  0  0
   -0.8775   22.1240  -27.4604 C   0  0  0  0  0  0  0  0  0  0  0  0
   -0.0055   22.5384  -26.2872 C   0  0  0  0  0  0  0  0  0  0  0  0
   -0.7507   22.1416  -25.0753 C   0  0  0  0  0  0  0  0  0  0  0  0
   -2.1555   22.1088  -25.0526 C   0  0  0  0  0  0  0  0  0  0  0  0
   -2.8847   21.7453  -23.9368 C   0  0  0  0  0  0  0  0  0  0  0  0
   -2.2070   21.3873  -22.7585 C   0  0  0  0  0  0  0  0  0  0  0  0
   -0.8371   21.4121  -22.7513 C   0  0  0  0  0  0  0  0  0  0  0  0
   -0.1548   21.7818  -23.8841 C   0  0  0  0  0  0  0  0  0  0  0  0
   -4.6539   25.0793  -30.3430 C   0  0  0  0  0  0  0  0  0  0  0  0
   -5.6320   25.8612  -31.1433 C   0  0  0  0  0  0  0  0  0  0  0  0
   -6.4275   25.2440  -32.1031 O   0  0  0  0  0  0  0  0  0  0  0  0
   -5.7601   27.0949  -30.9706 O   0  0  0  0  0  0  0  0  0  0  0  0
   -6.4698   25.5875  -33.0644 H   0  0  0  0  0  0  0  0  0  0  0  0
   -4.4961   27.4744  -25.3874 C   0  0  0  0  0  0  0  0  0  0  0  0
   -4.4842   25.9536  -25.5501 C   0  0  0  0  0  0  0  0  0  0  0  0
   -3.7328   25.4321  -24.3375 C   0  0  0  0  0  0  0  0  0  0  0  0
 57 58  1  0  0  0
 58 59  1  0  0  0
 58 34  1  0  0  0
 34  1  1  0  0  0
  1  2  1  0  0  0
  2  3  2  0  0  0
  2  5  1  0  0  0
  5 28  1  0  0  0
 28 29  1  0  0  0
 29 30  1  0  0  0
 30 31  1  0  0  0
 30 32  2  0  0  0
  5  6  1  0  0  0
  6  7  1  0  0  0
  7  8  2  0  0  0
  7 10  1  0  0  0
 10 23  1  0  0  0
 23 24  1  0  0  0
 24 25  1  0  0  0
 24 26  2  0  0  0
 10 11  1  0  0  0
 11 12  1  0  0  0
 12 13  2  0  0  0
 12 15  1  0  0  0
 15 16  1  0  0  0
 16 17  1  0  0  0
 17 18  2  0  0  0
 18 19  1  0  0  0
 19 20  2  0  0  0
 20 21  1  0  0  0
 21 22  2  0  0  0
 34 35  1  0  0  0
 35 36  2  0  0  0
 35 37  1  0  0  0
 37 39  1  0  0  0
 39 52  1  0  0  0
 52 53  1  0  0  0
 53 54  1  0  0  0
 53 55  2  0  0  0
 39 40  1  0  0  0
 40 41  2  0  0  0
 41 42  1  0  0  0
 42 43  1  0  0  0
 43 44  1  0  0  0
 44 45  1  0  0  0
 45 46  1  0  0  0
 46 47  2  0  0  0
 47 48  1  0  0  0
 48 49  2  0  0  0
 49 50  1  0  0  0
 50 51  2  0  0  0
 22 17  1  0  0  0
 51 46  1  0  0  0
  1  4  1  0  0  0
 31 33  1  0  0  0
  6  9  1  0  0  0
 25 27  1  0  0  0
 11 14  1  0  0  0
 37 38  1  0  0  0
 54 56  1  0  0  0
M  END
> <minimizedAffinity>
-9.37141

> <CNNscore>
0.3405044377

> <CNNaffinity>
7.2763175964

> <CNN_VS>
2.4776184559

> <CNNaffinity_variance>
0.3006132245

$$$$
[H]OC(=O)C([H])([H])C([H])([H])[C@@]([H])(C(=O)N([H])[C@]([H])(C(=O)N([H])[C@]([H])(/C([H])=C(/[H])C([H])([H])C([H])([H])C([H])([H])C([H])([H])c1c([H])c([H])c([H])c([H])c1[H])C([H])([H])C(=O)O[H])C([H])(C([H])([H])[H])C([H])([H])[H])N([H])C(=O)[C@@]([H])(N([H])C(=O)OC([H])([H])c1c([H])c([H])c([H])c([H])c1[H])C([H])([H])C(=O)O[H]


 59 60  0  0  0  0  0  0  0  0999 V2000
   -4.4354   21.3004  -21.4434 N   0  0  0  0  0  0  0  0  0  0  0  0
   -3.7307   21.9873  -20.4345 C   0  0  0  0  0  0  0  0  0  0  0  0
   -3.7849   23.2781  -20.5186 O   0  0  0  0  0  0  0  0  0  0  0  0
   -4.4599   20.2780  -21.4895 H   0  0  0  0  0  0  0  0  0  0  0  0
   -2.9439   21.4715  -19.3210 C   0  0  0  0  0  0  0  0  0  0  0  0
   -1.8694   20.5738  -19.8248 N   0  0  0  0  0  0  0  0  0  0  0  0
   -0.8083   21.1045  -20.5598 C   0  0  0  0  0  0  0  0  0  0  0  0
   -0.8091   22.3523  -20.8145 O   0  0  0  0  0  0  0  0  0  0  0  0
   -1.9761   19.5713  -19.5987 H   0  0  0  0  0  0  0  0  0  0  0  0
    0.3144   20.2220  -21.0414 C   0  0  0  0  0  0  0  0  0  0  0  0
    0.9678   20.7240  -22.1141 N   0  0  0  0  0  0  0  0  0  0  0  0
    1.6569   21.2368  -23.2010 C   0  0  0  0  0  0  0  0  0  0  0  0
    2.8768   21.4715  -23.2626 O   0  0  0  0  0  0  0  0  0  0  0  0
    2.1253   20.7491  -21.3865 H   0  0  0  0  0  0  0  0  0  0  0  0
    0.9640   21.5483  -24.4107 O   0  0  0  0  0  0  0  0  0  0  0  0
   -0.2179   22.2809  -24.4237 C   0  0  0  0  0  0  0  0  0  0  0  0
   -0.6153   22.5336  -25.8489 C   0  0  0  0  0  0  0  0  0  0  0  0
    0.3778   22.6038  -26.8086 C   0  0  0  0  0  0  0  0  0  0  0  0
    0.0807   22.8770  -28.1130 C   0  0  0  0  0  0  0  0  0  0  0  0
   -1.2490   23.0830  -28.4540 C   0  0  0  0  0  0  0  0  0  0  0  0
   -2.2502   23.0204  -27.5318 C   0  0  0  0  0  0  0  0  0  0  0  0
   -1.9137   22.7338  -26.1916 C   0  0  0  0  0  0  0  0  0  0  0  0
    1.2850   20.1448  -19.7614 C   0  0  0  0  0  0  0  0  0  0  0  0
    2.5463   19.5673  -20.1832 C   0  0  0  0  0  0  0  0  0  0  0  0
    3.6401   20.5439  -20.3221 O   0  0  0  0  0  0  0  0  0  0  0  0
    2.8808   18.4324  -20.4469 O   0  0  0  0  0  0  0  0  0  0  0  0
    3.5708   21.3837  -19.7958 H   0  0  0  0  0  0  0  0  0  0  0  0
   -2.3570   22.4729  -18.3935 C   0  0  0  0  0  0  0  0  0  0  0  0
   -2.8896   22.4942  -16.9977 C   0  0  0  0  0  0  0  0  0  0  0  0
   -4.1506   23.2453  -16.8273 C   0  0  0  0  0  0  0  0  0  0  0  0
   -5.3570   22.5355  -16.6592 O   0  0  0  0  0  0  0  0  0  0  0  0
   -4.2484   24.4830  -16.8162 O   0  0  0  0  0  0  0  0  0  0  0  0
   -5.6245   22.2335  -15.7401 H   0  0  0  0  0  0  0  0  0  0  0  0
   -5.1609   22.0588  -22.4702 C   0  0  0  0  0  0  0  0  0  0  0  0
   -6.5264   22.3316  -21.9996 C   0  0  0  0  0  0  0  0  0  0  0  0
   -7.3544   21.4124  -21.8184 O   0  0  0  0  0  0  0  0  0  0  0  0
   -6.8742   23.6728  -21.7548 N   0  0  0  0  0  0  0  0  0  0  0  0
   -6.1801   24.4239  -21.9115 H   0  0  0  0  0  0  0  0  0  0  0  0
   -8.1729   24.0825  -21.2926 C   0  0  0  0  0  0  0  0  0  0  0  0
   -8.8541   24.7071  -22.4606 C   0  0  0  0  0  0  0  0  0  0  0  0
   -8.2863   25.4189  -23.4066 C   0  0  0  0  0  0  0  0  0  0  0  0
   -6.8407   25.6750  -23.4069 C   0  0  0  0  0  0  0  0  0  0  0  0
   -6.4237   26.5017  -24.6170 C   0  0  0  0  0  0  0  0  0  0  0  0
   -6.3469   25.6922  -25.8875 C   0  0  0  0  0  0  0  0  0  0  0  0
   -5.3352   26.2656  -26.8653 C   0  0  0  0  0  0  0  0  0  0  0  0
   -5.3751   25.3804  -28.0471 C   0  0  0  0  0  0  0  0  0  0  0  0
   -5.6481   24.0069  -27.9292 C   0  0  0  0  0  0  0  0  0  0  0  0
   -5.6910   23.1495  -29.0118 C   0  0  0  0  0  0  0  0  0  0  0  0
   -5.4532   23.6568  -30.3010 C   0  0  0  0  0  0  0  0  0  0  0  0
   -5.1824   24.9921  -30.4455 C   0  0  0  0  0  0  0  0  0  0  0  0
   -5.1488   25.8057  -29.3399 C   0  0  0  0  0  0  0  0  0  0  0  0
   -8.1147   25.0264  -20.1458 C   0  0  0  0  0  0  0  0  0  0  0  0
   -7.0461   24.6263  -19.1937 C   0  0  0  0  0  0  0  0  0  0  0  0
   -5.7395   25.0758  -19.3542 O   0  0  0  0  0  0  0  0  0  0  0  0
   -7.2999   23.8737  -18.2255 O   0  0  0  0  0  0  0  0  0  0  0  0
   -4.9499   24.4277  -19.3792 H   0  0  0  0  0  0  0  0  0  0  0  0
   -5.5740   22.3140  -24.9088 C   0  0  0  0  0  0  0  0  0  0  0  0
   -5.1716   21.3414  -23.7990 C   0  0  0  0  0  0  0  0  0  0  0  0
   -3.8105   20.8100  -24.2135 C   0  0  0  0  0  0  0  0  0  0  0  0
 57 58  1  0  0  0
 58 59  1  0  0  0
 58 34  1  0  0  0
 34  1  1  0  0  0
  1  2  1  0  0  0
  2  3  2  0  0  0
  2  5  1  0  0  0
  5 28  1  0  0  0
 28 29  1  0  0  0
 29 30  1  0  0  0
 30 31  1  0  0  0
 30 32  2  0  0  0
  5  6  1  0  0  0
  6  7  1  0  0  0
  7  8  2  0  0  0
  7 10  1  0  0  0
 10 23  1  0  0  0
 23 24  1  0  0  0
 24 25  1  0  0  0
 24 26  2  0  0  0
 10 11  1  0  0  0
 11 12  1  0  0  0
 12 13  2  0  0  0
 12 15  1  0  0  0
 15 16  1  0  0  0
 16 17  1  0  0  0
 17 18  2  0  0  0
 18 19  1  0  0  0
 19 20  2  0  0  0
 20 21  1  0  0  0
 21 22  2  0  0  0
 34 35  1  0  0  0
 35 36  2  0  0  0
 35 37  1  0  0  0
 37 39  1  0  0  0
 39 52  1  0  0  0
 52 53  1  0  0  0
 53 54  1  0  0  0
 53 55  2  0  0  0
 39 40  1  0  0  0
 40 41  2  0  0  0
 41 42  1  0  0  0
 42 43  1  0  0  0
 43 44  1  0  0  0
 44 45  1  0  0  0
 45 46  1  0  0  0
 46 47  2  0  0  0
 47 48  1  0  0  0
 48 49  2  0  0  0
 49 50  1  0  0  0
 50 51  2  0  0  0
 22 17  1  0  0  0
 51 46  1  0  0  0
  1  4  1  0  0  0
 31 33  1  0  0  0
  6  9  1  0  0  0
 25 27  1  0  0  0
 11 14  1  0  0  0
 37 38  1  0  0  0
 54 56  1  0  0  0
M  END
> <minimizedAffinity>
-8.34319

> <CNNscore>
0.2378511429

> <CNNaffinity>
6.9477906227

> <CNN_VS>
1.6525399685

> <CNNaffinity_variance>
0.9520217776

$$$$
[H]OC(=O)C([H])([H])C([H])([H])[C@@]([H])(C(=O)N([H])[C@]([H])(C(=O)N([H])[C@]([H])(/C([H])=C(/[H])C([H])([H])C([H])([H])C([H])([H])C([H])([H])c1c([H])c([H])c([H])c([H])c1[H])C([H])([H])C(=O)O[H])C([H])(C([H])([H])[H])C([H])([H])[H])N([H])C(=O)[C@@]([H])(N([H])C(=O)OC([H])([H])c1c([H])c([H])c([H])c([H])c1[H])C([H])([H])C(=O)O[H]


 59 60  0  0  0  0  0  0  0  0999 V2000
   -7.3243   23.2313  -20.9896 N   0  0  0  0  0  0  0  0  0  0  0  0
   -6.8152   22.2725  -21.8886 C   0  0  0  0  0  0  0  0  0  0  0  0
   -7.5879   21.2530  -22.0880 O   0  0  0  0  0  0  0  0  0  0  0  0
   -6.8024   24.0769  -20.7438 H   0  0  0  0  0  0  0  0  0  0  0  0
   -5.5533   22.2456  -22.6177 C   0  0  0  0  0  0  0  0  0  0  0  0
   -5.3570   23.5258  -23.3503 N   0  0  0  0  0  0  0  0  0  0  0  0
   -5.5319   23.5682  -24.7344 C   0  0  0  0  0  0  0  0  0  0  0  0
   -5.8210   22.4882  -25.3441 O   0  0  0  0  0  0  0  0  0  0  0  0
   -5.0873   24.3393  -22.7732 H   0  0  0  0  0  0  0  0  0  0  0  0
   -5.3829   24.8627  -25.4916 C   0  0  0  0  0  0  0  0  0  0  0  0
   -4.8441   24.7045  -26.7221 N   0  0  0  0  0  0  0  0  0  0  0  0
   -4.2975   24.5644  -27.9874 C   0  0  0  0  0  0  0  0  0  0  0  0
   -4.2533   25.4327  -28.8769 O   0  0  0  0  0  0  0  0  0  0  0  0
   -5.2495   25.9679  -27.0528 H   0  0  0  0  0  0  0  0  0  0  0  0
   -3.7020   23.3272  -28.3812 O   0  0  0  0  0  0  0  0  0  0  0  0
   -2.3358   23.1971  -28.6056 C   0  0  0  0  0  0  0  0  0  0  0  0
   -1.6761   22.7533  -27.3325 C   0  0  0  0  0  0  0  0  0  0  0  0
   -0.3001   22.8471  -27.2345 C   0  0  0  0  0  0  0  0  0  0  0  0
    0.3591   22.4159  -26.1192 C   0  0  0  0  0  0  0  0  0  0  0  0
   -0.3894   21.8788  -25.0810 C   0  0  0  0  0  0  0  0  0  0  0  0
   -1.7463   21.7730  -25.1471 C   0  0  0  0  0  0  0  0  0  0  0  0
   -2.4009   22.2290  -26.3111 C   0  0  0  0  0  0  0  0  0  0  0  0
   -6.8966   25.3968  -25.5912 C   0  0  0  0  0  0  0  0  0  0  0  0
   -7.4424   25.4652  -24.2496 C   0  0  0  0  0  0  0  0  0  0  0  0
   -6.8355   26.5076  -23.4042 O   0  0  0  0  0  0  0  0  0  0  0  0
   -8.3042   24.8294  -23.6818 O   0  0  0  0  0  0  0  0  0  0  0  0
   -6.4163   27.2814  -23.8652 H   0  0  0  0  0  0  0  0  0  0  0  0
   -4.3313   21.9330  -21.8326 C   0  0  0  0  0  0  0  0  0  0  0  0
   -3.7637   23.0354  -20.9989 C   0  0  0  0  0  0  0  0  0  0  0  0
   -2.5066   23.6168  -21.5135 C   0  0  0  0  0  0  0  0  0  0  0  0
   -1.3724   23.6538  -20.6769 O   0  0  0  0  0  0  0  0  0  0  0  0
   -2.3517   24.0889  -22.6514 O   0  0  0  0  0  0  0  0  0  0  0  0
   -0.7704   22.8521  -20.6310 H   0  0  0  0  0  0  0  0  0  0  0  0
   -8.6418   23.0259  -20.3751 C   0  0  0  0  0  0  0  0  0  0  0  0
   -9.3876   24.2925  -20.3885 C   0  0  0  0  0  0  0  0  0  0  0  0
   -9.1288   25.2155  -19.5858 O   0  0  0  0  0  0  0  0  0  0  0  0
  -10.4101   24.4349  -21.3445 N   0  0  0  0  0  0  0  0  0  0  0  0
  -10.6157   23.6621  -22.0011 H   0  0  0  0  0  0  0  0  0  0  0  0
  -11.2179   25.6181  -21.4698 C   0  0  0  0  0  0  0  0  0  0  0  0
  -12.4029   25.2305  -22.2847 C   0  0  0  0  0  0  0  0  0  0  0  0
  -13.6596   25.4919  -22.0083 C   0  0  0  0  0  0  0  0  0  0  0  0
  -14.0372   26.2415  -20.8037 C   0  0  0  0  0  0  0  0  0  0  0  0
  -14.7933   25.3610  -19.8164 C   0  0  0  0  0  0  0  0  0  0  0  0
  -13.8832   24.5059  -18.9703 C   0  0  0  0  0  0  0  0  0  0  0  0
  -14.0798   23.0245  -19.2447 C   0  0  0  0  0  0  0  0  0  0  0  0
  -13.1558   22.3225  -18.3310 C   0  0  0  0  0  0  0  0  0  0  0  0
  -12.1960   23.0187  -17.5767 C   0  0  0  0  0  0  0  0  0  0  0  0
  -11.3147   22.3948  -16.7146 C   0  0  0  0  0  0  0  0  0  0  0  0
  -11.3654   20.9974  -16.5714 C   0  0  0  0  0  0  0  0  0  0  0  0
  -12.2901   20.2925  -17.2963 C   0  0  0  0  0  0  0  0  0  0  0  0
  -13.1447   20.9558  -18.1420 C   0  0  0  0  0  0  0  0  0  0  0  0
  -10.4946   26.7567  -22.0943 C   0  0  0  0  0  0  0  0  0  0  0  0
  -10.6375   27.9829  -21.2671 C   0  0  0  0  0  0  0  0  0  0  0  0
  -10.3524   27.9652  -19.9057 O   0  0  0  0  0  0  0  0  0  0  0  0
  -11.0193   29.0601  -21.7793 O   0  0  0  0  0  0  0  0  0  0  0  0
  -11.0254   28.3000  -19.2137 H   0  0  0  0  0  0  0  0  0  0  0  0
   -8.7393   20.9545  -19.0031 C   0  0  0  0  0  0  0  0  0  0  0  0
   -8.5308   22.4695  -18.9755 C   0  0  0  0  0  0  0  0  0  0  0  0
   -7.1614   22.6686  -18.3495 C   0  0  0  0  0  0  0  0  0  0  0  0
 57 58  1  0  0  0
 58 59  1  0  0  0
 58 34  1  0  0  0
 34  1  1  0  0  0
  1  2  1  0  0  0
  2  3  2  0  0  0
  2  5  1  0  0  0
  5 28  1  0  0  0
 28 29  1  0  0  0
 29 30  1  0  0  0
 30 31  1  0  0  0
 30 32  2  0  0  0
  5  6  1  0  0  0
  6  7  1  0  0  0
  7  8  2  0  0  0
  7 10  1  0  0  0
 10 23  1  0  0  0
 23 24  1  0  0  0
 24 25  1  0  0  0
 24 26  2  0  0  0
 10 11  1  0  0  0
 11 12  1  0  0  0
 12 13  2  0  0  0
 12 15  1  0  0  0
 15 16  1  0  0  0
 16 17  1  0  0  0
 17 18  2  0  0  0
 18 19  1  0  0  0
 19 20  2  0  0  0
 20 21  1  0  0  0
 21 22  2  0  0  0
 34 35  1  0  0  0
 35 36  2  0  0  0
 35 37  1  0  0  0
 37 39  1  0  0  0
 39 52  1  0  0  0
 52 53  1  0  0  0
 53 54  1  0  0  0
 53 55  2  0  0  0
 39 40  1  0  0  0
 40 41  2  0  0  0
 41 42  1  0  0  0
 42 43  1  0  0  0
 43 44  1  0  0  0
 44 45  1  0  0  0
 45 46  1  0  0  0
 46 47  2  0  0  0
 47 48  1  0  0  0
 48 49  2  0  0  0
 49 50  1  0  0  0
 50 51  2  0  0  0
 22 17  1  0  0  0
 51 46  1  0  0  0
  1  4  1  0  0  0
 31 33  1  0  0  0
  6  9  1  0  0  0
 25 27  1  0  0  0
 11 14  1  0  0  0
 37 38  1  0  0  0
 54 56  1  0  0  0
M  END
> <minimizedAffinity>
-7.77201

> <CNNscore>
0.2094428390

> <CNNaffinity>
6.4676008224

> <CNN_VS>
1.3545926809

> <CNNaffinity_variance>
0.7851412892

$$$$
[H]OC(=O)C([H])([H])C([H])([H])[C@@]([H])(C(=O)N([H])[C@]([H])(C(=O)N([H])[C@]([H])(/C([H])=C(/[H])C([H])([H])C([H])([H])C([H])([H])C([H])([H])c1c([H])c([H])c([H])c([H])c1[H])C([H])([H])C(=O)O[H])C([H])(C([H])([H])[H])C([H])([H])[H])N([H])C(=O)[C@@]([H])(N([H])C(=O)OC([H])([H])c1c([H])c([H])c([H])c([H])c1[H])C([H])([H])C(=O)O[H]


 59 60  0  0  0  0  0  0  0  0999 V2000
   -2.8670   22.2721  -20.3345 N   0  0  0  0  0  0  0  0  0  0  0  0
   -1.8954   22.6045  -19.3691 C   0  0  0  0  0  0  0  0  0  0  0  0
   -1.3198   23.7496  -19.5519 O   0  0  0  0  0  0  0  0  0  0  0  0
   -3.3845   21.3894  -20.3033 H   0  0  0  0  0  0  0  0  0  0  0  0
   -1.4321   21.8565  -18.2068 C   0  0  0  0  0  0  0  0  0  0  0  0
   -0.0811   22.3282  -17.7989 N   0  0  0  0  0  0  0  0  0  0  0  0
    0.9426   21.4037  -17.5858 C   0  0  0  0  0  0  0  0  0  0  0  0
    0.6784   20.1642  -17.7111 O   0  0  0  0  0  0  0  0  0  0  0  0
    0.0256   23.3498  -17.6870 H   0  0  0  0  0  0  0  0  0  0  0  0
    2.3304   21.8607  -17.2164 C   0  0  0  0  0  0  0  0  0  0  0  0
    3.3064   21.0742  -17.7248 N   0  0  0  0  0  0  0  0  0  0  0  0
    4.3217   20.2807  -18.2335 C   0  0  0  0  0  0  0  0  0  0  0  0
    5.5381   20.3912  -17.9989 O   0  0  0  0  0  0  0  0  0  0  0  0
    4.2443   21.8483  -17.0994 H   0  0  0  0  0  0  0  0  0  0  0  0
    4.0172   19.2033  -19.1206 O   0  0  0  0  0  0  0  0  0  0  0  0
    4.4485   19.1835  -20.4426 C   0  0  0  0  0  0  0  0  0  0  0  0
    3.4233   19.8708  -21.2967 C   0  0  0  0  0  0  0  0  0  0  0  0
    2.1224   19.9467  -20.8342 C   0  0  0  0  0  0  0  0  0  0  0  0
    1.1378   20.5189  -21.5876 C   0  0  0  0  0  0  0  0  0  0  0  0
    1.4763   21.0253  -22.8348 C   0  0  0  0  0  0  0  0  0  0  0  0
    2.7488   20.9659  -23.3185 C   0  0  0  0  0  0  0  0  0  0  0  0
    3.7463   20.3711  -22.5169 C   0  0  0  0  0  0  0  0  0  0  0  0
    2.4000   23.3404  -17.8426 C   0  0  0  0  0  0  0  0  0  0  0  0
    3.4025   24.0939  -17.1149 C   0  0  0  0  0  0  0  0  0  0  0  0
    3.2087   24.1018  -15.6549 O   0  0  0  0  0  0  0  0  0  0  0  0
    4.3743   24.7239  -17.4728 O   0  0  0  0  0  0  0  0  0  0  0  0
    2.6950   23.3491  -15.2592 H   0  0  0  0  0  0  0  0  0  0  0  0
   -2.3274   21.8363  -17.0214 C   0  0  0  0  0  0  0  0  0  0  0  0
   -3.4662   22.8036  -17.0186 C   0  0  0  0  0  0  0  0  0  0  0  0
   -4.8039   22.1858  -17.1282 C   0  0  0  0  0  0  0  0  0  0  0  0
   -5.9356   23.0150  -17.2671 O   0  0  0  0  0  0  0  0  0  0  0  0
   -5.0302   20.9650  -17.1105 O   0  0  0  0  0  0  0  0  0  0  0  0
   -6.2050   23.3281  -18.1819 H   0  0  0  0  0  0  0  0  0  0  0  0
   -3.1573   23.2083  -21.4277 C   0  0  0  0  0  0  0  0  0  0  0  0
   -4.6132   23.3450  -21.5773 C   0  0  0  0  0  0  0  0  0  0  0  0
   -5.3912   22.4000  -21.3226 O   0  0  0  0  0  0  0  0  0  0  0  0
   -5.1078   24.5863  -22.0183 N   0  0  0  0  0  0  0  0  0  0  0  0
   -4.4526   25.3591  -22.2282 H   0  0  0  0  0  0  0  0  0  0  0  0
   -6.5070   24.8589  -22.2083 C   0  0  0  0  0  0  0  0  0  0  0  0
   -6.6526   25.3370  -23.6114 C   0  0  0  0  0  0  0  0  0  0  0  0
   -6.7179   24.5887  -24.6883 C   0  0  0  0  0  0  0  0  0  0  0  0
   -6.6578   23.1240  -24.6060 C   0  0  0  0  0  0  0  0  0  0  0  0
   -5.3098   22.5962  -25.0815 C   0  0  0  0  0  0  0  0  0  0  0  0
   -4.5566   23.5846  -25.9364 C   0  0  0  0  0  0  0  0  0  0  0  0
   -4.2610   23.0291  -27.3193 C   0  0  0  0  0  0  0  0  0  0  0  0
   -2.7910   22.9074  -27.3957 C   0  0  0  0  0  0  0  0  0  0  0  0
   -2.0380   22.3966  -26.3248 C   0  0  0  0  0  0  0  0  0  0  0  0
   -0.6625   22.2709  -26.3605 C   0  0  0  0  0  0  0  0  0  0  0  0
    0.0348   22.6673  -27.5148 C   0  0  0  0  0  0  0  0  0  0  0  0
   -0.6737   23.1709  -28.5739 C   0  0  0  0  0  0  0  0  0  0  0  0
   -2.0401   23.2786  -28.4920 C   0  0  0  0  0  0  0  0  0  0  0  0
   -7.0435   25.8594  -21.2490 C   0  0  0  0  0  0  0  0  0  0  0  0
   -7.0899   25.2937  -19.8756 C   0  0  0  0  0  0  0  0  0  0  0  0
   -8.2243   24.6372  -19.4098 O   0  0  0  0  0  0  0  0  0  0  0  0
   -6.1067   25.3972  -19.1068 O   0  0  0  0  0  0  0  0  0  0  0  0
   -8.6722   24.9015  -18.5302 H   0  0  0  0  0  0  0  0  0  0  0  0
   -1.1645   23.4879  -22.8881 C   0  0  0  0  0  0  0  0  0  0  0  0
   -2.5104   22.7803  -22.7235 C   0  0  0  0  0  0  0  0  0  0  0  0
   -2.1869   21.2974  -22.7801 C   0  0  0  0  0  0  0  0  0  0  0  0
 57 58  1  0  0  0
 58 59  1  0  0  0
 58 34  1  0  0  0
 34  1  1  0  0  0
  1  2  1  0  0  0
  2  3  2  0  0  0
  2  5  1  0  0  0
  5 28  1  0  0  0
 28 29  1  0  0  0
 29 30  1  0  0  0
 30 31  1  0  0  0
 30 32  2  0  0  0
  5  6  1  0  0  0
  6  7  1  0  0  0
  7  8  2  0  0  0
  7 10  1  0  0  0
 10 23  1  0  0  0
 23 24  1  0  0  0
 24 25  1  0  0  0
 24 26  2  0  0  0
 10 11  1  0  0  0
 11 12  1  0  0  0
 12 13  2  0  0  0
 12 15  1  0  0  0
 15 16  1  0  0  0
 16 17  1  0  0  0
 17 18  2  0  0  0
 18 19  1  0  0  0
 19 20  2  0  0  0
 20 21  1  0  0  0
 21 22  2  0  0  0
 34 35  1  0  0  0
 35 36  2  0  0  0
 35 37  1  0  0  0
 37 39  1  0  0  0
 39 52  1  0  0  0
 52 53  1  0  0  0
 53 54  1  0  0  0
 53 55  2  0  0  0
 39 40  1  0  0  0
 40 41  2  0  0  0
 41 42  1  0  0  0
 42 43  1  0  0  0
 43 44  1  0  0  0
 44 45  1  0  0  0
 45 46  1  0  0  0
 46 47  2  0  0  0
 47 48  1  0  0  0
 48 49  2  0  0  0
 49 50  1  0  0  0
 50 51  2  0  0  0
 22 17  1  0  0  0
 51 46  1  0  0  0
  1  4  1  0  0  0
 31 33  1  0  0  0
  6  9  1  0  0  0
 25 27  1  0  0  0
 11 14  1  0  0  0
 37 38  1  0  0  0
 54 56  1  0  0  0
M  END
> <minimizedAffinity>
-7.00813

> <CNNscore>
0.1824989915

> <CNNaffinity>
6.5949449539

> <CNN_VS>
1.2035708427

> <CNNaffinity_variance>
0.8845461607

$$$$
[H]OC(=O)C([H])([H])C([H])([H])[C@@]([H])(C(=O)N([H])[C@]([H])(C(=O)N([H])[C@]([H])(/C([H])=C(/[H])C([H])([H])C([H])([H])C([H])([H])C([H])([H])c1c([H])c([H])c([H])c([H])c1[H])C([H])([H])C(=O)O[H])C([H])(C([H])([H])[H])C([H])([H])[H])N([H])C(=O)[C@@]([H])(N([H])C(=O)OC([H])([H])c1c([H])c([H])c([H])c([H])c1[H])C([H])([H])C(=O)O[H]


 59 60  0  0  0  0  0  0  0  0999 V2000
   -6.1653   25.1529  -23.3984 N   0  0  0  0  0  0  0  0  0  0  0  0
   -7.1209   24.2275  -22.9325 C   0  0  0  0  0  0  0  0  0  0  0  0
   -6.8770   22.9944  -23.2427 O   0  0  0  0  0  0  0  0  0  0  0  0
   -6.2524   26.1580  -23.2248 H   0  0  0  0  0  0  0  0  0  0  0  0
   -8.3427   24.4439  -22.1675 C   0  0  0  0  0  0  0  0  0  0  0  0
   -8.0639   24.3231  -20.7109 N   0  0  0  0  0  0  0  0  0  0  0  0
   -8.3671   23.1366  -20.0415 C   0  0  0  0  0  0  0  0  0  0  0  0
   -8.9159   22.1922  -20.6962 O   0  0  0  0  0  0  0  0  0  0  0  0
   -7.6517   25.1562  -20.2597 H   0  0  0  0  0  0  0  0  0  0  0  0
   -8.0519   22.9749  -18.5766 C   0  0  0  0  0  0  0  0  0  0  0  0
   -8.7245   21.9566  -17.9932 N   0  0  0  0  0  0  0  0  0  0  0  0
   -9.4323   20.9194  -17.4080 C   0  0  0  0  0  0  0  0  0  0  0  0
  -10.6240   20.6270  -17.6109 O   0  0  0  0  0  0  0  0  0  0  0  0
   -9.8654   22.3547  -18.6335 H   0  0  0  0  0  0  0  0  0  0  0  0
   -8.7940   20.0523  -16.4693 O   0  0  0  0  0  0  0  0  0  0  0  0
   -8.9091   18.6681  -16.5373 C   0  0  0  0  0  0  0  0  0  0  0  0
   -9.8823   18.2112  -15.4899 C   0  0  0  0  0  0  0  0  0  0  0  0
  -10.8185   17.2528  -15.8319 C   0  0  0  0  0  0  0  0  0  0  0  0
  -11.7582   16.8323  -14.9348 C   0  0  0  0  0  0  0  0  0  0  0  0
  -11.7503   17.3927  -13.6649 C   0  0  0  0  0  0  0  0  0  0  0  0
  -10.8410   18.3387  -13.2975 C   0  0  0  0  0  0  0  0  0  0  0  0
   -9.8801   18.7523  -14.2446 C   0  0  0  0  0  0  0  0  0  0  0  0
   -6.4688   22.6917  -18.5788 C   0  0  0  0  0  0  0  0  0  0  0  0
   -5.7886   23.9167  -18.2062 C   0  0  0  0  0  0  0  0  0  0  0  0
   -4.4819   23.7080  -17.5594 O   0  0  0  0  0  0  0  0  0  0  0  0
   -6.0850   25.0865  -18.3212 O   0  0  0  0  0  0  0  0  0  0  0  0
   -4.0091   22.8556  -17.7518 H   0  0  0  0  0  0  0  0  0  0  0  0
   -9.0816   25.7067  -22.4263 C   0  0  0  0  0  0  0  0  0  0  0  0
  -10.3355   25.6024  -23.2321 C   0  0  0  0  0  0  0  0  0  0  0  0
  -11.4486   26.4509  -22.7582 C   0  0  0  0  0  0  0  0  0  0  0  0
  -12.1486   27.2490  -23.6859 O   0  0  0  0  0  0  0  0  0  0  0  0
  -11.8377   26.5266  -21.5816 O   0  0  0  0  0  0  0  0  0  0  0  0
  -12.9123   26.8487  -24.1995 H   0  0  0  0  0  0  0  0  0  0  0  0
   -5.0034   24.6785  -24.1604 C   0  0  0  0  0  0  0  0  0  0  0  0
   -3.8589   24.5174  -23.2522 C   0  0  0  0  0  0  0  0  0  0  0  0
   -3.7911   25.1325  -22.1657 O   0  0  0  0  0  0  0  0  0  0  0  0
   -2.8337   23.6386  -23.6476 N   0  0  0  0  0  0  0  0  0  0  0  0
   -2.9012   23.1379  -24.5505 H   0  0  0  0  0  0  0  0  0  0  0  0
   -1.6585   23.3864  -22.8580 C   0  0  0  0  0  0  0  0  0  0  0  0
   -0.5882   22.9927  -23.8160 C   0  0  0  0  0  0  0  0  0  0  0  0
   -0.7521   22.3468  -24.9473 C   0  0  0  0  0  0  0  0  0  0  0  0
   -2.0845   21.9344  -25.4058 C   0  0  0  0  0  0  0  0  0  0  0  0
   -2.1585   21.8886  -26.9271 C   0  0  0  0  0  0  0  0  0  0  0  0
   -2.7721   23.1295  -27.5263 C   0  0  0  0  0  0  0  0  0  0  0  0
   -4.2504   22.9444  -27.8240 C   0  0  0  0  0  0  0  0  0  0  0  0
   -4.5420   23.8311  -28.9687 C   0  0  0  0  0  0  0  0  0  0  0  0
   -3.8428   25.0344  -29.1646 C   0  0  0  0  0  0  0  0  0  0  0  0
   -4.0905   25.8886  -30.2219 C   0  0  0  0  0  0  0  0  0  0  0  0
   -5.0855   25.5552  -31.1572 C   0  0  0  0  0  0  0  0  0  0  0  0
   -5.7846   24.3888  -30.9900 C   0  0  0  0  0  0  0  0  0  0  0  0
   -5.5044   23.5716  -29.9226 C   0  0  0  0  0  0  0  0  0  0  0  0
   -1.8608   22.3345  -21.8274 C   0  0  0  0  0  0  0  0  0  0  0  0
   -1.7423   22.9107  -20.4627 C   0  0  0  0  0  0  0  0  0  0  0  0
   -0.5018   23.2577  -19.9376 O   0  0  0  0  0  0  0  0  0  0  0  0
   -2.7588   23.0953  -19.7550 O   0  0  0  0  0  0  0  0  0  0  0  0
   -0.1902   22.9121  -19.0279 H   0  0  0  0  0  0  0  0  0  0  0  0
   -5.9237   25.8748  -26.1363 C   0  0  0  0  0  0  0  0  0  0  0  0
   -4.6673   25.6003  -25.3084 C   0  0  0  0  0  0  0  0  0  0  0  0
   -4.1786   26.9686  -24.8659 C   0  0  0  0  0  0  0  0  0  0  0  0
 57 58  1  0  0  0
 58 59  1  0  0  0
 58 34  1  0  0  0
 34  1  1  0  0  0
  1  2  1  0  0  0
  2  3  2  0  0  0
  2  5  1  0  0  0
  5 28  1  0  0  0
 28 29  1  0  0  0
 29 30  1  0  0  0
 30 31  1  0  0  0
 30 32  2  0  0  0
  5  6  1  0  0  0
  6  7  1  0  0  0
  7  8  2  0  0  0
  7 10  1  0  0  0
 10 23  1  0  0  0
 23 24  1  0  0  0
 24 25  1  0  0  0
 24 26  2  0  0  0
 10 11  1  0  0  0
 11 12  1  0  0  0
 12 13  2  0  0  0
 12 15  1  0  0  0
 15 16  1  0  0  0
 16 17  1  0  0  0
 17 18  2  0  0  0
 18 19  1  0  0  0
 19 20  2  0  0  0
 20 21  1  0  0  0
 21 22  2  0  0  0
 34 35  1  0  0  0
 35 36  2  0  0  0
 35 37  1  0  0  0
 37 39  1  0  0  0
 39 52  1  0  0  0
 52 53  1  0  0  0
 53 54  1  0  0  0
 53 55  2  0  0  0
 39 40  1  0  0  0
 40 41  2  0  0  0
 41 42  1  0  0  0
 42 43  1  0  0  0
 43 44  1  0  0  0
 44 45  1  0  0  0
 45 46  1  0  0  0
 46 47  2  0  0  0
 47 48  1  0  0  0
 48 49  2  0  0  0
 49 50  1  0  0  0
 50 51  2  0  0  0
 22 17  1  0  0  0
 51 46  1  0  0  0
  1  4  1  0  0  0
 31 33  1  0  0  0
  6  9  1  0  0  0
 25 27  1  0  0  0
 11 14  1  0  0  0
 37 38  1  0  0  0
 54 56  1  0  0  0
M  END
> <minimizedAffinity>
-7.84794

> <CNNscore>
0.1795099378

> <CNNaffinity>
6.6304497719

> <CNN_VS>
1.1902316809

> <CNNaffinity_variance>
0.2427854091

$$$$
[H]OC(=O)C([H])([H])C([H])([H])[C@@]([H])(C(=O)N([H])[C@]([H])(C(=O)N([H])[C@]([H])(/C([H])=C(/[H])C([H])([H])C([H])([H])C([H])([H])C([H])([H])c1c([H])c([H])c([H])c([H])c1[H])C([H])([H])C(=O)O[H])C([H])(C([H])([H])[H])C([H])([H])[H])N([H])C(=O)[C@@]([H])(N([H])C(=O)OC([H])([H])c1c([H])c([H])c([H])c([H])c1[H])C([H])([H])C(=O)O[H]


 59 60  0  0  0  0  0  0  0  0999 V2000
   -6.5785   26.0552  -23.2222 N   0  0  0  0  0  0  0  0  0  0  0  0
   -7.6746   25.5459  -22.4972 C   0  0  0  0  0  0  0  0  0  0  0  0
   -8.0761   24.3742  -22.8741 O   0  0  0  0  0  0  0  0  0  0  0  0
   -6.1761   26.9754  -23.0241 H   0  0  0  0  0  0  0  0  0  0  0  0
   -8.4307   26.1366  -21.3997 C   0  0  0  0  0  0  0  0  0  0  0  0
   -9.8499   25.6931  -21.4578 N   0  0  0  0  0  0  0  0  0  0  0  0
  -10.7837   26.4439  -22.1735 C   0  0  0  0  0  0  0  0  0  0  0  0
  -10.3980   27.5214  -22.7322 O   0  0  0  0  0  0  0  0  0  0  0  0
  -10.0733   24.8262  -20.9419 H   0  0  0  0  0  0  0  0  0  0  0  0
  -12.2167   25.9905  -22.2841 C   0  0  0  0  0  0  0  0  0  0  0  0
  -13.0854   26.7968  -21.6324 N   0  0  0  0  0  0  0  0  0  0  0  0
  -13.9896   27.6047  -20.9623 C   0  0  0  0  0  0  0  0  0  0  0  0
  -15.0966   27.2629  -20.5098 O   0  0  0  0  0  0  0  0  0  0  0  0
  -13.9809   25.7653  -21.5675 H   0  0  0  0  0  0  0  0  0  0  0  0
  -13.6875   28.9806  -20.7257 O   0  0  0  0  0  0  0  0  0  0  0  0
  -12.6959   29.6563  -21.4286 C   0  0  0  0  0  0  0  0  0  0  0  0
  -11.7082   30.2214  -20.4499 C   0  0  0  0  0  0  0  0  0  0  0  0
  -10.5194   29.5450  -20.2467 C   0  0  0  0  0  0  0  0  0  0  0  0
   -9.6033   29.9861  -19.3354 C   0  0  0  0  0  0  0  0  0  0  0  0
   -9.8956   31.1358  -18.6147 C   0  0  0  0  0  0  0  0  0  0  0  0
  -11.0578   31.8247  -18.7920 C   0  0  0  0  0  0  0  0  0  0  0  0
  -11.9850   31.3468  -19.7425 C   0  0  0  0  0  0  0  0  0  0  0  0
  -12.4820   26.0219  -23.8700 C   0  0  0  0  0  0  0  0  0  0  0  0
  -13.9011   25.8280  -24.0961 C   0  0  0  0  0  0  0  0  0  0  0  0
  -14.5462   26.9178  -24.8481 O   0  0  0  0  0  0  0  0  0  0  0  0
  -14.6669   24.9411  -23.7858 O   0  0  0  0  0  0  0  0  0  0  0  0
  -13.9676   27.4689  -25.4386 H   0  0  0  0  0  0  0  0  0  0  0  0
   -7.9013   25.9217  -20.0282 C   0  0  0  0  0  0  0  0  0  0  0  0
   -7.5469   24.5195  -19.6531 C   0  0  0  0  0  0  0  0  0  0  0  0
   -6.1079   24.1979  -19.7478 C   0  0  0  0  0  0  0  0  0  0  0  0
   -5.5914   23.1251  -18.9928 O   0  0  0  0  0  0  0  0  0  0  0  0
   -5.2860   24.8033  -20.4547 O   0  0  0  0  0  0  0  0  0  0  0  0
   -5.6383   22.1948  -19.3667 H   0  0  0  0  0  0  0  0  0  0  0  0
   -5.9839   25.2555  -24.3005 C   0  0  0  0  0  0  0  0  0  0  0  0
   -4.6855   24.7287  -23.8563 C   0  0  0  0  0  0  0  0  0  0  0  0
   -3.7669   25.4848  -23.4717 O   0  0  0  0  0  0  0  0  0  0  0  0
   -4.5089   23.3330  -23.8756 N   0  0  0  0  0  0  0  0  0  0  0  0
   -5.2764   22.7189  -24.1988 H   0  0  0  0  0  0  0  0  0  0  0  0
   -3.2923   22.6829  -23.4689 C   0  0  0  0  0  0  0  0  0  0  0  0
   -3.0962   21.5406  -24.4043 C   0  0  0  0  0  0  0  0  0  0  0  0
   -2.5192   21.5869  -25.5828 C   0  0  0  0  0  0  0  0  0  0  0  0
   -1.9739   22.8405  -26.1181 C   0  0  0  0  0  0  0  0  0  0  0  0
   -1.3252   22.6269  -27.4802 C   0  0  0  0  0  0  0  0  0  0  0  0
   -2.2445   22.9544  -28.6303 C   0  0  0  0  0  0  0  0  0  0  0  0
   -3.6607   23.2413  -28.1607 C   0  0  0  0  0  0  0  0  0  0  0  0
   -4.2886   24.0286  -29.2411 C   0  0  0  0  0  0  0  0  0  0  0  0
   -3.8415   25.3208  -29.5657 C   0  0  0  0  0  0  0  0  0  0  0  0
   -4.4064   26.0862  -30.5678 C   0  0  0  0  0  0  0  0  0  0  0  0
   -5.4804   25.5645  -31.3094 C   0  0  0  0  0  0  0  0  0  0  0  0
   -5.9385   24.3076  -31.0134 C   0  0  0  0  0  0  0  0  0  0  0  0
   -5.3465   23.5844  -30.0074 C   0  0  0  0  0  0  0  0  0  0  0  0
   -3.3228   22.2141  -22.0587 C   0  0  0  0  0  0  0  0  0  0  0  0
   -2.4501   23.0634  -21.2070 C   0  0  0  0  0  0  0  0  0  0  0  0
   -2.6851   23.1881  -19.8417 O   0  0  0  0  0  0  0  0  0  0  0  0
   -1.4832   23.6868  -21.7019 O   0  0  0  0  0  0  0  0  0  0  0  0
   -2.7743   24.1030  -19.3954 H   0  0  0  0  0  0  0  0  0  0  0  0
   -4.3786   26.0869  -26.0076 C   0  0  0  0  0  0  0  0  0  0  0  0
   -5.8464   26.0467  -25.5795 C   0  0  0  0  0  0  0  0  0  0  0  0
   -6.5846   25.4323  -26.7561 C   0  0  0  0  0  0  0  0  0  0  0  0
 57 58  1  0  0  0
 58 59  1  0  0  0
 58 34  1  0  0  0
 34  1  1  0  0  0
  1  2  1  0  0  0
  2  3  2  0  0  0
  2  5  1  0  0  0
  5 28  1  0  0  0
 28 29  1  0  0  0
 29 30  1  0  0  0
 30 31  1  0  0  0
 30 32  2  0  0  0
  5  6  1  0  0  0
  6  7  1  0  0  0
  7  8  2  0  0  0
  7 10  1  0  0  0
 10 23  1  0  0  0
 23 24  1  0  0  0
 24 25  1  0  0  0
 24 26  2  0  0  0
 10 11  1  0  0  0
 11 12  1  0  0  0
 12 13  2  0  0  0
 12 15  1  0  0  0
 15 16  1  0  0  0
 16 17  1  0  0  0
 17 18  2  0  0  0
 18 19  1  0  0  0
 19 20  2  0  0  0
 20 21  1  0  0  0
 21 22  2  0  0  0
 34 35  1  0  0  0
 35 36  2  0  0  0
 35 37  1  0  0  0
 37 39  1  0  0  0
 39 52  1  0  0  0
 52 53  1  0  0  0
 53 54  1  0  0  0
 53 55  2  0  0  0
 39 40  1  0  0  0
 40 41  2  0  0  0
 41 42  1  0  0  0
 42 43  1  0  0  0
 43 44  1  0  0  0
 44 45  1  0  0  0
 45 46  1  0  0  0
 46 47  2  0  0  0
 47 48  1  0  0  0
 48 49  2  0  0  0
 49 50  1  0  0  0
 50 51  2  0  0  0
 22 17  1  0  0  0
 51 46  1  0  0  0
  1  4  1  0  0  0
 31 33  1  0  0  0
  6  9  1  0  0  0
 25 27  1  0  0  0
 11 14  1  0  0  0
 37 38  1  0  0  0
 54 56  1  0  0  0
M  END
> <minimizedAffinity>
-8.97568

> <CNNscore>
0.1693023741

> <CNNaffinity>
6.7003698349

> <CNN_VS>
1.1343885660

> <CNNaffinity_variance>
0.4703401029

$$$$
[H]OC(=O)C([H])([H])C([H])([H])[C@@]([H])(C(=O)N([H])[C@]([H])(C(=O)N([H])[C@]([H])(/C([H])=C(/[H])C([H])([H])C([H])([H])C([H])([H])C([H])([H])c1c([H])c([H])c([H])c([H])c1[H])C([H])([H])C(=O)O[H])C([H])(C([H])([H])[H])C([H])([H])[H])N([H])C(=O)[C@@]([H])(N([H])C(=O)OC([H])([H])c1c([H])c([H])c([H])c([H])c1[H])C([H])([H])C(=O)O[H]


 59 60  0  0  0  0  0  0  0  0999 V2000
   -4.6123   22.1977  -20.5031 N   0  0  0  0  0  0  0  0  0  0  0  0
   -5.1917   22.5136  -19.2578 C   0  0  0  0  0  0  0  0  0  0  0  0
   -5.5660   23.7466  -19.1316 O   0  0  0  0  0  0  0  0  0  0  0  0
   -4.2688   21.2580  -20.7201 H   0  0  0  0  0  0  0  0  0  0  0  0
   -5.4243   21.6729  -18.0898 C   0  0  0  0  0  0  0  0  0  0  0  0
   -6.2353   22.4083  -17.0820 N   0  0  0  0  0  0  0  0  0  0  0  0
   -5.6355   22.8670  -15.9082 C   0  0  0  0  0  0  0  0  0  0  0  0
   -4.4043   22.6071  -15.7127 O   0  0  0  0  0  0  0  0  0  0  0  0
   -7.2338   22.5377  -17.3137 H   0  0  0  0  0  0  0  0  0  0  0  0
   -6.4260   23.6533  -14.8942 C   0  0  0  0  0  0  0  0  0  0  0  0
   -6.2930   23.1858  -13.6320 N   0  0  0  0  0  0  0  0  0  0  0  0
   -6.1367   22.7186  -12.3372 C   0  0  0  0  0  0  0  0  0  0  0  0
   -5.1845   22.9552  -11.5727 O   0  0  0  0  0  0  0  0  0  0  0  0
   -5.0651   23.7820  -13.5497 H   0  0  0  0  0  0  0  0  0  0  0  0
   -7.1314   21.8779  -11.7504 O   0  0  0  0  0  0  0  0  0  0  0  0
   -6.9950   20.4954  -11.6885 C   0  0  0  0  0  0  0  0  0  0  0  0
   -8.2687   19.8613  -12.1667 C   0  0  0  0  0  0  0  0  0  0  0  0
   -9.3413   19.7970  -11.2965 C   0  0  0  0  0  0  0  0  0  0  0  0
  -10.5096   19.1908  -11.6598 C   0  0  0  0  0  0  0  0  0  0  0  0
  -10.5948   18.6383  -12.9304 C   0  0  0  0  0  0  0  0  0  0  0  0
   -9.5559   18.6855  -13.8107 C   0  0  0  0  0  0  0  0  0  0  0  0
   -8.3615   19.3205  -13.4087 C   0  0  0  0  0  0  0  0  0  0  0  0
   -5.8098   25.1329  -15.0273 C   0  0  0  0  0  0  0  0  0  0  0  0
   -6.4806   25.9910  -14.0701 C   0  0  0  0  0  0  0  0  0  0  0  0
   -5.5706   26.6959  -13.1511 O   0  0  0  0  0  0  0  0  0  0  0  0
   -7.6498   26.2440  -13.8745 O   0  0  0  0  0  0  0  0  0  0  0  0
   -4.6367   26.8415  -13.4570 H   0  0  0  0  0  0  0  0  0  0  0  0
   -6.0302   20.3384  -18.3336 C   0  0  0  0  0  0  0  0  0  0  0  0
   -6.7442   19.7011  -17.1862 C   0  0  0  0  0  0  0  0  0  0  0  0
   -8.2181   19.7163  -17.2884 C   0  0  0  0  0  0  0  0  0  0  0  0
   -8.8781   18.6212  -17.8825 O   0  0  0  0  0  0  0  0  0  0  0  0
   -8.9523   20.6326  -16.8847 O   0  0  0  0  0  0  0  0  0  0  0  0
   -9.1065   17.8221  -17.3198 H   0  0  0  0  0  0  0  0  0  0  0  0
   -4.4870   23.2370  -21.5326 C   0  0  0  0  0  0  0  0  0  0  0  0
   -5.6670   23.1991  -22.4083 C   0  0  0  0  0  0  0  0  0  0  0  0
   -6.1423   22.1197  -22.8233 O   0  0  0  0  0  0  0  0  0  0  0  0
   -6.2512   24.4282  -22.7658 N   0  0  0  0  0  0  0  0  0  0  0  0
   -5.8460   25.3142  -22.4175 H   0  0  0  0  0  0  0  0  0  0  0  0
   -7.4068   24.5385  -23.6146 C   0  0  0  0  0  0  0  0  0  0  0  0
   -7.0087   25.4159  -24.7504 C   0  0  0  0  0  0  0  0  0  0  0  0
   -6.6396   25.0236  -25.9478 C   0  0  0  0  0  0  0  0  0  0  0  0
   -6.5890   23.6001  -26.3038 C   0  0  0  0  0  0  0  0  0  0  0  0
   -5.2044   23.0146  -26.0548 C   0  0  0  0  0  0  0  0  0  0  0  0
   -4.0974   23.8328  -26.6714 C   0  0  0  0  0  0  0  0  0  0  0  0
   -3.5640   23.1976  -27.9444 C   0  0  0  0  0  0  0  0  0  0  0  0
   -4.2046   23.9301  -29.0556 C   0  0  0  0  0  0  0  0  0  0  0  0
   -5.2167   23.3455  -29.8360 C   0  0  0  0  0  0  0  0  0  0  0  0
   -5.8357   23.9998  -30.8838 C   0  0  0  0  0  0  0  0  0  0  0  0
   -5.4486   25.3138  -31.1992 C   0  0  0  0  0  0  0  0  0  0  0  0
   -4.4627   25.9081  -30.4562 C   0  0  0  0  0  0  0  0  0  0  0  0
   -3.8749   25.2179  -29.4249 C   0  0  0  0  0  0  0  0  0  0  0  0
   -8.5974   25.0864  -22.9135 C   0  0  0  0  0  0  0  0  0  0  0  0
   -8.2166   25.6289  -21.5834 C   0  0  0  0  0  0  0  0  0  0  0  0
   -8.1302   24.7993  -20.4702 O   0  0  0  0  0  0  0  0  0  0  0  0
   -7.9659   26.8470  -21.4364 O   0  0  0  0  0  0  0  0  0  0  0  0
   -8.6276   25.0132  -19.6036 H   0  0  0  0  0  0  0  0  0  0  0  0
   -2.0102   23.4355  -21.4412 C   0  0  0  0  0  0  0  0  0  0  0  0
   -3.2101   23.0940  -22.3261 C   0  0  0  0  0  0  0  0  0  0  0  0
   -2.9524   21.6783  -22.8123 C   0  0  0  0  0  0  0  0  0  0  0  0
 57 58  1  0  0  0
 58 59  1  0  0  0
 58 34  1  0  0  0
 34  1  1  0  0  0
  1  2  1  0  0  0
  2  3  2  0  0  0
  2  5  1  0  0  0
  5 28  1  0  0  0
 28 29  1  0  0  0
 29 30  1  0  0  0
 30 31  1  0  0  0
 30 32  2  0  0  0
  5  6  1  0  0  0
  6  7  1  0  0  0
  7  8  2  0  0  0
  7 10  1  0  0  0
 10 23  1  0  0  0
 23 24  1  0  0  0
 24 25  1  0  0  0
 24 26  2  0  0  0
 10 11  1  0  0  0
 11 12  1  0  0  0
 12 13  2  0  0  0
 12 15  1  0  0  0
 15 16  1  0  0  0
 16 17  1  0  0  0
 17 18  2  0  0  0
 18 19  1  0  0  0
 19 20  2  0  0  0
 20 21  1  0  0  0
 21 22  2  0  0  0
 34 35  1  0  0  0
 35 36  2  0  0  0
 35 37  1  0  0  0
 37 39  1  0  0  0
 39 52  1  0  0  0
 52 53  1  0  0  0
 53 54  1  0  0  0
 53 55  2  0  0  0
 39 40  1  0  0  0
 40 41  2  0  0  0
 41 42  1  0  0  0
 42 43  1  0  0  0
 43 44  1  0  0  0
 44 45  1  0  0  0
 45 46  1  0  0  0
 46 47  2  0  0  0
 47 48  1  0  0  0
 48 49  2  0  0  0
 49 50  1  0  0  0
 50 51  2  0  0  0
 22 17  1  0  0  0
 51 46  1  0  0  0
  1  4  1  0  0  0
 31 33  1  0  0  0
  6  9  1  0  0  0
 25 27  1  0  0  0
 11 14  1  0  0  0
 37 38  1  0  0  0
 54 56  1  0  0  0
M  END
> <minimizedAffinity>
-6.84277

> <CNNscore>
0.1638676524

> <CNNaffinity>
6.1780347824

> <CNN_VS>
1.0123800039

> <CNNaffinity_variance>
0.1357815564

$$$$
[H]OC(=O)C([H])([H])C([H])([H])[C@@]([H])(C(=O)N([H])[C@]([H])(C(=O)N([H])[C@]([H])(/C([H])=C(/[H])C([H])([H])C([H])([H])C([H])([H])C([H])([H])c1c([H])c([H])c([H])c([H])c1[H])C([H])([H])C(=O)O[H])C([H])(C([H])([H])[H])C([H])([H])[H])N([H])C(=O)[C@@]([H])(N([H])C(=O)OC([H])([H])c1c([H])c([H])c([H])c([H])c1[H])C([H])([H])C(=O)O[H]


 59 60  0  0  0  0  0  0  0  0999 V2000
   -6.3879   25.2679  -23.6662 N   0  0  0  0  0  0  0  0  0  0  0  0
   -7.4146   24.8535  -22.7941 C   0  0  0  0  0  0  0  0  0  0  0  0
   -7.5475   23.5703  -22.6848 O   0  0  0  0  0  0  0  0  0  0  0  0
   -6.1909   26.2568  -23.8428 H   0  0  0  0  0  0  0  0  0  0  0  0
   -8.3540   25.6430  -22.0071 C   0  0  0  0  0  0  0  0  0  0  0  0
   -9.7510   25.3376  -22.4185 N   0  0  0  0  0  0  0  0  0  0  0  0
  -10.6732   26.3742  -22.5697 C   0  0  0  0  0  0  0  0  0  0  0  0
  -10.2988   27.5636  -22.3112 O   0  0  0  0  0  0  0  0  0  0  0  0
   -9.9689   24.3389  -22.5692 H   0  0  0  0  0  0  0  0  0  0  0  0
  -12.0809   26.0937  -23.0292 C   0  0  0  0  0  0  0  0  0  0  0  0
  -12.7770   25.3096  -22.1747 N   0  0  0  0  0  0  0  0  0  0  0  0
  -13.5056   24.5024  -21.3163 C   0  0  0  0  0  0  0  0  0  0  0  0
  -14.5699   23.9136  -21.5757 O   0  0  0  0  0  0  0  0  0  0  0  0
  -13.7481   25.1514  -23.1245 H   0  0  0  0  0  0  0  0  0  0  0  0
  -13.0481   24.2726  -19.9827 O   0  0  0  0  0  0  0  0  0  0  0  0
  -11.7343   23.9170  -19.6976 C   0  0  0  0  0  0  0  0  0  0  0  0
  -11.7423   22.7197  -18.7925 C   0  0  0  0  0  0  0  0  0  0  0  0
  -10.5369   22.1144  -18.4879 C   0  0  0  0  0  0  0  0  0  0  0  0
  -10.4866   20.9950  -17.7076 C   0  0  0  0  0  0  0  0  0  0  0  0
  -11.6806   20.4773  -17.2248 C   0  0  0  0  0  0  0  0  0  0  0  0
  -12.8841   21.0507  -17.5070 C   0  0  0  0  0  0  0  0  0  0  0  0
  -12.9054   22.2082  -18.3139 C   0  0  0  0  0  0  0  0  0  0  0  0
  -12.7289   27.5629  -23.1190 C   0  0  0  0  0  0  0  0  0  0  0  0
  -13.4332   27.6712  -24.3818 C   0  0  0  0  0  0  0  0  0  0  0  0
  -12.6186   27.3228  -25.5584 O   0  0  0  0  0  0  0  0  0  0  0  0
  -14.5671   27.9949  -24.6628 O   0  0  0  0  0  0  0  0  0  0  0  0
  -11.8438   26.7181  -25.4135 H   0  0  0  0  0  0  0  0  0  0  0  0
   -8.2408   25.5431  -20.5291 C   0  0  0  0  0  0  0  0  0  0  0  0
   -6.8618   25.5653  -19.9543 C   0  0  0  0  0  0  0  0  0  0  0  0
   -6.6941   24.7764  -18.7162 C   0  0  0  0  0  0  0  0  0  0  0  0
   -5.6913   25.1447  -17.7962 O   0  0  0  0  0  0  0  0  0  0  0  0
   -7.3777   23.7892  -18.4006 O   0  0  0  0  0  0  0  0  0  0  0  0
   -5.8918   25.8458  -17.1066 H   0  0  0  0  0  0  0  0  0  0  0  0
   -5.5667   24.2634  -24.3535 C   0  0  0  0  0  0  0  0  0  0  0  0
   -4.1784   24.3640  -23.8811 C   0  0  0  0  0  0  0  0  0  0  0  0
   -3.6222   25.4704  -23.7083 O   0  0  0  0  0  0  0  0  0  0  0  0
   -3.4901   23.1639  -23.6248 N   0  0  0  0  0  0  0  0  0  0  0  0
   -3.9615   22.2551  -23.7745 H   0  0  0  0  0  0  0  0  0  0  0  0
   -2.1302   23.1148  -23.1595 C   0  0  0  0  0  0  0  0  0  0  0  0
   -1.5269   21.8930  -23.7609 C   0  0  0  0  0  0  0  0  0  0  0  0
   -1.0444   21.7780  -24.9766 C   0  0  0  0  0  0  0  0  0  0  0  0
   -1.0469   22.9111  -25.9101 C   0  0  0  0  0  0  0  0  0  0  0  0
   -0.7254   22.4611  -27.3300 C   0  0  0  0  0  0  0  0  0  0  0  0
   -1.6710   23.0301  -28.3584 C   0  0  0  0  0  0  0  0  0  0  0  0
   -3.1247   22.8291  -27.9651 C   0  0  0  0  0  0  0  0  0  0  0  0
   -3.9143   23.6067  -28.9415 C   0  0  0  0  0  0  0  0  0  0  0  0
   -3.5608   24.9201  -29.2951 C   0  0  0  0  0  0  0  0  0  0  0  0
   -4.2771   25.6771  -30.2022 C   0  0  0  0  0  0  0  0  0  0  0  0
   -5.4169   25.1243  -30.8114 C   0  0  0  0  0  0  0  0  0  0  0  0
   -5.7863   23.8462  -30.4839 C   0  0  0  0  0  0  0  0  0  0  0  0
   -5.0442   23.1323  -29.5756 C   0  0  0  0  0  0  0  0  0  0  0  0
   -2.0197   23.0862  -21.6775 C   0  0  0  0  0  0  0  0  0  0  0  0
   -3.2882   22.6085  -21.0682 C   0  0  0  0  0  0  0  0  0  0  0  0
   -3.6350   21.2618  -21.1005 O   0  0  0  0  0  0  0  0  0  0  0  0
   -4.0736   23.4103  -20.5127 O   0  0  0  0  0  0  0  0  0  0  0  0
   -4.5404   20.9509  -21.4578 H   0  0  0  0  0  0  0  0  0  0  0  0
   -6.8716   23.6500  -26.3792 C   0  0  0  0  0  0  0  0  0  0  0  0
   -5.6465   24.4012  -25.8552 C   0  0  0  0  0  0  0  0  0  0  0  0
   -5.8306   25.8338  -26.3248 C   0  0  0  0  0  0  0  0  0  0  0  0
 57 58  1  0  0  0
 58 59  1  0  0  0
 58 34  1  0  0  0
 34  1  1  0  0  0
  1  2  1  0  0  0
  2  3  2  0  0  0
  2  5  1  0  0  0
  5 28  1  0  0  0
 28 29  1  0  0  0
 29 30  1  0  0  0
 30 31  1  0  0  0
 30 32  2  0  0  0
  5  6  1  0  0  0
  6  7  1  0  0  0
  7  8  2  0  0  0
  7 10  1  0  0  0
 10 23  1  0  0  0
 23 24  1  0  0  0
 24 25  1  0  0  0
 24 26  2  0  0  0
 10 11  1  0  0  0
 11 12  1  0  0  0
 12 13  2  0  0  0
 12 15  1  0  0  0
 15 16  1  0  0  0
 16 17  1  0  0  0
 17 18  2  0  0  0
 18 19  1  0  0  0
 19 20  2  0  0  0
 20 21  1  0  0  0
 21 22  2  0  0  0
 34 35  1  0  0  0
 35 36  2  0  0  0
 35 37  1  0  0  0
 37 39  1  0  0  0
 39 52  1  0  0  0
 52 53  1  0  0  0
 53 54  1  0  0  0
 53 55  2  0  0  0
 39 40  1  0  0  0
 40 41  2  0  0  0
 41 42  1  0  0  0
 42 43  1  0  0  0
 43 44  1  0  0  0
 44 45  1  0  0  0
 45 46  1  0  0  0
 46 47  2  0  0  0
 47 48  1  0  0  0
 48 49  2  0  0  0
 49 50  1  0  0  0
 50 51  2  0  0  0
 22 17  1  0  0  0
 51 46  1  0  0  0
  1  4  1  0  0  0
 31 33  1  0  0  0
  6  9  1  0  0  0
 25 27  1  0  0  0
 11 14  1  0  0  0
 37 38  1  0  0  0
 54 56  1  0  0  0
M  END
> <minimizedAffinity>
-8.58816

> <CNNscore>
0.1595648974

> <CNNaffinity>
6.5299024582

> <CNN_VS>
1.0419431925

> <CNNaffinity_variance>
0.9336484671

$$$$
[H]OC(=O)C([H])([H])C([H])([H])[C@@]([H])(C(=O)N([H])[C@]([H])(C(=O)N([H])[C@]([H])(/C([H])=C(/[H])C([H])([H])C([H])([H])C([H])([H])C([H])([H])c1c([H])c([H])c([H])c([H])c1[H])C([H])([H])C(=O)O[H])C([H])(C([H])([H])[H])C([H])([H])[H])N([H])C(=O)[C@@]([H])(N([H])C(=O)OC([H])([H])c1c([H])c([H])c([H])c([H])c1[H])C([H])([H])C(=O)O[H]


 59 60  0  0  0  0  0  0  0  0999 V2000
   -4.8360   21.7899  -21.0876 N   0  0  0  0  0  0  0  0  0  0  0  0
   -3.9558   22.5078  -20.2532 C   0  0  0  0  0  0  0  0  0  0  0  0
   -3.6496   23.6914  -20.6795 O   0  0  0  0  0  0  0  0  0  0  0  0
   -5.1446   20.8401  -20.8628 H   0  0  0  0  0  0  0  0  0  0  0  0
   -3.3303   22.1217  -18.9944 C   0  0  0  0  0  0  0  0  0  0  0  0
   -1.8782   22.4452  -19.0229 N   0  0  0  0  0  0  0  0  0  0  0  0
   -0.9411   21.4218  -19.1720 C   0  0  0  0  0  0  0  0  0  0  0  0
   -1.3584   20.2206  -19.2422 O   0  0  0  0  0  0  0  0  0  0  0  0
   -1.6365   23.4446  -18.9215 H   0  0  0  0  0  0  0  0  0  0  0  0
    0.5322   21.7298  -19.2491 C   0  0  0  0  0  0  0  0  0  0  0  0
    1.0985   21.3491  -20.4170 N   0  0  0  0  0  0  0  0  0  0  0  0
    1.6941   20.9466  -21.6013 C   0  0  0  0  0  0  0  0  0  0  0  0
    2.6852   20.2044  -21.7187 O   0  0  0  0  0  0  0  0  0  0  0  0
    2.0723   20.6891  -19.7198 H   0  0  0  0  0  0  0  0  0  0  0  0
    1.1695   21.3845  -22.8557 O   0  0  0  0  0  0  0  0  0  0  0  0
   -0.1928   21.5616  -23.0716 C   0  0  0  0  0  0  0  0  0  0  0  0
   -0.4113   21.9287  -24.5105 C   0  0  0  0  0  0  0  0  0  0  0  0
    0.6363   21.7695  -25.3988 C   0  0  0  0  0  0  0  0  0  0  0  0
    0.5109   22.1298  -26.7098 C   0  0  0  0  0  0  0  0  0  0  0  0
   -0.6998   22.6620  -27.1313 C   0  0  0  0  0  0  0  0  0  0  0  0
   -1.7507   22.8313  -26.2806 C   0  0  0  0  0  0  0  0  0  0  0  0
   -1.5931   22.4477  -24.9317 C   0  0  0  0  0  0  0  0  0  0  0  0
    0.5739   23.3290  -19.0843 C   0  0  0  0  0  0  0  0  0  0  0  0
    1.8671   23.6950  -18.5400 C   0  0  0  0  0  0  0  0  0  0  0  0
    2.1537   25.1390  -18.5859 O   0  0  0  0  0  0  0  0  0  0  0  0
    2.7654   23.0434  -18.0525 O   0  0  0  0  0  0  0  0  0  0  0  0
    1.3766   25.7573  -18.6146 H   0  0  0  0  0  0  0  0  0  0  0  0
   -3.9338   22.6659  -17.7506 C   0  0  0  0  0  0  0  0  0  0  0  0
   -5.4007   22.9483  -17.7792 C   0  0  0  0  0  0  0  0  0  0  0  0
   -5.7651   24.3580  -17.5274 C   0  0  0  0  0  0  0  0  0  0  0  0
   -5.8418   24.8221  -16.1983 O   0  0  0  0  0  0  0  0  0  0  0  0
   -6.0161   25.1984  -18.4062 O   0  0  0  0  0  0  0  0  0  0  0  0
   -5.0079   25.1457  -15.7429 H   0  0  0  0  0  0  0  0  0  0  0  0
   -5.3339   22.4071  -22.3233 C   0  0  0  0  0  0  0  0  0  0  0  0
   -6.6647   22.9813  -22.0782 C   0  0  0  0  0  0  0  0  0  0  0  0
   -7.6616   22.2589  -21.8602 O   0  0  0  0  0  0  0  0  0  0  0  0
   -6.7810   24.3834  -22.0947 N   0  0  0  0  0  0  0  0  0  0  0  0
   -5.9484   24.9694  -22.2790 H   0  0  0  0  0  0  0  0  0  0  0  0
   -8.0203   25.0779  -21.8710 C   0  0  0  0  0  0  0  0  0  0  0  0
   -8.5565   25.4198  -23.2179 C   0  0  0  0  0  0  0  0  0  0  0  0
   -7.8528   25.6705  -24.2976 C   0  0  0  0  0  0  0  0  0  0  0  0
   -6.3853   25.6275  -24.2806 C   0  0  0  0  0  0  0  0  0  0  0  0
   -5.7861   26.8628  -24.9415 C   0  0  0  0  0  0  0  0  0  0  0  0
   -5.3178   26.6093  -26.3528 C   0  0  0  0  0  0  0  0  0  0  0  0
   -4.5654   25.2948  -26.4734 C   0  0  0  0  0  0  0  0  0  0  0  0
   -4.8998   24.7638  -27.8105 C   0  0  0  0  0  0  0  0  0  0  0  0
   -5.3146   25.6076  -28.8550 C   0  0  0  0  0  0  0  0  0  0  0  0
   -5.6373   25.1455  -30.1166 C   0  0  0  0  0  0  0  0  0  0  0  0
   -5.5525   23.7689  -30.3876 C   0  0  0  0  0  0  0  0  0  0  0  0
   -5.1527   22.9224  -29.3871 C   0  0  0  0  0  0  0  0  0  0  0  0
   -4.8435   23.4273  -28.1482 C   0  0  0  0  0  0  0  0  0  0  0  0
   -7.8647   26.2983  -21.0370 C   0  0  0  0  0  0  0  0  0  0  0  0
   -9.1819   26.7446  -20.5134 C   0  0  0  0  0  0  0  0  0  0  0  0
   -9.6449   28.0354  -20.7470 O   0  0  0  0  0  0  0  0  0  0  0  0
   -9.9038   25.9666  -19.8487 O   0  0  0  0  0  0  0  0  0  0  0  0
   -9.9563   28.6386  -19.9833 H   0  0  0  0  0  0  0  0  0  0  0  0
   -5.8305   22.1343  -24.7443 C   0  0  0  0  0  0  0  0  0  0  0  0
   -5.3624   21.4268  -23.4716 C   0  0  0  0  0  0  0  0  0  0  0  0
   -3.9981   20.8550  -23.8162 C   0  0  0  0  0  0  0  0  0  0  0  0
 57 58  1  0  0  0
 58 59  1  0  0  0
 58 34  1  0  0  0
 34  1  1  0  0  0
  1  2  1  0  0  0
  2  3  2  0  0  0
  2  5  1  0  0  0
  5 28  1  0  0  0
 28 29  1  0  0  0
 29 30  1  0  0  0
 30 31  1  0  0  0
 30 32  2  0  0  0
  5  6  1  0  0  0
  6  7  1  0  0  0
  7  8  2  0  0  0
  7 10  1  0  0  0
 10 23  1  0  0  0
 23 24  1  0  0  0
 24 25  1  0  0  0
 24 26  2  0  0  0
 10 11  1  0  0  0
 11 12  1  0  0  0
 12 13  2  0  0  0
 12 15  1  0  0  0
 15 16  1  0  0  0
 16 17  1  0  0  0
 17 18  2  0  0  0
 18 19  1  0  0  0
 19 20  2  0  0  0
 20 21  1  0  0  0
 21 22  2  0  0  0
 34 35  1  0  0  0
 35 36  2  0  0  0
 35 37  1  0  0  0
 37 39  1  0  0  0
 39 52  1  0  0  0
 52 53  1  0  0  0
 53 54  1  0  0  0
 53 55  2  0  0  0
 39 40  1  0  0  0
 40 41  2  0  0  0
 41 42  1  0  0  0
 42 43  1  0  0  0
 43 44  1  0  0  0
 44 45  1  0  0  0
 45 46  1  0  0  0
 46 47  2  0  0  0
 47 48  1  0  0  0
 48 49  2  0  0  0
 49 50  1  0  0  0
 50 51  2  0  0  0
 22 17  1  0  0  0
 51 46  1  0  0  0
  1  4  1  0  0  0
 31 33  1  0  0  0
  6  9  1  0  0  0
 25 27  1  0  0  0
 11 14  1  0  0  0
 37 38  1  0  0  0
 54 56  1  0  0  0
M  END
> <minimizedAffinity>
-8.55461

> <CNNscore>
0.1594688445

> <CNNaffinity>
6.8500738144

> <CNN_VS>
1.0923733711

> <CNNaffinity_variance>
1.0895586014

$$$$
[H]c1nc(N2C([H])([H])C([H])([H])OC([H])([H])C2([H])[H])c(C(F)(F)F)c([H])c1C(=O)N([H])c1c([H])c(-c2nn([H])c([H])c2[H])c([H])c([H])c1C(F)(F)F


 36 39  0  0  0  0  0  0  0  0999 V2000
   -2.9240   23.3835  -24.3737 N   0  0  0  0  0  0  0  0  0  0  0  0
   -2.0893   22.3982  -24.8928 C   0  0  0  0  0  0  0  0  0  0  0  0
   -2.2149   21.8591  -26.0233 O   0  0  0  0  0  0  0  0  0  0  0  0
   -2.6720   23.7170  -23.3959 H   0  0  0  0  0  0  0  0  0  0  0  0
   -4.0403   23.9488  -25.0123 C   0  0  0  0  0  0  0  0  0  0  0  0
   -4.0623   24.3446  -26.3399 C   0  0  0  0  0  0  0  0  0  0  0  0
   -5.1814   24.9035  -26.9488 C   0  0  0  0  0  0  0  0  0  0  0  0
   -6.3012   25.0563  -26.1678 C   0  0  0  0  0  0  0  0  0  0  0  0
   -6.2956   24.6675  -24.8453 C   0  0  0  0  0  0  0  0  0  0  0  0
   -5.1948   24.1121  -24.2274 C   0  0  0  0  0  0  0  0  0  0  0  0
   -5.1540   25.3039  -28.3500 C   0  0  0  0  0  0  0  0  0  0  0  0
   -6.1594   25.7781  -29.1036 N   0  0  0  0  0  0  0  0  0  0  0  0
   -5.7460   26.0334  -30.3427 N   0  0  0  0  0  0  0  0  0  0  0  0
   -4.4403   25.7277  -30.4313 C   0  0  0  0  0  0  0  0  0  0  0  0
   -4.0621   25.2708  -29.1895 C   0  0  0  0  0  0  0  0  0  0  0  0
   -6.3546   26.4147  -31.1226 H   0  0  0  0  0  0  0  0  0  0  0  0
   -5.2569   23.7133  -22.7958 C   0  0  0  0  0  0  0  0  0  0  0  0
   -6.5800   23.9691  -22.3489 F   0  0  0  0  0  0  0  0  0  0  0  0
   -5.1066   22.3587  -22.6488 F   0  0  0  0  0  0  0  0  0  0  0  0
   -4.4790   24.4785  -21.9683 F   0  0  0  0  0  0  0  0  0  0  0  0
   -0.9428   21.8996  -24.1002 C   0  0  0  0  0  0  0  0  0  0  0  0
   -1.1418   21.4478  -22.8335 C   0  0  0  0  0  0  0  0  0  0  0  0
   -0.0486   20.9629  -22.0802 C   0  0  0  0  0  0  0  0  0  0  0  0
    1.2032   20.9468  -22.6188 C   0  0  0  0  0  0  0  0  0  0  0  0
    1.3598   21.4151  -23.9073 N   0  0  0  0  0  0  0  0  0  0  0  0
    0.3196   21.8740  -24.6176 C   0  0  0  0  0  0  0  0  0  0  0  0
    2.3304   20.4728  -21.9410 N   0  0  0  0  0  0  0  0  0  0  0  0
    2.8752   19.1643  -21.8959 C   0  0  0  0  0  0  0  0  0  0  0  0
    3.1563   18.7089  -20.4682 C   0  0  0  0  0  0  0  0  0  0  0  0
    3.8263   19.6853  -19.7465 O   0  0  0  0  0  0  0  0  0  0  0  0
    4.2338   20.7484  -20.5435 C   0  0  0  0  0  0  0  0  0  0  0  0
    3.0581   21.4831  -21.1449 C   0  0  0  0  0  0  0  0  0  0  0  0
   -0.3033   20.4994  -20.7187 C   0  0  0  0  0  0  0  0  0  0  0  0
   -1.6347   20.8330  -20.3849 F   0  0  0  0  0  0  0  0  0  0  0  0
    0.4360   21.1656  -19.7431 F   0  0  0  0  0  0  0  0  0  0  0  0
   -0.1486   19.1575  -20.5127 F   0  0  0  0  0  0  0  0  0  0  0  0
  5  1  1  0  0  0
  1  2  1  0  0  0
  2  3  2  0  0  0
  2 21  1  0  0  0
 21 22  2  0  0  0
 22 23  1  0  0  0
 23 33  1  0  0  0
 33 34  1  0  0  0
 33 35  1  0  0  0
 33 36  1  0  0  0
 23 24  2  0  0  0
 24 27  1  0  0  0
 27 28  1  0  0  0
 28 29  1  0  0  0
 29 30  1  0  0  0
 30 31  1  0  0  0
 31 32  1  0  0  0
 24 25  1  0  0  0
 25 26  2  0  0  0
  5  6  2  0  0  0
  6  7  1  0  0  0
  7 11  1  0  0  0
 11 12  2  0  0  0
 12 13  1  0  0  0
 13 14  1  0  0  0
 14 15  2  0  0  0
  7  8  2  0  0  0
  8  9  1  0  0  0
  9 10  2  0  0  0
 10 17  1  0  0  0
 17 18  1  0  0  0
 17 19  1  0  0  0
 17 20  1  0  0  0
 10  5  1  0  0  0
 26 21  1  0  0  0
 15 11  1  0  0  0
 32 27  1  0  0  0
  1  4  1  0  0  0
 13 16  1  0  0  0
M  END
> <minimizedAffinity>
-8.24691

> <CNNscore>
0.2437163144

> <CNNaffinity>
6.6974716187

> <CNN_VS>
1.6322830915

> <CNNaffinity_variance>
0.3318597078

$$$$
[H]c1nc(N2C([H])([H])C([H])([H])OC([H])([H])C2([H])[H])c(C(F)(F)F)c([H])c1C(=O)N([H])c1c([H])c(-c2nn([H])c([H])c2[H])c([H])c([H])c1C(F)(F)F


 36 39  0  0  0  0  0  0  0  0999 V2000
   -0.9823   21.9148  -25.0930 N   0  0  0  0  0  0  0  0  0  0  0  0
   -0.5911   22.3061  -23.8159 C   0  0  0  0  0  0  0  0  0  0  0  0
   -1.0247   23.3137  -23.1985 O   0  0  0  0  0  0  0  0  0  0  0  0
   -0.5025   21.0406  -25.4622 H   0  0  0  0  0  0  0  0  0  0  0  0
   -1.9226   22.5642  -25.9102 C   0  0  0  0  0  0  0  0  0  0  0  0
   -3.2136   22.8778  -25.5169 C   0  0  0  0  0  0  0  0  0  0  0  0
   -4.1267   23.5207  -26.3464 C   0  0  0  0  0  0  0  0  0  0  0  0
   -3.6953   23.8460  -27.6095 C   0  0  0  0  0  0  0  0  0  0  0  0
   -2.4140   23.5411  -28.0161 C   0  0  0  0  0  0  0  0  0  0  0  0
   -1.4973   22.9043  -27.2059 C   0  0  0  0  0  0  0  0  0  0  0  0
   -5.4746   23.8289  -25.8852 C   0  0  0  0  0  0  0  0  0  0  0  0
   -5.9963   23.6650  -24.6586 N   0  0  0  0  0  0  0  0  0  0  0  0
   -7.2657   24.0634  -24.6242 N   0  0  0  0  0  0  0  0  0  0  0  0
   -7.6108   24.5042  -25.8459 C   0  0  0  0  0  0  0  0  0  0  0  0
   -6.4964   24.3611  -26.6407 C   0  0  0  0  0  0  0  0  0  0  0  0
   -7.8917   24.0333  -23.7689 H   0  0  0  0  0  0  0  0  0  0  0  0
   -0.1293   22.6056  -27.7076 C   0  0  0  0  0  0  0  0  0  0  0  0
    0.7765   23.3765  -26.9324 F   0  0  0  0  0  0  0  0  0  0  0  0
    0.2243   21.3069  -27.4479 F   0  0  0  0  0  0  0  0  0  0  0  0
    0.0995   23.0257  -28.9907 F   0  0  0  0  0  0  0  0  0  0  0  0
    0.4140   21.5160  -23.0699 C   0  0  0  0  0  0  0  0  0  0  0  0
    0.0531   20.8629  -21.9335 C   0  0  0  0  0  0  0  0  0  0  0  0
    1.0106   20.1007  -21.2263 C   0  0  0  0  0  0  0  0  0  0  0  0
    2.2932   20.0182  -21.6796 C   0  0  0  0  0  0  0  0  0  0  0  0
    2.6160   20.6972  -22.8366 N   0  0  0  0  0  0  0  0  0  0  0  0
    1.7041   21.4188  -23.5036 C   0  0  0  0  0  0  0  0  0  0  0  0
    3.2922   19.2763  -21.0420 N   0  0  0  0  0  0  0  0  0  0  0  0
    3.5546   17.8835  -21.0901 C   0  0  0  0  0  0  0  0  0  0  0  0
    3.7228   17.2832  -19.6986 C   0  0  0  0  0  0  0  0  0  0  0  0
    4.5735   18.0484  -18.9150 O   0  0  0  0  0  0  0  0  0  0  0  0
    5.1988   19.0563  -19.6392 C   0  0  0  0  0  0  0  0  0  0  0  0
    4.2056   20.0576  -20.1823 C   0  0  0  0  0  0  0  0  0  0  0  0
    0.5849   19.4258  -20.0029 C   0  0  0  0  0  0  0  0  0  0  0  0
    0.4814   18.0443  -20.2788 F   0  0  0  0  0  0  0  0  0  0  0  0
   -0.7045   19.7558  -19.5902 F   0  0  0  0  0  0  0  0  0  0  0  0
    1.4154   19.5723  -18.9278 F   0  0  0  0  0  0  0  0  0  0  0  0
  5  1  1  0  0  0
  1  2  1  0  0  0
  2  3  2  0  0  0
  2 21  1  0  0  0
 21 22  2  0  0  0
 22 23  1  0  0  0
 23 33  1  0  0  0
 33 34  1  0  0  0
 33 35  1  0  0  0
 33 36  1  0  0  0
 23 24  2  0  0  0
 24 27  1  0  0  0
 27 28  1  0  0  0
 28 29  1  0  0  0
 29 30  1  0  0  0
 30 31  1  0  0  0
 31 32  1  0  0  0
 24 25  1  0  0  0
 25 26  2  0  0  0
  5  6  2  0  0  0
  6  7  1  0  0  0
  7 11  1  0  0  0
 11 12  2  0  0  0
 12 13  1  0  0  0
 13 14  1  0  0  0
 14 15  2  0  0  0
  7  8  2  0  0  0
  8  9  1  0  0  0
  9 10  2  0  0  0
 10 17  1  0  0  0
 17 18  1  0  0  0
 17 19  1  0  0  0
 17 20  1  0  0  0
 10  5  1  0  0  0
 26 21  1  0  0  0
 15 11  1  0  0  0
 32 27  1  0  0  0
  1  4  1  0  0  0
 13 16  1  0  0  0
M  END
> <minimizedAffinity>
-8.21660

> <CNNscore>
0.2049901038

> <CNNaffinity>
6.1303925514

> <CNN_VS>
1.2566697598

> <CNNaffinity_variance>
0.1686076224

$$$$
[H]c1nc(N2C([H])([H])C([H])([H])OC([H])([H])C2([H])[H])c(C(F)(F)F)c([H])c1C(=O)N([H])c1c([H])c(-c2nn([H])c([H])c2[H])c([H])c([H])c1C(F)(F)F


 36 39  0  0  0  0  0  0  0  0999 V2000
   -2.4413   21.7004  -20.9599 N   0  0  0  0  0  0  0  0  0  0  0  0
   -1.6603   22.6772  -20.3491 C   0  0  0  0  0  0  0  0  0  0  0  0
   -1.5131   23.8563  -20.7643 O   0  0  0  0  0  0  0  0  0  0  0  0
   -2.4406   20.7549  -20.4733 H   0  0  0  0  0  0  0  0  0  0  0  0
   -3.1991   21.8548  -22.1327 C   0  0  0  0  0  0  0  0  0  0  0  0
   -2.6559   22.0232  -23.3961 C   0  0  0  0  0  0  0  0  0  0  0  0
   -3.4290   22.1754  -24.5426 C   0  0  0  0  0  0  0  0  0  0  0  0
   -4.7928   22.1530  -24.3786 C   0  0  0  0  0  0  0  0  0  0  0  0
   -5.3489   21.9864  -23.1284 C   0  0  0  0  0  0  0  0  0  0  0  0
   -4.5964   21.8342  -21.9827 C   0  0  0  0  0  0  0  0  0  0  0  0
   -2.8090   22.3495  -25.8502 C   0  0  0  0  0  0  0  0  0  0  0  0
   -1.5327   22.1306  -26.2059 N   0  0  0  0  0  0  0  0  0  0  0  0
   -1.3443   22.4039  -27.4948 N   0  0  0  0  0  0  0  0  0  0  0  0
   -2.5104   22.8146  -28.0217 C   0  0  0  0  0  0  0  0  0  0  0  0
   -3.4318   22.7836  -26.9999 C   0  0  0  0  0  0  0  0  0  0  0  0
   -0.4225   22.3096  -28.0102 H   0  0  0  0  0  0  0  0  0  0  0  0
   -5.2611   21.6573  -20.6638 C   0  0  0  0  0  0  0  0  0  0  0  0
   -6.6271   21.3679  -20.9211 F   0  0  0  0  0  0  0  0  0  0  0  0
   -4.7955   20.5422  -20.0167 F   0  0  0  0  0  0  0  0  0  0  0  0
   -5.3060   22.7954  -19.9036 F   0  0  0  0  0  0  0  0  0  0  0  0
   -0.9160   22.3673  -19.1077 C   0  0  0  0  0  0  0  0  0  0  0  0
    0.3893   22.7297  -18.9933 C   0  0  0  0  0  0  0  0  0  0  0  0
    1.0972   22.4422  -17.8042 C   0  0  0  0  0  0  0  0  0  0  0  0
    0.4762   21.8035  -16.7728 C   0  0  0  0  0  0  0  0  0  0  0  0
   -0.8489   21.4533  -16.9319 N   0  0  0  0  0  0  0  0  0  0  0  0
   -1.5159   21.7283  -18.0618 C   0  0  0  0  0  0  0  0  0  0  0  0
    1.1059   21.4950  -15.5632 N   0  0  0  0  0  0  0  0  0  0  0  0
    1.3791   22.3269  -14.4477 C   0  0  0  0  0  0  0  0  0  0  0  0
    2.8294   22.2155  -13.9906 C   0  0  0  0  0  0  0  0  0  0  0  0
    3.2299   20.8916  -13.8904 O   0  0  0  0  0  0  0  0  0  0  0  0
    2.1724   20.0040  -14.0496 C   0  0  0  0  0  0  0  0  0  0  0  0
    1.5639   20.0964  -15.4299 C   0  0  0  0  0  0  0  0  0  0  0  0
    2.5015   22.8366  -17.7274 C   0  0  0  0  0  0  0  0  0  0  0  0
    2.9192   23.2212  -19.0208 F   0  0  0  0  0  0  0  0  0  0  0  0
    3.3701   21.7910  -17.4205 F   0  0  0  0  0  0  0  0  0  0  0  0
    2.7793   23.8703  -16.8781 F   0  0  0  0  0  0  0  0  0  0  0  0
  5  1  1  0  0  0
  1  2  1  0  0  0
  2  3  2  0  0  0
  2 21  1  0  0  0
 21 22  2  0  0  0
 22 23  1  0  0  0
 23 33  1  0  0  0
 33 34  1  0  0  0
 33 35  1  0  0  0
 33 36  1  0  0  0
 23 24  2  0  0  0
 24 27  1  0  0  0
 27 28  1  0  0  0
 28 29  1  0  0  0
 29 30  1  0  0  0
 30 31  1  0  0  0
 31 32  1  0  0  0
 24 25  1  0  0  0
 25 26  2  0  0  0
  5  6  2  0  0  0
  6  7  1  0  0  0
  7 11  1  0  0  0
 11 12  2  0  0  0
 12 13  1  0  0  0
 13 14  1  0  0  0
 14 15  2  0  0  0
  7  8  2  0  0  0
  8  9  1  0  0  0
  9 10  2  0  0  0
 10 17  1  0  0  0
 17 18  1  0  0  0
 17 19  1  0  0  0
 17 20  1  0  0  0
 10  5  1  0  0  0
 26 21  1  0  0  0
 15 11  1  0  0  0
 32 27  1  0  0  0
  1  4  1  0  0  0
 13 16  1  0  0  0
M  END
> <minimizedAffinity>
-6.91721

> <CNNscore>
0.2013078928

> <CNNaffinity>
6.0194473267

> <CNN_VS>
1.2117623091

> <CNNaffinity_variance>
0.0467628837

$$$$
[H]c1nc(N2C([H])([H])C([H])([H])OC([H])([H])C2([H])[H])c(C(F)(F)F)c([H])c1C(=O)N([H])c1c([H])c(-c2nn([H])c([H])c2[H])c([H])c([H])c1C(F)(F)F


 36 39  0  0  0  0  0  0  0  0999 V2000
   -1.5519   21.6303  -22.1706 N   0  0  0  0  0  0  0  0  0  0  0  0
   -2.0756   22.7151  -21.4735 C   0  0  0  0  0  0  0  0  0  0  0  0
   -1.4013   23.6527  -20.9727 O   0  0  0  0  0  0  0  0  0  0  0  0
   -2.2715   20.9273  -22.5150 H   0  0  0  0  0  0  0  0  0  0  0  0
   -0.1938   21.3923  -22.4403 C   0  0  0  0  0  0  0  0  0  0  0  0
    0.7166   20.9238  -21.5069 C   0  0  0  0  0  0  0  0  0  0  0  0
    2.0577   20.6974  -21.7993 C   0  0  0  0  0  0  0  0  0  0  0  0
    2.4656   20.9614  -23.0843 C   0  0  0  0  0  0  0  0  0  0  0  0
    1.5723   21.4279  -24.0247 C   0  0  0  0  0  0  0  0  0  0  0  0
    0.2402   21.6573  -23.7506 C   0  0  0  0  0  0  0  0  0  0  0  0
    2.9764   20.2033  -20.7813 C   0  0  0  0  0  0  0  0  0  0  0  0
    2.7957   19.1981  -19.9093 N   0  0  0  0  0  0  0  0  0  0  0  0
    3.8657   19.0434  -19.1329 N   0  0  0  0  0  0  0  0  0  0  0  0
    4.7863   19.9575  -19.4834 C   0  0  0  0  0  0  0  0  0  0  0  0
    4.2384   20.6871  -20.5136 C   0  0  0  0  0  0  0  0  0  0  0  0
    3.9643   18.3160  -18.3678 H   0  0  0  0  0  0  0  0  0  0  0  0
   -0.6708   22.1607  -24.8132 C   0  0  0  0  0  0  0  0  0  0  0  0
    0.0797   22.2085  -26.0174 F   0  0  0  0  0  0  0  0  0  0  0  0
   -1.6739   21.2640  -25.0756 F   0  0  0  0  0  0  0  0  0  0  0  0
   -1.0797   23.4549  -24.6317 F   0  0  0  0  0  0  0  0  0  0  0  0
   -3.5368   22.8340  -21.2691 C   0  0  0  0  0  0  0  0  0  0  0  0
   -4.3928   22.3186  -22.1909 C   0  0  0  0  0  0  0  0  0  0  0  0
   -5.7881   22.4238  -21.9911 C   0  0  0  0  0  0  0  0  0  0  0  0
   -6.2777   23.0397  -20.8783 C   0  0  0  0  0  0  0  0  0  0  0  0
   -5.3733   23.5489  -19.9691 N   0  0  0  0  0  0  0  0  0  0  0  0
   -4.0509   23.4464  -20.1634 C   0  0  0  0  0  0  0  0  0  0  0  0
   -7.6426   23.1726  -20.6057 N   0  0  0  0  0  0  0  0  0  0  0  0
   -8.5898   24.0770  -21.1498 C   0  0  0  0  0  0  0  0  0  0  0  0
   -9.4049   24.7745  -20.0663 C   0  0  0  0  0  0  0  0  0  0  0  0
   -9.8779   23.8712  -19.1263 O   0  0  0  0  0  0  0  0  0  0  0  0
   -9.6524   22.5513  -19.4984 C   0  0  0  0  0  0  0  0  0  0  0  0
   -8.1769   22.2382  -19.5932 C   0  0  0  0  0  0  0  0  0  0  0  0
   -6.6728   21.8688  -23.0121 C   0  0  0  0  0  0  0  0  0  0  0  0
   -7.2525   22.9447  -23.7204 F   0  0  0  0  0  0  0  0  0  0  0  0
   -7.7840   21.2014  -22.5004 F   0  0  0  0  0  0  0  0  0  0  0  0
   -6.0776   21.0447  -23.9251 F   0  0  0  0  0  0  0  0  0  0  0  0
  5  1  1  0  0  0
  1  2  1  0  0  0
  2  3  2  0  0  0
  2 21  1  0  0  0
 21 22  2  0  0  0
 22 23  1  0  0  0
 23 33  1  0  0  0
 33 34  1  0  0  0
 33 35  1  0  0  0
 33 36  1  0  0  0
 23 24  2  0  0  0
 24 27  1  0  0  0
 27 28  1  0  0  0
 28 29  1  0  0  0
 29 30  1  0  0  0
 30 31  1  0  0  0
 31 32  1  0  0  0
 24 25  1  0  0  0
 25 26  2  0  0  0
  5  6  2  0  0  0
  6  7  1  0  0  0
  7 11  1  0  0  0
 11 12  2  0  0  0
 12 13  1  0  0  0
 13 14  1  0  0  0
 14 15  2  0  0  0
  7  8  2  0  0  0
  8  9  1  0  0  0
  9 10  2  0  0  0
 10 17  1  0  0  0
 17 18  1  0  0  0
 17 19  1  0  0  0
 17 20  1  0  0  0
 10  5  1  0  0  0
 26 21  1  0  0  0
 15 11  1  0  0  0
 32 27  1  0  0  0
  1  4  1  0  0  0
 13 16  1  0  0  0
M  END
> <minimizedAffinity>
-7.05957

> <CNNscore>
0.1927607208

> <CNNaffinity>
6.0670967102

> <CNN_VS>
1.1694979668

> <CNNaffinity_variance>
0.1297520995

$$$$
[H]c1nc(N2C([H])([H])C([H])([H])OC([H])([H])C2([H])[H])c(C(F)(F)F)c([H])c1C(=O)N([H])c1c([H])c(-c2nn([H])c([H])c2[H])c([H])c([H])c1C(F)(F)F


 36 39  0  0  0  0  0  0  0  0999 V2000
   -7.6144   24.4415  -19.8459 N   0  0  0  0  0  0  0  0  0  0  0  0
   -6.7570   23.9596  -20.8307 C   0  0  0  0  0  0  0  0  0  0  0  0
   -7.0180   23.9069  -22.0609 O   0  0  0  0  0  0  0  0  0  0  0  0
   -7.2295   24.4010  -18.8555 H   0  0  0  0  0  0  0  0  0  0  0  0
   -8.9074   24.9527  -20.0466 C   0  0  0  0  0  0  0  0  0  0  0  0
   -9.1846   26.2748  -20.3547 C   0  0  0  0  0  0  0  0  0  0  0  0
  -10.4754   26.7566  -20.5475 C   0  0  0  0  0  0  0  0  0  0  0  0
  -11.5009   25.8517  -20.4189 C   0  0  0  0  0  0  0  0  0  0  0  0
  -11.2419   24.5328  -20.1128 C   0  0  0  0  0  0  0  0  0  0  0  0
   -9.9685   24.0399  -19.9188 C   0  0  0  0  0  0  0  0  0  0  0  0
  -10.7148   28.1576  -20.8704 C   0  0  0  0  0  0  0  0  0  0  0  0
  -11.2243   28.6804  -21.9976 N   0  0  0  0  0  0  0  0  0  0  0  0
  -11.2908   30.0074  -21.9192 N   0  0  0  0  0  0  0  0  0  0  0  0
  -10.8192   30.3909  -20.7207 C   0  0  0  0  0  0  0  0  0  0  0  0
  -10.4568   29.2403  -20.0583 C   0  0  0  0  0  0  0  0  0  0  0  0
  -11.6570   30.6461  -22.6822 H   0  0  0  0  0  0  0  0  0  0  0  0
   -9.7592   22.6041  -19.5916 C   0  0  0  0  0  0  0  0  0  0  0  0
  -11.0257   22.0680  -19.2391 F   0  0  0  0  0  0  0  0  0  0  0  0
   -9.3866   21.8895  -20.7005 F   0  0  0  0  0  0  0  0  0  0  0  0
   -8.9927   22.3910  -18.4770 F   0  0  0  0  0  0  0  0  0  0  0  0
   -5.4148   23.4526  -20.4668 C   0  0  0  0  0  0  0  0  0  0  0  0
   -4.4788   23.2613  -21.4341 C   0  0  0  0  0  0  0  0  0  0  0  0
   -3.1941   22.7862  -21.0853 C   0  0  0  0  0  0  0  0  0  0  0  0
   -2.8908   22.5194  -19.7837 C   0  0  0  0  0  0  0  0  0  0  0  0
   -3.8707   22.7271  -18.8348 N   0  0  0  0  0  0  0  0  0  0  0  0
   -5.0876   23.1779  -19.1708 C   0  0  0  0  0  0  0  0  0  0  0  0
   -1.6407   22.0581  -19.3603 N   0  0  0  0  0  0  0  0  0  0  0  0
   -0.4263   22.7690  -19.1841 C   0  0  0  0  0  0  0  0  0  0  0  0
    0.7484   22.0749  -19.8646 C   0  0  0  0  0  0  0  0  0  0  0  0
    0.7750   20.7193  -19.5735 O   0  0  0  0  0  0  0  0  0  0  0  0
   -0.1524   20.3673  -18.6001 C   0  0  0  0  0  0  0  0  0  0  0  0
   -1.5709   20.6128  -19.0601 C   0  0  0  0  0  0  0  0  0  0  0  0
   -2.2224   22.5816  -22.1564 C   0  0  0  0  0  0  0  0  0  0  0  0
   -2.9057   22.6694  -23.3896 F   0  0  0  0  0  0  0  0  0  0  0  0
   -1.6795   21.2987  -22.1948 F   0  0  0  0  0  0  0  0  0  0  0  0
   -1.1867   23.4721  -22.1926 F   0  0  0  0  0  0  0  0  0  0  0  0
  5  1  1  0  0  0
  1  2  1  0  0  0
  2  3  2  0  0  0
  2 21  1  0  0  0
 21 22  2  0  0  0
 22 23  1  0  0  0
 23 33  1  0  0  0
 33 34  1  0  0  0
 33 35  1  0  0  0
 33 36  1  0  0  0
 23 24  2  0  0  0
 24 27  1  0  0  0
 27 28  1  0  0  0
 28 29  1  0  0  0
 29 30  1  0  0  0
 30 31  1  0  0  0
 31 32  1  0  0  0
 24 25  1  0  0  0
 25 26  2  0  0  0
  5  6  2  0  0  0
  6  7  1  0  0  0
  7 11  1  0  0  0
 11 12  2  0  0  0
 12 13  1  0  0  0
 13 14  1  0  0  0
 14 15  2  0  0  0
  7  8  2  0  0  0
  8  9  1  0  0  0
  9 10  2  0  0  0
 10 17  1  0  0  0
 17 18  1  0  0  0
 17 19  1  0  0  0
 17 20  1  0  0  0
 10  5  1  0  0  0
 26 21  1  0  0  0
 15 11  1  0  0  0
 32 27  1  0  0  0
  1  4  1  0  0  0
 13 16  1  0  0  0
M  END
> <minimizedAffinity>
-7.19178

> <CNNscore>
0.1710115224

> <CNNaffinity>
5.6463251114

> <CNN_VS>
0.9655866623

> <CNNaffinity_variance>
0.0500573739

$$$$
[H]c1nc(N2C([H])([H])C([H])([H])OC([H])([H])C2([H])[H])c(C(F)(F)F)c([H])c1C(=O)N([H])c1c([H])c(-c2nn([H])c([H])c2[H])c([H])c([H])c1C(F)(F)F


 36 39  0  0  0  0  0  0  0  0999 V2000
   -5.0828   22.5871  -24.8202 N   0  0  0  0  0  0  0  0  0  0  0  0
   -5.4248   23.3933  -23.7384 C   0  0  0  0  0  0  0  0  0  0  0  0
   -5.1500   24.6165  -23.6266 O   0  0  0  0  0  0  0  0  0  0  0  0
   -5.3893   21.5720  -24.7392 H   0  0  0  0  0  0  0  0  0  0  0  0
   -4.3817   22.9903  -25.9689 C   0  0  0  0  0  0  0  0  0  0  0  0
   -4.9327   23.7381  -26.9969 C   0  0  0  0  0  0  0  0  0  0  0  0
   -4.2166   24.1238  -28.1256 C   0  0  0  0  0  0  0  0  0  0  0  0
   -2.9029   23.7275  -28.1921 C   0  0  0  0  0  0  0  0  0  0  0  0
   -2.3398   22.9833  -27.1777 C   0  0  0  0  0  0  0  0  0  0  0  0
   -3.0361   22.5932  -26.0529 C   0  0  0  0  0  0  0  0  0  0  0  0
   -4.8423   24.9112  -29.1805 C   0  0  0  0  0  0  0  0  0  0  0  0
   -6.1418   25.2086  -29.3427 N   0  0  0  0  0  0  0  0  0  0  0  0
   -6.3276   25.9530  -30.4303 N   0  0  0  0  0  0  0  0  0  0  0  0
   -5.1361   26.1638  -31.0151 C   0  0  0  0  0  0  0  0  0  0  0  0
   -4.2017   25.5158  -30.2399 C   0  0  0  0  0  0  0  0  0  0  0  0
   -7.2649   26.3142  -30.7696 H   0  0  0  0  0  0  0  0  0  0  0  0
   -2.3668   21.7909  -24.9942 C   0  0  0  0  0  0  0  0  0  0  0  0
   -3.0964   20.5797  -24.8653 F   0  0  0  0  0  0  0  0  0  0  0  0
   -1.1158   21.3915  -25.3874 F   0  0  0  0  0  0  0  0  0  0  0  0
   -2.4343   22.3473  -23.7448 F   0  0  0  0  0  0  0  0  0  0  0  0
   -6.1719   22.8259  -22.5935 C   0  0  0  0  0  0  0  0  0  0  0  0
   -6.0139   23.3578  -21.3523 C   0  0  0  0  0  0  0  0  0  0  0  0
   -6.7345   22.8221  -20.2608 C   0  0  0  0  0  0  0  0  0  0  0  0
   -7.5867   21.7752  -20.4481 C   0  0  0  0  0  0  0  0  0  0  0  0
   -7.7162   21.2660  -21.7240 N   0  0  0  0  0  0  0  0  0  0  0  0
   -7.0304   21.7777  -22.7560 C   0  0  0  0  0  0  0  0  0  0  0  0
   -8.3411   21.1992  -19.4215 N   0  0  0  0  0  0  0  0  0  0  0  0
   -9.6058   21.5801  -18.9052 C   0  0  0  0  0  0  0  0  0  0  0  0
   -9.5985   21.6774  -17.3836 C   0  0  0  0  0  0  0  0  0  0  0  0
   -9.0016   20.5666  -16.8068 O   0  0  0  0  0  0  0  0  0  0  0  0
   -8.7282   19.5690  -17.7350 C   0  0  0  0  0  0  0  0  0  0  0  0
   -7.7257   20.0240  -18.7704 C   0  0  0  0  0  0  0  0  0  0  0  0
   -6.5255   23.4139  -18.9419 C   0  0  0  0  0  0  0  0  0  0  0  0
   -6.3029   22.3652  -18.0222 F   0  0  0  0  0  0  0  0  0  0  0  0
   -7.6498   24.0498  -18.4189 F   0  0  0  0  0  0  0  0  0  0  0  0
   -5.4743   24.2813  -18.8433 F   0  0  0  0  0  0  0  0  0  0  0  0
  5  1  1  0  0  0
  1  2  1  0  0  0
  2  3  2  0  0  0
  2 21  1  0  0  0
 21 22  2  0  0  0
 22 23  1  0  0  0
 23 33  1  0  0  0
 33 34  1  0  0  0
 33 35  1  0  0  0
 33 36  1  0  0  0
 23 24  2  0  0  0
 24 27  1  0  0  0
 27 28  1  0  0  0
 28 29  1  0  0  0
 29 30  1  0  0  0
 30 31  1  0  0  0
 31 32  1  0  0  0
 24 25  1  0  0  0
 25 26  2  0  0  0
  5  6  2  0  0  0
  6  7  1  0  0  0
  7 11  1  0  0  0
 11 12  2  0  0  0
 12 13  1  0  0  0
 13 14  1  0  0  0
 14 15  2  0  0  0
  7  8  2  0  0  0
  8  9  1  0  0  0
  9 10  2  0  0  0
 10 17  1  0  0  0
 17 18  1  0  0  0
 17 19  1  0  0  0
 17 20  1  0  0  0
 10  5  1  0  0  0
 26 21  1  0  0  0
 15 11  1  0  0  0
 32 27  1  0  0  0
  1  4  1  0  0  0
 13 16  1  0  0  0
M  END
> <minimizedAffinity>
-8.58298

> <CNNscore>
0.1702668965

> <CNNaffinity>
6.2433509827

> <CNN_VS>
1.0630359650

> <CNNaffinity_variance>
0.0517280623

$$$$
[H]c1nc(N2C([H])([H])C([H])([H])OC([H])([H])C2([H])[H])c(C(F)(F)F)c([H])c1C(=O)N([H])c1c([H])c(-c2nn([H])c([H])c2[H])c([H])c([H])c1C(F)(F)F


 36 39  0  0  0  0  0  0  0  0999 V2000
   -5.0531   22.9266  -25.2570 N   0  0  0  0  0  0  0  0  0  0  0  0
   -5.4187   23.8887  -24.3201 C   0  0  0  0  0  0  0  0  0  0  0  0
   -5.1914   25.1229  -24.4174 O   0  0  0  0  0  0  0  0  0  0  0  0
   -5.3190   21.9286  -25.0039 H   0  0  0  0  0  0  0  0  0  0  0  0
   -4.3765   23.1583  -26.4662 C   0  0  0  0  0  0  0  0  0  0  0  0
   -4.9472   23.7581  -27.5771 C   0  0  0  0  0  0  0  0  0  0  0  0
   -4.2552   23.9752  -28.7643 C   0  0  0  0  0  0  0  0  0  0  0  0
   -2.9453   23.5631  -28.8030 C   0  0  0  0  0  0  0  0  0  0  0  0
   -2.3627   22.9648  -27.7063 C   0  0  0  0  0  0  0  0  0  0  0  0
   -3.0350   22.7427  -26.5228 C   0  0  0  0  0  0  0  0  0  0  0  0
   -4.9010   24.6110  -29.9058 C   0  0  0  0  0  0  0  0  0  0  0  0
   -5.8755   24.1255  -30.6921 N   0  0  0  0  0  0  0  0  0  0  0  0
   -6.2073   25.0035  -31.6359 N   0  0  0  0  0  0  0  0  0  0  0  0
   -5.4464   26.1012  -31.4878 C   0  0  0  0  0  0  0  0  0  0  0  0
   -4.6266   25.8642  -30.4081 C   0  0  0  0  0  0  0  0  0  0  0  0
   -6.9504   24.8513  -32.3767 H   0  0  0  0  0  0  0  0  0  0  0  0
   -2.3456   22.0923  -25.3764 C   0  0  0  0  0  0  0  0  0  0  0  0
   -1.0364   21.7582  -25.8125 F   0  0  0  0  0  0  0  0  0  0  0  0
   -2.1441   22.9771  -24.3490 F   0  0  0  0  0  0  0  0  0  0  0  0
   -2.8850   20.8880  -25.0102 F   0  0  0  0  0  0  0  0  0  0  0  0
   -6.1350   23.4930  -23.0867 C   0  0  0  0  0  0  0  0  0  0  0  0
   -7.2541   24.1661  -22.7089 C   0  0  0  0  0  0  0  0  0  0  0  0
   -7.9434   23.7821  -21.5362 C   0  0  0  0  0  0  0  0  0  0  0  0
   -7.4903   22.7401  -20.7836 C   0  0  0  0  0  0  0  0  0  0  0  0
   -6.3506   22.0854  -21.2035 N   0  0  0  0  0  0  0  0  0  0  0  0
   -5.7005   22.4536  -22.3166 C   0  0  0  0  0  0  0  0  0  0  0  0
   -8.1230   22.2952  -19.6189 N   0  0  0  0  0  0  0  0  0  0  0  0
   -9.2719   21.4772  -19.4696 C   0  0  0  0  0  0  0  0  0  0  0  0
  -10.2828   22.0798  -18.5002 C   0  0  0  0  0  0  0  0  0  0  0  0
   -9.6718   22.5109  -17.3324 O   0  0  0  0  0  0  0  0  0  0  0  0
   -8.3387   22.1253  -17.2575 C   0  0  0  0  0  0  0  0  0  0  0  0
   -7.5097   22.7523  -18.3546 C   0  0  0  0  0  0  0  0  0  0  0  0
   -9.1335   24.5400  -21.1586 C   0  0  0  0  0  0  0  0  0  0  0  0
   -9.2355   25.6531  -22.0223 F   0  0  0  0  0  0  0  0  0  0  0  0
   -9.0553   25.1321  -19.8995 F   0  0  0  0  0  0  0  0  0  0  0  0
  -10.3147   23.8561  -21.2233 F   0  0  0  0  0  0  0  0  0  0  0  0
  5  1  1  0  0  0
  1  2  1  0  0  0
  2  3  2  0  0  0
  2 21  1  0  0  0
 21 22  2  0  0  0
 22 23  1  0  0  0
 23 33  1  0  0  0
 33 34  1  0  0  0
 33 35  1  0  0  0
 33 36  1  0  0  0
 23 24  2  0  0  0
 24 27  1  0  0  0
 27 28  1  0  0  0
 28 29  1  0  0  0
 29 30  1  0  0  0
 30 31  1  0  0  0
 31 32  1  0  0  0
 24 25  1  0  0  0
 25 26  2  0  0  0
  5  6  2  0  0  0
  6  7  1  0  0  0
  7 11  1  0  0  0
 11 12  2  0  0  0
 12 13  1  0  0  0
 13 14  1  0  0  0
 14 15  2  0  0  0
  7  8  2  0  0  0
  8  9  1  0  0  0
  9 10  2  0  0  0
 10 17  1  0  0  0
 17 18  1  0  0  0
 17 19  1  0  0  0
 17 20  1  0  0  0
 10  5  1  0  0  0
 26 21  1  0  0  0
 15 11  1  0  0  0
 32 27  1  0  0  0
  1  4  1  0  0  0
 13 16  1  0  0  0
M  END
> <minimizedAffinity>
-9.44909

> <CNNscore>
0.1564071327

> <CNNaffinity>
6.2464456558

> <CNN_VS>
0.9769886732

> <CNNaffinity_variance>
0.1117063910

$$$$
[H]c1nc(N2C([H])([H])C([H])([H])OC([H])([H])C2([H])[H])c(C(F)(F)F)c([H])c1C(=O)N([H])c1c([H])c(-c2nn([H])c([H])c2[H])c([H])c([H])c1C(F)(F)F


 36 39  0  0  0  0  0  0  0  0999 V2000
   -4.4789   22.2549  -22.5605 N   0  0  0  0  0  0  0  0  0  0  0  0
   -4.1884   22.9472  -21.3886 C   0  0  0  0  0  0  0  0  0  0  0  0
   -3.5831   24.0490  -21.3250 O   0  0  0  0  0  0  0  0  0  0  0  0
   -4.9894   21.3323  -22.4230 H   0  0  0  0  0  0  0  0  0  0  0  0
   -4.1558   22.6588  -23.8667 C   0  0  0  0  0  0  0  0  0  0  0  0
   -2.9187   22.4650  -24.4598 C   0  0  0  0  0  0  0  0  0  0  0  0
   -2.6235   22.8759  -25.7557 C   0  0  0  0  0  0  0  0  0  0  0  0
   -3.6292   23.5005  -26.4527 C   0  0  0  0  0  0  0  0  0  0  0  0
   -4.8655   23.7008  -25.8770 C   0  0  0  0  0  0  0  0  0  0  0  0
   -5.1737   23.2994  -24.5940 C   0  0  0  0  0  0  0  0  0  0  0  0
   -1.3055   22.6486  -26.3350 C   0  0  0  0  0  0  0  0  0  0  0  0
   -0.1752   22.2685  -25.7173 N   0  0  0  0  0  0  0  0  0  0  0  0
    0.8295   22.1659  -26.5842 N   0  0  0  0  0  0  0  0  0  0  0  0
    0.3742   22.4812  -27.8086 C   0  0  0  0  0  0  0  0  0  0  0  0
   -0.9601   22.7844  -27.6618 C   0  0  0  0  0  0  0  0  0  0  0  0
    1.8209   21.8816  -26.3382 H   0  0  0  0  0  0  0  0  0  0  0  0
   -6.5293   23.5459  -24.0336 C   0  0  0  0  0  0  0  0  0  0  0  0
   -7.3438   24.0077  -25.1009 F   0  0  0  0  0  0  0  0  0  0  0  0
   -7.1243   22.3767  -23.6359 F   0  0  0  0  0  0  0  0  0  0  0  0
   -6.5795   24.5647  -23.1200 F   0  0  0  0  0  0  0  0  0  0  0  0
   -4.5969   22.3959  -20.0770 C   0  0  0  0  0  0  0  0  0  0  0  0
   -4.8542   23.2369  -19.0403 C   0  0  0  0  0  0  0  0  0  0  0  0
   -5.2534   22.7109  -17.7906 C   0  0  0  0  0  0  0  0  0  0  0  0
   -5.3814   21.3647  -17.6216 C   0  0  0  0  0  0  0  0  0  0  0  0
   -5.1099   20.5480  -18.7001 N   0  0  0  0  0  0  0  0  0  0  0  0
   -4.7315   21.0519  -19.8833 C   0  0  0  0  0  0  0  0  0  0  0  0
   -5.7818   20.7709  -16.4208 N   0  0  0  0  0  0  0  0  0  0  0  0
   -7.0856   20.5788  -15.8972 C   0  0  0  0  0  0  0  0  0  0  0  0
   -7.1986   21.0510  -14.4519 C   0  0  0  0  0  0  0  0  0  0  0  0
   -6.1452   20.5830  -13.6810 O   0  0  0  0  0  0  0  0  0  0  0  0
   -5.3584   19.6612  -14.3614 C   0  0  0  0  0  0  0  0  0  0  0  0
   -4.6829   20.2781  -15.5644 C   0  0  0  0  0  0  0  0  0  0  0  0
   -5.5069   23.6481  -16.6993 C   0  0  0  0  0  0  0  0  0  0  0  0
   -6.8933   23.6395  -16.4285 F   0  0  0  0  0  0  0  0  0  0  0  0
   -5.2643   24.9809  -17.0260 F   0  0  0  0  0  0  0  0  0  0  0  0
   -4.8546   23.3820  -15.5285 F   0  0  0  0  0  0  0  0  0  0  0  0
  5  1  1  0  0  0
  1  2  1  0  0  0
  2  3  2  0  0  0
  2 21  1  0  0  0
 21 22  2  0  0  0
 22 23  1  0  0  0
 23 33  1  0  0  0
 33 34  1  0  0  0
 33 35  1  0  0  0
 33 36  1  0  0  0
 23 24  2  0  0  0
 24 27  1  0  0  0
 27 28  1  0  0  0
 28 29  1  0  0  0
 29 30  1  0  0  0
 30 31  1  0  0  0
 31 32  1  0  0  0
 24 25  1  0  0  0
 25 26  2  0  0  0
  5  6  2  0  0  0
  6  7  1  0  0  0
  7 11  1  0  0  0
 11 12  2  0  0  0
 12 13  1  0  0  0
 13 14  1  0  0  0
 14 15  2  0  0  0
  7  8  2  0  0  0
  8  9  1  0  0  0
  9 10  2  0  0  0
 10 17  1  0  0  0
 17 18  1  0  0  0
 17 19  1  0  0  0
 17 20  1  0  0  0
 10  5  1  0  0  0
 26 21  1  0  0  0
 15 11  1  0  0  0
 32 27  1  0  0  0
  1  4  1  0  0  0
 13 16  1  0  0  0
M  END
> <minimizedAffinity>
-7.05092

> <CNNscore>
0.1499073207

> <CNNaffinity>
6.0606594086

> <CNN_VS>
0.9085372090

> <CNNaffinity_variance>
0.2736419141

$$$$
[H]c1nc(N2C([H])([H])C([H])([H])OC([H])([H])C2([H])[H])c(C(F)(F)F)c([H])c1C(=O)N([H])c1c([H])c(-c2nn([H])c([H])c2[H])c([H])c([H])c1C(F)(F)F


 36 39  0  0  0  0  0  0  0  0999 V2000
   -3.9069   22.3924  -22.7969 N   0  0  0  0  0  0  0  0  0  0  0  0
   -3.2908   23.0970  -21.7668 C   0  0  0  0  0  0  0  0  0  0  0  0
   -2.6158   24.1501  -21.9073 O   0  0  0  0  0  0  0  0  0  0  0  0
   -4.4287   21.5169  -22.4936 H   0  0  0  0  0  0  0  0  0  0  0  0
   -3.8892   22.7285  -24.1608 C   0  0  0  0  0  0  0  0  0  0  0  0
   -2.7665   22.6508  -24.9691 C   0  0  0  0  0  0  0  0  0  0  0  0
   -2.7750   22.9911  -26.3180 C   0  0  0  0  0  0  0  0  0  0  0  0
   -3.9702   23.4207  -26.8418 C   0  0  0  0  0  0  0  0  0  0  0  0
   -5.0962   23.5035  -26.0511 C   0  0  0  0  0  0  0  0  0  0  0  0
   -5.1040   23.1700  -24.7129 C   0  0  0  0  0  0  0  0  0  0  0  0
   -1.5663   22.8919  -27.1263 C   0  0  0  0  0  0  0  0  0  0  0  0
   -1.3872   23.2467  -28.4091 N   0  0  0  0  0  0  0  0  0  0  0  0
   -0.1385   23.0033  -28.8004 N   0  0  0  0  0  0  0  0  0  0  0  0
    0.5399   22.4752  -27.7675 C   0  0  0  0  0  0  0  0  0  0  0  0
   -0.3455   22.4020  -26.7165 C   0  0  0  0  0  0  0  0  0  0  0  0
    0.2463   23.1978  -29.7690 H   0  0  0  0  0  0  0  0  0  0  0  0
   -6.3555   23.2816  -23.9168 C   0  0  0  0  0  0  0  0  0  0  0  0
   -7.3538   23.8040  -24.7807 F   0  0  0  0  0  0  0  0  0  0  0  0
   -6.8307   22.0465  -23.5594 F   0  0  0  0  0  0  0  0  0  0  0  0
   -6.2916   24.1972  -22.9005 F   0  0  0  0  0  0  0  0  0  0  0  0
   -3.3997   22.6207  -20.3695 C   0  0  0  0  0  0  0  0  0  0  0  0
   -4.6170   22.2965  -19.8584 C   0  0  0  0  0  0  0  0  0  0  0  0
   -4.7198   21.8327  -18.5272 C   0  0  0  0  0  0  0  0  0  0  0  0
   -3.6036   21.7095  -17.7549 C   0  0  0  0  0  0  0  0  0  0  0  0
   -2.3888   22.0501  -18.3137 N   0  0  0  0  0  0  0  0  0  0  0  0
   -2.2967   22.4895  -19.5768 C   0  0  0  0  0  0  0  0  0  0  0  0
   -3.6237   21.2481  -16.4353 N   0  0  0  0  0  0  0  0  0  0  0  0
   -3.6563   19.9189  -15.9421 C   0  0  0  0  0  0  0  0  0  0  0  0
   -4.7423   19.7241  -14.8897 C   0  0  0  0  0  0  0  0  0  0  0  0
   -4.7191   20.7370  -13.9428 O   0  0  0  0  0  0  0  0  0  0  0  0
   -3.6118   21.5657  -14.0793 C   0  0  0  0  0  0  0  0  0  0  0  0
   -3.6197   22.3018  -15.3992 C   0  0  0  0  0  0  0  0  0  0  0  0
   -6.0476   21.5081  -18.0126 C   0  0  0  0  0  0  0  0  0  0  0  0
   -7.0033   21.9788  -18.9402 F   0  0  0  0  0  0  0  0  0  0  0  0
   -6.3879   22.1898  -16.8457 F   0  0  0  0  0  0  0  0  0  0  0  0
   -6.2921   20.1800  -17.8040 F   0  0  0  0  0  0  0  0  0  0  0  0
  5  1  1  0  0  0
  1  2  1  0  0  0
  2  3  2  0  0  0
  2 21  1  0  0  0
 21 22  2  0  0  0
 22 23  1  0  0  0
 23 33  1  0  0  0
 33 34  1  0  0  0
 33 35  1  0  0  0
 33 36  1  0  0  0
 23 24  2  0  0  0
 24 27  1  0  0  0
 27 28  1  0  0  0
 28 29  1  0  0  0
 29 30  1  0  0  0
 30 31  1  0  0  0
 31 32  1  0  0  0
 24 25  1  0  0  0
 25 26  2  0  0  0
  5  6  2  0  0  0
  6  7  1  0  0  0
  7 11  1  0  0  0
 11 12  2  0  0  0
 12 13  1  0  0  0
 13 14  1  0  0  0
 14 15  2  0  0  0
  7  8  2  0  0  0
  8  9  1  0  0  0
  9 10  2  0  0  0
 10 17  1  0  0  0
 17 18  1  0  0  0
 17 19  1  0  0  0
 17 20  1  0  0  0
 10  5  1  0  0  0
 26 21  1  0  0  0
 15 11  1  0  0  0
 32 27  1  0  0  0
  1  4  1  0  0  0
 13 16  1  0  0  0
M  END
> <minimizedAffinity>
-6.84599

> <CNNscore>
0.1316795796

> <CNNaffinity>
6.1176538467

> <CNN_VS>
0.8055700660

> <CNNaffinity_variance>
0.2328388244

$$$$
[H]OC(=O)c1c([H])c([H])c(N2C([H])([H])C([H])([H])N(c3nc([H])nc4c3c([H])c([H])n4[H])C([H])([H])[C@]2([H])C([H])([H])[H])c([H])c1[H]


 27 30  0  0  0  0  0  0  0  0999 V2000
   -3.5027   24.2664  -23.2288 C   0  0  0  0  0  0  0  0  0  0  0  0
   -4.4875   24.4734  -24.3397 C   0  0  0  0  0  0  0  0  0  0  0  0
   -3.9239   24.1283  -25.7047 C   0  0  0  0  0  0  0  0  0  0  0  0
   -3.2827   22.8014  -25.5489 N   0  0  0  0  0  0  0  0  0  0  0  0
   -4.0824   21.8219  -24.9005 C   0  0  0  0  0  0  0  0  0  0  0  0
   -5.5403   22.2653  -24.7451 C   0  0  0  0  0  0  0  0  0  0  0  0
   -5.6144   23.5745  -24.1497 N   0  0  0  0  0  0  0  0  0  0  0  0
   -1.9962   22.7013  -26.0834 C   0  0  0  0  0  0  0  0  0  0  0  0
   -1.7735   22.9761  -27.4067 N   0  0  0  0  0  0  0  0  0  0  0  0
   -0.5941   22.8904  -28.0118 C   0  0  0  0  0  0  0  0  0  0  0  0
    0.4893   22.5121  -27.3218 N   0  0  0  0  0  0  0  0  0  0  0  0
    0.3273   22.2290  -26.0105 C   0  0  0  0  0  0  0  0  0  0  0  0
    1.2346   21.8326  -25.0768 N   0  0  0  0  0  0  0  0  0  0  0  0
    0.6588   21.6654  -23.8934 C   0  0  0  0  0  0  0  0  0  0  0  0
   -0.6916   21.9590  -24.0270 C   0  0  0  0  0  0  0  0  0  0  0  0
   -0.8934   22.3095  -25.3500 C   0  0  0  0  0  0  0  0  0  0  0  0
    2.2669   21.6799  -25.2790 H   0  0  0  0  0  0  0  0  0  0  0  0
   -6.7535   23.9425  -23.4079 C   0  0  0  0  0  0  0  0  0  0  0  0
   -7.0722   23.3313  -22.2128 C   0  0  0  0  0  0  0  0  0  0  0  0
   -8.1805   23.6717  -21.4568 C   0  0  0  0  0  0  0  0  0  0  0  0
   -9.0346   24.6648  -21.8820 C   0  0  0  0  0  0  0  0  0  0  0  0
   -8.7439   25.2946  -23.0718 C   0  0  0  0  0  0  0  0  0  0  0  0
   -7.6298   24.9446  -23.8208 C   0  0  0  0  0  0  0  0  0  0  0  0
  -10.2007   25.0156  -21.0761 C   0  0  0  0  0  0  0  0  0  0  0  0
  -10.0285   25.4385  -19.7694 O   0  0  0  0  0  0  0  0  0  0  0  0
  -11.3698   24.9487  -21.5256 O   0  0  0  0  0  0  0  0  0  0  0  0
   -9.4606   26.2269  -19.4958 H   0  0  0  0  0  0  0  0  0  0  0  0
  1  2  1  0  0  0
  2  3  1  0  0  0
  3  4  1  0  0  0
  4  5  1  0  0  0
  5  6  1  0  0  0
  6  7  1  0  0  0
  7 18  1  0  0  0
 18 19  2  0  0  0
 19 20  1  0  0  0
 20 21  2  0  0  0
 21 22  1  0  0  0
 22 23  2  0  0  0
 21 24  1  0  0  0
 24 25  1  0  0  0
 24 26  2  0  0  0
  4  8  1  0  0  0
  8  9  2  0  0  0
  9 10  1  0  0  0
 10 11  2  0  0  0
 11 12  1  0  0  0
 12 13  1  0  0  0
 13 14  1  0  0  0
 14 15  2  0  0  0
 15 16  1  0  0  0
  7  2  1  0  0  0
 23 18  1  0  0  0
 16  8  1  0  0  0
 16 12  2  0  0  0
 25 27  1  0  0  0
 13 17  1  0  0  0
M  END
> <minimizedAffinity>
-8.61979

> <CNNscore>
0.7566418648

> <CNNaffinity>
6.2941579819

> <CNN_VS>
4.7624235153

> <CNNaffinity_variance>
0.1800937206

$$$$
[H]OC(=O)c1c([H])c([H])c(N2C([H])([H])C([H])([H])N(c3nc([H])nc4c3c([H])c([H])n4[H])C([H])([H])[C@]2([H])C([H])([H])[H])c([H])c1[H]


 27 30  0  0  0  0  0  0  0  0999 V2000
   -3.4731   24.1405  -23.1386 C   0  0  0  0  0  0  0  0  0  0  0  0
   -4.4534   24.4778  -24.2212 C   0  0  0  0  0  0  0  0  0  0  0  0
   -3.9114   24.2208  -25.6141 C   0  0  0  0  0  0  0  0  0  0  0  0
   -3.3265   22.8599  -25.5709 N   0  0  0  0  0  0  0  0  0  0  0  0
   -4.1640   21.8656  -24.9971 C   0  0  0  0  0  0  0  0  0  0  0  0
   -5.6010   22.3559  -24.7946 C   0  0  0  0  0  0  0  0  0  0  0  0
   -5.6165   23.6145  -24.0951 N   0  0  0  0  0  0  0  0  0  0  0  0
   -2.0480   22.7494  -26.1223 C   0  0  0  0  0  0  0  0  0  0  0  0
   -1.8401   23.0242  -27.4480 N   0  0  0  0  0  0  0  0  0  0  0  0
   -0.6693   22.9291  -28.0685 C   0  0  0  0  0  0  0  0  0  0  0  0
    0.4196   22.5404  -27.3931 N   0  0  0  0  0  0  0  0  0  0  0  0
    0.2721   22.2568  -26.0802 C   0  0  0  0  0  0  0  0  0  0  0  0
    1.1880   21.8512  -25.1589 N   0  0  0  0  0  0  0  0  0  0  0  0
    0.6261   21.6872  -23.9683 C   0  0  0  0  0  0  0  0  0  0  0  0
   -0.7233   21.9927  -24.0840 C   0  0  0  0  0  0  0  0  0  0  0  0
   -0.9392   22.3469  -25.4038 C   0  0  0  0  0  0  0  0  0  0  0  0
    2.2162   21.6898  -25.3747 H   0  0  0  0  0  0  0  0  0  0  0  0
   -6.7355   23.9689  -23.3168 C   0  0  0  0  0  0  0  0  0  0  0  0
   -7.5255   25.0554  -23.6308 C   0  0  0  0  0  0  0  0  0  0  0  0
   -8.6342   25.4284  -22.8908 C   0  0  0  0  0  0  0  0  0  0  0  0
   -9.0026   24.7064  -21.7774 C   0  0  0  0  0  0  0  0  0  0  0  0
   -8.2338   23.6156  -21.4372 C   0  0  0  0  0  0  0  0  0  0  0  0
   -7.1248   23.2516  -22.1870 C   0  0  0  0  0  0  0  0  0  0  0  0
  -10.1741   25.1092  -21.0043 C   0  0  0  0  0  0  0  0  0  0  0  0
  -11.3791   24.4555  -21.1957 O   0  0  0  0  0  0  0  0  0  0  0  0
  -10.1333   26.0368  -20.1611 O   0  0  0  0  0  0  0  0  0  0  0  0
  -11.5106   23.4602  -21.0901 H   0  0  0  0  0  0  0  0  0  0  0  0
  1  2  1  0  0  0
  2  3  1  0  0  0
  3  4  1  0  0  0
  4  5  1  0  0  0
  5  6  1  0  0  0
  6  7  1  0  0  0
  7 18  1  0  0  0
 18 19  2  0  0  0
 19 20  1  0  0  0
 20 21  2  0  0  0
 21 22  1  0  0  0
 22 23  2  0  0  0
 21 24  1  0  0  0
 24 25  1  0  0  0
 24 26  2  0  0  0
  4  8  1  0  0  0
  8  9  2  0  0  0
  9 10  1  0  0  0
 10 11  2  0  0  0
 11 12  1  0  0  0
 12 13  1  0  0  0
 13 14  1  0  0  0
 14 15  2  0  0  0
 15 16  1  0  0  0
  7  2  1  0  0  0
 23 18  1  0  0  0
 16  8  1  0  0  0
 16 12  2  0  0  0
 25 27  1  0  0  0
 13 17  1  0  0  0
M  END
> <minimizedAffinity>
-8.47096

> <CNNscore>
0.7367987633

> <CNNaffinity>
6.2963724136

> <CNN_VS>
4.6391592026

> <CNNaffinity_variance>
0.1968934834

$$$$
[H]OC(=O)c1c([H])c([H])c(N2C([H])([H])C([H])([H])N(c3nc([H])nc4c3c([H])c([H])n4[H])C([H])([H])[C@]2([H])C([H])([H])[H])c([H])c1[H]


 27 30  0  0  0  0  0  0  0  0999 V2000
   -4.3443   21.1107  -23.6985 C   0  0  0  0  0  0  0  0  0  0  0  0
   -4.3954   22.5095  -23.1620 C   0  0  0  0  0  0  0  0  0  0  0  0
   -3.6917   23.5137  -24.0545 C   0  0  0  0  0  0  0  0  0  0  0  0
   -4.1904   23.2494  -25.4247 N   0  0  0  0  0  0  0  0  0  0  0  0
   -5.6030   23.1446  -25.5385 C   0  0  0  0  0  0  0  0  0  0  0  0
   -6.3283   23.5996  -24.2683 C   0  0  0  0  0  0  0  0  0  0  0  0
   -5.7808   22.9473  -23.1071 N   0  0  0  0  0  0  0  0  0  0  0  0
   -3.2009   23.1662  -26.4069 C   0  0  0  0  0  0  0  0  0  0  0  0
   -3.4850   23.4981  -27.7051 N   0  0  0  0  0  0  0  0  0  0  0  0
   -2.6208   23.4330  -28.7119 C   0  0  0  0  0  0  0  0  0  0  0  0
   -1.3661   23.0189  -28.4948 N   0  0  0  0  0  0  0  0  0  0  0  0
   -1.0304   22.6788  -27.2308 C   0  0  0  0  0  0  0  0  0  0  0  0
    0.1521   22.2368  -26.7227 N   0  0  0  0  0  0  0  0  0  0  0  0
    0.0588   22.0204  -25.4171 C   0  0  0  0  0  0  0  0  0  0  0  0
   -1.2364   22.3267  -25.0220 C   0  0  0  0  0  0  0  0  0  0  0  0
   -1.9122   22.7365  -26.1575 C   0  0  0  0  0  0  0  0  0  0  0  0
    1.0296   22.0877  -27.3037 H   0  0  0  0  0  0  0  0  0  0  0  0
   -6.5878   22.7490  -21.9701 C   0  0  0  0  0  0  0  0  0  0  0  0
   -6.4370   23.5100  -20.8292 C   0  0  0  0  0  0  0  0  0  0  0  0
   -7.2158   23.3449  -19.6969 C   0  0  0  0  0  0  0  0  0  0  0  0
   -8.2019   22.3842  -19.6647 C   0  0  0  0  0  0  0  0  0  0  0  0
   -8.3776   21.6075  -20.7884 C   0  0  0  0  0  0  0  0  0  0  0  0
   -7.5907   21.7826  -21.9175 C   0  0  0  0  0  0  0  0  0  0  0  0
   -9.0174   22.2190  -18.4646 C   0  0  0  0  0  0  0  0  0  0  0  0
   -8.5377   22.6615  -17.2440 O   0  0  0  0  0  0  0  0  0  0  0  0
  -10.1518   21.6847  -18.4944 O   0  0  0  0  0  0  0  0  0  0  0  0
   -8.2494   23.6103  -17.0551 H   0  0  0  0  0  0  0  0  0  0  0  0
  1  2  1  0  0  0
  2  3  1  0  0  0
  3  4  1  0  0  0
  4  5  1  0  0  0
  5  6  1  0  0  0
  6  7  1  0  0  0
  7 18  1  0  0  0
 18 19  2  0  0  0
 19 20  1  0  0  0
 20 21  2  0  0  0
 21 22  1  0  0  0
 22 23  2  0  0  0
 21 24  1  0  0  0
 24 25  1  0  0  0
 24 26  2  0  0  0
  4  8  1  0  0  0
  8  9  2  0  0  0
  9 10  1  0  0  0
 10 11  2  0  0  0
 11 12  1  0  0  0
 12 13  1  0  0  0
 13 14  1  0  0  0
 14 15  2  0  0  0
 15 16  1  0  0  0
  7  2  1  0  0  0
 23 18  1  0  0  0
 16  8  1  0  0  0
 16 12  2  0  0  0
 25 27  1  0  0  0
 13 17  1  0  0  0
M  END
> <minimizedAffinity>
-7.41096

> <CNNscore>
0.7161583304

> <CNNaffinity>
6.3713226318

> <CNN_VS>
4.5628757477

> <CNNaffinity_variance>
0.4604554176

$$$$
[H]OC(=O)c1c([H])c([H])c(N2C([H])([H])C([H])([H])N(c3nc([H])nc4c3c([H])c([H])n4[H])C([H])([H])[C@]2([H])C([H])([H])[H])c([H])c1[H]


 27 30  0  0  0  0  0  0  0  0999 V2000
   -0.7697   21.1845  -22.0476 C   0  0  0  0  0  0  0  0  0  0  0  0
   -1.5133   22.4615  -21.7964 C   0  0  0  0  0  0  0  0  0  0  0  0
   -1.7245   23.2827  -23.0538 C   0  0  0  0  0  0  0  0  0  0  0  0
   -2.2433   22.3349  -24.0680 N   0  0  0  0  0  0  0  0  0  0  0  0
   -3.3186   21.5163  -23.6285 C   0  0  0  0  0  0  0  0  0  0  0  0
   -3.8952   21.9775  -22.2865 C   0  0  0  0  0  0  0  0  0  0  0  0
   -2.8479   22.1472  -21.3128 N   0  0  0  0  0  0  0  0  0  0  0  0
   -1.6158   22.4021  -25.3140 C   0  0  0  0  0  0  0  0  0  0  0  0
   -0.2691   22.1772  -25.4235 N   0  0  0  0  0  0  0  0  0  0  0  0
    0.4210   22.2378  -26.5569 C   0  0  0  0  0  0  0  0  0  0  0  0
   -0.1985   22.5368  -27.7057 N   0  0  0  0  0  0  0  0  0  0  0  0
   -1.5289   22.7680  -27.6562 C   0  0  0  0  0  0  0  0  0  0  0  0
   -2.4054   23.0820  -28.6488 N   0  0  0  0  0  0  0  0  0  0  0  0
   -3.6356   23.2214  -28.1719 C   0  0  0  0  0  0  0  0  0  0  0  0
   -3.5944   22.9938  -26.8030 C   0  0  0  0  0  0  0  0  0  0  0  0
   -2.2776   22.7119  -26.4861 C   0  0  0  0  0  0  0  0  0  0  0  0
   -2.1307   23.1980  -29.6690 H   0  0  0  0  0  0  0  0  0  0  0  0
   -3.1366   22.0024  -19.9420 C   0  0  0  0  0  0  0  0  0  0  0  0
   -2.3315   22.5538  -18.9667 C   0  0  0  0  0  0  0  0  0  0  0  0
   -2.5886   22.4347  -17.6119 C   0  0  0  0  0  0  0  0  0  0  0  0
   -3.6925   21.7391  -17.1716 C   0  0  0  0  0  0  0  0  0  0  0  0
   -4.5165   21.1763  -18.1209 C   0  0  0  0  0  0  0  0  0  0  0  0
   -4.2483   21.3027  -19.4762 C   0  0  0  0  0  0  0  0  0  0  0  0
   -3.9537   21.6200  -15.7399 C   0  0  0  0  0  0  0  0  0  0  0  0
   -4.4935   20.4488  -15.2370 O   0  0  0  0  0  0  0  0  0  0  0  0
   -3.7054   22.5489  -14.9344 O   0  0  0  0  0  0  0  0  0  0  0  0
   -4.0804   19.5351  -15.3530 H   0  0  0  0  0  0  0  0  0  0  0  0
  1  2  1  0  0  0
  2  3  1  0  0  0
  3  4  1  0  0  0
  4  5  1  0  0  0
  5  6  1  0  0  0
  6  7  1  0  0  0
  7 18  1  0  0  0
 18 19  2  0  0  0
 19 20  1  0  0  0
 20 21  2  0  0  0
 21 22  1  0  0  0
 22 23  2  0  0  0
 21 24  1  0  0  0
 24 25  1  0  0  0
 24 26  2  0  0  0
  4  8  1  0  0  0
  8  9  2  0  0  0
  9 10  1  0  0  0
 10 11  2  0  0  0
 11 12  1  0  0  0
 12 13  1  0  0  0
 13 14  1  0  0  0
 14 15  2  0  0  0
 15 16  1  0  0  0
  7  2  1  0  0  0
 23 18  1  0  0  0
 16  8  1  0  0  0
 16 12  2  0  0  0
 25 27  1  0  0  0
 13 17  1  0  0  0
M  END
> <minimizedAffinity>
-6.57152

> <CNNscore>
0.5664402246

> <CNNaffinity>
5.9881877899

> <CNN_VS>
3.3919503689

> <CNNaffinity_variance>
0.4878621101

$$$$
[H]OC(=O)c1c([H])c([H])c(N2C([H])([H])C([H])([H])N(c3nc([H])nc4c3c([H])c([H])n4[H])C([H])([H])[C@]2([H])C([H])([H])[H])c([H])c1[H]


 27 30  0  0  0  0  0  0  0  0999 V2000
   -3.7064   23.7721  -22.5267 C   0  0  0  0  0  0  0  0  0  0  0  0
   -4.5360   24.2413  -23.6836 C   0  0  0  0  0  0  0  0  0  0  0  0
   -3.8642   24.0183  -25.0249 C   0  0  0  0  0  0  0  0  0  0  0  0
   -3.3853   22.6161  -25.0042 N   0  0  0  0  0  0  0  0  0  0  0  0
   -4.3490   21.6600  -24.5840 C   0  0  0  0  0  0  0  0  0  0  0  0
   -5.7612   22.2478  -24.5040 C   0  0  0  0  0  0  0  0  0  0  0  0
   -5.7641   23.4647  -23.7340 N   0  0  0  0  0  0  0  0  0  0  0  0
   -2.0652   22.4372  -25.4237 C   0  0  0  0  0  0  0  0  0  0  0  0
   -1.1142   21.9913  -24.5445 N   0  0  0  0  0  0  0  0  0  0  0  0
    0.1678   21.8092  -24.8408 C   0  0  0  0  0  0  0  0  0  0  0  0
    0.6149   22.0659  -26.0766 N   0  0  0  0  0  0  0  0  0  0  0  0
   -0.2814   22.5084  -26.9858 C   0  0  0  0  0  0  0  0  0  0  0  0
   -0.1168   22.8385  -28.2958 N   0  0  0  0  0  0  0  0  0  0  0  0
   -1.2643   23.2251  -28.8378 C   0  0  0  0  0  0  0  0  0  0  0  0
   -2.2469   23.1555  -27.8595 C   0  0  0  0  0  0  0  0  0  0  0  0
   -1.6284   22.7083  -26.7056 C   0  0  0  0  0  0  0  0  0  0  0  0
    0.8132   22.7895  -28.8083 H   0  0  0  0  0  0  0  0  0  0  0  0
   -6.9336   23.8620  -23.0574 C   0  0  0  0  0  0  0  0  0  0  0  0
   -7.3727   23.2139  -21.9214 C   0  0  0  0  0  0  0  0  0  0  0  0
   -8.5141   23.5812  -21.2298 C   0  0  0  0  0  0  0  0  0  0  0  0
   -9.2794   24.6410  -21.6631 C   0  0  0  0  0  0  0  0  0  0  0  0
   -8.8676   25.3089  -22.7949 C   0  0  0  0  0  0  0  0  0  0  0  0
   -7.7215   24.9314  -23.4795 C   0  0  0  0  0  0  0  0  0  0  0  0
  -10.4815   25.0195  -20.9256 C   0  0  0  0  0  0  0  0  0  0  0  0
  -10.4267   26.0590  -20.0133 O   0  0  0  0  0  0  0  0  0  0  0  0
  -11.5784   24.4330  -21.0869 O   0  0  0  0  0  0  0  0  0  0  0  0
  -10.1305   26.9979  -20.2362 H   0  0  0  0  0  0  0  0  0  0  0  0
  1  2  1  0  0  0
  2  3  1  0  0  0
  3  4  1  0  0  0
  4  5  1  0  0  0
  5  6  1  0  0  0
  6  7  1  0  0  0
  7 18  1  0  0  0
 18 19  2  0  0  0
 19 20  1  0  0  0
 20 21  2  0  0  0
 21 22  1  0  0  0
 22 23  2  0  0  0
 21 24  1  0  0  0
 24 25  1  0  0  0
 24 26  2  0  0  0
  4  8  1  0  0  0
  8  9  2  0  0  0
  9 10  1  0  0  0
 10 11  2  0  0  0
 11 12  1  0  0  0
 12 13  1  0  0  0
 13 14  1  0  0  0
 14 15  2  0  0  0
 15 16  1  0  0  0
  7  2  1  0  0  0
 23 18  1  0  0  0
 16  8  1  0  0  0
 16 12  2  0  0  0
 25 27  1  0  0  0
 13 17  1  0  0  0
M  END
> <minimizedAffinity>
-7.90331

> <CNNscore>
0.5568544865

> <CNNaffinity>
6.0590066910

> <CNN_VS>
3.3739850521

> <CNNaffinity_variance>
0.2437425107

$$$$
[H]OC(=O)c1c([H])c([H])c(N2C([H])([H])C([H])([H])N(c3nc([H])nc4c3c([H])c([H])n4[H])C([H])([H])[C@]2([H])C([H])([H])[H])c([H])c1[H]


 27 30  0  0  0  0  0  0  0  0999 V2000
   -6.2086   22.4068  -24.6953 C   0  0  0  0  0  0  0  0  0  0  0  0
   -5.6335   21.9384  -23.3927 C   0  0  0  0  0  0  0  0  0  0  0  0
   -4.1297   21.7481  -23.4419 C   0  0  0  0  0  0  0  0  0  0  0  0
   -3.5908   22.9797  -24.0655 N   0  0  0  0  0  0  0  0  0  0  0  0
   -4.0826   24.1943  -23.5156 C   0  0  0  0  0  0  0  0  0  0  0  0
   -4.8569   23.9759  -22.2121 C   0  0  0  0  0  0  0  0  0  0  0  0
   -5.8600   22.9564  -22.3796 N   0  0  0  0  0  0  0  0  0  0  0  0
   -2.6608   22.7664  -25.0854 C   0  0  0  0  0  0  0  0  0  0  0  0
   -1.4048   22.3059  -24.7913 N   0  0  0  0  0  0  0  0  0  0  0  0
   -0.4462   22.0913  -25.6855 C   0  0  0  0  0  0  0  0  0  0  0  0
   -0.6734   22.3269  -26.9839 N   0  0  0  0  0  0  0  0  0  0  0  0
   -1.8972   22.7824  -27.3313 C   0  0  0  0  0  0  0  0  0  0  0  0
   -2.4049   23.0974  -28.5541 N   0  0  0  0  0  0  0  0  0  0  0  0
   -3.6633   23.5061  -28.4568 C   0  0  0  0  0  0  0  0  0  0  0  0
   -4.0255   23.4679  -27.1171 C   0  0  0  0  0  0  0  0  0  0  0  0
   -2.9198   23.0163  -26.4189 C   0  0  0  0  0  0  0  0  0  0  0  0
   -1.8571   23.0223  -29.4619 H   0  0  0  0  0  0  0  0  0  0  0  0
   -7.0164   22.9735  -21.5758 C   0  0  0  0  0  0  0  0  0  0  0  0
   -7.5559   21.8166  -21.0526 C   0  0  0  0  0  0  0  0  0  0  0  0
   -8.6874   21.7983  -20.2556 C   0  0  0  0  0  0  0  0  0  0  0  0
   -9.3387   22.9712  -19.9448 C   0  0  0  0  0  0  0  0  0  0  0  0
   -8.8248   24.1439  -20.4522 C   0  0  0  0  0  0  0  0  0  0  0  0
   -7.6898   24.1495  -21.2499 C   0  0  0  0  0  0  0  0  0  0  0  0
  -10.5315   22.9398  -19.1031 C   0  0  0  0  0  0  0  0  0  0  0  0
  -11.0248   21.7252  -18.6588 O   0  0  0  0  0  0  0  0  0  0  0  0
  -11.1370   23.9835  -18.7606 O   0  0  0  0  0  0  0  0  0  0  0  0
  -10.4918   21.0546  -18.1247 H   0  0  0  0  0  0  0  0  0  0  0  0
  1  2  1  0  0  0
  2  3  1  0  0  0
  3  4  1  0  0  0
  4  5  1  0  0  0
  5  6  1  0  0  0
  6  7  1  0  0  0
  7 18  1  0  0  0
 18 19  2  0  0  0
 19 20  1  0  0  0
 20 21  2  0  0  0
 21 22  1  0  0  0
 22 23  2  0  0  0
 21 24  1  0  0  0
 24 25  1  0  0  0
 24 26  2  0  0  0
  4  8  1  0  0  0
  8  9  2  0  0  0
  9 10  1  0  0  0
 10 11  2  0  0  0
 11 12  1  0  0  0
 12 13  1  0  0  0
 13 14  1  0  0  0
 14 15  2  0  0  0
 15 16  1  0  0  0
  7  2  1  0  0  0
 23 18  1  0  0  0
 16  8  1  0  0  0
 16 12  2  0  0  0
 25 27  1  0  0  0
 13 17  1  0  0  0
M  END
> <minimizedAffinity>
-7.48211

> <CNNscore>
0.5204638839

> <CNNaffinity>
6.0614194870

> <CNN_VS>
3.1547498703

> <CNNaffinity_variance>
0.5261170268

$$$$
[H]OC(=O)c1c([H])c([H])c(N2C([H])([H])C([H])([H])N(c3nc([H])nc4c3c([H])c([H])n4[H])C([H])([H])[C@]2([H])C([H])([H])[H])c([H])c1[H]


 27 30  0  0  0  0  0  0  0  0999 V2000
   -2.0102   23.5729  -21.8311 C   0  0  0  0  0  0  0  0  0  0  0  0
   -3.4174   23.9445  -22.1896 C   0  0  0  0  0  0  0  0  0  0  0  0
   -3.6902   23.8689  -23.6795 C   0  0  0  0  0  0  0  0  0  0  0  0
   -3.1582   22.5569  -24.1174 N   0  0  0  0  0  0  0  0  0  0  0  0
   -3.5574   21.4515  -23.3185 C   0  0  0  0  0  0  0  0  0  0  0  0
   -4.6753   21.8127  -22.3355 C   0  0  0  0  0  0  0  0  0  0  0  0
   -4.3307   22.9903  -21.5818 N   0  0  0  0  0  0  0  0  0  0  0  0
   -2.3626   22.5960  -25.2646 C   0  0  0  0  0  0  0  0  0  0  0  0
   -1.0057   22.4336  -25.1715 N   0  0  0  0  0  0  0  0  0  0  0  0
   -0.1640   22.4746  -26.1984 C   0  0  0  0  0  0  0  0  0  0  0  0
   -0.6252   22.6874  -27.4373 N   0  0  0  0  0  0  0  0  0  0  0  0
   -1.9577   22.8540  -27.5878 C   0  0  0  0  0  0  0  0  0  0  0  0
   -2.6960   23.0762  -28.7091 N   0  0  0  0  0  0  0  0  0  0  0  0
   -3.9865   23.1765  -28.4181 C   0  0  0  0  0  0  0  0  0  0  0  0
   -4.1316   23.0166  -27.0467 C   0  0  0  0  0  0  0  0  0  0  0  0
   -2.8628   22.8162  -26.5331 C   0  0  0  0  0  0  0  0  0  0  0  0
   -2.2836   23.1571  -29.6855 H   0  0  0  0  0  0  0  0  0  0  0  0
   -4.8732   23.1821  -20.2963 C   0  0  0  0  0  0  0  0  0  0  0  0
   -5.8761   24.0994  -20.0594 C   0  0  0  0  0  0  0  0  0  0  0  0
   -6.4346   24.3094  -18.8105 C   0  0  0  0  0  0  0  0  0  0  0  0
   -5.9966   23.5882  -17.7222 C   0  0  0  0  0  0  0  0  0  0  0  0
   -4.9958   22.6642  -17.9258 C   0  0  0  0  0  0  0  0  0  0  0  0
   -4.4439   22.4626  -19.1825 C   0  0  0  0  0  0  0  0  0  0  0  0
   -6.5931   23.8183  -16.4093 C   0  0  0  0  0  0  0  0  0  0  0  0
   -6.3276   24.9964  -15.7330 O   0  0  0  0  0  0  0  0  0  0  0  0
   -7.3478   22.9800  -15.8606 O   0  0  0  0  0  0  0  0  0  0  0  0
   -6.5077   25.9185  -16.1023 H   0  0  0  0  0  0  0  0  0  0  0  0
  1  2  1  0  0  0
  2  3  1  0  0  0
  3  4  1  0  0  0
  4  5  1  0  0  0
  5  6  1  0  0  0
  6  7  1  0  0  0
  7 18  1  0  0  0
 18 19  2  0  0  0
 19 20  1  0  0  0
 20 21  2  0  0  0
 21 22  1  0  0  0
 22 23  2  0  0  0
 21 24  1  0  0  0
 24 25  1  0  0  0
 24 26  2  0  0  0
  4  8  1  0  0  0
  8  9  2  0  0  0
  9 10  1  0  0  0
 10 11  2  0  0  0
 11 12  1  0  0  0
 12 13  1  0  0  0
 13 14  1  0  0  0
 14 15  2  0  0  0
 15 16  1  0  0  0
  7  2  1  0  0  0
 23 18  1  0  0  0
 16  8  1  0  0  0
 16 12  2  0  0  0
 25 27  1  0  0  0
 13 17  1  0  0  0
M  END
> <minimizedAffinity>
-7.29352

> <CNNscore>
0.4639623761

> <CNNaffinity>
5.9146718979

> <CNN_VS>
2.7441852093

> <CNNaffinity_variance>
0.5439121723

$$$$
[H]OC(=O)c1c([H])c([H])c(N2C([H])([H])C([H])([H])N(c3nc([H])nc4c3c([H])c([H])n4[H])C([H])([H])[C@]2([H])C([H])([H])[H])c([H])c1[H]


 27 30  0  0  0  0  0  0  0  0999 V2000
   -2.4953   23.9927  -22.5648 C   0  0  0  0  0  0  0  0  0  0  0  0
   -3.9513   24.2525  -22.8090 C   0  0  0  0  0  0  0  0  0  0  0  0
   -4.3422   24.1161  -24.2679 C   0  0  0  0  0  0  0  0  0  0  0  0
   -3.7537   22.8339  -24.7215 N   0  0  0  0  0  0  0  0  0  0  0  0
   -4.0017   21.7254  -23.8675 C   0  0  0  0  0  0  0  0  0  0  0  0
   -5.0563   22.0328  -22.8001 C   0  0  0  0  0  0  0  0  0  0  0  0
   -4.7373   23.2526  -22.1044 N   0  0  0  0  0  0  0  0  0  0  0  0
   -3.0626   22.8979  -25.9335 C   0  0  0  0  0  0  0  0  0  0  0  0
   -3.7119   23.2671  -27.0816 N   0  0  0  0  0  0  0  0  0  0  0  0
   -3.1491   23.3382  -28.2828 C   0  0  0  0  0  0  0  0  0  0  0  0
   -1.8535   23.0371  -28.4367 N   0  0  0  0  0  0  0  0  0  0  0  0
   -1.1632   22.6665  -27.3357 C   0  0  0  0  0  0  0  0  0  0  0  0
    0.1439   22.3157  -27.1928 N   0  0  0  0  0  0  0  0  0  0  0  0
    0.4239   22.0243  -25.9292 C   0  0  0  0  0  0  0  0  0  0  0  0
   -0.7368   22.1827  -25.1841 C   0  0  0  0  0  0  0  0  0  0  0  0
   -1.7244   22.5829  -26.0665 C   0  0  0  0  0  0  0  0  0  0  0  0
    0.8411   22.2827  -27.9945 H   0  0  0  0  0  0  0  0  0  0  0  0
   -5.1823   23.4407  -20.7815 C   0  0  0  0  0  0  0  0  0  0  0  0
   -4.7388   22.6459  -19.7447 C   0  0  0  0  0  0  0  0  0  0  0  0
   -5.1518   22.8066  -18.4334 C   0  0  0  0  0  0  0  0  0  0  0  0
   -6.0496   23.7972  -18.1030 C   0  0  0  0  0  0  0  0  0  0  0  0
   -6.5115   24.6079  -19.1161 C   0  0  0  0  0  0  0  0  0  0  0  0
   -6.0900   24.4371  -20.4267 C   0  0  0  0  0  0  0  0  0  0  0  0
   -6.4781   23.9574  -16.7163 C   0  0  0  0  0  0  0  0  0  0  0  0
   -6.1225   25.0976  -16.0167 O   0  0  0  0  0  0  0  0  0  0  0  0
   -7.1657   23.0918  -16.1238 O   0  0  0  0  0  0  0  0  0  0  0  0
   -6.3399   26.0382  -16.3116 H   0  0  0  0  0  0  0  0  0  0  0  0
  1  2  1  0  0  0
  2  3  1  0  0  0
  3  4  1  0  0  0
  4  5  1  0  0  0
  5  6  1  0  0  0
  6  7  1  0  0  0
  7 18  1  0  0  0
 18 19  2  0  0  0
 19 20  1  0  0  0
 20 21  2  0  0  0
 21 22  1  0  0  0
 22 23  2  0  0  0
 21 24  1  0  0  0
 24 25  1  0  0  0
 24 26  2  0  0  0
  4  8  1  0  0  0
  8  9  2  0  0  0
  9 10  1  0  0  0
 10 11  2  0  0  0
 11 12  1  0  0  0
 12 13  1  0  0  0
 13 14  1  0  0  0
 14 15  2  0  0  0
 15 16  1  0  0  0
  7  2  1  0  0  0
 23 18  1  0  0  0
 16  8  1  0  0  0
 16 12  2  0  0  0
 25 27  1  0  0  0
 13 17  1  0  0  0
M  END
> <minimizedAffinity>
-7.54182

> <CNNscore>
0.4298380911

> <CNNaffinity>
5.8643627167

> <CNN_VS>
2.5207264423

> <CNNaffinity_variance>
0.2591179311

$$$$
[H]OC(=O)c1c([H])c([H])c(N2C([H])([H])C([H])([H])N(c3nc([H])nc4c3c([H])c([H])n4[H])C([H])([H])[C@]2([H])C([H])([H])[H])c([H])c1[H]


 27 30  0  0  0  0  0  0  0  0999 V2000
   -6.0569   22.1892  -24.8140 C   0  0  0  0  0  0  0  0  0  0  0  0
   -5.8507   23.3991  -23.9536 C   0  0  0  0  0  0  0  0  0  0  0  0
   -5.2839   24.5807  -24.7168 C   0  0  0  0  0  0  0  0  0  0  0  0
   -6.1106   24.7001  -25.9408 N   0  0  0  0  0  0  0  0  0  0  0  0
   -7.5143   24.6711  -25.7210 C   0  0  0  0  0  0  0  0  0  0  0  0
   -7.8778   24.7985  -24.2384 C   0  0  0  0  0  0  0  0  0  0  0  0
   -7.1380   23.8484  -23.4486 N   0  0  0  0  0  0  0  0  0  0  0  0
   -5.3896   24.8480  -27.1278 C   0  0  0  0  0  0  0  0  0  0  0  0
   -5.7744   25.7746  -28.0602 N   0  0  0  0  0  0  0  0  0  0  0  0
   -5.1683   25.9764  -29.2249 C   0  0  0  0  0  0  0  0  0  0  0  0
   -4.0971   25.2464  -29.5605 N   0  0  0  0  0  0  0  0  0  0  0  0
   -3.6730   24.3166  -28.6764 C   0  0  0  0  0  0  0  0  0  0  0  0
   -2.6269   23.4488  -28.7453 N   0  0  0  0  0  0  0  0  0  0  0  0
   -2.5545   22.7017  -27.6514 C   0  0  0  0  0  0  0  0  0  0  0  0
   -3.5908   23.0751  -26.8064 C   0  0  0  0  0  0  0  0  0  0  0  0
   -4.2861   24.0826  -27.4508 C   0  0  0  0  0  0  0  0  0  0  0  0
   -1.9609   23.3858  -29.5713 H   0  0  0  0  0  0  0  0  0  0  0  0
   -7.6727   23.3830  -22.2316 C   0  0  0  0  0  0  0  0  0  0  0  0
   -8.6484   24.0818  -21.5511 C   0  0  0  0  0  0  0  0  0  0  0  0
   -9.1985   23.6509  -20.3563 C   0  0  0  0  0  0  0  0  0  0  0  0
   -8.7796   22.4710  -19.7829 C   0  0  0  0  0  0  0  0  0  0  0  0
   -7.8062   21.7498  -20.4379 C   0  0  0  0  0  0  0  0  0  0  0  0
   -7.2624   22.1920  -21.6352 C   0  0  0  0  0  0  0  0  0  0  0  0
   -9.3670   22.0263  -18.5221 C   0  0  0  0  0  0  0  0  0  0  0  0
  -10.2645   20.9725  -18.5185 O   0  0  0  0  0  0  0  0  0  0  0  0
   -9.0879   22.5676  -17.4257 O   0  0  0  0  0  0  0  0  0  0  0  0
  -10.0639   20.0518  -18.8808 H   0  0  0  0  0  0  0  0  0  0  0  0
  1  2  1  0  0  0
  2  3  1  0  0  0
  3  4  1  0  0  0
  4  5  1  0  0  0
  5  6  1  0  0  0
  6  7  1  0  0  0
  7 18  1  0  0  0
 18 19  2  0  0  0
 19 20  1  0  0  0
 20 21  2  0  0  0
 21 22  1  0  0  0
 22 23  2  0  0  0
 21 24  1  0  0  0
 24 25  1  0  0  0
 24 26  2  0  0  0
  4  8  1  0  0  0
  8  9  2  0  0  0
  9 10  1  0  0  0
 10 11  2  0  0  0
 11 12  1  0  0  0
 12 13  1  0  0  0
 13 14  1  0  0  0
 14 15  2  0  0  0
 15 16  1  0  0  0
  7  2  1  0  0  0
 23 18  1  0  0  0
 16  8  1  0  0  0
 16 12  2  0  0  0
 25 27  1  0  0  0
 13 17  1  0  0  0
M  END
> <minimizedAffinity>
-7.78452

> <CNNscore>
0.2376688421

> <CNNaffinity>
5.8971457481

> <CNN_VS>
1.4015678167

> <CNNaffinity_variance>
0.1098542660

$$$$
[H]OC([H])([H])C(=O)N1C([H])([H])C([H])([H])N([C@]2([H])C([H])([H])C([H])([H])[C@@]([H])(n3c([H])c(-c4c([H])c([H])c(Oc5c([H])c([H])c([H])c([H])c5[H])c([H])c4[H])c4c(N([H])[H])nc([H])nc43)C([H])([H])C2([H])[H])C([H])([H])C1([H])[H]


 42 47  0  0  0  0  0  0  0  0999 V2000
   -3.1004   23.5080  -27.3499 N   0  0  0  0  0  0  0  0  0  0  0  0
   -1.8706   22.9538  -26.9415 C   0  0  0  0  0  0  0  0  0  0  0  0
   -0.8418   22.7883  -27.7898 N   0  0  0  0  0  0  0  0  0  0  0  0
    0.3267   22.2443  -27.4395 C   0  0  0  0  0  0  0  0  0  0  0  0
    0.4522   21.8510  -26.1670 N   0  0  0  0  0  0  0  0  0  0  0  0
   -0.4965   21.9596  -25.2211 C   0  0  0  0  0  0  0  0  0  0  0  0
   -0.5533   21.6167  -23.9167 N   0  0  0  0  0  0  0  0  0  0  0  0
   -1.7626   21.9530  -23.4638 C   0  0  0  0  0  0  0  0  0  0  0  0
   -2.4889   22.5245  -24.5105 C   0  0  0  0  0  0  0  0  0  0  0  0
   -1.7116   22.5375  -25.6265 C   0  0  0  0  0  0  0  0  0  0  0  0
   -3.9905   22.9864  -27.4410 H   0  0  0  0  0  0  0  0  0  0  0  0
   -3.1229   24.5225  -27.5793 H   0  0  0  0  0  0  0  0  0  0  0  0
   -3.8527   23.0616  -24.3988 C   0  0  0  0  0  0  0  0  0  0  0  0
   -4.9520   22.2986  -24.6894 C   0  0  0  0  0  0  0  0  0  0  0  0
   -6.2310   22.7806  -24.5755 C   0  0  0  0  0  0  0  0  0  0  0  0
   -6.4160   24.0769  -24.1544 C   0  0  0  0  0  0  0  0  0  0  0  0
   -5.3395   24.8978  -23.8460 C   0  0  0  0  0  0  0  0  0  0  0  0
   -4.0667   24.3657  -23.9767 C   0  0  0  0  0  0  0  0  0  0  0  0
   -7.7302   24.5426  -24.0467 O   0  0  0  0  0  0  0  0  0  0  0  0
   -8.3633   24.5480  -22.8054 C   0  0  0  0  0  0  0  0  0  0  0  0
   -7.9724   23.7409  -21.7542 C   0  0  0  0  0  0  0  0  0  0  0  0
   -8.6228   23.7703  -20.5326 C   0  0  0  0  0  0  0  0  0  0  0  0
   -9.6909   24.6219  -20.3429 C   0  0  0  0  0  0  0  0  0  0  0  0
  -10.0745   25.4230  -21.3951 C   0  0  0  0  0  0  0  0  0  0  0  0
   -9.4248   25.3928  -22.6140 C   0  0  0  0  0  0  0  0  0  0  0  0
    0.5185   20.9977  -23.1869 C   0  0  0  0  0  0  0  0  0  0  0  0
    1.8790   21.5829  -23.4547 C   0  0  0  0  0  0  0  0  0  0  0  0
    2.8748   20.5255  -22.9474 C   0  0  0  0  0  0  0  0  0  0  0  0
    2.7049   20.2551  -21.5015 C   0  0  0  0  0  0  0  0  0  0  0  0
    1.6316   21.1628  -20.9482 C   0  0  0  0  0  0  0  0  0  0  0  0
    0.3188   21.0715  -21.6986 C   0  0  0  0  0  0  0  0  0  0  0  0
    2.4842   18.9150  -21.1024 N   0  0  0  0  0  0  0  0  0  0  0  0
    3.0142   18.6456  -19.7882 C   0  0  0  0  0  0  0  0  0  0  0  0
    4.5170   18.6886  -19.7505 C   0  0  0  0  0  0  0  0  0  0  0  0
    5.1425   18.3513  -20.9891 N   0  0  0  0  0  0  0  0  0  0  0  0
    4.4188   17.7745  -22.1140 C   0  0  0  0  0  0  0  0  0  0  0  0
    2.9322   17.8807  -21.9700 C   0  0  0  0  0  0  0  0  0  0  0  0
    6.5294   18.5768  -21.1599 C   0  0  0  0  0  0  0  0  0  0  0  0
    7.1804   19.0728  -20.2105 O   0  0  0  0  0  0  0  0  0  0  0  0
    7.2340   18.2501  -22.4134 C   0  0  0  0  0  0  0  0  0  0  0  0
    7.2696   19.3505  -23.2532 O   0  0  0  0  0  0  0  0  0  0  0  0
    6.4343   19.3261  -23.8114 H   0  0  0  0  0  0  0  0  0  0  0  0
  1  2  1  0  0  0
  2  3  2  0  0  0
  3  4  1  0  0  0
  4  5  2  0  0  0
  5  6  1  0  0  0
  6  7  1  0  0  0
  7  8  1  0  0  0
  8  9  2  0  0  0
  9 13  1  0  0  0
 13 14  2  0  0  0
 14 15  1  0  0  0
 15 16  2  0  0  0
 16 19  1  0  0  0
 19 20  1  0  0  0
 20 21  2  0  0  0
 21 22  1  0  0  0
 22 23  2  0  0  0
 23 24  1  0  0  0
 24 25  2  0  0  0
 16 17  1  0  0  0
 17 18  2  0  0  0
  9 10  1  0  0  0
  7 26  1  0  0  0
 26 27  1  0  0  0
 27 28  1  0  0  0
 28 29  1  0  0  0
 29 30  1  0  0  0
 30 31  1  0  0  0
 29 32  1  0  0  0
 32 33  1  0  0  0
 33 34  1  0  0  0
 34 35  1  0  0  0
 35 36  1  0  0  0
 36 37  1  0  0  0
 35 38  1  0  0  0
 38 39  2  0  0  0
 38 40  1  0  0  0
 40 41  1  0  0  0
 10  2  1  0  0  0
 31 26  1  0  0  0
 37 32  1  0  0  0
 10  6  2  0  0  0
 18 13  1  0  0  0
 25 20  1  0  0  0
  1 11  1  0  0  0
  1 12  1  0  0  0
 41 42  1  0  0  0
M  END
> <minimizedAffinity>
-8.93359

> <CNNscore>
0.3274895251

> <CNNaffinity>
6.9457893372

> <CNN_VS>
2.2746732235

> <CNNaffinity_variance>
0.0853048190

$$$$
[H]OC([H])([H])C(=O)N1C([H])([H])C([H])([H])N([C@]2([H])C([H])([H])C([H])([H])[C@@]([H])(n3c([H])c(-c4c([H])c([H])c(Oc5c([H])c([H])c([H])c([H])c5[H])c([H])c4[H])c4c(N([H])[H])nc([H])nc43)C([H])([H])C2([H])[H])C([H])([H])C1([H])[H]


 42 47  0  0  0  0  0  0  0  0999 V2000
   -3.2015   23.4178  -27.1281 N   0  0  0  0  0  0  0  0  0  0  0  0
   -2.0133   22.9266  -26.5508 C   0  0  0  0  0  0  0  0  0  0  0  0
   -0.9341   22.6139  -27.2876 N   0  0  0  0  0  0  0  0  0  0  0  0
    0.1970   22.1238  -26.7733 C   0  0  0  0  0  0  0  0  0  0  0  0
    0.2296   21.9443  -25.4481 N   0  0  0  0  0  0  0  0  0  0  0  0
   -0.7774   22.2164  -24.6003 C   0  0  0  0  0  0  0  0  0  0  0  0
   -0.9278   22.0936  -23.2645 N   0  0  0  0  0  0  0  0  0  0  0  0
   -2.1572   22.5116  -22.9571 C   0  0  0  0  0  0  0  0  0  0  0  0
   -2.8004   22.9098  -24.1307 C   0  0  0  0  0  0  0  0  0  0  0  0
   -1.9506   22.7312  -25.1776 C   0  0  0  0  0  0  0  0  0  0  0  0
   -4.0942   22.8969  -27.1937 H   0  0  0  0  0  0  0  0  0  0  0  0
   -3.1876   24.3808  -27.5216 H   0  0  0  0  0  0  0  0  0  0  0  0
   -4.1570   23.4710  -24.2027 C   0  0  0  0  0  0  0  0  0  0  0  0
   -5.2503   22.6811  -24.4391 C   0  0  0  0  0  0  0  0  0  0  0  0
   -6.5238   23.1875  -24.4940 C   0  0  0  0  0  0  0  0  0  0  0  0
   -6.7092   24.5373  -24.3050 C   0  0  0  0  0  0  0  0  0  0  0  0
   -5.6387   25.3875  -24.0622 C   0  0  0  0  0  0  0  0  0  0  0  0
   -4.3714   24.8289  -24.0161 C   0  0  0  0  0  0  0  0  0  0  0  0
   -8.0177   25.0270  -24.3658 O   0  0  0  0  0  0  0  0  0  0  0  0
   -8.8050   25.0431  -23.2162 C   0  0  0  0  0  0  0  0  0  0  0  0
  -10.1219   25.4612  -23.2078 C   0  0  0  0  0  0  0  0  0  0  0  0
  -10.8774   25.4649  -22.0479 C   0  0  0  0  0  0  0  0  0  0  0  0
  -10.3164   25.0431  -20.8608 C   0  0  0  0  0  0  0  0  0  0  0  0
   -9.0035   24.6279  -20.8772 C   0  0  0  0  0  0  0  0  0  0  0  0
   -8.2503   24.6248  -22.0353 C   0  0  0  0  0  0  0  0  0  0  0  0
    0.0802   21.5931  -22.3710 C   0  0  0  0  0  0  0  0  0  0  0  0
   -0.2197   20.2409  -21.7822 C   0  0  0  0  0  0  0  0  0  0  0  0
    0.7199   20.1165  -20.5703 C   0  0  0  0  0  0  0  0  0  0  0  0
    2.1446   20.2031  -20.9644 C   0  0  0  0  0  0  0  0  0  0  0  0
    2.2387   20.3245  -22.4672 C   0  0  0  0  0  0  0  0  0  0  0  0
    1.4251   21.4708  -23.0318 C   0  0  0  0  0  0  0  0  0  0  0  0
    2.9461   21.1826  -20.3303 N   0  0  0  0  0  0  0  0  0  0  0  0
    4.3503   20.9936  -20.6011 C   0  0  0  0  0  0  0  0  0  0  0  0
    4.9000   19.7481  -19.9623 C   0  0  0  0  0  0  0  0  0  0  0  0
    4.2178   19.3517  -18.7722 N   0  0  0  0  0  0  0  0  0  0  0  0
    3.2476   20.1992  -18.0923 C   0  0  0  0  0  0  0  0  0  0  0  0
    2.7958   21.3575  -18.9267 C   0  0  0  0  0  0  0  0  0  0  0  0
    4.4767   18.0813  -18.2041 C   0  0  0  0  0  0  0  0  0  0  0  0
    5.3061   17.3280  -18.7660 O   0  0  0  0  0  0  0  0  0  0  0  0
    3.8058   17.6135  -16.9772 C   0  0  0  0  0  0  0  0  0  0  0  0
    4.6736   17.6608  -15.8992 O   0  0  0  0  0  0  0  0  0  0  0  0
    5.1609   16.7825  -15.8706 H   0  0  0  0  0  0  0  0  0  0  0  0
  1  2  1  0  0  0
  2  3  2  0  0  0
  3  4  1  0  0  0
  4  5  2  0  0  0
  5  6  1  0  0  0
  6  7  1  0  0  0
  7  8  1  0  0  0
  8  9  2  0  0  0
  9 13  1  0  0  0
 13 14  2  0  0  0
 14 15  1  0  0  0
 15 16  2  0  0  0
 16 19  1  0  0  0
 19 20  1  0  0  0
 20 21  2  0  0  0
 21 22  1  0  0  0
 22 23  2  0  0  0
 23 24  1  0  0  0
 24 25  2  0  0  0
 16 17  1  0  0  0
 17 18  2  0  0  0
  9 10  1  0  0  0
  7 26  1  0  0  0
 26 27  1  0  0  0
 27 28  1  0  0  0
 28 29  1  0  0  0
 29 30  1  0  0  0
 30 31  1  0  0  0
 29 32  1  0  0  0
 32 33  1  0  0  0
 33 34  1  0  0  0
 34 35  1  0  0  0
 35 36  1  0  0  0
 36 37  1  0  0  0
 35 38  1  0  0  0
 38 39  2  0  0  0
 38 40  1  0  0  0
 40 41  1  0  0  0
 10  2  1  0  0  0
 31 26  1  0  0  0
 37 32  1  0  0  0
 10  6  2  0  0  0
 18 13  1  0  0  0
 25 20  1  0  0  0
  1 11  1  0  0  0
  1 12  1  0  0  0
 41 42  1  0  0  0
M  END
> <minimizedAffinity>
-7.84027

> <CNNscore>
0.2983033955

> <CNNaffinity>
6.8794679642

> <CNN_VS>
2.0521686077

> <CNNaffinity_variance>
0.2615061402

$$$$
[H]OC([H])([H])C(=O)N1C([H])([H])C([H])([H])N([C@]2([H])C([H])([H])C([H])([H])[C@@]([H])(n3c([H])c(-c4c([H])c([H])c(Oc5c([H])c([H])c([H])c([H])c5[H])c([H])c4[H])c4c(N([H])[H])nc([H])nc43)C([H])([H])C2([H])[H])C([H])([H])C1([H])[H]


 42 47  0  0  0  0  0  0  0  0999 V2000
    1.4974   21.1684  -24.1735 N   0  0  0  0  0  0  0  0  0  0  0  0
    0.2366   21.7299  -24.4590 C   0  0  0  0  0  0  0  0  0  0  0  0
   -0.0651   22.2387  -25.6655 N   0  0  0  0  0  0  0  0  0  0  0  0
   -1.2413   22.7991  -25.9598 C   0  0  0  0  0  0  0  0  0  0  0  0
   -2.1511   22.8431  -24.9800 N   0  0  0  0  0  0  0  0  0  0  0  0
   -1.9767   22.3713  -23.7335 C   0  0  0  0  0  0  0  0  0  0  0  0
   -2.7588   22.3371  -22.6338 N   0  0  0  0  0  0  0  0  0  0  0  0
   -2.0594   21.7517  -21.6598 C   0  0  0  0  0  0  0  0  0  0  0  0
   -0.8017   21.4061  -22.1583 C   0  0  0  0  0  0  0  0  0  0  0  0
   -0.7274   21.7881  -23.4616 C   0  0  0  0  0  0  0  0  0  0  0  0
    2.2117   21.5877  -23.5518 H   0  0  0  0  0  0  0  0  0  0  0  0
    1.7357   20.2592  -24.6196 H   0  0  0  0  0  0  0  0  0  0  0  0
    0.2441   20.7037  -21.4009 C   0  0  0  0  0  0  0  0  0  0  0  0
    0.2726   19.3376  -21.3116 C   0  0  0  0  0  0  0  0  0  0  0  0
    1.2502   18.6673  -20.6215 C   0  0  0  0  0  0  0  0  0  0  0  0
    2.2371   19.3935  -19.9965 C   0  0  0  0  0  0  0  0  0  0  0  0
    2.2597   20.7806  -20.0520 C   0  0  0  0  0  0  0  0  0  0  0  0
    1.2506   21.4124  -20.7612 C   0  0  0  0  0  0  0  0  0  0  0  0
    3.2216   18.6850  -19.3003 O   0  0  0  0  0  0  0  0  0  0  0  0
    3.9817   17.7233  -19.9630 C   0  0  0  0  0  0  0  0  0  0  0  0
    4.8342   18.0225  -21.0083 C   0  0  0  0  0  0  0  0  0  0  0  0
    5.5762   17.0431  -21.6460 C   0  0  0  0  0  0  0  0  0  0  0  0
    5.4735   15.7292  -21.2397 C   0  0  0  0  0  0  0  0  0  0  0  0
    4.6218   15.4390  -20.1974 C   0  0  0  0  0  0  0  0  0  0  0  0
    3.8816   16.4171  -19.5617 C   0  0  0  0  0  0  0  0  0  0  0  0
   -4.0976   22.8546  -22.5666 C   0  0  0  0  0  0  0  0  0  0  0  0
   -5.1732   21.8550  -22.8968 C   0  0  0  0  0  0  0  0  0  0  0  0
   -6.4244   22.6994  -23.1942 C   0  0  0  0  0  0  0  0  0  0  0  0
   -6.8249   23.5229  -22.0306 C   0  0  0  0  0  0  0  0  0  0  0  0
   -5.9039   23.2263  -20.8705 C   0  0  0  0  0  0  0  0  0  0  0  0
   -4.4367   23.3976  -21.2062 C   0  0  0  0  0  0  0  0  0  0  0  0
   -6.9555   24.9190  -22.2241 N   0  0  0  0  0  0  0  0  0  0  0  0
   -6.9785   25.6405  -20.9752 C   0  0  0  0  0  0  0  0  0  0  0  0
   -8.2205   25.3676  -20.1723 C   0  0  0  0  0  0  0  0  0  0  0  0
   -9.3611   25.0227  -20.9593 N   0  0  0  0  0  0  0  0  0  0  0  0
   -9.3993   25.1648  -22.4086 C   0  0  0  0  0  0  0  0  0  0  0  0
   -8.0459   25.3820  -23.0113 C   0  0  0  0  0  0  0  0  0  0  0  0
  -10.5228   24.5170  -20.3285 C   0  0  0  0  0  0  0  0  0  0  0  0
  -10.5214   24.3823  -19.0823 O   0  0  0  0  0  0  0  0  0  0  0  0
  -11.7325   24.1431  -21.0844 C   0  0  0  0  0  0  0  0  0  0  0  0
  -12.7111   25.1132  -20.9483 O   0  0  0  0  0  0  0  0  0  0  0  0
  -13.2485   24.8815  -20.1314 H   0  0  0  0  0  0  0  0  0  0  0  0
  1  2  1  0  0  0
  2  3  2  0  0  0
  3  4  1  0  0  0
  4  5  2  0  0  0
  5  6  1  0  0  0
  6  7  1  0  0  0
  7  8  1  0  0  0
  8  9  2  0  0  0
  9 13  1  0  0  0
 13 14  2  0  0  0
 14 15  1  0  0  0
 15 16  2  0  0  0
 16 19  1  0  0  0
 19 20  1  0  0  0
 20 21  2  0  0  0
 21 22  1  0  0  0
 22 23  2  0  0  0
 23 24  1  0  0  0
 24 25  2  0  0  0
 16 17  1  0  0  0
 17 18  2  0  0  0
  9 10  1  0  0  0
  7 26  1  0  0  0
 26 27  1  0  0  0
 27 28  1  0  0  0
 28 29  1  0  0  0
 29 30  1  0  0  0
 30 31  1  0  0  0
 29 32  1  0  0  0
 32 33  1  0  0  0
 33 34  1  0  0  0
 34 35  1  0  0  0
 35 36  1  0  0  0
 36 37  1  0  0  0
 35 38  1  0  0  0
 38 39  2  0  0  0
 38 40  1  0  0  0
 40 41  1  0  0  0
 10  2  1  0  0  0
 31 26  1  0  0  0
 37 32  1  0  0  0
 10  6  2  0  0  0
 18 13  1  0  0  0
 25 20  1  0  0  0
  1 11  1  0  0  0
  1 12  1  0  0  0
 41 42  1  0  0  0
M  END
> <minimizedAffinity>
-7.32515

> <CNNscore>
0.2197556794

> <CNNaffinity>
6.5875854492

> <CNN_VS>
1.4476593733

> <CNNaffinity_variance>
0.0853747502

$$$$
[H]OC([H])([H])C(=O)N1C([H])([H])C([H])([H])N([C@]2([H])C([H])([H])C([H])([H])[C@@]([H])(n3c([H])c(-c4c([H])c([H])c(Oc5c([H])c([H])c([H])c([H])c5[H])c([H])c4[H])c4c(N([H])[H])nc([H])nc43)C([H])([H])C2([H])[H])C([H])([H])C1([H])[H]


 42 47  0  0  0  0  0  0  0  0999 V2000
   -0.5806   22.2339  -25.9344 N   0  0  0  0  0  0  0  0  0  0  0  0
    0.0652   21.8633  -24.7378 C   0  0  0  0  0  0  0  0  0  0  0  0
    1.3582   21.4995  -24.7038 N   0  0  0  0  0  0  0  0  0  0  0  0
    1.9917   21.1200  -23.5908 C   0  0  0  0  0  0  0  0  0  0  0  0
    1.2748   21.1107  -22.4614 N   0  0  0  0  0  0  0  0  0  0  0  0
   -0.0216   21.4508  -22.3590 C   0  0  0  0  0  0  0  0  0  0  0  0
   -0.8940   21.4923  -21.3298 N   0  0  0  0  0  0  0  0  0  0  0  0
   -2.0688   21.9007  -21.8133 C   0  0  0  0  0  0  0  0  0  0  0  0
   -1.9343   22.1237  -23.1851 C   0  0  0  0  0  0  0  0  0  0  0  0
   -0.6540   21.8453  -23.5503 C   0  0  0  0  0  0  0  0  0  0  0  0
   -1.3064   21.6767  -26.4196 H   0  0  0  0  0  0  0  0  0  0  0  0
   -0.3115   23.1394  -26.3705 H   0  0  0  0  0  0  0  0  0  0  0  0
   -2.9981   22.6214  -24.0690 C   0  0  0  0  0  0  0  0  0  0  0  0
   -3.8560   21.7695  -24.7119 C   0  0  0  0  0  0  0  0  0  0  0  0
   -4.8629   22.2192  -25.5276 C   0  0  0  0  0  0  0  0  0  0  0  0
   -5.0160   23.5743  -25.7064 C   0  0  0  0  0  0  0  0  0  0  0  0
   -4.1760   24.4860  -25.0809 C   0  0  0  0  0  0  0  0  0  0  0  0
   -3.1737   23.9833  -24.2666 C   0  0  0  0  0  0  0  0  0  0  0  0
   -6.0506   24.0054  -26.5428 O   0  0  0  0  0  0  0  0  0  0  0  0
   -5.7915   24.2644  -27.8872 C   0  0  0  0  0  0  0  0  0  0  0  0
   -5.6877   23.2711  -28.8419 C   0  0  0  0  0  0  0  0  0  0  0  0
   -5.4294   23.5619  -30.1704 C   0  0  0  0  0  0  0  0  0  0  0  0
   -5.2691   24.8726  -30.5685 C   0  0  0  0  0  0  0  0  0  0  0  0
   -5.3740   25.8569  -29.6113 C   0  0  0  0  0  0  0  0  0  0  0  0
   -5.6316   25.5656  -28.2856 C   0  0  0  0  0  0  0  0  0  0  0  0
   -0.5739   21.1458  -19.9725 C   0  0  0  0  0  0  0  0  0  0  0  0
   -0.1677   19.7107  -19.7711 C   0  0  0  0  0  0  0  0  0  0  0  0
   -0.3097   19.4645  -18.2591 C   0  0  0  0  0  0  0  0  0  0  0  0
    0.5620   20.3633  -17.4685 C   0  0  0  0  0  0  0  0  0  0  0  0
    1.3827   21.2143  -18.4089 C   0  0  0  0  0  0  0  0  0  0  0  0
    0.5472   21.9783  -19.4154 C   0  0  0  0  0  0  0  0  0  0  0  0
   -0.0460   21.1614  -16.4699 N   0  0  0  0  0  0  0  0  0  0  0  0
    0.9277   21.8254  -15.6382 C   0  0  0  0  0  0  0  0  0  0  0  0
    1.7015   20.8668  -14.7757 C   0  0  0  0  0  0  0  0  0  0  0  0
    0.9879   19.6765  -14.4394 N   0  0  0  0  0  0  0  0  0  0  0  0
   -0.4375   19.5073  -14.6875 C   0  0  0  0  0  0  0  0  0  0  0  0
   -0.9976   20.5429  -15.6126 C   0  0  0  0  0  0  0  0  0  0  0  0
    1.6718   18.5944  -13.8355 C   0  0  0  0  0  0  0  0  0  0  0  0
    2.8994   18.7086  -13.6094 O   0  0  0  0  0  0  0  0  0  0  0  0
    0.9925   17.3394  -13.4642 C   0  0  0  0  0  0  0  0  0  0  0  0
    1.2606   16.3474  -14.3923 O   0  0  0  0  0  0  0  0  0  0  0  0
    0.5631   16.4170  -15.1124 H   0  0  0  0  0  0  0  0  0  0  0  0
  1  2  1  0  0  0
  2  3  2  0  0  0
  3  4  1  0  0  0
  4  5  2  0  0  0
  5  6  1  0  0  0
  6  7  1  0  0  0
  7  8  1  0  0  0
  8  9  2  0  0  0
  9 13  1  0  0  0
 13 14  2  0  0  0
 14 15  1  0  0  0
 15 16  2  0  0  0
 16 19  1  0  0  0
 19 20  1  0  0  0
 20 21  2  0  0  0
 21 22  1  0  0  0
 22 23  2  0  0  0
 23 24  1  0  0  0
 24 25  2  0  0  0
 16 17  1  0  0  0
 17 18  2  0  0  0
  9 10  1  0  0  0
  7 26  1  0  0  0
 26 27  1  0  0  0
 27 28  1  0  0  0
 28 29  1  0  0  0
 29 30  1  0  0  0
 30 31  1  0  0  0
 29 32  1  0  0  0
 32 33  1  0  0  0
 33 34  1  0  0  0
 34 35  1  0  0  0
 35 36  1  0  0  0
 36 37  1  0  0  0
 35 38  1  0  0  0
 38 39  2  0  0  0
 38 40  1  0  0  0
 40 41  1  0  0  0
 10  2  1  0  0  0
 31 26  1  0  0  0
 37 32  1  0  0  0
 10  6  2  0  0  0
 18 13  1  0  0  0
 25 20  1  0  0  0
  1 11  1  0  0  0
  1 12  1  0  0  0
 41 42  1  0  0  0
M  END
> <minimizedAffinity>
-7.84603

> <CNNscore>
0.2068248838

> <CNNaffinity>
6.6309151649

> <CNN_VS>
1.3714382648

> <CNNaffinity_variance>
0.1958666146

$$$$
[H]OC([H])([H])C(=O)N1C([H])([H])C([H])([H])N([C@]2([H])C([H])([H])C([H])([H])[C@@]([H])(n3c([H])c(-c4c([H])c([H])c(Oc5c([H])c([H])c([H])c([H])c5[H])c([H])c4[H])c4c(N([H])[H])nc([H])nc43)C([H])([H])C2([H])[H])C([H])([H])C1([H])[H]


 42 47  0  0  0  0  0  0  0  0999 V2000
    1.4204   21.2049  -24.9982 N   0  0  0  0  0  0  0  0  0  0  0  0
    1.8321   21.1010  -23.6543 C   0  0  0  0  0  0  0  0  0  0  0  0
    3.1026   20.8281  -23.3127 N   0  0  0  0  0  0  0  0  0  0  0  0
    3.5186   20.6992  -22.0500 C   0  0  0  0  0  0  0  0  0  0  0  0
    2.5980   20.8555  -21.0921 N   0  0  0  0  0  0  0  0  0  0  0  0
    1.2985   21.1302  -21.2983 C   0  0  0  0  0  0  0  0  0  0  0  0
    0.2433   21.3085  -20.4755 N   0  0  0  0  0  0  0  0  0  0  0  0
   -0.8256   21.5492  -21.2370 C   0  0  0  0  0  0  0  0  0  0  0  0
   -0.4347   21.5229  -22.5772 C   0  0  0  0  0  0  0  0  0  0  0  0
    0.8983   21.2594  -22.6391 C   0  0  0  0  0  0  0  0  0  0  0  0
    0.8152   20.5251  -25.4924 H   0  0  0  0  0  0  0  0  0  0  0  0
    1.7468   22.0288  -25.5432 H   0  0  0  0  0  0  0  0  0  0  0  0
   -1.3198   21.7841  -23.7214 C   0  0  0  0  0  0  0  0  0  0  0  0
   -2.5800   21.2530  -23.7915 C   0  0  0  0  0  0  0  0  0  0  0  0
   -3.4230   21.4997  -24.8450 C   0  0  0  0  0  0  0  0  0  0  0  0
   -2.9867   22.3096  -25.8676 C   0  0  0  0  0  0  0  0  0  0  0  0
   -1.7191   22.8757  -25.8514 C   0  0  0  0  0  0  0  0  0  0  0  0
   -0.9040   22.5970  -24.7659 C   0  0  0  0  0  0  0  0  0  0  0  0
   -3.8665   22.5448  -26.9289 O   0  0  0  0  0  0  0  0  0  0  0  0
   -4.7494   23.6212  -26.8707 C   0  0  0  0  0  0  0  0  0  0  0  0
   -4.4266   24.8885  -27.3165 C   0  0  0  0  0  0  0  0  0  0  0  0
   -5.3273   25.9373  -27.2446 C   0  0  0  0  0  0  0  0  0  0  0  0
   -6.5843   25.7288  -26.7170 C   0  0  0  0  0  0  0  0  0  0  0  0
   -6.8986   24.4631  -26.2748 C   0  0  0  0  0  0  0  0  0  0  0  0
   -5.9990   23.4172  -26.3468 C   0  0  0  0  0  0  0  0  0  0  0  0
    0.3040   21.2383  -19.0415 C   0  0  0  0  0  0  0  0  0  0  0  0
    0.5774   22.5524  -18.3607 C   0  0  0  0  0  0  0  0  0  0  0  0
    1.0316   22.1781  -16.9393 C   0  0  0  0  0  0  0  0  0  0  0  0
   -0.0111   21.4243  -16.2063 C   0  0  0  0  0  0  0  0  0  0  0  0
   -1.2435   21.3096  -17.0723 C   0  0  0  0  0  0  0  0  0  0  0  0
   -0.9682   20.7125  -18.4371 C   0  0  0  0  0  0  0  0  0  0  0  0
    0.3424   20.1644  -15.6663 N   0  0  0  0  0  0  0  0  0  0  0  0
   -0.7333   19.5794  -14.9039 C   0  0  0  0  0  0  0  0  0  0  0  0
   -1.0239   20.3375  -13.6380 C   0  0  0  0  0  0  0  0  0  0  0  0
    0.1034   21.0281  -13.0984 N   0  0  0  0  0  0  0  0  0  0  0  0
    1.4645   20.8219  -13.5747 C   0  0  0  0  0  0  0  0  0  0  0  0
    1.5237   20.0869  -14.8779 C   0  0  0  0  0  0  0  0  0  0  0  0
   -0.0804   21.9623  -12.0511 C   0  0  0  0  0  0  0  0  0  0  0  0
   -1.2400   22.1628  -11.6195 O   0  0  0  0  0  0  0  0  0  0  0  0
    1.0420   22.7072  -11.4514 C   0  0  0  0  0  0  0  0  0  0  0  0
    1.1966   23.9364  -12.0699 O   0  0  0  0  0  0  0  0  0  0  0  0
    1.8115   23.8004  -12.8531 H   0  0  0  0  0  0  0  0  0  0  0  0
  1  2  1  0  0  0
  2  3  2  0  0  0
  3  4  1  0  0  0
  4  5  2  0  0  0
  5  6  1  0  0  0
  6  7  1  0  0  0
  7  8  1  0  0  0
  8  9  2  0  0  0
  9 13  1  0  0  0
 13 14  2  0  0  0
 14 15  1  0  0  0
 15 16  2  0  0  0
 16 19  1  0  0  0
 19 20  1  0  0  0
 20 21  2  0  0  0
 21 22  1  0  0  0
 22 23  2  0  0  0
 23 24  1  0  0  0
 24 25  2  0  0  0
 16 17  1  0  0  0
 17 18  2  0  0  0
  9 10  1  0  0  0
  7 26  1  0  0  0
 26 27  1  0  0  0
 27 28  1  0  0  0
 28 29  1  0  0  0
 29 30  1  0  0  0
 30 31  1  0  0  0
 29 32  1  0  0  0
 32 33  1  0  0  0
 33 34  1  0  0  0
 34 35  1  0  0  0
 35 36  1  0  0  0
 36 37  1  0  0  0
 35 38  1  0  0  0
 38 39  2  0  0  0
 38 40  1  0  0  0
 40 41  1  0  0  0
 10  2  1  0  0  0
 31 26  1  0  0  0
 37 32  1  0  0  0
 10  6  2  0  0  0
 18 13  1  0  0  0
 25 20  1  0  0  0
  1 11  1  0  0  0
  1 12  1  0  0  0
 41 42  1  0  0  0
M  END
> <minimizedAffinity>
-7.89186

> <CNNscore>
0.2040575445

> <CNNaffinity>
6.3716249466

> <CNN_VS>
1.3001781702

> <CNNaffinity_variance>
0.0571056828

$$$$
[H]OC([H])([H])C(=O)N1C([H])([H])C([H])([H])N([C@]2([H])C([H])([H])C([H])([H])[C@@]([H])(n3c([H])c(-c4c([H])c([H])c(Oc5c([H])c([H])c([H])c([H])c5[H])c([H])c4[H])c4c(N([H])[H])nc([H])nc43)C([H])([H])C2([H])[H])C([H])([H])C1([H])[H]


 42 47  0  0  0  0  0  0  0  0999 V2000
   -8.0309   25.5630  -24.2970 N   0  0  0  0  0  0  0  0  0  0  0  0
   -8.6541   25.1196  -23.1133 C   0  0  0  0  0  0  0  0  0  0  0  0
   -9.8198   25.6302  -22.6821 N   0  0  0  0  0  0  0  0  0  0  0  0
  -10.4228   25.2487  -21.5530 C   0  0  0  0  0  0  0  0  0  0  0  0
   -9.8100   24.3041  -20.8307 N   0  0  0  0  0  0  0  0  0  0  0  0
   -8.6455   23.7132  -21.1490 C   0  0  0  0  0  0  0  0  0  0  0  0
   -7.8871   22.7697  -20.5516 N   0  0  0  0  0  0  0  0  0  0  0  0
   -6.8136   22.5702  -21.3187 C   0  0  0  0  0  0  0  0  0  0  0  0
   -6.8967   23.4101  -22.4310 C   0  0  0  0  0  0  0  0  0  0  0  0
   -8.0413   24.1396  -22.3440 C   0  0  0  0  0  0  0  0  0  0  0  0
   -7.1583   26.1191  -24.3412 H   0  0  0  0  0  0  0  0  0  0  0  0
   -8.4780   25.3147  -25.2030 H   0  0  0  0  0  0  0  0  0  0  0  0
   -5.9227   23.4552  -23.5311 C   0  0  0  0  0  0  0  0  0  0  0  0
   -4.9131   24.3799  -23.5601 C   0  0  0  0  0  0  0  0  0  0  0  0
   -3.9878   24.4249  -24.5716 C   0  0  0  0  0  0  0  0  0  0  0  0
   -4.0775   23.5086  -25.5934 C   0  0  0  0  0  0  0  0  0  0  0  0
   -5.0798   22.5480  -25.6178 C   0  0  0  0  0  0  0  0  0  0  0  0
   -5.9910   22.5427  -24.5738 C   0  0  0  0  0  0  0  0  0  0  0  0
   -3.1212   23.5768  -26.6115 O   0  0  0  0  0  0  0  0  0  0  0  0
   -1.8677   22.9978  -26.4239 C   0  0  0  0  0  0  0  0  0  0  0  0
   -1.4234   22.5377  -25.1992 C   0  0  0  0  0  0  0  0  0  0  0  0
   -0.1715   21.9669  -25.0461 C   0  0  0  0  0  0  0  0  0  0  0  0
    0.6667   21.8465  -26.1346 C   0  0  0  0  0  0  0  0  0  0  0  0
    0.2168   22.3073  -27.3518 C   0  0  0  0  0  0  0  0  0  0  0  0
   -1.0326   22.8770  -27.5034 C   0  0  0  0  0  0  0  0  0  0  0  0
   -8.2129   22.1249  -19.3095 C   0  0  0  0  0  0  0  0  0  0  0  0
   -7.7704   20.6896  -19.2135 C   0  0  0  0  0  0  0  0  0  0  0  0
   -8.5845   20.0985  -18.0497 C   0  0  0  0  0  0  0  0  0  0  0  0
   -8.3215   20.8058  -16.7757 C   0  0  0  0  0  0  0  0  0  0  0  0
   -7.2693   21.8656  -17.0030 C   0  0  0  0  0  0  0  0  0  0  0  0
   -7.6129   22.8263  -18.1227 C   0  0  0  0  0  0  0  0  0  0  0  0
   -9.4303   21.3407  -16.0769 N   0  0  0  0  0  0  0  0  0  0  0  0
   -9.1172   21.6253  -14.6979 C   0  0  0  0  0  0  0  0  0  0  0  0
   -8.8724   20.3798  -13.8915 C   0  0  0  0  0  0  0  0  0  0  0  0
   -9.5671   19.2277  -14.3701 N   0  0  0  0  0  0  0  0  0  0  0  0
  -10.6108   19.2931  -15.3842 C   0  0  0  0  0  0  0  0  0  0  0  0
  -10.6485   20.6069  -16.1015 C   0  0  0  0  0  0  0  0  0  0  0  0
   -9.2476   17.9495  -13.8528 C   0  0  0  0  0  0  0  0  0  0  0  0
   -8.3533   17.8596  -12.9792 O   0  0  0  0  0  0  0  0  0  0  0  0
   -9.9282   16.7220  -14.3049 C   0  0  0  0  0  0  0  0  0  0  0  0
   -9.0039   15.7722  -14.7062 O   0  0  0  0  0  0  0  0  0  0  0  0
   -8.8179   15.9311  -15.6809 H   0  0  0  0  0  0  0  0  0  0  0  0
  1  2  1  0  0  0
  2  3  2  0  0  0
  3  4  1  0  0  0
  4  5  2  0  0  0
  5  6  1  0  0  0
  6  7  1  0  0  0
  7  8  1  0  0  0
  8  9  2  0  0  0
  9 13  1  0  0  0
 13 14  2  0  0  0
 14 15  1  0  0  0
 15 16  2  0  0  0
 16 19  1  0  0  0
 19 20  1  0  0  0
 20 21  2  0  0  0
 21 22  1  0  0  0
 22 23  2  0  0  0
 23 24  1  0  0  0
 24 25  2  0  0  0
 16 17  1  0  0  0
 17 18  2  0  0  0
  9 10  1  0  0  0
  7 26  1  0  0  0
 26 27  1  0  0  0
 27 28  1  0  0  0
 28 29  1  0  0  0
 29 30  1  0  0  0
 30 31  1  0  0  0
 29 32  1  0  0  0
 32 33  1  0  0  0
 33 34  1  0  0  0
 34 35  1  0  0  0
 35 36  1  0  0  0
 36 37  1  0  0  0
 35 38  1  0  0  0
 38 39  2  0  0  0
 38 40  1  0  0  0
 40 41  1  0  0  0
 10  2  1  0  0  0
 31 26  1  0  0  0
 37 32  1  0  0  0
 10  6  2  0  0  0
 18 13  1  0  0  0
 25 20  1  0  0  0
  1 11  1  0  0  0
  1 12  1  0  0  0
 41 42  1  0  0  0
M  END
> <minimizedAffinity>
-8.51779

> <CNNscore>
0.1576433033

> <CNNaffinity>
6.1396560669

> <CNN_VS>
0.9678756595

> <CNNaffinity_variance>
0.0737910569

$$$$
[H]OC([H])([H])C(=O)N1C([H])([H])C([H])([H])N([C@]2([H])C([H])([H])C([H])([H])[C@@]([H])(n3c([H])c(-c4c([H])c([H])c(Oc5c([H])c([H])c([H])c([H])c5[H])c([H])c4[H])c4c(N([H])[H])nc([H])nc43)C([H])([H])C2([H])[H])C([H])([H])C1([H])[H]


 42 47  0  0  0  0  0  0  0  0999 V2000
   -8.5218   25.6059  -23.6720 N   0  0  0  0  0  0  0  0  0  0  0  0
   -9.0636   25.0075  -22.5167 C   0  0  0  0  0  0  0  0  0  0  0  0
  -10.2475   25.3818  -22.0033 N   0  0  0  0  0  0  0  0  0  0  0  0
  -10.7760   24.8515  -20.8972 C   0  0  0  0  0  0  0  0  0  0  0  0
  -10.0656   23.8965  -20.2866 N   0  0  0  0  0  0  0  0  0  0  0  0
   -8.8723   23.4320  -20.6952 C   0  0  0  0  0  0  0  0  0  0  0  0
   -8.0217   22.5012  -20.2134 N   0  0  0  0  0  0  0  0  0  0  0  0
   -6.9662   22.4591  -21.0287 C   0  0  0  0  0  0  0  0  0  0  0  0
   -7.1558   23.3882  -22.0537 C   0  0  0  0  0  0  0  0  0  0  0  0
   -8.3487   24.0131  -21.8627 C   0  0  0  0  0  0  0  0  0  0  0  0
   -7.6966   26.2315  -23.6904 H   0  0  0  0  0  0  0  0  0  0  0  0
   -8.9829   25.4069  -24.5831 H   0  0  0  0  0  0  0  0  0  0  0  0
   -6.2308   23.6115  -23.1741 C   0  0  0  0  0  0  0  0  0  0  0  0
   -6.2754   22.8438  -24.3072 C   0  0  0  0  0  0  0  0  0  0  0  0
   -5.4294   23.0496  -25.3670 C   0  0  0  0  0  0  0  0  0  0  0  0
   -4.5030   24.0632  -25.2887 C   0  0  0  0  0  0  0  0  0  0  0  0
   -4.4107   24.8737  -24.1651 C   0  0  0  0  0  0  0  0  0  0  0  0
   -5.2870   24.6268  -23.1203 C   0  0  0  0  0  0  0  0  0  0  0  0
   -3.6532   24.2513  -26.3834 O   0  0  0  0  0  0  0  0  0  0  0  0
   -4.1809   24.6556  -27.6080 C   0  0  0  0  0  0  0  0  0  0  0  0
   -5.2128   25.5673  -27.7223 C   0  0  0  0  0  0  0  0  0  0  0  0
   -5.7147   25.9484  -28.9548 C   0  0  0  0  0  0  0  0  0  0  0  0
   -5.1820   25.4136  -30.1091 C   0  0  0  0  0  0  0  0  0  0  0  0
   -4.1540   24.5057  -29.9870 C   0  0  0  0  0  0  0  0  0  0  0  0
   -3.6539   24.1258  -28.7565 C   0  0  0  0  0  0  0  0  0  0  0  0
   -8.2495   21.7212  -19.0283 C   0  0  0  0  0  0  0  0  0  0  0  0
   -7.5911   20.3678  -19.0325 C   0  0  0  0  0  0  0  0  0  0  0  0
   -8.3093   19.5716  -17.9293 C   0  0  0  0  0  0  0  0  0  0  0  0
   -8.1642   20.2119  -16.6020 C   0  0  0  0  0  0  0  0  0  0  0  0
   -7.2873   21.4349  -16.7327 C   0  0  0  0  0  0  0  0  0  0  0  0
   -7.7702   22.4139  -17.7830 C   0  0  0  0  0  0  0  0  0  0  0  0
   -9.3454   20.5152  -15.8833 N   0  0  0  0  0  0  0  0  0  0  0  0
   -9.0968   20.6705  -14.4709 C   0  0  0  0  0  0  0  0  0  0  0  0
   -8.7076   19.3786  -13.8067 C   0  0  0  0  0  0  0  0  0  0  0  0
   -9.2387   18.2134  -14.4385 N   0  0  0  0  0  0  0  0  0  0  0  0
  -10.2636   18.2670  -15.4724 C   0  0  0  0  0  0  0  0  0  0  0  0
  -10.4578   19.6416  -16.0334 C   0  0  0  0  0  0  0  0  0  0  0  0
   -8.7661   16.9333  -14.0626 C   0  0  0  0  0  0  0  0  0  0  0  0
   -7.8836   16.8535  -13.1761 O   0  0  0  0  0  0  0  0  0  0  0  0
   -9.2739   15.6925  -14.6765 C   0  0  0  0  0  0  0  0  0  0  0  0
   -8.4701   14.6170  -14.3377 O   0  0  0  0  0  0  0  0  0  0  0  0
   -7.7399   14.5627  -15.0259 H   0  0  0  0  0  0  0  0  0  0  0  0
  1  2  1  0  0  0
  2  3  2  0  0  0
  3  4  1  0  0  0
  4  5  2  0  0  0
  5  6  1  0  0  0
  6  7  1  0  0  0
  7  8  1  0  0  0
  8  9  2  0  0  0
  9 13  1  0  0  0
 13 14  2  0  0  0
 14 15  1  0  0  0
 15 16  2  0  0  0
 16 19  1  0  0  0
 19 20  1  0  0  0
 20 21  2  0  0  0
 21 22  1  0  0  0
 22 23  2  0  0  0
 23 24  1  0  0  0
 24 25  2  0  0  0
 16 17  1  0  0  0
 17 18  2  0  0  0
  9 10  1  0  0  0
  7 26  1  0  0  0
 26 27  1  0  0  0
 27 28  1  0  0  0
 28 29  1  0  0  0
 29 30  1  0  0  0
 30 31  1  0  0  0
 29 32  1  0  0  0
 32 33  1  0  0  0
 33 34  1  0  0  0
 34 35  1  0  0  0
 35 36  1  0  0  0
 36 37  1  0  0  0
 35 38  1  0  0  0
 38 39  2  0  0  0
 38 40  1  0  0  0
 40 41  1  0  0  0
 10  2  1  0  0  0
 31 26  1  0  0  0
 37 32  1  0  0  0
 10  6  2  0  0  0
 18 13  1  0  0  0
 25 20  1  0  0  0
  1 11  1  0  0  0
  1 12  1  0  0  0
 41 42  1  0  0  0
M  END
> <minimizedAffinity>
-7.59445

> <CNNscore>
0.1543539464

> <CNNaffinity>
6.1031579971

> <CNN_VS>
0.9420465231

> <CNNaffinity_variance>
0.0552549735

$$$$
[H]OC([H])([H])C(=O)N1C([H])([H])C([H])([H])N([C@]2([H])C([H])([H])C([H])([H])[C@@]([H])(n3c([H])c(-c4c([H])c([H])c(Oc5c([H])c([H])c([H])c([H])c5[H])c([H])c4[H])c4c(N([H])[H])nc([H])nc43)C([H])([H])C2([H])[H])C([H])([H])C1([H])[H]


 42 47  0  0  0  0  0  0  0  0999 V2000
   -8.0161   25.5650  -24.0569 N   0  0  0  0  0  0  0  0  0  0  0  0
   -8.6211   25.0665  -22.8857 C   0  0  0  0  0  0  0  0  0  0  0  0
   -9.7643   25.5758  -22.3968 N   0  0  0  0  0  0  0  0  0  0  0  0
  -10.3491   25.1419  -21.2770 C   0  0  0  0  0  0  0  0  0  0  0  0
   -9.7410   24.1439  -20.6260 N   0  0  0  0  0  0  0  0  0  0  0  0
   -8.5979   23.5480  -21.0069 C   0  0  0  0  0  0  0  0  0  0  0  0
   -7.8473   22.5553  -20.4842 N   0  0  0  0  0  0  0  0  0  0  0  0
   -6.7970   22.3781  -21.2879 C   0  0  0  0  0  0  0  0  0  0  0  0
   -6.8873   23.2831  -22.3474 C   0  0  0  0  0  0  0  0  0  0  0  0
   -8.0127   24.0305  -22.1898 C   0  0  0  0  0  0  0  0  0  0  0  0
   -7.1323   26.1040  -24.0905 H   0  0  0  0  0  0  0  0  0  0  0  0
   -8.4899   25.3795  -24.9644 H   0  0  0  0  0  0  0  0  0  0  0  0
   -5.9387   23.3716  -23.4669 C   0  0  0  0  0  0  0  0  0  0  0  0
   -4.9186   24.2850  -23.4745 C   0  0  0  0  0  0  0  0  0  0  0  0
   -4.0167   24.3697  -24.5044 C   0  0  0  0  0  0  0  0  0  0  0  0
   -4.1417   23.5062  -25.5677 C   0  0  0  0  0  0  0  0  0  0  0  0
   -5.1562   22.5595  -25.6154 C   0  0  0  0  0  0  0  0  0  0  0  0
   -6.0428   22.5128  -24.5515 C   0  0  0  0  0  0  0  0  0  0  0  0
   -3.2086   23.6140  -26.6038 O   0  0  0  0  0  0  0  0  0  0  0  0
   -1.9497   23.0330  -26.4650 C   0  0  0  0  0  0  0  0  0  0  0  0
   -1.4719   22.5426  -25.2650 C   0  0  0  0  0  0  0  0  0  0  0  0
   -0.2155   21.9707  -25.1605 C   0  0  0  0  0  0  0  0  0  0  0  0
    0.5932   21.8800  -26.2739 C   0  0  0  0  0  0  0  0  0  0  0  0
    0.1100   22.3710  -27.4662 C   0  0  0  0  0  0  0  0  0  0  0  0
   -1.1439   22.9418  -27.5694 C   0  0  0  0  0  0  0  0  0  0  0  0
   -8.1582   21.8461  -19.2737 C   0  0  0  0  0  0  0  0  0  0  0  0
   -7.7621   22.5603  -18.0095 C   0  0  0  0  0  0  0  0  0  0  0  0
   -7.7703   21.4749  -16.9192 C   0  0  0  0  0  0  0  0  0  0  0  0
   -9.1068   20.8563  -16.7652 C   0  0  0  0  0  0  0  0  0  0  0  0
  -10.0810   21.5379  -17.6971 C   0  0  0  0  0  0  0  0  0  0  0  0
   -9.6261   21.5490  -19.1421 C   0  0  0  0  0  0  0  0  0  0  0  0
   -9.1998   19.4487  -16.8833 N   0  0  0  0  0  0  0  0  0  0  0  0
  -10.4107   18.9332  -16.2927 C   0  0  0  0  0  0  0  0  0  0  0  0
  -10.4299   19.0748  -14.7957 C   0  0  0  0  0  0  0  0  0  0  0  0
   -9.1362   19.0667  -14.1912 N   0  0  0  0  0  0  0  0  0  0  0  0
   -7.9240   18.7034  -14.9127 C   0  0  0  0  0  0  0  0  0  0  0  0
   -8.1149   18.6678  -16.3974 C   0  0  0  0  0  0  0  0  0  0  0  0
   -8.9952   19.4237  -12.8288 C   0  0  0  0  0  0  0  0  0  0  0  0
  -10.0196   19.7420  -12.1805 O   0  0  0  0  0  0  0  0  0  0  0  0
   -7.6879   19.4349  -12.1467 C   0  0  0  0  0  0  0  0  0  0  0  0
   -7.2089   20.7291  -12.0331 O   0  0  0  0  0  0  0  0  0  0  0  0
   -6.6843   20.9267  -12.8671 H   0  0  0  0  0  0  0  0  0  0  0  0
  1  2  1  0  0  0
  2  3  2  0  0  0
  3  4  1  0  0  0
  4  5  2  0  0  0
  5  6  1  0  0  0
  6  7  1  0  0  0
  7  8  1  0  0  0
  8  9  2  0  0  0
  9 13  1  0  0  0
 13 14  2  0  0  0
 14 15  1  0  0  0
 15 16  2  0  0  0
 16 19  1  0  0  0
 19 20  1  0  0  0
 20 21  2  0  0  0
 21 22  1  0  0  0
 22 23  2  0  0  0
 23 24  1  0  0  0
 24 25  2  0  0  0
 16 17  1  0  0  0
 17 18  2  0  0  0
  9 10  1  0  0  0
  7 26  1  0  0  0
 26 27  1  0  0  0
 27 28  1  0  0  0
 28 29  1  0  0  0
 29 30  1  0  0  0
 30 31  1  0  0  0
 29 32  1  0  0  0
 32 33  1  0  0  0
 33 34  1  0  0  0
 34 35  1  0  0  0
 35 36  1  0  0  0
 36 37  1  0  0  0
 35 38  1  0  0  0
 38 39  2  0  0  0
 38 40  1  0  0  0
 40 41  1  0  0  0
 10  2  1  0  0  0
 31 26  1  0  0  0
 37 32  1  0  0  0
 10  6  2  0  0  0
 18 13  1  0  0  0
 25 20  1  0  0  0
  1 11  1  0  0  0
  1 12  1  0  0  0
 41 42  1  0  0  0
M  END
> <minimizedAffinity>
-8.50968

> <CNNscore>
0.1541456282

> <CNNaffinity>
6.1020216942

> <CNN_VS>
0.9405999780

> <CNNaffinity_variance>
0.1169592291

$$$$
[H]OC([H])([H])C(=O)N1C([H])([H])C([H])([H])N([C@]2([H])C([H])([H])C([H])([H])[C@@]([H])(n3c([H])c(-c4c([H])c([H])c(Oc5c([H])c([H])c([H])c([H])c5[H])c([H])c4[H])c4c(N([H])[H])nc([H])nc43)C([H])([H])C2([H])[H])C([H])([H])C1([H])[H]


 42 47  0  0  0  0  0  0  0  0999 V2000
    1.7032   21.2595  -24.6246 N   0  0  0  0  0  0  0  0  0  0  0  0
    1.4912   21.1859  -23.2332 C   0  0  0  0  0  0  0  0  0  0  0  0
    2.4744   20.8692  -22.3739 N   0  0  0  0  0  0  0  0  0  0  0  0
    2.2998   20.7676  -21.0536 C   0  0  0  0  0  0  0  0  0  0  0  0
    1.0672   20.9990  -20.5881 N   0  0  0  0  0  0  0  0  0  0  0  0
   -0.0003   21.3236  -21.3377 C   0  0  0  0  0  0  0  0  0  0  0  0
   -1.2948   21.5782  -21.0522 N   0  0  0  0  0  0  0  0  0  0  0  0
   -1.9177   21.8386  -22.2032 C   0  0  0  0  0  0  0  0  0  0  0  0
   -0.9911   21.7467  -23.2437 C   0  0  0  0  0  0  0  0  0  0  0  0
    0.2222   21.4221  -22.7217 C   0  0  0  0  0  0  0  0  0  0  0  0
    1.3321   20.5900  -25.3222 H   0  0  0  0  0  0  0  0  0  0  0  0
    2.2773   22.0480  -24.9867 H   0  0  0  0  0  0  0  0  0  0  0  0
   -1.2828   22.0057  -24.6609 C   0  0  0  0  0  0  0  0  0  0  0  0
   -2.4700   21.6302  -25.2309 C   0  0  0  0  0  0  0  0  0  0  0  0
   -2.7629   21.8783  -26.5477 C   0  0  0  0  0  0  0  0  0  0  0  0
   -1.8307   22.5272  -27.3234 C   0  0  0  0  0  0  0  0  0  0  0  0
   -0.6095   22.9312  -26.8005 C   0  0  0  0  0  0  0  0  0  0  0  0
   -0.3597   22.6580  -25.4651 C   0  0  0  0  0  0  0  0  0  0  0  0
   -2.1552   22.7678  -28.6623 O   0  0  0  0  0  0  0  0  0  0  0  0
   -3.3385   23.4319  -28.9793 C   0  0  0  0  0  0  0  0  0  0  0  0
   -4.4962   22.7768  -29.3527 C   0  0  0  0  0  0  0  0  0  0  0  0
   -5.6561   23.4665  -29.6615 C   0  0  0  0  0  0  0  0  0  0  0  0
   -5.6737   24.8441  -29.5996 C   0  0  0  0  0  0  0  0  0  0  0  0
   -4.5160   25.4898  -29.2268 C   0  0  0  0  0  0  0  0  0  0  0  0
   -3.3589   24.8006  -28.9190 C   0  0  0  0  0  0  0  0  0  0  0  0
   -1.8600   21.5571  -19.7313 C   0  0  0  0  0  0  0  0  0  0  0  0
   -1.2553   22.5494  -18.7749 C   0  0  0  0  0  0  0  0  0  0  0  0
   -1.6711   22.0600  -17.3769 C   0  0  0  0  0  0  0  0  0  0  0  0
   -3.1430   22.0226  -17.2194 C   0  0  0  0  0  0  0  0  0  0  0  0
   -3.7916   22.5464  -18.4792 C   0  0  0  0  0  0  0  0  0  0  0  0
   -3.3387   21.8286  -19.7340 C   0  0  0  0  0  0  0  0  0  0  0  0
   -3.7331   20.7988  -16.8221 N   0  0  0  0  0  0  0  0  0  0  0  0
   -5.1390   20.9424  -16.5335 C   0  0  0  0  0  0  0  0  0  0  0  0
   -5.3956   21.7708  -15.3048 C   0  0  0  0  0  0  0  0  0  0  0  0
   -4.3448   21.7250  -14.3391 N   0  0  0  0  0  0  0  0  0  0  0  0
   -3.2422   20.7755  -14.4086 C   0  0  0  0  0  0  0  0  0  0  0  0
   -3.1385   20.0951  -15.7384 C   0  0  0  0  0  0  0  0  0  0  0  0
   -4.3490   22.6324  -13.2529 C   0  0  0  0  0  0  0  0  0  0  0  0
   -5.2840   23.4625  -13.1652 O   0  0  0  0  0  0  0  0  0  0  0  0
   -3.2937   22.6360  -12.2229 C   0  0  0  0  0  0  0  0  0  0  0  0
   -3.7457   22.0347  -11.0604 O   0  0  0  0  0  0  0  0  0  0  0  0
   -4.1784   22.7507  -10.5038 H   0  0  0  0  0  0  0  0  0  0  0  0
  1  2  1  0  0  0
  2  3  2  0  0  0
  3  4  1  0  0  0
  4  5  2  0  0  0
  5  6  1  0  0  0
  6  7  1  0  0  0
  7  8  1  0  0  0
  8  9  2  0  0  0
  9 13  1  0  0  0
 13 14  2  0  0  0
 14 15  1  0  0  0
 15 16  2  0  0  0
 16 19  1  0  0  0
 19 20  1  0  0  0
 20 21  2  0  0  0
 21 22  1  0  0  0
 22 23  2  0  0  0
 23 24  1  0  0  0
 24 25  2  0  0  0
 16 17  1  0  0  0
 17 18  2  0  0  0
  9 10  1  0  0  0
  7 26  1  0  0  0
 26 27  1  0  0  0
 27 28  1  0  0  0
 28 29  1  0  0  0
 29 30  1  0  0  0
 30 31  1  0  0  0
 29 32  1  0  0  0
 32 33  1  0  0  0
 33 34  1  0  0  0
 34 35  1  0  0  0
 35 36  1  0  0  0
 36 37  1  0  0  0
 35 38  1  0  0  0
 38 39  2  0  0  0
 38 40  1  0  0  0
 40 41  1  0  0  0
 10  2  1  0  0  0
 31 26  1  0  0  0
 37 32  1  0  0  0
 10  6  2  0  0  0
 18 13  1  0  0  0
 25 20  1  0  0  0
  1 11  1  0  0  0
  1 12  1  0  0  0
 41 42  1  0  0  0
M  END
> <minimizedAffinity>
-8.50365

> <CNNscore>
0.1439280212

> <CNNaffinity>
6.3906803131

> <CNN_VS>
0.9197979569

> <CNNaffinity_variance>
0.0554972775

$$$$
[H]c1c([H])c([H])c2c(nc(C3([H])C([H])([H])C([H])([H])N([H])C([H])([H])C3([H])[H])c(=O)n2[H])c1[H]


 19 21  0  0  0  0  0  0  0  0999 V2000
   -2.6483   22.7165  -26.1861 C   0  0  0  0  0  0  0  0  0  0  0  0
   -2.0164   22.6790  -27.4068 C   0  0  0  0  0  0  0  0  0  0  0  0
   -0.9824   21.9497  -27.4857 O   0  0  0  0  0  0  0  0  0  0  0  0
   -2.4761   23.3747  -28.4167 N   0  0  0  0  0  0  0  0  0  0  0  0
   -3.5824   24.1326  -28.2876 C   0  0  0  0  0  0  0  0  0  0  0  0
   -4.1025   24.8401  -29.3592 C   0  0  0  0  0  0  0  0  0  0  0  0
   -5.2378   25.6002  -29.3274 C   0  0  0  0  0  0  0  0  0  0  0  0
   -5.9141   25.6589  -28.0961 C   0  0  0  0  0  0  0  0  0  0  0  0
   -5.4114   24.9649  -27.0210 C   0  0  0  0  0  0  0  0  0  0  0  0
   -4.2633   24.2060  -27.0839 C   0  0  0  0  0  0  0  0  0  0  0  0
   -3.7742   23.4942  -26.0511 N   0  0  0  0  0  0  0  0  0  0  0  0
   -1.9726   23.3384  -29.3239 H   0  0  0  0  0  0  0  0  0  0  0  0
   -3.6914   21.3769  -24.4463 C   0  0  0  0  0  0  0  0  0  0  0  0
   -2.3577   21.8591  -25.0483 C   0  0  0  0  0  0  0  0  0  0  0  0
   -1.4283   22.2432  -24.0134 C   0  0  0  0  0  0  0  0  0  0  0  0
   -1.7682   21.3746  -22.7678 C   0  0  0  0  0  0  0  0  0  0  0  0
   -2.9288   22.0354  -22.2101 N   0  0  0  0  0  0  0  0  0  0  0  0
   -3.8931   22.3140  -23.2327 C   0  0  0  0  0  0  0  0  0  0  0  0
   -3.2616   21.6772  -21.3256 H   0  0  0  0  0  0  0  0  0  0  0  0
 13 14  1  0  0  0
 14  1  1  0  0  0
  1  2  1  0  0  0
  2  3  2  0  0  0
  2  4  1  0  0  0
  4  5  1  0  0  0
  5  6  2  0  0  0
  6  7  1  0  0  0
  7  8  2  0  0  0
  8  9  1  0  0  0
  9 10  2  0  0  0
 10 11  1  0  0  0
 14 15  1  0  0  0
 15 16  1  0  0  0
 16 17  1  0  0  0
 17 18  1  0  0  0
 18 13  1  0  0  0
 11  1  2  0  0  0
 10  5  1  0  0  0
  4 12  1  0  0  0
 17 19  1  0  0  0
M  END
> <minimizedAffinity>
-6.53336

> <CNNscore>
0.5124982595

> <CNNaffinity>
5.6543993950

> <CNN_VS>
2.8978698254

> <CNNaffinity_variance>
0.4874417782

$$$$
[H]c1c([H])c([H])c2c(nc(C3([H])C([H])([H])C([H])([H])N([H])C([H])([H])C3([H])[H])c(=O)n2[H])c1[H]


 19 21  0  0  0  0  0  0  0  0999 V2000
   -3.5799   23.2747  -26.6774 C   0  0  0  0  0  0  0  0  0  0  0  0
   -2.6728   23.2675  -27.7108 C   0  0  0  0  0  0  0  0  0  0  0  0
   -3.1016   23.6479  -28.8416 O   0  0  0  0  0  0  0  0  0  0  0  0
   -1.4386   22.8777  -27.5115 N   0  0  0  0  0  0  0  0  0  0  0  0
   -1.0259   22.4862  -26.2903 C   0  0  0  0  0  0  0  0  0  0  0  0
    0.2874   22.1114  -26.0573 C   0  0  0  0  0  0  0  0  0  0  0  0
    0.7993   21.7389  -24.8461 C   0  0  0  0  0  0  0  0  0  0  0  0
   -0.0981   21.7384  -23.7638 C   0  0  0  0  0  0  0  0  0  0  0  0
   -1.4058   22.1054  -23.9767 C   0  0  0  0  0  0  0  0  0  0  0  0
   -1.8931   22.4767  -25.2106 C   0  0  0  0  0  0  0  0  0  0  0  0
   -3.1616   22.8699  -25.4315 N   0  0  0  0  0  0  0  0  0  0  0  0
   -0.7775   22.8699  -28.3120 H   0  0  0  0  0  0  0  0  0  0  0  0
   -4.7823   25.3872  -26.6597 C   0  0  0  0  0  0  0  0  0  0  0  0
   -4.9132   23.8532  -26.7164 C   0  0  0  0  0  0  0  0  0  0  0  0
   -5.9780   23.3898  -25.8598 C   0  0  0  0  0  0  0  0  0  0  0  0
   -7.0303   24.5347  -25.8018 C   0  0  0  0  0  0  0  0  0  0  0  0
   -6.4497   25.4707  -24.8628 N   0  0  0  0  0  0  0  0  0  0  0  0
   -5.0730   25.7144  -25.1764 C   0  0  0  0  0  0  0  0  0  0  0  0
   -7.0274   26.2596  -24.6074 H   0  0  0  0  0  0  0  0  0  0  0  0
 13 14  1  0  0  0
 14  1  1  0  0  0
  1  2  1  0  0  0
  2  3  2  0  0  0
  2  4  1  0  0  0
  4  5  1  0  0  0
  5  6  2  0  0  0
  6  7  1  0  0  0
  7  8  2  0  0  0
  8  9  1  0  0  0
  9 10  2  0  0  0
 10 11  1  0  0  0
 14 15  1  0  0  0
 15 16  1  0  0  0
 16 17  1  0  0  0
 17 18  1  0  0  0
 18 13  1  0  0  0
 11  1  2  0  0  0
 10  5  1  0  0  0
  4 12  1  0  0  0
 17 19  1  0  0  0
M  END
> <minimizedAffinity>
-7.05460

> <CNNscore>
0.4747507274

> <CNNaffinity>
5.6507964134

> <CNN_VS>
2.6827197075

> <CNNaffinity_variance>
0.1868849695

$$$$
[H]c1c([H])c([H])c2c(nc(C3([H])C([H])([H])C([H])([H])N([H])C([H])([H])C3([H])[H])c(=O)n2[H])c1[H]


 19 21  0  0  0  0  0  0  0  0999 V2000
   -4.5525   23.4719  -27.3203 C   0  0  0  0  0  0  0  0  0  0  0  0
   -3.8819   23.4743  -28.5208 C   0  0  0  0  0  0  0  0  0  0  0  0
   -4.5581   23.7914  -29.5452 O   0  0  0  0  0  0  0  0  0  0  0  0
   -2.6128   23.1557  -28.5757 N   0  0  0  0  0  0  0  0  0  0  0  0
   -1.9328   22.8300  -27.4592 C   0  0  0  0  0  0  0  0  0  0  0  0
   -0.5804   22.5317  -27.4982 C   0  0  0  0  0  0  0  0  0  0  0  0
    0.1933   22.2296  -26.4129 C   0  0  0  0  0  0  0  0  0  0  0  0
   -0.4574   22.2218  -25.1666 C   0  0  0  0  0  0  0  0  0  0  0  0
   -1.7997   22.5133  -25.1089 C   0  0  0  0  0  0  0  0  0  0  0  0
   -2.5540   22.8146  -26.2216 C   0  0  0  0  0  0  0  0  0  0  0  0
   -3.8612   23.1341  -26.1806 N   0  0  0  0  0  0  0  0  0  0  0  0
   -2.1337   23.1532  -29.4967 H   0  0  0  0  0  0  0  0  0  0  0  0
   -5.8685   25.5137  -27.2297 C   0  0  0  0  0  0  0  0  0  0  0  0
   -5.8958   23.9795  -27.0925 C   0  0  0  0  0  0  0  0  0  0  0  0
   -6.6896   23.5725  -25.9582 C   0  0  0  0  0  0  0  0  0  0  0  0
   -7.7794   24.6663  -25.7645 C   0  0  0  0  0  0  0  0  0  0  0  0
   -7.0629   25.7331  -25.0987 N   0  0  0  0  0  0  0  0  0  0  0  0
   -5.8218   26.0012  -25.7627 C   0  0  0  0  0  0  0  0  0  0  0  0
   -7.6199   26.5193  -24.7935 H   0  0  0  0  0  0  0  0  0  0  0  0
 13 14  1  0  0  0
 14  1  1  0  0  0
  1  2  1  0  0  0
  2  3  2  0  0  0
  2  4  1  0  0  0
  4  5  1  0  0  0
  5  6  2  0  0  0
  6  7  1  0  0  0
  7  8  2  0  0  0
  8  9  1  0  0  0
  9 10  2  0  0  0
 10 11  1  0  0  0
 14 15  1  0  0  0
 15 16  1  0  0  0
 16 17  1  0  0  0
 17 18  1  0  0  0
 18 13  1  0  0  0
 11  1  2  0  0  0
 10  5  1  0  0  0
  4 12  1  0  0  0
 17 19  1  0  0  0
M  END
> <minimizedAffinity>
-7.69759

> <CNNscore>
0.4231287539

> <CNNaffinity>
5.6547565460

> <CNN_VS>
2.3926901817

> <CNNaffinity_variance>
0.1260434389

$$$$
[H]c1c([H])c([H])c2c(nc(C3([H])C([H])([H])C([H])([H])N([H])C([H])([H])C3([H])[H])c(=O)n2[H])c1[H]


 19 21  0  0  0  0  0  0  0  0999 V2000
   -3.2138   23.6113  -27.5524 C   0  0  0  0  0  0  0  0  0  0  0  0
   -2.1116   23.4828  -28.3646 C   0  0  0  0  0  0  0  0  0  0  0  0
   -2.2441   23.8742  -29.5631 O   0  0  0  0  0  0  0  0  0  0  0  0
   -0.9977   22.9737  -27.9006 N   0  0  0  0  0  0  0  0  0  0  0  0
   -0.9015   22.5754  -26.6172 C   0  0  0  0  0  0  0  0  0  0  0  0
    0.2835   22.0742  -26.1033 C   0  0  0  0  0  0  0  0  0  0  0  0
    0.4802   21.6842  -24.8083 C   0  0  0  0  0  0  0  0  0  0  0  0
   -0.6240   21.8054  -23.9464 C   0  0  0  0  0  0  0  0  0  0  0  0
   -1.8087   22.2989  -24.4394 C   0  0  0  0  0  0  0  0  0  0  0  0
   -1.9768   22.6845  -25.7513 C   0  0  0  0  0  0  0  0  0  0  0  0
   -3.1189   23.1998  -26.2438 N   0  0  0  0  0  0  0  0  0  0  0  0
   -0.1845   22.8762  -28.5386 H   0  0  0  0  0  0  0  0  0  0  0  0
   -5.5102   23.2907  -28.2824 C   0  0  0  0  0  0  0  0  0  0  0  0
   -4.4383   24.3224  -27.8822 C   0  0  0  0  0  0  0  0  0  0  0  0
   -4.4521   25.4587  -28.7717 C   0  0  0  0  0  0  0  0  0  0  0  0
   -5.9149   25.6043  -29.2821 C   0  0  0  0  0  0  0  0  0  0  0  0
   -6.0117   24.5847  -30.3047 N   0  0  0  0  0  0  0  0  0  0  0  0
   -5.4901   23.3382  -29.8280 C   0  0  0  0  0  0  0  0  0  0  0  0
   -6.8706   24.5698  -30.8371 H   0  0  0  0  0  0  0  0  0  0  0  0
 13 14  1  0  0  0
 14  1  1  0  0  0
  1  2  1  0  0  0
  2  3  2  0  0  0
  2  4  1  0  0  0
  4  5  1  0  0  0
  5  6  2  0  0  0
  6  7  1  0  0  0
  7  8  2  0  0  0
  8  9  1  0  0  0
  9 10  2  0  0  0
 10 11  1  0  0  0
 14 15  1  0  0  0
 15 16  1  0  0  0
 16 17  1  0  0  0
 17 18  1  0  0  0
 18 13  1  0  0  0
 11  1  2  0  0  0
 10  5  1  0  0  0
  4 12  1  0  0  0
 17 19  1  0  0  0
M  END
> <minimizedAffinity>
-7.19531

> <CNNscore>
0.4164533019

> <CNNaffinity>
5.8211383820

> <CNN_VS>
2.4242322445

> <CNNaffinity_variance>
0.2542036176

$$$$
[H]c1c([H])c([H])c2c(nc(C3([H])C([H])([H])C([H])([H])N([H])C([H])([H])C3([H])[H])c(=O)n2[H])c1[H]


 19 21  0  0  0  0  0  0  0  0999 V2000
   -3.0456   23.2769  -26.2507 C   0  0  0  0  0  0  0  0  0  0  0  0
   -2.3055   22.9130  -27.3510 C   0  0  0  0  0  0  0  0  0  0  0  0
   -1.3413   22.1161  -27.1450 O   0  0  0  0  0  0  0  0  0  0  0  0
   -2.5989   23.3844  -28.5371 N   0  0  0  0  0  0  0  0  0  0  0  0
   -3.6369   24.2258  -28.7092 C   0  0  0  0  0  0  0  0  0  0  0  0
   -3.9832   24.6984  -29.9647 C   0  0  0  0  0  0  0  0  0  0  0  0
   -5.0405   25.5213  -30.2348 C   0  0  0  0  0  0  0  0  0  0  0  0
   -5.8236   25.9112  -29.1342 C   0  0  0  0  0  0  0  0  0  0  0  0
   -5.4937   25.4537  -27.8804 C   0  0  0  0  0  0  0  0  0  0  0  0
   -4.4208   24.6239  -27.6392 C   0  0  0  0  0  0  0  0  0  0  0  0
   -4.1019   24.1402  -26.4239 N   0  0  0  0  0  0  0  0  0  0  0  0
   -2.0161   23.1035  -29.3490 H   0  0  0  0  0  0  0  0  0  0  0  0
   -3.6282   21.3083  -24.9490 C   0  0  0  0  0  0  0  0  0  0  0  0
   -2.9471   22.6900  -24.9241 C   0  0  0  0  0  0  0  0  0  0  0  0
   -3.2987   23.4221  -23.7313 C   0  0  0  0  0  0  0  0  0  0  0  0
   -3.5704   22.3621  -22.6248 C   0  0  0  0  0  0  0  0  0  0  0  0
   -4.9033   21.8922  -22.9368 N   0  0  0  0  0  0  0  0  0  0  0  0
   -5.0188   21.5862  -24.3318 C   0  0  0  0  0  0  0  0  0  0  0  0
   -5.3152   21.2516  -22.2724 H   0  0  0  0  0  0  0  0  0  0  0  0
 13 14  1  0  0  0
 14  1  1  0  0  0
  1  2  1  0  0  0
  2  3  2  0  0  0
  2  4  1  0  0  0
  4  5  1  0  0  0
  5  6  2  0  0  0
  6  7  1  0  0  0
  7  8  2  0  0  0
  8  9  1  0  0  0
  9 10  2  0  0  0
 10 11  1  0  0  0
 14 15  1  0  0  0
 15 16  1  0  0  0
 16 17  1  0  0  0
 17 18  1  0  0  0
 18 13  1  0  0  0
 11  1  2  0  0  0
 10  5  1  0  0  0
  4 12  1  0  0  0
 17 19  1  0  0  0
M  END
> <minimizedAffinity>
-6.42715

> <CNNscore>
0.4064190686

> <CNNaffinity>
5.5432419777

> <CNN_VS>
2.2528791428

> <CNNaffinity_variance>
0.3418162763

$$$$
[H]c1c([H])c([H])c2c(nc(C3([H])C([H])([H])C([H])([H])N([H])C([H])([H])C3([H])[H])c(=O)n2[H])c1[H]


 19 21  0  0  0  0  0  0  0  0999 V2000
   -3.5149   23.1192  -28.0616 C   0  0  0  0  0  0  0  0  0  0  0  0
   -2.1762   22.9433  -27.8012 C   0  0  0  0  0  0  0  0  0  0  0  0
   -1.3754   23.2263  -28.7424 O   0  0  0  0  0  0  0  0  0  0  0  0
   -1.7768   22.4995  -26.6356 N   0  0  0  0  0  0  0  0  0  0  0  0
   -2.6644   22.2163  -25.6625 C   0  0  0  0  0  0  0  0  0  0  0  0
   -2.2523   21.7860  -24.4116 C   0  0  0  0  0  0  0  0  0  0  0  0
   -3.0792   21.5142  -23.3580 C   0  0  0  0  0  0  0  0  0  0  0  0
   -4.4559   21.6871  -23.5855 C   0  0  0  0  0  0  0  0  0  0  0  0
   -4.8834   22.1115  -24.8214 C   0  0  0  0  0  0  0  0  0  0  0  0
   -4.0248   22.3781  -25.8652 C   0  0  0  0  0  0  0  0  0  0  0  0
   -4.4224   22.8251  -27.0713 N   0  0  0  0  0  0  0  0  0  0  0  0
   -0.7610   22.3637  -26.4696 H   0  0  0  0  0  0  0  0  0  0  0  0
   -4.0625   25.2960  -28.9948 C   0  0  0  0  0  0  0  0  0  0  0  0
   -4.0776   23.7737  -29.2316 C   0  0  0  0  0  0  0  0  0  0  0  0
   -5.3239   23.3516  -29.8240 C   0  0  0  0  0  0  0  0  0  0  0  0
   -5.8442   24.5530  -30.6650 C   0  0  0  0  0  0  0  0  0  0  0  0
   -6.4172   25.4316  -29.6677 N   0  0  0  0  0  0  0  0  0  0  0  0
   -5.5164   25.6037  -28.5668 C   0  0  0  0  0  0  0  0  0  0  0  0
   -6.9019   26.2459  -30.0191 H   0  0  0  0  0  0  0  0  0  0  0  0
 13 14  1  0  0  0
 14  1  1  0  0  0
  1  2  1  0  0  0
  2  3  2  0  0  0
  2  4  1  0  0  0
  4  5  1  0  0  0
  5  6  2  0  0  0
  6  7  1  0  0  0
  7  8  2  0  0  0
  8  9  1  0  0  0
  9 10  2  0  0  0
 10 11  1  0  0  0
 14 15  1  0  0  0
 15 16  1  0  0  0
 16 17  1  0  0  0
 17 18  1  0  0  0
 18 13  1  0  0  0
 11  1  2  0  0  0
 10  5  1  0  0  0
  4 12  1  0  0  0
 17 19  1  0  0  0
M  END
> <minimizedAffinity>
-7.51149

> <CNNscore>
0.4062152803

> <CNNaffinity>
5.7835936546

> <CNN_VS>
2.3493840694

> <CNNaffinity_variance>
0.3686500490

$$$$
[H]c1c([H])c([H])c2c(nc(C3([H])C([H])([H])C([H])([H])N([H])C([H])([H])C3([H])[H])c(=O)n2[H])c1[H]


 19 21  0  0  0  0  0  0  0  0999 V2000
   -3.2543   21.9457  -24.5045 C   0  0  0  0  0  0  0  0  0  0  0  0
   -2.0012   21.6707  -24.0096 C   0  0  0  0  0  0  0  0  0  0  0  0
   -1.9465   21.2347  -22.8204 O   0  0  0  0  0  0  0  0  0  0  0  0
   -0.9363   21.8639  -24.7470 N   0  0  0  0  0  0  0  0  0  0  0  0
   -1.0432   22.3244  -26.0085 C   0  0  0  0  0  0  0  0  0  0  0  0
    0.0721   22.4934  -26.8129 C   0  0  0  0  0  0  0  0  0  0  0  0
    0.0520   22.9172  -28.1120 C   0  0  0  0  0  0  0  0  0  0  0  0
   -1.2130   23.2040  -28.6544 C   0  0  0  0  0  0  0  0  0  0  0  0
   -2.3309   23.0442  -27.8702 C   0  0  0  0  0  0  0  0  0  0  0  0
   -2.2790   22.6146  -26.5623 C   0  0  0  0  0  0  0  0  0  0  0  0
   -3.3646   22.4214  -25.7900 N   0  0  0  0  0  0  0  0  0  0  0  0
   -0.0013   21.6602  -24.3444 H   0  0  0  0  0  0  0  0  0  0  0  0
   -5.6657   22.1257  -24.7525 C   0  0  0  0  0  0  0  0  0  0  0  0
   -4.5165   21.6047  -23.8685 C   0  0  0  0  0  0  0  0  0  0  0  0
   -4.7713   21.8710  -22.4733 C   0  0  0  0  0  0  0  0  0  0  0  0
   -6.3175   21.8718  -22.2975 C   0  0  0  0  0  0  0  0  0  0  0  0
   -6.7065   23.1743  -22.7946 N   0  0  0  0  0  0  0  0  0  0  0  0
   -6.0814   23.4424  -24.0558 C   0  0  0  0  0  0  0  0  0  0  0  0
   -7.6807   23.4193  -22.6836 H   0  0  0  0  0  0  0  0  0  0  0  0
 13 14  1  0  0  0
 14  1  1  0  0  0
  1  2  1  0  0  0
  2  3  2  0  0  0
  2  4  1  0  0  0
  4  5  1  0  0  0
  5  6  2  0  0  0
  6  7  1  0  0  0
  7  8  2  0  0  0
  8  9  1  0  0  0
  9 10  2  0  0  0
 10 11  1  0  0  0
 14 15  1  0  0  0
 15 16  1  0  0  0
 16 17  1  0  0  0
 17 18  1  0  0  0
 18 13  1  0  0  0
 11  1  2  0  0  0
 10  5  1  0  0  0
  4 12  1  0  0  0
 17 19  1  0  0  0
M  END
> <minimizedAffinity>
-6.59838

> <CNNscore>
0.3955106139

> <CNNaffinity>
5.3038949966

> <CNN_VS>
2.0977468491

> <CNNaffinity_variance>
0.0450332835

$$$$
[H]c1c([H])c([H])c2c(nc(C3([H])C([H])([H])C([H])([H])N([H])C([H])([H])C3([H])[H])c(=O)n2[H])c1[H]


 19 21  0  0  0  0  0  0  0  0999 V2000
   -5.3997   23.6441  -26.2616 C   0  0  0  0  0  0  0  0  0  0  0  0
   -5.2118   23.5216  -27.6182 C   0  0  0  0  0  0  0  0  0  0  0  0
   -6.2103   23.7864  -28.3532 O   0  0  0  0  0  0  0  0  0  0  0  0
   -4.0538   23.1436  -28.0992 N   0  0  0  0  0  0  0  0  0  0  0  0
   -3.0184   22.8773  -27.2793 C   0  0  0  0  0  0  0  0  0  0  0  0
   -1.7767   22.5170  -27.7773 C   0  0  0  0  0  0  0  0  0  0  0  0
   -0.6651   22.2677  -27.0224 C   0  0  0  0  0  0  0  0  0  0  0  0
   -0.8178   22.3875  -25.6299 C   0  0  0  0  0  0  0  0  0  0  0  0
   -2.0434   22.7420  -25.1176 C   0  0  0  0  0  0  0  0  0  0  0  0
   -3.1469   22.9876  -25.9048 C   0  0  0  0  0  0  0  0  0  0  0  0
   -4.3455   23.3671  -25.4233 N   0  0  0  0  0  0  0  0  0  0  0  0
   -3.9426   23.0469  -29.1268 H   0  0  0  0  0  0  0  0  0  0  0  0
   -6.5948   25.7344  -25.9280 C   0  0  0  0  0  0  0  0  0  0  0  0
   -6.5615   24.2272  -25.6104 C   0  0  0  0  0  0  0  0  0  0  0  0
   -6.8695   23.9810  -24.2223 C   0  0  0  0  0  0  0  0  0  0  0  0
   -7.8119   25.1324  -23.7664 C   0  0  0  0  0  0  0  0  0  0  0  0
   -6.9027   26.2370  -23.5471 N   0  0  0  0  0  0  0  0  0  0  0  0
   -6.0030   26.3796  -24.6531 C   0  0  0  0  0  0  0  0  0  0  0  0
   -7.3080   27.0739  -23.1512 H   0  0  0  0  0  0  0  0  0  0  0  0
 13 14  1  0  0  0
 14  1  1  0  0  0
  1  2  1  0  0  0
  2  3  2  0  0  0
  2  4  1  0  0  0
  4  5  1  0  0  0
  5  6  2  0  0  0
  6  7  1  0  0  0
  7  8  2  0  0  0
  8  9  1  0  0  0
  9 10  2  0  0  0
 10 11  1  0  0  0
 14 15  1  0  0  0
 15 16  1  0  0  0
 16 17  1  0  0  0
 17 18  1  0  0  0
 18 13  1  0  0  0
 11  1  2  0  0  0
 10  5  1  0  0  0
  4 12  1  0  0  0
 17 19  1  0  0  0
M  END
> <minimizedAffinity>
-7.31275

> <CNNscore>
0.3752166033

> <CNNaffinity>
5.4309911728

> <CNN_VS>
2.0377981663

> <CNNaffinity_variance>
0.2771205306

$$$$
[H]c1c([H])c([H])c2c(nc(C3([H])C([H])([H])C([H])([H])N([H])C([H])([H])C3([H])[H])c(=O)n2[H])c1[H]


 19 21  0  0  0  0  0  0  0  0999 V2000
   -2.7568   23.2071  -26.3851 C   0  0  0  0  0  0  0  0  0  0  0  0
   -1.5576   22.5343  -26.3939 C   0  0  0  0  0  0  0  0  0  0  0  0
   -1.0925   22.2232  -27.5315 O   0  0  0  0  0  0  0  0  0  0  0  0
   -0.9519   22.2373  -25.2713 N   0  0  0  0  0  0  0  0  0  0  0  0
   -1.4817   22.5928  -24.0848 C   0  0  0  0  0  0  0  0  0  0  0  0
   -0.8305   22.3215  -22.8924 C   0  0  0  0  0  0  0  0  0  0  0  0
   -1.2752   22.6789  -21.6506 C   0  0  0  0  0  0  0  0  0  0  0  0
   -2.4970   23.3730  -21.6021 C   0  0  0  0  0  0  0  0  0  0  0  0
   -3.1585   23.6492  -22.7753 C   0  0  0  0  0  0  0  0  0  0  0  0
   -2.6845   23.2757  -24.0137 C   0  0  0  0  0  0  0  0  0  0  0  0
   -3.3017   23.5655  -25.1745 N   0  0  0  0  0  0  0  0  0  0  0  0
   -0.0538   21.7176  -25.3059 H   0  0  0  0  0  0  0  0  0  0  0  0
   -4.4889   24.7717  -27.0639 C   0  0  0  0  0  0  0  0  0  0  0  0
   -3.4348   23.7575  -27.5475 C   0  0  0  0  0  0  0  0  0  0  0  0
   -3.9615   22.9207  -28.5985 C   0  0  0  0  0  0  0  0  0  0  0  0
   -5.0272   23.7704  -29.3494 C   0  0  0  0  0  0  0  0  0  0  0  0
   -6.1811   23.6989  -28.4786 N   0  0  0  0  0  0  0  0  0  0  0  0
   -5.8087   23.9675  -27.1213 C   0  0  0  0  0  0  0  0  0  0  0  0
   -7.0306   24.1173  -28.8317 H   0  0  0  0  0  0  0  0  0  0  0  0
 13 14  1  0  0  0
 14  1  1  0  0  0
  1  2  1  0  0  0
  2  3  2  0  0  0
  2  4  1  0  0  0
  4  5  1  0  0  0
  5  6  2  0  0  0
  6  7  1  0  0  0
  7  8  2  0  0  0
  8  9  1  0  0  0
  9 10  2  0  0  0
 10 11  1  0  0  0
 14 15  1  0  0  0
 15 16  1  0  0  0
 16 17  1  0  0  0
 17 18  1  0  0  0
 18 13  1  0  0  0
 11  1  2  0  0  0
 10  5  1  0  0  0
  4 12  1  0  0  0
 17 19  1  0  0  0
M  END
> <minimizedAffinity>
-6.55176

> <CNNscore>
0.3196616173

> <CNNaffinity>
5.6592741013

> <CNN_VS>
1.8090527058

> <CNNaffinity_variance>
0.6435860395

$$$$
[H]c1nc2c([H])c(OC([H])([H])C([H])([H])C([H])([H])N3C([H])([H])C([H])([H])C([H])([H])C3([H])[H])c(OC([H])([H])[H])c([H])c2c(Oc2c([H])c([H])c(N([H])C(=O)C3(C(=O)N([H])c4c([H])c([H])c(F)c([H])c4[H])C([H])([H])C3([H])[H])c([H])c2F)c1[H]


 47 52  0  0  0  0  0  0  0  0999 V2000
   -0.9707   21.5019  -21.3962 C   0  0  0  0  0  0  0  0  0  0  0  0
   -1.1920   22.7137  -20.7557 C   0  0  0  0  0  0  0  0  0  0  0  0
   -0.5209   23.0191  -19.5611 C   0  0  0  0  0  0  0  0  0  0  0  0
    0.3684   22.1502  -18.9797 C   0  0  0  0  0  0  0  0  0  0  0  0
    0.5823   20.9311  -19.6387 C   0  0  0  0  0  0  0  0  0  0  0  0
   -0.0726   20.6360  -20.8044 C   0  0  0  0  0  0  0  0  0  0  0  0
    0.1884   19.4451  -21.4317 F   0  0  0  0  0  0  0  0  0  0  0  0
    1.0450   22.3866  -17.7653 N   0  0  0  0  0  0  0  0  0  0  0  0
    2.2385   23.0868  -17.6870 C   0  0  0  0  0  0  0  0  0  0  0  0
    2.7462   23.5574  -18.7680 O   0  0  0  0  0  0  0  0  0  0  0  0
    0.5523   21.9816  -16.9120 H   0  0  0  0  0  0  0  0  0  0  0  0
    3.0457   23.3819  -16.4698 C   0  0  0  0  0  0  0  0  0  0  0  0
    4.4051   22.6445  -16.5417 C   0  0  0  0  0  0  0  0  0  0  0  0
    4.2746   24.1614  -16.5478 C   0  0  0  0  0  0  0  0  0  0  0  0
    2.4098   23.1814  -15.1223 C   0  0  0  0  0  0  0  0  0  0  0  0
    1.4802   22.3147  -15.0515 O   0  0  0  0  0  0  0  0  0  0  0  0
    2.8378   23.9274  -14.0093 N   0  0  0  0  0  0  0  0  0  0  0  0
    3.6187   24.6325  -14.2139 H   0  0  0  0  0  0  0  0  0  0  0  0
    2.3700   23.8742  -12.6744 C   0  0  0  0  0  0  0  0  0  0  0  0
    2.3179   22.7399  -11.9438 C   0  0  0  0  0  0  0  0  0  0  0  0
    1.8429   22.7032  -10.6226 C   0  0  0  0  0  0  0  0  0  0  0  0
    1.4153   23.8687  -10.0533 C   0  0  0  0  0  0  0  0  0  0  0  0
    0.9457   23.9015   -8.7833 F   0  0  0  0  0  0  0  0  0  0  0  0
    1.4596   25.0487  -10.7850 C   0  0  0  0  0  0  0  0  0  0  0  0
    1.9238   25.0476  -12.0575 C   0  0  0  0  0  0  0  0  0  0  0  0
   -1.6556   21.2585  -22.5656 O   0  0  0  0  0  0  0  0  0  0  0  0
   -4.5208   22.4246  -25.2173 C   0  0  0  0  0  0  0  0  0  0  0  0
   -3.5441   22.0325  -24.3295 C   0  0  0  0  0  0  0  0  0  0  0  0
   -2.2175   22.0775  -24.7014 C   0  0  0  0  0  0  0  0  0  0  0  0
   -1.2171   21.6754  -23.7946 C   0  0  0  0  0  0  0  0  0  0  0  0
    0.1029   21.7132  -24.1516 C   0  0  0  0  0  0  0  0  0  0  0  0
    0.4445   22.1592  -25.4325 C   0  0  0  0  0  0  0  0  0  0  0  0
   -0.4931   22.5473  -26.3115 N   0  0  0  0  0  0  0  0  0  0  0  0
   -1.8045   22.5037  -25.9425 C   0  0  0  0  0  0  0  0  0  0  0  0
   -2.7939   22.8996  -26.8384 C   0  0  0  0  0  0  0  0  0  0  0  0
   -4.1197   22.8599  -26.4815 C   0  0  0  0  0  0  0  0  0  0  0  0
   -6.2816   22.1273  -23.5626 C   0  0  0  0  0  0  0  0  0  0  0  0
   -5.8826   22.3985  -24.8916 O   0  0  0  0  0  0  0  0  0  0  0  0
   -5.0925   23.2568  -27.3839 O   0  0  0  0  0  0  0  0  0  0  0  0
   -4.8848   24.1024  -28.4763 C   0  0  0  0  0  0  0  0  0  0  0  0
   -5.4074   25.4798  -28.0823 C   0  0  0  0  0  0  0  0  0  0  0  0
   -6.2032   25.4174  -26.8160 C   0  0  0  0  0  0  0  0  0  0  0  0
   -5.9710   26.5283  -25.9280 N   0  0  0  0  0  0  0  0  0  0  0  0
   -6.4825   26.1665  -24.6116 C   0  0  0  0  0  0  0  0  0  0  0  0
   -5.3072   25.6885  -23.8201 C   0  0  0  0  0  0  0  0  0  0  0  0
   -4.0793   25.9878  -24.6139 C   0  0  0  0  0  0  0  0  0  0  0  0
   -4.5952   26.8577  -25.7417 C   0  0  0  0  0  0  0  0  0  0  0  0
 37 38  1  0  0  0
 38 27  1  0  0  0
 27 28  2  0  0  0
 28 29  1  0  0  0
 29 30  2  0  0  0
 30 26  1  0  0  0
 26  1  1  0  0  0
  1  2  2  0  0  0
  2  3  1  0  0  0
  3  4  2  0  0  0
  4  8  1  0  0  0
  8  9  1  0  0  0
  9 10  2  0  0  0
  9 12  1  0  0  0
 12 13  1  0  0  0
 13 14  1  0  0  0
 12 15  1  0  0  0
 15 16  2  0  0  0
 15 17  1  0  0  0
 17 19  1  0  0  0
 19 20  2  0  0  0
 20 21  1  0  0  0
 21 22  2  0  0  0
 22 23  1  0  0  0
 22 24  1  0  0  0
 24 25  2  0  0  0
  4  5  1  0  0  0
  5  6  2  0  0  0
  6  7  1  0  0  0
 30 31  1  0  0  0
 31 32  2  0  0  0
 32 33  1  0  0  0
 33 34  2  0  0  0
 34 35  1  0  0  0
 35 36  2  0  0  0
 36 39  1  0  0  0
 39 40  1  0  0  0
 40 41  1  0  0  0
 41 42  1  0  0  0
 42 43  1  0  0  0
 43 44  1  0  0  0
 44 45  1  0  0  0
 45 46  1  0  0  0
 46 47  1  0  0  0
 36 27  1  0  0  0
 47 43  1  0  0  0
 34 29  1  0  0  0
  6  1  1  0  0  0
 14 12  1  0  0  0
 25 19  1  0  0  0
  8 11  1  0  0  0
 17 18  1  0  0  0
M  END
> <minimizedAffinity>
-8.69339

> <CNNscore>
0.1907384098

> <CNNaffinity>
6.6935257912

> <CNN_VS>
1.2767124176

> <CNNaffinity_variance>
0.0610258393

$$$$
[H]c1nc2c([H])c(OC([H])([H])C([H])([H])C([H])([H])N3C([H])([H])C([H])([H])C([H])([H])C3([H])[H])c(OC([H])([H])[H])c([H])c2c(Oc2c([H])c([H])c(N([H])C(=O)C3(C(=O)N([H])c4c([H])c([H])c(F)c([H])c4[H])C([H])([H])C3([H])[H])c([H])c2F)c1[H]


 47 52  0  0  0  0  0  0  0  0999 V2000
   -0.4504   20.9995  -21.3335 C   0  0  0  0  0  0  0  0  0  0  0  0
    0.6353   20.2231  -20.9514 C   0  0  0  0  0  0  0  0  0  0  0  0
    1.3157   20.4930  -19.7536 C   0  0  0  0  0  0  0  0  0  0  0  0
    0.9476   21.5189  -18.9193 C   0  0  0  0  0  0  0  0  0  0  0  0
   -0.1512   22.2934  -19.3180 C   0  0  0  0  0  0  0  0  0  0  0  0
   -0.8139   22.0273  -20.4863 C   0  0  0  0  0  0  0  0  0  0  0  0
   -1.9017   22.7907  -20.8235 F   0  0  0  0  0  0  0  0  0  0  0  0
    1.6123   21.8592  -17.7231 N   0  0  0  0  0  0  0  0  0  0  0  0
    2.4027   22.9901  -17.5911 C   0  0  0  0  0  0  0  0  0  0  0  0
    2.5243   23.7752  -18.5992 O   0  0  0  0  0  0  0  0  0  0  0  0
    1.4476   21.1697  -16.9279 H   0  0  0  0  0  0  0  0  0  0  0  0
    3.1607   23.4389  -16.3893 C   0  0  0  0  0  0  0  0  0  0  0  0
    4.6008   22.8721  -16.4267 C   0  0  0  0  0  0  0  0  0  0  0  0
    4.2847   24.3593  -16.5041 C   0  0  0  0  0  0  0  0  0  0  0  0
    2.5468   23.2247  -15.0337 C   0  0  0  0  0  0  0  0  0  0  0  0
    1.5820   22.3970  -14.9667 O   0  0  0  0  0  0  0  0  0  0  0  0
    3.0316   23.9171  -13.9094 N   0  0  0  0  0  0  0  0  0  0  0  0
    3.8379   24.5939  -14.1113 H   0  0  0  0  0  0  0  0  0  0  0  0
    2.5919   23.8431  -12.5660 C   0  0  0  0  0  0  0  0  0  0  0  0
    2.7805   22.7655  -11.7746 C   0  0  0  0  0  0  0  0  0  0  0  0
    2.3301   22.7055  -10.4456 C   0  0  0  0  0  0  0  0  0  0  0  0
    1.6723   23.7870   -9.9329 C   0  0  0  0  0  0  0  0  0  0  0  0
    1.2126   23.7930   -8.6589 F   0  0  0  0  0  0  0  0  0  0  0  0
    1.4665   24.9075  -10.7279 C   0  0  0  0  0  0  0  0  0  0  0  0
    1.9144   24.9312  -12.0060 C   0  0  0  0  0  0  0  0  0  0  0  0
   -1.0796   20.6863  -22.5175 O   0  0  0  0  0  0  0  0  0  0  0  0
   -4.4841   21.9343  -24.3755 C   0  0  0  0  0  0  0  0  0  0  0  0
   -3.3270   21.5174  -23.7565 C   0  0  0  0  0  0  0  0  0  0  0  0
   -2.1015   21.8361  -24.3013 C   0  0  0  0  0  0  0  0  0  0  0  0
   -0.9168   21.4091  -23.6698 C   0  0  0  0  0  0  0  0  0  0  0  0
    0.3057   21.7168  -24.2009 C   0  0  0  0  0  0  0  0  0  0  0  0
    0.3612   22.4640  -25.3820 C   0  0  0  0  0  0  0  0  0  0  0  0
   -0.7556   22.8811  -25.9992 N   0  0  0  0  0  0  0  0  0  0  0  0
   -1.9669   22.5666  -25.4591 C   0  0  0  0  0  0  0  0  0  0  0  0
   -3.1383   22.9869  -26.0833 C   0  0  0  0  0  0  0  0  0  0  0  0
   -4.3663   22.6766  -25.5519 C   0  0  0  0  0  0  0  0  0  0  0  0
   -6.2716   22.3927  -22.7876 C   0  0  0  0  0  0  0  0  0  0  0  0
   -5.7544   21.6381  -23.8657 O   0  0  0  0  0  0  0  0  0  0  0  0
   -5.5227   23.1017  -26.1845 O   0  0  0  0  0  0  0  0  0  0  0  0
   -6.0491   24.3942  -26.1230 C   0  0  0  0  0  0  0  0  0  0  0  0
   -6.2434   24.8676  -27.5596 C   0  0  0  0  0  0  0  0  0  0  0  0
   -5.0434   25.6142  -28.0528 C   0  0  0  0  0  0  0  0  0  0  0  0
   -4.3105   24.9219  -29.0824 N   0  0  0  0  0  0  0  0  0  0  0  0
   -5.2147   23.9690  -29.7149 C   0  0  0  0  0  0  0  0  0  0  0  0
   -5.7242   24.6315  -30.9550 C   0  0  0  0  0  0  0  0  0  0  0  0
   -4.9362   25.8837  -31.1515 C   0  0  0  0  0  0  0  0  0  0  0  0
   -3.8254   25.7622  -30.1286 C   0  0  0  0  0  0  0  0  0  0  0  0
 37 38  1  0  0  0
 38 27  1  0  0  0
 27 28  2  0  0  0
 28 29  1  0  0  0
 29 30  2  0  0  0
 30 26  1  0  0  0
 26  1  1  0  0  0
  1  2  2  0  0  0
  2  3  1  0  0  0
  3  4  2  0  0  0
  4  8  1  0  0  0
  8  9  1  0  0  0
  9 10  2  0  0  0
  9 12  1  0  0  0
 12 13  1  0  0  0
 13 14  1  0  0  0
 12 15  1  0  0  0
 15 16  2  0  0  0
 15 17  1  0  0  0
 17 19  1  0  0  0
 19 20  2  0  0  0
 20 21  1  0  0  0
 21 22  2  0  0  0
 22 23  1  0  0  0
 22 24  1  0  0  0
 24 25  2  0  0  0
  4  5  1  0  0  0
  5  6  2  0  0  0
  6  7  1  0  0  0
 30 31  1  0  0  0
 31 32  2  0  0  0
 32 33  1  0  0  0
 33 34  2  0  0  0
 34 35  1  0  0  0
 35 36  2  0  0  0
 36 39  1  0  0  0
 39 40  1  0  0  0
 40 41  1  0  0  0
 41 42  1  0  0  0
 42 43  1  0  0  0
 43 44  1  0  0  0
 44 45  1  0  0  0
 45 46  1  0  0  0
 46 47  1  0  0  0
 36 27  1  0  0  0
 47 43  1  0  0  0
 34 29  1  0  0  0
  6  1  1  0  0  0
 14 12  1  0  0  0
 25 19  1  0  0  0
  8 11  1  0  0  0
 17 18  1  0  0  0
M  END
> <minimizedAffinity>
-8.72349

> <CNNscore>
0.1423241198

> <CNNaffinity>
6.3590250015

> <CNN_VS>
0.9050426483

> <CNNaffinity_variance>
0.2359487563

$$$$
[H]c1nc2c([H])c(OC([H])([H])C([H])([H])C([H])([H])N3C([H])([H])C([H])([H])C([H])([H])C3([H])[H])c(OC([H])([H])[H])c([H])c2c(Oc2c([H])c([H])c(N([H])C(=O)C3(C(=O)N([H])c4c([H])c([H])c(F)c([H])c4[H])C([H])([H])C3([H])[H])c([H])c2F)c1[H]


 47 52  0  0  0  0  0  0  0  0999 V2000
   -4.2937   22.9084  -20.6968 C   0  0  0  0  0  0  0  0  0  0  0  0
   -4.5178   23.9103  -21.6314 C   0  0  0  0  0  0  0  0  0  0  0  0
   -3.7241   23.9956  -22.7861 C   0  0  0  0  0  0  0  0  0  0  0  0
   -2.7069   23.1099  -23.0409 C   0  0  0  0  0  0  0  0  0  0  0  0
   -2.4935   22.1031  -22.0885 C   0  0  0  0  0  0  0  0  0  0  0  0
   -3.2697   22.0214  -20.9636 C   0  0  0  0  0  0  0  0  0  0  0  0
   -3.0462   21.0032  -20.0729 F   0  0  0  0  0  0  0  0  0  0  0  0
   -1.8558   23.1657  -24.1637 N   0  0  0  0  0  0  0  0  0  0  0  0
   -2.1222   22.5004  -25.3500 C   0  0  0  0  0  0  0  0  0  0  0  0
   -3.2024   21.8128  -25.4390 O   0  0  0  0  0  0  0  0  0  0  0  0
   -0.9907   23.7704  -24.0186 H   0  0  0  0  0  0  0  0  0  0  0  0
   -1.2932   22.4739  -26.5879 C   0  0  0  0  0  0  0  0  0  0  0  0
    0.0966   23.0969  -26.3105 C   0  0  0  0  0  0  0  0  0  0  0  0
   -0.1055   21.6351  -26.6851 C   0  0  0  0  0  0  0  0  0  0  0  0
   -1.8777   23.0360  -27.8539 C   0  0  0  0  0  0  0  0  0  0  0  0
   -1.1152   23.0647  -28.8728 O   0  0  0  0  0  0  0  0  0  0  0  0
   -3.2045   23.5020  -27.8861 N   0  0  0  0  0  0  0  0  0  0  0  0
   -3.7284   23.4321  -26.9536 H   0  0  0  0  0  0  0  0  0  0  0  0
   -3.9240   24.0522  -28.9738 C   0  0  0  0  0  0  0  0  0  0  0  0
   -3.6716   25.2703  -29.4989 C   0  0  0  0  0  0  0  0  0  0  0  0
   -4.4010   25.8050  -30.5735 C   0  0  0  0  0  0  0  0  0  0  0  0
   -5.4103   25.0572  -31.1098 C   0  0  0  0  0  0  0  0  0  0  0  0
   -6.1515   25.5149  -32.1470 F   0  0  0  0  0  0  0  0  0  0  0  0
   -5.6885   23.8008  -30.5867 C   0  0  0  0  0  0  0  0  0  0  0  0
   -4.9648   23.3160  -29.5494 C   0  0  0  0  0  0  0  0  0  0  0  0
   -5.1050   22.8735  -19.5849 O   0  0  0  0  0  0  0  0  0  0  0  0
   -6.2562   21.1593  -16.0725 C   0  0  0  0  0  0  0  0  0  0  0  0
   -5.8774   21.7348  -17.2647 C   0  0  0  0  0  0  0  0  0  0  0  0
   -6.7245   21.6888  -18.3512 C   0  0  0  0  0  0  0  0  0  0  0  0
   -6.3377   22.2761  -19.5719 C   0  0  0  0  0  0  0  0  0  0  0  0
   -7.1679   22.2358  -20.6584 C   0  0  0  0  0  0  0  0  0  0  0  0
   -8.4092   21.6025  -20.5379 C   0  0  0  0  0  0  0  0  0  0  0  0
   -8.7971   21.0372  -19.3837 N   0  0  0  0  0  0  0  0  0  0  0  0
   -7.9595   21.0843  -18.3094 C   0  0  0  0  0  0  0  0  0  0  0  0
   -8.3403   20.5029  -17.1031 C   0  0  0  0  0  0  0  0  0  0  0  0
   -7.5063   20.5410  -16.0122 C   0  0  0  0  0  0  0  0  0  0  0  0
   -5.3587   22.3443  -14.1446 C   0  0  0  0  0  0  0  0  0  0  0  0
   -5.4348   21.1767  -14.9384 O   0  0  0  0  0  0  0  0  0  0  0  0
   -7.8992   19.9581  -14.8189 O   0  0  0  0  0  0  0  0  0  0  0  0
   -8.7239   20.5536  -13.8615 C   0  0  0  0  0  0  0  0  0  0  0  0
   -9.6481   19.4648  -13.3266 C   0  0  0  0  0  0  0  0  0  0  0  0
  -10.1519   18.5888  -14.4310 C   0  0  0  0  0  0  0  0  0  0  0  0
  -11.5730   18.3543  -14.3847 N   0  0  0  0  0  0  0  0  0  0  0  0
  -12.0283   18.0815  -15.7426 C   0  0  0  0  0  0  0  0  0  0  0  0
  -12.0999   16.5934  -15.8716 C   0  0  0  0  0  0  0  0  0  0  0  0
  -11.8988   16.0143  -14.5109 C   0  0  0  0  0  0  0  0  0  0  0  0
  -11.9600   17.2252  -13.6028 C   0  0  0  0  0  0  0  0  0  0  0  0
 37 38  1  0  0  0
 38 27  1  0  0  0
 27 28  2  0  0  0
 28 29  1  0  0  0
 29 30  2  0  0  0
 30 26  1  0  0  0
 26  1  1  0  0  0
  1  2  2  0  0  0
  2  3  1  0  0  0
  3  4  2  0  0  0
  4  8  1  0  0  0
  8  9  1  0  0  0
  9 10  2  0  0  0
  9 12  1  0  0  0
 12 13  1  0  0  0
 13 14  1  0  0  0
 12 15  1  0  0  0
 15 16  2  0  0  0
 15 17  1  0  0  0
 17 19  1  0  0  0
 19 20  2  0  0  0
 20 21  1  0  0  0
 21 22  2  0  0  0
 22 23  1  0  0  0
 22 24  1  0  0  0
 24 25  2  0  0  0
  4  5  1  0  0  0
  5  6  2  0  0  0
  6  7  1  0  0  0
 30 31  1  0  0  0
 31 32  2  0  0  0
 32 33  1  0  0  0
 33 34  2  0  0  0
 34 35  1  0  0  0
 35 36  2  0  0  0
 36 39  1  0  0  0
 39 40  1  0  0  0
 40 41  1  0  0  0
 41 42  1  0  0  0
 42 43  1  0  0  0
 43 44  1  0  0  0
 44 45  1  0  0  0
 45 46  1  0  0  0
 46 47  1  0  0  0
 36 27  1  0  0  0
 47 43  1  0  0  0
 34 29  1  0  0  0
  6  1  1  0  0  0
 14 12  1  0  0  0
 25 19  1  0  0  0
  8 11  1  0  0  0
 17 18  1  0  0  0
M  END
> <minimizedAffinity>
-7.62982

> <CNNscore>
0.1094602048

> <CNNaffinity>
6.4764070511

> <CNN_VS>
0.7089088559

> <CNNaffinity_variance>
0.3914971352

$$$$
[H]c1nc2c([H])c(OC([H])([H])C([H])([H])C([H])([H])N3C([H])([H])C([H])([H])C([H])([H])C3([H])[H])c(OC([H])([H])[H])c([H])c2c(Oc2c([H])c([H])c(N([H])C(=O)C3(C(=O)N([H])c4c([H])c([H])c(F)c([H])c4[H])C([H])([H])C3([H])[H])c([H])c2F)c1[H]


 47 52  0  0  0  0  0  0  0  0999 V2000
   -6.5675   23.3534  -18.7173 C   0  0  0  0  0  0  0  0  0  0  0  0
   -6.2609   22.4030  -19.6818 C   0  0  0  0  0  0  0  0  0  0  0  0
   -4.9726   21.8496  -19.7501 C   0  0  0  0  0  0  0  0  0  0  0  0
   -3.9731   22.2159  -18.8835 C   0  0  0  0  0  0  0  0  0  0  0  0
   -4.2982   23.1757  -17.9144 C   0  0  0  0  0  0  0  0  0  0  0  0
   -5.5558   23.7131  -17.8492 C   0  0  0  0  0  0  0  0  0  0  0  0
   -5.8394   24.6268  -16.8671 F   0  0  0  0  0  0  0  0  0  0  0  0
   -2.6532   21.7214  -18.9249 N   0  0  0  0  0  0  0  0  0  0  0  0
   -1.6577   22.2840  -19.7082 C   0  0  0  0  0  0  0  0  0  0  0  0
   -1.9441   23.3140  -20.4187 O   0  0  0  0  0  0  0  0  0  0  0  0
   -2.4893   20.8781  -18.2949 H   0  0  0  0  0  0  0  0  0  0  0  0
   -0.2418   21.8399  -19.8431 C   0  0  0  0  0  0  0  0  0  0  0  0
   -0.1849   20.3130  -20.0921 C   0  0  0  0  0  0  0  0  0  0  0  0
    0.2781   21.3448  -21.1113 C   0  0  0  0  0  0  0  0  0  0  0  0
    0.7381   22.2346  -18.7733 C   0  0  0  0  0  0  0  0  0  0  0  0
    0.2888   22.3079  -17.5845 O   0  0  0  0  0  0  0  0  0  0  0  0
    2.0803   22.5055  -19.0949 N   0  0  0  0  0  0  0  0  0  0  0  0
    2.3194   22.4200  -20.1362 H   0  0  0  0  0  0  0  0  0  0  0  0
    3.1392   22.8805  -18.2336 C   0  0  0  0  0  0  0  0  0  0  0  0
    4.1276   22.0428  -17.8535 C   0  0  0  0  0  0  0  0  0  0  0  0
    5.1668   22.4288  -16.9911 C   0  0  0  0  0  0  0  0  0  0  0  0
    5.1759   23.7098  -16.5173 C   0  0  0  0  0  0  0  0  0  0  0  0
    6.1496   24.1450  -15.6823 F   0  0  0  0  0  0  0  0  0  0  0  0
    4.1698   24.5901  -16.8946 C   0  0  0  0  0  0  0  0  0  0  0  0
    3.1824   24.1840  -17.7280 C   0  0  0  0  0  0  0  0  0  0  0  0
   -7.8481   23.8591  -18.6975 O   0  0  0  0  0  0  0  0  0  0  0  0
  -11.7987   23.1185  -19.3642 C   0  0  0  0  0  0  0  0  0  0  0  0
  -10.4633   23.3758  -19.1486 C   0  0  0  0  0  0  0  0  0  0  0  0
   -9.7855   24.2398  -19.9818 C   0  0  0  0  0  0  0  0  0  0  0  0
   -8.4189   24.5030  -19.7634 C   0  0  0  0  0  0  0  0  0  0  0  0
   -7.7339   25.3568  -20.5839 C   0  0  0  0  0  0  0  0  0  0  0  0
   -8.4129   25.9661  -21.6441 C   0  0  0  0  0  0  0  0  0  0  0  0
   -9.7150   25.7294  -21.8694 N   0  0  0  0  0  0  0  0  0  0  0  0
  -10.3848   24.8759  -21.0443 C   0  0  0  0  0  0  0  0  0  0  0  0
  -11.7350   24.6140  -21.2602 C   0  0  0  0  0  0  0  0  0  0  0  0
  -12.4231   23.7552  -20.4381 C   0  0  0  0  0  0  0  0  0  0  0  0
  -12.2267   22.1480  -17.1728 C   0  0  0  0  0  0  0  0  0  0  0  0
  -12.5347   22.2494  -18.5490 O   0  0  0  0  0  0  0  0  0  0  0  0
  -13.7660   23.5047  -20.6659 O   0  0  0  0  0  0  0  0  0  0  0  0
  -14.6954   24.4393  -21.1284 C   0  0  0  0  0  0  0  0  0  0  0  0
  -14.6506   25.6267  -20.1725 C   0  0  0  0  0  0  0  0  0  0  0  0
  -15.1127   26.8824  -20.8436 C   0  0  0  0  0  0  0  0  0  0  0  0
  -14.4472   27.1528  -22.0928 N   0  0  0  0  0  0  0  0  0  0  0  0
  -15.3128   28.0173  -22.8858 C   0  0  0  0  0  0  0  0  0  0  0  0
  -14.8190   29.4133  -22.6766 C   0  0  0  0  0  0  0  0  0  0  0  0
  -13.5258   29.3263  -21.9368 C   0  0  0  0  0  0  0  0  0  0  0  0
  -13.2067   27.8456  -21.9631 C   0  0  0  0  0  0  0  0  0  0  0  0
 37 38  1  0  0  0
 38 27  1  0  0  0
 27 28  2  0  0  0
 28 29  1  0  0  0
 29 30  2  0  0  0
 30 26  1  0  0  0
 26  1  1  0  0  0
  1  2  2  0  0  0
  2  3  1  0  0  0
  3  4  2  0  0  0
  4  8  1  0  0  0
  8  9  1  0  0  0
  9 10  2  0  0  0
  9 12  1  0  0  0
 12 13  1  0  0  0
 13 14  1  0  0  0
 12 15  1  0  0  0
 15 16  2  0  0  0
 15 17  1  0  0  0
 17 19  1  0  0  0
 19 20  2  0  0  0
 20 21  1  0  0  0
 21 22  2  0  0  0
 22 23  1  0  0  0
 22 24  1  0  0  0
 24 25  2  0  0  0
  4  5  1  0  0  0
  5  6  2  0  0  0
  6  7  1  0  0  0
 30 31  1  0  0  0
 31 32  2  0  0  0
 32 33  1  0  0  0
 33 34  2  0  0  0
 34 35  1  0  0  0
 35 36  2  0  0  0
 36 39  1  0  0  0
 39 40  1  0  0  0
 40 41  1  0  0  0
 41 42  1  0  0  0
 42 43  1  0  0  0
 43 44  1  0  0  0
 44 45  1  0  0  0
 45 46  1  0  0  0
 46 47  1  0  0  0
 36 27  1  0  0  0
 47 43  1  0  0  0
 34 29  1  0  0  0
  6  1  1  0  0  0
 14 12  1  0  0  0
 25 19  1  0  0  0
  8 11  1  0  0  0
 17 18  1  0  0  0
M  END
> <minimizedAffinity>
-7.20159

> <CNNscore>
0.0932120979

> <CNNaffinity>
5.6268310547

> <CNN_VS>
0.5244887471

> <CNNaffinity_variance>
0.3004935980

$$$$
[H]c1nc2c([H])c(OC([H])([H])C([H])([H])C([H])([H])N3C([H])([H])C([H])([H])C([H])([H])C3([H])[H])c(OC([H])([H])[H])c([H])c2c(Oc2c([H])c([H])c(N([H])C(=O)C3(C(=O)N([H])c4c([H])c([H])c(F)c([H])c4[H])C([H])([H])C3([H])[H])c([H])c2F)c1[H]


 47 52  0  0  0  0  0  0  0  0999 V2000
   -9.9491   24.2569  -19.8482 C   0  0  0  0  0  0  0  0  0  0  0  0
  -10.2555   24.8459  -21.0675 C   0  0  0  0  0  0  0  0  0  0  0  0
   -9.3407   24.7953  -22.1311 C   0  0  0  0  0  0  0  0  0  0  0  0
   -8.1222   24.1736  -22.0180 C   0  0  0  0  0  0  0  0  0  0  0  0
   -7.8276   23.5825  -20.7812 C   0  0  0  0  0  0  0  0  0  0  0  0
   -8.7220   23.6323  -19.7456 C   0  0  0  0  0  0  0  0  0  0  0  0
   -8.4061   23.0153  -18.5627 F   0  0  0  0  0  0  0  0  0  0  0  0
   -7.1501   24.1203  -23.0381 N   0  0  0  0  0  0  0  0  0  0  0  0
   -6.6170   22.9331  -23.5152 C   0  0  0  0  0  0  0  0  0  0  0  0
   -7.0381   21.8274  -23.0176 O   0  0  0  0  0  0  0  0  0  0  0  0
   -6.8658   25.0763  -23.4125 H   0  0  0  0  0  0  0  0  0  0  0  0
   -5.5806   22.7570  -24.5711 C   0  0  0  0  0  0  0  0  0  0  0  0
   -4.1662   22.8718  -23.9522 C   0  0  0  0  0  0  0  0  0  0  0  0
   -4.7025   21.5940  -24.5825 C   0  0  0  0  0  0  0  0  0  0  0  0
   -5.6781   23.5922  -25.8174 C   0  0  0  0  0  0  0  0  0  0  0  0
   -6.4625   24.5939  -25.7751 O   0  0  0  0  0  0  0  0  0  0  0  0
   -4.9300   23.2625  -26.9619 N   0  0  0  0  0  0  0  0  0  0  0  0
   -4.3215   22.3856  -26.8642 H   0  0  0  0  0  0  0  0  0  0  0  0
   -4.8849   23.9252  -28.2119 C   0  0  0  0  0  0  0  0  0  0  0  0
   -4.1557   25.0376  -28.4439 C   0  0  0  0  0  0  0  0  0  0  0  0
   -4.1289   25.6877  -29.6886 C   0  0  0  0  0  0  0  0  0  0  0  0
   -4.8744   25.1692  -30.7087 C   0  0  0  0  0  0  0  0  0  0  0  0
   -4.8923   25.7482  -31.9331 F   0  0  0  0  0  0  0  0  0  0  0  0
   -5.6326   24.0252  -30.4943 C   0  0  0  0  0  0  0  0  0  0  0  0
   -5.6354   23.4238  -29.2806 C   0  0  0  0  0  0  0  0  0  0  0  0
  -10.8860   24.3367  -18.8424 O   0  0  0  0  0  0  0  0  0  0  0  0
  -11.7068   20.5677  -17.5304 C   0  0  0  0  0  0  0  0  0  0  0  0
  -11.4408   21.8425  -17.9775 C   0  0  0  0  0  0  0  0  0  0  0  0
  -12.4505   22.6048  -18.5249 C   0  0  0  0  0  0  0  0  0  0  0  0
  -12.1796   23.9088  -18.9840 C   0  0  0  0  0  0  0  0  0  0  0  0
  -13.1720   24.6751  -19.5310 C   0  0  0  0  0  0  0  0  0  0  0  0
  -14.4622   24.1433  -19.6265 C   0  0  0  0  0  0  0  0  0  0  0  0
  -14.7416   22.9033  -19.1946 N   0  0  0  0  0  0  0  0  0  0  0  0
  -13.7429   22.1507  -18.6523 C   0  0  0  0  0  0  0  0  0  0  0  0
  -14.0093   20.8614  -18.1997 C   0  0  0  0  0  0  0  0  0  0  0  0
  -13.0129   20.0904  -17.6522 C   0  0  0  0  0  0  0  0  0  0  0  0
   -9.3592   19.9710  -17.2863 C   0  0  0  0  0  0  0  0  0  0  0  0
  -10.7187   19.7506  -16.9668 O   0  0  0  0  0  0  0  0  0  0  0  0
  -13.2935   18.8095  -17.2065 O   0  0  0  0  0  0  0  0  0  0  0  0
  -13.6330   17.7266  -18.0210 C   0  0  0  0  0  0  0  0  0  0  0  0
  -13.3480   16.4588  -17.2228 C   0  0  0  0  0  0  0  0  0  0  0  0
  -12.0367   16.5507  -16.5068 C   0  0  0  0  0  0  0  0  0  0  0  0
  -11.9297   15.6670  -15.3736 N   0  0  0  0  0  0  0  0  0  0  0  0
  -10.5560   15.1830  -15.3086 C   0  0  0  0  0  0  0  0  0  0  0  0
   -9.8526   16.0455  -14.3098 C   0  0  0  0  0  0  0  0  0  0  0  0
  -10.8856   16.8849  -13.6346 C   0  0  0  0  0  0  0  0  0  0  0  0
  -12.1916   16.2862  -14.1151 C   0  0  0  0  0  0  0  0  0  0  0  0
 37 38  1  0  0  0
 38 27  1  0  0  0
 27 28  2  0  0  0
 28 29  1  0  0  0
 29 30  2  0  0  0
 30 26  1  0  0  0
 26  1  1  0  0  0
  1  2  2  0  0  0
  2  3  1  0  0  0
  3  4  2  0  0  0
  4  8  1  0  0  0
  8  9  1  0  0  0
  9 10  2  0  0  0
  9 12  1  0  0  0
 12 13  1  0  0  0
 13 14  1  0  0  0
 12 15  1  0  0  0
 15 16  2  0  0  0
 15 17  1  0  0  0
 17 19  1  0  0  0
 19 20  2  0  0  0
 20 21  1  0  0  0
 21 22  2  0  0  0
 22 23  1  0  0  0
 22 24  1  0  0  0
 24 25  2  0  0  0
  4  5  1  0  0  0
  5  6  2  0  0  0
  6  7  1  0  0  0
 30 31  1  0  0  0
 31 32  2  0  0  0
 32 33  1  0  0  0
 33 34  2  0  0  0
 34 35  1  0  0  0
 35 36  2  0  0  0
 36 39  1  0  0  0
 39 40  1  0  0  0
 40 41  1  0  0  0
 41 42  1  0  0  0
 42 43  1  0  0  0
 43 44  1  0  0  0
 44 45  1  0  0  0
 45 46  1  0  0  0
 46 47  1  0  0  0
 36 27  1  0  0  0
 47 43  1  0  0  0
 34 29  1  0  0  0
  6  1  1  0  0  0
 14 12  1  0  0  0
 25 19  1  0  0  0
  8 11  1  0  0  0
 17 18  1  0  0  0
M  END
> <minimizedAffinity>
-8.61141

> <CNNscore>
0.0816101655

> <CNNaffinity>
5.9795851707

> <CNN_VS>
0.4879949391

> <CNNaffinity_variance>
0.3438055515

$$$$
[H]c1nc2c([H])c(OC([H])([H])C([H])([H])C([H])([H])N3C([H])([H])C([H])([H])C([H])([H])C3([H])[H])c(OC([H])([H])[H])c([H])c2c(Oc2c([H])c([H])c(N([H])C(=O)C3(C(=O)N([H])c4c([H])c([H])c(F)c([H])c4[H])C([H])([H])C3([H])[H])c([H])c2F)c1[H]


 47 52  0  0  0  0  0  0  0  0999 V2000
    0.1048   21.7363  -20.2532 C   0  0  0  0  0  0  0  0  0  0  0  0
    0.0543   20.8276  -21.3017 C   0  0  0  0  0  0  0  0  0  0  0  0
   -0.8444   21.0167  -22.3635 C   0  0  0  0  0  0  0  0  0  0  0  0
   -1.7007   22.0882  -22.4141 C   0  0  0  0  0  0  0  0  0  0  0  0
   -1.6372   22.9978  -21.3488 C   0  0  0  0  0  0  0  0  0  0  0  0
   -0.7590   22.8117  -20.3149 C   0  0  0  0  0  0  0  0  0  0  0  0
   -0.7090   23.7413  -19.3083 F   0  0  0  0  0  0  0  0  0  0  0  0
   -2.6473   22.3123  -23.4349 N   0  0  0  0  0  0  0  0  0  0  0  0
   -4.0161   22.2568  -23.2243 C   0  0  0  0  0  0  0  0  0  0  0  0
   -4.4454   22.0055  -22.0410 O   0  0  0  0  0  0  0  0  0  0  0  0
   -2.2141   22.5330  -24.3829 H   0  0  0  0  0  0  0  0  0  0  0  0
   -5.1025   22.4589  -24.2238 C   0  0  0  0  0  0  0  0  0  0  0  0
   -6.0651   21.2465  -24.2153 C   0  0  0  0  0  0  0  0  0  0  0  0
   -6.4860   22.6519  -23.8086 C   0  0  0  0  0  0  0  0  0  0  0  0
   -4.7218   22.8176  -25.6333 C   0  0  0  0  0  0  0  0  0  0  0  0
   -3.6419   22.3132  -26.0805 O   0  0  0  0  0  0  0  0  0  0  0  0
   -5.5348   23.6713  -26.4006 N   0  0  0  0  0  0  0  0  0  0  0  0
   -6.4070   24.0356  -25.8953 H   0  0  0  0  0  0  0  0  0  0  0  0
   -5.3471   24.1125  -27.7324 C   0  0  0  0  0  0  0  0  0  0  0  0
   -5.6906   23.3859  -28.8174 C   0  0  0  0  0  0  0  0  0  0  0  0
   -5.4897   23.8355  -30.1327 C   0  0  0  0  0  0  0  0  0  0  0  0
   -4.9214   25.0632  -30.3202 C   0  0  0  0  0  0  0  0  0  0  0  0
   -4.7005   25.5548  -31.5628 F   0  0  0  0  0  0  0  0  0  0  0  0
   -4.5599   25.8293  -29.2193 C   0  0  0  0  0  0  0  0  0  0  0  0
   -4.7680   25.3645  -27.9642 C   0  0  0  0  0  0  0  0  0  0  0  0
    1.0075   21.5000  -19.2408 O   0  0  0  0  0  0  0  0  0  0  0  0
    2.8568   23.3145  -16.0963 C   0  0  0  0  0  0  0  0  0  0  0  0
    2.2259   22.6942  -17.1513 C   0  0  0  0  0  0  0  0  0  0  0  0
    1.2867   21.7140  -16.9118 C   0  0  0  0  0  0  0  0  0  0  0  0
    0.6413   21.0775  -17.9902 C   0  0  0  0  0  0  0  0  0  0  0  0
   -0.2911   20.1019  -17.7665 C   0  0  0  0  0  0  0  0  0  0  0  0
   -0.5951   19.7464  -16.4483 C   0  0  0  0  0  0  0  0  0  0  0  0
    0.0079   20.3408  -15.4066 N   0  0  0  0  0  0  0  0  0  0  0  0
    0.9355   21.3108  -15.6442 C   0  0  0  0  0  0  0  0  0  0  0  0
    1.5749   21.9394  -14.5791 C   0  0  0  0  0  0  0  0  0  0  0  0
    2.5128   22.9176  -14.8029 C   0  0  0  0  0  0  0  0  0  0  0  0
    5.1245   23.9660  -16.6960 C   0  0  0  0  0  0  0  0  0  0  0  0
    3.8183   24.3155  -16.2828 O   0  0  0  0  0  0  0  0  0  0  0  0
    3.1404   23.5337  -13.7329 O   0  0  0  0  0  0  0  0  0  0  0  0
    2.5387   23.8396  -12.5099 C   0  0  0  0  0  0  0  0  0  0  0  0
    3.0987   22.8653  -11.4789 C   0  0  0  0  0  0  0  0  0  0  0  0
    4.3778   23.3730  -10.8900 C   0  0  0  0  0  0  0  0  0  0  0  0
    4.4187   23.3146   -9.4507 N   0  0  0  0  0  0  0  0  0  0  0  0
    5.6164   24.0168   -9.0058 C   0  0  0  0  0  0  0  0  0  0  0  0
    5.1797   25.3964   -8.6284 C   0  0  0  0  0  0  0  0  0  0  0  0
    3.6875   25.4158   -8.6458 C   0  0  0  0  0  0  0  0  0  0  0  0
    3.3204   23.9544   -8.8023 C   0  0  0  0  0  0  0  0  0  0  0  0
 37 38  1  0  0  0
 38 27  1  0  0  0
 27 28  2  0  0  0
 28 29  1  0  0  0
 29 30  2  0  0  0
 30 26  1  0  0  0
 26  1  1  0  0  0
  1  2  2  0  0  0
  2  3  1  0  0  0
  3  4  2  0  0  0
  4  8  1  0  0  0
  8  9  1  0  0  0
  9 10  2  0  0  0
  9 12  1  0  0  0
 12 13  1  0  0  0
 13 14  1  0  0  0
 12 15  1  0  0  0
 15 16  2  0  0  0
 15 17  1  0  0  0
 17 19  1  0  0  0
 19 20  2  0  0  0
 20 21  1  0  0  0
 21 22  2  0  0  0
 22 23  1  0  0  0
 22 24  1  0  0  0
 24 25  2  0  0  0
  4  5  1  0  0  0
  5  6  2  0  0  0
  6  7  1  0  0  0
 30 31  1  0  0  0
 31 32  2  0  0  0
 32 33  1  0  0  0
 33 34  2  0  0  0
 34 35  1  0  0  0
 35 36  2  0  0  0
 36 39  1  0  0  0
 39 40  1  0  0  0
 40 41  1  0  0  0
 41 42  1  0  0  0
 42 43  1  0  0  0
 43 44  1  0  0  0
 44 45  1  0  0  0
 45 46  1  0  0  0
 46 47  1  0  0  0
 36 27  1  0  0  0
 47 43  1  0  0  0
 34 29  1  0  0  0
  6  1  1  0  0  0
 14 12  1  0  0  0
 25 19  1  0  0  0
  8 11  1  0  0  0
 17 18  1  0  0  0
M  END
> <minimizedAffinity>
-8.01468

> <CNNscore>
0.0771827549

> <CNNaffinity>
5.9254651070

> <CNN_VS>
0.4573437274

> <CNNaffinity_variance>
0.0798525736

$$$$
[H]c1nc2c([H])c(OC([H])([H])C([H])([H])C([H])([H])N3C([H])([H])C([H])([H])C([H])([H])C3([H])[H])c(OC([H])([H])[H])c([H])c2c(Oc2c([H])c([H])c(N([H])C(=O)C3(C(=O)N([H])c4c([H])c([H])c(F)c([H])c4[H])C([H])([H])C3([H])[H])c([H])c2F)c1[H]


 47 52  0  0  0  0  0  0  0  0999 V2000
   -8.2106   22.6914  -19.9133 C   0  0  0  0  0  0  0  0  0  0  0  0
   -8.1938   21.6472  -20.8281 C   0  0  0  0  0  0  0  0  0  0  0  0
   -7.4580   21.7569  -22.0186 C   0  0  0  0  0  0  0  0  0  0  0  0
   -6.7347   22.8812  -22.3297 C   0  0  0  0  0  0  0  0  0  0  0  0
   -6.7604   23.9267  -21.3956 C   0  0  0  0  0  0  0  0  0  0  0  0
   -7.4779   23.8168  -20.2346 C   0  0  0  0  0  0  0  0  0  0  0  0
   -7.4515   24.8511  -19.3351 F   0  0  0  0  0  0  0  0  0  0  0  0
   -6.0059   23.0627  -23.5231 N   0  0  0  0  0  0  0  0  0  0  0  0
   -4.8693   22.3332  -23.8349 C   0  0  0  0  0  0  0  0  0  0  0  0
   -4.4680   21.4382  -23.0071 O   0  0  0  0  0  0  0  0  0  0  0  0
   -6.4115   23.8089  -24.1661 H   0  0  0  0  0  0  0  0  0  0  0  0
   -4.0151   22.4491  -25.0503 C   0  0  0  0  0  0  0  0  0  0  0  0
   -2.5552   22.7677  -24.6456 C   0  0  0  0  0  0  0  0  0  0  0  0
   -2.9692   21.4752  -25.3354 C   0  0  0  0  0  0  0  0  0  0  0  0
   -4.4644   23.3615  -26.1576 C   0  0  0  0  0  0  0  0  0  0  0  0
   -5.1164   24.3996  -25.8147 O   0  0  0  0  0  0  0  0  0  0  0  0
   -4.1674   23.0611  -27.4992 N   0  0  0  0  0  0  0  0  0  0  0  0
   -3.6249   22.1484  -27.6463 H   0  0  0  0  0  0  0  0  0  0  0  0
   -4.4961   23.7939  -28.6648 C   0  0  0  0  0  0  0  0  0  0  0  0
   -5.4943   23.4523  -29.5074 C   0  0  0  0  0  0  0  0  0  0  0  0
   -5.8020   24.1862  -30.6647 C   0  0  0  0  0  0  0  0  0  0  0  0
   -5.0567   25.2951  -30.9482 C   0  0  0  0  0  0  0  0  0  0  0  0
   -5.3018   26.0462  -32.0483 F   0  0  0  0  0  0  0  0  0  0  0  0
   -4.0246   25.6667  -30.0959 C   0  0  0  0  0  0  0  0  0  0  0  0
   -3.7552   24.9354  -28.9882 C   0  0  0  0  0  0  0  0  0  0  0  0
   -8.9481   22.5258  -18.7625 O   0  0  0  0  0  0  0  0  0  0  0  0
  -11.5217   20.1131  -16.7240 C   0  0  0  0  0  0  0  0  0  0  0  0
  -10.6435   20.9264  -17.4046 C   0  0  0  0  0  0  0  0  0  0  0  0
   -9.3560   21.0903  -16.9402 C   0  0  0  0  0  0  0  0  0  0  0  0
   -8.4568   21.9232  -17.6346 C   0  0  0  0  0  0  0  0  0  0  0  0
   -7.1770   22.0961  -17.1835 C   0  0  0  0  0  0  0  0  0  0  0  0
   -6.7742   21.4310  -16.0208 C   0  0  0  0  0  0  0  0  0  0  0  0
   -7.6151   20.6325  -15.3445 N   0  0  0  0  0  0  0  0  0  0  0  0
   -8.8876   20.4700  -15.8051 C   0  0  0  0  0  0  0  0  0  0  0  0
   -9.7774   19.6482  -15.1187 C   0  0  0  0  0  0  0  0  0  0  0  0
  -11.0633   19.4758  -15.5697 C   0  0  0  0  0  0  0  0  0  0  0  0
  -13.4449   20.8441  -18.0254 C   0  0  0  0  0  0  0  0  0  0  0  0
  -12.8402   19.9118  -17.1513 O   0  0  0  0  0  0  0  0  0  0  0  0
  -11.9370   18.6551  -14.8759 O   0  0  0  0  0  0  0  0  0  0  0  0
  -11.6648   17.3475  -14.4666 C   0  0  0  0  0  0  0  0  0  0  0  0
  -11.0300   17.4341  -13.0827 C   0  0  0  0  0  0  0  0  0  0  0  0
  -11.9905   17.0076  -12.0166 C   0  0  0  0  0  0  0  0  0  0  0  0
  -11.4153   16.9729  -10.6959 N   0  0  0  0  0  0  0  0  0  0  0  0
  -10.6639   18.2067  -10.4998 C   0  0  0  0  0  0  0  0  0  0  0  0
  -11.5645   19.1329   -9.7465 C   0  0  0  0  0  0  0  0  0  0  0  0
  -12.7570   18.3467   -9.3138 C   0  0  0  0  0  0  0  0  0  0  0  0
  -12.3703   16.9181   -9.6371 C   0  0  0  0  0  0  0  0  0  0  0  0
 37 38  1  0  0  0
 38 27  1  0  0  0
 27 28  2  0  0  0
 28 29  1  0  0  0
 29 30  2  0  0  0
 30 26  1  0  0  0
 26  1  1  0  0  0
  1  2  2  0  0  0
  2  3  1  0  0  0
  3  4  2  0  0  0
  4  8  1  0  0  0
  8  9  1  0  0  0
  9 10  2  0  0  0
  9 12  1  0  0  0
 12 13  1  0  0  0
 13 14  1  0  0  0
 12 15  1  0  0  0
 15 16  2  0  0  0
 15 17  1  0  0  0
 17 19  1  0  0  0
 19 20  2  0  0  0
 20 21  1  0  0  0
 21 22  2  0  0  0
 22 23  1  0  0  0
 22 24  1  0  0  0
 24 25  2  0  0  0
  4  5  1  0  0  0
  5  6  2  0  0  0
  6  7  1  0  0  0
 30 31  1  0  0  0
 31 32  2  0  0  0
 32 33  1  0  0  0
 33 34  2  0  0  0
 34 35  1  0  0  0
 35 36  2  0  0  0
 36 39  1  0  0  0
 39 40  1  0  0  0
 40 41  1  0  0  0
 41 42  1  0  0  0
 42 43  1  0  0  0
 43 44  1  0  0  0
 44 45  1  0  0  0
 45 46  1  0  0  0
 46 47  1  0  0  0
 36 27  1  0  0  0
 47 43  1  0  0  0
 34 29  1  0  0  0
  6  1  1  0  0  0
 14 12  1  0  0  0
 25 19  1  0  0  0
  8 11  1  0  0  0
 17 18  1  0  0  0
M  END
> <minimizedAffinity>
-8.21143

> <CNNscore>
0.0731405839

> <CNNaffinity>
5.7372651100

> <CNN_VS>
0.4196269214

> <CNNaffinity_variance>
0.0893020779

$$$$
[H]c1nc2c([H])c(OC([H])([H])C([H])([H])C([H])([H])N3C([H])([H])C([H])([H])C([H])([H])C3([H])[H])c(OC([H])([H])[H])c([H])c2c(Oc2c([H])c([H])c(N([H])C(=O)C3(C(=O)N([H])c4c([H])c([H])c(F)c([H])c4[H])C([H])([H])C3([H])[H])c([H])c2F)c1[H]


 47 52  0  0  0  0  0  0  0  0999 V2000
  -10.0552   24.3004  -20.0897 C   0  0  0  0  0  0  0  0  0  0  0  0
   -9.2554   23.3247  -20.6693 C   0  0  0  0  0  0  0  0  0  0  0  0
   -8.5309   23.6022  -21.8391 C   0  0  0  0  0  0  0  0  0  0  0  0
   -8.5786   24.8280  -22.4549 C   0  0  0  0  0  0  0  0  0  0  0  0
   -9.3895   25.8033  -21.8572 C   0  0  0  0  0  0  0  0  0  0  0  0
  -10.0944   25.5306  -20.7155 C   0  0  0  0  0  0  0  0  0  0  0  0
  -10.8518   26.5224  -20.1476 F   0  0  0  0  0  0  0  0  0  0  0  0
   -7.9016   25.1543  -23.6480 N   0  0  0  0  0  0  0  0  0  0  0  0
   -6.5357   25.3827  -23.7058 C   0  0  0  0  0  0  0  0  0  0  0  0
   -5.8494   25.2771  -22.6262 O   0  0  0  0  0  0  0  0  0  0  0  0
   -8.5355   25.2047  -24.5028 H   0  0  0  0  0  0  0  0  0  0  0  0
   -5.7208   25.7474  -24.8987 C   0  0  0  0  0  0  0  0  0  0  0  0
   -5.5559   27.2846  -24.9802 C   0  0  0  0  0  0  0  0  0  0  0  0
   -4.3919   26.3287  -24.7579 C   0  0  0  0  0  0  0  0  0  0  0  0
   -6.1200   25.1902  -26.2368 C   0  0  0  0  0  0  0  0  0  0  0  0
   -7.3547   24.9284  -26.4025 O   0  0  0  0  0  0  0  0  0  0  0  0
   -5.1580   24.9767  -27.2405 N   0  0  0  0  0  0  0  0  0  0  0  0
   -4.1538   25.2267  -26.9615 H   0  0  0  0  0  0  0  0  0  0  0  0
   -5.3415   24.4722  -28.5503 C   0  0  0  0  0  0  0  0  0  0  0  0
   -5.2921   23.1591  -28.8607 C   0  0  0  0  0  0  0  0  0  0  0  0
   -5.4681   22.6759  -30.1677 C   0  0  0  0  0  0  0  0  0  0  0  0
   -5.6997   23.5767  -31.1679 C   0  0  0  0  0  0  0  0  0  0  0  0
   -5.8777   23.1761  -32.4494 F   0  0  0  0  0  0  0  0  0  0  0  0
   -5.7552   24.9330  -30.8729 C   0  0  0  0  0  0  0  0  0  0  0  0
   -5.5807   25.3643  -29.6009 C   0  0  0  0  0  0  0  0  0  0  0  0
  -10.7408   23.9712  -18.9419 O   0  0  0  0  0  0  0  0  0  0  0  0
  -11.3787   20.3179  -17.2547 C   0  0  0  0  0  0  0  0  0  0  0  0
  -11.1749   21.5532  -17.8277 C   0  0  0  0  0  0  0  0  0  0  0  0
  -12.2399   22.2520  -18.3543 C   0  0  0  0  0  0  0  0  0  0  0  0
  -12.0327   23.5154  -18.9422 C   0  0  0  0  0  0  0  0  0  0  0  0
  -13.0806   24.2186  -19.4702 C   0  0  0  0  0  0  0  0  0  0  0  0
  -14.3632   23.6632  -19.4163 C   0  0  0  0  0  0  0  0  0  0  0  0
  -14.5824   22.4612  -18.8601 N   0  0  0  0  0  0  0  0  0  0  0  0
  -13.5288   21.7714  -18.3385 C   0  0  0  0  0  0  0  0  0  0  0  0
  -13.7325   20.5222  -17.7587 C   0  0  0  0  0  0  0  0  0  0  0  0
  -12.6805   19.8145  -17.2301 C   0  0  0  0  0  0  0  0  0  0  0  0
   -9.7064   19.9990  -15.5145 C   0  0  0  0  0  0  0  0  0  0  0  0
  -10.3329   19.5655  -16.7055 O   0  0  0  0  0  0  0  0  0  0  0  0
  -12.8990   18.5728  -16.6567 O   0  0  0  0  0  0  0  0  0  0  0  0
  -12.3870   17.3625  -17.1304 C   0  0  0  0  0  0  0  0  0  0  0  0
  -13.2188   16.9696  -18.3468 C   0  0  0  0  0  0  0  0  0  0  0  0
  -13.2309   15.4853  -18.5404 C   0  0  0  0  0  0  0  0  0  0  0  0
  -14.5528   14.9119  -18.5570 N   0  0  0  0  0  0  0  0  0  0  0  0
  -14.4135   13.4621  -18.6219 C   0  0  0  0  0  0  0  0  0  0  0  0
  -14.5509   12.9627  -17.2190 C   0  0  0  0  0  0  0  0  0  0  0  0
  -14.9937   14.1111  -16.3748 C   0  0  0  0  0  0  0  0  0  0  0  0
  -15.3290   15.1835  -17.3909 C   0  0  0  0  0  0  0  0  0  0  0  0
 37 38  1  0  0  0
 38 27  1  0  0  0
 27 28  2  0  0  0
 28 29  1  0  0  0
 29 30  2  0  0  0
 30 26  1  0  0  0
 26  1  1  0  0  0
  1  2  2  0  0  0
  2  3  1  0  0  0
  3  4  2  0  0  0
  4  8  1  0  0  0
  8  9  1  0  0  0
  9 10  2  0  0  0
  9 12  1  0  0  0
 12 13  1  0  0  0
 13 14  1  0  0  0
 12 15  1  0  0  0
 15 16  2  0  0  0
 15 17  1  0  0  0
 17 19  1  0  0  0
 19 20  2  0  0  0
 20 21  1  0  0  0
 21 22  2  0  0  0
 22 23  1  0  0  0
 22 24  1  0  0  0
 24 25  2  0  0  0
  4  5  1  0  0  0
  5  6  2  0  0  0
  6  7  1  0  0  0
 30 31  1  0  0  0
 31 32  2  0  0  0
 32 33  1  0  0  0
 33 34  2  0  0  0
 34 35  1  0  0  0
 35 36  2  0  0  0
 36 39  1  0  0  0
 39 40  1  0  0  0
 40 41  1  0  0  0
 41 42  1  0  0  0
 42 43  1  0  0  0
 43 44  1  0  0  0
 44 45  1  0  0  0
 45 46  1  0  0  0
 46 47  1  0  0  0
 36 27  1  0  0  0
 47 43  1  0  0  0
 34 29  1  0  0  0
  6  1  1  0  0  0
 14 12  1  0  0  0
 25 19  1  0  0  0
  8 11  1  0  0  0
 17 18  1  0  0  0
M  END
> <minimizedAffinity>
-8.58909

> <CNNscore>
0.0708485618

> <CNNaffinity>
5.9261751175

> <CNN_VS>
0.4198609889

> <CNNaffinity_variance>
0.1608893275

$$$$
[H]c1nc2c([H])c(OC([H])([H])C([H])([H])C([H])([H])N3C([H])([H])C([H])([H])C([H])([H])C3([H])[H])c(OC([H])([H])[H])c([H])c2c(Oc2c([H])c([H])c(N([H])C(=O)C3(C(=O)N([H])c4c([H])c([H])c(F)c([H])c4[H])C([H])([H])C3([H])[H])c([H])c2F)c1[H]


 47 52  0  0  0  0  0  0  0  0999 V2000
   -7.8020   23.0487  -19.7409 C   0  0  0  0  0  0  0  0  0  0  0  0
   -8.0537   22.1181  -20.7400 C   0  0  0  0  0  0  0  0  0  0  0  0
   -7.3733   22.1896  -21.9658 C   0  0  0  0  0  0  0  0  0  0  0  0
   -6.4450   23.1655  -22.2305 C   0  0  0  0  0  0  0  0  0  0  0  0
   -6.2008   24.0973  -21.2116 C   0  0  0  0  0  0  0  0  0  0  0  0
   -6.8649   24.0247  -20.0164 C   0  0  0  0  0  0  0  0  0  0  0  0
   -6.5740   24.9384  -19.0364 F   0  0  0  0  0  0  0  0  0  0  0  0
   -5.7563   23.3085  -23.4526 N   0  0  0  0  0  0  0  0  0  0  0  0
   -4.7194   22.4742  -23.8399 C   0  0  0  0  0  0  0  0  0  0  0  0
   -4.3784   21.5151  -23.0580 O   0  0  0  0  0  0  0  0  0  0  0  0
   -6.1090   24.1141  -24.0539 H   0  0  0  0  0  0  0  0  0  0  0  0
   -3.9142   22.5397  -25.0919 C   0  0  0  0  0  0  0  0  0  0  0  0
   -2.4357   22.8538  -24.7573 C   0  0  0  0  0  0  0  0  0  0  0  0
   -2.8912   21.5443  -25.3862 C   0  0  0  0  0  0  0  0  0  0  0  0
   -4.3983   23.4203  -26.2101 C   0  0  0  0  0  0  0  0  0  0  0  0
   -5.0137   24.4833  -25.8760 O   0  0  0  0  0  0  0  0  0  0  0  0
   -4.1711   23.0655  -27.5521 N   0  0  0  0  0  0  0  0  0  0  0  0
   -3.6535   22.1371  -27.6903 H   0  0  0  0  0  0  0  0  0  0  0  0
   -4.5410   23.7622  -28.7274 C   0  0  0  0  0  0  0  0  0  0  0  0
   -5.5280   23.3606  -29.5567 C   0  0  0  0  0  0  0  0  0  0  0  0
   -5.8768   24.0595  -30.7239 C   0  0  0  0  0  0  0  0  0  0  0  0
   -5.1853   25.1964  -31.0317 C   0  0  0  0  0  0  0  0  0  0  0  0
   -5.4721   25.9163  -32.1426 F   0  0  0  0  0  0  0  0  0  0  0  0
   -4.1657   25.6297  -30.1936 C   0  0  0  0  0  0  0  0  0  0  0  0
   -3.8556   24.9307  -29.0756 C   0  0  0  0  0  0  0  0  0  0  0  0
   -8.4980   22.9272  -18.5592 O   0  0  0  0  0  0  0  0  0  0  0  0
  -11.4519   20.6437  -16.9280 C   0  0  0  0  0  0  0  0  0  0  0  0
  -10.4458   21.4107  -17.4714 C   0  0  0  0  0  0  0  0  0  0  0  0
   -9.1568   21.2914  -16.9977 C   0  0  0  0  0  0  0  0  0  0  0  0
   -8.1266   22.0764  -17.5517 C   0  0  0  0  0  0  0  0  0  0  0  0
   -6.8435   21.9693  -17.0896 C   0  0  0  0  0  0  0  0  0  0  0  0
   -6.5698   21.0659  -16.0574 C   0  0  0  0  0  0  0  0  0  0  0  0
   -7.5367   20.3082  -15.5160 N   0  0  0  0  0  0  0  0  0  0  0  0
   -8.8108   20.4259  -15.9859 C   0  0  0  0  0  0  0  0  0  0  0  0
   -9.8298   19.6515  -15.4379 C   0  0  0  0  0  0  0  0  0  0  0  0
  -11.1188   19.7600  -15.9000 C   0  0  0  0  0  0  0  0  0  0  0  0
  -13.3068   19.7054  -18.1951 C   0  0  0  0  0  0  0  0  0  0  0  0
  -12.7779   20.7253  -17.3710 O   0  0  0  0  0  0  0  0  0  0  0  0
  -12.1218   18.9829  -15.3446 O   0  0  0  0  0  0  0  0  0  0  0  0
  -12.0356   17.6117  -15.0922 C   0  0  0  0  0  0  0  0  0  0  0  0
  -11.9708   16.9103  -16.4448 C   0  0  0  0  0  0  0  0  0  0  0  0
  -13.1662   16.0358  -16.6614 C   0  0  0  0  0  0  0  0  0  0  0  0
  -12.9766   14.6743  -16.2290 N   0  0  0  0  0  0  0  0  0  0  0  0
  -14.1165   14.3029  -15.3994 C   0  0  0  0  0  0  0  0  0  0  0  0
  -15.0618   13.5617  -16.2902 C   0  0  0  0  0  0  0  0  0  0  0  0
  -14.3590   13.3130  -17.5831 C   0  0  0  0  0  0  0  0  0  0  0  0
  -12.9297   13.7195  -17.2883 C   0  0  0  0  0  0  0  0  0  0  0  0
 37 38  1  0  0  0
 38 27  1  0  0  0
 27 28  2  0  0  0
 28 29  1  0  0  0
 29 30  2  0  0  0
 30 26  1  0  0  0
 26  1  1  0  0  0
  1  2  2  0  0  0
  2  3  1  0  0  0
  3  4  2  0  0  0
  4  8  1  0  0  0
  8  9  1  0  0  0
  9 10  2  0  0  0
  9 12  1  0  0  0
 12 13  1  0  0  0
 13 14  1  0  0  0
 12 15  1  0  0  0
 15 16  2  0  0  0
 15 17  1  0  0  0
 17 19  1  0  0  0
 19 20  2  0  0  0
 20 21  1  0  0  0
 21 22  2  0  0  0
 22 23  1  0  0  0
 22 24  1  0  0  0
 24 25  2  0  0  0
  4  5  1  0  0  0
  5  6  2  0  0  0
  6  7  1  0  0  0
 30 31  1  0  0  0
 31 32  2  0  0  0
 32 33  1  0  0  0
 33 34  2  0  0  0
 34 35  1  0  0  0
 35 36  2  0  0  0
 36 39  1  0  0  0
 39 40  1  0  0  0
 40 41  1  0  0  0
 41 42  1  0  0  0
 42 43  1  0  0  0
 43 44  1  0  0  0
 44 45  1  0  0  0
 45 46  1  0  0  0
 46 47  1  0  0  0
 36 27  1  0  0  0
 47 43  1  0  0  0
 34 29  1  0  0  0
  6  1  1  0  0  0
 14 12  1  0  0  0
 25 19  1  0  0  0
  8 11  1  0  0  0
 17 18  1  0  0  0
M  END
> <minimizedAffinity>
-7.84091

> <CNNscore>
0.0708110929

> <CNNaffinity>
6.0368833542

> <CNN_VS>
0.4274783134

> <CNNaffinity_variance>
0.2071526349

$$$$
[H]c1c([H])c([H])c(Sc2c([H])c([H])c([N+](=O)[O-])c3nonc23)c([H])c1[H]


 19 21  0  0  0  0  0  0  0  0999 V2000
   -1.1020   22.5689  -26.4165 C   0  0  0  0  0  0  0  0  0  0  0  0
   -1.1847   22.0444  -25.1442 C   0  0  0  0  0  0  0  0  0  0  0  0
   -2.3840   21.7767  -24.5273 C   0  0  0  0  0  0  0  0  0  0  0  0
   -3.5635   22.0248  -25.1635 C   0  0  0  0  0  0  0  0  0  0  0  0
   -3.5123   22.5493  -26.4364 C   0  0  0  0  0  0  0  0  0  0  0  0
   -4.4667   22.8888  -27.2899 N   0  0  0  0  0  0  0  0  0  0  0  0
   -3.9039   23.3369  -28.3648 O   0  0  0  0  0  0  0  0  0  0  0  0
   -2.6074   23.3165  -28.2774 N   0  0  0  0  0  0  0  0  0  0  0  0
   -2.3161   22.8214  -27.0644 C   0  0  0  0  0  0  0  0  0  0  0  0
    0.5025   22.1356  -28.1575 O   0  0  0  0  0  0  0  0  0  0  0  0
    0.1241   22.8454  -27.0571 N   0  0  0  0  0  0  0  0  0  0  0  0
    0.8594   23.7349  -26.6197 O   0  0  0  0  0  0  0  0  0  0  0  0
   -5.1653   21.7114  -24.4431 S   0  0  0  0  0  0  0  0  0  0  0  0
   -5.9272   23.2809  -23.9844 C   0  0  0  0  0  0  0  0  0  0  0  0
   -5.5505   23.9024  -22.8135 C   0  0  0  0  0  0  0  0  0  0  0  0
   -6.1238   25.0999  -22.4534 C   0  0  0  0  0  0  0  0  0  0  0  0
   -7.0853   25.6880  -23.2699 C   0  0  0  0  0  0  0  0  0  0  0  0
   -7.4801   25.0846  -24.4495 C   0  0  0  0  0  0  0  0  0  0  0  0
   -6.8706   23.8852  -24.7580 C   0  0  0  0  0  0  0  0  0  0  0  0
 10 11  1  0  0  0
 11 12  2  0  0  0
 11  1  1  0  0  0
  1  2  2  0  0  0
  2  3  1  0  0  0
  3  4  2  0  0  0
  4 13  1  0  0  0
 13 14  1  0  0  0
 14 15  2  0  0  0
 15 16  1  0  0  0
 16 17  2  0  0  0
 17 18  1  0  0  0
 18 19  2  0  0  0
  4  5  1  0  0  0
  5  6  2  0  0  0
  6  7  1  0  0  0
  7  8  1  0  0  0
  8  9  2  0  0  0
  9  1  1  0  0  0
 19 14  1  0  0  0
  9  5  1  0  0  0
M  CHG 1  10  -1
M  CHG 1  11   1
M  END
> <minimizedAffinity>
-6.50712

> <CNNscore>
0.6261245012

> <CNNaffinity>
5.5736451149

> <CNN_VS>
3.4897956848

> <CNNaffinity_variance>
0.4698281288

$$$$
[H]c1c([H])c([H])c(Sc2c([H])c([H])c([N+](=O)[O-])c3nonc23)c([H])c1[H]


 19 21  0  0  0  0  0  0  0  0999 V2000
   -1.4198   22.6962  -26.0797 C   0  0  0  0  0  0  0  0  0  0  0  0
   -1.9970   22.6776  -24.8278 C   0  0  0  0  0  0  0  0  0  0  0  0
   -3.3508   22.8158  -24.6316 C   0  0  0  0  0  0  0  0  0  0  0  0
   -4.1933   22.9801  -25.6903 C   0  0  0  0  0  0  0  0  0  0  0  0
   -3.6450   23.0029  -26.9539 C   0  0  0  0  0  0  0  0  0  0  0  0
   -4.1936   23.1430  -28.1514 N   0  0  0  0  0  0  0  0  0  0  0  0
   -3.2494   23.0955  -29.0342 O   0  0  0  0  0  0  0  0  0  0  0  0
   -2.0825   22.9293  -28.4869 N   0  0  0  0  0  0  0  0  0  0  0  0
   -2.2897   22.8652  -27.1624 C   0  0  0  0  0  0  0  0  0  0  0  0
    0.6558   21.5415  -25.6901 O   0  0  0  0  0  0  0  0  0  0  0  0
   -0.0321   22.5540  -26.2898 N   0  0  0  0  0  0  0  0  0  0  0  0
    0.5638   23.3501  -27.0207 O   0  0  0  0  0  0  0  0  0  0  0  0
   -5.9604   23.1685  -25.5330 S   0  0  0  0  0  0  0  0  0  0  0  0
   -6.4168   23.0548  -23.7914 C   0  0  0  0  0  0  0  0  0  0  0  0
   -6.6438   24.2081  -23.0720 C   0  0  0  0  0  0  0  0  0  0  0  0
   -6.9932   24.1342  -21.7435 C   0  0  0  0  0  0  0  0  0  0  0  0
   -7.1189   22.8953  -21.1217 C   0  0  0  0  0  0  0  0  0  0  0  0
   -6.8966   21.7240  -21.8217 C   0  0  0  0  0  0  0  0  0  0  0  0
   -6.5489   21.8610  -23.1504 C   0  0  0  0  0  0  0  0  0  0  0  0
 10 11  1  0  0  0
 11 12  2  0  0  0
 11  1  1  0  0  0
  1  2  2  0  0  0
  2  3  1  0  0  0
  3  4  2  0  0  0
  4 13  1  0  0  0
 13 14  1  0  0  0
 14 15  2  0  0  0
 15 16  1  0  0  0
 16 17  2  0  0  0
 17 18  1  0  0  0
 18 19  2  0  0  0
  4  5  1  0  0  0
  5  6  2  0  0  0
  6  7  1  0  0  0
  7  8  1  0  0  0
  8  9  2  0  0  0
  9  1  1  0  0  0
 19 14  1  0  0  0
  9  5  1  0  0  0
M  CHG 1  10  -1
M  CHG 1  11   1
M  END
> <minimizedAffinity>
-6.34480

> <CNNscore>
0.5858589411

> <CNNaffinity>
5.7021117210

> <CNN_VS>
3.3406331539

> <CNNaffinity_variance>
0.5004497170

$$$$
[H]c1c([H])c([H])c(Sc2c([H])c([H])c([N+](=O)[O-])c3nonc23)c([H])c1[H]


 19 21  0  0  0  0  0  0  0  0999 V2000
   -1.0835   22.4730  -26.3026 C   0  0  0  0  0  0  0  0  0  0  0  0
   -2.2847   22.6057  -26.9660 C   0  0  0  0  0  0  0  0  0  0  0  0
   -3.4928   22.3034  -26.3833 C   0  0  0  0  0  0  0  0  0  0  0  0
   -3.5511   21.8509  -25.0990 C   0  0  0  0  0  0  0  0  0  0  0  0
   -2.3663   21.7080  -24.4107 C   0  0  0  0  0  0  0  0  0  0  0  0
   -2.1058   21.3001  -23.1777 N   0  0  0  0  0  0  0  0  0  0  0  0
   -0.8251   21.3445  -23.0018 O   0  0  0  0  0  0  0  0  0  0  0  0
   -0.2046   21.7650  -24.0633 N   0  0  0  0  0  0  0  0  0  0  0  0
   -1.1498   22.0081  -24.9847 C   0  0  0  0  0  0  0  0  0  0  0  0
    0.9286   23.7909  -26.3929 O   0  0  0  0  0  0  0  0  0  0  0  0
    0.1601   22.7820  -26.8926 N   0  0  0  0  0  0  0  0  0  0  0  0
    0.5558   22.1360  -27.8669 O   0  0  0  0  0  0  0  0  0  0  0  0
   -5.0699   21.4327  -24.2616 S   0  0  0  0  0  0  0  0  0  0  0  0
   -6.1814   22.8530  -24.3038 C   0  0  0  0  0  0  0  0  0  0  0  0
   -6.6555   23.3799  -23.1220 C   0  0  0  0  0  0  0  0  0  0  0  0
   -7.5030   24.4633  -23.1413 C   0  0  0  0  0  0  0  0  0  0  0  0
   -7.8842   25.0310  -24.3535 C   0  0  0  0  0  0  0  0  0  0  0  0
   -7.4222   24.5209  -25.5526 C   0  0  0  0  0  0  0  0  0  0  0  0
   -6.5755   23.4339  -25.4703 C   0  0  0  0  0  0  0  0  0  0  0  0
 10 11  1  0  0  0
 11 12  2  0  0  0
 11  1  1  0  0  0
  1  2  2  0  0  0
  2  3  1  0  0  0
  3  4  2  0  0  0
  4 13  1  0  0  0
 13 14  1  0  0  0
 14 15  2  0  0  0
 15 16  1  0  0  0
 16 17  2  0  0  0
 17 18  1  0  0  0
 18 19  2  0  0  0
  4  5  1  0  0  0
  5  6  2  0  0  0
  6  7  1  0  0  0
  7  8  1  0  0  0
  8  9  2  0  0  0
  9  1  1  0  0  0
 19 14  1  0  0  0
  9  5  1  0  0  0
M  CHG 1  10  -1
M  CHG 1  11   1
M  END
> <minimizedAffinity>
-6.72523

> <CNNscore>
0.5490602851

> <CNNaffinity>
5.4579935074

> <CNN_VS>
2.9967675209

> <CNNaffinity_variance>
0.2146655023

$$$$
[H]c1c([H])c([H])c(Sc2c([H])c([H])c([N+](=O)[O-])c3nonc23)c([H])c1[H]


 19 21  0  0  0  0  0  0  0  0999 V2000
   -1.5583   22.7154  -24.7263 C   0  0  0  0  0  0  0  0  0  0  0  0
   -2.6115   23.1379  -23.9434 C   0  0  0  0  0  0  0  0  0  0  0  0
   -3.8513   23.4306  -24.4607 C   0  0  0  0  0  0  0  0  0  0  0  0
   -4.0927   23.3120  -25.7968 C   0  0  0  0  0  0  0  0  0  0  0  0
   -3.0587   22.8918  -26.6045 C   0  0  0  0  0  0  0  0  0  0  0  0
   -2.9878   22.6844  -27.9109 N   0  0  0  0  0  0  0  0  0  0  0  0
   -1.7883   22.2897  -28.1907 O   0  0  0  0  0  0  0  0  0  0  0  0
   -1.0413   22.2203  -27.1296 N   0  0  0  0  0  0  0  0  0  0  0  0
   -1.8122   22.5955  -26.0970 C   0  0  0  0  0  0  0  0  0  0  0  0
   -0.1445   21.4672  -23.2308 O   0  0  0  0  0  0  0  0  0  0  0  0
   -0.2836   22.4119  -24.2036 N   0  0  0  0  0  0  0  0  0  0  0  0
    0.7122   23.0043  -24.6286 O   0  0  0  0  0  0  0  0  0  0  0  0
   -5.6663   23.6703  -26.5572 S   0  0  0  0  0  0  0  0  0  0  0  0
   -5.3887   24.3330  -28.2120 C   0  0  0  0  0  0  0  0  0  0  0  0
   -4.8058   25.5732  -28.3580 C   0  0  0  0  0  0  0  0  0  0  0  0
   -4.5883   26.0888  -29.6147 C   0  0  0  0  0  0  0  0  0  0  0  0
   -4.9555   25.3603  -30.7423 C   0  0  0  0  0  0  0  0  0  0  0  0
   -5.5417   24.1140  -30.6223 C   0  0  0  0  0  0  0  0  0  0  0  0
   -5.7349   23.6491  -29.3371 C   0  0  0  0  0  0  0  0  0  0  0  0
 10 11  1  0  0  0
 11 12  2  0  0  0
 11  1  1  0  0  0
  1  2  2  0  0  0
  2  3  1  0  0  0
  3  4  2  0  0  0
  4 13  1  0  0  0
 13 14  1  0  0  0
 14 15  2  0  0  0
 15 16  1  0  0  0
 16 17  2  0  0  0
 17 18  1  0  0  0
 18 19  2  0  0  0
  4  5  1  0  0  0
  5  6  2  0  0  0
  6  7  1  0  0  0
  7  8  1  0  0  0
  8  9  2  0  0  0
  9  1  1  0  0  0
 19 14  1  0  0  0
  9  5  1  0  0  0
M  CHG 1  10  -1
M  CHG 1  11   1
M  END
> <minimizedAffinity>
-6.66141

> <CNNscore>
0.4908942878

> <CNNaffinity>
5.7737684250

> <CNN_VS>
2.8343100548

> <CNNaffinity_variance>
0.1530633420

$$$$
[H]c1c([H])c([H])c(Sc2c([H])c([H])c([N+](=O)[O-])c3nonc23)c([H])c1[H]


 19 21  0  0  0  0  0  0  0  0999 V2000
   -5.4967   24.1528  -27.5750 C   0  0  0  0  0  0  0  0  0  0  0  0
   -6.4266   23.9010  -26.5888 C   0  0  0  0  0  0  0  0  0  0  0  0
   -6.1849   23.0445  -25.5408 C   0  0  0  0  0  0  0  0  0  0  0  0
   -4.9905   22.3968  -25.4337 C   0  0  0  0  0  0  0  0  0  0  0  0
   -4.0413   22.6287  -26.4049 C   0  0  0  0  0  0  0  0  0  0  0  0
   -2.8141   22.1582  -26.5695 N   0  0  0  0  0  0  0  0  0  0  0  0
   -2.3229   22.6836  -27.6445 O   0  0  0  0  0  0  0  0  0  0  0  0
   -3.1647   23.4911  -28.2173 N   0  0  0  0  0  0  0  0  0  0  0  0
   -4.2726   23.4851  -27.4596 C   0  0  0  0  0  0  0  0  0  0  0  0
   -6.2095   24.5539  -29.8387 O   0  0  0  0  0  0  0  0  0  0  0  0
   -5.7360   25.0309  -28.6529 N   0  0  0  0  0  0  0  0  0  0  0  0
   -5.5159   26.2383  -28.5227 O   0  0  0  0  0  0  0  0  0  0  0  0
   -4.5881   21.2680  -24.1121 S   0  0  0  0  0  0  0  0  0  0  0  0
   -3.2401   21.9581  -23.1318 C   0  0  0  0  0  0  0  0  0  0  0  0
   -3.4184   23.1611  -22.4835 C   0  0  0  0  0  0  0  0  0  0  0  0
   -2.3982   23.6971  -21.7324 C   0  0  0  0  0  0  0  0  0  0  0  0
   -1.1833   23.0268  -21.6242 C   0  0  0  0  0  0  0  0  0  0  0  0
   -0.9796   21.8186  -22.2647 C   0  0  0  0  0  0  0  0  0  0  0  0
   -2.0387   21.3309  -23.0035 C   0  0  0  0  0  0  0  0  0  0  0  0
 10 11  1  0  0  0
 11 12  2  0  0  0
 11  1  1  0  0  0
  1  2  2  0  0  0
  2  3  1  0  0  0
  3  4  2  0  0  0
  4 13  1  0  0  0
 13 14  1  0  0  0
 14 15  2  0  0  0
 15 16  1  0  0  0
 16 17  2  0  0  0
 17 18  1  0  0  0
 18 19  2  0  0  0
  4  5  1  0  0  0
  5  6  2  0  0  0
  6  7  1  0  0  0
  7  8  1  0  0  0
  8  9  2  0  0  0
  9  1  1  0  0  0
 19 14  1  0  0  0
  9  5  1  0  0  0
M  CHG 1  10  -1
M  CHG 1  11   1
M  END
> <minimizedAffinity>
-6.40523

> <CNNscore>
0.3533140123

> <CNNaffinity>
5.5411500931

> <CNN_VS>
1.9577659369

> <CNNaffinity_variance>
0.2328408062

$$$$
[H]c1c([H])c([H])c(Sc2c([H])c([H])c([N+](=O)[O-])c3nonc23)c([H])c1[H]


 19 21  0  0  0  0  0  0  0  0999 V2000
   -4.4604   24.8304  -28.6856 C   0  0  0  0  0  0  0  0  0  0  0  0
   -4.1457   23.5032  -28.8858 C   0  0  0  0  0  0  0  0  0  0  0  0
   -3.9041   22.6323  -27.8496 C   0  0  0  0  0  0  0  0  0  0  0  0
   -3.9676   23.0565  -26.5560 C   0  0  0  0  0  0  0  0  0  0  0  0
   -4.2799   24.3783  -26.3249 C   0  0  0  0  0  0  0  0  0  0  0  0
   -4.4140   25.0702  -25.2033 N   0  0  0  0  0  0  0  0  0  0  0  0
   -4.7182   26.2878  -25.5161 O   0  0  0  0  0  0  0  0  0  0  0  0
   -4.7963   26.4523  -26.8028 N   0  0  0  0  0  0  0  0  0  0  0  0
   -4.5242   25.2599  -27.3556 C   0  0  0  0  0  0  0  0  0  0  0  0
   -5.9211   26.3484  -29.8499 O   0  0  0  0  0  0  0  0  0  0  0  0
   -4.7110   25.7302  -29.7428 N   0  0  0  0  0  0  0  0  0  0  0  0
   -3.8303   25.9600  -30.5763 O   0  0  0  0  0  0  0  0  0  0  0  0
   -3.6686   22.0010  -25.1491 S   0  0  0  0  0  0  0  0  0  0  0  0
   -1.8971   21.9481  -24.8125 C   0  0  0  0  0  0  0  0  0  0  0  0
   -1.0046   22.2234  -25.8259 C   0  0  0  0  0  0  0  0  0  0  0  0
    0.3486   22.1870  -25.5813 C   0  0  0  0  0  0  0  0  0  0  0  0
    0.8210   21.8727  -24.3104 C   0  0  0  0  0  0  0  0  0  0  0  0
   -0.0539   21.5929  -23.2771 C   0  0  0  0  0  0  0  0  0  0  0  0
   -1.3990   21.6446  -23.5824 C   0  0  0  0  0  0  0  0  0  0  0  0
 10 11  1  0  0  0
 11 12  2  0  0  0
 11  1  1  0  0  0
  1  2  2  0  0  0
  2  3  1  0  0  0
  3  4  2  0  0  0
  4 13  1  0  0  0
 13 14  1  0  0  0
 14 15  2  0  0  0
 15 16  1  0  0  0
 16 17  2  0  0  0
 17 18  1  0  0  0
 18 19  2  0  0  0
  4  5  1  0  0  0
  5  6  2  0  0  0
  6  7  1  0  0  0
  7  8  1  0  0  0
  8  9  2  0  0  0
  9  1  1  0  0  0
 19 14  1  0  0  0
  9  5  1  0  0  0
M  CHG 1  10  -1
M  CHG 1  11   1
M  END
> <minimizedAffinity>
-7.29863

> <CNNscore>
0.3264087737

> <CNNaffinity>
5.7583141327

> <CNN_VS>
1.8795642853

> <CNNaffinity_variance>
0.1257985532

$$$$
[H]c1c([H])c([H])c(Sc2c([H])c([H])c([N+](=O)[O-])c3nonc23)c([H])c1[H]


 19 21  0  0  0  0  0  0  0  0999 V2000
   -6.5591   22.3449  -22.9433 C   0  0  0  0  0  0  0  0  0  0  0  0
   -5.7073   21.3945  -23.4646 C   0  0  0  0  0  0  0  0  0  0  0  0
   -4.9756   21.6007  -24.6102 C   0  0  0  0  0  0  0  0  0  0  0  0
   -5.0658   22.7785  -25.2900 C   0  0  0  0  0  0  0  0  0  0  0  0
   -5.9095   23.7475  -24.7928 C   0  0  0  0  0  0  0  0  0  0  0  0
   -6.2026   24.9664  -25.2207 N   0  0  0  0  0  0  0  0  0  0  0  0
   -7.0572   25.4857  -24.4004 O   0  0  0  0  0  0  0  0  0  0  0  0
   -7.3572   24.6711  -23.4334 N   0  0  0  0  0  0  0  0  0  0  0  0
   -6.6475   23.5518  -23.6455 C   0  0  0  0  0  0  0  0  0  0  0  0
   -8.2773   21.1801  -21.7250 O   0  0  0  0  0  0  0  0  0  0  0  0
   -7.3125   22.1419  -21.7680 N   0  0  0  0  0  0  0  0  0  0  0  0
   -7.0977   22.8386  -20.7721 O   0  0  0  0  0  0  0  0  0  0  0  0
   -4.1574   23.1351  -26.7835 S   0  0  0  0  0  0  0  0  0  0  0  0
   -2.4112   22.7683  -26.5179 C   0  0  0  0  0  0  0  0  0  0  0  0
   -1.5520   22.7380  -27.5950 C   0  0  0  0  0  0  0  0  0  0  0  0
   -0.2182   22.4602  -27.4051 C   0  0  0  0  0  0  0  0  0  0  0  0
    0.2682   22.2094  -26.1254 C   0  0  0  0  0  0  0  0  0  0  0  0
   -0.5733   22.2341  -25.0287 C   0  0  0  0  0  0  0  0  0  0  0  0
   -1.9002   22.5180  -25.2811 C   0  0  0  0  0  0  0  0  0  0  0  0
 10 11  1  0  0  0
 11 12  2  0  0  0
 11  1  1  0  0  0
  1  2  2  0  0  0
  2  3  1  0  0  0
  3  4  2  0  0  0
  4 13  1  0  0  0
 13 14  1  0  0  0
 14 15  2  0  0  0
 15 16  1  0  0  0
 16 17  2  0  0  0
 17 18  1  0  0  0
 18 19  2  0  0  0
  4  5  1  0  0  0
  5  6  2  0  0  0
  6  7  1  0  0  0
  7  8  1  0  0  0
  8  9  2  0  0  0
  9  1  1  0  0  0
 19 14  1  0  0  0
  9  5  1  0  0  0
M  CHG 1  10  -1
M  CHG 1  11   1
M  END
> <minimizedAffinity>
-7.01559

> <CNNscore>
0.3259468377

> <CNNaffinity>
5.3076019287

> <CNN_VS>
1.7299960852

> <CNNaffinity_variance>
0.2213126421

$$$$
[H]c1c([H])c([H])c(Sc2c([H])c([H])c([N+](=O)[O-])c3nonc23)c([H])c1[H]


 19 21  0  0  0  0  0  0  0  0999 V2000
   -4.5080   24.3846  -29.1908 C   0  0  0  0  0  0  0  0  0  0  0  0
   -3.7493   23.2650  -28.9234 C   0  0  0  0  0  0  0  0  0  0  0  0
   -3.3204   22.9430  -27.6574 C   0  0  0  0  0  0  0  0  0  0  0  0
   -3.6354   23.7355  -26.5942 C   0  0  0  0  0  0  0  0  0  0  0  0
   -4.3927   24.8617  -26.8308 C   0  0  0  0  0  0  0  0  0  0  0  0
   -4.8489   25.8046  -26.0201 N   0  0  0  0  0  0  0  0  0  0  0  0
   -5.5162   26.6561  -26.7290 O   0  0  0  0  0  0  0  0  0  0  0  0
   -5.5325   26.3315  -27.9873 N   0  0  0  0  0  0  0  0  0  0  0  0
   -4.8282   25.1941  -28.0954 C   0  0  0  0  0  0  0  0  0  0  0  0
   -4.3990   25.7728  -31.1540 O   0  0  0  0  0  0  0  0  0  0  0  0
   -4.9532   24.7216  -30.4863 N   0  0  0  0  0  0  0  0  0  0  0  0
   -5.8496   24.0617  -31.0194 O   0  0  0  0  0  0  0  0  0  0  0  0
   -3.1230   23.3990  -24.9188 S   0  0  0  0  0  0  0  0  0  0  0  0
   -4.5510   22.8569  -23.9589 C   0  0  0  0  0  0  0  0  0  0  0  0
   -5.3370   21.8287  -24.4323 C   0  0  0  0  0  0  0  0  0  0  0  0
   -6.4280   21.4059  -23.7090 C   0  0  0  0  0  0  0  0  0  0  0  0
   -6.7416   22.0144  -22.4971 C   0  0  0  0  0  0  0  0  0  0  0  0
   -5.9688   23.0476  -22.0007 C   0  0  0  0  0  0  0  0  0  0  0  0
   -4.8879   23.4284  -22.7701 C   0  0  0  0  0  0  0  0  0  0  0  0
 10 11  1  0  0  0
 11 12  2  0  0  0
 11  1  1  0  0  0
  1  2  2  0  0  0
  2  3  1  0  0  0
  3  4  2  0  0  0
  4 13  1  0  0  0
 13 14  1  0  0  0
 14 15  2  0  0  0
 15 16  1  0  0  0
 16 17  2  0  0  0
 17 18  1  0  0  0
 18 19  2  0  0  0
  4  5  1  0  0  0
  5  6  2  0  0  0
  6  7  1  0  0  0
  7  8  1  0  0  0
  8  9  2  0  0  0
  9  1  1  0  0  0
 19 14  1  0  0  0
  9  5  1  0  0  0
M  CHG 1  10  -1
M  CHG 1  11   1
M  END
> <minimizedAffinity>
-6.78598

> <CNNscore>
0.2944179773

> <CNNaffinity>
5.7734727859

> <CNN_VS>
1.6998142004

> <CNNaffinity_variance>
0.1390748322

$$$$
[H]c1c([H])c([H])c(Sc2c([H])c([H])c([N+](=O)[O-])c3nonc23)c([H])c1[H]


 19 21  0  0  0  0  0  0  0  0999 V2000
   -1.4469   22.3711  -22.7235 C   0  0  0  0  0  0  0  0  0  0  0  0
   -0.5171   22.7089  -23.6837 C   0  0  0  0  0  0  0  0  0  0  0  0
   -0.7728   22.6150  -25.0314 C   0  0  0  0  0  0  0  0  0  0  0  0
   -1.9820   22.1747  -25.4803 C   0  0  0  0  0  0  0  0  0  0  0  0
   -2.9315   21.8296  -24.5437 C   0  0  0  0  0  0  0  0  0  0  0  0
   -4.1709   21.3792  -24.6682 N   0  0  0  0  0  0  0  0  0  0  0  0
   -4.6560   21.2040  -23.4821 O   0  0  0  0  0  0  0  0  0  0  0  0
   -3.7984   21.5162  -22.5570 N   0  0  0  0  0  0  0  0  0  0  0  0
   -2.6862   21.9199  -23.1905 C   0  0  0  0  0  0  0  0  0  0  0  0
   -1.3633   23.6500  -20.6862 O   0  0  0  0  0  0  0  0  0  0  0  0
   -1.1931   22.4656  -21.3390 N   0  0  0  0  0  0  0  0  0  0  0  0
   -0.8148   21.4709  -20.7140 O   0  0  0  0  0  0  0  0  0  0  0  0
   -2.4033   22.0188  -27.2069 S   0  0  0  0  0  0  0  0  0  0  0  0
   -3.6563   23.2472  -27.6254 C   0  0  0  0  0  0  0  0  0  0  0  0
   -3.7757   24.3848  -26.8568 C   0  0  0  0  0  0  0  0  0  0  0  0
   -4.7269   25.3292  -27.1664 C   0  0  0  0  0  0  0  0  0  0  0  0
   -5.5712   25.1395  -28.2565 C   0  0  0  0  0  0  0  0  0  0  0  0
   -5.4713   24.0069  -29.0431 C   0  0  0  0  0  0  0  0  0  0  0  0
   -4.4992   23.0953  -28.6837 C   0  0  0  0  0  0  0  0  0  0  0  0
 10 11  1  0  0  0
 11 12  2  0  0  0
 11  1  1  0  0  0
  1  2  2  0  0  0
  2  3  1  0  0  0
  3  4  2  0  0  0
  4 13  1  0  0  0
 13 14  1  0  0  0
 14 15  2  0  0  0
 15 16  1  0  0  0
 16 17  2  0  0  0
 17 18  1  0  0  0
 18 19  2  0  0  0
  4  5  1  0  0  0
  5  6  2  0  0  0
  6  7  1  0  0  0
  7  8  1  0  0  0
  8  9  2  0  0  0
  9  1  1  0  0  0
 19 14  1  0  0  0
  9  5  1  0  0  0
M  CHG 1  10  -1
M  CHG 1  11   1
M  END
> <minimizedAffinity>
-6.26521

> <CNNscore>
0.2815513313

> <CNNaffinity>
5.2681627274

> <CNN_VS>
1.4832582474

> <CNNaffinity_variance>
0.1363994777

$$$$
[H]ON([H])C(=O)C([H])([H])N(C([H])([H])c1c([H])c([H])c([N+](=O)[O-])c([H])c1[H])S(=O)(=O)c1c([H])c([H])c(Cl)c([H])c1[H]


 28 29  0  0  0  0  0  0  0  0999 V2000
   -5.0323   23.6918  -23.2679 N   0  0  0  0  0  0  0  0  0  0  0  0
   -4.3032   22.2164  -23.4999 S   0  0  0  0  0  0  0  0  0  0  0  0
   -3.8081   21.6608  -22.1956 O   0  0  0  0  0  0  0  0  0  0  0  0
   -5.2953   21.2240  -24.0304 O   0  0  0  0  0  0  0  0  0  0  0  0
   -2.9623   22.2194  -24.6358 C   0  0  0  0  0  0  0  0  0  0  0  0
   -1.6499   22.1472  -24.2129 C   0  0  0  0  0  0  0  0  0  0  0  0
   -0.5824   22.1468  -25.0623 C   0  0  0  0  0  0  0  0  0  0  0  0
   -0.8069   22.2216  -26.4142 C   0  0  0  0  0  0  0  0  0  0  0  0
    0.5554   22.2230  -27.5356 Cl  0  0  0  0  0  0  0  0  0  0  0  0
   -2.0943   22.2947  -26.8735 C   0  0  0  0  0  0  0  0  0  0  0  0
   -3.1572   22.2936  -25.9991 C   0  0  0  0  0  0  0  0  0  0  0  0
   -4.7547   24.4107  -22.0840 C   0  0  0  0  0  0  0  0  0  0  0  0
   -7.2444   25.7796  -19.6719 O   0  0  0  0  0  0  0  0  0  0  0  0
   -6.2679   25.7074  -20.5922 N   0  0  0  0  0  0  0  0  0  0  0  0
   -5.8142   24.4743  -21.0861 C   0  0  0  0  0  0  0  0  0  0  0  0
   -6.3341   23.4203  -20.6563 O   0  0  0  0  0  0  0  0  0  0  0  0
   -7.2250   25.0295  -19.0258 H   0  0  0  0  0  0  0  0  0  0  0  0
   -5.8450   26.5839  -20.9407 H   0  0  0  0  0  0  0  0  0  0  0  0
   -6.1252   24.0848  -24.0386 C   0  0  0  0  0  0  0  0  0  0  0  0
   -5.8453   24.5213  -25.4288 C   0  0  0  0  0  0  0  0  0  0  0  0
   -6.3494   23.9039  -26.5529 C   0  0  0  0  0  0  0  0  0  0  0  0
   -6.0666   24.3329  -27.8314 C   0  0  0  0  0  0  0  0  0  0  0  0
   -5.2587   25.4102  -28.0530 C   0  0  0  0  0  0  0  0  0  0  0  0
   -4.7330   26.0571  -26.9464 C   0  0  0  0  0  0  0  0  0  0  0  0
   -5.0238   25.6177  -25.6744 C   0  0  0  0  0  0  0  0  0  0  0  0
   -4.9805   25.8351  -29.3768 N   0  0  0  0  0  0  0  0  0  0  0  0
   -3.7441   25.5920  -29.9059 O   0  0  0  0  0  0  0  0  0  0  0  0
   -5.8160   26.4226  -30.0827 O   0  0  0  0  0  0  0  0  0  0  0  0
 13 14  1  0  0  0
 14 15  1  0  0  0
 15 16  2  0  0  0
 15 12  1  0  0  0
 12  1  1  0  0  0
  1 19  1  0  0  0
 19 20  1  0  0  0
 20 21  2  0  0  0
 21 22  1  0  0  0
 22 23  2  0  0  0
 23 24  1  0  0  0
 24 25  2  0  0  0
 23 26  1  0  0  0
 26 27  1  0  0  0
 26 28  2  0  0  0
  1  2  1  0  0  0
  2  3  2  0  0  0
  2  4  2  0  0  0
  2  5  1  0  0  0
  5  6  2  0  0  0
  6  7  1  0  0  0
  7  8  2  0  0  0
  8  9  1  0  0  0
  8 10  1  0  0  0
 10 11  2  0  0  0
 25 20  1  0  0  0
 11  5  1  0  0  0
 13 17  1  0  0  0
 14 18  1  0  0  0
M  CHG 1  26   1
M  CHG 1  27  -1
M  END
> <minimizedAffinity>
-7.94669

> <CNNscore>
0.5704189539

> <CNNaffinity>
6.3829154968

> <CNN_VS>
3.6409358978

> <CNNaffinity_variance>
0.1641784012

$$$$
[H]ON([H])C(=O)C([H])([H])N(C([H])([H])c1c([H])c([H])c([N+](=O)[O-])c([H])c1[H])S(=O)(=O)c1c([H])c([H])c(Cl)c([H])c1[H]


 28 29  0  0  0  0  0  0  0  0999 V2000
   -7.0573   24.7615  -22.2924 N   0  0  0  0  0  0  0  0  0  0  0  0
   -5.8327   23.7160  -21.8809 S   0  0  0  0  0  0  0  0  0  0  0  0
   -4.9584   24.3181  -20.8188 O   0  0  0  0  0  0  0  0  0  0  0  0
   -6.3994   22.4566  -21.2951 O   0  0  0  0  0  0  0  0  0  0  0  0
   -4.8041   23.2132  -23.2141 C   0  0  0  0  0  0  0  0  0  0  0  0
   -3.5129   23.6817  -23.3541 C   0  0  0  0  0  0  0  0  0  0  0  0
   -2.6838   23.3157  -24.3738 C   0  0  0  0  0  0  0  0  0  0  0  0
   -3.1418   22.4344  -25.3210 C   0  0  0  0  0  0  0  0  0  0  0  0
   -2.0907   21.9439  -26.6507 Cl  0  0  0  0  0  0  0  0  0  0  0  0
   -4.4167   21.9470  -25.2174 C   0  0  0  0  0  0  0  0  0  0  0  0
   -5.2369   22.3293  -24.1804 C   0  0  0  0  0  0  0  0  0  0  0  0
   -8.3875   24.2860  -22.2952 C   0  0  0  0  0  0  0  0  0  0  0  0
  -11.2074   26.5413  -23.2185 O   0  0  0  0  0  0  0  0  0  0  0  0
  -10.2288   25.6243  -23.3029 N   0  0  0  0  0  0  0  0  0  0  0  0
   -9.4453   25.2822  -22.1896 C   0  0  0  0  0  0  0  0  0  0  0  0
   -9.6669   25.8470  -21.0952 O   0  0  0  0  0  0  0  0  0  0  0  0
  -10.9979   27.2756  -22.5882 H   0  0  0  0  0  0  0  0  0  0  0  0
  -10.0538   25.1634  -24.2116 H   0  0  0  0  0  0  0  0  0  0  0  0
   -6.7878   25.9739  -22.9251 C   0  0  0  0  0  0  0  0  0  0  0  0
   -6.3980   25.9136  -24.3555 C   0  0  0  0  0  0  0  0  0  0  0  0
   -5.2908   26.5396  -24.8857 C   0  0  0  0  0  0  0  0  0  0  0  0
   -4.9587   26.4665  -26.2209 C   0  0  0  0  0  0  0  0  0  0  0  0
   -5.7231   25.7575  -27.1015 C   0  0  0  0  0  0  0  0  0  0  0  0
   -6.8450   25.1139  -26.6049 C   0  0  0  0  0  0  0  0  0  0  0  0
   -7.1651   25.1955  -25.2683 C   0  0  0  0  0  0  0  0  0  0  0  0
   -5.3635   25.6951  -28.4716 N   0  0  0  0  0  0  0  0  0  0  0  0
   -6.3155   25.9444  -29.4199 O   0  0  0  0  0  0  0  0  0  0  0  0
   -4.2135   25.4221  -28.8519 O   0  0  0  0  0  0  0  0  0  0  0  0
 13 14  1  0  0  0
 14 15  1  0  0  0
 15 16  2  0  0  0
 15 12  1  0  0  0
 12  1  1  0  0  0
  1 19  1  0  0  0
 19 20  1  0  0  0
 20 21  2  0  0  0
 21 22  1  0  0  0
 22 23  2  0  0  0
 23 24  1  0  0  0
 24 25  2  0  0  0
 23 26  1  0  0  0
 26 27  1  0  0  0
 26 28  2  0  0  0
  1  2  1  0  0  0
  2  3  2  0  0  0
  2  4  2  0  0  0
  2  5  1  0  0  0
  5  6  2  0  0  0
  6  7  1  0  0  0
  7  8  2  0  0  0
  8  9  1  0  0  0
  8 10  1  0  0  0
 10 11  2  0  0  0
 25 20  1  0  0  0
 11  5  1  0  0  0
 13 17  1  0  0  0
 14 18  1  0  0  0
M  CHG 1  26   1
M  CHG 1  27  -1
M  END
> <minimizedAffinity>
-7.13910

> <CNNscore>
0.3480872512

> <CNNaffinity>
5.9194078445

> <CNN_VS>
2.0604703426

> <CNNaffinity_variance>
0.1588622630

$$$$
[H]ON([H])C(=O)C([H])([H])N(C([H])([H])c1c([H])c([H])c([N+](=O)[O-])c([H])c1[H])S(=O)(=O)c1c([H])c([H])c(Cl)c([H])c1[H]


 28 29  0  0  0  0  0  0  0  0999 V2000
   -3.2140   22.4057  -25.8156 N   0  0  0  0  0  0  0  0  0  0  0  0
   -4.2664   23.6845  -25.9542 S   0  0  0  0  0  0  0  0  0  0  0  0
   -5.5470   23.3964  -25.2247 O   0  0  0  0  0  0  0  0  0  0  0  0
   -3.6835   24.9092  -25.3132 O   0  0  0  0  0  0  0  0  0  0  0  0
   -4.6685   24.1420  -27.6026 C   0  0  0  0  0  0  0  0  0  0  0  0
   -5.3079   23.2728  -28.4639 C   0  0  0  0  0  0  0  0  0  0  0  0
   -5.6369   23.5900  -29.7493 C   0  0  0  0  0  0  0  0  0  0  0  0
   -5.3227   24.8369  -30.2290 C   0  0  0  0  0  0  0  0  0  0  0  0
   -5.7364   25.2738  -31.8877 Cl  0  0  0  0  0  0  0  0  0  0  0  0
   -4.6882   25.7277  -29.4058 C   0  0  0  0  0  0  0  0  0  0  0  0
   -4.3652   25.3873  -28.1120 C   0  0  0  0  0  0  0  0  0  0  0  0
   -2.4531   22.0238  -26.9429 C   0  0  0  0  0  0  0  0  0  0  0  0
    0.4929   23.6466  -28.5484 O   0  0  0  0  0  0  0  0  0  0  0  0
   -0.7023   23.0561  -28.3802 N   0  0  0  0  0  0  0  0  0  0  0  0
   -1.1549   22.6631  -27.1109 C   0  0  0  0  0  0  0  0  0  0  0  0
   -0.4247   22.8695  -26.1158 O   0  0  0  0  0  0  0  0  0  0  0  0
    1.1827   23.3121  -27.9218 H   0  0  0  0  0  0  0  0  0  0  0  0
   -1.2978   22.8900  -29.2087 H   0  0  0  0  0  0  0  0  0  0  0  0
   -3.2910   21.5221  -24.7404 C   0  0  0  0  0  0  0  0  0  0  0  0
   -2.5645   21.9029  -23.5040 C   0  0  0  0  0  0  0  0  0  0  0  0
   -2.9851   22.8772  -22.6251 C   0  0  0  0  0  0  0  0  0  0  0  0
   -2.2842   23.2094  -21.4862 C   0  0  0  0  0  0  0  0  0  0  0  0
   -1.1172   22.5789  -21.1654 C   0  0  0  0  0  0  0  0  0  0  0  0
   -0.6625   21.5927  -22.0257 C   0  0  0  0  0  0  0  0  0  0  0  0
   -1.3730   21.2709  -23.1604 C   0  0  0  0  0  0  0  0  0  0  0  0
   -0.4115   22.9361  -19.9886 N   0  0  0  0  0  0  0  0  0  0  0  0
    0.6690   22.1898  -19.6102 O   0  0  0  0  0  0  0  0  0  0  0  0
   -0.7334   23.9040  -19.2808 O   0  0  0  0  0  0  0  0  0  0  0  0
 13 14  1  0  0  0
 14 15  1  0  0  0
 15 16  2  0  0  0
 15 12  1  0  0  0
 12  1  1  0  0  0
  1 19  1  0  0  0
 19 20  1  0  0  0
 20 21  2  0  0  0
 21 22  1  0  0  0
 22 23  2  0  0  0
 23 24  1  0  0  0
 24 25  2  0  0  0
 23 26  1  0  0  0
 26 27  1  0  0  0
 26 28  2  0  0  0
  1  2  1  0  0  0
  2  3  2  0  0  0
  2  4  2  0  0  0
  2  5  1  0  0  0
  5  6  2  0  0  0
  6  7  1  0  0  0
  7  8  2  0  0  0
  8  9  1  0  0  0
  8 10  1  0  0  0
 10 11  2  0  0  0
 25 20  1  0  0  0
 11  5  1  0  0  0
 13 17  1  0  0  0
 14 18  1  0  0  0
M  CHG 1  26   1
M  CHG 1  27  -1
M  END
> <minimizedAffinity>
-7.64502

> <CNNscore>
0.2875055075

> <CNNaffinity>
5.9350523949

> <CNN_VS>
1.7063602209

> <CNNaffinity_variance>
0.2733050287

$$$$
[H]ON([H])C(=O)C([H])([H])N(C([H])([H])c1c([H])c([H])c([N+](=O)[O-])c([H])c1[H])S(=O)(=O)c1c([H])c([H])c(Cl)c([H])c1[H]


 28 29  0  0  0  0  0  0  0  0999 V2000
   -4.5446   24.6151  -27.9834 N   0  0  0  0  0  0  0  0  0  0  0  0
   -5.5937   25.4175  -26.9746 S   0  0  0  0  0  0  0  0  0  0  0  0
   -5.3655   26.9000  -27.0460 O   0  0  0  0  0  0  0  0  0  0  0  0
   -7.0109   25.1885  -27.4100 O   0  0  0  0  0  0  0  0  0  0  0  0
   -5.5187   24.9346  -25.2866 C   0  0  0  0  0  0  0  0  0  0  0  0
   -4.5241   25.3883  -24.4432 C   0  0  0  0  0  0  0  0  0  0  0  0
   -4.4315   25.0370  -23.1282 C   0  0  0  0  0  0  0  0  0  0  0  0
   -5.3698   24.1872  -22.5980 C   0  0  0  0  0  0  0  0  0  0  0  0
   -5.2741   23.7163  -20.9003 Cl  0  0  0  0  0  0  0  0  0  0  0  0
   -6.3721   23.7153  -23.4020 C   0  0  0  0  0  0  0  0  0  0  0  0
   -6.4471   24.0823  -24.7264 C   0  0  0  0  0  0  0  0  0  0  0  0
   -4.1189   25.2521  -29.1703 C   0  0  0  0  0  0  0  0  0  0  0  0
   -6.5615   24.6383  -31.9176 O   0  0  0  0  0  0  0  0  0  0  0  0
   -5.6289   24.4334  -30.9721 N   0  0  0  0  0  0  0  0  0  0  0  0
   -5.1300   25.4885  -30.1922 C   0  0  0  0  0  0  0  0  0  0  0  0
   -5.5668   26.6451  -30.3855 O   0  0  0  0  0  0  0  0  0  0  0  0
   -6.4673   25.5127  -32.3725 H   0  0  0  0  0  0  0  0  0  0  0  0
   -5.2746   23.4742  -30.8203 H   0  0  0  0  0  0  0  0  0  0  0  0
   -4.3276   23.2443  -27.8549 C   0  0  0  0  0  0  0  0  0  0  0  0
   -3.2315   22.8191  -26.9498 C   0  0  0  0  0  0  0  0  0  0  0  0
   -1.8928   23.0313  -27.1983 C   0  0  0  0  0  0  0  0  0  0  0  0
   -0.8985   22.6201  -26.3377 C   0  0  0  0  0  0  0  0  0  0  0  0
   -1.1945   21.9703  -25.1746 C   0  0  0  0  0  0  0  0  0  0  0  0
   -2.5306   21.7390  -24.8903 C   0  0  0  0  0  0  0  0  0  0  0  0
   -3.5140   22.1554  -25.7594 C   0  0  0  0  0  0  0  0  0  0  0  0
   -0.1560   21.5556  -24.3030 N   0  0  0  0  0  0  0  0  0  0  0  0
   -0.4672   21.2050  -23.0193 O   0  0  0  0  0  0  0  0  0  0  0  0
    1.0329   21.4961  -24.6560 O   0  0  0  0  0  0  0  0  0  0  0  0
 13 14  1  0  0  0
 14 15  1  0  0  0
 15 16  2  0  0  0
 15 12  1  0  0  0
 12  1  1  0  0  0
  1 19  1  0  0  0
 19 20  1  0  0  0
 20 21  2  0  0  0
 21 22  1  0  0  0
 22 23  2  0  0  0
 23 24  1  0  0  0
 24 25  2  0  0  0
 23 26  1  0  0  0
 26 27  1  0  0  0
 26 28  2  0  0  0
  1  2  1  0  0  0
  2  3  2  0  0  0
  2  4  2  0  0  0
  2  5  1  0  0  0
  5  6  2  0  0  0
  6  7  1  0  0  0
  7  8  2  0  0  0
  8  9  1  0  0  0
  8 10  1  0  0  0
 10 11  2  0  0  0
 25 20  1  0  0  0
 11  5  1  0  0  0
 13 17  1  0  0  0
 14 18  1  0  0  0
M  CHG 1  26   1
M  CHG 1  27  -1
M  END
> <minimizedAffinity>
-8.39077

> <CNNscore>
0.2707025111

> <CNNaffinity>
6.5491971970

> <CNN_VS>
1.7728841305

> <CNNaffinity_variance>
0.1284343451

$$$$
[H]ON([H])C(=O)C([H])([H])N(C([H])([H])c1c([H])c([H])c([N+](=O)[O-])c([H])c1[H])S(=O)(=O)c1c([H])c([H])c(Cl)c([H])c1[H]


 28 29  0  0  0  0  0  0  0  0999 V2000
   -5.2400   21.9301  -21.2866 N   0  0  0  0  0  0  0  0  0  0  0  0
   -5.3207   21.9385  -22.9465 S   0  0  0  0  0  0  0  0  0  0  0  0
   -4.2214   21.1004  -23.5333 O   0  0  0  0  0  0  0  0  0  0  0  0
   -6.6095   21.3245  -23.4074 O   0  0  0  0  0  0  0  0  0  0  0  0
   -5.2475   23.5306  -23.6870 C   0  0  0  0  0  0  0  0  0  0  0  0
   -4.1836   24.3843  -23.4737 C   0  0  0  0  0  0  0  0  0  0  0  0
   -4.0897   25.6266  -24.0297 C   0  0  0  0  0  0  0  0  0  0  0  0
   -5.0990   26.0679  -24.8485 C   0  0  0  0  0  0  0  0  0  0  0  0
   -5.0035   27.6703  -25.5809 Cl  0  0  0  0  0  0  0  0  0  0  0  0
   -6.1715   25.2507  -25.0848 C   0  0  0  0  0  0  0  0  0  0  0  0
   -6.2463   24.0008  -24.5137 C   0  0  0  0  0  0  0  0  0  0  0  0
   -4.0472   21.4993  -20.6643 C   0  0  0  0  0  0  0  0  0  0  0  0
   -1.1271   23.8034  -20.4305 O   0  0  0  0  0  0  0  0  0  0  0  0
   -1.9668   22.8508  -20.8698 N   0  0  0  0  0  0  0  0  0  0  0  0
   -3.1456   22.5346  -20.1765 C   0  0  0  0  0  0  0  0  0  0  0  0
   -3.4166   23.1569  -19.1252 O   0  0  0  0  0  0  0  0  0  0  0  0
   -1.0814   23.8551  -19.4427 H   0  0  0  0  0  0  0  0  0  0  0  0
   -1.7337   22.3425  -21.7393 H   0  0  0  0  0  0  0  0  0  0  0  0
   -6.3920   22.0307  -20.5084 C   0  0  0  0  0  0  0  0  0  0  0  0
   -7.1900   23.2740  -20.6464 C   0  0  0  0  0  0  0  0  0  0  0  0
   -8.4995   23.3128  -21.0733 C   0  0  0  0  0  0  0  0  0  0  0  0
   -9.2118   24.4861  -21.1940 C   0  0  0  0  0  0  0  0  0  0  0  0
   -8.6462   25.6906  -20.8911 C   0  0  0  0  0  0  0  0  0  0  0  0
   -7.3302   25.6915  -20.4580 C   0  0  0  0  0  0  0  0  0  0  0  0
   -6.6302   24.5115  -20.3421 C   0  0  0  0  0  0  0  0  0  0  0  0
   -9.3969   26.8863  -21.0223 N   0  0  0  0  0  0  0  0  0  0  0  0
  -10.0301   27.1461  -22.2052 O   0  0  0  0  0  0  0  0  0  0  0  0
   -9.5059   27.7145  -20.1038 O   0  0  0  0  0  0  0  0  0  0  0  0
 13 14  1  0  0  0
 14 15  1  0  0  0
 15 16  2  0  0  0
 15 12  1  0  0  0
 12  1  1  0  0  0
  1 19  1  0  0  0
 19 20  1  0  0  0
 20 21  2  0  0  0
 21 22  1  0  0  0
 22 23  2  0  0  0
 23 24  1  0  0  0
 24 25  2  0  0  0
 23 26  1  0  0  0
 26 27  1  0  0  0
 26 28  2  0  0  0
  1  2  1  0  0  0
  2  3  2  0  0  0
  2  4  2  0  0  0
  2  5  1  0  0  0
  5  6  2  0  0  0
  6  7  1  0  0  0
  7  8  2  0  0  0
  8  9  1  0  0  0
  8 10  1  0  0  0
 10 11  2  0  0  0
 25 20  1  0  0  0
 11  5  1  0  0  0
 13 17  1  0  0  0
 14 18  1  0  0  0
M  CHG 1  26   1
M  CHG 1  27  -1
M  END
> <minimizedAffinity>
-6.41673

> <CNNscore>
0.2703671455

> <CNNaffinity>
5.1875100136

> <CNN_VS>
1.4025322199

> <CNNaffinity_variance>
0.5735179186

$$$$
[H]ON([H])C(=O)C([H])([H])N(C([H])([H])c1c([H])c([H])c([N+](=O)[O-])c([H])c1[H])S(=O)(=O)c1c([H])c([H])c(Cl)c([H])c1[H]


 28 29  0  0  0  0  0  0  0  0999 V2000
   -6.2692   24.5478  -22.5193 N   0  0  0  0  0  0  0  0  0  0  0  0
   -5.3047   23.3929  -21.8136 S   0  0  0  0  0  0  0  0  0  0  0  0
   -4.9011   23.8150  -20.4302 O   0  0  0  0  0  0  0  0  0  0  0  0
   -6.0625   22.1077  -21.6571 O   0  0  0  0  0  0  0  0  0  0  0  0
   -3.8466   22.9926  -22.7092 C   0  0  0  0  0  0  0  0  0  0  0  0
   -3.8520   22.0644  -23.7314 C   0  0  0  0  0  0  0  0  0  0  0  0
   -2.7424   21.7266  -24.4496 C   0  0  0  0  0  0  0  0  0  0  0  0
   -1.5471   22.3328  -24.1535 C   0  0  0  0  0  0  0  0  0  0  0  0
   -0.0963   21.9147  -25.0664 Cl  0  0  0  0  0  0  0  0  0  0  0  0
   -1.5005   23.2588  -23.1464 C   0  0  0  0  0  0  0  0  0  0  0  0
   -2.6319   23.5851  -22.4341 C   0  0  0  0  0  0  0  0  0  0  0  0
   -7.6721   24.4260  -22.4066 C   0  0  0  0  0  0  0  0  0  0  0  0
  -10.2897   27.0288  -22.9203 O   0  0  0  0  0  0  0  0  0  0  0  0
   -9.5792   25.8947  -23.0411 N   0  0  0  0  0  0  0  0  0  0  0  0
   -8.4331   25.6602  -22.2654 C   0  0  0  0  0  0  0  0  0  0  0  0
   -8.0683   26.5306  -21.4436 O   0  0  0  0  0  0  0  0  0  0  0  0
   -9.7281   27.8190  -22.7188 H   0  0  0  0  0  0  0  0  0  0  0  0
   -9.8889   25.1821  -23.7230 H   0  0  0  0  0  0  0  0  0  0  0  0
   -5.7570   25.4358  -23.4637 C   0  0  0  0  0  0  0  0  0  0  0  0
   -5.6431   24.9423  -24.8583 C   0  0  0  0  0  0  0  0  0  0  0  0
   -6.6019   24.1841  -25.4943 C   0  0  0  0  0  0  0  0  0  0  0  0
   -6.4634   23.7381  -26.7907 C   0  0  0  0  0  0  0  0  0  0  0  0
   -5.3497   24.0302  -27.5234 C   0  0  0  0  0  0  0  0  0  0  0  0
   -4.3634   24.7912  -26.9171 C   0  0  0  0  0  0  0  0  0  0  0  0
   -4.5150   25.2302  -25.6209 C   0  0  0  0  0  0  0  0  0  0  0  0
   -5.2272   23.5614  -28.8559 N   0  0  0  0  0  0  0  0  0  0  0  0
   -4.1763   22.7501  -29.1801 O   0  0  0  0  0  0  0  0  0  0  0  0
   -6.0379   23.8570  -29.7486 O   0  0  0  0  0  0  0  0  0  0  0  0
 13 14  1  0  0  0
 14 15  1  0  0  0
 15 16  2  0  0  0
 15 12  1  0  0  0
 12  1  1  0  0  0
  1 19  1  0  0  0
 19 20  1  0  0  0
 20 21  2  0  0  0
 21 22  1  0  0  0
 22 23  2  0  0  0
 23 24  1  0  0  0
 24 25  2  0  0  0
 23 26  1  0  0  0
 26 27  1  0  0  0
 26 28  2  0  0  0
  1  2  1  0  0  0
  2  3  2  0  0  0
  2  4  2  0  0  0
  2  5  1  0  0  0
  5  6  2  0  0  0
  6  7  1  0  0  0
  7  8  2  0  0  0
  8  9  1  0  0  0
  8 10  1  0  0  0
 10 11  2  0  0  0
 25 20  1  0  0  0
 11  5  1  0  0  0
 13 17  1  0  0  0
 14 18  1  0  0  0
M  CHG 1  26   1
M  CHG 1  27  -1
M  END
> <minimizedAffinity>
-7.34038

> <CNNscore>
0.2680358887

> <CNNaffinity>
5.9215393066

> <CNN_VS>
1.5871850252

> <CNNaffinity_variance>
0.1391981542

$$$$
[H]ON([H])C(=O)C([H])([H])N(C([H])([H])c1c([H])c([H])c([N+](=O)[O-])c([H])c1[H])S(=O)(=O)c1c([H])c([H])c(Cl)c([H])c1[H]


 28 29  0  0  0  0  0  0  0  0999 V2000
   -2.3457   22.7425  -21.9335 N   0  0  0  0  0  0  0  0  0  0  0  0
   -1.6298   22.4328  -20.4660 S   0  0  0  0  0  0  0  0  0  0  0  0
   -0.9502   23.6640  -19.9393 O   0  0  0  0  0  0  0  0  0  0  0  0
   -2.6680   22.0582  -19.4499 O   0  0  0  0  0  0  0  0  0  0  0  0
   -0.4584   21.1229  -20.4711 C   0  0  0  0  0  0  0  0  0  0  0  0
    0.6282   21.1214  -21.3230 C   0  0  0  0  0  0  0  0  0  0  0  0
    1.5587   20.1244  -21.3574 C   0  0  0  0  0  0  0  0  0  0  0  0
    1.4230   19.0569  -20.5054 C   0  0  0  0  0  0  0  0  0  0  0  0
    2.6119   17.7534  -20.5286 Cl  0  0  0  0  0  0  0  0  0  0  0  0
    0.3588   19.0213  -19.6453 C   0  0  0  0  0  0  0  0  0  0  0  0
   -0.5688   20.0379  -19.6269 C   0  0  0  0  0  0  0  0  0  0  0  0
   -3.0989   23.9276  -22.0879 C   0  0  0  0  0  0  0  0  0  0  0  0
   -6.5198   23.2509  -20.7725 O   0  0  0  0  0  0  0  0  0  0  0  0
   -5.1834   23.3707  -20.8464 N   0  0  0  0  0  0  0  0  0  0  0  0
   -4.5488   23.8021  -22.0218 C   0  0  0  0  0  0  0  0  0  0  0  0
   -5.2480   24.0802  -23.0216 O   0  0  0  0  0  0  0  0  0  0  0  0
   -6.9309   22.9588  -21.6246 H   0  0  0  0  0  0  0  0  0  0  0  0
   -4.6149   23.1384  -20.0148 H   0  0  0  0  0  0  0  0  0  0  0  0
   -2.4856   21.7411  -22.8929 C   0  0  0  0  0  0  0  0  0  0  0  0
   -2.0215   22.0565  -24.2664 C   0  0  0  0  0  0  0  0  0  0  0  0
   -2.8562   22.2087  -25.3523 C   0  0  0  0  0  0  0  0  0  0  0  0
   -2.3921   22.4984  -26.6169 C   0  0  0  0  0  0  0  0  0  0  0  0
   -1.0585   22.6522  -26.8623 C   0  0  0  0  0  0  0  0  0  0  0  0
   -0.1879   22.5066  -25.7944 C   0  0  0  0  0  0  0  0  0  0  0  0
   -0.6655   22.2170  -24.5358 C   0  0  0  0  0  0  0  0  0  0  0  0
   -0.6020   22.9501  -28.1712 N   0  0  0  0  0  0  0  0  0  0  0  0
   -1.5040   23.3638  -29.1107 O   0  0  0  0  0  0  0  0  0  0  0  0
    0.5898   22.8512  -28.5050 O   0  0  0  0  0  0  0  0  0  0  0  0
 13 14  1  0  0  0
 14 15  1  0  0  0
 15 16  2  0  0  0
 15 12  1  0  0  0
 12  1  1  0  0  0
  1 19  1  0  0  0
 19 20  1  0  0  0
 20 21  2  0  0  0
 21 22  1  0  0  0
 22 23  2  0  0  0
 23 24  1  0  0  0
 24 25  2  0  0  0
 23 26  1  0  0  0
 26 27  1  0  0  0
 26 28  2  0  0  0
  1  2  1  0  0  0
  2  3  2  0  0  0
  2  4  2  0  0  0
  2  5  1  0  0  0
  5  6  2  0  0  0
  6  7  1  0  0  0
  7  8  2  0  0  0
  8  9  1  0  0  0
  8 10  1  0  0  0
 10 11  2  0  0  0
 25 20  1  0  0  0
 11  5  1  0  0  0
 13 17  1  0  0  0
 14 18  1  0  0  0
M  CHG 1  26   1
M  CHG 1  27  -1
M  END
> <minimizedAffinity>
-6.45285

> <CNNscore>
0.2590559721

> <CNNaffinity>
5.7260828018

> <CNN_VS>
1.4833759069

> <CNNaffinity_variance>
0.1243048459

$$$$
[H]ON([H])C(=O)C([H])([H])N(C([H])([H])c1c([H])c([H])c([N+](=O)[O-])c([H])c1[H])S(=O)(=O)c1c([H])c([H])c(Cl)c([H])c1[H]


 28 29  0  0  0  0  0  0  0  0999 V2000
   -4.3833   23.4387  -23.3776 N   0  0  0  0  0  0  0  0  0  0  0  0
   -3.8197   21.8967  -23.1194 S   0  0  0  0  0  0  0  0  0  0  0  0
   -4.2449   21.3981  -21.7682 O   0  0  0  0  0  0  0  0  0  0  0  0
   -4.4128   20.9517  -24.1222 O   0  0  0  0  0  0  0  0  0  0  0  0
   -2.0769   21.7105  -23.2460 C   0  0  0  0  0  0  0  0  0  0  0  0
   -1.2997   21.3734  -22.1557 C   0  0  0  0  0  0  0  0  0  0  0  0
    0.0546   21.2195  -22.2131 C   0  0  0  0  0  0  0  0  0  0  0  0
    0.6960   21.4061  -23.4120 C   0  0  0  0  0  0  0  0  0  0  0  0
    2.4469   21.2135  -23.5149 Cl  0  0  0  0  0  0  0  0  0  0  0  0
   -0.0395   21.7413  -24.5167 C   0  0  0  0  0  0  0  0  0  0  0  0
   -1.4052   21.8917  -24.4369 C   0  0  0  0  0  0  0  0  0  0  0  0
   -5.7403   23.7228  -23.1067 C   0  0  0  0  0  0  0  0  0  0  0  0
   -7.2931   26.7651  -21.6154 O   0  0  0  0  0  0  0  0  0  0  0  0
   -7.0301   25.7500  -22.4557 N   0  0  0  0  0  0  0  0  0  0  0  0
   -6.0148   24.8187  -22.1868 C   0  0  0  0  0  0  0  0  0  0  0  0
   -5.3416   24.9407  -21.1391 O   0  0  0  0  0  0  0  0  0  0  0  0
   -6.4838   27.1169  -21.1664 H   0  0  0  0  0  0  0  0  0  0  0  0
   -7.5920   25.6581  -23.3185 H   0  0  0  0  0  0  0  0  0  0  0  0
   -3.6548   24.3552  -24.1341 C   0  0  0  0  0  0  0  0  0  0  0  0
   -4.1577   24.6515  -25.4981 C   0  0  0  0  0  0  0  0  0  0  0  0
   -4.6747   25.8679  -25.8878 C   0  0  0  0  0  0  0  0  0  0  0  0
   -5.1372   26.1094  -27.1631 C   0  0  0  0  0  0  0  0  0  0  0  0
   -5.1059   25.1388  -28.1219 C   0  0  0  0  0  0  0  0  0  0  0  0
   -4.5924   23.9019  -27.7671 C   0  0  0  0  0  0  0  0  0  0  0  0
   -4.1337   23.6743  -26.4890 C   0  0  0  0  0  0  0  0  0  0  0  0
   -5.5869   25.4083  -29.4282 N   0  0  0  0  0  0  0  0  0  0  0  0
   -6.1099   24.3846  -30.1673 O   0  0  0  0  0  0  0  0  0  0  0  0
   -5.5543   26.5413  -29.9350 O   0  0  0  0  0  0  0  0  0  0  0  0
 13 14  1  0  0  0
 14 15  1  0  0  0
 15 16  2  0  0  0
 15 12  1  0  0  0
 12  1  1  0  0  0
  1 19  1  0  0  0
 19 20  1  0  0  0
 20 21  2  0  0  0
 21 22  1  0  0  0
 22 23  2  0  0  0
 23 24  1  0  0  0
 24 25  2  0  0  0
 23 26  1  0  0  0
 26 27  1  0  0  0
 26 28  2  0  0  0
  1  2  1  0  0  0
  2  3  2  0  0  0
  2  4  2  0  0  0
  2  5  1  0  0  0
  5  6  2  0  0  0
  6  7  1  0  0  0
  7  8  2  0  0  0
  8  9  1  0  0  0
  8 10  1  0  0  0
 10 11  2  0  0  0
 25 20  1  0  0  0
 11  5  1  0  0  0
 13 17  1  0  0  0
 14 18  1  0  0  0
M  CHG 1  26   1
M  CHG 1  27  -1
M  END
> <minimizedAffinity>
-7.98090

> <CNNscore>
0.2233577371

> <CNNaffinity>
6.0656347275

> <CNN_VS>
1.3548064232

> <CNNaffinity_variance>
0.0881526619

$$$$
[H]ON([H])C(=O)C([H])([H])N(C([H])([H])c1c([H])c([H])c([N+](=O)[O-])c([H])c1[H])S(=O)(=O)c1c([H])c([H])c(Cl)c([H])c1[H]


 28 29  0  0  0  0  0  0  0  0999 V2000
   -5.6538   25.1362  -28.3040 N   0  0  0  0  0  0  0  0  0  0  0  0
   -5.4662   23.4908  -28.1640 S   0  0  0  0  0  0  0  0  0  0  0  0
   -6.7017   22.8657  -27.5827 O   0  0  0  0  0  0  0  0  0  0  0  0
   -5.2788   22.8719  -29.5177 O   0  0  0  0  0  0  0  0  0  0  0  0
   -4.0897   22.9782  -27.1993 C   0  0  0  0  0  0  0  0  0  0  0  0
   -4.2468   22.4148  -25.9485 C   0  0  0  0  0  0  0  0  0  0  0  0
   -3.2048   22.0044  -25.1696 C   0  0  0  0  0  0  0  0  0  0  0  0
   -1.9236   22.1519  -25.6391 C   0  0  0  0  0  0  0  0  0  0  0  0
   -0.5571   21.6298  -24.6525 Cl  0  0  0  0  0  0  0  0  0  0  0  0
   -1.7260   22.7065  -26.8749 C   0  0  0  0  0  0  0  0  0  0  0  0
   -2.7915   23.1139  -27.6448 C   0  0  0  0  0  0  0  0  0  0  0  0
   -4.9049   25.8268  -29.2827 C   0  0  0  0  0  0  0  0  0  0  0  0
   -6.6185   25.1462  -32.5217 O   0  0  0  0  0  0  0  0  0  0  0  0
   -6.0267   24.9614  -31.3295 N   0  0  0  0  0  0  0  0  0  0  0  0
   -5.5444   26.0416  -30.5739 C   0  0  0  0  0  0  0  0  0  0  0  0
   -5.6706   27.2019  -31.0252 O   0  0  0  0  0  0  0  0  0  0  0  0
   -6.2329   25.9011  -33.0334 H   0  0  0  0  0  0  0  0  0  0  0  0
   -5.9273   23.9989  -30.9656 H   0  0  0  0  0  0  0  0  0  0  0  0
   -6.2736   25.8789  -27.3006 C   0  0  0  0  0  0  0  0  0  0  0  0
   -5.8340   25.6240  -25.9066 C   0  0  0  0  0  0  0  0  0  0  0  0
   -4.5877   25.9453  -25.4143 C   0  0  0  0  0  0  0  0  0  0  0  0
   -4.2096   25.6915  -24.1139 C   0  0  0  0  0  0  0  0  0  0  0  0
   -5.0656   25.0984  -23.2319 C   0  0  0  0  0  0  0  0  0  0  0  0
   -6.3284   24.7608  -23.6908 C   0  0  0  0  0  0  0  0  0  0  0  0
   -6.6931   25.0203  -24.9929 C   0  0  0  0  0  0  0  0  0  0  0  0
   -4.6563   24.8460  -21.8980 N   0  0  0  0  0  0  0  0  0  0  0  0
   -5.4485   25.2713  -20.8688 O   0  0  0  0  0  0  0  0  0  0  0  0
   -3.6023   24.2514  -21.6205 O   0  0  0  0  0  0  0  0  0  0  0  0
 13 14  1  0  0  0
 14 15  1  0  0  0
 15 16  2  0  0  0
 15 12  1  0  0  0
 12  1  1  0  0  0
  1 19  1  0  0  0
 19 20  1  0  0  0
 20 21  2  0  0  0
 21 22  1  0  0  0
 22 23  2  0  0  0
 23 24  1  0  0  0
 24 25  2  0  0  0
 23 26  1  0  0  0
 26 27  1  0  0  0
 26 28  2  0  0  0
  1  2  1  0  0  0
  2  3  2  0  0  0
  2  4  2  0  0  0
  2  5  1  0  0  0
  5  6  2  0  0  0
  6  7  1  0  0  0
  7  8  2  0  0  0
  8  9  1  0  0  0
  8 10  1  0  0  0
 10 11  2  0  0  0
 25 20  1  0  0  0
 11  5  1  0  0  0
 13 17  1  0  0  0
 14 18  1  0  0  0
M  CHG 1  26   1
M  CHG 1  27  -1
M  END
> <minimizedAffinity>
-8.42256

> <CNNscore>
0.2157640904

> <CNNaffinity>
6.2189512253

> <CNN_VS>
1.3418263197

> <CNNaffinity_variance>
0.1219571680

$$$$
[H]c1nc(N([H])C(=O)N([H])[C@]([H])(C(=O)N([H])c2c([H])c([H])c(Cl)c([H])c2C(F)(F)F)C([H])([H])c2c([H])c([H])c([H])c([H])c2[H])sc1[H]


 34 36  0  0  0  0  0  0  0  0999 V2000
   -5.2396   23.4457  -24.4125 C   0  0  0  0  0  0  0  0  0  0  0  0
   -5.3681   22.9294  -25.7818 N   0  0  0  0  0  0  0  0  0  0  0  0
   -5.2372   23.7952  -26.8997 C   0  0  0  0  0  0  0  0  0  0  0  0
   -5.0050   25.0327  -26.6796 O   0  0  0  0  0  0  0  0  0  0  0  0
   -5.3512   23.3530  -28.2309 N   0  0  0  0  0  0  0  0  0  0  0  0
   -5.5577   21.9173  -25.9527 H   0  0  0  0  0  0  0  0  0  0  0  0
   -5.5388   22.3647  -28.4589 H   0  0  0  0  0  0  0  0  0  0  0  0
   -5.2105   24.2646  -29.3384 C   0  0  0  0  0  0  0  0  0  0  0  0
   -6.0629   24.4894  -30.3310 N   0  0  0  0  0  0  0  0  0  0  0  0
   -5.7703   25.3510  -31.2483 C   0  0  0  0  0  0  0  0  0  0  0  0
   -4.5684   26.0063  -31.1518 C   0  0  0  0  0  0  0  0  0  0  0  0
   -3.9277   25.3259  -29.7203 S   0  0  0  0  0  0  0  0  0  0  0  0
   -3.0169   22.3281  -24.4493 N   0  0  0  0  0  0  0  0  0  0  0  0
   -3.8049   23.3739  -23.9837 C   0  0  0  0  0  0  0  0  0  0  0  0
   -3.3973   24.2665  -23.2226 O   0  0  0  0  0  0  0  0  0  0  0  0
   -3.5223   21.6274  -25.0977 H   0  0  0  0  0  0  0  0  0  0  0  0
   -0.6999   22.1006  -25.2024 C   0  0  0  0  0  0  0  0  0  0  0  0
    0.6438   21.7974  -24.9403 C   0  0  0  0  0  0  0  0  0  0  0  0
    1.0914   21.4390  -23.7029 C   0  0  0  0  0  0  0  0  0  0  0  0
    2.7907   21.0620  -23.4005 Cl  0  0  0  0  0  0  0  0  0  0  0  0
    0.1670   21.3821  -22.6976 C   0  0  0  0  0  0  0  0  0  0  0  0
   -1.1790   21.6816  -22.9426 C   0  0  0  0  0  0  0  0  0  0  0  0
   -1.6523   22.0455  -24.1852 C   0  0  0  0  0  0  0  0  0  0  0  0
    0.0369   22.5880  -27.3462 F   0  0  0  0  0  0  0  0  0  0  0  0
   -1.0862   22.4957  -26.5647 C   0  0  0  0  0  0  0  0  0  0  0  0
   -1.8312   21.4351  -27.1170 F   0  0  0  0  0  0  0  0  0  0  0  0
   -1.8928   23.6100  -26.6300 F   0  0  0  0  0  0  0  0  0  0  0  0
   -6.1757   22.7310  -23.4913 C   0  0  0  0  0  0  0  0  0  0  0  0
   -7.2566   23.5298  -22.9329 C   0  0  0  0  0  0  0  0  0  0  0  0
   -7.8235   23.1573  -21.7204 C   0  0  0  0  0  0  0  0  0  0  0  0
   -8.8565   23.8767  -21.1611 C   0  0  0  0  0  0  0  0  0  0  0  0
   -9.3362   24.9895  -21.8204 C   0  0  0  0  0  0  0  0  0  0  0  0
   -8.7775   25.3590  -23.0187 C   0  0  0  0  0  0  0  0  0  0  0  0
   -7.7469   24.6302  -23.5641 C   0  0  0  0  0  0  0  0  0  0  0  0
 24 25  1  0  0  0
 25 26  1  0  0  0
 25 27  1  0  0  0
 25 17  1  0  0  0
 17 18  2  0  0  0
 18 19  1  0  0  0
 19 20  1  0  0  0
 19 21  2  0  0  0
 21 22  1  0  0  0
 22 23  2  0  0  0
 23 13  1  0  0  0
 13 14  1  0  0  0
 14 15  2  0  0  0
 14  1  1  0  0  0
  1 28  1  0  0  0
 28 29  1  0  0  0
 29 30  2  0  0  0
 30 31  1  0  0  0
 31 32  2  0  0  0
 32 33  1  0  0  0
 33 34  2  0  0  0
  1  2  1  0  0  0
  2  3  1  0  0  0
  3  4  2  0  0  0
  3  5  1  0  0  0
  5  8  1  0  0  0
  8  9  2  0  0  0
  9 10  1  0  0  0
 10 11  2  0  0  0
 11 12  1  0  0  0
 23 17  1  0  0  0
 34 29  1  0  0  0
 12  8  1  0  0  0
 13 16  1  0  0  0
  2  6  1  0  0  0
  5  7  1  0  0  0
M  END
> <minimizedAffinity>
-8.98177

> <CNNscore>
0.2165730596

> <CNNaffinity>
6.5587859154

> <CNN_VS>
1.4204562902

> <CNNaffinity_variance>
0.4250827730

$$$$
[H]c1nc(N([H])C(=O)N([H])[C@]([H])(C(=O)N([H])c2c([H])c([H])c(Cl)c([H])c2C(F)(F)F)C([H])([H])c2c([H])c([H])c([H])c([H])c2[H])sc1[H]


 34 36  0  0  0  0  0  0  0  0999 V2000
   -6.1787   23.6568  -25.0865 C   0  0  0  0  0  0  0  0  0  0  0  0
   -6.9748   23.8115  -23.8615 N   0  0  0  0  0  0  0  0  0  0  0  0
   -6.8480   22.8868  -22.7914 C   0  0  0  0  0  0  0  0  0  0  0  0
   -6.0233   21.9194  -22.9253 O   0  0  0  0  0  0  0  0  0  0  0  0
   -7.5858   22.9885  -21.5973 N   0  0  0  0  0  0  0  0  0  0  0  0
   -7.6458   24.6045  -23.7603 H   0  0  0  0  0  0  0  0  0  0  0  0
   -8.2636   23.7506  -21.4428 H   0  0  0  0  0  0  0  0  0  0  0  0
   -7.4267   22.0289  -20.5336 C   0  0  0  0  0  0  0  0  0  0  0  0
   -8.2608   21.0637  -20.1662 N   0  0  0  0  0  0  0  0  0  0  0  0
   -7.9533   20.2879  -19.1798 C   0  0  0  0  0  0  0  0  0  0  0  0
   -6.7554   20.5021  -18.5455 C   0  0  0  0  0  0  0  0  0  0  0  0
   -6.1400   21.8308  -19.4278 S   0  0  0  0  0  0  0  0  0  0  0  0
   -3.9816   22.4978  -24.9450 N   0  0  0  0  0  0  0  0  0  0  0  0
   -4.7205   23.6566  -24.7385 C   0  0  0  0  0  0  0  0  0  0  0  0
   -4.2498   24.7085  -24.2758 O   0  0  0  0  0  0  0  0  0  0  0  0
   -4.5394   21.6643  -25.3463 H   0  0  0  0  0  0  0  0  0  0  0  0
   -1.6581   22.3927  -25.7052 C   0  0  0  0  0  0  0  0  0  0  0  0
   -0.3041   22.1261  -25.4566 C   0  0  0  0  0  0  0  0  0  0  0  0
    0.1567   21.7229  -24.2380 C   0  0  0  0  0  0  0  0  0  0  0  0
    1.8687   21.3936  -23.9524 Cl  0  0  0  0  0  0  0  0  0  0  0  0
   -0.7646   21.5823  -23.2381 C   0  0  0  0  0  0  0  0  0  0  0  0
   -2.1207   21.8444  -23.4698 C   0  0  0  0  0  0  0  0  0  0  0  0
   -2.6075   22.2523  -24.6934 C   0  0  0  0  0  0  0  0  0  0  0  0
   -2.6177   24.0902  -26.9599 F   0  0  0  0  0  0  0  0  0  0  0  0
   -2.0591   22.8409  -27.0467 C   0  0  0  0  0  0  0  0  0  0  0  0
   -0.8831   23.0167  -27.8025 F   0  0  0  0  0  0  0  0  0  0  0  0
   -2.8349   21.9404  -27.7424 F   0  0  0  0  0  0  0  0  0  0  0  0
   -6.5536   24.6980  -26.0919 C   0  0  0  0  0  0  0  0  0  0  0  0
   -5.8914   24.6056  -27.3847 C   0  0  0  0  0  0  0  0  0  0  0  0
   -5.2540   25.7248  -27.9058 C   0  0  0  0  0  0  0  0  0  0  0  0
   -4.6254   25.6860  -29.1309 C   0  0  0  0  0  0  0  0  0  0  0  0
   -4.6302   24.5108  -29.8532 C   0  0  0  0  0  0  0  0  0  0  0  0
   -5.2596   23.4039  -29.3400 C   0  0  0  0  0  0  0  0  0  0  0  0
   -5.8829   23.4587  -28.1157 C   0  0  0  0  0  0  0  0  0  0  0  0
 24 25  1  0  0  0
 25 26  1  0  0  0
 25 27  1  0  0  0
 25 17  1  0  0  0
 17 18  2  0  0  0
 18 19  1  0  0  0
 19 20  1  0  0  0
 19 21  2  0  0  0
 21 22  1  0  0  0
 22 23  2  0  0  0
 23 13  1  0  0  0
 13 14  1  0  0  0
 14 15  2  0  0  0
 14  1  1  0  0  0
  1 28  1  0  0  0
 28 29  1  0  0  0
 29 30  2  0  0  0
 30 31  1  0  0  0
 31 32  2  0  0  0
 32 33  1  0  0  0
 33 34  2  0  0  0
  1  2  1  0  0  0
  2  3  1  0  0  0
  3  4  2  0  0  0
  3  5  1  0  0  0
  5  8  1  0  0  0
  8  9  2  0  0  0
  9 10  1  0  0  0
 10 11  2  0  0  0
 11 12  1  0  0  0
 23 17  1  0  0  0
 34 29  1  0  0  0
 12  8  1  0  0  0
 13 16  1  0  0  0
  2  6  1  0  0  0
  5  7  1  0  0  0
M  END
> <minimizedAffinity>
-8.52921

> <CNNscore>
0.1624143571

> <CNNaffinity>
6.3108358383

> <CNN_VS>
1.0249702930

> <CNNaffinity_variance>
0.2718258500

$$$$
[H]c1nc(N([H])C(=O)N([H])[C@]([H])(C(=O)N([H])c2c([H])c([H])c(Cl)c([H])c2C(F)(F)F)C([H])([H])c2c([H])c([H])c([H])c([H])c2[H])sc1[H]


 34 36  0  0  0  0  0  0  0  0999 V2000
   -4.4659   22.3582  -24.8937 C   0  0  0  0  0  0  0  0  0  0  0  0
   -4.4971   23.7463  -25.3734 N   0  0  0  0  0  0  0  0  0  0  0  0
   -4.7077   24.0352  -26.7477 C   0  0  0  0  0  0  0  0  0  0  0  0
   -4.8689   23.0548  -27.5518 O   0  0  0  0  0  0  0  0  0  0  0  0
   -4.7466   25.3456  -27.2596 N   0  0  0  0  0  0  0  0  0  0  0  0
   -4.3647   24.5411  -24.7099 H   0  0  0  0  0  0  0  0  0  0  0  0
   -4.6210   26.1687  -26.6508 H   0  0  0  0  0  0  0  0  0  0  0  0
   -4.9641   25.5964  -28.6622 C   0  0  0  0  0  0  0  0  0  0  0  0
   -6.1084   25.8584  -29.2822 N   0  0  0  0  0  0  0  0  0  0  0  0
   -6.1178   26.0595  -30.5584 C   0  0  0  0  0  0  0  0  0  0  0  0
   -4.9211   25.9914  -31.2266 C   0  0  0  0  0  0  0  0  0  0  0  0
   -3.8419   25.6360  -29.9493 S   0  0  0  0  0  0  0  0  0  0  0  0
   -6.0799   23.0023  -23.1129 N   0  0  0  0  0  0  0  0  0  0  0  0
   -5.6951   22.0823  -24.0810 C   0  0  0  0  0  0  0  0  0  0  0  0
   -6.3073   21.0291  -24.3220 O   0  0  0  0  0  0  0  0  0  0  0  0
   -5.4363   23.8648  -23.0193 H   0  0  0  0  0  0  0  0  0  0  0  0
   -8.1148   24.0032  -22.1939 C   0  0  0  0  0  0  0  0  0  0  0  0
   -9.1938   23.9701  -21.2990 C   0  0  0  0  0  0  0  0  0  0  0  0
   -9.3971   22.9420  -20.4263 C   0  0  0  0  0  0  0  0  0  0  0  0
  -10.7656   22.9258  -19.3091 Cl  0  0  0  0  0  0  0  0  0  0  0  0
   -8.4939   21.9163  -20.4494 C   0  0  0  0  0  0  0  0  0  0  0  0
   -7.4105   21.9341  -21.3368 C   0  0  0  0  0  0  0  0  0  0  0  0
   -7.1865   22.9631  -22.2265 C   0  0  0  0  0  0  0  0  0  0  0  0
   -8.1858   24.7170  -24.3988 F   0  0  0  0  0  0  0  0  0  0  0  0
   -7.9877   25.1450  -23.1111 C   0  0  0  0  0  0  0  0  0  0  0  0
   -9.0592   26.0207  -22.8467 F   0  0  0  0  0  0  0  0  0  0  0  0
   -6.8362   25.8829  -22.9496 F   0  0  0  0  0  0  0  0  0  0  0  0
   -3.1911   22.0833  -24.1623 C   0  0  0  0  0  0  0  0  0  0  0  0
   -1.9760   22.1133  -24.9627 C   0  0  0  0  0  0  0  0  0  0  0  0
   -0.7448   22.2265  -24.3289 C   0  0  0  0  0  0  0  0  0  0  0  0
    0.4296   22.2710  -25.0475 C   0  0  0  0  0  0  0  0  0  0  0  0
    0.3796   22.2016  -26.4243 C   0  0  0  0  0  0  0  0  0  0  0  0
   -0.8360   22.0898  -27.0523 C   0  0  0  0  0  0  0  0  0  0  0  0
   -1.9996   22.0469  -26.3209 C   0  0  0  0  0  0  0  0  0  0  0  0
 24 25  1  0  0  0
 25 26  1  0  0  0
 25 27  1  0  0  0
 25 17  1  0  0  0
 17 18  2  0  0  0
 18 19  1  0  0  0
 19 20  1  0  0  0
 19 21  2  0  0  0
 21 22  1  0  0  0
 22 23  2  0  0  0
 23 13  1  0  0  0
 13 14  1  0  0  0
 14 15  2  0  0  0
 14  1  1  0  0  0
  1 28  1  0  0  0
 28 29  1  0  0  0
 29 30  2  0  0  0
 30 31  1  0  0  0
 31 32  2  0  0  0
 32 33  1  0  0  0
 33 34  2  0  0  0
  1  2  1  0  0  0
  2  3  1  0  0  0
  3  4  2  0  0  0
  3  5  1  0  0  0
  5  8  1  0  0  0
  8  9  2  0  0  0
  9 10  1  0  0  0
 10 11  2  0  0  0
 11 12  1  0  0  0
 23 17  1  0  0  0
 34 29  1  0  0  0
 12  8  1  0  0  0
 13 16  1  0  0  0
  2  6  1  0  0  0
  5  7  1  0  0  0
M  END
> <minimizedAffinity>
-9.05432

> <CNNscore>
0.1572494656

> <CNNaffinity>
6.2640018463

> <CNN_VS>
0.9850109220

> <CNNaffinity_variance>
0.1913945377

$$$$
[H]c1nc(N([H])C(=O)N([H])[C@]([H])(C(=O)N([H])c2c([H])c([H])c(Cl)c([H])c2C(F)(F)F)C([H])([H])c2c([H])c([H])c([H])c([H])c2[H])sc1[H]


 34 36  0  0  0  0  0  0  0  0999 V2000
   -4.2692   24.4299  -24.2702 C   0  0  0  0  0  0  0  0  0  0  0  0
   -4.9729   25.2801  -23.3006 N   0  0  0  0  0  0  0  0  0  0  0  0
   -6.3636   25.1158  -23.0655 C   0  0  0  0  0  0  0  0  0  0  0  0
   -6.9826   24.2091  -23.7203 O   0  0  0  0  0  0  0  0  0  0  0  0
   -7.0855   25.9024  -22.1486 N   0  0  0  0  0  0  0  0  0  0  0  0
   -4.4598   26.0180  -22.7699 H   0  0  0  0  0  0  0  0  0  0  0  0
   -6.6307   26.6464  -21.5977 H   0  0  0  0  0  0  0  0  0  0  0  0
   -8.4974   25.7028  -21.9382 C   0  0  0  0  0  0  0  0  0  0  0  0
   -9.5100   26.3931  -22.4487 N   0  0  0  0  0  0  0  0  0  0  0  0
  -10.7247   26.0714  -22.1487 C   0  0  0  0  0  0  0  0  0  0  0  0
  -10.9154   25.0104  -21.2995 C   0  0  0  0  0  0  0  0  0  0  0  0
   -9.3031   24.5377  -20.9837 S   0  0  0  0  0  0  0  0  0  0  0  0
   -2.2627   22.9599  -24.3305 N   0  0  0  0  0  0  0  0  0  0  0  0
   -2.9791   23.9534  -23.6737 C   0  0  0  0  0  0  0  0  0  0  0  0
   -2.6202   24.4808  -22.6082 O   0  0  0  0  0  0  0  0  0  0  0  0
   -2.7134   22.5975  -25.2428 H   0  0  0  0  0  0  0  0  0  0  0  0
   -0.0974   21.9953  -24.9372 C   0  0  0  0  0  0  0  0  0  0  0  0
    1.1044   21.3705  -24.5746 C   0  0  0  0  0  0  0  0  0  0  0  0
    1.4227   21.0778  -23.2811 C   0  0  0  0  0  0  0  0  0  0  0  0
    2.9445   20.2897  -22.8522 Cl  0  0  0  0  0  0  0  0  0  0  0  0
    0.5114   21.4204  -22.3217 C   0  0  0  0  0  0  0  0  0  0  0  0
   -0.6937   22.0448  -22.6671 C   0  0  0  0  0  0  0  0  0  0  0  0
   -1.0351   22.3491  -23.9676 C   0  0  0  0  0  0  0  0  0  0  0  0
   -0.2416   23.6396  -26.5657 F   0  0  0  0  0  0  0  0  0  0  0  0
   -0.3455   22.2884  -26.3563 C   0  0  0  0  0  0  0  0  0  0  0  0
    0.7106   21.7204  -27.0959 F   0  0  0  0  0  0  0  0  0  0  0  0
   -1.5062   21.7433  -26.8584 F   0  0  0  0  0  0  0  0  0  0  0  0
   -4.0979   25.1470  -25.5710 C   0  0  0  0  0  0  0  0  0  0  0  0
   -4.4479   24.3944  -26.7665 C   0  0  0  0  0  0  0  0  0  0  0  0
   -3.4449   24.0074  -27.6465 C   0  0  0  0  0  0  0  0  0  0  0  0
   -3.7319   23.3047  -28.7960 C   0  0  0  0  0  0  0  0  0  0  0  0
   -5.0428   22.9799  -29.0769 C   0  0  0  0  0  0  0  0  0  0  0  0
   -6.0353   23.3616  -28.2087 C   0  0  0  0  0  0  0  0  0  0  0  0
   -5.7327   24.0629  -27.0654 C   0  0  0  0  0  0  0  0  0  0  0  0
 24 25  1  0  0  0
 25 26  1  0  0  0
 25 27  1  0  0  0
 25 17  1  0  0  0
 17 18  2  0  0  0
 18 19  1  0  0  0
 19 20  1  0  0  0
 19 21  2  0  0  0
 21 22  1  0  0  0
 22 23  2  0  0  0
 23 13  1  0  0  0
 13 14  1  0  0  0
 14 15  2  0  0  0
 14  1  1  0  0  0
  1 28  1  0  0  0
 28 29  1  0  0  0
 29 30  2  0  0  0
 30 31  1  0  0  0
 31 32  2  0  0  0
 32 33  1  0  0  0
 33 34  2  0  0  0
  1  2  1  0  0  0
  2  3  1  0  0  0
  3  4  2  0  0  0
  3  5  1  0  0  0
  5  8  1  0  0  0
  8  9  2  0  0  0
  9 10  1  0  0  0
 10 11  2  0  0  0
 11 12  1  0  0  0
 23 17  1  0  0  0
 34 29  1  0  0  0
 12  8  1  0  0  0
 13 16  1  0  0  0
  2  6  1  0  0  0
  5  7  1  0  0  0
M  END
> <minimizedAffinity>
-8.55194

> <CNNscore>
0.1519037336

> <CNNaffinity>
6.0637755394

> <CNN_VS>
0.9211101532

> <CNNaffinity_variance>
0.3421078324

$$$$
[H]c1nc(N([H])C(=O)N([H])[C@]([H])(C(=O)N([H])c2c([H])c([H])c(Cl)c([H])c2C(F)(F)F)C([H])([H])c2c([H])c([H])c([H])c([H])c2[H])sc1[H]


 34 36  0  0  0  0  0  0  0  0999 V2000
   -2.4050   21.9169  -20.9945 C   0  0  0  0  0  0  0  0  0  0  0  0
   -1.3037   21.8026  -20.0289 N   0  0  0  0  0  0  0  0  0  0  0  0
   -0.2578   20.8631  -20.2282 C   0  0  0  0  0  0  0  0  0  0  0  0
   -0.3029   20.1227  -21.2691 O   0  0  0  0  0  0  0  0  0  0  0  0
    0.8197   20.7128  -19.3353 N   0  0  0  0  0  0  0  0  0  0  0  0
   -1.2744   22.4113  -19.1815 H   0  0  0  0  0  0  0  0  0  0  0  0
    0.8996   21.2864  -18.4817 H   0  0  0  0  0  0  0  0  0  0  0  0
    1.8628   19.7473  -19.5747 C   0  0  0  0  0  0  0  0  0  0  0  0
    3.0850   19.9585  -20.0478 N   0  0  0  0  0  0  0  0  0  0  0  0
    3.8972   18.9652  -20.1996 C   0  0  0  0  0  0  0  0  0  0  0  0
    3.4497   17.7137  -19.8580 C   0  0  0  0  0  0  0  0  0  0  0  0
    1.8599   18.0567  -19.3312 S   0  0  0  0  0  0  0  0  0  0  0  0
   -1.8772   21.7741  -23.4218 N   0  0  0  0  0  0  0  0  0  0  0  0
   -1.8972   22.5380  -22.2609 C   0  0  0  0  0  0  0  0  0  0  0  0
   -1.5152   23.7179  -22.1980 O   0  0  0  0  0  0  0  0  0  0  0  0
   -2.2350   20.7611  -23.3096 H   0  0  0  0  0  0  0  0  0  0  0  0
   -2.3652   22.4223  -25.7302 C   0  0  0  0  0  0  0  0  0  0  0  0
   -1.9318   22.7521  -27.0223 C   0  0  0  0  0  0  0  0  0  0  0  0
   -0.6132   22.8079  -27.3663 C   0  0  0  0  0  0  0  0  0  0  0  0
   -0.0947   23.2263  -29.0025 Cl  0  0  0  0  0  0  0  0  0  0  0  0
    0.2990   22.5253  -26.3884 C   0  0  0  0  0  0  0  0  0  0  0  0
   -0.1173   22.1938  -25.0929 C   0  0  0  0  0  0  0  0  0  0  0  0
   -1.4442   22.1314  -24.7243 C   0  0  0  0  0  0  0  0  0  0  0  0
   -4.1283   23.4806  -24.6589 F   0  0  0  0  0  0  0  0  0  0  0  0
   -3.8078   22.4057  -25.4477 C   0  0  0  0  0  0  0  0  0  0  0  0
   -4.4795   22.6312  -26.6655 F   0  0  0  0  0  0  0  0  0  0  0  0
   -4.2816   21.2077  -24.9609 F   0  0  0  0  0  0  0  0  0  0  0  0
   -3.5599   22.6495  -20.3902 C   0  0  0  0  0  0  0  0  0  0  0  0
   -4.7231   22.8264  -21.2469 C   0  0  0  0  0  0  0  0  0  0  0  0
   -5.1934   24.1087  -21.5018 C   0  0  0  0  0  0  0  0  0  0  0  0
   -6.2981   24.3220  -22.2965 C   0  0  0  0  0  0  0  0  0  0  0  0
   -6.9491   23.2387  -22.8494 C   0  0  0  0  0  0  0  0  0  0  0  0
   -6.4860   21.9709  -22.5985 C   0  0  0  0  0  0  0  0  0  0  0  0
   -5.3820   21.7745  -21.8028 C   0  0  0  0  0  0  0  0  0  0  0  0
 24 25  1  0  0  0
 25 26  1  0  0  0
 25 27  1  0  0  0
 25 17  1  0  0  0
 17 18  2  0  0  0
 18 19  1  0  0  0
 19 20  1  0  0  0
 19 21  2  0  0  0
 21 22  1  0  0  0
 22 23  2  0  0  0
 23 13  1  0  0  0
 13 14  1  0  0  0
 14 15  2  0  0  0
 14  1  1  0  0  0
  1 28  1  0  0  0
 28 29  1  0  0  0
 29 30  2  0  0  0
 30 31  1  0  0  0
 31 32  2  0  0  0
 32 33  1  0  0  0
 33 34  2  0  0  0
  1  2  1  0  0  0
  2  3  1  0  0  0
  3  4  2  0  0  0
  3  5  1  0  0  0
  5  8  1  0  0  0
  8  9  2  0  0  0
  9 10  1  0  0  0
 10 11  2  0  0  0
 11 12  1  0  0  0
 23 17  1  0  0  0
 34 29  1  0  0  0
 12  8  1  0  0  0
 13 16  1  0  0  0
  2  6  1  0  0  0
  5  7  1  0  0  0
M  END
> <minimizedAffinity>
-7.37226

> <CNNscore>
0.1408908963

> <CNNaffinity>
5.9281911850

> <CNN_VS>
0.8352281451

> <CNNaffinity_variance>
0.1490100771

$$$$
[H]c1nc(N([H])C(=O)N([H])[C@]([H])(C(=O)N([H])c2c([H])c([H])c(Cl)c([H])c2C(F)(F)F)C([H])([H])c2c([H])c([H])c([H])c([H])c2[H])sc1[H]


 34 36  0  0  0  0  0  0  0  0999 V2000
   -4.9913   22.8796  -26.1544 C   0  0  0  0  0  0  0  0  0  0  0  0
   -6.1477   22.9214  -25.2495 N   0  0  0  0  0  0  0  0  0  0  0  0
   -6.0502   23.5386  -23.9743 C   0  0  0  0  0  0  0  0  0  0  0  0
   -4.9300   24.0549  -23.6388 O   0  0  0  0  0  0  0  0  0  0  0  0
   -7.1261   23.6062  -23.0697 N   0  0  0  0  0  0  0  0  0  0  0  0
   -7.0589   22.4975  -25.5314 H   0  0  0  0  0  0  0  0  0  0  0  0
   -8.0488   23.2036  -23.2947 H   0  0  0  0  0  0  0  0  0  0  0  0
   -6.9861   24.2432  -21.7843 C   0  0  0  0  0  0  0  0  0  0  0  0
   -7.4008   25.4491  -21.4153 N   0  0  0  0  0  0  0  0  0  0  0  0
   -7.1877   25.8624  -20.2099 C   0  0  0  0  0  0  0  0  0  0  0  0
   -6.5296   25.0190  -19.3504 C   0  0  0  0  0  0  0  0  0  0  0  0
   -6.2564   23.6619  -20.3535 S   0  0  0  0  0  0  0  0  0  0  0  0
   -2.6109   22.8380  -25.4314 N   0  0  0  0  0  0  0  0  0  0  0  0
   -3.8445   22.1991  -25.4693 C   0  0  0  0  0  0  0  0  0  0  0  0
   -4.0662   21.0844  -24.9689 O   0  0  0  0  0  0  0  0  0  0  0  0
   -2.5784   23.8005  -25.9206 H   0  0  0  0  0  0  0  0  0  0  0  0
   -0.2563   22.2062  -25.6410 C   0  0  0  0  0  0  0  0  0  0  0  0
    0.9405   21.7520  -25.0687 C   0  0  0  0  0  0  0  0  0  0  0  0
    1.0654   21.4803  -23.7380 C   0  0  0  0  0  0  0  0  0  0  0  0
    2.5858   20.9090  -23.0431 Cl  0  0  0  0  0  0  0  0  0  0  0  0
   -0.0402   21.6685  -22.9566 C   0  0  0  0  0  0  0  0  0  0  0  0
   -1.2432   22.1213  -23.5125 C   0  0  0  0  0  0  0  0  0  0  0  0
   -1.3910   22.4014  -24.8542 C   0  0  0  0  0  0  0  0  0  0  0  0
    0.2844   23.7134  -27.3180 F   0  0  0  0  0  0  0  0  0  0  0  0
   -0.2908   22.4910  -27.0828 C   0  0  0  0  0  0  0  0  0  0  0  0
    0.5546   21.5597  -27.7178 F   0  0  0  0  0  0  0  0  0  0  0  0
   -1.5307   22.3473  -27.6647 F   0  0  0  0  0  0  0  0  0  0  0  0
   -4.6626   24.2511  -26.6510 C   0  0  0  0  0  0  0  0  0  0  0  0
   -4.8982   24.4915  -28.0670 C   0  0  0  0  0  0  0  0  0  0  0  0
   -5.3754   23.4582  -28.8638 C   0  0  0  0  0  0  0  0  0  0  0  0
   -5.6009   23.6375  -30.2108 C   0  0  0  0  0  0  0  0  0  0  0  0
   -5.3469   24.8692  -30.7778 C   0  0  0  0  0  0  0  0  0  0  0  0
   -4.8752   25.8913  -29.9922 C   0  0  0  0  0  0  0  0  0  0  0  0
   -4.6550   25.6964  -28.6490 C   0  0  0  0  0  0  0  0  0  0  0  0
 24 25  1  0  0  0
 25 26  1  0  0  0
 25 27  1  0  0  0
 25 17  1  0  0  0
 17 18  2  0  0  0
 18 19  1  0  0  0
 19 20  1  0  0  0
 19 21  2  0  0  0
 21 22  1  0  0  0
 22 23  2  0  0  0
 23 13  1  0  0  0
 13 14  1  0  0  0
 14 15  2  0  0  0
 14  1  1  0  0  0
  1 28  1  0  0  0
 28 29  1  0  0  0
 29 30  2  0  0  0
 30 31  1  0  0  0
 31 32  2  0  0  0
 32 33  1  0  0  0
 33 34  2  0  0  0
  1  2  1  0  0  0
  2  3  1  0  0  0
  3  4  2  0  0  0
  3  5  1  0  0  0
  5  8  1  0  0  0
  8  9  2  0  0  0
  9 10  1  0  0  0
 10 11  2  0  0  0
 11 12  1  0  0  0
 23 17  1  0  0  0
 34 29  1  0  0  0
 12  8  1  0  0  0
 13 16  1  0  0  0
  2  6  1  0  0  0
  5  7  1  0  0  0
M  END
> <minimizedAffinity>
-9.42205

> <CNNscore>
0.1335606128

> <CNNaffinity>
6.3240761757

> <CNN_VS>
0.8446474671

> <CNNaffinity_variance>
0.2723950744

$$$$
[H]c1nc(N([H])C(=O)N([H])[C@]([H])(C(=O)N([H])c2c([H])c([H])c(Cl)c([H])c2C(F)(F)F)C([H])([H])c2c([H])c([H])c([H])c([H])c2[H])sc1[H]


 34 36  0  0  0  0  0  0  0  0999 V2000
   -6.1065   23.4524  -23.5804 C   0  0  0  0  0  0  0  0  0  0  0  0
   -6.4421   23.1509  -24.9784 N   0  0  0  0  0  0  0  0  0  0  0  0
   -5.8924   23.9185  -26.0391 C   0  0  0  0  0  0  0  0  0  0  0  0
   -5.0995   24.8761  -25.7420 O   0  0  0  0  0  0  0  0  0  0  0  0
   -6.1805   23.6724  -27.3945 N   0  0  0  0  0  0  0  0  0  0  0  0
   -7.0903   22.3670  -25.2123 H   0  0  0  0  0  0  0  0  0  0  0  0
   -6.8146   22.9121  -27.6838 H   0  0  0  0  0  0  0  0  0  0  0  0
   -5.6003   24.4748  -28.4420 C   0  0  0  0  0  0  0  0  0  0  0  0
   -6.1552   25.4778  -29.1116 N   0  0  0  0  0  0  0  0  0  0  0  0
   -5.4814   26.0912  -30.0276 C   0  0  0  0  0  0  0  0  0  0  0  0
   -4.1984   25.6690  -30.2702 C   0  0  0  0  0  0  0  0  0  0  0  0
   -4.0447   24.3933  -29.1426 S   0  0  0  0  0  0  0  0  0  0  0  0
   -3.6311   23.2011  -23.5704 N   0  0  0  0  0  0  0  0  0  0  0  0
   -4.8702   22.6999  -23.1895 C   0  0  0  0  0  0  0  0  0  0  0  0
   -5.0273   21.6537  -22.5392 O   0  0  0  0  0  0  0  0  0  0  0  0
   -3.6636   24.1178  -24.1409 H   0  0  0  0  0  0  0  0  0  0  0  0
   -1.5326   22.2375  -24.3796 C   0  0  0  0  0  0  0  0  0  0  0  0
   -0.2629   21.6967  -24.1316 C   0  0  0  0  0  0  0  0  0  0  0  0
    0.2519   21.5688  -22.8751 C   0  0  0  0  0  0  0  0  0  0  0  0
    1.8552   20.8835  -22.5911 Cl  0  0  0  0  0  0  0  0  0  0  0  0
   -0.5268   21.9948  -21.8357 C   0  0  0  0  0  0  0  0  0  0  0  0
   -1.7973   22.5371  -22.0663 C   0  0  0  0  0  0  0  0  0  0  0  0
   -2.3365   22.6750  -23.3275 C   0  0  0  0  0  0  0  0  0  0  0  0
   -1.0221   21.8839  -26.6136 F   0  0  0  0  0  0  0  0  0  0  0  0
   -1.9961   22.3530  -25.7700 C   0  0  0  0  0  0  0  0  0  0  0  0
   -3.0783   21.4652  -25.9297 F   0  0  0  0  0  0  0  0  0  0  0  0
   -2.4656   23.6010  -26.1145 F   0  0  0  0  0  0  0  0  0  0  0  0
   -7.2768   23.1841  -22.6893 C   0  0  0  0  0  0  0  0  0  0  0  0
   -7.8843   24.3496  -22.0641 C   0  0  0  0  0  0  0  0  0  0  0  0
   -7.4803   24.7280  -20.7898 C   0  0  0  0  0  0  0  0  0  0  0  0
   -8.0368   25.8167  -20.1553 C   0  0  0  0  0  0  0  0  0  0  0  0
   -9.0152   26.5444  -20.8005 C   0  0  0  0  0  0  0  0  0  0  0  0
   -9.4158   26.1719  -22.0596 C   0  0  0  0  0  0  0  0  0  0  0  0
   -8.8507   25.0825  -22.6795 C   0  0  0  0  0  0  0  0  0  0  0  0
 24 25  1  0  0  0
 25 26  1  0  0  0
 25 27  1  0  0  0
 25 17  1  0  0  0
 17 18  2  0  0  0
 18 19  1  0  0  0
 19 20  1  0  0  0
 19 21  2  0  0  0
 21 22  1  0  0  0
 22 23  2  0  0  0
 23 13  1  0  0  0
 13 14  1  0  0  0
 14 15  2  0  0  0
 14  1  1  0  0  0
  1 28  1  0  0  0
 28 29  1  0  0  0
 29 30  2  0  0  0
 30 31  1  0  0  0
 31 32  2  0  0  0
 32 33  1  0  0  0
 33 34  2  0  0  0
  1  2  1  0  0  0
  2  3  1  0  0  0
  3  4  2  0  0  0
  3  5  1  0  0  0
  5  8  1  0  0  0
  8  9  2  0  0  0
  9 10  1  0  0  0
 10 11  2  0  0  0
 11 12  1  0  0  0
 23 17  1  0  0  0
 34 29  1  0  0  0
 12  8  1  0  0  0
 13 16  1  0  0  0
  2  6  1  0  0  0
  5  7  1  0  0  0
M  END
> <minimizedAffinity>
-8.06604

> <CNNscore>
0.1268252432

> <CNNaffinity>
6.2033834457

> <CNN_VS>
0.7867456079

> <CNNaffinity_variance>
0.2745969296

$$$$
[H]c1nc(N([H])C(=O)N([H])[C@]([H])(C(=O)N([H])c2c([H])c([H])c(Cl)c([H])c2C(F)(F)F)C([H])([H])c2c([H])c([H])c([H])c([H])c2[H])sc1[H]


 34 36  0  0  0  0  0  0  0  0999 V2000
   -4.4138   22.6118  -23.7778 C   0  0  0  0  0  0  0  0  0  0  0  0
   -5.7881   22.2224  -23.4343 N   0  0  0  0  0  0  0  0  0  0  0  0
   -6.1744   22.0405  -22.0800 C   0  0  0  0  0  0  0  0  0  0  0  0
   -5.2938   22.2250  -21.1721 O   0  0  0  0  0  0  0  0  0  0  0  0
   -7.4762   21.6683  -21.6964 N   0  0  0  0  0  0  0  0  0  0  0  0
   -6.5011   22.0739  -24.1819 H   0  0  0  0  0  0  0  0  0  0  0  0
   -8.2206   21.5073  -22.3921 H   0  0  0  0  0  0  0  0  0  0  0  0
   -7.8284   21.4948  -20.3095 C   0  0  0  0  0  0  0  0  0  0  0  0
   -7.8918   20.3666  -19.6127 N   0  0  0  0  0  0  0  0  0  0  0  0
   -8.2288   20.3979  -18.3659 C   0  0  0  0  0  0  0  0  0  0  0  0
   -8.5111   21.6200  -17.8090 C   0  0  0  0  0  0  0  0  0  0  0  0
   -8.2680   22.6619  -19.1423 S   0  0  0  0  0  0  0  0  0  0  0  0
   -4.7355   23.2171  -26.1696 N   0  0  0  0  0  0  0  0  0  0  0  0
   -4.4428   23.6320  -24.8759 C   0  0  0  0  0  0  0  0  0  0  0  0
   -4.1971   24.8079  -24.5614 O   0  0  0  0  0  0  0  0  0  0  0  0
   -4.9173   22.1581  -26.2808 H   0  0  0  0  0  0  0  0  0  0  0  0
   -3.7681   23.9901  -28.2800 C   0  0  0  0  0  0  0  0  0  0  0  0
   -3.8445   24.7668  -29.4450 C   0  0  0  0  0  0  0  0  0  0  0  0
   -4.9247   25.5438  -29.7440 C   0  0  0  0  0  0  0  0  0  0  0  0
   -4.9946   26.5129  -31.2194 Cl  0  0  0  0  0  0  0  0  0  0  0  0
   -5.9594   25.5438  -28.8509 C   0  0  0  0  0  0  0  0  0  0  0  0
   -5.8989   24.7739  -27.6826 C   0  0  0  0  0  0  0  0  0  0  0  0
   -4.8170   23.9823  -27.3611 C   0  0  0  0  0  0  0  0  0  0  0  0
   -1.6951   23.3428  -29.0924 F   0  0  0  0  0  0  0  0  0  0  0  0
   -2.5704   23.1688  -28.0513 C   0  0  0  0  0  0  0  0  0  0  0  0
   -1.9079   23.6926  -26.9236 F   0  0  0  0  0  0  0  0  0  0  0  0
   -2.8295   21.8462  -27.7679 F   0  0  0  0  0  0  0  0  0  0  0  0
   -3.5916   21.4061  -24.1030 C   0  0  0  0  0  0  0  0  0  0  0  0
   -2.1753   21.4921  -23.7793 C   0  0  0  0  0  0  0  0  0  0  0  0
   -1.2588   21.7479  -24.7916 C   0  0  0  0  0  0  0  0  0  0  0  0
    0.0919   21.8256  -24.5327 C   0  0  0  0  0  0  0  0  0  0  0  0
    0.5413   21.6453  -23.2409 C   0  0  0  0  0  0  0  0  0  0  0  0
   -0.3628   21.3923  -22.2393 C   0  0  0  0  0  0  0  0  0  0  0  0
   -1.7080   21.3176  -22.5139 C   0  0  0  0  0  0  0  0  0  0  0  0
 24 25  1  0  0  0
 25 26  1  0  0  0
 25 27  1  0  0  0
 25 17  1  0  0  0
 17 18  2  0  0  0
 18 19  1  0  0  0
 19 20  1  0  0  0
 19 21  2  0  0  0
 21 22  1  0  0  0
 22 23  2  0  0  0
 23 13  1  0  0  0
 13 14  1  0  0  0
 14 15  2  0  0  0
 14  1  1  0  0  0
  1 28  1  0  0  0
 28 29  1  0  0  0
 29 30  2  0  0  0
 30 31  1  0  0  0
 31 32  2  0  0  0
 32 33  1  0  0  0
 33 34  2  0  0  0
  1  2  1  0  0  0
  2  3  1  0  0  0
  3  4  2  0  0  0
  3  5  1  0  0  0
  5  8  1  0  0  0
  8  9  2  0  0  0
  9 10  1  0  0  0
 10 11  2  0  0  0
 11 12  1  0  0  0
 23 17  1  0  0  0
 34 29  1  0  0  0
 12  8  1  0  0  0
 13 16  1  0  0  0
  2  6  1  0  0  0
  5  7  1  0  0  0
M  END
> <minimizedAffinity>
-8.33104

> <CNNscore>
0.1152495220

> <CNNaffinity>
6.0551881790

> <CNN_VS>
0.6978575587

> <CNNaffinity_variance>
0.1416930854

$$$$
[H]c1nc(N([H])C(=O)N([H])[C@]([H])(C(=O)N([H])c2c([H])c([H])c(Cl)c([H])c2C(F)(F)F)C([H])([H])c2c([H])c([H])c([H])c([H])c2[H])sc1[H]


 34 36  0  0  0  0  0  0  0  0999 V2000
   -6.7018   23.0234  -23.0510 C   0  0  0  0  0  0  0  0  0  0  0  0
   -6.3823   22.7938  -21.6356 N   0  0  0  0  0  0  0  0  0  0  0  0
   -7.0512   21.7839  -20.8947 C   0  0  0  0  0  0  0  0  0  0  0  0
   -7.9364   21.0830  -21.4940 O   0  0  0  0  0  0  0  0  0  0  0  0
   -6.7837   21.5225  -19.5380 N   0  0  0  0  0  0  0  0  0  0  0  0
   -5.6580   23.3706  -21.1539 H   0  0  0  0  0  0  0  0  0  0  0  0
   -6.0793   22.0615  -19.0114 H   0  0  0  0  0  0  0  0  0  0  0  0
   -7.4846   20.4866  -18.8216 C   0  0  0  0  0  0  0  0  0  0  0  0
   -7.2945   19.1741  -18.8802 N   0  0  0  0  0  0  0  0  0  0  0  0
   -8.0222   18.3853  -18.1609 C   0  0  0  0  0  0  0  0  0  0  0  0
   -8.9765   18.9522  -17.3539 C   0  0  0  0  0  0  0  0  0  0  0  0
   -8.7585   20.6140  -17.6908 S   0  0  0  0  0  0  0  0  0  0  0  0
   -4.5077   23.3070  -24.1896 N   0  0  0  0  0  0  0  0  0  0  0  0
   -5.5939   22.4874  -23.9071 C   0  0  0  0  0  0  0  0  0  0  0  0
   -5.7139   21.3235  -24.3231 O   0  0  0  0  0  0  0  0  0  0  0  0
   -4.5570   24.2969  -23.7599 H   0  0  0  0  0  0  0  0  0  0  0  0
   -3.2667   23.4612  -26.2927 C   0  0  0  0  0  0  0  0  0  0  0  0
   -2.1341   23.1670  -27.0653 C   0  0  0  0  0  0  0  0  0  0  0  0
   -1.0733   22.4605  -26.5799 C   0  0  0  0  0  0  0  0  0  0  0  0
    0.3417   22.1037  -27.5757 Cl  0  0  0  0  0  0  0  0  0  0  0  0
   -1.1478   22.0356  -25.2829 C   0  0  0  0  0  0  0  0  0  0  0  0
   -2.2719   22.3209  -24.4978 C   0  0  0  0  0  0  0  0  0  0  0  0
   -3.3546   23.0328  -24.9685 C   0  0  0  0  0  0  0  0  0  0  0  0
   -4.4817   25.4349  -26.2260 F   0  0  0  0  0  0  0  0  0  0  0  0
   -4.3539   24.2454  -26.8962 C   0  0  0  0  0  0  0  0  0  0  0  0
   -3.9471   24.5997  -28.1978 F   0  0  0  0  0  0  0  0  0  0  0  0
   -5.5423   23.5635  -27.0347 F   0  0  0  0  0  0  0  0  0  0  0  0
   -7.0006   24.4680  -23.2948 C   0  0  0  0  0  0  0  0  0  0  0  0
   -7.9267   25.0950  -22.3634 C   0  0  0  0  0  0  0  0  0  0  0  0
   -9.2888   24.8513  -22.4883 C   0  0  0  0  0  0  0  0  0  0  0  0
  -10.2019   25.4331  -21.6368 C   0  0  0  0  0  0  0  0  0  0  0  0
   -9.7523   26.2746  -20.6405 C   0  0  0  0  0  0  0  0  0  0  0  0
   -8.4068   26.5169  -20.5156 C   0  0  0  0  0  0  0  0  0  0  0  0
   -7.5078   25.9286  -21.3737 C   0  0  0  0  0  0  0  0  0  0  0  0
 24 25  1  0  0  0
 25 26  1  0  0  0
 25 27  1  0  0  0
 25 17  1  0  0  0
 17 18  2  0  0  0
 18 19  1  0  0  0
 19 20  1  0  0  0
 19 21  2  0  0  0
 21 22  1  0  0  0
 22 23  2  0  0  0
 23 13  1  0  0  0
 13 14  1  0  0  0
 14 15  2  0  0  0
 14  1  1  0  0  0
  1 28  1  0  0  0
 28 29  1  0  0  0
 29 30  2  0  0  0
 30 31  1  0  0  0
 31 32  2  0  0  0
 32 33  1  0  0  0
 33 34  2  0  0  0
  1  2  1  0  0  0
  2  3  1  0  0  0
  3  4  2  0  0  0
  3  5  1  0  0  0
  5  8  1  0  0  0
  8  9  2  0  0  0
  9 10  1  0  0  0
 10 11  2  0  0  0
 11 12  1  0  0  0
 23 17  1  0  0  0
 34 29  1  0  0  0
 12  8  1  0  0  0
 13 16  1  0  0  0
  2  6  1  0  0  0
  5  7  1  0  0  0
M  END
> <minimizedAffinity>
-7.98458

> <CNNscore>
0.1144368947

> <CNNaffinity>
5.5988645554

> <CNN_VS>
0.6407166719

> <CNNaffinity_variance>
0.2372299731

$$$$
[H]N=C(N([H])[H])N([H])C([H])([H])C([H])([H])C([H])([H])C([H])(C([H])=O)N([H])C(=O)[C@@]1([H])N(C(=O)[C@@]([H])(c2c([H])c([H])c([H])c([H])c2[H])N([H])C(=O)OC(C([H])([H])[H])(C([H])([H])[H])C([H])([H])[H])C([H])([H])C([H])([H])C1([H])[H]


 41 42  0  0  0  0  0  0  0  0999 V2000
   -3.6716   23.6927  -25.3771 C   0  0  0  0  0  0  0  0  0  0  0  0
   -3.4283   24.3097  -24.2863 O   0  0  0  0  0  0  0  0  0  0  0  0
   -2.6570   22.9416  -26.0164 N   0  0  0  0  0  0  0  0  0  0  0  0
   -2.7218   22.5657  -27.4675 C   0  0  0  0  0  0  0  0  0  0  0  0
   -1.2678   22.6873  -27.9487 C   0  0  0  0  0  0  0  0  0  0  0  0
   -0.4764   22.9099  -26.6659 C   0  0  0  0  0  0  0  0  0  0  0  0
   -1.4339   22.3123  -25.6452 C   0  0  0  0  0  0  0  0  0  0  0  0
   -0.9647   22.1897  -24.2995 C   0  0  0  0  0  0  0  0  0  0  0  0
    0.2289   22.4079  -23.9962 O   0  0  0  0  0  0  0  0  0  0  0  0
   -1.8626   21.8156  -23.2766 N   0  0  0  0  0  0  0  0  0  0  0  0
   -2.8739   21.6008  -23.5912 H   0  0  0  0  0  0  0  0  0  0  0  0
   -1.5822   21.6759  -21.8712 C   0  0  0  0  0  0  0  0  0  0  0  0
   -1.3631   23.0120  -21.2399 C   0  0  0  0  0  0  0  0  0  0  0  0
   -2.3934   23.7009  -21.1271 O   0  0  0  0  0  0  0  0  0  0  0  0
   -0.3840   20.8098  -21.6427 C   0  0  0  0  0  0  0  0  0  0  0  0
    0.4525   21.2714  -20.5081 C   0  0  0  0  0  0  0  0  0  0  0  0
    1.9129   20.8545  -20.6667 C   0  0  0  0  0  0  0  0  0  0  0  0
    2.1470   20.1185  -21.8584 N   0  0  0  0  0  0  0  0  0  0  0  0
    1.5902   19.3038  -22.1544 H   0  0  0  0  0  0  0  0  0  0  0  0
    3.2141   20.5297  -22.7308 C   0  0  0  0  0  0  0  0  0  0  0  0
    4.4574   19.7960  -22.6347 N   0  0  0  0  0  0  0  0  0  0  0  0
    3.1407   21.5018  -23.5633 N   0  0  0  0  0  0  0  0  0  0  0  0
    4.9490   19.4503  -23.4932 H   0  0  0  0  0  0  0  0  0  0  0  0
    4.8762   19.6107  -21.6988 H   0  0  0  0  0  0  0  0  0  0  0  0
    2.3122   22.1097  -23.7150 H   0  0  0  0  0  0  0  0  0  0  0  0
   -5.0169   23.7796  -25.9406 C   0  0  0  0  0  0  0  0  0  0  0  0
   -6.0611   23.9973  -24.8417 C   0  0  0  0  0  0  0  0  0  0  0  0
   -6.6754   25.1900  -24.6714 C   0  0  0  0  0  0  0  0  0  0  0  0
   -7.5619   25.3815  -23.6039 C   0  0  0  0  0  0  0  0  0  0  0  0
   -7.8027   24.3429  -22.7269 C   0  0  0  0  0  0  0  0  0  0  0  0
   -7.1713   23.1489  -22.9240 C   0  0  0  0  0  0  0  0  0  0  0  0
   -6.3065   22.9678  -23.9669 C   0  0  0  0  0  0  0  0  0  0  0  0
   -5.8617   24.6858  -28.0320 C   0  0  0  0  0  0  0  0  0  0  0  0
   -6.2364   23.4796  -28.2311 O   0  0  0  0  0  0  0  0  0  0  0  0
   -5.1815   24.9794  -26.7949 N   0  0  0  0  0  0  0  0  0  0  0  0
   -4.8523   25.8759  -26.4979 H   0  0  0  0  0  0  0  0  0  0  0  0
   -6.1483   25.5689  -29.0389 O   0  0  0  0  0  0  0  0  0  0  0  0
   -3.9084   25.4870  -29.8286 C   0  0  0  0  0  0  0  0  0  0  0  0
   -5.3530   25.4937  -30.2148 C   0  0  0  0  0  0  0  0  0  0  0  0
   -5.5794   26.7052  -31.1046 C   0  0  0  0  0  0  0  0  0  0  0  0
   -5.7609   24.2713  -30.9765 C   0  0  0  0  0  0  0  0  0  0  0  0
 38 39  1  0  0  0
 39 40  1  0  0  0
 39 41  1  0  0  0
 39 37  1  0  0  0
 37 33  1  0  0  0
 33 34  2  0  0  0
 33 35  1  0  0  0
 35 26  1  0  0  0
 26  1  1  0  0  0
  1  2  2  0  0  0
  1  3  1  0  0  0
  3  4  1  0  0  0
  4  5  1  0  0  0
  5  6  1  0  0  0
  6  7  1  0  0  0
  7  8  1  0  0  0
  8  9  2  0  0  0
  8 10  1  0  0  0
 10 12  1  0  0  0
 12 15  1  0  0  0
 15 16  1  0  0  0
 16 17  1  0  0  0
 17 18  1  0  0  0
 18 20  1  0  0  0
 20 21  1  0  0  0
 20 22  2  0  0  0
 12 13  1  0  0  0
 13 14  2  0  0  0
 26 27  1  0  0  0
 27 28  2  0  0  0
 28 29  1  0  0  0
 29 30  2  0  0  0
 30 31  1  0  0  0
 31 32  2  0  0  0
  7  3  1  0  0  0
 32 27  1  0  0  0
 35 36  1  0  0  0
 10 11  1  0  0  0
 18 19  1  0  0  0
 21 23  1  0  0  0
 21 24  1  0  0  0
 22 25  1  0  0  0
M  END
> <minimizedAffinity>
-8.60512

> <CNNscore>
0.4905610383

> <CNNaffinity>
7.0313415527

> <CNN_VS>
3.4493021965

> <CNNaffinity_variance>
0.1933294833

$$$$
[H]N=C(N([H])[H])N([H])C([H])([H])C([H])([H])C([H])([H])C([H])(C([H])=O)N([H])C(=O)[C@@]1([H])N(C(=O)[C@@]([H])(c2c([H])c([H])c([H])c([H])c2[H])N([H])C(=O)OC(C([H])([H])[H])(C([H])([H])[H])C([H])([H])[H])C([H])([H])C([H])([H])C1([H])[H]


 41 42  0  0  0  0  0  0  0  0999 V2000
   -3.4379   23.5920  -25.0766 C   0  0  0  0  0  0  0  0  0  0  0  0
   -3.1746   24.1218  -23.9454 O   0  0  0  0  0  0  0  0  0  0  0  0
   -2.4767   22.7854  -25.7305 N   0  0  0  0  0  0  0  0  0  0  0  0
   -2.5284   22.4982  -27.2023 C   0  0  0  0  0  0  0  0  0  0  0  0
   -1.0544   22.5090  -27.6354 C   0  0  0  0  0  0  0  0  0  0  0  0
   -0.2883   22.5846  -26.3206 C   0  0  0  0  0  0  0  0  0  0  0  0
   -1.3299   22.0240  -25.3632 C   0  0  0  0  0  0  0  0  0  0  0  0
   -0.9183   21.7834  -24.0145 C   0  0  0  0  0  0  0  0  0  0  0  0
   -1.7407   21.7410  -23.0732 O   0  0  0  0  0  0  0  0  0  0  0  0
    0.4487   21.5844  -23.7249 N   0  0  0  0  0  0  0  0  0  0  0  0
    1.1260   21.6672  -24.5629 H   0  0  0  0  0  0  0  0  0  0  0  0
    1.0413   21.2981  -22.4442 C   0  0  0  0  0  0  0  0  0  0  0  0
    2.5155   21.0958  -22.5765 C   0  0  0  0  0  0  0  0  0  0  0  0
    2.8706   20.6096  -23.6656 O   0  0  0  0  0  0  0  0  0  0  0  0
    0.4220   20.0873  -21.8209 C   0  0  0  0  0  0  0  0  0  0  0  0
    1.2486   19.5139  -20.7308 C   0  0  0  0  0  0  0  0  0  0  0  0
    1.5236   18.0269  -20.9425 C   0  0  0  0  0  0  0  0  0  0  0  0
    2.8446   17.6558  -20.5766 N   0  0  0  0  0  0  0  0  0  0  0  0
    3.0856   17.1528  -19.7104 H   0  0  0  0  0  0  0  0  0  0  0  0
    3.9285   17.9782  -21.4655 C   0  0  0  0  0  0  0  0  0  0  0  0
    3.7318   17.6882  -22.8693 N   0  0  0  0  0  0  0  0  0  0  0  0
    5.0478   18.4825  -21.0964 N   0  0  0  0  0  0  0  0  0  0  0  0
    3.9608   18.3982  -23.6053 H   0  0  0  0  0  0  0  0  0  0  0  0
    3.3615   16.7578  -23.1570 H   0  0  0  0  0  0  0  0  0  0  0  0
    5.3134   18.7218  -20.1211 H   0  0  0  0  0  0  0  0  0  0  0  0
   -4.7503   23.8363  -25.6709 C   0  0  0  0  0  0  0  0  0  0  0  0
   -5.7809   24.2013  -24.5985 C   0  0  0  0  0  0  0  0  0  0  0  0
   -6.3831   23.2567  -23.8409 C   0  0  0  0  0  0  0  0  0  0  0  0
   -7.3836   23.6155  -22.9285 C   0  0  0  0  0  0  0  0  0  0  0  0
   -7.7501   24.9412  -22.8097 C   0  0  0  0  0  0  0  0  0  0  0  0
   -7.1239   25.8742  -23.5847 C   0  0  0  0  0  0  0  0  0  0  0  0
   -6.1489   25.5184  -24.4741 C   0  0  0  0  0  0  0  0  0  0  0  0
   -5.5817   24.8664  -27.7096 C   0  0  0  0  0  0  0  0  0  0  0  0
   -6.2088   23.7592  -27.8366 O   0  0  0  0  0  0  0  0  0  0  0  0
   -4.7464   25.0323  -26.5460 N   0  0  0  0  0  0  0  0  0  0  0  0
   -4.2173   25.8468  -26.3076 H   0  0  0  0  0  0  0  0  0  0  0  0
   -5.7747   25.7751  -28.7160 O   0  0  0  0  0  0  0  0  0  0  0  0
   -3.6726   25.4981  -29.7893 C   0  0  0  0  0  0  0  0  0  0  0  0
   -5.1574   25.5002  -29.9667 C   0  0  0  0  0  0  0  0  0  0  0  0
   -5.4911   26.5759  -30.9876 C   0  0  0  0  0  0  0  0  0  0  0  0
   -5.6884   24.1950  -30.4720 C   0  0  0  0  0  0  0  0  0  0  0  0
 38 39  1  0  0  0
 39 40  1  0  0  0
 39 41  1  0  0  0
 39 37  1  0  0  0
 37 33  1  0  0  0
 33 34  2  0  0  0
 33 35  1  0  0  0
 35 26  1  0  0  0
 26  1  1  0  0  0
  1  2  2  0  0  0
  1  3  1  0  0  0
  3  4  1  0  0  0
  4  5  1  0  0  0
  5  6  1  0  0  0
  6  7  1  0  0  0
  7  8  1  0  0  0
  8  9  2  0  0  0
  8 10  1  0  0  0
 10 12  1  0  0  0
 12 15  1  0  0  0
 15 16  1  0  0  0
 16 17  1  0  0  0
 17 18  1  0  0  0
 18 20  1  0  0  0
 20 21  1  0  0  0
 20 22  2  0  0  0
 12 13  1  0  0  0
 13 14  2  0  0  0
 26 27  1  0  0  0
 27 28  2  0  0  0
 28 29  1  0  0  0
 29 30  2  0  0  0
 30 31  1  0  0  0
 31 32  2  0  0  0
  7  3  1  0  0  0
 32 27  1  0  0  0
 35 36  1  0  0  0
 10 11  1  0  0  0
 18 19  1  0  0  0
 21 23  1  0  0  0
 21 24  1  0  0  0
 22 25  1  0  0  0
M  END
> <minimizedAffinity>
-7.45685

> <CNNscore>
0.3908959925

> <CNNaffinity>
6.8388748169

> <CNN_VS>
2.6732888222

> <CNNaffinity_variance>
0.0898481756

$$$$
[H]N=C(N([H])[H])N([H])C([H])([H])C([H])([H])C([H])([H])C([H])(C([H])=O)N([H])C(=O)[C@@]1([H])N(C(=O)[C@@]([H])(c2c([H])c([H])c([H])c([H])c2[H])N([H])C(=O)OC(C([H])([H])[H])(C([H])([H])[H])C([H])([H])[H])C([H])([H])C([H])([H])C1([H])[H]


 41 42  0  0  0  0  0  0  0  0999 V2000
   -3.9884   23.8483  -25.0916 C   0  0  0  0  0  0  0  0  0  0  0  0
   -3.7027   24.6818  -24.1679 O   0  0  0  0  0  0  0  0  0  0  0  0
   -3.0286   22.9032  -25.5250 N   0  0  0  0  0  0  0  0  0  0  0  0
   -3.1194   22.2087  -26.8519 C   0  0  0  0  0  0  0  0  0  0  0  0
   -1.6604   22.1173  -27.3247 C   0  0  0  0  0  0  0  0  0  0  0  0
   -0.8555   22.5749  -26.1147 C   0  0  0  0  0  0  0  0  0  0  0  0
   -1.8524   22.2947  -24.9996 C   0  0  0  0  0  0  0  0  0  0  0  0
   -1.3930   22.4536  -23.6543 C   0  0  0  0  0  0  0  0  0  0  0  0
   -0.6366   23.3932  -23.3238 O   0  0  0  0  0  0  0  0  0  0  0  0
   -1.7983   21.5339  -22.6632 N   0  0  0  0  0  0  0  0  0  0  0  0
   -2.4206   20.7180  -23.0021 H   0  0  0  0  0  0  0  0  0  0  0  0
   -1.4680   21.5524  -21.2618 C   0  0  0  0  0  0  0  0  0  0  0  0
   -2.0613   22.7497  -20.5939 C   0  0  0  0  0  0  0  0  0  0  0  0
   -1.2260   23.5845  -20.2017 O   0  0  0  0  0  0  0  0  0  0  0  0
    0.0138   21.5451  -21.0558 C   0  0  0  0  0  0  0  0  0  0  0  0
    0.4718   20.4185  -20.2066 C   0  0  0  0  0  0  0  0  0  0  0  0
    0.1275   19.0629  -20.8192 C   0  0  0  0  0  0  0  0  0  0  0  0
   -0.5170   18.1932  -19.9000 N   0  0  0  0  0  0  0  0  0  0  0  0
   -1.1061   18.5120  -19.1172 H   0  0  0  0  0  0  0  0  0  0  0  0
   -0.3646   16.7724  -20.0639 C   0  0  0  0  0  0  0  0  0  0  0  0
    0.9860   16.2699  -20.1946 N   0  0  0  0  0  0  0  0  0  0  0  0
   -1.3355   15.9371  -20.1184 N   0  0  0  0  0  0  0  0  0  0  0  0
    1.3120   15.4444  -19.6374 H   0  0  0  0  0  0  0  0  0  0  0  0
    1.6463   16.7308  -20.8558 H   0  0  0  0  0  0  0  0  0  0  0  0
   -2.3446   16.1743  -20.0509 H   0  0  0  0  0  0  0  0  0  0  0  0
   -5.3243   23.8943  -25.6817 C   0  0  0  0  0  0  0  0  0  0  0  0
   -6.3919   24.1307  -24.6094 C   0  0  0  0  0  0  0  0  0  0  0  0
   -7.1295   25.2638  -24.5787 C   0  0  0  0  0  0  0  0  0  0  0  0
   -8.0374   25.4873  -23.5356 C   0  0  0  0  0  0  0  0  0  0  0  0
   -8.1723   24.5416  -22.5389 C   0  0  0  0  0  0  0  0  0  0  0  0
   -7.4173   23.4058  -22.5962 C   0  0  0  0  0  0  0  0  0  0  0  0
   -6.5323   23.1933  -23.6160 C   0  0  0  0  0  0  0  0  0  0  0  0
   -5.9978   24.6920  -27.8769 C   0  0  0  0  0  0  0  0  0  0  0  0
   -6.2417   23.4546  -28.0877 O   0  0  0  0  0  0  0  0  0  0  0  0
   -5.4923   25.0624  -26.5782 N   0  0  0  0  0  0  0  0  0  0  0  0
   -5.2780   25.9886  -26.2678 H   0  0  0  0  0  0  0  0  0  0  0  0
   -6.2417   25.5316  -28.9311 O   0  0  0  0  0  0  0  0  0  0  0  0
   -3.9673   25.3933  -29.6061 C   0  0  0  0  0  0  0  0  0  0  0  0
   -5.3907   25.4161  -30.0639 C   0  0  0  0  0  0  0  0  0  0  0  0
   -5.5505   26.6109  -30.9901 C   0  0  0  0  0  0  0  0  0  0  0  0
   -5.7827   24.1839  -30.8181 C   0  0  0  0  0  0  0  0  0  0  0  0
 38 39  1  0  0  0
 39 40  1  0  0  0
 39 41  1  0  0  0
 39 37  1  0  0  0
 37 33  1  0  0  0
 33 34  2  0  0  0
 33 35  1  0  0  0
 35 26  1  0  0  0
 26  1  1  0  0  0
  1  2  2  0  0  0
  1  3  1  0  0  0
  3  4  1  0  0  0
  4  5  1  0  0  0
  5  6  1  0  0  0
  6  7  1  0  0  0
  7  8  1  0  0  0
  8  9  2  0  0  0
  8 10  1  0  0  0
 10 12  1  0  0  0
 12 15  1  0  0  0
 15 16  1  0  0  0
 16 17  1  0  0  0
 17 18  1  0  0  0
 18 20  1  0  0  0
 20 21  1  0  0  0
 20 22  2  0  0  0
 12 13  1  0  0  0
 13 14  2  0  0  0
 26 27  1  0  0  0
 27 28  2  0  0  0
 28 29  1  0  0  0
 29 30  2  0  0  0
 30 31  1  0  0  0
 31 32  2  0  0  0
  7  3  1  0  0  0
 32 27  1  0  0  0
 35 36  1  0  0  0
 10 11  1  0  0  0
 18 19  1  0  0  0
 21 23  1  0  0  0
 21 24  1  0  0  0
 22 25  1  0  0  0
M  END
> <minimizedAffinity>
-7.75609

> <CNNscore>
0.3489533067

> <CNNaffinity>
6.5676956177

> <CNN_VS>
2.2918190956

> <CNNaffinity_variance>
0.1633302569

$$$$
[H]N=C(N([H])[H])N([H])C([H])([H])C([H])([H])C([H])([H])C([H])(C([H])=O)N([H])C(=O)[C@@]1([H])N(C(=O)[C@@]([H])(c2c([H])c([H])c([H])c([H])c2[H])N([H])C(=O)OC(C([H])([H])[H])(C([H])([H])[H])C([H])([H])[H])C([H])([H])C([H])([H])C1([H])[H]


 41 42  0  0  0  0  0  0  0  0999 V2000
   -3.7824   23.7107  -25.1855 C   0  0  0  0  0  0  0  0  0  0  0  0
   -3.5334   24.2894  -24.0751 O   0  0  0  0  0  0  0  0  0  0  0  0
   -2.8097   22.8838  -25.7957 N   0  0  0  0  0  0  0  0  0  0  0  0
   -2.8452   22.5348  -27.2545 C   0  0  0  0  0  0  0  0  0  0  0  0
   -1.3671   22.5372  -27.6737 C   0  0  0  0  0  0  0  0  0  0  0  0
   -0.6144   22.6731  -26.3560 C   0  0  0  0  0  0  0  0  0  0  0  0
   -1.6618   22.1463  -25.3858 C   0  0  0  0  0  0  0  0  0  0  0  0
   -1.2620   21.9652  -24.0243 C   0  0  0  0  0  0  0  0  0  0  0  0
   -0.0666   21.7760  -23.7091 O   0  0  0  0  0  0  0  0  0  0  0  0
   -2.2319   22.0011  -22.9995 N   0  0  0  0  0  0  0  0  0  0  0  0
   -3.2553   22.1294  -23.3220 H   0  0  0  0  0  0  0  0  0  0  0  0
   -2.0149   21.8741  -21.5817 C   0  0  0  0  0  0  0  0  0  0  0  0
   -3.3108   21.9307  -20.8407 C   0  0  0  0  0  0  0  0  0  0  0  0
   -3.3688   22.8247  -19.9769 O   0  0  0  0  0  0  0  0  0  0  0  0
   -1.1004   22.9450  -21.0769 C   0  0  0  0  0  0  0  0  0  0  0  0
   -0.0438   22.4230  -20.1762 C   0  0  0  0  0  0  0  0  0  0  0  0
   -0.0289   23.1464  -18.8316 C   0  0  0  0  0  0  0  0  0  0  0  0
    1.1598   22.9064  -18.0926 N   0  0  0  0  0  0  0  0  0  0  0  0
    1.2188   22.2762  -17.2798 H   0  0  0  0  0  0  0  0  0  0  0  0
    2.3743   23.5620  -18.4979 C   0  0  0  0  0  0  0  0  0  0  0  0
    2.3711   25.0088  -18.4895 N   0  0  0  0  0  0  0  0  0  0  0  0
    3.4379   22.9552  -18.8773 N   0  0  0  0  0  0  0  0  0  0  0  0
    3.1566   25.5487  -18.0539 H   0  0  0  0  0  0  0  0  0  0  0  0
    1.5791   25.5256  -18.9269 H   0  0  0  0  0  0  0  0  0  0  0  0
    3.5598   21.9255  -18.9393 H   0  0  0  0  0  0  0  0  0  0  0  0
   -5.0903   23.9211  -25.8019 C   0  0  0  0  0  0  0  0  0  0  0  0
   -6.1447   24.2747  -24.7491 C   0  0  0  0  0  0  0  0  0  0  0  0
   -6.6045   25.5378  -24.6002 C   0  0  0  0  0  0  0  0  0  0  0  0
   -7.5047   25.8449  -23.5719 C   0  0  0  0  0  0  0  0  0  0  0  0
   -7.9181   24.8477  -22.7113 C   0  0  0  0  0  0  0  0  0  0  0  0
   -7.4403   23.5810  -22.8862 C   0  0  0  0  0  0  0  0  0  0  0  0
   -6.5613   23.2872  -23.8908 C   0  0  0  0  0  0  0  0  0  0  0  0
   -5.8629   24.8916  -27.8923 C   0  0  0  0  0  0  0  0  0  0  0  0
   -6.4286   23.7543  -28.0391 O   0  0  0  0  0  0  0  0  0  0  0  0
   -5.0984   25.1082  -26.6891 N   0  0  0  0  0  0  0  0  0  0  0  0
   -4.6222   25.9495  -26.4329 H   0  0  0  0  0  0  0  0  0  0  0  0
   -6.0467   25.7811  -28.9175 O   0  0  0  0  0  0  0  0  0  0  0  0
   -3.8524   25.5626  -29.8036 C   0  0  0  0  0  0  0  0  0  0  0  0
   -5.3150   25.5526  -30.1147 C   0  0  0  0  0  0  0  0  0  0  0  0
   -5.5709   26.6556  -31.1291 C   0  0  0  0  0  0  0  0  0  0  0  0
   -5.7790   24.2575  -30.7050 C   0  0  0  0  0  0  0  0  0  0  0  0
 38 39  1  0  0  0
 39 40  1  0  0  0
 39 41  1  0  0  0
 39 37  1  0  0  0
 37 33  1  0  0  0
 33 34  2  0  0  0
 33 35  1  0  0  0
 35 26  1  0  0  0
 26  1  1  0  0  0
  1  2  2  0  0  0
  1  3  1  0  0  0
  3  4  1  0  0  0
  4  5  1  0  0  0
  5  6  1  0  0  0
  6  7  1  0  0  0
  7  8  1  0  0  0
  8  9  2  0  0  0
  8 10  1  0  0  0
 10 12  1  0  0  0
 12 15  1  0  0  0
 15 16  1  0  0  0
 16 17  1  0  0  0
 17 18  1  0  0  0
 18 20  1  0  0  0
 20 21  1  0  0  0
 20 22  2  0  0  0
 12 13  1  0  0  0
 13 14  2  0  0  0
 26 27  1  0  0  0
 27 28  2  0  0  0
 28 29  1  0  0  0
 29 30  2  0  0  0
 30 31  1  0  0  0
 31 32  2  0  0  0
  7  3  1  0  0  0
 32 27  1  0  0  0
 35 36  1  0  0  0
 10 11  1  0  0  0
 18 19  1  0  0  0
 21 23  1  0  0  0
 21 24  1  0  0  0
 22 25  1  0  0  0
M  END
> <minimizedAffinity>
-8.12308

> <CNNscore>
0.3431364298

> <CNNaffinity>
6.8020157814

> <CNN_VS>
2.3340194225

> <CNNaffinity_variance>
0.0806228518

$$$$
[H]N=C(N([H])[H])N([H])C([H])([H])C([H])([H])C([H])([H])C([H])(C([H])=O)N([H])C(=O)[C@@]1([H])N(C(=O)[C@@]([H])(c2c([H])c([H])c([H])c([H])c2[H])N([H])C(=O)OC(C([H])([H])[H])(C([H])([H])[H])C([H])([H])[H])C([H])([H])C([H])([H])C1([H])[H]


 41 42  0  0  0  0  0  0  0  0999 V2000
   -5.5962   23.4334  -24.8458 C   0  0  0  0  0  0  0  0  0  0  0  0
   -5.6711   22.1612  -24.9202 O   0  0  0  0  0  0  0  0  0  0  0  0
   -6.2652   24.1307  -23.8123 N   0  0  0  0  0  0  0  0  0  0  0  0
   -6.5866   25.5937  -23.9002 C   0  0  0  0  0  0  0  0  0  0  0  0
   -7.9675   25.7118  -23.2372 C   0  0  0  0  0  0  0  0  0  0  0  0
   -8.2033   24.3314  -22.6368 C   0  0  0  0  0  0  0  0  0  0  0  0
   -6.7692   23.8375  -22.5124 C   0  0  0  0  0  0  0  0  0  0  0  0
   -6.5592   22.6008  -21.8248 C   0  0  0  0  0  0  0  0  0  0  0  0
   -7.3061   21.6136  -22.0032 O   0  0  0  0  0  0  0  0  0  0  0  0
   -5.4828   22.4772  -20.9201 N   0  0  0  0  0  0  0  0  0  0  0  0
   -4.8876   23.3665  -20.7698 H   0  0  0  0  0  0  0  0  0  0  0  0
   -5.0979   21.3105  -20.1692 C   0  0  0  0  0  0  0  0  0  0  0  0
   -5.8517   21.2372  -18.8816 C   0  0  0  0  0  0  0  0  0  0  0  0
   -6.0491   22.3400  -18.3396 O   0  0  0  0  0  0  0  0  0  0  0  0
   -3.6279   21.3073  -19.8916 C   0  0  0  0  0  0  0  0  0  0  0  0
   -2.9745   22.5948  -20.2316 C   0  0  0  0  0  0  0  0  0  0  0  0
   -1.7091   22.3929  -21.0619 C   0  0  0  0  0  0  0  0  0  0  0  0
   -1.6147   21.0860  -21.6093 N   0  0  0  0  0  0  0  0  0  0  0  0
   -2.3976   20.5880  -22.0568 H   0  0  0  0  0  0  0  0  0  0  0  0
   -0.3502   20.4022  -21.5614 C   0  0  0  0  0  0  0  0  0  0  0  0
    0.7788   21.0708  -22.1714 N   0  0  0  0  0  0  0  0  0  0  0  0
   -0.1660   19.2475  -21.0360 N   0  0  0  0  0  0  0  0  0  0  0  0
    1.6963   21.1481  -21.6710 H   0  0  0  0  0  0  0  0  0  0  0  0
    0.6831   21.4788  -23.1253 H   0  0  0  0  0  0  0  0  0  0  0  0
   -0.8955   18.6641  -20.5816 H   0  0  0  0  0  0  0  0  0  0  0  0
   -4.8037   24.1436  -25.8472 C   0  0  0  0  0  0  0  0  0  0  0  0
   -3.4314   23.4886  -26.0290 C   0  0  0  0  0  0  0  0  0  0  0  0
   -2.9772   23.1170  -27.2474 C   0  0  0  0  0  0  0  0  0  0  0  0
   -1.7554   22.4429  -27.3701 C   0  0  0  0  0  0  0  0  0  0  0  0
   -1.0193   22.1604  -26.2369 C   0  0  0  0  0  0  0  0  0  0  0  0
   -1.5001   22.5494  -25.0200 C   0  0  0  0  0  0  0  0  0  0  0  0
   -2.6934   23.2062  -24.9060 C   0  0  0  0  0  0  0  0  0  0  0  0
   -5.6787   25.3304  -27.7797 C   0  0  0  0  0  0  0  0  0  0  0  0
   -5.3788   26.3664  -27.0929 O   0  0  0  0  0  0  0  0  0  0  0  0
   -5.4010   24.0398  -27.1996 N   0  0  0  0  0  0  0  0  0  0  0  0
   -5.5629   23.1505  -27.6274 H   0  0  0  0  0  0  0  0  0  0  0  0
   -6.2461   25.5741  -29.0022 O   0  0  0  0  0  0  0  0  0  0  0  0
   -3.9822   25.5874  -29.7244 C   0  0  0  0  0  0  0  0  0  0  0  0
   -5.4100   25.4424  -30.1443 C   0  0  0  0  0  0  0  0  0  0  0  0
   -5.6978   26.5363  -31.1598 C   0  0  0  0  0  0  0  0  0  0  0  0
   -5.7004   24.1211  -30.7851 C   0  0  0  0  0  0  0  0  0  0  0  0
 38 39  1  0  0  0
 39 40  1  0  0  0
 39 41  1  0  0  0
 39 37  1  0  0  0
 37 33  1  0  0  0
 33 34  2  0  0  0
 33 35  1  0  0  0
 35 26  1  0  0  0
 26  1  1  0  0  0
  1  2  2  0  0  0
  1  3  1  0  0  0
  3  4  1  0  0  0
  4  5  1  0  0  0
  5  6  1  0  0  0
  6  7  1  0  0  0
  7  8  1  0  0  0
  8  9  2  0  0  0
  8 10  1  0  0  0
 10 12  1  0  0  0
 12 15  1  0  0  0
 15 16  1  0  0  0
 16 17  1  0  0  0
 17 18  1  0  0  0
 18 20  1  0  0  0
 20 21  1  0  0  0
 20 22  2  0  0  0
 12 13  1  0  0  0
 13 14  2  0  0  0
 26 27  1  0  0  0
 27 28  2  0  0  0
 28 29  1  0  0  0
 29 30  2  0  0  0
 30 31  1  0  0  0
 31 32  2  0  0  0
  7  3  1  0  0  0
 32 27  1  0  0  0
 35 36  1  0  0  0
 10 11  1  0  0  0
 18 19  1  0  0  0
 21 23  1  0  0  0
 21 24  1  0  0  0
 22 25  1  0  0  0
M  END
> <minimizedAffinity>
-7.79391

> <CNNscore>
0.2508965731

> <CNNaffinity>
6.2143621445

> <CNN_VS>
1.5591621399

> <CNNaffinity_variance>
0.4043547213

$$$$
[H]N=C(N([H])[H])N([H])C([H])([H])C([H])([H])C([H])([H])C([H])(C([H])=O)N([H])C(=O)[C@@]1([H])N(C(=O)[C@@]([H])(c2c([H])c([H])c([H])c([H])c2[H])N([H])C(=O)OC(C([H])([H])[H])(C([H])([H])[H])C([H])([H])[H])C([H])([H])C([H])([H])C1([H])[H]


 41 42  0  0  0  0  0  0  0  0999 V2000
   -5.9827   23.4754  -24.7968 C   0  0  0  0  0  0  0  0  0  0  0  0
   -6.1737   22.2264  -24.9789 O   0  0  0  0  0  0  0  0  0  0  0  0
   -6.5876   24.1403  -23.7039 N   0  0  0  0  0  0  0  0  0  0  0  0
   -6.7733   25.6286  -23.6651 C   0  0  0  0  0  0  0  0  0  0  0  0
   -8.1393   25.8155  -22.9871 C   0  0  0  0  0  0  0  0  0  0  0  0
   -8.5020   24.4164  -22.5053 C   0  0  0  0  0  0  0  0  0  0  0  0
   -7.1196   23.7844  -22.4311 C   0  0  0  0  0  0  0  0  0  0  0  0
   -7.0256   22.4796  -21.8526 C   0  0  0  0  0  0  0  0  0  0  0  0
   -7.4344   21.4621  -22.4540 O   0  0  0  0  0  0  0  0  0  0  0  0
   -6.4563   22.3218  -20.5706 N   0  0  0  0  0  0  0  0  0  0  0  0
   -6.1517   23.2319  -20.0738 H   0  0  0  0  0  0  0  0  0  0  0  0
   -6.2482   21.0936  -19.8485 C   0  0  0  0  0  0  0  0  0  0  0  0
   -7.5395   20.5722  -19.3080 C   0  0  0  0  0  0  0  0  0  0  0  0
   -7.5383   19.3515  -19.0657 O   0  0  0  0  0  0  0  0  0  0  0  0
   -5.2749   21.2836  -18.7284 C   0  0  0  0  0  0  0  0  0  0  0  0
   -4.0679   20.4321  -18.8634 C   0  0  0  0  0  0  0  0  0  0  0  0
   -3.9212   19.4578  -17.6968 C   0  0  0  0  0  0  0  0  0  0  0  0
   -5.1224   19.3054  -16.9549 N   0  0  0  0  0  0  0  0  0  0  0  0
   -5.7514   20.0823  -16.7058 H   0  0  0  0  0  0  0  0  0  0  0  0
   -5.5133   17.9885  -16.5283 C   0  0  0  0  0  0  0  0  0  0  0  0
   -4.5498   16.9260  -16.7188 N   0  0  0  0  0  0  0  0  0  0  0  0
   -6.6508   17.6973  -16.0138 N   0  0  0  0  0  0  0  0  0  0  0  0
   -4.3296   16.2513  -15.9478 H   0  0  0  0  0  0  0  0  0  0  0  0
   -4.0689   16.8241  -17.6375 H   0  0  0  0  0  0  0  0  0  0  0  0
   -7.4269   18.3653  -15.8393 H   0  0  0  0  0  0  0  0  0  0  0  0
   -5.1260   24.1930  -25.7381 C   0  0  0  0  0  0  0  0  0  0  0  0
   -3.7645   23.5058  -25.8773 C   0  0  0  0  0  0  0  0  0  0  0  0
   -3.3229   23.0380  -27.0669 C   0  0  0  0  0  0  0  0  0  0  0  0
   -2.1118   22.3385  -27.1449 C   0  0  0  0  0  0  0  0  0  0  0  0
   -1.3732   22.1300  -25.9973 C   0  0  0  0  0  0  0  0  0  0  0  0
   -1.8411   22.6155  -24.8104 C   0  0  0  0  0  0  0  0  0  0  0  0
   -3.0240   23.2967  -24.7400 C   0  0  0  0  0  0  0  0  0  0  0  0
   -5.7965   25.4582  -27.7024 C   0  0  0  0  0  0  0  0  0  0  0  0
   -5.4414   26.4618  -26.9939 O   0  0  0  0  0  0  0  0  0  0  0  0
   -5.6621   24.1464  -27.1190 N   0  0  0  0  0  0  0  0  0  0  0  0
   -5.8799   23.2761  -27.5610 H   0  0  0  0  0  0  0  0  0  0  0  0
   -6.2789   25.7548  -28.9494 O   0  0  0  0  0  0  0  0  0  0  0  0
   -5.6892   24.0776  -30.5264 C   0  0  0  0  0  0  0  0  0  0  0  0
   -5.4330   25.4740  -30.0569 C   0  0  0  0  0  0  0  0  0  0  0  0
   -3.9682   25.5575  -29.6590 C   0  0  0  0  0  0  0  0  0  0  0  0
   -5.6902   26.5031  -31.1131 C   0  0  0  0  0  0  0  0  0  0  0  0
 38 39  1  0  0  0
 39 40  1  0  0  0
 39 41  1  0  0  0
 39 37  1  0  0  0
 37 33  1  0  0  0
 33 34  2  0  0  0
 33 35  1  0  0  0
 35 26  1  0  0  0
 26  1  1  0  0  0
  1  2  2  0  0  0
  1  3  1  0  0  0
  3  4  1  0  0  0
  4  5  1  0  0  0
  5  6  1  0  0  0
  6  7  1  0  0  0
  7  8  1  0  0  0
  8  9  2  0  0  0
  8 10  1  0  0  0
 10 12  1  0  0  0
 12 15  1  0  0  0
 15 16  1  0  0  0
 16 17  1  0  0  0
 17 18  1  0  0  0
 18 20  1  0  0  0
 20 21  1  0  0  0
 20 22  2  0  0  0
 12 13  1  0  0  0
 13 14  2  0  0  0
 26 27  1  0  0  0
 27 28  2  0  0  0
 28 29  1  0  0  0
 29 30  2  0  0  0
 30 31  1  0  0  0
 31 32  2  0  0  0
  7  3  1  0  0  0
 32 27  1  0  0  0
 35 36  1  0  0  0
 10 11  1  0  0  0
 18 19  1  0  0  0
 21 23  1  0  0  0
 21 24  1  0  0  0
 22 25  1  0  0  0
M  END
> <minimizedAffinity>
-7.26343

> <CNNscore>
0.2256842852

> <CNNaffinity>
6.1421179771

> <CNN_VS>
1.3861794472

> <CNNaffinity_variance>
0.0324816406

$$$$
[H]N=C(N([H])[H])N([H])C([H])([H])C([H])([H])C([H])([H])C([H])(C([H])=O)N([H])C(=O)[C@@]1([H])N(C(=O)[C@@]([H])(c2c([H])c([H])c([H])c([H])c2[H])N([H])C(=O)OC(C([H])([H])[H])(C([H])([H])[H])C([H])([H])[H])C([H])([H])C([H])([H])C1([H])[H]


 41 42  0  0  0  0  0  0  0  0999 V2000
   -6.0070   23.5728  -22.6128 C   0  0  0  0  0  0  0  0  0  0  0  0
   -5.8472   22.4718  -21.9867 O   0  0  0  0  0  0  0  0  0  0  0  0
   -7.0485   24.4587  -22.2488 N   0  0  0  0  0  0  0  0  0  0  0  0
   -7.5675   25.5202  -23.1735 C   0  0  0  0  0  0  0  0  0  0  0  0
   -9.0801   25.5408  -22.9046 C   0  0  0  0  0  0  0  0  0  0  0  0
   -9.2469   24.6372  -21.6893 C   0  0  0  0  0  0  0  0  0  0  0  0
   -7.8473   24.7126  -21.0967 C   0  0  0  0  0  0  0  0  0  0  0  0
   -7.6419   24.0998  -19.8205 C   0  0  0  0  0  0  0  0  0  0  0  0
   -7.2552   24.7574  -18.8294 O   0  0  0  0  0  0  0  0  0  0  0  0
   -7.8804   22.7178  -19.6614 N   0  0  0  0  0  0  0  0  0  0  0  0
   -8.1766   22.1838  -20.5530 H   0  0  0  0  0  0  0  0  0  0  0  0
   -7.7621   21.9406  -18.4550 C   0  0  0  0  0  0  0  0  0  0  0  0
   -6.4650   21.2001  -18.4276 C   0  0  0  0  0  0  0  0  0  0  0  0
   -6.3395   20.3521  -19.3297 O   0  0  0  0  0  0  0  0  0  0  0  0
   -8.8956   20.9734  -18.3220 C   0  0  0  0  0  0  0  0  0  0  0  0
  -10.2196   21.6029  -18.5473 C   0  0  0  0  0  0  0  0  0  0  0  0
  -11.3140   20.9517  -17.7049 C   0  0  0  0  0  0  0  0  0  0  0  0
  -10.9723   19.6405  -17.2801 N   0  0  0  0  0  0  0  0  0  0  0  0
  -10.5890   18.9126  -17.9002 H   0  0  0  0  0  0  0  0  0  0  0  0
  -11.1490   19.2903  -15.8962 C   0  0  0  0  0  0  0  0  0  0  0  0
  -10.3489   20.0127  -14.9311 N   0  0  0  0  0  0  0  0  0  0  0  0
  -11.9455   18.3801  -15.4712 N   0  0  0  0  0  0  0  0  0  0  0  0
  -10.7803   20.4176  -14.0661 H   0  0  0  0  0  0  0  0  0  0  0  0
   -9.3263   20.1299  -15.0929 H   0  0  0  0  0  0  0  0  0  0  0  0
  -12.5593   17.7864  -16.0625 H   0  0  0  0  0  0  0  0  0  0  0  0
   -5.0897   23.8920  -23.7045 C   0  0  0  0  0  0  0  0  0  0  0  0
   -3.6875   23.3444  -23.4233 C   0  0  0  0  0  0  0  0  0  0  0  0
   -2.8124   24.0047  -22.6313 C   0  0  0  0  0  0  0  0  0  0  0  0
   -1.5086   23.5209  -22.4630 C   0  0  0  0  0  0  0  0  0  0  0  0
   -1.1243   22.3651  -23.1128 C   0  0  0  0  0  0  0  0  0  0  0  0
   -2.0287   21.7172  -23.9038 C   0  0  0  0  0  0  0  0  0  0  0  0
   -3.2994   22.1942  -24.0652 C   0  0  0  0  0  0  0  0  0  0  0  0
   -5.5494   24.1092  -26.0815 C   0  0  0  0  0  0  0  0  0  0  0  0
   -5.2872   25.3424  -25.8681 O   0  0  0  0  0  0  0  0  0  0  0  0
   -5.4669   23.2043  -24.9619 N   0  0  0  0  0  0  0  0  0  0  0  0
   -5.6240   22.2169  -24.9852 H   0  0  0  0  0  0  0  0  0  0  0  0
   -5.8920   23.7908  -27.3688 O   0  0  0  0  0  0  0  0  0  0  0  0
   -3.6403   23.0834  -27.6465 C   0  0  0  0  0  0  0  0  0  0  0  0
   -4.8360   23.6836  -28.3145 C   0  0  0  0  0  0  0  0  0  0  0  0
   -4.4269   25.0529  -28.8325 C   0  0  0  0  0  0  0  0  0  0  0  0
   -5.3277   22.8730  -29.4729 C   0  0  0  0  0  0  0  0  0  0  0  0
 38 39  1  0  0  0
 39 40  1  0  0  0
 39 41  1  0  0  0
 39 37  1  0  0  0
 37 33  1  0  0  0
 33 34  2  0  0  0
 33 35  1  0  0  0
 35 26  1  0  0  0
 26  1  1  0  0  0
  1  2  2  0  0  0
  1  3  1  0  0  0
  3  4  1  0  0  0
  4  5  1  0  0  0
  5  6  1  0  0  0
  6  7  1  0  0  0
  7  8  1  0  0  0
  8  9  2  0  0  0
  8 10  1  0  0  0
 10 12  1  0  0  0
 12 15  1  0  0  0
 15 16  1  0  0  0
 16 17  1  0  0  0
 17 18  1  0  0  0
 18 20  1  0  0  0
 20 21  1  0  0  0
 20 22  2  0  0  0
 12 13  1  0  0  0
 13 14  2  0  0  0
 26 27  1  0  0  0
 27 28  2  0  0  0
 28 29  1  0  0  0
 29 30  2  0  0  0
 30 31  1  0  0  0
 31 32  2  0  0  0
  7  3  1  0  0  0
 32 27  1  0  0  0
 35 36  1  0  0  0
 10 11  1  0  0  0
 18 19  1  0  0  0
 21 23  1  0  0  0
 21 24  1  0  0  0
 22 25  1  0  0  0
M  END
> <minimizedAffinity>
-6.60334

> <CNNscore>
0.2111232430

> <CNNaffinity>
5.7966299057

> <CNN_VS>
1.2238032818

> <CNNaffinity_variance>
0.2241185158

$$$$
[H]N=C(N([H])[H])N([H])C([H])([H])C([H])([H])C([H])([H])C([H])(C([H])=O)N([H])C(=O)[C@@]1([H])N(C(=O)[C@@]([H])(c2c([H])c([H])c([H])c([H])c2[H])N([H])C(=O)OC(C([H])([H])[H])(C([H])([H])[H])C([H])([H])[H])C([H])([H])C([H])([H])C1([H])[H]


 41 42  0  0  0  0  0  0  0  0999 V2000
   -3.7247   24.0134  -25.3388 C   0  0  0  0  0  0  0  0  0  0  0  0
   -3.3714   24.7228  -24.3380 O   0  0  0  0  0  0  0  0  0  0  0  0
   -2.7966   23.1501  -25.9677 N   0  0  0  0  0  0  0  0  0  0  0  0
   -2.9889   22.6348  -27.3636 C   0  0  0  0  0  0  0  0  0  0  0  0
   -1.5719   22.6313  -27.9575 C   0  0  0  0  0  0  0  0  0  0  0  0
   -0.6757   22.9393  -26.7645 C   0  0  0  0  0  0  0  0  0  0  0  0
   -1.5782   22.4978  -25.6216 C   0  0  0  0  0  0  0  0  0  0  0  0
   -1.0135   22.4860  -24.3074 C   0  0  0  0  0  0  0  0  0  0  0  0
    0.2105   22.6563  -24.1155 O   0  0  0  0  0  0  0  0  0  0  0  0
   -1.8491   22.2801  -23.1885 N   0  0  0  0  0  0  0  0  0  0  0  0
   -2.8925   22.1001  -23.4050 H   0  0  0  0  0  0  0  0  0  0  0  0
   -1.4687   22.2699  -21.7998 C   0  0  0  0  0  0  0  0  0  0  0  0
   -0.9858   20.9160  -21.3932 C   0  0  0  0  0  0  0  0  0  0  0  0
    0.2494   20.8278  -21.2704 O   0  0  0  0  0  0  0  0  0  0  0  0
   -2.6100   22.6802  -20.9239 C   0  0  0  0  0  0  0  0  0  0  0  0
   -3.9269   22.5477  -21.5936 C   0  0  0  0  0  0  0  0  0  0  0  0
   -5.0839   22.6117  -20.5993 C   0  0  0  0  0  0  0  0  0  0  0  0
   -5.9454   21.4862  -20.6868 N   0  0  0  0  0  0  0  0  0  0  0  0
   -5.6519   20.5573  -21.0221 H   0  0  0  0  0  0  0  0  0  0  0  0
   -7.3150   21.6254  -20.2701 C   0  0  0  0  0  0  0  0  0  0  0  0
   -7.5610   22.4177  -19.0846 N   0  0  0  0  0  0  0  0  0  0  0  0
   -8.3152   21.0857  -20.8632 N   0  0  0  0  0  0  0  0  0  0  0  0
   -8.3082   23.1524  -19.0709 H   0  0  0  0  0  0  0  0  0  0  0  0
   -6.9914   22.2546  -18.2276 H   0  0  0  0  0  0  0  0  0  0  0  0
   -8.2675   20.4872  -21.7107 H   0  0  0  0  0  0  0  0  0  0  0  0
   -5.1039   24.1139  -25.8108 C   0  0  0  0  0  0  0  0  0  0  0  0
   -6.0481   24.5096  -24.6719 C   0  0  0  0  0  0  0  0  0  0  0  0
   -6.6484   23.5822  -23.8918 C   0  0  0  0  0  0  0  0  0  0  0  0
   -7.5726   23.9729  -22.9144 C   0  0  0  0  0  0  0  0  0  0  0  0
   -7.8661   25.3123  -22.7546 C   0  0  0  0  0  0  0  0  0  0  0  0
   -7.2435   26.2274  -23.5536 C   0  0  0  0  0  0  0  0  0  0  0  0
   -6.3431   25.8404  -24.5064 C   0  0  0  0  0  0  0  0  0  0  0  0
   -5.9599   24.7999  -27.9800 C   0  0  0  0  0  0  0  0  0  0  0  0
   -6.3309   23.5784  -28.0539 O   0  0  0  0  0  0  0  0  0  0  0  0
   -5.2762   25.2200  -26.7820 N   0  0  0  0  0  0  0  0  0  0  0  0
   -4.9492   26.1431  -26.5791 H   0  0  0  0  0  0  0  0  0  0  0  0
   -6.2536   25.5750  -29.0704 O   0  0  0  0  0  0  0  0  0  0  0  0
   -5.7312   24.1794  -30.9216 C   0  0  0  0  0  0  0  0  0  0  0  0
   -5.4048   25.4500  -30.2038 C   0  0  0  0  0  0  0  0  0  0  0  0
   -3.9452   25.3732  -29.7862 C   0  0  0  0  0  0  0  0  0  0  0  0
   -5.5837   26.6669  -31.0571 C   0  0  0  0  0  0  0  0  0  0  0  0
 38 39  1  0  0  0
 39 40  1  0  0  0
 39 41  1  0  0  0
 39 37  1  0  0  0
 37 33  1  0  0  0
 33 34  2  0  0  0
 33 35  1  0  0  0
 35 26  1  0  0  0
 26  1  1  0  0  0
  1  2  2  0  0  0
  1  3  1  0  0  0
  3  4  1  0  0  0
  4  5  1  0  0  0
  5  6  1  0  0  0
  6  7  1  0  0  0
  7  8  1  0  0  0
  8  9  2  0  0  0
  8 10  1  0  0  0
 10 12  1  0  0  0
 12 15  1  0  0  0
 15 16  1  0  0  0
 16 17  1  0  0  0
 17 18  1  0  0  0
 18 20  1  0  0  0
 20 21  1  0  0  0
 20 22  2  0  0  0
 12 13  1  0  0  0
 13 14  2  0  0  0
 26 27  1  0  0  0
 27 28  2  0  0  0
 28 29  1  0  0  0
 29 30  2  0  0  0
 30 31  1  0  0  0
 31 32  2  0  0  0
  7  3  1  0  0  0
 32 27  1  0  0  0
 35 36  1  0  0  0
 10 11  1  0  0  0
 18 19  1  0  0  0
 21 23  1  0  0  0
 21 24  1  0  0  0
 22 25  1  0  0  0
M  END
> <minimizedAffinity>
-7.26315

> <CNNscore>
0.1787938923

> <CNNaffinity>
6.6222395897

> <CNN_VS>
1.1840159893

> <CNNaffinity_variance>
0.0224516280

$$$$
[H]N=C(N([H])[H])N([H])C([H])([H])C([H])([H])C([H])([H])C([H])(C([H])=O)N([H])C(=O)[C@@]1([H])N(C(=O)[C@@]([H])(c2c([H])c([H])c([H])c([H])c2[H])N([H])C(=O)OC(C([H])([H])[H])(C([H])([H])[H])C([H])([H])[H])C([H])([H])C([H])([H])C1([H])[H]


 41 42  0  0  0  0  0  0  0  0999 V2000
   -3.7598   22.8915  -23.8908 C   0  0  0  0  0  0  0  0  0  0  0  0
   -3.4904   21.6635  -23.6696 O   0  0  0  0  0  0  0  0  0  0  0  0
   -4.4681   23.6531  -22.9314 N   0  0  0  0  0  0  0  0  0  0  0  0
   -5.1873   24.9235  -23.2781 C   0  0  0  0  0  0  0  0  0  0  0  0
   -6.4593   24.8776  -22.4177 C   0  0  0  0  0  0  0  0  0  0  0  0
   -6.2341   23.6850  -21.4968 C   0  0  0  0  0  0  0  0  0  0  0  0
   -4.7153   23.5956  -21.5295 C   0  0  0  0  0  0  0  0  0  0  0  0
   -4.0939   22.6660  -20.6374 C   0  0  0  0  0  0  0  0  0  0  0  0
   -4.6695   21.6165  -20.2749 O   0  0  0  0  0  0  0  0  0  0  0  0
   -2.7960   22.9268  -20.1476 N   0  0  0  0  0  0  0  0  0  0  0  0
   -2.3534   23.8626  -20.4576 H   0  0  0  0  0  0  0  0  0  0  0  0
   -2.0044   22.0977  -19.2762 C   0  0  0  0  0  0  0  0  0  0  0  0
   -1.0188   22.9213  -18.5134 C   0  0  0  0  0  0  0  0  0  0  0  0
   -0.6006   23.9196  -19.1276 O   0  0  0  0  0  0  0  0  0  0  0  0
   -1.2834   21.0376  -20.0471 C   0  0  0  0  0  0  0  0  0  0  0  0
   -0.8735   19.8892  -19.2024 C   0  0  0  0  0  0  0  0  0  0  0  0
    0.2935   19.1169  -19.8132 C   0  0  0  0  0  0  0  0  0  0  0  0
   -0.1238   18.1731  -20.7888 N   0  0  0  0  0  0  0  0  0  0  0  0
   -0.8329   18.3629  -21.5116 H   0  0  0  0  0  0  0  0  0  0  0  0
    0.4813   16.8683  -20.7968 C   0  0  0  0  0  0  0  0  0  0  0  0
    1.8203   16.7712  -21.3366 N   0  0  0  0  0  0  0  0  0  0  0  0
   -0.0883   15.7987  -20.3786 N   0  0  0  0  0  0  0  0  0  0  0  0
    2.5725   16.2499  -20.8261 H   0  0  0  0  0  0  0  0  0  0  0  0
    2.0425   17.2215  -22.2496 H   0  0  0  0  0  0  0  0  0  0  0  0
   -1.0470   15.7362  -19.9838 H   0  0  0  0  0  0  0  0  0  0  0  0
   -3.3169   23.4852  -25.1503 C   0  0  0  0  0  0  0  0  0  0  0  0
   -1.9807   22.8876  -25.6007 C   0  0  0  0  0  0  0  0  0  0  0  0
   -0.9796   22.6445  -24.7245 C   0  0  0  0  0  0  0  0  0  0  0  0
    0.2600   22.1780  -25.1805 C   0  0  0  0  0  0  0  0  0  0  0  0
    0.4515   21.9692  -26.5316 C   0  0  0  0  0  0  0  0  0  0  0  0
   -0.5769   22.2201  -27.3935 C   0  0  0  0  0  0  0  0  0  0  0  0
   -1.7842   22.6761  -26.9432 C   0  0  0  0  0  0  0  0  0  0  0  0
   -4.7134   24.3147  -26.9587 C   0  0  0  0  0  0  0  0  0  0  0  0
   -4.3125   25.4565  -26.5455 O   0  0  0  0  0  0  0  0  0  0  0  0
   -4.2252   23.1452  -26.2709 N   0  0  0  0  0  0  0  0  0  0  0  0
   -4.4366   22.1939  -26.4960 H   0  0  0  0  0  0  0  0  0  0  0  0
   -5.5807   24.3396  -28.0185 O   0  0  0  0  0  0  0  0  0  0  0  0
   -5.8601   24.8429  -30.3241 C   0  0  0  0  0  0  0  0  0  0  0  0
   -5.0331   24.1173  -29.3114 C   0  0  0  0  0  0  0  0  0  0  0  0
   -5.0669   22.6408  -29.6714 C   0  0  0  0  0  0  0  0  0  0  0  0
   -3.6039   24.5622  -29.2955 C   0  0  0  0  0  0  0  0  0  0  0  0
 38 39  1  0  0  0
 39 40  1  0  0  0
 39 41  1  0  0  0
 39 37  1  0  0  0
 37 33  1  0  0  0
 33 34  2  0  0  0
 33 35  1  0  0  0
 35 26  1  0  0  0
 26  1  1  0  0  0
  1  2  2  0  0  0
  1  3  1  0  0  0
  3  4  1  0  0  0
  4  5  1  0  0  0
  5  6  1  0  0  0
  6  7  1  0  0  0
  7  8  1  0  0  0
  8  9  2  0  0  0
  8 10  1  0  0  0
 10 12  1  0  0  0
 12 15  1  0  0  0
 15 16  1  0  0  0
 16 17  1  0  0  0
 17 18  1  0  0  0
 18 20  1  0  0  0
 20 21  1  0  0  0
 20 22  2  0  0  0
 12 13  1  0  0  0
 13 14  2  0  0  0
 26 27  1  0  0  0
 27 28  2  0  0  0
 28 29  1  0  0  0
 29 30  2  0  0  0
 30 31  1  0  0  0
 31 32  2  0  0  0
  7  3  1  0  0  0
 32 27  1  0  0  0
 35 36  1  0  0  0
 10 11  1  0  0  0
 18 19  1  0  0  0
 21 23  1  0  0  0
 21 24  1  0  0  0
 22 25  1  0  0  0
M  END
> <minimizedAffinity>
-7.36369

> <CNNscore>
0.1766554713

> <CNNaffinity>
5.9871325493

> <CNN_VS>
1.0576597452

> <CNNaffinity_variance>
0.1714863926

$$$$
[H]N([H])[C@@]([H])(C(=O)N1C([H])([H])C([H])([H])C([H])([H])[C@@]1([H])C(=O)N1C([H])([H])C([H])([H])C([H])([H])[C@@]1([H])C(=O)N1C([H])([H])C([H])([H])C([H])([H])[C@@]1([H])C#N)C([H])([H])[H]


 28 30  0  0  0  0  0  0  0  0999 V2000
   -3.9548   23.8818  -24.8608 C   0  0  0  0  0  0  0  0  0  0  0  0
   -3.1206   24.0941  -23.9384 O   0  0  0  0  0  0  0  0  0  0  0  0
   -4.9735   24.8322  -25.0824 N   0  0  0  0  0  0  0  0  0  0  0  0
   -5.0983   26.0480  -24.2553 C   0  0  0  0  0  0  0  0  0  0  0  0
   -6.6058   26.1243  -24.1599 C   0  0  0  0  0  0  0  0  0  0  0  0
   -7.0175   25.8646  -25.5885 C   0  0  0  0  0  0  0  0  0  0  0  0
   -6.0293   24.8598  -26.0821 C   0  0  0  0  0  0  0  0  0  0  0  0
   -1.6067   22.9177  -26.9250 C   0  0  0  0  0  0  0  0  0  0  0  0
   -2.2064   23.7278  -27.7143 O   0  0  0  0  0  0  0  0  0  0  0  0
   -2.3554   22.3647  -25.8718 N   0  0  0  0  0  0  0  0  0  0  0  0
   -1.8602   21.4471  -24.8784 C   0  0  0  0  0  0  0  0  0  0  0  0
   -3.0358   21.1291  -23.9941 C   0  0  0  0  0  0  0  0  0  0  0  0
   -4.2230   21.3951  -24.8743 C   0  0  0  0  0  0  0  0  0  0  0  0
   -3.7657   22.6311  -25.6258 C   0  0  0  0  0  0  0  0  0  0  0  0
    0.0211   23.0982  -28.6874 C   0  0  0  0  0  0  0  0  0  0  0  0
   -0.1957   22.6714  -27.2316 C   0  0  0  0  0  0  0  0  0  0  0  0
    0.7535   23.3161  -26.3881 N   0  0  0  0  0  0  0  0  0  0  0  0
    1.0905   24.2363  -26.7494 H   0  0  0  0  0  0  0  0  0  0  0  0
    1.6080   22.7193  -26.3244 H   0  0  0  0  0  0  0  0  0  0  0  0
   -5.5098   25.3284  -27.3937 C   0  0  0  0  0  0  0  0  0  0  0  0
   -5.1434   26.5167  -27.5889 O   0  0  0  0  0  0  0  0  0  0  0  0
   -5.4131   24.4247  -28.4793 N   0  0  0  0  0  0  0  0  0  0  0  0
   -5.7991   23.0302  -28.4041 C   0  0  0  0  0  0  0  0  0  0  0  0
   -5.2642   22.3960  -29.6838 C   0  0  0  0  0  0  0  0  0  0  0  0
   -5.4896   23.5715  -30.6469 C   0  0  0  0  0  0  0  0  0  0  0  0
   -4.9220   24.7079  -29.8299 C   0  0  0  0  0  0  0  0  0  0  0  0
   -5.3462   26.0054  -30.3071 C   0  0  0  0  0  0  0  0  0  0  0  0
   -5.6864   27.0427  -30.6923 N   0  0  0  0  0  0  0  0  0  0  0  0
 15 16  1  0  0  0
 16 17  1  0  0  0
 16  8  1  0  0  0
  8  9  2  0  0  0
  8 10  1  0  0  0
 10 11  1  0  0  0
 11 12  1  0  0  0
 12 13  1  0  0  0
 13 14  1  0  0  0
 14  1  1  0  0  0
  1  2  2  0  0  0
  1  3  1  0  0  0
  3  4  1  0  0  0
  4  5  1  0  0  0
  5  6  1  0  0  0
  6  7  1  0  0  0
  7 20  1  0  0  0
 20 21  2  0  0  0
 20 22  1  0  0  0
 22 23  1  0  0  0
 23 24  1  0  0  0
 24 25  1  0  0  0
 25 26  1  0  0  0
 26 27  1  0  0  0
 27 28  3  0  0  0
 14 10  1  0  0  0
  7  3  1  0  0  0
 26 22  1  0  0  0
 17 18  1  0  0  0
 17 19  1  0  0  0
M  END
> <minimizedAffinity>
-7.77803

> <CNNscore>
0.5710284710

> <CNNaffinity>
7.0223207474

> <CNN_VS>
4.0099449158

> <CNNaffinity_variance>
0.3081151843

$$$$
[H]N([H])[C@@]([H])(C(=O)N1C([H])([H])C([H])([H])C([H])([H])[C@@]1([H])C(=O)N1C([H])([H])C([H])([H])C([H])([H])[C@@]1([H])C(=O)N1C([H])([H])C([H])([H])C([H])([H])[C@@]1([H])C#N)C([H])([H])[H]


 28 30  0  0  0  0  0  0  0  0999 V2000
   -2.6795   23.3286  -21.9553 C   0  0  0  0  0  0  0  0  0  0  0  0
   -2.1279   23.9709  -21.0200 O   0  0  0  0  0  0  0  0  0  0  0  0
   -3.1477   24.0407  -23.0796 N   0  0  0  0  0  0  0  0  0  0  0  0
   -3.0273   25.5082  -23.1780 C   0  0  0  0  0  0  0  0  0  0  0  0
   -4.3500   25.8174  -23.8431 C   0  0  0  0  0  0  0  0  0  0  0  0
   -4.4043   24.7641  -24.9227 C   0  0  0  0  0  0  0  0  0  0  0  0
   -3.7801   23.5602  -24.2977 C   0  0  0  0  0  0  0  0  0  0  0  0
   -0.4530   21.0879  -21.1033 C   0  0  0  0  0  0  0  0  0  0  0  0
   -0.0664   21.2626  -22.3111 O   0  0  0  0  0  0  0  0  0  0  0  0
   -1.7923   21.3890  -20.8009 N   0  0  0  0  0  0  0  0  0  0  0  0
   -2.4102   21.2690  -19.5056 C   0  0  0  0  0  0  0  0  0  0  0  0
   -3.8453   21.6796  -19.6982 C   0  0  0  0  0  0  0  0  0  0  0  0
   -4.0933   21.4260  -21.1573 C   0  0  0  0  0  0  0  0  0  0  0  0
   -2.7745   21.8658  -21.7645 C   0  0  0  0  0  0  0  0  0  0  0  0
    0.6045   19.0647  -20.3440 C   0  0  0  0  0  0  0  0  0  0  0  0
    0.5706   20.5882  -20.1824 C   0  0  0  0  0  0  0  0  0  0  0  0
    1.8797   21.1249  -20.3452 N   0  0  0  0  0  0  0  0  0  0  0  0
    2.5028   20.5527  -20.9579 H   0  0  0  0  0  0  0  0  0  0  0  0
    2.3546   21.1433  -19.4155 H   0  0  0  0  0  0  0  0  0  0  0  0
   -2.7707   23.0187  -25.2450 C   0  0  0  0  0  0  0  0  0  0  0  0
   -1.6610   22.5645  -24.8619 O   0  0  0  0  0  0  0  0  0  0  0  0
   -3.0431   23.0012  -26.6343 N   0  0  0  0  0  0  0  0  0  0  0  0
   -4.2740   23.4916  -27.2206 C   0  0  0  0  0  0  0  0  0  0  0  0
   -4.2446   23.0185  -28.6702 C   0  0  0  0  0  0  0  0  0  0  0  0
   -2.7390   23.1624  -28.9395 C   0  0  0  0  0  0  0  0  0  0  0  0
   -2.1751   22.5023  -27.7036 C   0  0  0  0  0  0  0  0  0  0  0  0
   -0.7847   22.8308  -27.4797 C   0  0  0  0  0  0  0  0  0  0  0  0
    0.3285   23.0912  -27.2981 N   0  0  0  0  0  0  0  0  0  0  0  0
 15 16  1  0  0  0
 16 17  1  0  0  0
 16  8  1  0  0  0
  8  9  2  0  0  0
  8 10  1  0  0  0
 10 11  1  0  0  0
 11 12  1  0  0  0
 12 13  1  0  0  0
 13 14  1  0  0  0
 14  1  1  0  0  0
  1  2  2  0  0  0
  1  3  1  0  0  0
  3  4  1  0  0  0
  4  5  1  0  0  0
  5  6  1  0  0  0
  6  7  1  0  0  0
  7 20  1  0  0  0
 20 21  2  0  0  0
 20 22  1  0  0  0
 22 23  1  0  0  0
 23 24  1  0  0  0
 24 25  1  0  0  0
 25 26  1  0  0  0
 26 27  1  0  0  0
 27 28  3  0  0  0
 14 10  1  0  0  0
  7  3  1  0  0  0
 26 22  1  0  0  0
 17 18  1  0  0  0
 17 19  1  0  0  0
M  END
> <minimizedAffinity>
-6.41703

> <CNNscore>
0.4524613619

> <CNNaffinity>
6.4800925255

> <CNN_VS>
2.9319915771

> <CNNaffinity_variance>
0.5118747950

$$$$
[H]N([H])[C@@]([H])(C(=O)N1C([H])([H])C([H])([H])C([H])([H])[C@@]1([H])C(=O)N1C([H])([H])C([H])([H])C([H])([H])[C@@]1([H])C(=O)N1C([H])([H])C([H])([H])C([H])([H])[C@@]1([H])C#N)C([H])([H])[H]


 28 30  0  0  0  0  0  0  0  0999 V2000
   -5.4862   23.9585  -25.0817 C   0  0  0  0  0  0  0  0  0  0  0  0
   -6.2473   24.9170  -24.7759 O   0  0  0  0  0  0  0  0  0  0  0  0
   -5.1621   23.7601  -26.4404 N   0  0  0  0  0  0  0  0  0  0  0  0
   -5.7036   24.6264  -27.5052 C   0  0  0  0  0  0  0  0  0  0  0  0
   -5.9328   23.5829  -28.5757 C   0  0  0  0  0  0  0  0  0  0  0  0
   -4.6486   22.7924  -28.5139 C   0  0  0  0  0  0  0  0  0  0  0  0
   -4.2948   22.7729  -27.0634 C   0  0  0  0  0  0  0  0  0  0  0  0
   -5.1587   24.5953  -21.8894 C   0  0  0  0  0  0  0  0  0  0  0  0
   -4.1425   25.2563  -22.3008 O   0  0  0  0  0  0  0  0  0  0  0  0
   -5.6157   23.5392  -22.6965 N   0  0  0  0  0  0  0  0  0  0  0  0
   -6.7435   22.6899  -22.4124 C   0  0  0  0  0  0  0  0  0  0  0  0
   -6.8109   21.7066  -23.5499 C   0  0  0  0  0  0  0  0  0  0  0  0
   -5.4032   21.6719  -24.0717 C   0  0  0  0  0  0  0  0  0  0  0  0
   -5.0061   23.1313  -23.9546 C   0  0  0  0  0  0  0  0  0  0  0  0
   -7.1295   25.5579  -20.9005 C   0  0  0  0  0  0  0  0  0  0  0  0
   -5.7183   25.0362  -20.6095 C   0  0  0  0  0  0  0  0  0  0  0  0
   -5.7634   24.0607  -19.5729 N   0  0  0  0  0  0  0  0  0  0  0  0
   -6.6697   23.5451  -19.5106 H   0  0  0  0  0  0  0  0  0  0  0  0
   -5.6603   24.5421  -18.6521 H   0  0  0  0  0  0  0  0  0  0  0  0
   -2.8655   23.1593  -26.9312 C   0  0  0  0  0  0  0  0  0  0  0  0
   -2.3196   23.9975  -27.6953 O   0  0  0  0  0  0  0  0  0  0  0  0
   -2.0672   22.5783  -25.9165 N   0  0  0  0  0  0  0  0  0  0  0  0
   -2.5569   21.5994  -24.9671 C   0  0  0  0  0  0  0  0  0  0  0  0
   -1.4610   21.4790  -23.9132 C   0  0  0  0  0  0  0  0  0  0  0  0
   -0.2338   21.6428  -24.8229 C   0  0  0  0  0  0  0  0  0  0  0  0
   -0.6542   22.8438  -25.6366 C   0  0  0  0  0  0  0  0  0  0  0  0
    0.1245   23.0001  -26.8451 C   0  0  0  0  0  0  0  0  0  0  0  0
    0.7507   23.1250  -27.8107 N   0  0  0  0  0  0  0  0  0  0  0  0
 15 16  1  0  0  0
 16 17  1  0  0  0
 16  8  1  0  0  0
  8  9  2  0  0  0
  8 10  1  0  0  0
 10 11  1  0  0  0
 11 12  1  0  0  0
 12 13  1  0  0  0
 13 14  1  0  0  0
 14  1  1  0  0  0
  1  2  2  0  0  0
  1  3  1  0  0  0
  3  4  1  0  0  0
  4  5  1  0  0  0
  5  6  1  0  0  0
  6  7  1  0  0  0
  7 20  1  0  0  0
 20 21  2  0  0  0
 20 22  1  0  0  0
 22 23  1  0  0  0
 23 24  1  0  0  0
 24 25  1  0  0  0
 25 26  1  0  0  0
 26 27  1  0  0  0
 27 28  3  0  0  0
 14 10  1  0  0  0
  7  3  1  0  0  0
 26 22  1  0  0  0
 17 18  1  0  0  0
 17 19  1  0  0  0
M  END
> <minimizedAffinity>
-7.11512

> <CNNscore>
0.3908019364

> <CNNaffinity>
6.2986288071

> <CNN_VS>
2.4615163803

> <CNNaffinity_variance>
0.2654811740

$$$$
[H]N([H])[C@@]([H])(C(=O)N1C([H])([H])C([H])([H])C([H])([H])[C@@]1([H])C(=O)N1C([H])([H])C([H])([H])C([H])([H])[C@@]1([H])C(=O)N1C([H])([H])C([H])([H])C([H])([H])[C@@]1([H])C#N)C([H])([H])[H]


 28 30  0  0  0  0  0  0  0  0999 V2000
   -4.0986   23.5432  -24.8055 C   0  0  0  0  0  0  0  0  0  0  0  0
   -4.7298   24.6224  -24.9742 O   0  0  0  0  0  0  0  0  0  0  0  0
   -3.1799   23.1360  -25.7957 N   0  0  0  0  0  0  0  0  0  0  0  0
   -2.9565   23.9244  -27.0230 C   0  0  0  0  0  0  0  0  0  0  0  0
   -2.7989   22.7931  -28.0143 C   0  0  0  0  0  0  0  0  0  0  0  0
   -1.8779   21.8580  -27.2692 C   0  0  0  0  0  0  0  0  0  0  0  0
   -2.3052   21.9752  -25.8432 C   0  0  0  0  0  0  0  0  0  0  0  0
   -5.2655   24.5347  -21.9143 C   0  0  0  0  0  0  0  0  0  0  0  0
   -4.0746   24.9854  -21.7818 O   0  0  0  0  0  0  0  0  0  0  0  0
   -5.4572   23.4590  -22.7984 N   0  0  0  0  0  0  0  0  0  0  0  0
   -6.7161   22.8228  -23.0893 C   0  0  0  0  0  0  0  0  0  0  0  0
   -6.4007   21.7203  -24.0641 C   0  0  0  0  0  0  0  0  0  0  0  0
   -4.9535   21.4183  -23.8009 C   0  0  0  0  0  0  0  0  0  0  0  0
   -4.3984   22.8091  -23.5580 C   0  0  0  0  0  0  0  0  0  0  0  0
   -7.3376   25.7442  -22.0918 C   0  0  0  0  0  0  0  0  0  0  0  0
   -6.2862   25.2127  -21.1118 C   0  0  0  0  0  0  0  0  0  0  0  0
   -6.9138   24.4306  -20.1005 N   0  0  0  0  0  0  0  0  0  0  0  0
   -7.8049   23.9770  -20.4027 H   0  0  0  0  0  0  0  0  0  0  0  0
   -7.1817   25.0560  -19.3084 H   0  0  0  0  0  0  0  0  0  0  0  0
   -1.0908   22.1880  -25.0130 C   0  0  0  0  0  0  0  0  0  0  0  0
   -0.0617   22.7612  -25.4568 O   0  0  0  0  0  0  0  0  0  0  0  0
   -1.0649   21.7394  -23.6703 N   0  0  0  0  0  0  0  0  0  0  0  0
   -2.1718   21.0626  -23.0252 C   0  0  0  0  0  0  0  0  0  0  0  0
   -1.8129   21.0286  -21.5433 C   0  0  0  0  0  0  0  0  0  0  0  0
   -0.2949   20.8277  -21.6683 C   0  0  0  0  0  0  0  0  0  0  0  0
    0.0345   21.8693  -22.7112 C   0  0  0  0  0  0  0  0  0  0  0  0
    1.3263   21.6560  -23.3253 C   0  0  0  0  0  0  0  0  0  0  0  0
    2.3619   21.4865  -23.8140 N   0  0  0  0  0  0  0  0  0  0  0  0
 15 16  1  0  0  0
 16 17  1  0  0  0
 16  8  1  0  0  0
  8  9  2  0  0  0
  8 10  1  0  0  0
 10 11  1  0  0  0
 11 12  1  0  0  0
 12 13  1  0  0  0
 13 14  1  0  0  0
 14  1  1  0  0  0
  1  2  2  0  0  0
  1  3  1  0  0  0
  3  4  1  0  0  0
  4  5  1  0  0  0
  5  6  1  0  0  0
  6  7  1  0  0  0
  7 20  1  0  0  0
 20 21  2  0  0  0
 20 22  1  0  0  0
 22 23  1  0  0  0
 23 24  1  0  0  0
 24 25  1  0  0  0
 25 26  1  0  0  0
 26 27  1  0  0  0
 27 28  3  0  0  0
 14 10  1  0  0  0
  7  3  1  0  0  0
 26 22  1  0  0  0
 17 18  1  0  0  0
 17 19  1  0  0  0
M  END
> <minimizedAffinity>
-6.41286

> <CNNscore>
0.3381866515

> <CNNaffinity>
6.0799312592

> <CNN_VS>
2.0561516285

> <CNNaffinity_variance>
0.1219257563

$$$$
[H]N([H])[C@@]([H])(C(=O)N1C([H])([H])C([H])([H])C([H])([H])[C@@]1([H])C(=O)N1C([H])([H])C([H])([H])C([H])([H])[C@@]1([H])C(=O)N1C([H])([H])C([H])([H])C([H])([H])[C@@]1([H])C#N)C([H])([H])[H]


 28 30  0  0  0  0  0  0  0  0999 V2000
   -6.5150   24.3965  -19.0862 C   0  0  0  0  0  0  0  0  0  0  0  0
   -6.4242   25.6534  -19.0266 O   0  0  0  0  0  0  0  0  0  0  0  0
   -5.9291   23.6273  -18.0589 N   0  0  0  0  0  0  0  0  0  0  0  0
   -5.2012   24.2510  -16.9369 C   0  0  0  0  0  0  0  0  0  0  0  0
   -4.0820   23.2455  -16.7831 C   0  0  0  0  0  0  0  0  0  0  0  0
   -4.8317   21.9378  -16.8586 C   0  0  0  0  0  0  0  0  0  0  0  0
   -5.9120   22.1870  -17.8588 C   0  0  0  0  0  0  0  0  0  0  0  0
   -9.5335   24.9480  -20.2211 C   0  0  0  0  0  0  0  0  0  0  0  0
   -9.8566   24.2064  -19.2289 O   0  0  0  0  0  0  0  0  0  0  0  0
   -8.2373   24.8024  -20.7447 N   0  0  0  0  0  0  0  0  0  0  0  0
   -7.6858   25.5484  -21.8462 C   0  0  0  0  0  0  0  0  0  0  0  0
   -6.2916   25.0164  -22.0423 C   0  0  0  0  0  0  0  0  0  0  0  0
   -6.3558   23.6327  -21.4625 C   0  0  0  0  0  0  0  0  0  0  0  0
   -7.2443   23.8573  -20.2535 C   0  0  0  0  0  0  0  0  0  0  0  0
  -11.4252   25.0905  -21.7007 C   0  0  0  0  0  0  0  0  0  0  0  0
  -10.5772   25.8646  -20.6859 C   0  0  0  0  0  0  0  0  0  0  0  0
  -11.4138   26.4277  -19.6803 N   0  0  0  0  0  0  0  0  0  0  0  0
  -12.2982   25.8974  -19.5141 H   0  0  0  0  0  0  0  0  0  0  0  0
  -11.7198   27.3771  -19.9890 H   0  0  0  0  0  0  0  0  0  0  0  0
   -7.1964   21.7136  -17.2793 C   0  0  0  0  0  0  0  0  0  0  0  0
   -7.9627   22.4708  -16.6282 O   0  0  0  0  0  0  0  0  0  0  0  0
   -7.5959   20.3664  -17.4522 N   0  0  0  0  0  0  0  0  0  0  0  0
   -6.8169   19.3810  -18.1745 C   0  0  0  0  0  0  0  0  0  0  0  0
   -7.7453   18.1835  -18.3476 C   0  0  0  0  0  0  0  0  0  0  0  0
   -8.4896   18.2606  -17.0059 C   0  0  0  0  0  0  0  0  0  0  0  0
   -8.8219   19.7332  -16.9609 C   0  0  0  0  0  0  0  0  0  0  0  0
   -9.1792   20.1851  -15.6345 C   0  0  0  0  0  0  0  0  0  0  0  0
   -9.4683   20.5477  -14.5738 N   0  0  0  0  0  0  0  0  0  0  0  0
 15 16  1  0  0  0
 16 17  1  0  0  0
 16  8  1  0  0  0
  8  9  2  0  0  0
  8 10  1  0  0  0
 10 11  1  0  0  0
 11 12  1  0  0  0
 12 13  1  0  0  0
 13 14  1  0  0  0
 14  1  1  0  0  0
  1  2  2  0  0  0
  1  3  1  0  0  0
  3  4  1  0  0  0
  4  5  1  0  0  0
  5  6  1  0  0  0
  6  7  1  0  0  0
  7 20  1  0  0  0
 20 21  2  0  0  0
 20 22  1  0  0  0
 22 23  1  0  0  0
 23 24  1  0  0  0
 24 25  1  0  0  0
 25 26  1  0  0  0
 26 27  1  0  0  0
 27 28  3  0  0  0
 14 10  1  0  0  0
  7  3  1  0  0  0
 26 22  1  0  0  0
 17 18  1  0  0  0
 17 19  1  0  0  0
M  END
> <minimizedAffinity>
-5.41082

> <CNNscore>
0.2838089764

> <CNNaffinity>
4.7098402977

> <CNN_VS>
1.3366949558

> <CNNaffinity_variance>
0.2192643583

$$$$
[H]N([H])[C@@]([H])(C(=O)N1C([H])([H])C([H])([H])C([H])([H])[C@@]1([H])C(=O)N1C([H])([H])C([H])([H])C([H])([H])[C@@]1([H])C(=O)N1C([H])([H])C([H])([H])C([H])([H])[C@@]1([H])C#N)C([H])([H])[H]


 28 30  0  0  0  0  0  0  0  0999 V2000
   -4.4055   23.9183  -23.2686 C   0  0  0  0  0  0  0  0  0  0  0  0
   -3.7232   24.5594  -22.4230 O   0  0  0  0  0  0  0  0  0  0  0  0
   -5.0465   24.6337  -24.3018 N   0  0  0  0  0  0  0  0  0  0  0  0
   -4.9561   26.1031  -24.4045 C   0  0  0  0  0  0  0  0  0  0  0  0
   -6.3677   26.4033  -24.8569 C   0  0  0  0  0  0  0  0  0  0  0  0
   -6.5768   25.3575  -25.9248 C   0  0  0  0  0  0  0  0  0  0  0  0
   -5.8534   24.1555  -25.4131 C   0  0  0  0  0  0  0  0  0  0  0  0
   -2.2249   21.7936  -22.0709 C   0  0  0  0  0  0  0  0  0  0  0  0
   -1.6714   21.9832  -23.2095 O   0  0  0  0  0  0  0  0  0  0  0  0
   -3.6073   22.0290  -21.9744 N   0  0  0  0  0  0  0  0  0  0  0  0
   -4.4049   21.8827  -20.7843 C   0  0  0  0  0  0  0  0  0  0  0  0
   -5.8135   22.2211  -21.1927 C   0  0  0  0  0  0  0  0  0  0  0  0
   -5.8285   21.9506  -22.6697 C   0  0  0  0  0  0  0  0  0  0  0  0
   -4.4567   22.4532  -23.0785 C   0  0  0  0  0  0  0  0  0  0  0  0
   -0.1899   20.5724  -21.6760 C   0  0  0  0  0  0  0  0  0  0  0  0
   -1.3270   21.3483  -21.0027 C   0  0  0  0  0  0  0  0  0  0  0  0
   -0.7919   22.3677  -20.1644 N   0  0  0  0  0  0  0  0  0  0  0  0
    0.1432   22.7219  -20.4662 H   0  0  0  0  0  0  0  0  0  0  0  0
   -0.6384   21.9733  -19.2099 H   0  0  0  0  0  0  0  0  0  0  0  0
   -4.9958   23.6316  -26.5084 C   0  0  0  0  0  0  0  0  0  0  0  0
   -4.3288   22.5701  -26.3943 O   0  0  0  0  0  0  0  0  0  0  0  0
   -4.9089   24.3330  -27.7352 N   0  0  0  0  0  0  0  0  0  0  0  0
   -5.6162   25.5673  -28.0098 C   0  0  0  0  0  0  0  0  0  0  0  0
   -5.4562   25.7968  -29.5090 C   0  0  0  0  0  0  0  0  0  0  0  0
   -4.0269   25.2608  -29.6829 C   0  0  0  0  0  0  0  0  0  0  0  0
   -4.1257   23.9631  -28.9165 C   0  0  0  0  0  0  0  0  0  0  0  0
   -2.8315   23.4198  -28.5685 C   0  0  0  0  0  0  0  0  0  0  0  0
   -1.7970   22.9820  -28.2890 N   0  0  0  0  0  0  0  0  0  0  0  0
 15 16  1  0  0  0
 16 17  1  0  0  0
 16  8  1  0  0  0
  8  9  2  0  0  0
  8 10  1  0  0  0
 10 11  1  0  0  0
 11 12  1  0  0  0
 12 13  1  0  0  0
 13 14  1  0  0  0
 14  1  1  0  0  0
  1  2  2  0  0  0
  1  3  1  0  0  0
  3  4  1  0  0  0
  4  5  1  0  0  0
  5  6  1  0  0  0
  6  7  1  0  0  0
  7 20  1  0  0  0
 20 21  2  0  0  0
 20 22  1  0  0  0
 22 23  1  0  0  0
 23 24  1  0  0  0
 24 25  1  0  0  0
 25 26  1  0  0  0
 26 27  1  0  0  0
 27 28  3  0  0  0
 14 10  1  0  0  0
  7  3  1  0  0  0
 26 22  1  0  0  0
 17 18  1  0  0  0
 17 19  1  0  0  0
M  END
> <minimizedAffinity>
-7.19318

> <CNNscore>
0.2444768846

> <CNNaffinity>
6.2816824913

> <CNN_VS>
1.5357261896

> <CNNaffinity_variance>
0.1151125804

$$$$
[H]N([H])[C@@]([H])(C(=O)N1C([H])([H])C([H])([H])C([H])([H])[C@@]1([H])C(=O)N1C([H])([H])C([H])([H])C([H])([H])[C@@]1([H])C(=O)N1C([H])([H])C([H])([H])C([H])([H])[C@@]1([H])C#N)C([H])([H])[H]


 28 30  0  0  0  0  0  0  0  0999 V2000
   -7.8408   23.0186  -20.3753 C   0  0  0  0  0  0  0  0  0  0  0  0
   -8.7146   23.0176  -21.2853 O   0  0  0  0  0  0  0  0  0  0  0  0
   -8.0580   22.2255  -19.2290 N   0  0  0  0  0  0  0  0  0  0  0  0
   -9.2815   21.4178  -19.0607 C   0  0  0  0  0  0  0  0  0  0  0  0
   -9.5054   21.6199  -17.5787 C   0  0  0  0  0  0  0  0  0  0  0  0
   -8.1147   21.4184  -17.0279 C   0  0  0  0  0  0  0  0  0  0  0  0
   -7.2167   22.0131  -18.0621 C   0  0  0  0  0  0  0  0  0  0  0  0
   -6.1635   23.7001  -23.1004 C   0  0  0  0  0  0  0  0  0  0  0  0
   -5.7145   22.5157  -22.9149 O   0  0  0  0  0  0  0  0  0  0  0  0
   -6.6476   24.3935  -21.9777 N   0  0  0  0  0  0  0  0  0  0  0  0
   -7.1994   25.7237  -21.9836 C   0  0  0  0  0  0  0  0  0  0  0  0
   -7.5471   26.0278  -20.5511 C   0  0  0  0  0  0  0  0  0  0  0  0
   -6.6382   25.1256  -19.7670 C   0  0  0  0  0  0  0  0  0  0  0  0
   -6.6574   23.8703  -20.6188 C   0  0  0  0  0  0  0  0  0  0  0  0
   -4.7061   24.7558  -24.6972 C   0  0  0  0  0  0  0  0  0  0  0  0
   -6.1108   24.1821  -24.4826 C   0  0  0  0  0  0  0  0  0  0  0  0
   -6.4063   23.2248  -25.4947 N   0  0  0  0  0  0  0  0  0  0  0  0
   -5.5654   22.7471  -25.8895 H   0  0  0  0  0  0  0  0  0  0  0  0
   -6.8459   23.7154  -26.3049 H   0  0  0  0  0  0  0  0  0  0  0  0
   -6.1367   21.0343  -18.3541 C   0  0  0  0  0  0  0  0  0  0  0  0
   -6.3738   19.8786  -18.7930 O   0  0  0  0  0  0  0  0  0  0  0  0
   -4.7832   21.3903  -18.1398 N   0  0  0  0  0  0  0  0  0  0  0  0
   -4.3593   22.6814  -17.6370 C   0  0  0  0  0  0  0  0  0  0  0  0
   -2.8479   22.7141  -17.8384 C   0  0  0  0  0  0  0  0  0  0  0  0
   -2.5345   21.2388  -17.5460 C   0  0  0  0  0  0  0  0  0  0  0  0
   -3.5984   20.5625  -18.3777 C   0  0  0  0  0  0  0  0  0  0  0  0
   -3.8089   19.1823  -18.0008 C   0  0  0  0  0  0  0  0  0  0  0  0
   -3.9764   18.0783  -17.6958 N   0  0  0  0  0  0  0  0  0  0  0  0
 15 16  1  0  0  0
 16 17  1  0  0  0
 16  8  1  0  0  0
  8  9  2  0  0  0
  8 10  1  0  0  0
 10 11  1  0  0  0
 11 12  1  0  0  0
 12 13  1  0  0  0
 13 14  1  0  0  0
 14  1  1  0  0  0
  1  2  2  0  0  0
  1  3  1  0  0  0
  3  4  1  0  0  0
  4  5  1  0  0  0
  5  6  1  0  0  0
  6  7  1  0  0  0
  7 20  1  0  0  0
 20 21  2  0  0  0
 20 22  1  0  0  0
 22 23  1  0  0  0
 23 24  1  0  0  0
 24 25  1  0  0  0
 25 26  1  0  0  0
 26 27  1  0  0  0
 27 28  3  0  0  0
 14 10  1  0  0  0
  7  3  1  0  0  0
 26 22  1  0  0  0
 17 18  1  0  0  0
 17 19  1  0  0  0
M  END
> <minimizedAffinity>
-4.73234

> <CNNscore>
0.2436306626

> <CNNaffinity>
4.7376718521

> <CNN_VS>
1.1542421579

> <CNNaffinity_variance>
0.0831583962

$$$$
[H]N([H])[C@@]([H])(C(=O)N1C([H])([H])C([H])([H])C([H])([H])[C@@]1([H])C(=O)N1C([H])([H])C([H])([H])C([H])([H])[C@@]1([H])C(=O)N1C([H])([H])C([H])([H])C([H])([H])[C@@]1([H])C#N)C([H])([H])[H]


 28 30  0  0  0  0  0  0  0  0999 V2000
   -4.1370   23.1018  -20.4811 C   0  0  0  0  0  0  0  0  0  0  0  0
   -4.9874   23.9955  -20.7452 O   0  0  0  0  0  0  0  0  0  0  0  0
   -2.9406   23.0657  -21.2279 N   0  0  0  0  0  0  0  0  0  0  0  0
   -2.6713   24.0268  -22.3149 C   0  0  0  0  0  0  0  0  0  0  0  0
   -1.9837   23.1015  -23.2939 C   0  0  0  0  0  0  0  0  0  0  0  0
   -1.0344   22.3509  -22.3920 C   0  0  0  0  0  0  0  0  0  0  0  0
   -1.7911   22.1821  -21.1158 C   0  0  0  0  0  0  0  0  0  0  0  0
   -4.8712   23.6045  -17.3327 C   0  0  0  0  0  0  0  0  0  0  0  0
   -3.6063   23.7806  -17.2436 O   0  0  0  0  0  0  0  0  0  0  0  0
   -5.3430   22.8162  -18.3965 N   0  0  0  0  0  0  0  0  0  0  0  0
   -6.7237   22.5122  -18.6709 C   0  0  0  0  0  0  0  0  0  0  0  0
   -6.7125   21.6237  -19.8857 C   0  0  0  0  0  0  0  0  0  0  0  0
   -5.3456   21.0027  -19.8575 C   0  0  0  0  0  0  0  0  0  0  0  0
   -4.4973   22.1708  -19.3909 C   0  0  0  0  0  0  0  0  0  0  0  0
   -5.5082   23.4261  -15.0196 C   0  0  0  0  0  0  0  0  0  0  0  0
   -5.6709   24.2597  -16.2951 C   0  0  0  0  0  0  0  0  0  0  0  0
   -5.3605   25.6238  -16.0287 N   0  0  0  0  0  0  0  0  0  0  0  0
   -4.6819   25.7628  -15.2469 H   0  0  0  0  0  0  0  0  0  0  0  0
   -6.2306   26.1144  -15.7243 H   0  0  0  0  0  0  0  0  0  0  0  0
   -0.9064   22.5974  -19.9957 C   0  0  0  0  0  0  0  0  0  0  0  0
   -0.6976   23.8062  -19.7131 O   0  0  0  0  0  0  0  0  0  0  0  0
   -0.2634   21.6170  -19.2020 N   0  0  0  0  0  0  0  0  0  0  0  0
   -0.4070   20.1904  -19.4102 C   0  0  0  0  0  0  0  0  0  0  0  0
    0.2130   19.5404  -18.1777 C   0  0  0  0  0  0  0  0  0  0  0  0
    1.3649   20.5285  -17.9388 C   0  0  0  0  0  0  0  0  0  0  0  0
    0.6296   21.8418  -18.0630 C   0  0  0  0  0  0  0  0  0  0  0  0
    1.5190   22.9621  -18.2759 C   0  0  0  0  0  0  0  0  0  0  0  0
    2.2287   23.8609  -18.4446 N   0  0  0  0  0  0  0  0  0  0  0  0
 15 16  1  0  0  0
 16 17  1  0  0  0
 16  8  1  0  0  0
  8  9  2  0  0  0
  8 10  1  0  0  0
 10 11  1  0  0  0
 11 12  1  0  0  0
 12 13  1  0  0  0
 13 14  1  0  0  0
 14  1  1  0  0  0
  1  2  2  0  0  0
  1  3  1  0  0  0
  3  4  1  0  0  0
  4  5  1  0  0  0
  5  6  1  0  0  0
  6  7  1  0  0  0
  7 20  1  0  0  0
 20 21  2  0  0  0
 20 22  1  0  0  0
 22 23  1  0  0  0
 23 24  1  0  0  0
 24 25  1  0  0  0
 25 26  1  0  0  0
 26 27  1  0  0  0
 27 28  3  0  0  0
 14 10  1  0  0  0
  7  3  1  0  0  0
 26 22  1  0  0  0
 17 18  1  0  0  0
 17 19  1  0  0  0
M  END
> <minimizedAffinity>
-5.80690

> <CNNscore>
0.1949147582

> <CNNaffinity>
4.7028508186

> <CNN_VS>
0.9166550040

> <CNNaffinity_variance>
0.4131255150

$$$$
[H]N([H])[C@@]([H])(C(=O)N1C([H])([H])C([H])([H])C([H])([H])[C@@]1([H])C(=O)N1C([H])([H])C([H])([H])C([H])([H])[C@@]1([H])C(=O)N1C([H])([H])C([H])([H])C([H])([H])[C@@]1([H])C#N)C([H])([H])[H]


 28 30  0  0  0  0  0  0  0  0999 V2000
   -1.2213   22.6627  -21.0974 C   0  0  0  0  0  0  0  0  0  0  0  0
   -1.8467   23.7500  -21.2323 O   0  0  0  0  0  0  0  0  0  0  0  0
   -0.3789   22.5023  -19.9772 N   0  0  0  0  0  0  0  0  0  0  0  0
   -0.1970   23.5739  -18.9792 C   0  0  0  0  0  0  0  0  0  0  0  0
    1.2783   23.3968  -18.6972 C   0  0  0  0  0  0  0  0  0  0  0  0
    1.3862   21.8980  -18.5563 C   0  0  0  0  0  0  0  0  0  0  0  0
    0.4199   21.3609  -19.5600 C   0  0  0  0  0  0  0  0  0  0  0  0
   -3.8215   22.0095  -22.9726 C   0  0  0  0  0  0  0  0  0  0  0  0
   -4.2587   21.4904  -21.8872 O   0  0  0  0  0  0  0  0  0  0  0  0
   -2.4283   22.1118  -23.1276 N   0  0  0  0  0  0  0  0  0  0  0  0
   -1.7469   22.6722  -24.2658 C   0  0  0  0  0  0  0  0  0  0  0  0
   -0.2775   22.5314  -23.9722 C   0  0  0  0  0  0  0  0  0  0  0  0
   -0.2186   21.3875  -23.0011 C   0  0  0  0  0  0  0  0  0  0  0  0
   -1.4482   21.6531  -22.1531 C   0  0  0  0  0  0  0  0  0  0  0  0
   -6.1095   21.6203  -23.6065 C   0  0  0  0  0  0  0  0  0  0  0  0
   -4.8507   22.4343  -23.9244 C   0  0  0  0  0  0  0  0  0  0  0  0
   -5.1598   23.8244  -23.9384 N   0  0  0  0  0  0  0  0  0  0  0  0
   -5.9647   24.0893  -23.3277 H   0  0  0  0  0  0  0  0  0  0  0  0
   -5.4502   24.0955  -24.9040 H   0  0  0  0  0  0  0  0  0  0  0  0
   -0.4228   20.3371  -18.8882 C   0  0  0  0  0  0  0  0  0  0  0  0
   -1.2291   20.6261  -17.9658 O   0  0  0  0  0  0  0  0  0  0  0  0
   -0.3346   18.9800  -19.2819 N   0  0  0  0  0  0  0  0  0  0  0  0
    0.5487   18.4990  -20.3249 C   0  0  0  0  0  0  0  0  0  0  0  0
    0.1066   17.0647  -20.5957 C   0  0  0  0  0  0  0  0  0  0  0  0
   -0.2651   16.6533  -19.1629 C   0  0  0  0  0  0  0  0  0  0  0  0
   -1.0881   17.8469  -18.7398 C   0  0  0  0  0  0  0  0  0  0  0  0
   -1.2516   17.9327  -17.3055 C   0  0  0  0  0  0  0  0  0  0  0  0
   -1.3811   17.9981  -16.1570 N   0  0  0  0  0  0  0  0  0  0  0  0
 15 16  1  0  0  0
 16 17  1  0  0  0
 16  8  1  0  0  0
  8  9  2  0  0  0
  8 10  1  0  0  0
 10 11  1  0  0  0
 11 12  1  0  0  0
 12 13  1  0  0  0
 13 14  1  0  0  0
 14  1  1  0  0  0
  1  2  2  0  0  0
  1  3  1  0  0  0
  3  4  1  0  0  0
  4  5  1  0  0  0
  5  6  1  0  0  0
  6  7  1  0  0  0
  7 20  1  0  0  0
 20 21  2  0  0  0
 20 22  1  0  0  0
 22 23  1  0  0  0
 23 24  1  0  0  0
 24 25  1  0  0  0
 25 26  1  0  0  0
 26 27  1  0  0  0
 27 28  3  0  0  0
 14 10  1  0  0  0
  7  3  1  0  0  0
 26 22  1  0  0  0
 17 18  1  0  0  0
 17 19  1  0  0  0
M  END
> <minimizedAffinity>
-5.52798

> <CNNscore>
0.1695841551

> <CNNaffinity>
4.8346061707

> <CNN_VS>
0.8198726177

> <CNNaffinity_variance>
0.2391602695

$$$$
[H]OC(=O)[C@@]([H])(N([H])C(=O)[C@@]([H])(N([H])C(=O)[C@@]([H])(N([H])C(=O)[C@@]([H])(N([H])[H])C([H])([H])c1c([H])c([H])c(O[H])c([H])c1[H])C([H])([H])C([H])(C([H])([H])[H])C([H])([H])[H])C([H])([H])c1c([H])c([H])c([H])c([H])c1[H])C([H])([H])c1c([H])c([H])c(O[H])c([H])c1[H]


 52 54  0  0  0  0  0  0  0  0999 V2000
   -1.3538   22.2422  -22.3216 C   0  0  0  0  0  0  0  0  0  0  0  0
   -1.3982   23.5183  -22.2271 O   0  0  0  0  0  0  0  0  0  0  0  0
   -2.1665   21.5100  -21.4379 N   0  0  0  0  0  0  0  0  0  0  0  0
   -2.0673   20.4348  -21.5648 H   0  0  0  0  0  0  0  0  0  0  0  0
   -0.5049   21.5839  -23.3155 C   0  0  0  0  0  0  0  0  0  0  0  0
   -0.5670   22.3516  -24.5673 N   0  0  0  0  0  0  0  0  0  0  0  0
   -1.6038   22.1975  -25.4942 C   0  0  0  0  0  0  0  0  0  0  0  0
   -2.5038   21.3757  -25.2570 O   0  0  0  0  0  0  0  0  0  0  0  0
    0.2332   23.0226  -24.7021 H   0  0  0  0  0  0  0  0  0  0  0  0
   -1.6129   23.0091  -26.7309 C   0  0  0  0  0  0  0  0  0  0  0  0
   -0.2393   23.1483  -27.1804 N   0  0  0  0  0  0  0  0  0  0  0  0
    0.1581   24.0482  -26.8092 H   0  0  0  0  0  0  0  0  0  0  0  0
    0.3767   22.3642  -26.8655 H   0  0  0  0  0  0  0  0  0  0  0  0
   -2.4643   22.3524  -27.8066 C   0  0  0  0  0  0  0  0  0  0  0  0
   -3.5236   23.2802  -28.2670 C   0  0  0  0  0  0  0  0  0  0  0  0
   -4.8609   23.0364  -28.0397 C   0  0  0  0  0  0  0  0  0  0  0  0
   -5.8623   23.9121  -28.4788 C   0  0  0  0  0  0  0  0  0  0  0  0
   -5.5160   25.0561  -29.1599 C   0  0  0  0  0  0  0  0  0  0  0  0
   -6.4639   25.9553  -29.6177 O   0  0  0  0  0  0  0  0  0  0  0  0
   -4.1845   25.3057  -29.3897 C   0  0  0  0  0  0  0  0  0  0  0  0
   -3.1876   24.4414  -28.9573 C   0  0  0  0  0  0  0  0  0  0  0  0
   -6.7939   26.7420  -29.0561 H   0  0  0  0  0  0  0  0  0  0  0  0
    0.8561   21.1624  -23.0104 C   0  0  0  0  0  0  0  0  0  0  0  0
    0.7898   19.6865  -20.9489 C   0  0  0  0  0  0  0  0  0  0  0  0
    1.2824   20.9319  -21.6153 C   0  0  0  0  0  0  0  0  0  0  0  0
    2.8237   20.8835  -21.5278 C   0  0  0  0  0  0  0  0  0  0  0  0
   -3.0744   21.9136  -20.4435 C   0  0  0  0  0  0  0  0  0  0  0  0
   -4.2540   22.6379  -21.0542 C   0  0  0  0  0  0  0  0  0  0  0  0
   -4.2149   23.9059  -21.0067 O   0  0  0  0  0  0  0  0  0  0  0  0
   -5.3263   21.9532  -21.6392 N   0  0  0  0  0  0  0  0  0  0  0  0
   -5.3764   20.9350  -21.7060 H   0  0  0  0  0  0  0  0  0  0  0  0
   -6.4186   22.7999  -22.1860 C   0  0  0  0  0  0  0  0  0  0  0  0
   -7.6934   22.3828  -21.5795 C   0  0  0  0  0  0  0  0  0  0  0  0
   -7.9981   21.0691  -21.3191 O   0  0  0  0  0  0  0  0  0  0  0  0
   -8.5729   23.2570  -21.2754 O   0  0  0  0  0  0  0  0  0  0  0  0
   -8.2545   20.3769  -22.0190 H   0  0  0  0  0  0  0  0  0  0  0  0
   -6.3470   22.6990  -23.6720 C   0  0  0  0  0  0  0  0  0  0  0  0
   -5.9460   23.9341  -24.3682 C   0  0  0  0  0  0  0  0  0  0  0  0
   -4.6442   24.2905  -24.6347 C   0  0  0  0  0  0  0  0  0  0  0  0
   -4.3154   25.4507  -25.2938 C   0  0  0  0  0  0  0  0  0  0  0  0
   -5.2825   26.3325  -25.7298 C   0  0  0  0  0  0  0  0  0  0  0  0
   -4.9635   27.5006  -26.3927 O   0  0  0  0  0  0  0  0  0  0  0  0
   -6.5920   25.9893  -25.4701 C   0  0  0  0  0  0  0  0  0  0  0  0
   -6.9317   24.8340  -24.8130 C   0  0  0  0  0  0  0  0  0  0  0  0
   -4.8889   27.4936  -27.4190 H   0  0  0  0  0  0  0  0  0  0  0  0
   -2.6598   22.6515  -19.2368 C   0  0  0  0  0  0  0  0  0  0  0  0
   -1.2682   22.5154  -18.7681 C   0  0  0  0  0  0  0  0  0  0  0  0
   -0.9413   21.4436  -17.9111 C   0  0  0  0  0  0  0  0  0  0  0  0
    0.3091   21.2865  -17.3821 C   0  0  0  0  0  0  0  0  0  0  0  0
    1.3335   22.1675  -17.6524 C   0  0  0  0  0  0  0  0  0  0  0  0
    1.0371   23.2186  -18.4838 C   0  0  0  0  0  0  0  0  0  0  0  0
   -0.2317   23.3749  -19.0184 C   0  0  0  0  0  0  0  0  0  0  0  0
 24 25  1  0  0  0
 25 26  1  0  0  0
 25 23  1  0  0  0
 23  5  1  0  0  0
  5  6  1  0  0  0
  6  7  1  0  0  0
  7  8  2  0  0  0
  7 10  1  0  0  0
 10 11  1  0  0  0
 10 14  1  0  0  0
 14 15  1  0  0  0
 15 16  2  0  0  0
 16 17  1  0  0  0
 17 18  2  0  0  0
 18 19  1  0  0  0
 18 20  1  0  0  0
 20 21  2  0  0  0
  5  1  1  0  0  0
  1  2  2  0  0  0
  1  3  1  0  0  0
  3 27  1  0  0  0
 27 46  1  0  0  0
 46 47  1  0  0  0
 47 48  2  0  0  0
 48 49  1  0  0  0
 49 50  2  0  0  0
 50 51  1  0  0  0
 51 52  2  0  0  0
 27 28  1  0  0  0
 28 29  2  0  0  0
 28 30  1  0  0  0
 30 32  1  0  0  0
 32 37  1  0  0  0
 37 38  1  0  0  0
 38 39  2  0  0  0
 39 40  1  0  0  0
 40 41  2  0  0  0
 41 42  1  0  0  0
 41 43  1  0  0  0
 43 44  2  0  0  0
 32 33  1  0  0  0
 33 34  1  0  0  0
 33 35  2  0  0  0
 21 15  1  0  0  0
 52 47  1  0  0  0
 44 38  1  0  0  0
  6  9  1  0  0  0
 11 12  1  0  0  0
 11 13  1  0  0  0
 19 22  1  0  0  0
  3  4  1  0  0  0
 30 31  1  0  0  0
 42 45  1  0  0  0
 34 36  1  0  0  0
M  END
> <minimizedAffinity>
-8.61915

> <CNNscore>
0.4213439822

> <CNNaffinity>
7.4292879105

> <CNN_VS>
3.1302857399

> <CNNaffinity_variance>
0.0763295516

$$$$
[H]OC(=O)[C@@]([H])(N([H])C(=O)[C@@]([H])(N([H])C(=O)[C@@]([H])(N([H])C(=O)[C@@]([H])(N([H])[H])C([H])([H])c1c([H])c([H])c(O[H])c([H])c1[H])C([H])([H])C([H])(C([H])([H])[H])C([H])([H])[H])C([H])([H])c1c([H])c([H])c([H])c([H])c1[H])C([H])([H])c1c([H])c([H])c(O[H])c([H])c1[H]


 52 54  0  0  0  0  0  0  0  0999 V2000
   -0.0177   21.2352  -22.1239 C   0  0  0  0  0  0  0  0  0  0  0  0
    0.7793   21.4724  -23.0975 O   0  0  0  0  0  0  0  0  0  0  0  0
   -1.3273   21.7349  -22.2373 N   0  0  0  0  0  0  0  0  0  0  0  0
   -1.9426   21.5088  -21.3700 H   0  0  0  0  0  0  0  0  0  0  0  0
    0.4173   20.4664  -20.9570 C   0  0  0  0  0  0  0  0  0  0  0  0
   -0.7527   20.1997  -20.1085 N   0  0  0  0  0  0  0  0  0  0  0  0
   -0.8892   20.7373  -18.8239 C   0  0  0  0  0  0  0  0  0  0  0  0
    0.0148   21.4618  -18.3772 O   0  0  0  0  0  0  0  0  0  0  0  0
   -1.4731   19.5723  -20.5516 H   0  0  0  0  0  0  0  0  0  0  0  0
   -2.0976   20.4383  -18.0248 C   0  0  0  0  0  0  0  0  0  0  0  0
   -2.9713   19.6086  -18.8352 N   0  0  0  0  0  0  0  0  0  0  0  0
   -3.6704   20.2193  -19.3289 H   0  0  0  0  0  0  0  0  0  0  0  0
   -2.4565   19.0523  -19.5555 H   0  0  0  0  0  0  0  0  0  0  0  0
   -1.7323   19.7269  -16.7310 C   0  0  0  0  0  0  0  0  0  0  0  0
   -2.0812   20.5671  -15.5617 C   0  0  0  0  0  0  0  0  0  0  0  0
   -3.3632   21.0237  -15.3438 C   0  0  0  0  0  0  0  0  0  0  0  0
   -3.6917   21.8214  -14.2400 C   0  0  0  0  0  0  0  0  0  0  0  0
   -2.7146   22.1687  -13.3359 C   0  0  0  0  0  0  0  0  0  0  0  0
   -2.9829   22.9555  -12.2289 O   0  0  0  0  0  0  0  0  0  0  0  0
   -1.4344   21.7166  -13.5467 C   0  0  0  0  0  0  0  0  0  0  0  0
   -1.1027   20.9260  -14.6389 C   0  0  0  0  0  0  0  0  0  0  0  0
   -3.2638   22.5631  -11.3286 H   0  0  0  0  0  0  0  0  0  0  0  0
    1.2704   19.2916  -21.0809 C   0  0  0  0  0  0  0  0  0  0  0  0
    3.5712   19.2745  -22.1479 C   0  0  0  0  0  0  0  0  0  0  0  0
    2.7340   19.3980  -20.9144 C   0  0  0  0  0  0  0  0  0  0  0  0
    3.1029   20.7575  -20.2808 C   0  0  0  0  0  0  0  0  0  0  0  0
   -1.9732   22.4543  -23.2577 C   0  0  0  0  0  0  0  0  0  0  0  0
   -3.1379   23.2452  -22.7036 C   0  0  0  0  0  0  0  0  0  0  0  0
   -2.9734   23.7441  -21.5479 O   0  0  0  0  0  0  0  0  0  0  0  0
   -4.3278   23.4195  -23.4210 N   0  0  0  0  0  0  0  0  0  0  0  0
   -4.4816   23.0436  -24.3585 H   0  0  0  0  0  0  0  0  0  0  0  0
   -5.3876   24.2098  -22.7418 C   0  0  0  0  0  0  0  0  0  0  0  0
   -6.6448   23.4446  -22.7709 C   0  0  0  0  0  0  0  0  0  0  0  0
   -6.7188   22.1539  -23.2347 O   0  0  0  0  0  0  0  0  0  0  0  0
   -7.7280   23.9788  -22.3572 O   0  0  0  0  0  0  0  0  0  0  0  0
   -6.6810   21.8797  -24.2135 H   0  0  0  0  0  0  0  0  0  0  0  0
   -5.4288   25.5451  -23.4042 C   0  0  0  0  0  0  0  0  0  0  0  0
   -5.5528   25.5159  -24.8722 C   0  0  0  0  0  0  0  0  0  0  0  0
   -4.5189   25.7599  -25.7463 C   0  0  0  0  0  0  0  0  0  0  0  0
   -4.6780   25.7153  -27.1106 C   0  0  0  0  0  0  0  0  0  0  0  0
   -5.8964   25.4205  -27.6863 C   0  0  0  0  0  0  0  0  0  0  0  0
   -6.0675   25.3731  -29.0553 O   0  0  0  0  0  0  0  0  0  0  0  0
   -6.9426   25.1736  -26.8233 C   0  0  0  0  0  0  0  0  0  0  0  0
   -6.7952   25.2154  -25.4600 C   0  0  0  0  0  0  0  0  0  0  0  0
   -5.9208   24.4836  -29.5512 H   0  0  0  0  0  0  0  0  0  0  0  0
   -2.4038   21.8323  -24.5227 C   0  0  0  0  0  0  0  0  0  0  0  0
   -1.7995   22.3021  -25.7831 C   0  0  0  0  0  0  0  0  0  0  0  0
   -2.6450   22.6051  -26.8710 C   0  0  0  0  0  0  0  0  0  0  0  0
   -2.1586   22.9829  -28.0911 C   0  0  0  0  0  0  0  0  0  0  0  0
   -0.8073   23.0921  -28.3378 C   0  0  0  0  0  0  0  0  0  0  0  0
    0.0338   22.8012  -27.2930 C   0  0  0  0  0  0  0  0  0  0  0  0
   -0.4626   22.4184  -26.0573 C   0  0  0  0  0  0  0  0  0  0  0  0
 24 25  1  0  0  0
 25 26  1  0  0  0
 25 23  1  0  0  0
 23  5  1  0  0  0
  5  6  1  0  0  0
  6  7  1  0  0  0
  7  8  2  0  0  0
  7 10  1  0  0  0
 10 11  1  0  0  0
 10 14  1  0  0  0
 14 15  1  0  0  0
 15 16  2  0  0  0
 16 17  1  0  0  0
 17 18  2  0  0  0
 18 19  1  0  0  0
 18 20  1  0  0  0
 20 21  2  0  0  0
  5  1  1  0  0  0
  1  2  2  0  0  0
  1  3  1  0  0  0
  3 27  1  0  0  0
 27 46  1  0  0  0
 46 47  1  0  0  0
 47 48  2  0  0  0
 48 49  1  0  0  0
 49 50  2  0  0  0
 50 51  1  0  0  0
 51 52  2  0  0  0
 27 28  1  0  0  0
 28 29  2  0  0  0
 28 30  1  0  0  0
 30 32  1  0  0  0
 32 37  1  0  0  0
 37 38  1  0  0  0
 38 39  2  0  0  0
 39 40  1  0  0  0
 40 41  2  0  0  0
 41 42  1  0  0  0
 41 43  1  0  0  0
 43 44  2  0  0  0
 32 33  1  0  0  0
 33 34  1  0  0  0
 33 35  2  0  0  0
 21 15  1  0  0  0
 52 47  1  0  0  0
 44 38  1  0  0  0
  6  9  1  0  0  0
 11 12  1  0  0  0
 11 13  1  0  0  0
 19 22  1  0  0  0
  3  4  1  0  0  0
 30 31  1  0  0  0
 42 45  1  0  0  0
 34 36  1  0  0  0
M  END
> <minimizedAffinity>
-7.62120

> <CNNscore>
0.2741652727

> <CNNaffinity>
6.5484724045

> <CNN_VS>
1.7953636646

> <CNNaffinity_variance>
0.1249165982

$$$$
[H]OC(=O)[C@@]([H])(N([H])C(=O)[C@@]([H])(N([H])C(=O)[C@@]([H])(N([H])C(=O)[C@@]([H])(N([H])[H])C([H])([H])c1c([H])c([H])c(O[H])c([H])c1[H])C([H])([H])C([H])(C([H])([H])[H])C([H])([H])[H])C([H])([H])c1c([H])c([H])c([H])c([H])c1[H])C([H])([H])c1c([H])c([H])c(O[H])c([H])c1[H]


 52 54  0  0  0  0  0  0  0  0999 V2000
   -2.6852   22.2534  -20.7612 C   0  0  0  0  0  0  0  0  0  0  0  0
   -2.1711   23.4190  -20.8895 O   0  0  0  0  0  0  0  0  0  0  0  0
   -3.3239   21.7117  -21.8909 N   0  0  0  0  0  0  0  0  0  0  0  0
   -3.7486   20.7282  -21.7054 H   0  0  0  0  0  0  0  0  0  0  0  0
   -2.5955   21.5192  -19.4984 C   0  0  0  0  0  0  0  0  0  0  0  0
   -1.2521   21.7164  -18.9358 N   0  0  0  0  0  0  0  0  0  0  0  0
   -0.2267   20.7766  -19.0883 C   0  0  0  0  0  0  0  0  0  0  0  0
   -0.4595   19.7308  -19.7159 O   0  0  0  0  0  0  0  0  0  0  0  0
   -1.1323   22.6219  -18.4118 H   0  0  0  0  0  0  0  0  0  0  0  0
    1.1072   21.0407  -18.5061 C   0  0  0  0  0  0  0  0  0  0  0  0
    1.6767   19.7664  -18.1055 N   0  0  0  0  0  0  0  0  0  0  0  0
    1.4674   19.5966  -17.0892 H   0  0  0  0  0  0  0  0  0  0  0  0
    1.3034   18.9593  -18.6557 H   0  0  0  0  0  0  0  0  0  0  0  0
    2.0109   21.7388  -19.5106 C   0  0  0  0  0  0  0  0  0  0  0  0
    2.9927   22.6011  -18.8123 C   0  0  0  0  0  0  0  0  0  0  0  0
    4.3504   22.3775  -18.8904 C   0  0  0  0  0  0  0  0  0  0  0  0
    5.2781   23.1908  -18.2267 C   0  0  0  0  0  0  0  0  0  0  0  0
    4.8355   24.2502  -17.4688 C   0  0  0  0  0  0  0  0  0  0  0  0
    5.7075   25.0849  -16.7909 O   0  0  0  0  0  0  0  0  0  0  0  0
    3.4832   24.4792  -17.3868 C   0  0  0  0  0  0  0  0  0  0  0  0
    2.5590   23.6765  -18.0421 C   0  0  0  0  0  0  0  0  0  0  0  0
    6.1002   25.9295  -17.2101 H   0  0  0  0  0  0  0  0  0  0  0  0
   -3.6269   21.6170  -18.4737 C   0  0  0  0  0  0  0  0  0  0  0  0
   -4.9777   20.4192  -16.6924 C   0  0  0  0  0  0  0  0  0  0  0  0
   -4.4162   20.4328  -18.0788 C   0  0  0  0  0  0  0  0  0  0  0  0
   -5.6195   20.2504  -19.0300 C   0  0  0  0  0  0  0  0  0  0  0  0
   -3.5003   22.2029  -23.1961 C   0  0  0  0  0  0  0  0  0  0  0  0
   -4.9010   22.7439  -23.3822 C   0  0  0  0  0  0  0  0  0  0  0  0
   -5.7862   22.2804  -22.5992 O   0  0  0  0  0  0  0  0  0  0  0  0
   -5.2059   23.7002  -24.3586 N   0  0  0  0  0  0  0  0  0  0  0  0
   -4.5114   24.1024  -24.9908 H   0  0  0  0  0  0  0  0  0  0  0  0
   -6.6280   24.1265  -24.4305 C   0  0  0  0  0  0  0  0  0  0  0  0
   -7.0538   24.1290  -25.8396 C   0  0  0  0  0  0  0  0  0  0  0  0
   -6.3020   23.5703  -26.8442 O   0  0  0  0  0  0  0  0  0  0  0  0
   -8.1620   24.6689  -26.1716 O   0  0  0  0  0  0  0  0  0  0  0  0
   -5.4539   23.9735  -27.2353 H   0  0  0  0  0  0  0  0  0  0  0  0
   -6.7276   25.4356  -23.7235 C   0  0  0  0  0  0  0  0  0  0  0  0
   -7.6994   25.4811  -22.6169 C   0  0  0  0  0  0  0  0  0  0  0  0
   -7.3748   25.7400  -21.3053 C   0  0  0  0  0  0  0  0  0  0  0  0
   -8.3159   25.7795  -20.3046 C   0  0  0  0  0  0  0  0  0  0  0  0
   -9.6531   25.5593  -20.5619 C   0  0  0  0  0  0  0  0  0  0  0  0
  -10.6068   25.5965  -19.5645 O   0  0  0  0  0  0  0  0  0  0  0  0
   -9.9943   25.2984  -21.8717 C   0  0  0  0  0  0  0  0  0  0  0  0
   -9.0633   25.2565  -22.8784 C   0  0  0  0  0  0  0  0  0  0  0  0
  -11.0718   26.4877  -19.3446 H   0  0  0  0  0  0  0  0  0  0  0  0
   -3.1484   21.4232  -24.3963 C   0  0  0  0  0  0  0  0  0  0  0  0
   -1.9941   21.8548  -25.2063 C   0  0  0  0  0  0  0  0  0  0  0  0
   -2.2140   22.2683  -26.5371 C   0  0  0  0  0  0  0  0  0  0  0  0
   -1.1901   22.6198  -27.3714 C   0  0  0  0  0  0  0  0  0  0  0  0
    0.1263   22.5926  -26.9654 C   0  0  0  0  0  0  0  0  0  0  0  0
    0.3632   22.1925  -25.6740 C   0  0  0  0  0  0  0  0  0  0  0  0
   -0.6771   21.8367  -24.8308 C   0  0  0  0  0  0  0  0  0  0  0  0
 24 25  1  0  0  0
 25 26  1  0  0  0
 25 23  1  0  0  0
 23  5  1  0  0  0
  5  6  1  0  0  0
  6  7  1  0  0  0
  7  8  2  0  0  0
  7 10  1  0  0  0
 10 11  1  0  0  0
 10 14  1  0  0  0
 14 15  1  0  0  0
 15 16  2  0  0  0
 16 17  1  0  0  0
 17 18  2  0  0  0
 18 19  1  0  0  0
 18 20  1  0  0  0
 20 21  2  0  0  0
  5  1  1  0  0  0
  1  2  2  0  0  0
  1  3  1  0  0  0
  3 27  1  0  0  0
 27 46  1  0  0  0
 46 47  1  0  0  0
 47 48  2  0  0  0
 48 49  1  0  0  0
 49 50  2  0  0  0
 50 51  1  0  0  0
 51 52  2  0  0  0
 27 28  1  0  0  0
 28 29  2  0  0  0
 28 30  1  0  0  0
 30 32  1  0  0  0
 32 37  1  0  0  0
 37 38  1  0  0  0
 38 39  2  0  0  0
 39 40  1  0  0  0
 40 41  2  0  0  0
 41 42  1  0  0  0
 41 43  1  0  0  0
 43 44  2  0  0  0
 32 33  1  0  0  0
 33 34  1  0  0  0
 33 35  2  0  0  0
 21 15  1  0  0  0
 52 47  1  0  0  0
 44 38  1  0  0  0
  6  9  1  0  0  0
 11 12  1  0  0  0
 11 13  1  0  0  0
 19 22  1  0  0  0
  3  4  1  0  0  0
 30 31  1  0  0  0
 42 45  1  0  0  0
 34 36  1  0  0  0
M  END
> <minimizedAffinity>
-8.40842

> <CNNscore>
0.2465567440

> <CNNaffinity>
5.9166479111

> <CNN_VS>
1.4587894678

> <CNNaffinity_variance>
0.8263152242

$$$$
[H]OC(=O)[C@@]([H])(N([H])C(=O)[C@@]([H])(N([H])C(=O)[C@@]([H])(N([H])C(=O)[C@@]([H])(N([H])[H])C([H])([H])c1c([H])c([H])c(O[H])c([H])c1[H])C([H])([H])C([H])(C([H])([H])[H])C([H])([H])[H])C([H])([H])c1c([H])c([H])c([H])c([H])c1[H])C([H])([H])c1c([H])c([H])c(O[H])c([H])c1[H]


 52 54  0  0  0  0  0  0  0  0999 V2000
   -1.6599   22.6160  -20.2997 C   0  0  0  0  0  0  0  0  0  0  0  0
   -1.2008   23.8007  -20.4581 O   0  0  0  0  0  0  0  0  0  0  0  0
   -2.3692   22.0589  -21.3785 N   0  0  0  0  0  0  0  0  0  0  0  0
   -2.7413   21.0591  -21.1686 H   0  0  0  0  0  0  0  0  0  0  0  0
   -1.4400   21.8770  -19.0557 C   0  0  0  0  0  0  0  0  0  0  0  0
    0.0075   21.7591  -18.8301 N   0  0  0  0  0  0  0  0  0  0  0  0
    0.7126   20.5744  -19.0696 C   0  0  0  0  0  0  0  0  0  0  0  0
    0.0934   19.5801  -19.4813 O   0  0  0  0  0  0  0  0  0  0  0  0
    0.4621   22.6399  -18.4747 H   0  0  0  0  0  0  0  0  0  0  0  0
    2.1719   20.5249  -18.8321 C   0  0  0  0  0  0  0  0  0  0  0  0
    2.6192   19.1698  -19.1003 N   0  0  0  0  0  0  0  0  0  0  0  0
    2.6378   18.6257  -18.2008 H   0  0  0  0  0  0  0  0  0  0  0  0
    2.0053   18.6616  -19.7773 H   0  0  0  0  0  0  0  0  0  0  0  0
    2.9025   21.5164  -19.7245 C   0  0  0  0  0  0  0  0  0  0  0  0
    3.6468   22.5005  -18.9045 C   0  0  0  0  0  0  0  0  0  0  0  0
    5.0242   22.5361  -18.8735 C   0  0  0  0  0  0  0  0  0  0  0  0
    5.7275   23.4643  -18.0949 C   0  0  0  0  0  0  0  0  0  0  0  0
    5.0356   24.3758  -17.3313 C   0  0  0  0  0  0  0  0  0  0  0  0
    5.6793   25.3139  -16.5424 O   0  0  0  0  0  0  0  0  0  0  0  0
    3.6622   24.3463  -17.3576 C   0  0  0  0  0  0  0  0  0  0  0  0
    2.9597   23.4285  -18.1271 C   0  0  0  0  0  0  0  0  0  0  0  0
    5.9369   26.2403  -16.8869 H   0  0  0  0  0  0  0  0  0  0  0  0
   -2.1505   22.2057  -17.8268 C   0  0  0  0  0  0  0  0  0  0  0  0
   -1.3546   21.2613  -15.6115 C   0  0  0  0  0  0  0  0  0  0  0  0
   -2.3156   21.2017  -16.7563 C   0  0  0  0  0  0  0  0  0  0  0  0
   -3.7266   21.3072  -16.1369 C   0  0  0  0  0  0  0  0  0  0  0  0
   -2.6702   22.5522  -22.6599 C   0  0  0  0  0  0  0  0  0  0  0  0
   -3.8565   23.4899  -22.6101 C   0  0  0  0  0  0  0  0  0  0  0  0
   -3.6906   24.6278  -23.1479 O   0  0  0  0  0  0  0  0  0  0  0  0
   -5.0676   23.1268  -22.0084 N   0  0  0  0  0  0  0  0  0  0  0  0
   -5.2346   22.2130  -21.5829 H   0  0  0  0  0  0  0  0  0  0  0  0
   -6.1380   24.1579  -22.0256 C   0  0  0  0  0  0  0  0  0  0  0  0
   -6.1670   24.8361  -20.7194 C   0  0  0  0  0  0  0  0  0  0  0  0
   -5.5738   24.3125  -19.5967 O   0  0  0  0  0  0  0  0  0  0  0  0
   -6.7642   25.9575  -20.5945 O   0  0  0  0  0  0  0  0  0  0  0  0
   -5.9342   23.5319  -19.0531 H   0  0  0  0  0  0  0  0  0  0  0  0
   -7.3998   23.4707  -22.4245 C   0  0  0  0  0  0  0  0  0  0  0  0
   -8.1934   22.9168  -21.3134 C   0  0  0  0  0  0  0  0  0  0  0  0
   -9.3004   23.5248  -20.7680 C   0  0  0  0  0  0  0  0  0  0  0  0
  -10.0160   22.9682  -19.7351 C   0  0  0  0  0  0  0  0  0  0  0  0
   -9.6605   21.7559  -19.1813 C   0  0  0  0  0  0  0  0  0  0  0  0
  -10.3720   21.1877  -18.1436 O   0  0  0  0  0  0  0  0  0  0  0  0
   -8.5530   21.1342  -19.7171 C   0  0  0  0  0  0  0  0  0  0  0  0
   -7.8314   21.6805  -20.7480 C   0  0  0  0  0  0  0  0  0  0  0  0
  -11.1561   20.5563  -18.3563 H   0  0  0  0  0  0  0  0  0  0  0  0
   -2.8289   21.6765  -23.8348 C   0  0  0  0  0  0  0  0  0  0  0  0
   -1.9584   21.8982  -25.0044 C   0  0  0  0  0  0  0  0  0  0  0  0
   -0.5598   21.9035  -24.8198 C   0  0  0  0  0  0  0  0  0  0  0  0
    0.3107   22.1665  -25.8401 C   0  0  0  0  0  0  0  0  0  0  0  0
   -0.1230   22.4446  -27.1181 C   0  0  0  0  0  0  0  0  0  0  0  0
   -1.4806   22.4454  -27.3200 C   0  0  0  0  0  0  0  0  0  0  0  0
   -2.3604   22.1784  -26.2834 C   0  0  0  0  0  0  0  0  0  0  0  0
 24 25  1  0  0  0
 25 26  1  0  0  0
 25 23  1  0  0  0
 23  5  1  0  0  0
  5  6  1  0  0  0
  6  7  1  0  0  0
  7  8  2  0  0  0
  7 10  1  0  0  0
 10 11  1  0  0  0
 10 14  1  0  0  0
 14 15  1  0  0  0
 15 16  2  0  0  0
 16 17  1  0  0  0
 17 18  2  0  0  0
 18 19  1  0  0  0
 18 20  1  0  0  0
 20 21  2  0  0  0
  5  1  1  0  0  0
  1  2  2  0  0  0
  1  3  1  0  0  0
  3 27  1  0  0  0
 27 46  1  0  0  0
 46 47  1  0  0  0
 47 48  2  0  0  0
 48 49  1  0  0  0
 49 50  2  0  0  0
 50 51  1  0  0  0
 51 52  2  0  0  0
 27 28  1  0  0  0
 28 29  2  0  0  0
 28 30  1  0  0  0
 30 32  1  0  0  0
 32 37  1  0  0  0
 37 38  1  0  0  0
 38 39  2  0  0  0
 39 40  1  0  0  0
 40 41  2  0  0  0
 41 42  1  0  0  0
 41 43  1  0  0  0
 43 44  2  0  0  0
 32 33  1  0  0  0
 33 34  1  0  0  0
 33 35  2  0  0  0
 21 15  1  0  0  0
 52 47  1  0  0  0
 44 38  1  0  0  0
  6  9  1  0  0  0
 11 12  1  0  0  0
 11 13  1  0  0  0
 19 22  1  0  0  0
  3  4  1  0  0  0
 30 31  1  0  0  0
 42 45  1  0  0  0
 34 36  1  0  0  0
M  END
> <minimizedAffinity>
-8.06341

> <CNNscore>
0.2455469370

> <CNNaffinity>
5.9005327225

> <CNN_VS>
1.4488577843

> <CNNaffinity_variance>
0.6043632627

$$$$
[H]OC(=O)[C@@]([H])(N([H])C(=O)[C@@]([H])(N([H])C(=O)[C@@]([H])(N([H])C(=O)[C@@]([H])(N([H])[H])C([H])([H])c1c([H])c([H])c(O[H])c([H])c1[H])C([H])([H])C([H])(C([H])([H])[H])C([H])([H])[H])C([H])([H])c1c([H])c([H])c([H])c([H])c1[H])C([H])([H])c1c([H])c([H])c(O[H])c([H])c1[H]


 52 54  0  0  0  0  0  0  0  0999 V2000
   -1.9700   22.7189  -22.3434 C   0  0  0  0  0  0  0  0  0  0  0  0
   -1.5072   23.8975  -22.5333 O   0  0  0  0  0  0  0  0  0  0  0  0
   -2.8994   22.2409  -23.2843 N   0  0  0  0  0  0  0  0  0  0  0  0
   -3.2597   21.2416  -23.0525 H   0  0  0  0  0  0  0  0  0  0  0  0
   -1.5360   21.9074  -21.2054 C   0  0  0  0  0  0  0  0  0  0  0  0
   -2.7248   21.4772  -20.4559 N   0  0  0  0  0  0  0  0  0  0  0  0
   -3.1174   22.0807  -19.2561 C   0  0  0  0  0  0  0  0  0  0  0  0
   -2.4330   23.0109  -18.8000 O   0  0  0  0  0  0  0  0  0  0  0  0
   -3.2499   20.6799  -20.9002 H   0  0  0  0  0  0  0  0  0  0  0  0
   -4.3313   21.6070  -18.5559 C   0  0  0  0  0  0  0  0  0  0  0  0
   -3.9193   21.0562  -17.2771 N   0  0  0  0  0  0  0  0  0  0  0  0
   -3.7891   20.0172  -17.3722 H   0  0  0  0  0  0  0  0  0  0  0  0
   -3.0253   21.4668  -16.9226 H   0  0  0  0  0  0  0  0  0  0  0  0
   -5.3222   22.7433  -18.3552 C   0  0  0  0  0  0  0  0  0  0  0  0
   -6.7125   22.2356  -18.4203 C   0  0  0  0  0  0  0  0  0  0  0  0
   -7.2072   21.5946  -19.5355 C   0  0  0  0  0  0  0  0  0  0  0  0
   -8.5231   21.1182  -19.5979 C   0  0  0  0  0  0  0  0  0  0  0  0
   -9.3606   21.2881  -18.5198 C   0  0  0  0  0  0  0  0  0  0  0  0
  -10.6701   20.8388  -18.5276 O   0  0  0  0  0  0  0  0  0  0  0  0
   -8.8740   21.9260  -17.4044 C   0  0  0  0  0  0  0  0  0  0  0  0
   -7.5709   22.4005  -17.3369 C   0  0  0  0  0  0  0  0  0  0  0  0
  -10.9341   19.9041  -18.2114 H   0  0  0  0  0  0  0  0  0  0  0  0
   -0.5723   20.8244  -21.3525 C   0  0  0  0  0  0  0  0  0  0  0  0
    1.5979   19.7291  -20.6292 C   0  0  0  0  0  0  0  0  0  0  0  0
    0.3648   20.4915  -20.2606 C   0  0  0  0  0  0  0  0  0  0  0  0
    0.8510   21.7801  -19.5614 C   0  0  0  0  0  0  0  0  0  0  0  0
   -3.4295   22.8113  -24.4545 C   0  0  0  0  0  0  0  0  0  0  0  0
   -4.8867   23.1716  -24.2648 C   0  0  0  0  0  0  0  0  0  0  0  0
   -5.5554   22.4066  -23.5038 O   0  0  0  0  0  0  0  0  0  0  0  0
   -5.4661   24.2830  -24.8890 N   0  0  0  0  0  0  0  0  0  0  0  0
   -4.9485   24.9245  -25.4928 H   0  0  0  0  0  0  0  0  0  0  0  0
   -6.9109   24.5023  -24.6179 C   0  0  0  0  0  0  0  0  0  0  0  0
   -7.6027   24.7492  -25.8936 C   0  0  0  0  0  0  0  0  0  0  0  0
   -8.9703   24.8260  -25.9947 O   0  0  0  0  0  0  0  0  0  0  0  0
   -6.9290   24.8987  -26.9677 O   0  0  0  0  0  0  0  0  0  0  0  0
   -9.6067   24.0336  -25.9527 H   0  0  0  0  0  0  0  0  0  0  0  0
   -7.0047   25.5971  -23.6100 C   0  0  0  0  0  0  0  0  0  0  0  0
   -7.9301   25.3453  -22.4913 C   0  0  0  0  0  0  0  0  0  0  0  0
   -9.2975   25.2602  -22.6156 C   0  0  0  0  0  0  0  0  0  0  0  0
  -10.1236   25.0167  -21.5446 C   0  0  0  0  0  0  0  0  0  0  0  0
   -9.6226   24.8422  -20.2713 C   0  0  0  0  0  0  0  0  0  0  0  0
  -10.4431   24.5973  -19.1884 O   0  0  0  0  0  0  0  0  0  0  0  0
   -8.2539   24.9247  -20.1304 C   0  0  0  0  0  0  0  0  0  0  0  0
   -7.4199   25.1674  -21.1924 C   0  0  0  0  0  0  0  0  0  0  0  0
  -10.6744   23.6257  -18.9408 H   0  0  0  0  0  0  0  0  0  0  0  0
   -3.2817   22.1897  -25.7827 C   0  0  0  0  0  0  0  0  0  0  0  0
   -2.0835   22.5064  -26.5821 C   0  0  0  0  0  0  0  0  0  0  0  0
   -2.2515   22.9868  -27.8979 C   0  0  0  0  0  0  0  0  0  0  0  0
   -1.1924   23.2404  -28.7237 C   0  0  0  0  0  0  0  0  0  0  0  0
    0.1110   23.0424  -28.3232 C   0  0  0  0  0  0  0  0  0  0  0  0
    0.2975   22.5745  -27.0464 C   0  0  0  0  0  0  0  0  0  0  0  0
   -0.7784   22.3183  -26.2118 C   0  0  0  0  0  0  0  0  0  0  0  0
 24 25  1  0  0  0
 25 26  1  0  0  0
 25 23  1  0  0  0
 23  5  1  0  0  0
  5  6  1  0  0  0
  6  7  1  0  0  0
  7  8  2  0  0  0
  7 10  1  0  0  0
 10 11  1  0  0  0
 10 14  1  0  0  0
 14 15  1  0  0  0
 15 16  2  0  0  0
 16 17  1  0  0  0
 17 18  2  0  0  0
 18 19  1  0  0  0
 18 20  1  0  0  0
 20 21  2  0  0  0
  5  1  1  0  0  0
  1  2  2  0  0  0
  1  3  1  0  0  0
  3 27  1  0  0  0
 27 46  1  0  0  0
 46 47  1  0  0  0
 47 48  2  0  0  0
 48 49  1  0  0  0
 49 50  2  0  0  0
 50 51  1  0  0  0
 51 52  2  0  0  0
 27 28  1  0  0  0
 28 29  2  0  0  0
 28 30  1  0  0  0
 30 32  1  0  0  0
 32 37  1  0  0  0
 37 38  1  0  0  0
 38 39  2  0  0  0
 39 40  1  0  0  0
 40 41  2  0  0  0
 41 42  1  0  0  0
 41 43  1  0  0  0
 43 44  2  0  0  0
 32 33  1  0  0  0
 33 34  1  0  0  0
 33 35  2  0  0  0
 21 15  1  0  0  0
 52 47  1  0  0  0
 44 38  1  0  0  0
  6  9  1  0  0  0
 11 12  1  0  0  0
 11 13  1  0  0  0
 19 22  1  0  0  0
  3  4  1  0  0  0
 30 31  1  0  0  0
 42 45  1  0  0  0
 34 36  1  0  0  0
M  END
> <minimizedAffinity>
-8.21560

> <CNNscore>
0.2284059376

> <CNNaffinity>
6.2430281639

> <CNN_VS>
1.4259446859

> <CNNaffinity_variance>
0.7610538602

$$$$
[H]OC(=O)[C@@]([H])(N([H])C(=O)[C@@]([H])(N([H])C(=O)[C@@]([H])(N([H])C(=O)[C@@]([H])(N([H])[H])C([H])([H])c1c([H])c([H])c(O[H])c([H])c1[H])C([H])([H])C([H])(C([H])([H])[H])C([H])([H])[H])C([H])([H])c1c([H])c([H])c([H])c([H])c1[H])C([H])([H])c1c([H])c([H])c(O[H])c([H])c1[H]


 52 54  0  0  0  0  0  0  0  0999 V2000
   -1.6327   22.4095  -22.1773 C   0  0  0  0  0  0  0  0  0  0  0  0
   -1.4999   23.6826  -22.2092 O   0  0  0  0  0  0  0  0  0  0  0  0
   -2.3032   21.8123  -23.2594 N   0  0  0  0  0  0  0  0  0  0  0  0
   -2.3916   20.7333  -23.1586 H   0  0  0  0  0  0  0  0  0  0  0  0
   -1.0959   21.6180  -21.0694 C   0  0  0  0  0  0  0  0  0  0  0  0
   -2.1906   21.3138  -20.1370 N   0  0  0  0  0  0  0  0  0  0  0  0
   -2.3298   21.9591  -18.9033 C   0  0  0  0  0  0  0  0  0  0  0  0
   -1.4936   22.8169  -18.5768 O   0  0  0  0  0  0  0  0  0  0  0  0
   -2.8553   20.5722  -20.4791 H   0  0  0  0  0  0  0  0  0  0  0  0
   -3.4612   21.6140  -18.0149 C   0  0  0  0  0  0  0  0  0  0  0  0
   -3.7214   20.1928  -18.1598 N   0  0  0  0  0  0  0  0  0  0  0  0
   -4.4771   20.0494  -18.8766 H   0  0  0  0  0  0  0  0  0  0  0  0
   -2.8793   19.6501  -18.4592 H   0  0  0  0  0  0  0  0  0  0  0  0
   -3.1404   21.9548  -16.5678 C   0  0  0  0  0  0  0  0  0  0  0  0
   -4.1325   22.9145  -16.0296 C   0  0  0  0  0  0  0  0  0  0  0  0
   -4.6498   23.9390  -16.7927 C   0  0  0  0  0  0  0  0  0  0  0  0
   -5.5849   24.8486  -16.2820 C   0  0  0  0  0  0  0  0  0  0  0  0
   -6.0103   24.7286  -14.9792 C   0  0  0  0  0  0  0  0  0  0  0  0
   -6.9311   25.6000  -14.4228 O   0  0  0  0  0  0  0  0  0  0  0  0
   -5.4991   23.7093  -14.2128 C   0  0  0  0  0  0  0  0  0  0  0  0
   -4.5718   22.8051  -14.7132 C   0  0  0  0  0  0  0  0  0  0  0  0
   -7.9383   25.4337  -14.4575 H   0  0  0  0  0  0  0  0  0  0  0  0
   -0.2416   20.4588  -21.2917 C   0  0  0  0  0  0  0  0  0  0  0  0
    1.7179   19.2845  -20.1899 C   0  0  0  0  0  0  0  0  0  0  0  0
    1.1840   20.4841  -20.9065 C   0  0  0  0  0  0  0  0  0  0  0  0
    2.0727   20.6670  -22.1564 C   0  0  0  0  0  0  0  0  0  0  0  0
   -2.8621   22.3511  -24.4313 C   0  0  0  0  0  0  0  0  0  0  0  0
   -4.3217   22.6912  -24.2239 C   0  0  0  0  0  0  0  0  0  0  0  0
   -4.9363   22.0018  -23.3531 O   0  0  0  0  0  0  0  0  0  0  0  0
   -4.9595   23.7065  -24.9472 N   0  0  0  0  0  0  0  0  0  0  0  0
   -4.4859   24.2874  -25.6416 H   0  0  0  0  0  0  0  0  0  0  0  0
   -6.3991   23.9164  -24.6434 C   0  0  0  0  0  0  0  0  0  0  0  0
   -7.1345   24.0763  -25.9086 C   0  0  0  0  0  0  0  0  0  0  0  0
   -6.6783   23.5728  -27.1022 O   0  0  0  0  0  0  0  0  0  0  0  0
   -8.2438   24.7080  -25.9277 O   0  0  0  0  0  0  0  0  0  0  0  0
   -5.9135   23.9617  -27.6486 H   0  0  0  0  0  0  0  0  0  0  0  0
   -6.4827   25.0665  -23.6981 C   0  0  0  0  0  0  0  0  0  0  0  0
   -6.8592   24.7197  -22.3164 C   0  0  0  0  0  0  0  0  0  0  0  0
   -6.2461   25.2228  -21.1923 C   0  0  0  0  0  0  0  0  0  0  0  0
   -6.6349   24.8767  -19.9204 C   0  0  0  0  0  0  0  0  0  0  0  0
   -7.6726   23.9958  -19.6971 C   0  0  0  0  0  0  0  0  0  0  0  0
   -8.0713   23.6410  -18.4240 O   0  0  0  0  0  0  0  0  0  0  0  0
   -8.2971   23.4827  -20.8138 C   0  0  0  0  0  0  0  0  0  0  0  0
   -7.9174   23.8212  -22.0879 C   0  0  0  0  0  0  0  0  0  0  0  0
   -8.7962   24.1963  -17.9496 H   0  0  0  0  0  0  0  0  0  0  0  0
   -2.7259   21.7063  -25.7497 C   0  0  0  0  0  0  0  0  0  0  0  0
   -1.7809   22.2824  -26.7242 C   0  0  0  0  0  0  0  0  0  0  0  0
   -2.2933   22.9079  -27.8803 C   0  0  0  0  0  0  0  0  0  0  0  0
   -1.4827   23.4072  -28.8608 C   0  0  0  0  0  0  0  0  0  0  0  0
   -0.1091   23.3313  -28.7833 C   0  0  0  0  0  0  0  0  0  0  0  0
    0.4111   22.7258  -27.6668 C   0  0  0  0  0  0  0  0  0  0  0  0
   -0.4135   22.2206  -26.6745 C   0  0  0  0  0  0  0  0  0  0  0  0
 24 25  1  0  0  0
 25 26  1  0  0  0
 25 23  1  0  0  0
 23  5  1  0  0  0
  5  6  1  0  0  0
  6  7  1  0  0  0
  7  8  2  0  0  0
  7 10  1  0  0  0
 10 11  1  0  0  0
 10 14  1  0  0  0
 14 15  1  0  0  0
 15 16  2  0  0  0
 16 17  1  0  0  0
 17 18  2  0  0  0
 18 19  1  0  0  0
 18 20  1  0  0  0
 20 21  2  0  0  0
  5  1  1  0  0  0
  1  2  2  0  0  0
  1  3  1  0  0  0
  3 27  1  0  0  0
 27 46  1  0  0  0
 46 47  1  0  0  0
 47 48  2  0  0  0
 48 49  1  0  0  0
 49 50  2  0  0  0
 50 51  1  0  0  0
 51 52  2  0  0  0
 27 28  1  0  0  0
 28 29  2  0  0  0
 28 30  1  0  0  0
 30 32  1  0  0  0
 32 37  1  0  0  0
 37 38  1  0  0  0
 38 39  2  0  0  0
 39 40  1  0  0  0
 40 41  2  0  0  0
 41 42  1  0  0  0
 41 43  1  0  0  0
 43 44  2  0  0  0
 32 33  1  0  0  0
 33 34  1  0  0  0
 33 35  2  0  0  0
 21 15  1  0  0  0
 52 47  1  0  0  0
 44 38  1  0  0  0
  6  9  1  0  0  0
 11 12  1  0  0  0
 11 13  1  0  0  0
 19 22  1  0  0  0
  3  4  1  0  0  0
 30 31  1  0  0  0
 42 45  1  0  0  0
 34 36  1  0  0  0
M  END
> <minimizedAffinity>
-8.16276

> <CNNscore>
0.2266084403

> <CNNaffinity>
5.8612046242

> <CNN_VS>
1.3281984329

> <CNNaffinity_variance>
1.1966221333

$$$$
[H]OC(=O)[C@@]([H])(N([H])C(=O)[C@@]([H])(N([H])C(=O)[C@@]([H])(N([H])C(=O)[C@@]([H])(N([H])[H])C([H])([H])c1c([H])c([H])c(O[H])c([H])c1[H])C([H])([H])C([H])(C([H])([H])[H])C([H])([H])[H])C([H])([H])c1c([H])c([H])c([H])c([H])c1[H])C([H])([H])c1c([H])c([H])c(O[H])c([H])c1[H]


 52 54  0  0  0  0  0  0  0  0999 V2000
   -1.8380   22.5406  -20.1668 C   0  0  0  0  0  0  0  0  0  0  0  0
   -1.1038   23.5281  -20.5206 O   0  0  0  0  0  0  0  0  0  0  0  0
   -2.8790   22.1769  -21.0394 N   0  0  0  0  0  0  0  0  0  0  0  0
   -3.4687   21.3419  -20.6691 H   0  0  0  0  0  0  0  0  0  0  0  0
   -1.5899   21.8197  -18.9175 C   0  0  0  0  0  0  0  0  0  0  0  0
   -0.1378   21.6854  -18.7342 N   0  0  0  0  0  0  0  0  0  0  0  0
    0.5607   20.5241  -19.0827 C   0  0  0  0  0  0  0  0  0  0  0  0
   -0.0685   19.5651  -19.5582 O   0  0  0  0  0  0  0  0  0  0  0  0
    0.3254   22.5356  -18.3202 H   0  0  0  0  0  0  0  0  0  0  0  0
    2.0248   20.4570  -18.8824 C   0  0  0  0  0  0  0  0  0  0  0  0
    2.4547   19.1071  -19.2006 N   0  0  0  0  0  0  0  0  0  0  0  0
    2.4907   18.5369  -18.3180 H   0  0  0  0  0  0  0  0  0  0  0  0
    1.8206   18.6235  -19.8769 H   0  0  0  0  0  0  0  0  0  0  0  0
    2.7415   21.4689  -19.7632 C   0  0  0  0  0  0  0  0  0  0  0  0
    3.4414   22.4756  -18.9316 C   0  0  0  0  0  0  0  0  0  0  0  0
    2.7629   23.4635  -18.2509 C   0  0  0  0  0  0  0  0  0  0  0  0
    3.4255   24.4175  -17.4679 C   0  0  0  0  0  0  0  0  0  0  0  0
    4.7969   24.3806  -17.3650 C   0  0  0  0  0  0  0  0  0  0  0  0
    5.5028   25.2989  -16.6067 O   0  0  0  0  0  0  0  0  0  0  0  0
    5.4798   23.3982  -18.0407 C   0  0  0  0  0  0  0  0  0  0  0  0
    4.8286   22.4501  -18.8185 C   0  0  0  0  0  0  0  0  0  0  0  0
    5.7188   25.1489  -15.6197 H   0  0  0  0  0  0  0  0  0  0  0  0
   -2.2577   22.1790  -17.6733 C   0  0  0  0  0  0  0  0  0  0  0  0
   -4.3947   20.8376  -17.9310 C   0  0  0  0  0  0  0  0  0  0  0  0
   -3.7294   22.1254  -17.5613 C   0  0  0  0  0  0  0  0  0  0  0  0
   -4.1672   22.4332  -16.1124 C   0  0  0  0  0  0  0  0  0  0  0  0
   -3.2804   22.6859  -22.2867 C   0  0  0  0  0  0  0  0  0  0  0  0
   -4.1492   23.9123  -22.1126 C   0  0  0  0  0  0  0  0  0  0  0  0
   -3.5591   25.0320  -22.2107 O   0  0  0  0  0  0  0  0  0  0  0  0
   -5.5234   23.8212  -21.8594 N   0  0  0  0  0  0  0  0  0  0  0  0
   -6.0270   22.9348  -21.7916 H   0  0  0  0  0  0  0  0  0  0  0  0
   -6.2427   25.1118  -21.6988 C   0  0  0  0  0  0  0  0  0  0  0  0
   -6.6136   25.2776  -20.2839 C   0  0  0  0  0  0  0  0  0  0  0  0
   -5.9252   24.6749  -19.2595 O   0  0  0  0  0  0  0  0  0  0  0  0
   -7.6148   26.0034  -19.9663 O   0  0  0  0  0  0  0  0  0  0  0  0
   -5.9742   23.6871  -19.0217 H   0  0  0  0  0  0  0  0  0  0  0  0
   -7.3769   25.1029  -22.6669 C   0  0  0  0  0  0  0  0  0  0  0  0
   -7.0033   25.3159  -24.0762 C   0  0  0  0  0  0  0  0  0  0  0  0
   -7.5557   24.6396  -25.1392 C   0  0  0  0  0  0  0  0  0  0  0  0
   -7.1816   24.8753  -26.4404 C   0  0  0  0  0  0  0  0  0  0  0  0
   -6.2209   25.8131  -26.7570 C   0  0  0  0  0  0  0  0  0  0  0  0
   -5.8374   26.0579  -28.0604 O   0  0  0  0  0  0  0  0  0  0  0  0
   -5.6577   26.4993  -25.7024 C   0  0  0  0  0  0  0  0  0  0  0  0
   -6.0234   26.2721  -24.3998 C   0  0  0  0  0  0  0  0  0  0  0  0
   -6.3337   26.7758  -28.6055 H   0  0  0  0  0  0  0  0  0  0  0  0
   -3.8834   21.8439  -23.3354 C   0  0  0  0  0  0  0  0  0  0  0  0
   -3.5585   22.1296  -24.7452 C   0  0  0  0  0  0  0  0  0  0  0  0
   -2.2264   21.9711  -25.1816 C   0  0  0  0  0  0  0  0  0  0  0  0
   -1.8330   22.2779  -26.4540 C   0  0  0  0  0  0  0  0  0  0  0  0
   -2.7147   22.7636  -27.3949 C   0  0  0  0  0  0  0  0  0  0  0  0
   -4.0165   22.9263  -26.9914 C   0  0  0  0  0  0  0  0  0  0  0  0
   -4.4119   22.6143  -25.7006 C   0  0  0  0  0  0  0  0  0  0  0  0
 24 25  1  0  0  0
 25 26  1  0  0  0
 25 23  1  0  0  0
 23  5  1  0  0  0
  5  6  1  0  0  0
  6  7  1  0  0  0
  7  8  2  0  0  0
  7 10  1  0  0  0
 10 11  1  0  0  0
 10 14  1  0  0  0
 14 15  1  0  0  0
 15 16  2  0  0  0
 16 17  1  0  0  0
 17 18  2  0  0  0
 18 19  1  0  0  0
 18 20  1  0  0  0
 20 21  2  0  0  0
  5  1  1  0  0  0
  1  2  2  0  0  0
  1  3  1  0  0  0
  3 27  1  0  0  0
 27 46  1  0  0  0
 46 47  1  0  0  0
 47 48  2  0  0  0
 48 49  1  0  0  0
 49 50  2  0  0  0
 50 51  1  0  0  0
 51 52  2  0  0  0
 27 28  1  0  0  0
 28 29  2  0  0  0
 28 30  1  0  0  0
 30 32  1  0  0  0
 32 37  1  0  0  0
 37 38  1  0  0  0
 38 39  2  0  0  0
 39 40  1  0  0  0
 40 41  2  0  0  0
 41 42  1  0  0  0
 41 43  1  0  0  0
 43 44  2  0  0  0
 32 33  1  0  0  0
 33 34  1  0  0  0
 33 35  2  0  0  0
 21 15  1  0  0  0
 52 47  1  0  0  0
 44 38  1  0  0  0
  6  9  1  0  0  0
 11 12  1  0  0  0
 11 13  1  0  0  0
 19 22  1  0  0  0
  3  4  1  0  0  0
 30 31  1  0  0  0
 42 45  1  0  0  0
 34 36  1  0  0  0
M  END
> <minimizedAffinity>
-8.33475

> <CNNscore>
0.2157906890

> <CNNaffinity>
6.2700471878

> <CNN_VS>
1.3530178070

> <CNNaffinity_variance>
0.2999103069

$$$$
[H]OC(=O)[C@@]([H])(N([H])C(=O)[C@@]([H])(N([H])C(=O)[C@@]([H])(N([H])C(=O)[C@@]([H])(N([H])[H])C([H])([H])c1c([H])c([H])c(O[H])c([H])c1[H])C([H])([H])C([H])(C([H])([H])[H])C([H])([H])[H])C([H])([H])c1c([H])c([H])c([H])c([H])c1[H])C([H])([H])c1c([H])c([H])c(O[H])c([H])c1[H]


 52 54  0  0  0  0  0  0  0  0999 V2000
   -0.3836   21.8238  -21.8505 C   0  0  0  0  0  0  0  0  0  0  0  0
    0.3163   21.4561  -22.8576 O   0  0  0  0  0  0  0  0  0  0  0  0
   -1.5253   22.5999  -22.1183 N   0  0  0  0  0  0  0  0  0  0  0  0
   -2.0619   22.8874  -21.2175 H   0  0  0  0  0  0  0  0  0  0  0  0
   -0.0140   21.4382  -20.4880 C   0  0  0  0  0  0  0  0  0  0  0  0
   -1.2389   21.1109  -19.7447 N   0  0  0  0  0  0  0  0  0  0  0  0
   -1.9339   22.0580  -18.9846 C   0  0  0  0  0  0  0  0  0  0  0  0
   -1.4975   23.2190  -18.9271 O   0  0  0  0  0  0  0  0  0  0  0  0
   -1.5436   20.1070  -19.8355 H   0  0  0  0  0  0  0  0  0  0  0  0
   -3.1675   21.6662  -18.2682 C   0  0  0  0  0  0  0  0  0  0  0  0
   -3.4822   20.2989  -18.6420 N   0  0  0  0  0  0  0  0  0  0  0  0
   -4.1655   20.3058  -19.4411 H   0  0  0  0  0  0  0  0  0  0  0  0
   -2.6418   19.7499  -18.9349 H   0  0  0  0  0  0  0  0  0  0  0  0
   -2.9823   21.7807  -16.7629 C   0  0  0  0  0  0  0  0  0  0  0  0
   -3.9774   22.7158  -16.1883 C   0  0  0  0  0  0  0  0  0  0  0  0
   -4.3766   22.6427  -14.8712 C   0  0  0  0  0  0  0  0  0  0  0  0
   -5.3205   23.5247  -14.3294 C   0  0  0  0  0  0  0  0  0  0  0  0
   -5.8760   24.5003  -15.1246 C   0  0  0  0  0  0  0  0  0  0  0  0
   -6.8138   25.3971  -14.6421 O   0  0  0  0  0  0  0  0  0  0  0  0
   -5.4823   24.5793  -16.4386 C   0  0  0  0  0  0  0  0  0  0  0  0
   -4.5475   23.7078  -16.9813 C   0  0  0  0  0  0  0  0  0  0  0  0
   -6.5563   26.2946  -14.2279 H   0  0  0  0  0  0  0  0  0  0  0  0
    1.0502   20.4799  -20.2188 C   0  0  0  0  0  0  0  0  0  0  0  0
    2.3171   22.2881  -18.9704 C   0  0  0  0  0  0  0  0  0  0  0  0
    2.2234   20.8601  -19.4061 C   0  0  0  0  0  0  0  0  0  0  0  0
    2.2767   20.0140  -18.1150 C   0  0  0  0  0  0  0  0  0  0  0  0
   -2.0909   23.0547  -23.3222 C   0  0  0  0  0  0  0  0  0  0  0  0
   -3.3661   23.8254  -23.0597 C   0  0  0  0  0  0  0  0  0  0  0  0
   -3.4604   24.3754  -21.9195 O   0  0  0  0  0  0  0  0  0  0  0  0
   -4.3835   23.9290  -24.0163 N   0  0  0  0  0  0  0  0  0  0  0  0
   -4.3277   23.5109  -24.9469 H   0  0  0  0  0  0  0  0  0  0  0  0
   -5.5824   24.7078  -23.6098 C   0  0  0  0  0  0  0  0  0  0  0  0
   -6.6850   23.7735  -23.3303 C   0  0  0  0  0  0  0  0  0  0  0  0
   -6.5263   22.4093  -23.3494 O   0  0  0  0  0  0  0  0  0  0  0  0
   -7.8494   24.2215  -23.0591 O   0  0  0  0  0  0  0  0  0  0  0  0
   -6.4313   21.8419  -24.1883 H   0  0  0  0  0  0  0  0  0  0  0  0
   -5.8398   25.7068  -24.6865 C   0  0  0  0  0  0  0  0  0  0  0  0
   -5.6523   25.2125  -26.0618 C   0  0  0  0  0  0  0  0  0  0  0  0
   -6.2622   24.0920  -26.5768 C   0  0  0  0  0  0  0  0  0  0  0  0
   -6.0637   23.6703  -27.8696 C   0  0  0  0  0  0  0  0  0  0  0  0
   -5.2328   24.3541  -28.7327 C   0  0  0  0  0  0  0  0  0  0  0  0
   -5.0260   23.9394  -30.0331 O   0  0  0  0  0  0  0  0  0  0  0  0
   -4.6140   25.4792  -28.2312 C   0  0  0  0  0  0  0  0  0  0  0  0
   -4.8048   25.9092  -26.9425 C   0  0  0  0  0  0  0  0  0  0  0  0
   -5.6436   24.2894  -30.7780 H   0  0  0  0  0  0  0  0  0  0  0  0
   -2.3208   22.1713  -24.4794 C   0  0  0  0  0  0  0  0  0  0  0  0
   -1.6255   22.4691  -25.7453 C   0  0  0  0  0  0  0  0  0  0  0  0
   -2.3950   22.7359  -26.8972 C   0  0  0  0  0  0  0  0  0  0  0  0
   -1.8268   22.9559  -28.1206 C   0  0  0  0  0  0  0  0  0  0  0  0
   -0.4619   22.9309  -28.3081 C   0  0  0  0  0  0  0  0  0  0  0  0
    0.3062   22.6723  -27.2003 C   0  0  0  0  0  0  0  0  0  0  0  0
   -0.2732   22.4497  -25.9615 C   0  0  0  0  0  0  0  0  0  0  0  0
 24 25  1  0  0  0
 25 26  1  0  0  0
 25 23  1  0  0  0
 23  5  1  0  0  0
  5  6  1  0  0  0
  6  7  1  0  0  0
  7  8  2  0  0  0
  7 10  1  0  0  0
 10 11  1  0  0  0
 10 14  1  0  0  0
 14 15  1  0  0  0
 15 16  2  0  0  0
 16 17  1  0  0  0
 17 18  2  0  0  0
 18 19  1  0  0  0
 18 20  1  0  0  0
 20 21  2  0  0  0
  5  1  1  0  0  0
  1  2  2  0  0  0
  1  3  1  0  0  0
  3 27  1  0  0  0
 27 46  1  0  0  0
 46 47  1  0  0  0
 47 48  2  0  0  0
 48 49  1  0  0  0
 49 50  2  0  0  0
 50 51  1  0  0  0
 51 52  2  0  0  0
 27 28  1  0  0  0
 28 29  2  0  0  0
 28 30  1  0  0  0
 30 32  1  0  0  0
 32 37  1  0  0  0
 37 38  1  0  0  0
 38 39  2  0  0  0
 39 40  1  0  0  0
 40 41  2  0  0  0
 41 42  1  0  0  0
 41 43  1  0  0  0
 43 44  2  0  0  0
 32 33  1  0  0  0
 33 34  1  0  0  0
 33 35  2  0  0  0
 21 15  1  0  0  0
 52 47  1  0  0  0
 44 38  1  0  0  0
  6  9  1  0  0  0
 11 12  1  0  0  0
 11 13  1  0  0  0
 19 22  1  0  0  0
  3  4  1  0  0  0
 30 31  1  0  0  0
 42 45  1  0  0  0
 34 36  1  0  0  0
M  END
> <minimizedAffinity>
-8.27888

> <CNNscore>
0.2146428525

> <CNNaffinity>
6.3916196823

> <CNN_VS>
1.3719154596

> <CNNaffinity_variance>
0.3929877877

$$$$
[H]OC(=O)[C@@]([H])(N([H])C(=O)[C@@]([H])(N([H])C(=O)[C@@]([H])(N([H])C(=O)[C@@]([H])(N([H])[H])C([H])([H])c1c([H])c([H])c(O[H])c([H])c1[H])C([H])([H])C([H])(C([H])([H])[H])C([H])([H])[H])C([H])([H])c1c([H])c([H])c([H])c([H])c1[H])C([H])([H])c1c([H])c([H])c(O[H])c([H])c1[H]


 52 54  0  0  0  0  0  0  0  0999 V2000
   -6.0460   22.0546  -23.0203 C   0  0  0  0  0  0  0  0  0  0  0  0
   -6.3247   21.3317  -24.0397 O   0  0  0  0  0  0  0  0  0  0  0  0
   -6.2746   23.4370  -23.1389 N   0  0  0  0  0  0  0  0  0  0  0  0
   -6.0027   23.9890  -22.2425 H   0  0  0  0  0  0  0  0  0  0  0  0
   -5.5274   21.4604  -21.7875 C   0  0  0  0  0  0  0  0  0  0  0  0
   -4.0601   21.5434  -21.8082 N   0  0  0  0  0  0  0  0  0  0  0  0
   -3.3693   22.7296  -21.5371 C   0  0  0  0  0  0  0  0  0  0  0  0
   -4.0179   23.7558  -21.2763 O   0  0  0  0  0  0  0  0  0  0  0  0
   -3.5799   20.6363  -22.0436 H   0  0  0  0  0  0  0  0  0  0  0  0
   -1.8904   22.7434  -21.5639 C   0  0  0  0  0  0  0  0  0  0  0  0
   -1.4368   23.6731  -20.5449 N   0  0  0  0  0  0  0  0  0  0  0  0
   -1.2726   24.6150  -20.9824 H   0  0  0  0  0  0  0  0  0  0  0  0
   -2.1212   23.7905  -19.7630 H   0  0  0  0  0  0  0  0  0  0  0  0
   -1.3284   21.3533  -21.3087 C   0  0  0  0  0  0  0  0  0  0  0  0
    0.0095   21.2135  -21.9295 C   0  0  0  0  0  0  0  0  0  0  0  0
    0.2678   21.6342  -23.2163 C   0  0  0  0  0  0  0  0  0  0  0  0
    1.5320   21.4981  -23.8042 C   0  0  0  0  0  0  0  0  0  0  0  0
    2.5587   20.9283  -23.0873 C   0  0  0  0  0  0  0  0  0  0  0  0
    3.8268   20.7678  -23.6191 O   0  0  0  0  0  0  0  0  0  0  0  0
    2.3083   20.5069  -21.8037 C   0  0  0  0  0  0  0  0  0  0  0  0
    1.0574   20.6389  -21.2158 C   0  0  0  0  0  0  0  0  0  0  0  0
    4.5546   21.4793  -23.5334 H   0  0  0  0  0  0  0  0  0  0  0  0
   -6.0667   21.8047  -20.4784 C   0  0  0  0  0  0  0  0  0  0  0  0
   -8.5985   21.9230  -20.5700 C   0  0  0  0  0  0  0  0  0  0  0  0
   -7.2923   22.6196  -20.3551 C   0  0  0  0  0  0  0  0  0  0  0  0
   -7.3724   23.2561  -18.9500 C   0  0  0  0  0  0  0  0  0  0  0  0
   -6.7909   24.2172  -24.1881 C   0  0  0  0  0  0  0  0  0  0  0  0
   -5.7446   24.4397  -25.2580 C   0  0  0  0  0  0  0  0  0  0  0  0
   -4.5854   24.7543  -24.8472 O   0  0  0  0  0  0  0  0  0  0  0  0
   -6.0341   24.3059  -26.6215 N   0  0  0  0  0  0  0  0  0  0  0  0
   -6.9527   24.0382  -26.9796 H   0  0  0  0  0  0  0  0  0  0  0  0
   -4.9076   24.5684  -27.5549 C   0  0  0  0  0  0  0  0  0  0  0  0
   -5.3839   25.4373  -28.6436 C   0  0  0  0  0  0  0  0  0  0  0  0
   -4.5980   25.7849  -29.7151 O   0  0  0  0  0  0  0  0  0  0  0  0
   -6.5717   25.9046  -28.6154 O   0  0  0  0  0  0  0  0  0  0  0  0
   -3.8344   26.4565  -29.6886 H   0  0  0  0  0  0  0  0  0  0  0  0
   -4.3706   23.2423  -27.9751 C   0  0  0  0  0  0  0  0  0  0  0  0
   -2.9336   23.0364  -27.7226 C   0  0  0  0  0  0  0  0  0  0  0  0
   -2.4124   22.5347  -26.5525 C   0  0  0  0  0  0  0  0  0  0  0  0
   -1.0636   22.3524  -26.3622 C   0  0  0  0  0  0  0  0  0  0  0  0
   -0.1469   22.6658  -27.3441 C   0  0  0  0  0  0  0  0  0  0  0  0
    1.2100   22.4869  -27.1637 O   0  0  0  0  0  0  0  0  0  0  0  0
   -0.6539   23.1699  -28.5228 C   0  0  0  0  0  0  0  0  0  0  0  0
   -1.9981   23.3560  -28.7236 C   0  0  0  0  0  0  0  0  0  0  0  0
    1.6392   21.5891  -27.4253 H   0  0  0  0  0  0  0  0  0  0  0  0
   -7.4924   25.4938  -23.9625 C   0  0  0  0  0  0  0  0  0  0  0  0
   -8.3629   25.6225  -22.7791 C   0  0  0  0  0  0  0  0  0  0  0  0
   -7.8327   26.1953  -21.6040 C   0  0  0  0  0  0  0  0  0  0  0  0
   -8.5545   26.2897  -20.4473 C   0  0  0  0  0  0  0  0  0  0  0  0
   -9.8501   25.8299  -20.3542 C   0  0  0  0  0  0  0  0  0  0  0  0
  -10.3858   25.2680  -21.4861 C   0  0  0  0  0  0  0  0  0  0  0  0
   -9.6512   25.1738  -22.6571 C   0  0  0  0  0  0  0  0  0  0  0  0
 24 25  1  0  0  0
 25 26  1  0  0  0
 25 23  1  0  0  0
 23  5  1  0  0  0
  5  6  1  0  0  0
  6  7  1  0  0  0
  7  8  2  0  0  0
  7 10  1  0  0  0
 10 11  1  0  0  0
 10 14  1  0  0  0
 14 15  1  0  0  0
 15 16  2  0  0  0
 16 17  1  0  0  0
 17 18  2  0  0  0
 18 19  1  0  0  0
 18 20  1  0  0  0
 20 21  2  0  0  0
  5  1  1  0  0  0
  1  2  2  0  0  0
  1  3  1  0  0  0
  3 27  1  0  0  0
 27 46  1  0  0  0
 46 47  1  0  0  0
 47 48  2  0  0  0
 48 49  1  0  0  0
 49 50  2  0  0  0
 50 51  1  0  0  0
 51 52  2  0  0  0
 27 28  1  0  0  0
 28 29  2  0  0  0
 28 30  1  0  0  0
 30 32  1  0  0  0
 32 37  1  0  0  0
 37 38  1  0  0  0
 38 39  2  0  0  0
 39 40  1  0  0  0
 40 41  2  0  0  0
 41 42  1  0  0  0
 41 43  1  0  0  0
 43 44  2  0  0  0
 32 33  1  0  0  0
 33 34  1  0  0  0
 33 35  2  0  0  0
 21 15  1  0  0  0
 52 47  1  0  0  0
 44 38  1  0  0  0
  6  9  1  0  0  0
 11 12  1  0  0  0
 11 13  1  0  0  0
 19 22  1  0  0  0
  3  4  1  0  0  0
 30 31  1  0  0  0
 42 45  1  0  0  0
 34 36  1  0  0  0
M  END
> <minimizedAffinity>
-9.46555

> <CNNscore>
0.2071558982

> <CNNaffinity>
6.9368805885

> <CNN_VS>
1.4370157719

> <CNNaffinity_variance>
0.2612496316

$$$$
[H]OC([H])([H])C([H])([H])C([H])([H])N([H])C(=O)C1(n2c([H])c(C([H])([H])Oc3c([H])c([H])c(Cl)c(Br)c3[H])c3c([H])c([H])c([H])c([H])c32)C([H])([H])C([H])([H])C([H])(/C([H])=C(/[H])Cl)C1([H])[H]


 36 39  0  0  0  0  0  0  0  0999 V2000
   -2.2101   22.0421  -24.3673 N   0  0  0  0  0  0  0  0  0  0  0  0
   -1.0662   21.7139  -23.7273 C   0  0  0  0  0  0  0  0  0  0  0  0
    0.0141   21.8216  -24.5436 C   0  0  0  0  0  0  0  0  0  0  0  0
   -0.4840   22.2411  -25.7715 C   0  0  0  0  0  0  0  0  0  0  0  0
    0.1522   22.4864  -26.9644 C   0  0  0  0  0  0  0  0  0  0  0  0
   -0.5641   22.8689  -28.0677 C   0  0  0  0  0  0  0  0  0  0  0  0
   -1.9216   22.9917  -27.9182 C   0  0  0  0  0  0  0  0  0  0  0  0
   -2.5762   22.7539  -26.7410 C   0  0  0  0  0  0  0  0  0  0  0  0
   -1.8707   22.3697  -25.6315 C   0  0  0  0  0  0  0  0  0  0  0  0
   -5.7884   22.8056  -24.5700 C   0  0  0  0  0  0  0  0  0  0  0  0
   -5.7843   21.4887  -24.0486 C   0  0  0  0  0  0  0  0  0  0  0  0
   -4.3951   20.8920  -24.1215 C   0  0  0  0  0  0  0  0  0  0  0  0
   -3.5540   22.0818  -23.8366 C   0  0  0  0  0  0  0  0  0  0  0  0
   -4.3323   23.2693  -24.4199 C   0  0  0  0  0  0  0  0  0  0  0  0
   -3.4599   22.3703  -22.3768 C   0  0  0  0  0  0  0  0  0  0  0  0
   -3.4673   23.6025  -22.0605 O   0  0  0  0  0  0  0  0  0  0  0  0
   -3.3616   21.4150  -21.3432 N   0  0  0  0  0  0  0  0  0  0  0  0
   -3.3491   20.3890  -21.4930 H   0  0  0  0  0  0  0  0  0  0  0  0
   -3.2695   21.8475  -19.9711 C   0  0  0  0  0  0  0  0  0  0  0  0
   -1.9482   21.6439  -19.3093 C   0  0  0  0  0  0  0  0  0  0  0  0
   -1.1768   22.9132  -19.0378 C   0  0  0  0  0  0  0  0  0  0  0  0
   -1.1469   23.6166  -20.2711 O   0  0  0  0  0  0  0  0  0  0  0  0
   -0.3593   24.2385  -20.2903 H   0  0  0  0  0  0  0  0  0  0  0  0
   -7.9403   24.9481  -24.7813 Cl  0  0  0  0  0  0  0  0  0  0  0  0
   -7.1407   24.2123  -26.1114 C   0  0  0  0  0  0  0  0  0  0  0  0
   -6.2438   23.3101  -25.8157 C   0  0  0  0  0  0  0  0  0  0  0  0
    1.4802   21.6525  -24.2785 C   0  0  0  0  0  0  0  0  0  0  0  0
    1.6990   21.7005  -22.8935 O   0  0  0  0  0  0  0  0  0  0  0  0
    2.0427   20.7036  -22.0444 C   0  0  0  0  0  0  0  0  0  0  0  0
    3.0577   19.8396  -22.4175 C   0  0  0  0  0  0  0  0  0  0  0  0
    3.4752   18.7904  -21.6115 C   0  0  0  0  0  0  0  0  0  0  0  0
    2.8616   18.5959  -20.3960 C   0  0  0  0  0  0  0  0  0  0  0  0
    3.3640   17.2874  -19.3248 Cl  0  0  0  0  0  0  0  0  0  0  0  0
    1.8481   19.4488  -20.0154 C   0  0  0  0  0  0  0  0  0  0  0  0
    1.0078   19.1414  -18.3370 Br  0  0  0  0  0  0  0  0  0  0  0  0
    1.4486   20.4808  -20.8253 C   0  0  0  0  0  0  0  0  0  0  0  0
 24 25  1  0  0  0
 25 26  2  0  0  0
 26 10  1  0  0  0
 10 11  1  0  0  0
 11 12  1  0  0  0
 12 13  1  0  0  0
 13 14  1  0  0  0
 13 15  1  0  0  0
 15 16  2  0  0  0
 15 17  1  0  0  0
 17 19  1  0  0  0
 19 20  1  0  0  0
 20 21  1  0  0  0
 21 22  1  0  0  0
 13  1  1  0  0  0
  1  2  1  0  0  0
  2  3  2  0  0  0
  3 27  1  0  0  0
 27 28  1  0  0  0
 28 29  1  0  0  0
 29 30  2  0  0  0
 30 31  1  0  0  0
 31 32  2  0  0  0
 32 33  1  0  0  0
 32 34  1  0  0  0
 34 35  1  0  0  0
 34 36  2  0  0  0
  3  4  1  0  0  0
  4  5  2  0  0  0
  5  6  1  0  0  0
  6  7  2  0  0  0
  7  8  1  0  0  0
  8  9  2  0  0  0
 14 10  1  0  0  0
  9  1  1  0  0  0
 36 29  1  0  0  0
  9  4  1  0  0  0
 17 18  1  0  0  0
 22 23  1  0  0  0
M  END
> <minimizedAffinity>
-8.37139

> <CNNscore>
0.2593173087

> <CNNaffinity>
6.5934243202

> <CNN_VS>
1.7097890377

> <CNNaffinity_variance>
0.3124972284

$$$$
[H]OC([H])([H])C([H])([H])C([H])([H])N([H])C(=O)C1(n2c([H])c(C([H])([H])Oc3c([H])c([H])c(Cl)c(Br)c3[H])c3c([H])c([H])c([H])c([H])c32)C([H])([H])C([H])([H])C([H])(/C([H])=C(/[H])Cl)C1([H])[H]


 36 39  0  0  0  0  0  0  0  0999 V2000
   -2.1809   21.9433  -24.1247 N   0  0  0  0  0  0  0  0  0  0  0  0
   -1.1106   21.6105  -23.3701 C   0  0  0  0  0  0  0  0  0  0  0  0
    0.0464   21.6904  -24.0774 C   0  0  0  0  0  0  0  0  0  0  0  0
   -0.3222   22.0962  -25.3546 C   0  0  0  0  0  0  0  0  0  0  0  0
    0.4319   22.3134  -26.4825 C   0  0  0  0  0  0  0  0  0  0  0  0
   -0.1666   22.6872  -27.6567 C   0  0  0  0  0  0  0  0  0  0  0  0
   -1.5302   22.8305  -27.6438 C   0  0  0  0  0  0  0  0  0  0  0  0
   -2.3010   22.6208  -26.5334 C   0  0  0  0  0  0  0  0  0  0  0  0
   -1.7139   22.2456  -25.3541 C   0  0  0  0  0  0  0  0  0  0  0  0
   -5.7016   22.8019  -24.6692 C   0  0  0  0  0  0  0  0  0  0  0  0
   -5.7814   21.4776  -24.1733 C   0  0  0  0  0  0  0  0  0  0  0  0
   -4.4067   20.8464  -24.1181 C   0  0  0  0  0  0  0  0  0  0  0  0
   -3.5698   22.0096  -23.7299 C   0  0  0  0  0  0  0  0  0  0  0  0
   -4.2570   23.2255  -24.3667 C   0  0  0  0  0  0  0  0  0  0  0  0
   -3.6152   22.2733  -22.2630 C   0  0  0  0  0  0  0  0  0  0  0  0
   -3.4468   23.4866  -21.9194 O   0  0  0  0  0  0  0  0  0  0  0  0
   -3.8199   21.3132  -21.2497 N   0  0  0  0  0  0  0  0  0  0  0  0
   -3.9685   20.3017  -21.4225 H   0  0  0  0  0  0  0  0  0  0  0  0
   -3.8307   21.7193  -19.8665 C   0  0  0  0  0  0  0  0  0  0  0  0
   -2.6089   21.3859  -19.0783 C   0  0  0  0  0  0  0  0  0  0  0  0
   -1.8804   22.5797  -18.5093 C   0  0  0  0  0  0  0  0  0  0  0  0
   -1.6071   23.4270  -19.6157 O   0  0  0  0  0  0  0  0  0  0  0  0
   -0.8192   24.0138  -19.4098 H   0  0  0  0  0  0  0  0  0  0  0  0
   -7.2207   25.4165  -25.0179 Cl  0  0  0  0  0  0  0  0  0  0  0  0
   -6.6499   24.4239  -26.2981 C   0  0  0  0  0  0  0  0  0  0  0  0
   -6.0177   23.3369  -25.9449 C   0  0  0  0  0  0  0  0  0  0  0  0
    1.4766   21.5062  -23.6665 C   0  0  0  0  0  0  0  0  0  0  0  0
    1.5145   20.7606  -22.4786 O   0  0  0  0  0  0  0  0  0  0  0  0
    2.0574   21.0824  -21.2809 C   0  0  0  0  0  0  0  0  0  0  0  0
    1.2097   21.2899  -20.2065 C   0  0  0  0  0  0  0  0  0  0  0  0
    1.6774   21.6234  -18.9436 C   0  0  0  0  0  0  0  0  0  0  0  0
    3.0321   21.7549  -18.7455 C   0  0  0  0  0  0  0  0  0  0  0  0
    3.6817   22.1615  -17.1565 Cl  0  0  0  0  0  0  0  0  0  0  0  0
    3.8853   21.5530  -19.8090 C   0  0  0  0  0  0  0  0  0  0  0  0
    5.7515   21.7606  -19.5060 Br  0  0  0  0  0  0  0  0  0  0  0  0
    3.4049   21.2237  -21.0505 C   0  0  0  0  0  0  0  0  0  0  0  0
 24 25  1  0  0  0
 25 26  2  0  0  0
 26 10  1  0  0  0
 10 11  1  0  0  0
 11 12  1  0  0  0
 12 13  1  0  0  0
 13 14  1  0  0  0
 13 15  1  0  0  0
 15 16  2  0  0  0
 15 17  1  0  0  0
 17 19  1  0  0  0
 19 20  1  0  0  0
 20 21  1  0  0  0
 21 22  1  0  0  0
 13  1  1  0  0  0
  1  2  1  0  0  0
  2  3  2  0  0  0
  3 27  1  0  0  0
 27 28  1  0  0  0
 28 29  1  0  0  0
 29 30  2  0  0  0
 30 31  1  0  0  0
 31 32  2  0  0  0
 32 33  1  0  0  0
 32 34  1  0  0  0
 34 35  1  0  0  0
 34 36  2  0  0  0
  3  4  1  0  0  0
  4  5  2  0  0  0
  5  6  1  0  0  0
  6  7  2  0  0  0
  7  8  1  0  0  0
  8  9  2  0  0  0
 14 10  1  0  0  0
  9  1  1  0  0  0
 36 29  1  0  0  0
  9  4  1  0  0  0
 17 18  1  0  0  0
 22 23  1  0  0  0
M  END
> <minimizedAffinity>
-8.29591

> <CNNscore>
0.2435182482

> <CNNaffinity>
6.5198888779

> <CNN_VS>
1.5877119303

> <CNNaffinity_variance>
0.2834878862

$$$$
[H]OC([H])([H])C([H])([H])C([H])([H])N([H])C(=O)C1(n2c([H])c(C([H])([H])Oc3c([H])c([H])c(Cl)c(Br)c3[H])c3c([H])c([H])c([H])c([H])c32)C([H])([H])C([H])([H])C([H])(/C([H])=C(/[H])Cl)C1([H])[H]


 36 39  0  0  0  0  0  0  0  0999 V2000
   -2.4073   22.7268  -22.8104 N   0  0  0  0  0  0  0  0  0  0  0  0
   -1.3908   22.0539  -22.2275 C   0  0  0  0  0  0  0  0  0  0  0  0
   -1.7273   21.6120  -20.9879 C   0  0  0  0  0  0  0  0  0  0  0  0
   -3.0345   22.0362  -20.7805 C   0  0  0  0  0  0  0  0  0  0  0  0
   -3.8658   21.8929  -19.6959 C   0  0  0  0  0  0  0  0  0  0  0  0
   -5.1254   22.4312  -19.7104 C   0  0  0  0  0  0  0  0  0  0  0  0
   -5.5026   23.1055  -20.8431 C   0  0  0  0  0  0  0  0  0  0  0  0
   -4.6930   23.2600  -21.9348 C   0  0  0  0  0  0  0  0  0  0  0  0
   -3.4311   22.7271  -21.9314 C   0  0  0  0  0  0  0  0  0  0  0  0
   -4.1185   23.7566  -25.8829 C   0  0  0  0  0  0  0  0  0  0  0  0
   -3.3552   24.9042  -25.5569 C   0  0  0  0  0  0  0  0  0  0  0  0
   -2.7600   24.7714  -24.1715 C   0  0  0  0  0  0  0  0  0  0  0  0
   -2.4501   23.3201  -24.1278 C   0  0  0  0  0  0  0  0  0  0  0  0
   -3.5342   22.6548  -24.9870 C   0  0  0  0  0  0  0  0  0  0  0  0
   -1.1681   22.9956  -24.8164 C   0  0  0  0  0  0  0  0  0  0  0  0
   -0.3994   22.1956  -24.1939 O   0  0  0  0  0  0  0  0  0  0  0  0
   -0.7451   23.4925  -26.0673 N   0  0  0  0  0  0  0  0  0  0  0  0
   -1.2956   24.1461  -26.6546 H   0  0  0  0  0  0  0  0  0  0  0  0
    0.5314   23.0926  -26.6051 C   0  0  0  0  0  0  0  0  0  0  0  0
    1.0821   21.8050  -26.0915 C   0  0  0  0  0  0  0  0  0  0  0  0
    1.8987   21.9281  -24.8274 C   0  0  0  0  0  0  0  0  0  0  0  0
    2.6358   20.7186  -24.7261 O   0  0  0  0  0  0  0  0  0  0  0  0
    2.8830   20.5487  -23.7682 H   0  0  0  0  0  0  0  0  0  0  0  0
   -5.4464   21.3604  -24.5559 Cl  0  0  0  0  0  0  0  0  0  0  0  0
   -6.2701   22.6041  -25.4073 C   0  0  0  0  0  0  0  0  0  0  0  0
   -5.5224   23.5508  -25.9078 C   0  0  0  0  0  0  0  0  0  0  0  0
   -0.9848   20.7616  -20.0011 C   0  0  0  0  0  0  0  0  0  0  0  0
   -1.6549   19.5367  -19.8637 O   0  0  0  0  0  0  0  0  0  0  0  0
   -2.1096   18.9287  -18.7427 C   0  0  0  0  0  0  0  0  0  0  0  0
   -1.2376   18.1264  -18.0273 C   0  0  0  0  0  0  0  0  0  0  0  0
   -1.6167   17.4646  -16.8683 C   0  0  0  0  0  0  0  0  0  0  0  0
   -2.9052   17.6064  -16.4085 C   0  0  0  0  0  0  0  0  0  0  0  0
   -3.4355   16.8005  -14.9315 Cl  0  0  0  0  0  0  0  0  0  0  0  0
   -3.7826   18.4009  -17.1144 C   0  0  0  0  0  0  0  0  0  0  0  0
   -5.5621   18.5612  -16.4620 Br  0  0  0  0  0  0  0  0  0  0  0  0
   -3.3901   19.0476  -18.2582 C   0  0  0  0  0  0  0  0  0  0  0  0
 24 25  1  0  0  0
 25 26  2  0  0  0
 26 10  1  0  0  0
 10 11  1  0  0  0
 11 12  1  0  0  0
 12 13  1  0  0  0
 13 14  1  0  0  0
 13 15  1  0  0  0
 15 16  2  0  0  0
 15 17  1  0  0  0
 17 19  1  0  0  0
 19 20  1  0  0  0
 20 21  1  0  0  0
 21 22  1  0  0  0
 13  1  1  0  0  0
  1  2  1  0  0  0
  2  3  2  0  0  0
  3 27  1  0  0  0
 27 28  1  0  0  0
 28 29  1  0  0  0
 29 30  2  0  0  0
 30 31  1  0  0  0
 31 32  2  0  0  0
 32 33  1  0  0  0
 32 34  1  0  0  0
 34 35  1  0  0  0
 34 36  2  0  0  0
  3  4  1  0  0  0
  4  5  2  0  0  0
  5  6  1  0  0  0
  6  7  2  0  0  0
  7  8  1  0  0  0
  8  9  2  0  0  0
 14 10  1  0  0  0
  9  1  1  0  0  0
 36 29  1  0  0  0
  9  4  1  0  0  0
 17 18  1  0  0  0
 22 23  1  0  0  0
M  END
> <minimizedAffinity>
-1.09804

> <CNNscore>
0.2338341624

> <CNNaffinity>
6.2917928696

> <CNN_VS>
1.4712361097

> <CNNaffinity_variance>
1.0472675562

$$$$
[H]OC([H])([H])C([H])([H])C([H])([H])N([H])C(=O)C1(n2c([H])c(C([H])([H])Oc3c([H])c([H])c(Cl)c(Br)c3[H])c3c([H])c([H])c([H])c([H])c32)C([H])([H])C([H])([H])C([H])(/C([H])=C(/[H])Cl)C1([H])[H]


 36 39  0  0  0  0  0  0  0  0999 V2000
   -3.0798   23.3085  -25.2405 N   0  0  0  0  0  0  0  0  0  0  0  0
   -2.5738   22.8674  -24.0679 C   0  0  0  0  0  0  0  0  0  0  0  0
   -1.3259   22.3532  -24.2216 C   0  0  0  0  0  0  0  0  0  0  0  0
   -1.0329   22.4780  -25.5745 C   0  0  0  0  0  0  0  0  0  0  0  0
    0.0759   22.1019  -26.2936 C   0  0  0  0  0  0  0  0  0  0  0  0
    0.1269   22.3038  -27.6476 C   0  0  0  0  0  0  0  0  0  0  0  0
   -0.9660   22.8902  -28.2324 C   0  0  0  0  0  0  0  0  0  0  0  0
   -2.0798   23.2736  -27.5371 C   0  0  0  0  0  0  0  0  0  0  0  0
   -2.1426   23.0757  -26.1831 C   0  0  0  0  0  0  0  0  0  0  0  0
   -5.4918   25.1182  -27.3228 C   0  0  0  0  0  0  0  0  0  0  0  0
   -6.2832   24.0858  -26.7627 C   0  0  0  0  0  0  0  0  0  0  0  0
   -5.4105   23.0695  -26.0578 C   0  0  0  0  0  0  0  0  0  0  0  0
   -4.3557   23.9426  -25.4839 C   0  0  0  0  0  0  0  0  0  0  0  0
   -4.2055   25.0968  -26.4845 C   0  0  0  0  0  0  0  0  0  0  0  0
   -4.7908   24.5944  -24.2154 C   0  0  0  0  0  0  0  0  0  0  0  0
   -4.3345   25.7653  -24.0170 O   0  0  0  0  0  0  0  0  0  0  0  0
   -5.6413   24.0336  -23.2394 N   0  0  0  0  0  0  0  0  0  0  0  0
   -6.0667   23.0903  -23.3053 H   0  0  0  0  0  0  0  0  0  0  0  0
   -5.9686   24.7855  -22.0536 C   0  0  0  0  0  0  0  0  0  0  0  0
   -7.3566   25.3277  -21.9864 C   0  0  0  0  0  0  0  0  0  0  0  0
   -8.1036   25.3123  -23.2984 C   0  0  0  0  0  0  0  0  0  0  0  0
   -7.5109   26.3309  -24.0908 O   0  0  0  0  0  0  0  0  0  0  0  0
   -8.1646   26.6487  -24.7830 H   0  0  0  0  0  0  0  0  0  0  0  0
   -5.3214   22.9050  -29.4056 Cl  0  0  0  0  0  0  0  0  0  0  0  0
   -4.9597   24.5603  -29.6869 C   0  0  0  0  0  0  0  0  0  0  0  0
   -5.0932   25.3601  -28.6630 C   0  0  0  0  0  0  0  0  0  0  0  0
   -0.3379   21.8283  -23.2233 C   0  0  0  0  0  0  0  0  0  0  0  0
   -0.9820   21.6735  -21.9865 O   0  0  0  0  0  0  0  0  0  0  0  0
   -0.4694   21.7567  -20.7362 C   0  0  0  0  0  0  0  0  0  0  0  0
   -0.7759   22.8679  -19.9699 C   0  0  0  0  0  0  0  0  0  0  0  0
   -0.2950   23.0374  -18.6796 C   0  0  0  0  0  0  0  0  0  0  0  0
    0.5170   22.0693  -18.1363 C   0  0  0  0  0  0  0  0  0  0  0  0
    1.1428   22.2264  -16.4943 Cl  0  0  0  0  0  0  0  0  0  0  0  0
    0.8307   20.9597  -18.8913 C   0  0  0  0  0  0  0  0  0  0  0  0
    1.9708   19.6486  -18.1174 Br  0  0  0  0  0  0  0  0  0  0  0  0
    0.3461   20.8092  -20.1652 C   0  0  0  0  0  0  0  0  0  0  0  0
 24 25  1  0  0  0
 25 26  2  0  0  0
 26 10  1  0  0  0
 10 11  1  0  0  0
 11 12  1  0  0  0
 12 13  1  0  0  0
 13 14  1  0  0  0
 13 15  1  0  0  0
 15 16  2  0  0  0
 15 17  1  0  0  0
 17 19  1  0  0  0
 19 20  1  0  0  0
 20 21  1  0  0  0
 21 22  1  0  0  0
 13  1  1  0  0  0
  1  2  1  0  0  0
  2  3  2  0  0  0
  3 27  1  0  0  0
 27 28  1  0  0  0
 28 29  1  0  0  0
 29 30  2  0  0  0
 30 31  1  0  0  0
 31 32  2  0  0  0
 32 33  1  0  0  0
 32 34  1  0  0  0
 34 35  1  0  0  0
 34 36  2  0  0  0
  3  4  1  0  0  0
  4  5  2  0  0  0
  5  6  1  0  0  0
  6  7  2  0  0  0
  7  8  1  0  0  0
  8  9  2  0  0  0
 14 10  1  0  0  0
  9  1  1  0  0  0
 36 29  1  0  0  0
  9  4  1  0  0  0
 17 18  1  0  0  0
 22 23  1  0  0  0
M  END
> <minimizedAffinity>
-8.69775

> <CNNscore>
0.1966114938

> <CNNaffinity>
6.6841421127

> <CNN_VS>
1.3141791821

> <CNNaffinity_variance>
0.2759808600

$$$$
[H]OC([H])([H])C([H])([H])C([H])([H])N([H])C(=O)C1(n2c([H])c(C([H])([H])Oc3c([H])c([H])c(Cl)c(Br)c3[H])c3c([H])c([H])c([H])c([H])c32)C([H])([H])C([H])([H])C([H])(/C([H])=C(/[H])Cl)C1([H])[H]


 36 39  0  0  0  0  0  0  0  0999 V2000
   -0.8797   21.4390  -22.3732 N   0  0  0  0  0  0  0  0  0  0  0  0
   -2.2208   21.6002  -22.4063 C   0  0  0  0  0  0  0  0  0  0  0  0
   -2.6596   21.8983  -23.6568 C   0  0  0  0  0  0  0  0  0  0  0  0
   -1.5228   21.9277  -24.4560 C   0  0  0  0  0  0  0  0  0  0  0  0
   -1.3702   22.2018  -25.7938 C   0  0  0  0  0  0  0  0  0  0  0  0
   -0.1252   22.2001  -26.3653 C   0  0  0  0  0  0  0  0  0  0  0  0
    0.9368   21.9151  -25.5462 C   0  0  0  0  0  0  0  0  0  0  0  0
    0.8090   21.6384  -24.2127 C   0  0  0  0  0  0  0  0  0  0  0  0
   -0.4306   21.6383  -23.6300 C   0  0  0  0  0  0  0  0  0  0  0  0
    1.1046   19.0983  -20.3700 C   0  0  0  0  0  0  0  0  0  0  0  0
    1.9538   20.2288  -20.4523 C   0  0  0  0  0  0  0  0  0  0  0  0
    1.4162   21.2260  -21.4562 C   0  0  0  0  0  0  0  0  0  0  0  0
   -0.0469   21.0892  -21.2447 C   0  0  0  0  0  0  0  0  0  0  0  0
   -0.2572   19.6207  -20.8504 C   0  0  0  0  0  0  0  0  0  0  0  0
   -0.5226   21.8700  -20.0669 C   0  0  0  0  0  0  0  0  0  0  0  0
   -0.2086   23.1028  -20.0643 O   0  0  0  0  0  0  0  0  0  0  0  0
   -1.2694   21.3675  -18.9805 N   0  0  0  0  0  0  0  0  0  0  0  0
   -1.5770   20.3818  -18.8871 H   0  0  0  0  0  0  0  0  0  0  0  0
   -1.6528   22.2467  -17.9042 C   0  0  0  0  0  0  0  0  0  0  0  0
   -3.0948   22.6250  -17.8521 C   0  0  0  0  0  0  0  0  0  0  0  0
   -4.0455   21.4641  -17.6838 C   0  0  0  0  0  0  0  0  0  0  0  0
   -3.3217   20.4747  -16.9672 O   0  0  0  0  0  0  0  0  0  0  0  0
   -3.7104   19.5676  -17.1505 H   0  0  0  0  0  0  0  0  0  0  0  0
    2.7431   16.9333  -18.9940 Cl  0  0  0  0  0  0  0  0  0  0  0  0
    1.8907   16.7414  -20.4727 C   0  0  0  0  0  0  0  0  0  0  0  0
    1.2437   17.7909  -20.9038 C   0  0  0  0  0  0  0  0  0  0  0  0
   -4.0424   22.0803  -24.2072 C   0  0  0  0  0  0  0  0  0  0  0  0
   -4.2227   23.4306  -24.5426 O   0  0  0  0  0  0  0  0  0  0  0  0
   -4.5417   23.9826  -25.7371 C   0  0  0  0  0  0  0  0  0  0  0  0
   -4.7271   25.3527  -25.8024 C   0  0  0  0  0  0  0  0  0  0  0  0
   -5.0561   26.0034  -26.9827 C   0  0  0  0  0  0  0  0  0  0  0  0
   -5.2055   25.2653  -28.1337 C   0  0  0  0  0  0  0  0  0  0  0  0
   -5.6073   26.0436  -29.6651 Cl  0  0  0  0  0  0  0  0  0  0  0  0
   -5.0256   23.8999  -28.0797 C   0  0  0  0  0  0  0  0  0  0  0  0
   -5.2577   22.9064  -29.6849 Br  0  0  0  0  0  0  0  0  0  0  0  0
   -4.7005   23.2738  -26.9038 C   0  0  0  0  0  0  0  0  0  0  0  0
 24 25  1  0  0  0
 25 26  2  0  0  0
 26 10  1  0  0  0
 10 11  1  0  0  0
 11 12  1  0  0  0
 12 13  1  0  0  0
 13 14  1  0  0  0
 13 15  1  0  0  0
 15 16  2  0  0  0
 15 17  1  0  0  0
 17 19  1  0  0  0
 19 20  1  0  0  0
 20 21  1  0  0  0
 21 22  1  0  0  0
 13  1  1  0  0  0
  1  2  1  0  0  0
  2  3  2  0  0  0
  3 27  1  0  0  0
 27 28  1  0  0  0
 28 29  1  0  0  0
 29 30  2  0  0  0
 30 31  1  0  0  0
 31 32  2  0  0  0
 32 33  1  0  0  0
 32 34  1  0  0  0
 34 35  1  0  0  0
 34 36  2  0  0  0
  3  4  1  0  0  0
  4  5  2  0  0  0
  5  6  1  0  0  0
  6  7  2  0  0  0
  7  8  1  0  0  0
  8  9  2  0  0  0
 14 10  1  0  0  0
  9  1  1  0  0  0
 36 29  1  0  0  0
  9  4  1  0  0  0
 17 18  1  0  0  0
 22 23  1  0  0  0
M  END
> <minimizedAffinity>
-7.38355

> <CNNscore>
0.1954381466

> <CNNaffinity>
6.5496225357

> <CNN_VS>
1.2800461054

> <CNNaffinity_variance>
0.1158923060

$$$$
[H]OC([H])([H])C([H])([H])C([H])([H])N([H])C(=O)C1(n2c([H])c(C([H])([H])Oc3c([H])c([H])c(Cl)c(Br)c3[H])c3c([H])c([H])c([H])c([H])c32)C([H])([H])C([H])([H])C([H])(/C([H])=C(/[H])Cl)C1([H])[H]


 36 39  0  0  0  0  0  0  0  0999 V2000
   -2.4748   22.5178  -24.5892 N   0  0  0  0  0  0  0  0  0  0  0  0
   -1.5515   22.0723  -23.7090 C   0  0  0  0  0  0  0  0  0  0  0  0
   -0.3368   21.9104  -24.2950 C   0  0  0  0  0  0  0  0  0  0  0  0
   -0.5104   22.2752  -25.6250 C   0  0  0  0  0  0  0  0  0  0  0  0
    0.3716   22.2827  -26.6785 C   0  0  0  0  0  0  0  0  0  0  0  0
   -0.0426   22.6610  -27.9283 C   0  0  0  0  0  0  0  0  0  0  0  0
   -1.3575   23.0246  -28.0661 C   0  0  0  0  0  0  0  0  0  0  0  0
   -2.2530   23.0258  -27.0322 C   0  0  0  0  0  0  0  0  0  0  0  0
   -1.8506   22.6484  -25.7784 C   0  0  0  0  0  0  0  0  0  0  0  0
   -5.3464   24.7934  -24.5227 C   0  0  0  0  0  0  0  0  0  0  0  0
   -5.8799   23.6440  -25.1551 C   0  0  0  0  0  0  0  0  0  0  0  0
   -4.7765   22.6684  -25.5043 C   0  0  0  0  0  0  0  0  0  0  0  0
   -3.8632   22.8381  -24.3461 C   0  0  0  0  0  0  0  0  0  0  0  0
   -4.0158   24.3077  -23.9299 C   0  0  0  0  0  0  0  0  0  0  0  0
   -4.3098   22.0586  -23.1560 C   0  0  0  0  0  0  0  0  0  0  0  0
   -4.6018   20.8404  -23.3776 O   0  0  0  0  0  0  0  0  0  0  0  0
   -4.4366   22.5481  -21.8389 N   0  0  0  0  0  0  0  0  0  0  0  0
   -4.2230   23.5215  -21.5526 H   0  0  0  0  0  0  0  0  0  0  0  0
   -4.8905   21.6725  -20.7874 C   0  0  0  0  0  0  0  0  0  0  0  0
   -3.8917   21.3533  -19.7264 C   0  0  0  0  0  0  0  0  0  0  0  0
   -2.5319   21.9764  -19.9328 C   0  0  0  0  0  0  0  0  0  0  0  0
   -1.7614   21.0004  -20.6185 O   0  0  0  0  0  0  0  0  0  0  0  0
   -0.7843   21.1572  -20.4506 H   0  0  0  0  0  0  0  0  0  0  0  0
   -4.7715   25.3522  -27.4592 Cl  0  0  0  0  0  0  0  0  0  0  0  0
   -4.8514   26.5405  -26.2217 C   0  0  0  0  0  0  0  0  0  0  0  0
   -5.1106   26.1018  -25.0191 C   0  0  0  0  0  0  0  0  0  0  0  0
    0.9969   21.5272  -23.7271 C   0  0  0  0  0  0  0  0  0  0  0  0
    0.8348   21.1954  -22.3735 O   0  0  0  0  0  0  0  0  0  0  0  0
    1.6326   20.4522  -21.5710 C   0  0  0  0  0  0  0  0  0  0  0  0
    2.9060   20.9178  -21.2925 C   0  0  0  0  0  0  0  0  0  0  0  0
    3.7914   20.2226  -20.4815 C   0  0  0  0  0  0  0  0  0  0  0  0
    3.3953   19.0259  -19.9313 C   0  0  0  0  0  0  0  0  0  0  0  0
    4.4751   18.1089  -18.8798 Cl  0  0  0  0  0  0  0  0  0  0  0  0
    2.1303   18.5515  -20.2039 C   0  0  0  0  0  0  0  0  0  0  0  0
    1.6204   16.8848  -19.4427 Br  0  0  0  0  0  0  0  0  0  0  0  0
    1.2686   19.2525  -21.0081 C   0  0  0  0  0  0  0  0  0  0  0  0
 24 25  1  0  0  0
 25 26  2  0  0  0
 26 10  1  0  0  0
 10 11  1  0  0  0
 11 12  1  0  0  0
 12 13  1  0  0  0
 13 14  1  0  0  0
 13 15  1  0  0  0
 15 16  2  0  0  0
 15 17  1  0  0  0
 17 19  1  0  0  0
 19 20  1  0  0  0
 20 21  1  0  0  0
 21 22  1  0  0  0
 13  1  1  0  0  0
  1  2  1  0  0  0
  2  3  2  0  0  0
  3 27  1  0  0  0
 27 28  1  0  0  0
 28 29  1  0  0  0
 29 30  2  0  0  0
 30 31  1  0  0  0
 31 32  2  0  0  0
 32 33  1  0  0  0
 32 34  1  0  0  0
 34 35  1  0  0  0
 34 36  2  0  0  0
  3  4  1  0  0  0
  4  5  2  0  0  0
  5  6  1  0  0  0
  6  7  2  0  0  0
  7  8  1  0  0  0
  8  9  2  0  0  0
 14 10  1  0  0  0
  9  1  1  0  0  0
 36 29  1  0  0  0
  9  4  1  0  0  0
 17 18  1  0  0  0
 22 23  1  0  0  0
M  END
> <minimizedAffinity>
-7.65128

> <CNNscore>
0.1800093055

> <CNNaffinity>
6.4544920921

> <CNN_VS>
1.1618686914

> <CNNaffinity_variance>
0.1800547391

$$$$
[H]OC([H])([H])C([H])([H])C([H])([H])N([H])C(=O)C1(n2c([H])c(C([H])([H])Oc3c([H])c([H])c(Cl)c(Br)c3[H])c3c([H])c([H])c([H])c([H])c32)C([H])([H])C([H])([H])C([H])(/C([H])=C(/[H])Cl)C1([H])[H]


 36 39  0  0  0  0  0  0  0  0999 V2000
   -7.2473   22.4109  -20.5334 N   0  0  0  0  0  0  0  0  0  0  0  0
   -6.5129   21.7450  -21.4515 C   0  0  0  0  0  0  0  0  0  0  0  0
   -6.5204   22.3767  -22.6540 C   0  0  0  0  0  0  0  0  0  0  0  0
   -7.3101   23.5070  -22.4790 C   0  0  0  0  0  0  0  0  0  0  0  0
   -7.6824   24.4904  -23.3634 C   0  0  0  0  0  0  0  0  0  0  0  0
   -8.5066   25.5088  -22.9630 C   0  0  0  0  0  0  0  0  0  0  0  0
   -8.9293   25.4930  -21.6586 C   0  0  0  0  0  0  0  0  0  0  0  0
   -8.5710   24.5255  -20.7605 C   0  0  0  0  0  0  0  0  0  0  0  0
   -7.7485   23.5017  -21.1497 C   0  0  0  0  0  0  0  0  0  0  0  0
   -9.3223   21.3940  -17.6892 C   0  0  0  0  0  0  0  0  0  0  0  0
   -8.1917   20.5505  -17.5617 C   0  0  0  0  0  0  0  0  0  0  0  0
   -7.3181   20.6420  -18.7945 C   0  0  0  0  0  0  0  0  0  0  0  0
   -7.4585   22.0784  -19.1426 C   0  0  0  0  0  0  0  0  0  0  0  0
   -8.8799   22.4578  -18.7043 C   0  0  0  0  0  0  0  0  0  0  0  0
   -6.5647   22.9476  -18.3247 C   0  0  0  0  0  0  0  0  0  0  0  0
   -7.1052   23.9975  -17.8516 O   0  0  0  0  0  0  0  0  0  0  0  0
   -5.2028   22.7109  -18.0425 N   0  0  0  0  0  0  0  0  0  0  0  0
   -4.6698   21.8870  -18.3773 H   0  0  0  0  0  0  0  0  0  0  0  0
   -4.4615   23.6506  -17.2388 C   0  0  0  0  0  0  0  0  0  0  0  0
   -4.3668   23.3340  -15.7842 C   0  0  0  0  0  0  0  0  0  0  0  0
   -5.4352   23.9721  -14.9292 C   0  0  0  0  0  0  0  0  0  0  0  0
   -5.6537   25.2607  -15.4843 O   0  0  0  0  0  0  0  0  0  0  0  0
   -6.0300   25.8744  -14.7848 H   0  0  0  0  0  0  0  0  0  0  0  0
  -11.0660   19.6998  -15.8575 Cl  0  0  0  0  0  0  0  0  0  0  0  0
  -11.5740   20.3975  -17.3425 C   0  0  0  0  0  0  0  0  0  0  0  0
  -10.6767   21.0935  -17.9876 C   0  0  0  0  0  0  0  0  0  0  0  0
   -5.8003   22.0815  -23.9356 C   0  0  0  0  0  0  0  0  0  0  0  0
   -4.4517   21.8221  -23.6484 O   0  0  0  0  0  0  0  0  0  0  0  0
   -3.3630   21.9662  -24.4402 C   0  0  0  0  0  0  0  0  0  0  0  0
   -3.5549   22.2632  -25.7784 C   0  0  0  0  0  0  0  0  0  0  0  0
   -2.4986   22.4278  -26.6628 C   0  0  0  0  0  0  0  0  0  0  0  0
   -1.2110   22.2915  -26.1989 C   0  0  0  0  0  0  0  0  0  0  0  0
    0.1692   22.5062  -27.2765 Cl  0  0  0  0  0  0  0  0  0  0  0  0
   -1.0083   21.9933  -24.8687 C   0  0  0  0  0  0  0  0  0  0  0  0
    0.7837   21.7933  -24.2634 Br  0  0  0  0  0  0  0  0  0  0  0  0
   -2.0648   21.8342  -24.0090 C   0  0  0  0  0  0  0  0  0  0  0  0
 24 25  1  0  0  0
 25 26  2  0  0  0
 26 10  1  0  0  0
 10 11  1  0  0  0
 11 12  1  0  0  0
 12 13  1  0  0  0
 13 14  1  0  0  0
 13 15  1  0  0  0
 15 16  2  0  0  0
 15 17  1  0  0  0
 17 19  1  0  0  0
 19 20  1  0  0  0
 20 21  1  0  0  0
 21 22  1  0  0  0
 13  1  1  0  0  0
  1  2  1  0  0  0
  2  3  2  0  0  0
  3 27  1  0  0  0
 27 28  1  0  0  0
 28 29  1  0  0  0
 29 30  2  0  0  0
 30 31  1  0  0  0
 31 32  2  0  0  0
 32 33  1  0  0  0
 32 34  1  0  0  0
 34 35  1  0  0  0
 34 36  2  0  0  0
  3  4  1  0  0  0
  4  5  2  0  0  0
  5  6  1  0  0  0
  6  7  2  0  0  0
  7  8  1  0  0  0
  8  9  2  0  0  0
 14 10  1  0  0  0
  9  1  1  0  0  0
 36 29  1  0  0  0
  9  4  1  0  0  0
 17 18  1  0  0  0
 22 23  1  0  0  0
M  END
> <minimizedAffinity>
-7.15742

> <CNNscore>
0.1602534652

> <CNNaffinity>
5.8862409592

> <CNN_VS>
0.9432905316

> <CNNaffinity_variance>
0.1427979916

$$$$
[H]OC([H])([H])C([H])([H])C([H])([H])N([H])C(=O)C1(n2c([H])c(C([H])([H])Oc3c([H])c([H])c(Cl)c(Br)c3[H])c3c([H])c([H])c([H])c([H])c32)C([H])([H])C([H])([H])C([H])(/C([H])=C(/[H])Cl)C1([H])[H]


 36 39  0  0  0  0  0  0  0  0999 V2000
   -2.9775   23.0385  -25.4297 N   0  0  0  0  0  0  0  0  0  0  0  0
   -2.2898   22.5781  -24.3616 C   0  0  0  0  0  0  0  0  0  0  0  0
   -1.0128   22.2515  -24.6899 C   0  0  0  0  0  0  0  0  0  0  0  0
   -0.8938   22.5222  -26.0480 C   0  0  0  0  0  0  0  0  0  0  0  0
    0.1644   22.3581  -26.9089 C   0  0  0  0  0  0  0  0  0  0  0  0
    0.0350   22.6721  -28.2361 C   0  0  0  0  0  0  0  0  0  0  0  0
   -1.1824   23.1498  -28.6483 C   0  0  0  0  0  0  0  0  0  0  0  0
   -2.2491   23.3223  -27.8096 C   0  0  0  0  0  0  0  0  0  0  0  0
   -2.1320   23.0105  -26.4810 C   0  0  0  0  0  0  0  0  0  0  0  0
   -5.6814   25.0926  -26.8077 C   0  0  0  0  0  0  0  0  0  0  0  0
   -6.2875   23.8168  -26.7031 C   0  0  0  0  0  0  0  0  0  0  0  0
   -5.2518   22.7605  -26.3825 C   0  0  0  0  0  0  0  0  0  0  0  0
   -4.3425   23.5113  -25.4804 C   0  0  0  0  0  0  0  0  0  0  0  0
   -4.3955   24.9623  -25.9785 C   0  0  0  0  0  0  0  0  0  0  0  0
   -4.8571   23.5712  -24.0823 C   0  0  0  0  0  0  0  0  0  0  0  0
   -4.6495   24.6663  -23.4689 O   0  0  0  0  0  0  0  0  0  0  0  0
   -5.5342   22.5394  -23.3986 N   0  0  0  0  0  0  0  0  0  0  0  0
   -5.7545   21.6122  -23.8073 H   0  0  0  0  0  0  0  0  0  0  0  0
   -5.9676   22.7422  -22.0387 C   0  0  0  0  0  0  0  0  0  0  0  0
   -5.2984   21.8977  -21.0071 C   0  0  0  0  0  0  0  0  0  0  0  0
   -4.3817   22.6510  -20.0734 C   0  0  0  0  0  0  0  0  0  0  0  0
   -3.8980   23.7583  -20.8193 O   0  0  0  0  0  0  0  0  0  0  0  0
   -3.0226   24.0696  -20.4395 H   0  0  0  0  0  0  0  0  0  0  0  0
   -5.4985   23.9104  -29.6068 Cl  0  0  0  0  0  0  0  0  0  0  0  0
   -5.2207   25.5574  -29.2067 C   0  0  0  0  0  0  0  0  0  0  0  0
   -5.3477   25.8722  -27.9455 C   0  0  0  0  0  0  0  0  0  0  0  0
    0.1406   21.7874  -23.8517 C   0  0  0  0  0  0  0  0  0  0  0  0
   -0.3573   21.2302  -22.6643 O   0  0  0  0  0  0  0  0  0  0  0  0
    0.0343   21.4444  -21.3861 C   0  0  0  0  0  0  0  0  0  0  0  0
   -0.6861   22.3416  -20.6168 C   0  0  0  0  0  0  0  0  0  0  0  0
   -0.3570   22.6233  -19.2987 C   0  0  0  0  0  0  0  0  0  0  0  0
    0.7243   21.9914  -18.7300 C   0  0  0  0  0  0  0  0  0  0  0  0
    1.1772   22.3004  -17.0532 Cl  0  0  0  0  0  0  0  0  0  0  0  0
    1.4503   21.0979  -19.4877 C   0  0  0  0  0  0  0  0  0  0  0  0
    2.9505   20.2552  -18.6772 Br  0  0  0  0  0  0  0  0  0  0  0  0
    1.1101   20.8318  -20.7892 C   0  0  0  0  0  0  0  0  0  0  0  0
 24 25  1  0  0  0
 25 26  2  0  0  0
 26 10  1  0  0  0
 10 11  1  0  0  0
 11 12  1  0  0  0
 12 13  1  0  0  0
 13 14  1  0  0  0
 13 15  1  0  0  0
 15 16  2  0  0  0
 15 17  1  0  0  0
 17 19  1  0  0  0
 19 20  1  0  0  0
 20 21  1  0  0  0
 21 22  1  0  0  0
 13  1  1  0  0  0
  1  2  1  0  0  0
  2  3  2  0  0  0
  3 27  1  0  0  0
 27 28  1  0  0  0
 28 29  1  0  0  0
 29 30  2  0  0  0
 30 31  1  0  0  0
 31 32  2  0  0  0
 32 33  1  0  0  0
 32 34  1  0  0  0
 34 35  1  0  0  0
 34 36  2  0  0  0
  3  4  1  0  0  0
  4  5  2  0  0  0
  5  6  1  0  0  0
  6  7  2  0  0  0
  7  8  1  0  0  0
  8  9  2  0  0  0
 14 10  1  0  0  0
  9  1  1  0  0  0
 36 29  1  0  0  0
  9  4  1  0  0  0
 17 18  1  0  0  0
 22 23  1  0  0  0
M  END
> <minimizedAffinity>
-8.10616

> <CNNscore>
0.1565485895

> <CNNaffinity>
6.6344480515

> <CNN_VS>
1.0386134386

> <CNNaffinity_variance>
0.2190702409

$$$$
[H]OC([H])([H])C([H])([H])C([H])([H])N([H])C(=O)C1(n2c([H])c(C([H])([H])Oc3c([H])c([H])c(Cl)c(Br)c3[H])c3c([H])c([H])c([H])c([H])c32)C([H])([H])C([H])([H])C([H])(/C([H])=C(/[H])Cl)C1([H])[H]


 36 39  0  0  0  0  0  0  0  0999 V2000
   -2.6725   22.3758  -23.1272 N   0  0  0  0  0  0  0  0  0  0  0  0
   -2.5769   22.0224  -21.8265 C   0  0  0  0  0  0  0  0  0  0  0  0
   -1.3306   21.5795  -21.5172 C   0  0  0  0  0  0  0  0  0  0  0  0
   -0.6009   21.6582  -22.6976 C   0  0  0  0  0  0  0  0  0  0  0  0
    0.7010   21.3177  -22.9751 C   0  0  0  0  0  0  0  0  0  0  0  0
    1.2004   21.4584  -24.2430 C   0  0  0  0  0  0  0  0  0  0  0  0
    0.3476   21.9481  -25.1985 C   0  0  0  0  0  0  0  0  0  0  0  0
   -0.9513   22.2944  -24.9454 C   0  0  0  0  0  0  0  0  0  0  0  0
   -1.4620   22.1570  -23.6819 C   0  0  0  0  0  0  0  0  0  0  0  0
   -4.4357   23.5079  -26.1335 C   0  0  0  0  0  0  0  0  0  0  0  0
   -5.4030   22.6902  -25.4997 C   0  0  0  0  0  0  0  0  0  0  0  0
   -4.7809   21.9209  -24.3541 C   0  0  0  0  0  0  0  0  0  0  0  0
   -3.8154   22.9178  -23.8267 C   0  0  0  0  0  0  0  0  0  0  0  0
   -3.3674   23.7262  -25.0523 C   0  0  0  0  0  0  0  0  0  0  0  0
   -4.4672   23.9162  -22.9314 C   0  0  0  0  0  0  0  0  0  0  0  0
   -3.8800   25.0416  -22.8470 O   0  0  0  0  0  0  0  0  0  0  0  0
   -5.6486   23.7204  -22.1854 N   0  0  0  0  0  0  0  0  0  0  0  0
   -6.2028   22.8441  -22.1852 H   0  0  0  0  0  0  0  0  0  0  0  0
   -6.1570   24.7819  -21.3529 C   0  0  0  0  0  0  0  0  0  0  0  0
   -7.4135   25.4349  -21.8218 C   0  0  0  0  0  0  0  0  0  0  0  0
   -7.7111   25.2481  -23.2902 C   0  0  0  0  0  0  0  0  0  0  0  0
   -7.4545   26.5056  -23.8979 O   0  0  0  0  0  0  0  0  0  0  0  0
   -7.9794   26.5866  -24.7496 H   0  0  0  0  0  0  0  0  0  0  0  0
   -5.8579   23.3682  -28.8212 Cl  0  0  0  0  0  0  0  0  0  0  0  0
   -4.1590   23.2615  -28.5925 C   0  0  0  0  0  0  0  0  0  0  0  0
   -3.7386   23.3429  -27.3586 C   0  0  0  0  0  0  0  0  0  0  0  0
   -0.7194   21.1640  -20.2125 C   0  0  0  0  0  0  0  0  0  0  0  0
    0.0153   22.2404  -19.6931 O   0  0  0  0  0  0  0  0  0  0  0  0
    1.3249   22.3014  -19.3551 C   0  0  0  0  0  0  0  0  0  0  0  0
    2.2028   21.4142  -19.9535 C   0  0  0  0  0  0  0  0  0  0  0  0
    3.5604   21.4042  -19.6675 C   0  0  0  0  0  0  0  0  0  0  0  0
    4.0584   22.3061  -18.7563 C   0  0  0  0  0  0  0  0  0  0  0  0
    5.7787   22.3477  -18.3677 Cl  0  0  0  0  0  0  0  0  0  0  0  0
    3.1928   23.1926  -18.1526 C   0  0  0  0  0  0  0  0  0  0  0  0
    3.9102   24.4143  -16.8836 Br  0  0  0  0  0  0  0  0  0  0  0  0
    1.8536   23.1879  -18.4477 C   0  0  0  0  0  0  0  0  0  0  0  0
 24 25  1  0  0  0
 25 26  2  0  0  0
 26 10  1  0  0  0
 10 11  1  0  0  0
 11 12  1  0  0  0
 12 13  1  0  0  0
 13 14  1  0  0  0
 13 15  1  0  0  0
 15 16  2  0  0  0
 15 17  1  0  0  0
 17 19  1  0  0  0
 19 20  1  0  0  0
 20 21  1  0  0  0
 21 22  1  0  0  0
 13  1  1  0  0  0
  1  2  1  0  0  0
  2  3  2  0  0  0
  3 27  1  0  0  0
 27 28  1  0  0  0
 28 29  1  0  0  0
 29 30  2  0  0  0
 30 31  1  0  0  0
 31 32  2  0  0  0
 32 33  1  0  0  0
 32 34  1  0  0  0
 34 35  1  0  0  0
 34 36  2  0  0  0
  3  4  1  0  0  0
  4  5  2  0  0  0
  5  6  1  0  0  0
  6  7  2  0  0  0
  7  8  1  0  0  0
  8  9  2  0  0  0
 14 10  1  0  0  0
  9  1  1  0  0  0
 36 29  1  0  0  0
  9  4  1  0  0  0
 17 18  1  0  0  0
 22 23  1  0  0  0
M  END
> <minimizedAffinity>
-8.13335

> <CNNscore>
0.1549214125

> <CNNaffinity>
6.4222345352

> <CNN_VS>
0.9949416518

> <CNNaffinity_variance>
0.1663192809

$$$$
[H]c1nc2c([H])c(N([H])C([H])([H])C3([H])C([H])([H])C([H])([H])C([H])([H])C([H])([H])C3([H])[H])nc(N([H])[H])c(=O)n2c1[H]


 23 25  0  0  0  0  0  0  0  0999 V2000
   -0.4865   23.3087  -29.2925 N   0  0  0  0  0  0  0  0  0  0  0  0
   -1.1700   23.1232  -28.0697 C   0  0  0  0  0  0  0  0  0  0  0  0
   -2.5027   23.3850  -28.0256 N   0  0  0  0  0  0  0  0  0  0  0  0
   -3.4047   22.9138  -27.1512 C   0  0  0  0  0  0  0  0  0  0  0  0
   -3.1405   22.2563  -25.9697 C   0  0  0  0  0  0  0  0  0  0  0  0
   -1.9405   22.0927  -25.3093 C   0  0  0  0  0  0  0  0  0  0  0  0
   -1.8313   21.6962  -24.0181 N   0  0  0  0  0  0  0  0  0  0  0  0
   -0.5160   21.6372  -23.6823 C   0  0  0  0  0  0  0  0  0  0  0  0
    0.1891   22.0123  -24.8142 C   0  0  0  0  0  0  0  0  0  0  0  0
   -0.6847   22.2858  -25.7933 N   0  0  0  0  0  0  0  0  0  0  0  0
   -0.3626   22.6819  -27.0353 C   0  0  0  0  0  0  0  0  0  0  0  0
    0.8748   22.6516  -27.3183 O   0  0  0  0  0  0  0  0  0  0  0  0
    0.1743   24.0908  -29.4139 H   0  0  0  0  0  0  0  0  0  0  0  0
   -0.6595   22.6459  -30.0671 H   0  0  0  0  0  0  0  0  0  0  0  0
   -4.7650   23.1070  -27.4658 N   0  0  0  0  0  0  0  0  0  0  0  0
   -5.4560   22.3849  -27.1457 H   0  0  0  0  0  0  0  0  0  0  0  0
   -5.1605   24.2854  -28.2139 C   0  0  0  0  0  0  0  0  0  0  0  0
   -6.0864   25.1656  -27.3991 C   0  0  0  0  0  0  0  0  0  0  0  0
   -6.7022   24.3261  -26.3317 C   0  0  0  0  0  0  0  0  0  0  0  0
   -7.0982   25.0788  -25.0994 C   0  0  0  0  0  0  0  0  0  0  0  0
   -6.0859   26.0436  -24.6031 C   0  0  0  0  0  0  0  0  0  0  0  0
   -4.8367   25.9431  -25.4469 C   0  0  0  0  0  0  0  0  0  0  0  0
   -5.2629   26.3101  -26.8694 C   0  0  0  0  0  0  0  0  0  0  0  0
  1  2  1  0  0  0
  2  3  2  0  0  0
  3  4  1  0  0  0
  4 15  1  0  0  0
 15 17  1  0  0  0
 17 18  1  0  0  0
 18 19  1  0  0  0
 19 20  1  0  0  0
 20 21  1  0  0  0
 21 22  1  0  0  0
 22 23  1  0  0  0
  4  5  2  0  0  0
  5  6  1  0  0  0
  6  7  2  0  0  0
  7  8  1  0  0  0
  8  9  2  0  0  0
  9 10  1  0  0  0
 10 11  1  0  0  0
 11 12  2  0  0  0
 11  2  1  0  0  0
 23 18  1  0  0  0
 10  6  1  0  0  0
  1 13  1  0  0  0
  1 14  1  0  0  0
 15 16  1  0  0  0
M  END
> <minimizedAffinity>
-7.42342

> <CNNscore>
0.9155647755

> <CNNaffinity>
6.7715902328

> <CNN_VS>
6.1998295784

> <CNNaffinity_variance>
0.3304784894

$$$$
[H]c1nc2c([H])c(N([H])C([H])([H])C3([H])C([H])([H])C([H])([H])C([H])([H])C([H])([H])C3([H])[H])nc(N([H])[H])c(=O)n2c1[H]


 23 25  0  0  0  0  0  0  0  0999 V2000
    0.3335   22.2614  -27.5085 N   0  0  0  0  0  0  0  0  0  0  0  0
   -0.6952   22.3603  -26.5448 C   0  0  0  0  0  0  0  0  0  0  0  0
   -1.8981   22.8620  -26.9296 N   0  0  0  0  0  0  0  0  0  0  0  0
   -3.0912   22.6773  -26.3443 C   0  0  0  0  0  0  0  0  0  0  0  0
   -3.3220   22.1396  -25.0971 C   0  0  0  0  0  0  0  0  0  0  0  0
   -2.4247   21.8478  -24.0908 C   0  0  0  0  0  0  0  0  0  0  0  0
   -2.7766   21.6066  -22.8047 N   0  0  0  0  0  0  0  0  0  0  0  0
   -1.6564   21.3544  -22.0783 C   0  0  0  0  0  0  0  0  0  0  0  0
   -0.5936   21.4480  -22.9619 C   0  0  0  0  0  0  0  0  0  0  0  0
   -1.0715   21.7473  -24.1780 N   0  0  0  0  0  0  0  0  0  0  0  0
   -0.3306   21.9166  -25.2851 C   0  0  0  0  0  0  0  0  0  0  0  0
    0.9005   21.6272  -25.1721 O   0  0  0  0  0  0  0  0  0  0  0  0
    1.1506   22.8892  -27.4739 H   0  0  0  0  0  0  0  0  0  0  0  0
    0.2545   21.5471  -28.2521 H   0  0  0  0  0  0  0  0  0  0  0  0
   -4.2314   23.0712  -27.0735 N   0  0  0  0  0  0  0  0  0  0  0  0
   -5.0483   22.4135  -27.1110 H   0  0  0  0  0  0  0  0  0  0  0  0
   -4.2375   24.3593  -27.7408 C   0  0  0  0  0  0  0  0  0  0  0  0
   -4.1818   24.1958  -29.2463 C   0  0  0  0  0  0  0  0  0  0  0  0
   -5.5166   23.7195  -29.7096 C   0  0  0  0  0  0  0  0  0  0  0  0
   -5.8611   24.1048  -31.1149 C   0  0  0  0  0  0  0  0  0  0  0  0
   -5.5651   25.5156  -31.4673 C   0  0  0  0  0  0  0  0  0  0  0  0
   -5.0626   26.2464  -30.2442 C   0  0  0  0  0  0  0  0  0  0  0  0
   -3.7795   25.5267  -29.8254 C   0  0  0  0  0  0  0  0  0  0  0  0
  1  2  1  0  0  0
  2  3  2  0  0  0
  3  4  1  0  0  0
  4 15  1  0  0  0
 15 17  1  0  0  0
 17 18  1  0  0  0
 18 19  1  0  0  0
 19 20  1  0  0  0
 20 21  1  0  0  0
 21 22  1  0  0  0
 22 23  1  0  0  0
  4  5  2  0  0  0
  5  6  1  0  0  0
  6  7  2  0  0  0
  7  8  1  0  0  0
  8  9  2  0  0  0
  9 10  1  0  0  0
 10 11  1  0  0  0
 11 12  2  0  0  0
 11  2  1  0  0  0
 23 18  1  0  0  0
 10  6  1  0  0  0
  1 13  1  0  0  0
  1 14  1  0  0  0
 15 16  1  0  0  0
M  END
> <minimizedAffinity>
-7.94626

> <CNNscore>
0.4781310856

> <CNNaffinity>
6.2673563957

> <CNN_VS>
2.9966180325

> <CNNaffinity_variance>
0.4786379933

$$$$
[H]c1nc2c([H])c(N([H])C([H])([H])C3([H])C([H])([H])C([H])([H])C([H])([H])C([H])([H])C3([H])[H])nc(N([H])[H])c(=O)n2c1[H]


 23 25  0  0  0  0  0  0  0  0999 V2000
   -4.2569   25.5791  -30.2144 N   0  0  0  0  0  0  0  0  0  0  0  0
   -4.4427   24.8162  -29.0394 C   0  0  0  0  0  0  0  0  0  0  0  0
   -3.5495   23.8315  -28.7578 N   0  0  0  0  0  0  0  0  0  0  0  0
   -3.2822   23.2808  -27.5639 C   0  0  0  0  0  0  0  0  0  0  0  0
   -4.0185   23.4229  -26.4083 C   0  0  0  0  0  0  0  0  0  0  0  0
   -5.2691   23.9774  -26.2307 C   0  0  0  0  0  0  0  0  0  0  0  0
   -6.0286   23.8011  -25.1224 N   0  0  0  0  0  0  0  0  0  0  0  0
   -7.1957   24.4804  -25.2720 C   0  0  0  0  0  0  0  0  0  0  0  0
   -7.1334   25.0863  -26.5163 C   0  0  0  0  0  0  0  0  0  0  0  0
   -5.9616   24.7743  -27.0875 N   0  0  0  0  0  0  0  0  0  0  0  0
   -5.5529   25.1847  -28.2991 C   0  0  0  0  0  0  0  0  0  0  0  0
   -6.2929   26.0469  -28.8658 O   0  0  0  0  0  0  0  0  0  0  0  0
   -4.8889   25.4670  -31.0213 H   0  0  0  0  0  0  0  0  0  0  0  0
   -3.4747   26.2543  -30.2532 H   0  0  0  0  0  0  0  0  0  0  0  0
   -2.1311   22.4722  -27.4736 N   0  0  0  0  0  0  0  0  0  0  0  0
   -2.1029   21.5846  -28.0328 H   0  0  0  0  0  0  0  0  0  0  0  0
   -1.0353   22.8896  -26.6194 C   0  0  0  0  0  0  0  0  0  0  0  0
   -0.6177   21.7752  -25.6814 C   0  0  0  0  0  0  0  0  0  0  0  0
    0.7448   22.0917  -25.1648 C   0  0  0  0  0  0  0  0  0  0  0  0
    1.0480   21.5157  -23.8164 C   0  0  0  0  0  0  0  0  0  0  0  0
   -0.0327   21.6726  -22.8116 C   0  0  0  0  0  0  0  0  0  0  0  0
   -1.1598   22.4847  -23.4054 C   0  0  0  0  0  0  0  0  0  0  0  0
   -1.6666   21.6815  -24.6045 C   0  0  0  0  0  0  0  0  0  0  0  0
  1  2  1  0  0  0
  2  3  2  0  0  0
  3  4  1  0  0  0
  4 15  1  0  0  0
 15 17  1  0  0  0
 17 18  1  0  0  0
 18 19  1  0  0  0
 19 20  1  0  0  0
 20 21  1  0  0  0
 21 22  1  0  0  0
 22 23  1  0  0  0
  4  5  2  0  0  0
  5  6  1  0  0  0
  6  7  2  0  0  0
  7  8  1  0  0  0
  8  9  2  0  0  0
  9 10  1  0  0  0
 10 11  1  0  0  0
 11 12  2  0  0  0
 11  2  1  0  0  0
 23 18  1  0  0  0
 10  6  1  0  0  0
  1 13  1  0  0  0
  1 14  1  0  0  0
 15 16  1  0  0  0
M  END
> <minimizedAffinity>
-7.08030

> <CNNscore>
0.2108730525

> <CNNaffinity>
6.1026067734

> <CNN_VS>
1.2868753672

> <CNNaffinity_variance>
0.2145863026

$$$$
[H]c1nc2c([H])c(N([H])C([H])([H])C3([H])C([H])([H])C([H])([H])C([H])([H])C([H])([H])C3([H])[H])nc(N([H])[H])c(=O)n2c1[H]


 23 25  0  0  0  0  0  0  0  0999 V2000
   -1.9417   22.3086  -26.4830 N   0  0  0  0  0  0  0  0  0  0  0  0
   -3.0037   23.2369  -26.5680 C   0  0  0  0  0  0  0  0  0  0  0  0
   -3.5128   23.7469  -25.4159 N   0  0  0  0  0  0  0  0  0  0  0  0
   -4.1960   24.8903  -25.2543 C   0  0  0  0  0  0  0  0  0  0  0  0
   -4.7359   25.6746  -26.2499 C   0  0  0  0  0  0  0  0  0  0  0  0
   -4.8823   25.4032  -27.5944 C   0  0  0  0  0  0  0  0  0  0  0  0
   -5.6886   26.1039  -28.4281 N   0  0  0  0  0  0  0  0  0  0  0  0
   -5.5990   25.5778  -29.6776 C   0  0  0  0  0  0  0  0  0  0  0  0
   -4.7059   24.5225  -29.5895 C   0  0  0  0  0  0  0  0  0  0  0  0
   -4.2784   24.4266  -28.3226 N   0  0  0  0  0  0  0  0  0  0  0  0
   -3.4035   23.5172  -27.8635 C   0  0  0  0  0  0  0  0  0  0  0  0
   -2.8480   22.7940  -28.7470 O   0  0  0  0  0  0  0  0  0  0  0  0
   -2.0936   21.3122  -26.7003 H   0  0  0  0  0  0  0  0  0  0  0  0
   -1.0060   22.6445  -26.1985 H   0  0  0  0  0  0  0  0  0  0  0  0
   -4.3854   25.3432  -23.9329 N   0  0  0  0  0  0  0  0  0  0  0  0
   -4.9621   26.2069  -23.7821 H   0  0  0  0  0  0  0  0  0  0  0  0
   -3.7829   24.6080  -22.8370 C   0  0  0  0  0  0  0  0  0  0  0  0
   -4.8390   23.9373  -21.9821 C   0  0  0  0  0  0  0  0  0  0  0  0
   -6.1778   24.3355  -22.5038 C   0  0  0  0  0  0  0  0  0  0  0  0
   -7.2654   23.3377  -22.2516 C   0  0  0  0  0  0  0  0  0  0  0  0
   -6.8993   21.9279  -22.5352 C   0  0  0  0  0  0  0  0  0  0  0  0
   -5.5049   21.8755  -23.1145 C   0  0  0  0  0  0  0  0  0  0  0  0
   -4.5838   22.4540  -22.0391 C   0  0  0  0  0  0  0  0  0  0  0  0
  1  2  1  0  0  0
  2  3  2  0  0  0
  3  4  1  0  0  0
  4 15  1  0  0  0
 15 17  1  0  0  0
 17 18  1  0  0  0
 18 19  1  0  0  0
 19 20  1  0  0  0
 20 21  1  0  0  0
 21 22  1  0  0  0
 22 23  1  0  0  0
  4  5  2  0  0  0
  5  6  1  0  0  0
  6  7  2  0  0  0
  7  8  1  0  0  0
  8  9  2  0  0  0
  9 10  1  0  0  0
 10 11  1  0  0  0
 11 12  2  0  0  0
 11  2  1  0  0  0
 23 18  1  0  0  0
 10  6  1  0  0  0
  1 13  1  0  0  0
  1 14  1  0  0  0
 15 16  1  0  0  0
M  END
> <minimizedAffinity>
-6.66242

> <CNNscore>
0.2038305998

> <CNNaffinity>
5.8836984634

> <CNN_VS>
1.1992777586

> <CNNaffinity_variance>
0.2697125375

$$$$
[H]c1nc2c([H])c(N([H])C([H])([H])C3([H])C([H])([H])C([H])([H])C([H])([H])C([H])([H])C3([H])[H])nc(N([H])[H])c(=O)n2c1[H]


 23 25  0  0  0  0  0  0  0  0999 V2000
   -6.0936   25.9658  -30.1326 N   0  0  0  0  0  0  0  0  0  0  0  0
   -5.4965   25.2000  -29.1060 C   0  0  0  0  0  0  0  0  0  0  0  0
   -6.2327   24.9108  -28.0010 N   0  0  0  0  0  0  0  0  0  0  0  0
   -6.0482   23.9074  -27.1296 C   0  0  0  0  0  0  0  0  0  0  0  0
   -4.9379   23.0982  -27.0288 C   0  0  0  0  0  0  0  0  0  0  0  0
   -3.7045   23.2263  -27.6332 C   0  0  0  0  0  0  0  0  0  0  0  0
   -2.5929   22.5575  -27.2418 N   0  0  0  0  0  0  0  0  0  0  0  0
   -1.5561   22.9124  -28.0450 C   0  0  0  0  0  0  0  0  0  0  0  0
   -2.0652   23.8281  -28.9513 C   0  0  0  0  0  0  0  0  0  0  0  0
   -3.3677   24.0102  -28.6919 N   0  0  0  0  0  0  0  0  0  0  0  0
   -4.1887   24.8293  -29.3687 C   0  0  0  0  0  0  0  0  0  0  0  0
   -3.7006   25.3530  -30.4174 O   0  0  0  0  0  0  0  0  0  0  0  0
   -5.8028   26.9407  -30.3003 H   0  0  0  0  0  0  0  0  0  0  0  0
   -6.8294   25.5324  -30.7157 H   0  0  0  0  0  0  0  0  0  0  0  0
   -7.0930   23.6476  -26.2197 N   0  0  0  0  0  0  0  0  0  0  0  0
   -7.3423   22.6474  -26.0226 H   0  0  0  0  0  0  0  0  0  0  0  0
   -7.7818   24.7599  -25.5928 C   0  0  0  0  0  0  0  0  0  0  0  0
   -7.3761   24.9060  -24.1402 C   0  0  0  0  0  0  0  0  0  0  0  0
   -6.7461   23.6266  -23.7049 C   0  0  0  0  0  0  0  0  0  0  0  0
   -5.7475   23.7699  -22.5985 C   0  0  0  0  0  0  0  0  0  0  0  0
   -4.7905   24.8923  -22.7608 C   0  0  0  0  0  0  0  0  0  0  0  0
   -5.0220   25.5639  -24.0942 C   0  0  0  0  0  0  0  0  0  0  0  0
   -6.4558   26.0949  -24.0510 C   0  0  0  0  0  0  0  0  0  0  0  0
  1  2  1  0  0  0
  2  3  2  0  0  0
  3  4  1  0  0  0
  4 15  1  0  0  0
 15 17  1  0  0  0
 17 18  1  0  0  0
 18 19  1  0  0  0
 19 20  1  0  0  0
 20 21  1  0  0  0
 21 22  1  0  0  0
 22 23  1  0  0  0
  4  5  2  0  0  0
  5  6  1  0  0  0
  6  7  2  0  0  0
  7  8  1  0  0  0
  8  9  2  0  0  0
  9 10  1  0  0  0
 10 11  1  0  0  0
 11 12  2  0  0  0
 11  2  1  0  0  0
 23 18  1  0  0  0
 10  6  1  0  0  0
  1 13  1  0  0  0
  1 14  1  0  0  0
 15 16  1  0  0  0
M  END
> <minimizedAffinity>
-6.54068

> <CNNscore>
0.1967929751

> <CNNaffinity>
5.9988059998

> <CNN_VS>
1.1805229187

> <CNNaffinity_variance>
0.1810422093

$$$$
[H]c1nc2c([H])c(N([H])C([H])([H])C3([H])C([H])([H])C([H])([H])C([H])([H])C([H])([H])C3([H])[H])nc(N([H])[H])c(=O)n2c1[H]


 23 25  0  0  0  0  0  0  0  0999 V2000
   -1.5823   21.5141  -22.6877 N   0  0  0  0  0  0  0  0  0  0  0  0
   -1.8892   21.8172  -24.0334 C   0  0  0  0  0  0  0  0  0  0  0  0
   -3.1950   21.9436  -24.3880 N   0  0  0  0  0  0  0  0  0  0  0  0
   -3.7006   22.6019  -25.4420 C   0  0  0  0  0  0  0  0  0  0  0  0
   -2.9984   23.0891  -26.5226 C   0  0  0  0  0  0  0  0  0  0  0  0
   -1.6862   22.8667  -26.8852 C   0  0  0  0  0  0  0  0  0  0  0  0
   -1.1791   23.1420  -28.1113 N   0  0  0  0  0  0  0  0  0  0  0  0
    0.1369   22.8050  -28.1327 C   0  0  0  0  0  0  0  0  0  0  0  0
    0.4295   22.3092  -26.8726 C   0  0  0  0  0  0  0  0  0  0  0  0
   -0.6829   22.3516  -26.1257 N   0  0  0  0  0  0  0  0  0  0  0  0
   -0.7775   21.9510  -24.8475 C   0  0  0  0  0  0  0  0  0  0  0  0
    0.3187   21.6438  -24.2852 O   0  0  0  0  0  0  0  0  0  0  0  0
   -1.2218   20.5844  -22.4255 H   0  0  0  0  0  0  0  0  0  0  0  0
   -1.7251   22.2414  -21.9666 H   0  0  0  0  0  0  0  0  0  0  0  0
   -5.0928   22.8222  -25.4533 N   0  0  0  0  0  0  0  0  0  0  0  0
   -5.6319   22.6369  -24.5722 H   0  0  0  0  0  0  0  0  0  0  0  0
   -5.7275   23.2925  -26.6701 C   0  0  0  0  0  0  0  0  0  0  0  0
   -6.4105   24.6272  -26.4502 C   0  0  0  0  0  0  0  0  0  0  0  0
   -6.4351   24.8983  -24.9842 C   0  0  0  0  0  0  0  0  0  0  0  0
   -6.4571   26.3506  -24.6205 C   0  0  0  0  0  0  0  0  0  0  0  0
   -5.5046   27.1998  -25.3779 C   0  0  0  0  0  0  0  0  0  0  0  0
   -4.6648   26.3308  -26.2846 C   0  0  0  0  0  0  0  0  0  0  0  0
   -5.6470   25.6554  -27.2431 C   0  0  0  0  0  0  0  0  0  0  0  0
  1  2  1  0  0  0
  2  3  2  0  0  0
  3  4  1  0  0  0
  4 15  1  0  0  0
 15 17  1  0  0  0
 17 18  1  0  0  0
 18 19  1  0  0  0
 19 20  1  0  0  0
 20 21  1  0  0  0
 21 22  1  0  0  0
 22 23  1  0  0  0
  4  5  2  0  0  0
  5  6  1  0  0  0
  6  7  2  0  0  0
  7  8  1  0  0  0
  8  9  2  0  0  0
  9 10  1  0  0  0
 10 11  1  0  0  0
 11 12  2  0  0  0
 11  2  1  0  0  0
 23 18  1  0  0  0
 10  6  1  0  0  0
  1 13  1  0  0  0
  1 14  1  0  0  0
 15 16  1  0  0  0
M  END
> <minimizedAffinity>
-6.85334

> <CNNscore>
0.1815390885

> <CNNaffinity>
5.7970657349

> <CNN_VS>
1.0523940325

> <CNNaffinity_variance>
0.3146816194

$$$$
[H]c1nc2c([H])c(N([H])C([H])([H])C3([H])C([H])([H])C([H])([H])C([H])([H])C([H])([H])C3([H])[H])nc(N([H])[H])c(=O)n2c1[H]


 23 25  0  0  0  0  0  0  0  0999 V2000
   -0.5797   21.5158  -22.4927 N   0  0  0  0  0  0  0  0  0  0  0  0
   -1.1730   21.6338  -23.7698 C   0  0  0  0  0  0  0  0  0  0  0  0
   -2.4922   21.3352  -23.9019 N   0  0  0  0  0  0  0  0  0  0  0  0
   -3.3363   21.7467  -24.8601 C   0  0  0  0  0  0  0  0  0  0  0  0
   -2.9992   22.3630  -26.0452 C   0  0  0  0  0  0  0  0  0  0  0  0
   -1.7570   22.5317  -26.6208 C   0  0  0  0  0  0  0  0  0  0  0  0
   -1.5599   22.8787  -27.9157 N   0  0  0  0  0  0  0  0  0  0  0  0
   -0.2248   22.9591  -28.1549 C   0  0  0  0  0  0  0  0  0  0  0  0
    0.4015   22.6487  -26.9589 C   0  0  0  0  0  0  0  0  0  0  0  0
   -0.5370   22.3916  -26.0369 N   0  0  0  0  0  0  0  0  0  0  0  0
   -0.3004   22.0544  -24.7588 C   0  0  0  0  0  0  0  0  0  0  0  0
    0.9110   22.1290  -24.3860 O   0  0  0  0  0  0  0  0  0  0  0  0
    0.0882   20.7570  -22.2897 H   0  0  0  0  0  0  0  0  0  0  0  0
   -0.8261   22.2044  -21.7617 H   0  0  0  0  0  0  0  0  0  0  0  0
   -4.7117   21.5303  -24.6398 N   0  0  0  0  0  0  0  0  0  0  0  0
   -5.2382   20.9410  -25.3302 H   0  0  0  0  0  0  0  0  0  0  0  0
   -5.3467   22.1234  -23.4781 C   0  0  0  0  0  0  0  0  0  0  0  0
   -5.6943   23.5771  -23.7270 C   0  0  0  0  0  0  0  0  0  0  0  0
   -6.6309   23.6369  -24.8856 C   0  0  0  0  0  0  0  0  0  0  0  0
   -7.5536   24.8161  -24.8792 C   0  0  0  0  0  0  0  0  0  0  0  0
   -8.1897   25.1057  -23.5702 C   0  0  0  0  0  0  0  0  0  0  0  0
   -7.7990   24.0404  -22.5726 C   0  0  0  0  0  0  0  0  0  0  0  0
   -6.2766   24.1220  -22.4492 C   0  0  0  0  0  0  0  0  0  0  0  0
  1  2  1  0  0  0
  2  3  2  0  0  0
  3  4  1  0  0  0
  4 15  1  0  0  0
 15 17  1  0  0  0
 17 18  1  0  0  0
 18 19  1  0  0  0
 19 20  1  0  0  0
 20 21  1  0  0  0
 21 22  1  0  0  0
 22 23  1  0  0  0
  4  5  2  0  0  0
  5  6  1  0  0  0
  6  7  2  0  0  0
  7  8  1  0  0  0
  8  9  2  0  0  0
  9 10  1  0  0  0
 10 11  1  0  0  0
 11 12  2  0  0  0
 11  2  1  0  0  0
 23 18  1  0  0  0
 10  6  1  0  0  0
  1 13  1  0  0  0
  1 14  1  0  0  0
 15 16  1  0  0  0
M  END
> <minimizedAffinity>
-6.67483

> <CNNscore>
0.1545275450

> <CNNaffinity>
5.5965414047

> <CNN_VS>
0.8648198247

> <CNNaffinity_variance>
0.4871862829

$$$$
[H]c1nc2c([H])c(N([H])C([H])([H])C3([H])C([H])([H])C([H])([H])C([H])([H])C([H])([H])C3([H])[H])nc(N([H])[H])c(=O)n2c1[H]


 23 25  0  0  0  0  0  0  0  0999 V2000
   -3.0757   21.4584  -21.7033 N   0  0  0  0  0  0  0  0  0  0  0  0
   -1.9513   21.4694  -22.5590 C   0  0  0  0  0  0  0  0  0  0  0  0
   -2.1298   21.8203  -23.8597 N   0  0  0  0  0  0  0  0  0  0  0  0
   -1.2112   22.2877  -24.7187 C   0  0  0  0  0  0  0  0  0  0  0  0
    0.1552   22.2884  -24.5430 C   0  0  0  0  0  0  0  0  0  0  0  0
    0.9130   21.6608  -23.5762 C   0  0  0  0  0  0  0  0  0  0  0  0
    2.2525   21.4745  -23.6623 N   0  0  0  0  0  0  0  0  0  0  0  0
    2.6826   20.8273  -22.5477 C   0  0  0  0  0  0  0  0  0  0  0  0
    1.5592   20.6178  -21.7647 C   0  0  0  0  0  0  0  0  0  0  0  0
    0.4933   21.1271  -22.3982 N   0  0  0  0  0  0  0  0  0  0  0  0
   -0.7681   21.1074  -21.9380 C   0  0  0  0  0  0  0  0  0  0  0  0
   -0.9119   20.6935  -20.7463 O   0  0  0  0  0  0  0  0  0  0  0  0
   -3.4723   20.5688  -21.3650 H   0  0  0  0  0  0  0  0  0  0  0  0
   -3.4968   22.3593  -21.4199 H   0  0  0  0  0  0  0  0  0  0  0  0
   -1.6840   22.8365  -25.9279 N   0  0  0  0  0  0  0  0  0  0  0  0
   -1.3014   23.7641  -26.2352 H   0  0  0  0  0  0  0  0  0  0  0  0
   -2.6735   22.1082  -26.6992 C   0  0  0  0  0  0  0  0  0  0  0  0
   -3.9349   22.9274  -26.8836 C   0  0  0  0  0  0  0  0  0  0  0  0
   -3.7197   24.2579  -26.2459 C   0  0  0  0  0  0  0  0  0  0  0  0
   -4.5205   25.3719  -26.8455 C   0  0  0  0  0  0  0  0  0  0  0  0
   -4.5325   25.4057  -28.3290 C   0  0  0  0  0  0  0  0  0  0  0  0
   -3.6241   24.3244  -28.8657 C   0  0  0  0  0  0  0  0  0  0  0  0
   -4.2064   23.0023  -28.3632 C   0  0  0  0  0  0  0  0  0  0  0  0
  1  2  1  0  0  0
  2  3  2  0  0  0
  3  4  1  0  0  0
  4 15  1  0  0  0
 15 17  1  0  0  0
 17 18  1  0  0  0
 18 19  1  0  0  0
 19 20  1  0  0  0
 20 21  1  0  0  0
 21 22  1  0  0  0
 22 23  1  0  0  0
  4  5  2  0  0  0
  5  6  1  0  0  0
  6  7  2  0  0  0
  7  8  1  0  0  0
  8  9  2  0  0  0
  9 10  1  0  0  0
 10 11  1  0  0  0
 11 12  2  0  0  0
 11  2  1  0  0  0
 23 18  1  0  0  0
 10  6  1  0  0  0
  1 13  1  0  0  0
  1 14  1  0  0  0
 15 16  1  0  0  0
M  END
> <minimizedAffinity>
-6.66098

> <CNNscore>
0.1472964585

> <CNNaffinity>
5.6386084557

> <CNN_VS>
0.8305470347

> <CNNaffinity_variance>
0.4748477042

$$$$
[H]c1nc2c([H])c(N([H])C([H])([H])C3([H])C([H])([H])C([H])([H])C([H])([H])C([H])([H])C3([H])[H])nc(N([H])[H])c(=O)n2c1[H]


 23 25  0  0  0  0  0  0  0  0999 V2000
   -2.5256   22.3443  -26.1737 N   0  0  0  0  0  0  0  0  0  0  0  0
   -3.5321   23.2885  -26.4779 C   0  0  0  0  0  0  0  0  0  0  0  0
   -4.2489   23.8243  -25.4553 N   0  0  0  0  0  0  0  0  0  0  0  0
   -4.9285   24.9811  -25.4452 C   0  0  0  0  0  0  0  0  0  0  0  0
   -5.2462   25.7588  -26.5371 C   0  0  0  0  0  0  0  0  0  0  0  0
   -5.1292   25.4695  -27.8807 C   0  0  0  0  0  0  0  0  0  0  0  0
   -5.7415   26.1705  -28.8655 N   0  0  0  0  0  0  0  0  0  0  0  0
   -5.4169   25.6241  -30.0664 C   0  0  0  0  0  0  0  0  0  0  0  0
   -4.5791   24.5557  -29.7911 C   0  0  0  0  0  0  0  0  0  0  0  0
   -4.4122   24.4721  -28.4637 N   0  0  0  0  0  0  0  0  0  0  0  0
   -3.6626   23.5556  -27.8300 C   0  0  0  0  0  0  0  0  0  0  0  0
   -2.9575   22.8100  -28.5777 O   0  0  0  0  0  0  0  0  0  0  0  0
   -2.6505   21.3474  -26.4051 H   0  0  0  0  0  0  0  0  0  0  0  0
   -1.6583   22.6692  -25.7137 H   0  0  0  0  0  0  0  0  0  0  0  0
   -5.3665   25.4570  -24.1928 N   0  0  0  0  0  0  0  0  0  0  0  0
   -4.6727   25.4962  -23.4064 H   0  0  0  0  0  0  0  0  0  0  0  0
   -6.7474   25.8725  -24.0344 C   0  0  0  0  0  0  0  0  0  0  0  0
   -7.6322   24.7000  -23.6621 C   0  0  0  0  0  0  0  0  0  0  0  0
   -6.8934   23.8567  -22.6793 C   0  0  0  0  0  0  0  0  0  0  0  0
   -7.7681   23.0791  -21.7454 C   0  0  0  0  0  0  0  0  0  0  0  0
   -8.8952   23.8460  -21.1594 C   0  0  0  0  0  0  0  0  0  0  0  0
   -8.8077   25.2882  -21.6007 C   0  0  0  0  0  0  0  0  0  0  0  0
   -8.9210   25.2658  -23.1259 C   0  0  0  0  0  0  0  0  0  0  0  0
  1  2  1  0  0  0
  2  3  2  0  0  0
  3  4  1  0  0  0
  4 15  1  0  0  0
 15 17  1  0  0  0
 17 18  1  0  0  0
 18 19  1  0  0  0
 19 20  1  0  0  0
 20 21  1  0  0  0
 21 22  1  0  0  0
 22 23  1  0  0  0
  4  5  2  0  0  0
  5  6  1  0  0  0
  6  7  2  0  0  0
  7  8  1  0  0  0
  8  9  2  0  0  0
  9 10  1  0  0  0
 10 11  1  0  0  0
 11 12  2  0  0  0
 11  2  1  0  0  0
 23 18  1  0  0  0
 10  6  1  0  0  0
  1 13  1  0  0  0
  1 14  1  0  0  0
 15 16  1  0  0  0
M  END
> <minimizedAffinity>
-6.71018

> <CNNscore>
0.1377131939

> <CNNaffinity>
5.5069627762

> <CNN_VS>
0.7583814263

> <CNNaffinity_variance>
0.3010558784

$$$$
[H]c1c([H])c([H])c2c(c1[H])c1c3c(c4c5c([H])c([H])c([H])c([H])c5n5c4c1n2[C@@]1([H])O[C@]5(C([H])([H])[H])[C@]([H])(OC([H])([H])[H])[C@]([H])(N([H])C([H])([H])[H])C1([H])[H])C([H])([H])N([H])C3=O


 37 44  0  0  0  0  0  0  0  0999 V2000
   -6.8384   24.9126  -23.0005 C   0  0  0  0  0  0  0  0  0  0  0  0
   -6.2511   24.7432  -24.3507 C   0  0  0  0  0  0  0  0  0  0  0  0
   -6.1268   23.2761  -24.6446 C   0  0  0  0  0  0  0  0  0  0  0  0
   -6.1062   22.4598  -23.5840 O   0  0  0  0  0  0  0  0  0  0  0  0
   -5.4707   22.8829  -22.4133 C   0  0  0  0  0  0  0  0  0  0  0  0
   -6.0441   21.8847  -21.3893 C   0  0  0  0  0  0  0  0  0  0  0  0
   -5.8541   24.2646  -22.0035 C   0  0  0  0  0  0  0  0  0  0  0  0
   -4.0452   22.6746  -22.5851 N   0  0  0  0  0  0  0  0  0  0  0  0
   -3.1446   22.4332  -21.6159 C   0  0  0  0  0  0  0  0  0  0  0  0
   -3.2579   22.3573  -20.2491 C   0  0  0  0  0  0  0  0  0  0  0  0
   -2.1567   22.1027  -19.4356 C   0  0  0  0  0  0  0  0  0  0  0  0
   -0.8980   21.9163  -19.9773 C   0  0  0  0  0  0  0  0  0  0  0  0
   -0.7773   21.9914  -21.3357 C   0  0  0  0  0  0  0  0  0  0  0  0
   -1.8736   22.2434  -22.1259 C   0  0  0  0  0  0  0  0  0  0  0  0
   -1.9896   22.3771  -23.4719 C   0  0  0  0  0  0  0  0  0  0  0  0
   -1.0800   22.3064  -24.5180 C   0  0  0  0  0  0  0  0  0  0  0  0
    0.3720   22.0343  -24.4540 C   0  0  0  0  0  0  0  0  0  0  0  0
    0.8023   22.0818  -25.8146 N   0  0  0  0  0  0  0  0  0  0  0  0
   -0.3110   22.3630  -26.6798 C   0  0  0  0  0  0  0  0  0  0  0  0
   -0.1618   22.4464  -27.9031 O   0  0  0  0  0  0  0  0  0  0  0  0
   -1.4745   22.4980  -25.8308 C   0  0  0  0  0  0  0  0  0  0  0  0
   -2.8033   22.7627  -26.0690 C   0  0  0  0  0  0  0  0  0  0  0  0
   -3.5300   23.0176  -27.2239 C   0  0  0  0  0  0  0  0  0  0  0  0
   -3.2135   23.0888  -28.5547 C   0  0  0  0  0  0  0  0  0  0  0  0
   -4.2484   23.3777  -29.4497 C   0  0  0  0  0  0  0  0  0  0  0  0
   -5.5400   23.5870  -29.0444 C   0  0  0  0  0  0  0  0  0  0  0  0
   -5.8417   23.5121  -27.7058 C   0  0  0  0  0  0  0  0  0  0  0  0
   -4.8257   23.2252  -26.7951 C   0  0  0  0  0  0  0  0  0  0  0  0
   -4.9272   23.1138  -25.4826 N   0  0  0  0  0  0  0  0  0  0  0  0
   -3.7088   22.8311  -25.0162 C   0  0  0  0  0  0  0  0  0  0  0  0
   -3.2913   22.6353  -23.7290 C   0  0  0  0  0  0  0  0  0  0  0  0
    1.7905   21.9314  -26.1165 H   0  0  0  0  0  0  0  0  0  0  0  0
   -9.2091   25.3583  -22.8924 C   0  0  0  0  0  0  0  0  0  0  0  0
   -8.1567   24.3884  -22.8184 N   0  0  0  0  0  0  0  0  0  0  0  0
   -8.2003   23.9383  -21.8776 H   0  0  0  0  0  0  0  0  0  0  0  0
   -6.5839   24.3318  -20.8052 O   0  0  0  0  0  0  0  0  0  0  0  0
   -6.3529   25.5817  -20.2397 C   0  0  0  0  0  0  0  0  0  0  0  0
 33 34  1  0  0  0
 34  1  1  0  0  0
  1  2  1  0  0  0
  2  3  1  0  0  0
  3  4  1  0  0  0
  4  5  1  0  0  0
  5  6  1  0  0  0
  5  7  1  0  0  0
  7 36  1  0  0  0
 36 37  1  0  0  0
  5  8  1  0  0  0
  8  9  1  0  0  0
  9 10  2  0  0  0
 10 11  1  0  0  0
 11 12  2  0  0  0
 12 13  1  0  0  0
 13 14  2  0  0  0
 14 15  1  0  0  0
 15 16  2  0  0  0
 16 17  1  0  0  0
 17 18  1  0  0  0
 18 19  1  0  0  0
 19 20  2  0  0  0
 19 21  1  0  0  0
 21 22  2  0  0  0
 22 23  1  0  0  0
 23 24  2  0  0  0
 24 25  1  0  0  0
 25 26  2  0  0  0
 26 27  1  0  0  0
 27 28  2  0  0  0
 28 29  1  0  0  0
 29 30  1  0  0  0
 30 31  2  0  0  0
  7  1  1  0  0  0
 31  8  1  0  0  0
 29  3  1  0  0  0
 14  9  1  0  0  0
 31 15  1  0  0  0
 21 16  1  0  0  0
 30 22  1  0  0  0
 28 23  1  0  0  0
 34 35  1  0  0  0
 18 32  1  0  0  0
M  END
> <minimizedAffinity>
-11.45506

> <CNNscore>
0.7550721765

> <CNNaffinity>
7.1140809059

> <CNN_VS>
5.3716444969

> <CNNaffinity_variance>
0.1063470840

$$$$
[H]c1c([H])c([H])c2c(c1[H])c1c3c(c4c5c([H])c([H])c([H])c([H])c5n5c4c1n2[C@@]1([H])O[C@]5(C([H])([H])[H])[C@]([H])(OC([H])([H])[H])[C@]([H])(N([H])C([H])([H])[H])C1([H])[H])C([H])([H])N([H])C3=O


 37 44  0  0  0  0  0  0  0  0999 V2000
   -4.7864   21.5759  -20.4054 C   0  0  0  0  0  0  0  0  0  0  0  0
   -3.4835   21.3425  -21.0723 C   0  0  0  0  0  0  0  0  0  0  0  0
   -2.8368   22.6687  -21.3500 C   0  0  0  0  0  0  0  0  0  0  0  0
   -3.6542   23.7277  -21.3956 O   0  0  0  0  0  0  0  0  0  0  0  0
   -4.9366   23.5736  -21.9291 C   0  0  0  0  0  0  0  0  0  0  0  0
   -5.6296   24.8452  -21.4032 C   0  0  0  0  0  0  0  0  0  0  0  0
   -5.6549   22.3801  -21.3963 C   0  0  0  0  0  0  0  0  0  0  0  0
   -4.8212   23.6168  -23.3748 N   0  0  0  0  0  0  0  0  0  0  0  0
   -5.7600   24.0291  -24.2451 C   0  0  0  0  0  0  0  0  0  0  0  0
   -7.0509   24.4653  -24.0719 C   0  0  0  0  0  0  0  0  0  0  0  0
   -7.8506   24.8341  -25.1507 C   0  0  0  0  0  0  0  0  0  0  0  0
   -7.3718   24.7736  -26.4467 C   0  0  0  0  0  0  0  0  0  0  0  0
   -6.0893   24.3396  -26.6269 C   0  0  0  0  0  0  0  0  0  0  0  0
   -5.3118   23.9790  -25.5520 C   0  0  0  0  0  0  0  0  0  0  0  0
   -4.0390   23.5107  -25.4907 C   0  0  0  0  0  0  0  0  0  0  0  0
   -3.0779   23.2356  -26.4536 C   0  0  0  0  0  0  0  0  0  0  0  0
   -3.1756   23.3992  -27.9199 C   0  0  0  0  0  0  0  0  0  0  0  0
   -1.9063   22.9668  -28.4106 N   0  0  0  0  0  0  0  0  0  0  0  0
   -1.0627   22.5600  -27.3199 C   0  0  0  0  0  0  0  0  0  0  0  0
    0.0853   22.1509  -27.5210 O   0  0  0  0  0  0  0  0  0  0  0  0
   -1.8317   22.7421  -26.1082 C   0  0  0  0  0  0  0  0  0  0  0  0
   -1.5730   22.5307  -24.7738 C   0  0  0  0  0  0  0  0  0  0  0  0
   -0.4711   22.0435  -24.0842 C   0  0  0  0  0  0  0  0  0  0  0  0
    0.7715   21.6051  -24.4580 C   0  0  0  0  0  0  0  0  0  0  0  0
    1.6363   21.1769  -23.4460 C   0  0  0  0  0  0  0  0  0  0  0  0
    1.2858   21.1826  -22.1218 C   0  0  0  0  0  0  0  0  0  0  0  0
    0.0354   21.6256  -21.7627 C   0  0  0  0  0  0  0  0  0  0  0  0
   -0.8437   22.0573  -22.7550 C   0  0  0  0  0  0  0  0  0  0  0  0
   -2.0741   22.5128  -22.5996 N   0  0  0  0  0  0  0  0  0  0  0  0
   -2.5404   22.8094  -23.8148 C   0  0  0  0  0  0  0  0  0  0  0  0
   -3.7625   23.2984  -24.1847 C   0  0  0  0  0  0  0  0  0  0  0  0
   -1.6485   22.9551  -29.4224 H   0  0  0  0  0  0  0  0  0  0  0  0
   -4.2262   21.4308  -18.0612 C   0  0  0  0  0  0  0  0  0  0  0  0
   -4.7337   22.2319  -19.1356 N   0  0  0  0  0  0  0  0  0  0  0  0
   -5.7016   22.5309  -18.8839 H   0  0  0  0  0  0  0  0  0  0  0  0
   -6.7749   22.6837  -20.6050 O   0  0  0  0  0  0  0  0  0  0  0  0
   -7.8348   21.9038  -21.0565 C   0  0  0  0  0  0  0  0  0  0  0  0
 33 34  1  0  0  0
 34  1  1  0  0  0
  1  2  1  0  0  0
  2  3  1  0  0  0
  3  4  1  0  0  0
  4  5  1  0  0  0
  5  6  1  0  0  0
  5  7  1  0  0  0
  7 36  1  0  0  0
 36 37  1  0  0  0
  5  8  1  0  0  0
  8  9  1  0  0  0
  9 10  2  0  0  0
 10 11  1  0  0  0
 11 12  2  0  0  0
 12 13  1  0  0  0
 13 14  2  0  0  0
 14 15  1  0  0  0
 15 16  2  0  0  0
 16 17  1  0  0  0
 17 18  1  0  0  0
 18 19  1  0  0  0
 19 20  2  0  0  0
 19 21  1  0  0  0
 21 22  2  0  0  0
 22 23  1  0  0  0
 23 24  2  0  0  0
 24 25  1  0  0  0
 25 26  2  0  0  0
 26 27  1  0  0  0
 27 28  2  0  0  0
 28 29  1  0  0  0
 29 30  1  0  0  0
 30 31  2  0  0  0
  7  1  1  0  0  0
 31  8  1  0  0  0
 29  3  1  0  0  0
 14  9  1  0  0  0
 31 15  1  0  0  0
 21 16  1  0  0  0
 30 22  1  0  0  0
 28 23  1  0  0  0
 34 35  1  0  0  0
 18 32  1  0  0  0
M  END
> <minimizedAffinity>
-10.81088

> <CNNscore>
0.5339180231

> <CNNaffinity>
6.6963968277

> <CNN_VS>
3.5753269196

> <CNNaffinity_variance>
0.1133646220

$$$$
[H]c1c([H])c([H])c2c(c1[H])c1c3c(c4c5c([H])c([H])c([H])c([H])c5n5c4c1n2[C@@]1([H])O[C@]5(C([H])([H])[H])[C@]([H])(OC([H])([H])[H])[C@]([H])(N([H])C([H])([H])[H])C1([H])[H])C([H])([H])N([H])C3=O


 37 44  0  0  0  0  0  0  0  0999 V2000
   -6.3444   19.9229  -13.8618 C   0  0  0  0  0  0  0  0  0  0  0  0
   -4.9351   20.0838  -14.2914 C   0  0  0  0  0  0  0  0  0  0  0  0
   -4.6955   21.5249  -14.6379 C   0  0  0  0  0  0  0  0  0  0  0  0
   -5.7800   22.2489  -14.9407 O   0  0  0  0  0  0  0  0  0  0  0  0
   -6.8300   21.6418  -15.6351 C   0  0  0  0  0  0  0  0  0  0  0  0
   -7.9692   22.6488  -15.3863 C   0  0  0  0  0  0  0  0  0  0  0  0
   -7.2241   20.3208  -15.0662 C   0  0  0  0  0  0  0  0  0  0  0  0
   -6.4718   21.6144  -17.0408 N   0  0  0  0  0  0  0  0  0  0  0  0
   -7.3167   21.6291  -18.0870 C   0  0  0  0  0  0  0  0  0  0  0  0
   -8.6880   21.6267  -18.1657 C   0  0  0  0  0  0  0  0  0  0  0  0
   -9.3516   21.6310  -19.3900 C   0  0  0  0  0  0  0  0  0  0  0  0
   -8.6496   21.6367  -20.5815 C   0  0  0  0  0  0  0  0  0  0  0  0
   -7.2855   21.6379  -20.5112 C   0  0  0  0  0  0  0  0  0  0  0  0
   -6.6444   21.6337  -19.2951 C   0  0  0  0  0  0  0  0  0  0  0  0
   -5.3228   21.6171  -18.9851 C   0  0  0  0  0  0  0  0  0  0  0  0
   -4.1650   21.6043  -19.7505 C   0  0  0  0  0  0  0  0  0  0  0  0
   -4.0393   21.6185  -21.2237 C   0  0  0  0  0  0  0  0  0  0  0  0
   -2.6314   21.5940  -21.4600 N   0  0  0  0  0  0  0  0  0  0  0  0
   -1.9171   21.5693  -20.2125 C   0  0  0  0  0  0  0  0  0  0  0  0
   -0.6824   21.5479  -20.1860 O   0  0  0  0  0  0  0  0  0  0  0  0
   -2.9122   21.5761  -19.1626 C   0  0  0  0  0  0  0  0  0  0  0  0
   -2.8488   21.5604  -17.7885 C   0  0  0  0  0  0  0  0  0  0  0  0
   -1.7954   21.5158  -16.8856 C   0  0  0  0  0  0  0  0  0  0  0  0
   -0.4318   21.4854  -17.0105 C   0  0  0  0  0  0  0  0  0  0  0  0
    0.3233   21.4417  -15.8343 C   0  0  0  0  0  0  0  0  0  0  0  0
   -0.2472   21.4288  -14.5890 C   0  0  0  0  0  0  0  0  0  0  0  0
   -1.6169   21.4598  -14.4803 C   0  0  0  0  0  0  0  0  0  0  0  0
   -2.3899   21.5035  -15.6397 C   0  0  0  0  0  0  0  0  0  0  0  0
   -3.7076   21.5380  -15.7293 N   0  0  0  0  0  0  0  0  0  0  0  0
   -4.0129   21.5741  -17.0284 C   0  0  0  0  0  0  0  0  0  0  0  0
   -5.2373   21.6044  -17.6361 C   0  0  0  0  0  0  0  0  0  0  0  0
   -2.2025   21.5937  -22.4121 H   0  0  0  0  0  0  0  0  0  0  0  0
   -6.4987   19.9729  -11.4526 C   0  0  0  0  0  0  0  0  0  0  0  0
   -6.7321   20.6510  -12.6934 N   0  0  0  0  0  0  0  0  0  0  0  0
   -7.7538   20.8540  -12.7611 H   0  0  0  0  0  0  0  0  0  0  0  0
   -8.5077   20.2954  -14.4963 O   0  0  0  0  0  0  0  0  0  0  0  0
   -9.1835   19.2011  -15.0265 C   0  0  0  0  0  0  0  0  0  0  0  0
 33 34  1  0  0  0
 34  1  1  0  0  0
  1  2  1  0  0  0
  2  3  1  0  0  0
  3  4  1  0  0  0
  4  5  1  0  0  0
  5  6  1  0  0  0
  5  7  1  0  0  0
  7 36  1  0  0  0
 36 37  1  0  0  0
  5  8  1  0  0  0
  8  9  1  0  0  0
  9 10  2  0  0  0
 10 11  1  0  0  0
 11 12  2  0  0  0
 12 13  1  0  0  0
 13 14  2  0  0  0
 14 15  1  0  0  0
 15 16  2  0  0  0
 16 17  1  0  0  0
 17 18  1  0  0  0
 18 19  1  0  0  0
 19 20  2  0  0  0
 19 21  1  0  0  0
 21 22  2  0  0  0
 22 23  1  0  0  0
 23 24  2  0  0  0
 24 25  1  0  0  0
 25 26  2  0  0  0
 26 27  1  0  0  0
 27 28  2  0  0  0
 28 29  1  0  0  0
 29 30  1  0  0  0
 30 31  2  0  0  0
  7  1  1  0  0  0
 31  8  1  0  0  0
 29  3  1  0  0  0
 14  9  1  0  0  0
 31 15  1  0  0  0
 21 16  1  0  0  0
 30 22  1  0  0  0
 28 23  1  0  0  0
 34 35  1  0  0  0
 18 32  1  0  0  0
M  END
> <minimizedAffinity>
-4.89883

> <CNNscore>
0.5051228404

> <CNNaffinity>
5.6727590561

> <CNN_VS>
2.8654401302

> <CNNaffinity_variance>
0.3547599912

$$$$
[H]c1c([H])c([H])c2c(c1[H])c1c3c(c4c5c([H])c([H])c([H])c([H])c5n5c4c1n2[C@@]1([H])O[C@]5(C([H])([H])[H])[C@]([H])(OC([H])([H])[H])[C@]([H])(N([H])C([H])([H])[H])C1([H])[H])C([H])([H])N([H])C3=O


 37 44  0  0  0  0  0  0  0  0999 V2000
   -7.0339   23.6336  -22.9500 C   0  0  0  0  0  0  0  0  0  0  0  0
   -5.7315   23.0258  -22.5882 C   0  0  0  0  0  0  0  0  0  0  0  0
   -4.6774   24.0949  -22.6012 C   0  0  0  0  0  0  0  0  0  0  0  0
   -4.9508   25.1866  -23.3260 O   0  0  0  0  0  0  0  0  0  0  0  0
   -5.6659   25.0486  -24.5188 C   0  0  0  0  0  0  0  0  0  0  0  0
   -6.1083   26.5033  -24.7673 C   0  0  0  0  0  0  0  0  0  0  0  0
   -6.8804   24.1944  -24.3799 C   0  0  0  0  0  0  0  0  0  0  0  0
   -4.7346   24.6169  -25.5441 N   0  0  0  0  0  0  0  0  0  0  0  0
   -4.8228   24.8574  -26.8643 C   0  0  0  0  0  0  0  0  0  0  0  0
   -5.7710   25.4980  -27.6242 C   0  0  0  0  0  0  0  0  0  0  0  0
   -5.6470   25.6129  -29.0065 C   0  0  0  0  0  0  0  0  0  0  0  0
   -4.5570   25.0813  -29.6712 C   0  0  0  0  0  0  0  0  0  0  0  0
   -3.6106   24.4417  -28.9224 C   0  0  0  0  0  0  0  0  0  0  0  0
   -3.7466   24.3363  -27.5585 C   0  0  0  0  0  0  0  0  0  0  0  0
   -2.9568   23.7421  -26.6279 C   0  0  0  0  0  0  0  0  0  0  0  0
   -1.7567   23.0484  -26.7000 C   0  0  0  0  0  0  0  0  0  0  0  0
   -0.9389   22.7523  -27.8958 C   0  0  0  0  0  0  0  0  0  0  0  0
    0.1763   22.0179  -27.3901 N   0  0  0  0  0  0  0  0  0  0  0  0
    0.0674   21.8651  -25.9647 C   0  0  0  0  0  0  0  0  0  0  0  0
    0.9311   21.2606  -25.3211 O   0  0  0  0  0  0  0  0  0  0  0  0
   -1.1578   22.5239  -25.5677 C   0  0  0  0  0  0  0  0  0  0  0  0
   -1.7920   22.7114  -24.3614 C   0  0  0  0  0  0  0  0  0  0  0  0
   -1.4987   22.3212  -23.0620 C   0  0  0  0  0  0  0  0  0  0  0  0
   -0.4727   21.6217  -22.4839 C   0  0  0  0  0  0  0  0  0  0  0  0
   -0.5268   21.4211  -21.1011 C   0  0  0  0  0  0  0  0  0  0  0  0
   -1.5522   21.8926  -20.3248 C   0  0  0  0  0  0  0  0  0  0  0  0
   -2.5743   22.5928  -20.9196 C   0  0  0  0  0  0  0  0  0  0  0  0
   -2.5412   22.8049  -22.2972 C   0  0  0  0  0  0  0  0  0  0  0  0
   -3.4273   23.4497  -23.0351 N   0  0  0  0  0  0  0  0  0  0  0  0
   -2.9935   23.4081  -24.2969 C   0  0  0  0  0  0  0  0  0  0  0  0
   -3.5613   23.9175  -25.4317 C   0  0  0  0  0  0  0  0  0  0  0  0
    0.9500   21.6521  -27.9884 H   0  0  0  0  0  0  0  0  0  0  0  0
   -8.4240   24.1751  -21.0514 C   0  0  0  0  0  0  0  0  0  0  0  0
   -7.5240   24.6434  -22.0636 N   0  0  0  0  0  0  0  0  0  0  0  0
   -8.0258   25.3600  -22.6330 H   0  0  0  0  0  0  0  0  0  0  0  0
   -8.0941   24.8825  -24.5430 O   0  0  0  0  0  0  0  0  0  0  0  0
   -8.5822   24.5829  -25.8109 C   0  0  0  0  0  0  0  0  0  0  0  0
 33 34  1  0  0  0
 34  1  1  0  0  0
  1  2  1  0  0  0
  2  3  1  0  0  0
  3  4  1  0  0  0
  4  5  1  0  0  0
  5  6  1  0  0  0
  5  7  1  0  0  0
  7 36  1  0  0  0
 36 37  1  0  0  0
  5  8  1  0  0  0
  8  9  1  0  0  0
  9 10  2  0  0  0
 10 11  1  0  0  0
 11 12  2  0  0  0
 12 13  1  0  0  0
 13 14  2  0  0  0
 14 15  1  0  0  0
 15 16  2  0  0  0
 16 17  1  0  0  0
 17 18  1  0  0  0
 18 19  1  0  0  0
 19 20  2  0  0  0
 19 21  1  0  0  0
 21 22  2  0  0  0
 22 23  1  0  0  0
 23 24  2  0  0  0
 24 25  1  0  0  0
 25 26  2  0  0  0
 26 27  1  0  0  0
 27 28  2  0  0  0
 28 29  1  0  0  0
 29 30  1  0  0  0
 30 31  2  0  0  0
  7  1  1  0  0  0
 31  8  1  0  0  0
 29  3  1  0  0  0
 14  9  1  0  0  0
 31 15  1  0  0  0
 21 16  1  0  0  0
 30 22  1  0  0  0
 28 23  1  0  0  0
 34 35  1  0  0  0
 18 32  1  0  0  0
M  END
> <minimizedAffinity>
-10.64765

> <CNNscore>
0.4918210208

> <CNNaffinity>
7.0532693863

> <CNN_VS>
3.4689462185

> <CNNaffinity_variance>
0.1666161120

$$$$
[H]c1c([H])c([H])c2c(c1[H])c1c3c(c4c5c([H])c([H])c([H])c([H])c5n5c4c1n2[C@@]1([H])O[C@]5(C([H])([H])[H])[C@]([H])(OC([H])([H])[H])[C@]([H])(N([H])C([H])([H])[H])C1([H])[H])C([H])([H])N([H])C3=O


 37 44  0  0  0  0  0  0  0  0999 V2000
   -1.7934   17.8477  -14.5839 C   0  0  0  0  0  0  0  0  0  0  0  0
   -3.1433   17.7290  -15.1840 C   0  0  0  0  0  0  0  0  0  0  0  0
   -3.0012   17.3004  -16.6159 C   0  0  0  0  0  0  0  0  0  0  0  0
   -1.8172   17.5428  -17.1914 O   0  0  0  0  0  0  0  0  0  0  0  0
   -1.1227   18.7073  -16.8524 C   0  0  0  0  0  0  0  0  0  0  0  0
    0.2874   18.3723  -17.3749 C   0  0  0  0  0  0  0  0  0  0  0  0
   -1.0472   18.9387  -15.3811 C   0  0  0  0  0  0  0  0  0  0  0  0
   -1.7003   19.8017  -17.6098 N   0  0  0  0  0  0  0  0  0  0  0  0
   -1.0737   20.9225  -18.0097 C   0  0  0  0  0  0  0  0  0  0  0  0
    0.2032   21.3874  -17.8093 C   0  0  0  0  0  0  0  0  0  0  0  0
    0.6266   22.6105  -18.3230 C   0  0  0  0  0  0  0  0  0  0  0  0
   -0.2293   23.4097  -19.0586 C   0  0  0  0  0  0  0  0  0  0  0  0
   -1.5011   22.9546  -19.2610 C   0  0  0  0  0  0  0  0  0  0  0  0
   -1.9047   21.7448  -18.7478 C   0  0  0  0  0  0  0  0  0  0  0  0
   -3.1022   21.1078  -18.8053 C   0  0  0  0  0  0  0  0  0  0  0  0
   -4.3222   21.4238  -19.3871 C   0  0  0  0  0  0  0  0  0  0  0  0
   -4.6798   22.6238  -20.1735 C   0  0  0  0  0  0  0  0  0  0  0  0
   -6.0512   22.4262  -20.5185 N   0  0  0  0  0  0  0  0  0  0  0  0
   -6.5245   21.1780  -19.9847 C   0  0  0  0  0  0  0  0  0  0  0  0
   -7.6884   20.8075  -20.1680 O   0  0  0  0  0  0  0  0  0  0  0  0
   -5.4124   20.5776  -19.2809 C   0  0  0  0  0  0  0  0  0  0  0  0
   -5.2496   19.4071  -18.5767 C   0  0  0  0  0  0  0  0  0  0  0  0
   -6.1048   18.3603  -18.2611 C   0  0  0  0  0  0  0  0  0  0  0  0
   -7.4179   18.0843  -18.5365 C   0  0  0  0  0  0  0  0  0  0  0  0
   -7.9470   16.8930  -18.0303 C   0  0  0  0  0  0  0  0  0  0  0  0
   -7.2080   16.0136  -17.2839 C   0  0  0  0  0  0  0  0  0  0  0  0
   -5.8918   16.3047  -17.0162 C   0  0  0  0  0  0  0  0  0  0  0  0
   -5.3430   17.4871  -17.5108 C   0  0  0  0  0  0  0  0  0  0  0  0
   -4.1076   17.9290  -17.3564 N   0  0  0  0  0  0  0  0  0  0  0  0
   -4.0243   19.0969  -17.9974 C   0  0  0  0  0  0  0  0  0  0  0  0
   -2.9634   19.9508  -18.1203 C   0  0  0  0  0  0  0  0  0  0  0  0
   -6.6123   23.1052  -21.0793 H   0  0  0  0  0  0  0  0  0  0  0  0
   -1.2718   15.8128  -13.3932 C   0  0  0  0  0  0  0  0  0  0  0  0
   -1.0206   16.6452  -14.5324 N   0  0  0  0  0  0  0  0  0  0  0  0
   -0.0105   16.9082  -14.5215 H   0  0  0  0  0  0  0  0  0  0  0  0
    0.2476   18.8414  -14.8452 O   0  0  0  0  0  0  0  0  0  0  0  0
    0.4610   19.9631  -14.0504 C   0  0  0  0  0  0  0  0  0  0  0  0
 33 34  1  0  0  0
 34  1  1  0  0  0
  1  2  1  0  0  0
  2  3  1  0  0  0
  3  4  1  0  0  0
  4  5  1  0  0  0
  5  6  1  0  0  0
  5  7  1  0  0  0
  7 36  1  0  0  0
 36 37  1  0  0  0
  5  8  1  0  0  0
  8  9  1  0  0  0
  9 10  2  0  0  0
 10 11  1  0  0  0
 11 12  2  0  0  0
 12 13  1  0  0  0
 13 14  2  0  0  0
 14 15  1  0  0  0
 15 16  2  0  0  0
 16 17  1  0  0  0
 17 18  1  0  0  0
 18 19  1  0  0  0
 19 20  2  0  0  0
 19 21  1  0  0  0
 21 22  2  0  0  0
 22 23  1  0  0  0
 23 24  2  0  0  0
 24 25  1  0  0  0
 25 26  2  0  0  0
 26 27  1  0  0  0
 27 28  2  0  0  0
 28 29  1  0  0  0
 29 30  1  0  0  0
 30 31  2  0  0  0
  7  1  1  0  0  0
 31  8  1  0  0  0
 29  3  1  0  0  0
 14  9  1  0  0  0
 31 15  1  0  0  0
 21 16  1  0  0  0
 30 22  1  0  0  0
 28 23  1  0  0  0
 34 35  1  0  0  0
 18 32  1  0  0  0
M  END
> <minimizedAffinity>
-4.62568

> <CNNscore>
0.4040888548

> <CNNaffinity>
5.5075373650

> <CNN_VS>
2.2255344391

> <CNNaffinity_variance>
0.2920269966

$$$$
[H]c1c([H])c([H])c2c(c1[H])c1c3c(c4c5c([H])c([H])c([H])c([H])c5n5c4c1n2[C@@]1([H])O[C@]5(C([H])([H])[H])[C@]([H])(OC([H])([H])[H])[C@]([H])(N([H])C([H])([H])[H])C1([H])[H])C([H])([H])N([H])C3=O


 37 44  0  0  0  0  0  0  0  0999 V2000
   -0.6938   17.3194  -18.3028 C   0  0  0  0  0  0  0  0  0  0  0  0
   -0.9465   18.0556  -17.0415 C   0  0  0  0  0  0  0  0  0  0  0  0
   -1.4186   19.4412  -17.3754 C   0  0  0  0  0  0  0  0  0  0  0  0
   -1.1031   19.8963  -18.5940 O   0  0  0  0  0  0  0  0  0  0  0  0
    0.1270   19.5412  -19.1543 C   0  0  0  0  0  0  0  0  0  0  0  0
   -0.1117   19.8912  -20.6356 C   0  0  0  0  0  0  0  0  0  0  0  0
    0.4222   18.0833  -19.0470 C   0  0  0  0  0  0  0  0  0  0  0  0
    1.1394   20.4089  -18.5823 N   0  0  0  0  0  0  0  0  0  0  0  0
    2.2910   20.7926  -19.1613 C   0  0  0  0  0  0  0  0  0  0  0  0
    2.8666   20.4781  -20.3682 C   0  0  0  0  0  0  0  0  0  0  0  0
    4.0990   21.0018  -20.7507 C   0  0  0  0  0  0  0  0  0  0  0  0
    4.7953   21.8637  -19.9233 C   0  0  0  0  0  0  0  0  0  0  0  0
    4.2298   22.1801  -18.7209 C   0  0  0  0  0  0  0  0  0  0  0  0
    3.0124   21.6553  -18.3570 C   0  0  0  0  0  0  0  0  0  0  0  0
    2.2775   21.8110  -17.2262 C   0  0  0  0  0  0  0  0  0  0  0  0
    2.4690   22.5360  -16.0581 C   0  0  0  0  0  0  0  0  0  0  0  0
    3.6034   23.4139  -15.6991 C   0  0  0  0  0  0  0  0  0  0  0  0
    3.2805   23.8952  -14.3942 N   0  0  0  0  0  0  0  0  0  0  0  0
    2.0199   23.3557  -13.9618 C   0  0  0  0  0  0  0  0  0  0  0  0
    1.5481   23.6456  -12.8578 O   0  0  0  0  0  0  0  0  0  0  0  0
    1.5411   22.5074  -15.0314 C   0  0  0  0  0  0  0  0  0  0  0  0
    0.4169   21.7337  -15.2043 C   0  0  0  0  0  0  0  0  0  0  0  0
   -0.6831   21.4620  -14.4025 C   0  0  0  0  0  0  0  0  0  0  0  0
   -1.0766   21.8641  -13.1536 C   0  0  0  0  0  0  0  0  0  0  0  0
   -2.2862   21.3608  -12.6648 C   0  0  0  0  0  0  0  0  0  0  0  0
   -3.0716   20.4970  -13.3813 C   0  0  0  0  0  0  0  0  0  0  0  0
   -2.6631   20.1030  -14.6330 C   0  0  0  0  0  0  0  0  0  0  0  0
   -1.4603   20.5922  -15.1408 C   0  0  0  0  0  0  0  0  0  0  0  0
   -0.9129   20.3267  -16.3134 N   0  0  0  0  0  0  0  0  0  0  0  0
    0.2316   21.0109  -16.3775 C   0  0  0  0  0  0  0  0  0  0  0  0
    1.1640   21.0596  -17.3764 C   0  0  0  0  0  0  0  0  0  0  0  0
    3.8883   24.5457  -13.8486 H   0  0  0  0  0  0  0  0  0  0  0  0
   -2.7647   16.1436  -18.7012 C   0  0  0  0  0  0  0  0  0  0  0  0
   -1.8258   17.1264  -19.1554 N   0  0  0  0  0  0  0  0  0  0  0  0
   -1.4788   16.8295  -20.0940 H   0  0  0  0  0  0  0  0  0  0  0  0
    0.4528   17.4065  -20.2774 O   0  0  0  0  0  0  0  0  0  0  0  0
    1.6323   16.6703  -20.3252 C   0  0  0  0  0  0  0  0  0  0  0  0
 33 34  1  0  0  0
 34  1  1  0  0  0
  1  2  1  0  0  0
  2  3  1  0  0  0
  3  4  1  0  0  0
  4  5  1  0  0  0
  5  6  1  0  0  0
  5  7  1  0  0  0
  7 36  1  0  0  0
 36 37  1  0  0  0
  5  8  1  0  0  0
  8  9  1  0  0  0
  9 10  2  0  0  0
 10 11  1  0  0  0
 11 12  2  0  0  0
 12 13  1  0  0  0
 13 14  2  0  0  0
 14 15  1  0  0  0
 15 16  2  0  0  0
 16 17  1  0  0  0
 17 18  1  0  0  0
 18 19  1  0  0  0
 19 20  2  0  0  0
 19 21  1  0  0  0
 21 22  2  0  0  0
 22 23  1  0  0  0
 23 24  2  0  0  0
 24 25  1  0  0  0
 25 26  2  0  0  0
 26 27  1  0  0  0
 27 28  2  0  0  0
 28 29  1  0  0  0
 29 30  1  0  0  0
 30 31  2  0  0  0
  7  1  1  0  0  0
 31  8  1  0  0  0
 29  3  1  0  0  0
 14  9  1  0  0  0
 31 15  1  0  0  0
 21 16  1  0  0  0
 30 22  1  0  0  0
 28 23  1  0  0  0
 34 35  1  0  0  0
 18 32  1  0  0  0
M  END
> <minimizedAffinity>
-5.49815

> <CNNscore>
0.3797091544

> <CNNaffinity>
5.2797369957

> <CNN_VS>
2.0047645569

> <CNNaffinity_variance>
0.3547874093

$$$$
[H]c1c([H])c([H])c2c(c1[H])c1c3c(c4c5c([H])c([H])c([H])c([H])c5n5c4c1n2[C@@]1([H])O[C@]5(C([H])([H])[H])[C@]([H])(OC([H])([H])[H])[C@]([H])(N([H])C([H])([H])[H])C1([H])[H])C([H])([H])N([H])C3=O


 37 44  0  0  0  0  0  0  0  0999 V2000
   -0.3931   14.2951  -16.6988 C   0  0  0  0  0  0  0  0  0  0  0  0
   -1.7965   14.2463  -17.1727 C   0  0  0  0  0  0  0  0  0  0  0  0
   -1.8608   14.8226  -18.5575 C   0  0  0  0  0  0  0  0  0  0  0  0
   -0.8582   15.6380  -18.9063 O   0  0  0  0  0  0  0  0  0  0  0  0
   -0.3020   16.4821  -17.9412 C   0  0  0  0  0  0  0  0  0  0  0  0
    1.0196   16.8813  -18.6250 C   0  0  0  0  0  0  0  0  0  0  0  0
    0.0114   15.7843  -16.6610 C   0  0  0  0  0  0  0  0  0  0  0  0
   -1.1744   17.6336  -17.8067 N   0  0  0  0  0  0  0  0  0  0  0  0
   -0.8160   18.8760  -17.4371 C   0  0  0  0  0  0  0  0  0  0  0  0
    0.3878   19.4124  -17.0499 C   0  0  0  0  0  0  0  0  0  0  0  0
    0.5119   20.7529  -16.6938 C   0  0  0  0  0  0  0  0  0  0  0  0
   -0.5805   21.6006  -16.7158 C   0  0  0  0  0  0  0  0  0  0  0  0
   -1.7812   21.0741  -17.0986 C   0  0  0  0  0  0  0  0  0  0  0  0
   -1.8883   19.7487  -17.4476 C   0  0  0  0  0  0  0  0  0  0  0  0
   -2.9615   19.0142  -17.8371 C   0  0  0  0  0  0  0  0  0  0  0  0
   -4.3030   19.3150  -18.0282 C   0  0  0  0  0  0  0  0  0  0  0  0
   -4.9839   20.6167  -17.8599 C   0  0  0  0  0  0  0  0  0  0  0  0
   -6.3480   20.3483  -18.1854 N   0  0  0  0  0  0  0  0  0  0  0  0
   -6.5129   18.9646  -18.5393 C   0  0  0  0  0  0  0  0  0  0  0  0
   -7.6185   18.5164  -18.8592 O   0  0  0  0  0  0  0  0  0  0  0  0
   -5.2089   18.3482  -18.4287 C   0  0  0  0  0  0  0  0  0  0  0  0
   -4.7369   17.0722  -18.6324 C   0  0  0  0  0  0  0  0  0  0  0  0
   -5.3444   15.8823  -19.0092 C   0  0  0  0  0  0  0  0  0  0  0  0
   -6.6267   15.5261  -19.3334 C   0  0  0  0  0  0  0  0  0  0  0  0
   -6.8596   14.1890  -19.6700 C   0  0  0  0  0  0  0  0  0  0  0  0
   -5.8662   13.2460  -19.6848 C   0  0  0  0  0  0  0  0  0  0  0  0
   -4.5847   13.6191  -19.3572 C   0  0  0  0  0  0  0  0  0  0  0  0
   -4.3290   14.9471  -19.0183 C   0  0  0  0  0  0  0  0  0  0  0  0
   -3.1705   15.4839  -18.6790 N   0  0  0  0  0  0  0  0  0  0  0  0
   -3.3916   16.7785  -18.4399 C   0  0  0  0  0  0  0  0  0  0  0  0
   -2.5185   17.7543  -18.0460 C   0  0  0  0  0  0  0  0  0  0  0  0
   -7.1030   21.0693  -18.1624 H   0  0  0  0  0  0  0  0  0  0  0  0
    0.4416   12.1145  -17.3139 C   0  0  0  0  0  0  0  0  0  0  0  0
    0.5529   13.5361  -17.4568 N   0  0  0  0  0  0  0  0  0  0  0  0
    1.5117   13.8153  -17.1531 H   0  0  0  0  0  0  0  0  0  0  0  0
    1.3829   15.6951  -16.3708 O   0  0  0  0  0  0  0  0  0  0  0  0
    1.5657   16.1230  -15.0597 C   0  0  0  0  0  0  0  0  0  0  0  0
 33 34  1  0  0  0
 34  1  1  0  0  0
  1  2  1  0  0  0
  2  3  1  0  0  0
  3  4  1  0  0  0
  4  5  1  0  0  0
  5  6  1  0  0  0
  5  7  1  0  0  0
  7 36  1  0  0  0
 36 37  1  0  0  0
  5  8  1  0  0  0
  8  9  1  0  0  0
  9 10  2  0  0  0
 10 11  1  0  0  0
 11 12  2  0  0  0
 12 13  1  0  0  0
 13 14  2  0  0  0
 14 15  1  0  0  0
 15 16  2  0  0  0
 16 17  1  0  0  0
 17 18  1  0  0  0
 18 19  1  0  0  0
 19 20  2  0  0  0
 19 21  1  0  0  0
 21 22  2  0  0  0
 22 23  1  0  0  0
 23 24  2  0  0  0
 24 25  1  0  0  0
 25 26  2  0  0  0
 26 27  1  0  0  0
 27 28  2  0  0  0
 28 29  1  0  0  0
 29 30  1  0  0  0
 30 31  2  0  0  0
  7  1  1  0  0  0
 31  8  1  0  0  0
 29  3  1  0  0  0
 14  9  1  0  0  0
 31 15  1  0  0  0
 21 16  1  0  0  0
 30 22  1  0  0  0
 28 23  1  0  0  0
 34 35  1  0  0  0
 18 32  1  0  0  0
M  END
> <minimizedAffinity>
-4.53013

> <CNNscore>
0.3698658645

> <CNNaffinity>
5.2478446960

> <CNN_VS>
1.9409986734

> <CNNaffinity_variance>
0.3706532121

$$$$
[H]c1c([H])c([H])c2c(c1[H])c1c3c(c4c5c([H])c([H])c([H])c([H])c5n5c4c1n2[C@@]1([H])O[C@]5(C([H])([H])[H])[C@]([H])(OC([H])([H])[H])[C@]([H])(N([H])C([H])([H])[H])C1([H])[H])C([H])([H])N([H])C3=O


 37 44  0  0  0  0  0  0  0  0999 V2000
   -1.8178   19.4966  -18.2008 C   0  0  0  0  0  0  0  0  0  0  0  0
   -0.7828   19.6670  -19.2479 C   0  0  0  0  0  0  0  0  0  0  0  0
   -0.5961   21.1333  -19.5108 C   0  0  0  0  0  0  0  0  0  0  0  0
   -1.6126   21.9312  -19.1616 O   0  0  0  0  0  0  0  0  0  0  0  0
   -2.9225   21.4672  -19.3103 C   0  0  0  0  0  0  0  0  0  0  0  0
   -3.6919   22.4683  -18.4273 C   0  0  0  0  0  0  0  0  0  0  0  0
   -3.1243   20.0934  -18.7663 C   0  0  0  0  0  0  0  0  0  0  0  0
   -3.2921   21.6281  -20.7041 N   0  0  0  0  0  0  0  0  0  0  0  0
   -4.5305   21.8221  -21.1911 C   0  0  0  0  0  0  0  0  0  0  0  0
   -5.7619   21.8798  -20.5850 C   0  0  0  0  0  0  0  0  0  0  0  0
   -6.9296   22.0824  -21.3161 C   0  0  0  0  0  0  0  0  0  0  0  0
   -6.8933   22.2333  -22.6903 C   0  0  0  0  0  0  0  0  0  0  0  0
   -5.6725   22.1759  -23.3003 C   0  0  0  0  0  0  0  0  0  0  0  0
   -4.5283   21.9753  -22.5651 C   0  0  0  0  0  0  0  0  0  0  0  0
   -3.2306   21.8676  -22.9489 C   0  0  0  0  0  0  0  0  0  0  0  0
   -2.5939   21.9231  -24.1811 C   0  0  0  0  0  0  0  0  0  0  0  0
   -3.1941   22.1430  -25.5144 C   0  0  0  0  0  0  0  0  0  0  0  0
   -2.0857   22.1024  -26.4136 N   0  0  0  0  0  0  0  0  0  0  0  0
   -0.8647   21.8745  -25.6896 C   0  0  0  0  0  0  0  0  0  0  0  0
    0.2201   21.8057  -26.2761 O   0  0  0  0  0  0  0  0  0  0  0  0
   -1.2231   21.7667  -24.2922 C   0  0  0  0  0  0  0  0  0  0  0  0
   -0.5064   21.5526  -23.1377 C   0  0  0  0  0  0  0  0  0  0  0  0
    0.8413   21.3421  -22.8802 C   0  0  0  0  0  0  0  0  0  0  0  0
    1.9643   21.2814  -23.6620 C   0  0  0  0  0  0  0  0  0  0  0  0
    3.1845   21.0434  -23.0217 C   0  0  0  0  0  0  0  0  0  0  0  0
    3.2878   20.8731  -21.6664 C   0  0  0  0  0  0  0  0  0  0  0  0
    2.1518   20.9369  -20.8955 C   0  0  0  0  0  0  0  0  0  0  0  0
    0.9241   21.1732  -21.5126 C   0  0  0  0  0  0  0  0  0  0  0  0
   -0.2620   21.2670  -20.9384 N   0  0  0  0  0  0  0  0  0  0  0  0
   -1.1509   21.4991  -21.9069 C   0  0  0  0  0  0  0  0  0  0  0  0
   -2.5065   21.6593  -21.8267 C   0  0  0  0  0  0  0  0  0  0  0  0
   -2.1721   22.2229  -27.4472 H   0  0  0  0  0  0  0  0  0  0  0  0
   -0.4887   19.3891  -16.1877 C   0  0  0  0  0  0  0  0  0  0  0  0
   -1.5178   20.0637  -16.9225 N   0  0  0  0  0  0  0  0  0  0  0  0
   -2.3882   20.0456  -16.3466 H   0  0  0  0  0  0  0  0  0  0  0  0
   -3.9685   20.0325  -17.6454 O   0  0  0  0  0  0  0  0  0  0  0  0
   -4.9194   19.0459  -17.8860 C   0  0  0  0  0  0  0  0  0  0  0  0
 33 34  1  0  0  0
 34  1  1  0  0  0
  1  2  1  0  0  0
  2  3  1  0  0  0
  3  4  1  0  0  0
  4  5  1  0  0  0
  5  6  1  0  0  0
  5  7  1  0  0  0
  7 36  1  0  0  0
 36 37  1  0  0  0
  5  8  1  0  0  0
  8  9  1  0  0  0
  9 10  2  0  0  0
 10 11  1  0  0  0
 11 12  2  0  0  0
 12 13  1  0  0  0
 13 14  2  0  0  0
 14 15  1  0  0  0
 15 16  2  0  0  0
 16 17  1  0  0  0
 17 18  1  0  0  0
 18 19  1  0  0  0
 19 20  2  0  0  0
 19 21  1  0  0  0
 21 22  2  0  0  0
 22 23  1  0  0  0
 23 24  2  0  0  0
 24 25  1  0  0  0
 25 26  2  0  0  0
 26 27  1  0  0  0
 27 28  2  0  0  0
 28 29  1  0  0  0
 29 30  1  0  0  0
 30 31  2  0  0  0
  7  1  1  0  0  0
 31  8  1  0  0  0
 29  3  1  0  0  0
 14  9  1  0  0  0
 31 15  1  0  0  0
 21 16  1  0  0  0
 30 22  1  0  0  0
 28 23  1  0  0  0
 34 35  1  0  0  0
 18 32  1  0  0  0
M  END
> <minimizedAffinity>
-8.11782

> <CNNscore>
0.3517847657

> <CNNaffinity>
6.0900607109

> <CNN_VS>
2.1423904896

> <CNNaffinity_variance>
0.1088164598

$$$$
[H]c1c([H])c([H])c2c(c1[H])c1c3c(c4c5c([H])c([H])c([H])c([H])c5n5c4c1n2[C@@]1([H])O[C@]5(C([H])([H])[H])[C@]([H])(OC([H])([H])[H])[C@]([H])(N([H])C([H])([H])[H])C1([H])[H])C([H])([H])N([H])C3=O


 37 44  0  0  0  0  0  0  0  0999 V2000
   -4.7362   21.8327  -21.1446 C   0  0  0  0  0  0  0  0  0  0  0  0
   -3.5857   21.4906  -20.2751 C   0  0  0  0  0  0  0  0  0  0  0  0
   -2.6532   22.6660  -20.2205 C   0  0  0  0  0  0  0  0  0  0  0  0
   -2.7448   23.5415  -21.2289 O   0  0  0  0  0  0  0  0  0  0  0  0
   -3.0252   23.0701  -22.5144 C   0  0  0  0  0  0  0  0  0  0  0  0
   -3.4534   24.3717  -23.2188 C   0  0  0  0  0  0  0  0  0  0  0  0
   -4.1635   22.1073  -22.5516 C   0  0  0  0  0  0  0  0  0  0  0  0
   -1.7871   22.5679  -23.0800 N   0  0  0  0  0  0  0  0  0  0  0  0
   -1.4582   22.5217  -24.3832 C   0  0  0  0  0  0  0  0  0  0  0  0
   -2.1474   22.8623  -25.5215 C   0  0  0  0  0  0  0  0  0  0  0  0
   -1.5901   22.7100  -26.7886 C   0  0  0  0  0  0  0  0  0  0  0  0
   -0.3126   22.2053  -26.9497 C   0  0  0  0  0  0  0  0  0  0  0  0
    0.3785   21.8632  -25.8223 C   0  0  0  0  0  0  0  0  0  0  0  0
   -0.1849   22.0194  -24.5781 C   0  0  0  0  0  0  0  0  0  0  0  0
    0.2967   21.7373  -23.3406 C   0  0  0  0  0  0  0  0  0  0  0  0
    1.4964   21.2102  -22.8827 C   0  0  0  0  0  0  0  0  0  0  0  0
    2.6740   20.7899  -23.6720 C   0  0  0  0  0  0  0  0  0  0  0  0
    3.6091   20.3291  -22.6962 N   0  0  0  0  0  0  0  0  0  0  0  0
    3.0544   20.4554  -21.3758 C   0  0  0  0  0  0  0  0  0  0  0  0
    3.6993   20.1150  -20.3789 O   0  0  0  0  0  0  0  0  0  0  0  0
    1.7280   21.0111  -21.5327 C   0  0  0  0  0  0  0  0  0  0  0  0
    0.7271   21.3528  -20.6530 C   0  0  0  0  0  0  0  0  0  0  0  0
    0.6078   21.2771  -19.2721 C   0  0  0  0  0  0  0  0  0  0  0  0
    1.4331   20.8529  -18.2646 C   0  0  0  0  0  0  0  0  0  0  0  0
    0.9469   20.9315  -16.9558 C   0  0  0  0  0  0  0  0  0  0  0  0
   -0.3019   21.4092  -16.6580 C   0  0  0  0  0  0  0  0  0  0  0  0
   -1.1181   21.8311  -17.6800 C   0  0  0  0  0  0  0  0  0  0  0  0
   -0.6542   21.7619  -18.9930 C   0  0  0  0  0  0  0  0  0  0  0  0
   -1.2922   22.1194  -20.0933 N   0  0  0  0  0  0  0  0  0  0  0  0
   -0.4716   21.8811  -21.1190 C   0  0  0  0  0  0  0  0  0  0  0  0
   -0.6721   22.0692  -22.4584 C   0  0  0  0  0  0  0  0  0  0  0  0
    4.5560   19.9564  -22.9302 H   0  0  0  0  0  0  0  0  0  0  0  0
   -6.3395   22.6668  -19.5434 C   0  0  0  0  0  0  0  0  0  0  0  0
   -5.5489   22.9265  -20.7101 N   0  0  0  0  0  0  0  0  0  0  0  0
   -6.1976   23.1784  -21.4881 H   0  0  0  0  0  0  0  0  0  0  0  0
   -5.2995   22.5794  -23.2295 O   0  0  0  0  0  0  0  0  0  0  0  0
   -5.7609   21.5522  -24.0465 C   0  0  0  0  0  0  0  0  0  0  0  0
 33 34  1  0  0  0
 34  1  1  0  0  0
  1  2  1  0  0  0
  2  3  1  0  0  0
  3  4  1  0  0  0
  4  5  1  0  0  0
  5  6  1  0  0  0
  5  7  1  0  0  0
  7 36  1  0  0  0
 36 37  1  0  0  0
  5  8  1  0  0  0
  8  9  1  0  0  0
  9 10  2  0  0  0
 10 11  1  0  0  0
 11 12  2  0  0  0
 12 13  1  0  0  0
 13 14  2  0  0  0
 14 15  1  0  0  0
 15 16  2  0  0  0
 16 17  1  0  0  0
 17 18  1  0  0  0
 18 19  1  0  0  0
 19 20  2  0  0  0
 19 21  1  0  0  0
 21 22  2  0  0  0
 22 23  1  0  0  0
 23 24  2  0  0  0
 24 25  1  0  0  0
 25 26  2  0  0  0
 26 27  1  0  0  0
 27 28  2  0  0  0
 28 29  1  0  0  0
 29 30  1  0  0  0
 30 31  2  0  0  0
  7  1  1  0  0  0
 31  8  1  0  0  0
 29  3  1  0  0  0
 14  9  1  0  0  0
 31 15  1  0  0  0
 21 16  1  0  0  0
 30 22  1  0  0  0
 28 23  1  0  0  0
 34 35  1  0  0  0
 18 32  1  0  0  0
M  END
> <minimizedAffinity>
-9.62446

> <CNNscore>
0.3314516842

> <CNNaffinity>
6.0465598106

> <CNN_VS>
2.0041425228

> <CNNaffinity_variance>
0.5382738113

$$$$
[H]OC(=O)C([H])([H])[C@@]([H])(C(=O)c1c([H])c([H])c([H])c([H])c1[H])N([H])C(=O)[C@@]([H])(N([H])C(=O)[C@@]([H])(N([H])C(=O)[C@@]([H])(N([H])C(=O)C([H])([H])[H])C([H])([H])C(=O)O[H])C([H])(C([H])([H])[H])C([H])([H])[H])C([H])([H])C(=O)O[H]


 47 47  0  0  0  0  0  0  0  0999 V2000
   -2.3033   21.8634  -22.2425 C   0  0  0  0  0  0  0  0  0  0  0  0
   -4.3115   22.7125  -23.4743 C   0  0  0  0  0  0  0  0  0  0  0  0
   -4.8098   21.5736  -23.1409 O   0  0  0  0  0  0  0  0  0  0  0  0
   -2.9869   22.8884  -23.0273 N   0  0  0  0  0  0  0  0  0  0  0  0
   -2.4572   23.7347  -23.2641 H   0  0  0  0  0  0  0  0  0  0  0  0
   -5.1260   23.6883  -24.2641 C   0  0  0  0  0  0  0  0  0  0  0  0
   -5.9773   24.4317  -23.3939 N   0  0  0  0  0  0  0  0  0  0  0  0
   -5.8586   24.9642  -22.1238 C   0  0  0  0  0  0  0  0  0  0  0  0
   -4.8134   24.8927  -21.4238 O   0  0  0  0  0  0  0  0  0  0  0  0
   -6.9678   24.6340  -23.8395 H   0  0  0  0  0  0  0  0  0  0  0  0
   -6.9863   25.6809  -21.4426 C   0  0  0  0  0  0  0  0  0  0  0  0
   -8.2788   25.1454  -21.8263 N   0  0  0  0  0  0  0  0  0  0  0  0
   -9.4343   25.9487  -21.9423 C   0  0  0  0  0  0  0  0  0  0  0  0
  -10.7269   25.3634  -22.3372 C   0  0  0  0  0  0  0  0  0  0  0  0
   -9.3491   27.1721  -21.7052 O   0  0  0  0  0  0  0  0  0  0  0  0
   -8.3399   24.1283  -22.0197 H   0  0  0  0  0  0  0  0  0  0  0  0
   -6.9179   25.6477  -19.9523 C   0  0  0  0  0  0  0  0  0  0  0  0
   -7.2421   24.3537  -19.3278 C   0  0  0  0  0  0  0  0  0  0  0  0
   -6.2058   23.4627  -18.9880 O   0  0  0  0  0  0  0  0  0  0  0  0
   -8.4124   24.0054  -19.0814 O   0  0  0  0  0  0  0  0  0  0  0  0
   -6.3420   22.6647  -18.3854 H   0  0  0  0  0  0  0  0  0  0  0  0
   -5.2059   25.6789  -25.7349 C   0  0  0  0  0  0  0  0  0  0  0  0
   -4.3792   24.5097  -25.2425 C   0  0  0  0  0  0  0  0  0  0  0  0
   -3.8218   23.7547  -26.4362 C   0  0  0  0  0  0  0  0  0  0  0  0
   -1.7240   22.4442  -21.0345 C   0  0  0  0  0  0  0  0  0  0  0  0
   -1.5146   23.6839  -20.9824 O   0  0  0  0  0  0  0  0  0  0  0  0
   -1.3734   21.6776  -19.8819 N   0  0  0  0  0  0  0  0  0  0  0  0
   -1.5100   20.6519  -19.8318 H   0  0  0  0  0  0  0  0  0  0  0  0
   -0.7880   22.3320  -18.7020 C   0  0  0  0  0  0  0  0  0  0  0  0
    0.5968   21.9284  -18.5030 C   0  0  0  0  0  0  0  0  0  0  0  0
    1.0140   20.8608  -19.0974 O   0  0  0  0  0  0  0  0  0  0  0  0
    1.6071   22.5935  -17.6950 C   0  0  0  0  0  0  0  0  0  0  0  0
    2.3641   23.5987  -18.2430 C   0  0  0  0  0  0  0  0  0  0  0  0
    3.3157   24.2556  -17.4557 C   0  0  0  0  0  0  0  0  0  0  0  0
    3.4878   23.8968  -16.1547 C   0  0  0  0  0  0  0  0  0  0  0  0
    2.7382   22.8925  -15.5941 C   0  0  0  0  0  0  0  0  0  0  0  0
    1.8128   22.2606  -16.3747 C   0  0  0  0  0  0  0  0  0  0  0  0
   -1.6668   22.0281  -17.4965 C   0  0  0  0  0  0  0  0  0  0  0  0
   -3.0612   22.4482  -17.6548 C   0  0  0  0  0  0  0  0  0  0  0  0
   -3.5668   23.7145  -17.4715 O   0  0  0  0  0  0  0  0  0  0  0  0
   -3.8879   21.5358  -18.0013 O   0  0  0  0  0  0  0  0  0  0  0  0
   -3.9182   24.2119  -18.2861 H   0  0  0  0  0  0  0  0  0  0  0  0
   -1.2923   21.1159  -23.0860 C   0  0  0  0  0  0  0  0  0  0  0  0
   -0.1240   21.9031  -23.4582 C   0  0  0  0  0  0  0  0  0  0  0  0
   -0.0910   23.0202  -24.2391 O   0  0  0  0  0  0  0  0  0  0  0  0
    0.9939   21.4962  -22.9992 O   0  0  0  0  0  0  0  0  0  0  0  0
    0.2810   23.1359  -25.1517 H   0  0  0  0  0  0  0  0  0  0  0  0
 22 23  1  0  0  0
 23 24  1  0  0  0
 23  6  1  0  0  0
  6  7  1  0  0  0
  7  8  1  0  0  0
  8  9  2  0  0  0
  8 11  1  0  0  0
 11 17  1  0  0  0
 17 18  1  0  0  0
 18 19  1  0  0  0
 18 20  2  0  0  0
 11 12  1  0  0  0
 12 13  1  0  0  0
 13 14  1  0  0  0
 13 15  2  0  0  0
  6  2  1  0  0  0
  2  3  2  0  0  0
  2  4  1  0  0  0
  4  1  1  0  0  0
  1 43  1  0  0  0
 43 44  1  0  0  0
 44 45  1  0  0  0
 44 46  2  0  0  0
  1 25  1  0  0  0
 25 26  2  0  0  0
 25 27  1  0  0  0
 27 29  1  0  0  0
 29 38  1  0  0  0
 38 39  1  0  0  0
 39 40  1  0  0  0
 39 41  2  0  0  0
 29 30  1  0  0  0
 30 31  2  0  0  0
 30 32  1  0  0  0
 32 33  2  0  0  0
 33 34  1  0  0  0
 34 35  2  0  0  0
 35 36  1  0  0  0
 36 37  2  0  0  0
 37 32  1  0  0  0
  7 10  1  0  0  0
 19 21  1  0  0  0
 12 16  1  0  0  0
  4  5  1  0  0  0
 45 47  1  0  0  0
 27 28  1  0  0  0
 40 42  1  0  0  0
M  END
> <minimizedAffinity>
-6.67194

> <CNNscore>
0.1626000702

> <CNNaffinity>
5.7011485100

> <CNN_VS>
0.9270071387

> <CNNaffinity_variance>
0.0732735544

$$$$
[H]OC(=O)C([H])([H])[C@@]([H])(C(=O)c1c([H])c([H])c([H])c([H])c1[H])N([H])C(=O)[C@@]([H])(N([H])C(=O)[C@@]([H])(N([H])C(=O)[C@@]([H])(N([H])C(=O)C([H])([H])[H])C([H])([H])C(=O)O[H])C([H])(C([H])([H])[H])C([H])([H])[H])C([H])([H])C(=O)O[H]


 47 47  0  0  0  0  0  0  0  0999 V2000
   -7.1738   23.8772  -23.1827 C   0  0  0  0  0  0  0  0  0  0  0  0
   -6.6101   21.9669  -21.6645 C   0  0  0  0  0  0  0  0  0  0  0  0
   -7.6046   21.4018  -22.2548 O   0  0  0  0  0  0  0  0  0  0  0  0
   -6.3678   23.2774  -22.1223 N   0  0  0  0  0  0  0  0  0  0  0  0
   -5.6313   23.8559  -21.7029 H   0  0  0  0  0  0  0  0  0  0  0  0
   -5.8486   21.2345  -20.6049 C   0  0  0  0  0  0  0  0  0  0  0  0
   -4.4470   21.4190  -20.7943 N   0  0  0  0  0  0  0  0  0  0  0  0
   -3.5861   22.5000  -20.7621 C   0  0  0  0  0  0  0  0  0  0  0  0
   -3.9435   23.6787  -20.4970 O   0  0  0  0  0  0  0  0  0  0  0  0
   -3.9205   20.4738  -21.0178 H   0  0  0  0  0  0  0  0  0  0  0  0
   -2.1209   22.3715  -21.0554 C   0  0  0  0  0  0  0  0  0  0  0  0
   -1.3779   21.8943  -19.9043 N   0  0  0  0  0  0  0  0  0  0  0  0
   -0.6632   22.7575  -19.0452 C   0  0  0  0  0  0  0  0  0  0  0  0
    0.0762   22.2301  -17.8858 C   0  0  0  0  0  0  0  0  0  0  0  0
   -0.6645   23.9843  -19.2797 O   0  0  0  0  0  0  0  0  0  0  0  0
   -1.3816   20.8738  -19.7186 H   0  0  0  0  0  0  0  0  0  0  0  0
   -1.8047   21.4614  -22.1948 C   0  0  0  0  0  0  0  0  0  0  0  0
   -0.5231   20.7418  -22.0995 C   0  0  0  0  0  0  0  0  0  0  0  0
   -0.4654   19.5024  -21.4333 O   0  0  0  0  0  0  0  0  0  0  0  0
    0.5313   21.1872  -22.5909 O   0  0  0  0  0  0  0  0  0  0  0  0
    0.3213   18.8746  -21.5065 H   0  0  0  0  0  0  0  0  0  0  0  0
   -7.1536   20.2802  -18.7292 C   0  0  0  0  0  0  0  0  0  0  0  0
   -6.3135   21.4423  -19.2155 C   0  0  0  0  0  0  0  0  0  0  0  0
   -7.0636   22.7389  -18.9666 C   0  0  0  0  0  0  0  0  0  0  0  0
   -6.5301   23.6955  -24.4807 C   0  0  0  0  0  0  0  0  0  0  0  0
   -7.2346   23.6687  -25.5230 O   0  0  0  0  0  0  0  0  0  0  0  0
   -5.1198   23.5443  -24.6463 N   0  0  0  0  0  0  0  0  0  0  0  0
   -4.4604   23.5544  -23.8474 H   0  0  0  0  0  0  0  0  0  0  0  0
   -4.5428   23.3594  -25.9864 C   0  0  0  0  0  0  0  0  0  0  0  0
   -3.4385   22.4106  -25.9631 C   0  0  0  0  0  0  0  0  0  0  0  0
   -3.6238   21.2709  -25.3853 O   0  0  0  0  0  0  0  0  0  0  0  0
   -2.1083   22.5839  -26.5255 C   0  0  0  0  0  0  0  0  0  0  0  0
   -1.0049   22.4345  -25.7229 C   0  0  0  0  0  0  0  0  0  0  0  0
    0.2740   22.5741  -26.2723 C   0  0  0  0  0  0  0  0  0  0  0  0
    0.4194   22.8574  -27.5951 C   0  0  0  0  0  0  0  0  0  0  0  0
   -0.6755   23.0104  -28.4091 C   0  0  0  0  0  0  0  0  0  0  0  0
   -1.9175   22.8708  -27.8588 C   0  0  0  0  0  0  0  0  0  0  0  0
   -4.1340   24.7225  -26.5276 C   0  0  0  0  0  0  0  0  0  0  0  0
   -4.9226   25.1671  -27.6791 C   0  0  0  0  0  0  0  0  0  0  0  0
   -6.2700   25.4446  -27.6983 O   0  0  0  0  0  0  0  0  0  0  0  0
   -4.2830   25.3111  -28.7773 O   0  0  0  0  0  0  0  0  0  0  0  0
   -6.5578   26.4086  -27.8479 H   0  0  0  0  0  0  0  0  0  0  0  0
   -7.4895   25.3253  -22.8737 C   0  0  0  0  0  0  0  0  0  0  0  0
   -8.6243   25.5130  -21.9791 C   0  0  0  0  0  0  0  0  0  0  0  0
   -9.1328   26.6920  -21.5205 O   0  0  0  0  0  0  0  0  0  0  0  0
   -9.2050   24.4496  -21.5816 O   0  0  0  0  0  0  0  0  0  0  0  0
   -9.1098   27.0695  -20.6032 H   0  0  0  0  0  0  0  0  0  0  0  0
 22 23  1  0  0  0
 23 24  1  0  0  0
 23  6  1  0  0  0
  6  7  1  0  0  0
  7  8  1  0  0  0
  8  9  2  0  0  0
  8 11  1  0  0  0
 11 17  1  0  0  0
 17 18  1  0  0  0
 18 19  1  0  0  0
 18 20  2  0  0  0
 11 12  1  0  0  0
 12 13  1  0  0  0
 13 14  1  0  0  0
 13 15  2  0  0  0
  6  2  1  0  0  0
  2  3  2  0  0  0
  2  4  1  0  0  0
  4  1  1  0  0  0
  1 43  1  0  0  0
 43 44  1  0  0  0
 44 45  1  0  0  0
 44 46  2  0  0  0
  1 25  1  0  0  0
 25 26  2  0  0  0
 25 27  1  0  0  0
 27 29  1  0  0  0
 29 38  1  0  0  0
 38 39  1  0  0  0
 39 40  1  0  0  0
 39 41  2  0  0  0
 29 30  1  0  0  0
 30 31  2  0  0  0
 30 32  1  0  0  0
 32 33  2  0  0  0
 33 34  1  0  0  0
 34 35  2  0  0  0
 35 36  1  0  0  0
 36 37  2  0  0  0
 37 32  1  0  0  0
  7 10  1  0  0  0
 19 21  1  0  0  0
 12 16  1  0  0  0
  4  5  1  0  0  0
 45 47  1  0  0  0
 27 28  1  0  0  0
 40 42  1  0  0  0
M  END
> <minimizedAffinity>
-7.62767

> <CNNscore>
0.1596282870

> <CNNaffinity>
5.8900909424

> <CNN_VS>
0.9402251244

> <CNNaffinity_variance>
0.3696874082

$$$$
[H]OC(=O)C([H])([H])[C@@]([H])(C(=O)c1c([H])c([H])c([H])c([H])c1[H])N([H])C(=O)[C@@]([H])(N([H])C(=O)[C@@]([H])(N([H])C(=O)[C@@]([H])(N([H])C(=O)C([H])([H])[H])C([H])([H])C(=O)O[H])C([H])(C([H])([H])[H])C([H])([H])[H])C([H])([H])C(=O)O[H]


 47 47  0  0  0  0  0  0  0  0999 V2000
   -1.2459   21.7878  -21.6432 C   0  0  0  0  0  0  0  0  0  0  0  0
   -3.1606   22.1770  -20.0768 C   0  0  0  0  0  0  0  0  0  0  0  0
   -2.4501   23.1814  -19.6985 O   0  0  0  0  0  0  0  0  0  0  0  0
   -2.5457   21.4156  -21.0904 N   0  0  0  0  0  0  0  0  0  0  0  0
   -2.9861   20.5615  -21.4505 H   0  0  0  0  0  0  0  0  0  0  0  0
   -4.4910   21.9152  -19.4437 C   0  0  0  0  0  0  0  0  0  0  0  0
   -5.5048   22.6677  -20.1074 N   0  0  0  0  0  0  0  0  0  0  0  0
   -5.7521   23.0417  -21.4149 C   0  0  0  0  0  0  0  0  0  0  0  0
   -5.0280   22.7120  -22.3919 O   0  0  0  0  0  0  0  0  0  0  0  0
   -6.2803   23.0396  -19.4140 H   0  0  0  0  0  0  0  0  0  0  0  0
   -6.9207   23.8994  -21.7998 C   0  0  0  0  0  0  0  0  0  0  0  0
   -7.2356   23.7843  -23.2112 N   0  0  0  0  0  0  0  0  0  0  0  0
   -7.6293   24.8885  -23.9984 C   0  0  0  0  0  0  0  0  0  0  0  0
   -7.9377   24.7267  -25.4294 C   0  0  0  0  0  0  0  0  0  0  0  0
   -7.7136   26.0147  -23.4648 O   0  0  0  0  0  0  0  0  0  0  0  0
   -7.1640   22.8449  -23.6451 H   0  0  0  0  0  0  0  0  0  0  0  0
   -8.1710   23.6023  -21.0415 C   0  0  0  0  0  0  0  0  0  0  0  0
   -8.3255   24.3153  -19.7620 C   0  0  0  0  0  0  0  0  0  0  0  0
   -8.1012   23.6334  -18.5504 O   0  0  0  0  0  0  0  0  0  0  0  0
   -8.6509   25.5162  -19.7015 O   0  0  0  0  0  0  0  0  0  0  0  0
   -7.9940   24.1056  -17.6650 H   0  0  0  0  0  0  0  0  0  0  0  0
   -6.3058   20.3094  -18.9337 C   0  0  0  0  0  0  0  0  0  0  0  0
   -4.8299   20.4924  -19.2185 C   0  0  0  0  0  0  0  0  0  0  0  0
   -4.0228   19.7934  -18.1388 C   0  0  0  0  0  0  0  0  0  0  0  0
   -1.4134   22.5713  -22.8640 C   0  0  0  0  0  0  0  0  0  0  0  0
   -1.2475   23.8181  -22.8273 O   0  0  0  0  0  0  0  0  0  0  0  0
   -1.7601   21.9994  -24.1257 N   0  0  0  0  0  0  0  0  0  0  0  0
   -1.9156   20.9831  -24.2532 H   0  0  0  0  0  0  0  0  0  0  0  0
   -1.9173   22.8535  -25.3126 C   0  0  0  0  0  0  0  0  0  0  0  0
   -3.3177   23.1667  -25.5600 C   0  0  0  0  0  0  0  0  0  0  0  0
   -4.1505   22.1878  -25.6838 O   0  0  0  0  0  0  0  0  0  0  0  0
   -3.9225   24.4831  -25.6899 C   0  0  0  0  0  0  0  0  0  0  0  0
   -3.9671   25.3222  -24.6045 C   0  0  0  0  0  0  0  0  0  0  0  0
   -4.5241   26.5982  -24.7392 C   0  0  0  0  0  0  0  0  0  0  0  0
   -5.0189   27.0017  -25.9407 C   0  0  0  0  0  0  0  0  0  0  0  0
   -4.9818   26.1724  -27.0341 C   0  0  0  0  0  0  0  0  0  0  0  0
   -4.4346   24.9298  -26.8876 C   0  0  0  0  0  0  0  0  0  0  0  0
   -1.2528   22.1624  -26.4953 C   0  0  0  0  0  0  0  0  0  0  0  0
    0.2109   22.2138  -26.4695 C   0  0  0  0  0  0  0  0  0  0  0  0
    1.0330   21.7962  -25.4485 O   0  0  0  0  0  0  0  0  0  0  0  0
    0.7753   22.6979  -27.5102 O   0  0  0  0  0  0  0  0  0  0  0  0
    1.6299   20.9895  -25.6143 H   0  0  0  0  0  0  0  0  0  0  0  0
   -0.3667   20.5702  -21.8347 C   0  0  0  0  0  0  0  0  0  0  0  0
    1.0624   20.8480  -21.7742 C   0  0  0  0  0  0  0  0  0  0  0  0
    1.9222   21.0035  -22.8208 O   0  0  0  0  0  0  0  0  0  0  0  0
    1.5620   20.9564  -20.6060 O   0  0  0  0  0  0  0  0  0  0  0  0
    2.6563   20.4078  -23.1223 H   0  0  0  0  0  0  0  0  0  0  0  0
 22 23  1  0  0  0
 23 24  1  0  0  0
 23  6  1  0  0  0
  6  7  1  0  0  0
  7  8  1  0  0  0
  8  9  2  0  0  0
  8 11  1  0  0  0
 11 17  1  0  0  0
 17 18  1  0  0  0
 18 19  1  0  0  0
 18 20  2  0  0  0
 11 12  1  0  0  0
 12 13  1  0  0  0
 13 14  1  0  0  0
 13 15  2  0  0  0
  6  2  1  0  0  0
  2  3  2  0  0  0
  2  4  1  0  0  0
  4  1  1  0  0  0
  1 43  1  0  0  0
 43 44  1  0  0  0
 44 45  1  0  0  0
 44 46  2  0  0  0
  1 25  1  0  0  0
 25 26  2  0  0  0
 25 27  1  0  0  0
 27 29  1  0  0  0
 29 38  1  0  0  0
 38 39  1  0  0  0
 39 40  1  0  0  0
 39 41  2  0  0  0
 29 30  1  0  0  0
 30 31  2  0  0  0
 30 32  1  0  0  0
 32 33  2  0  0  0
 33 34  1  0  0  0
 34 35  2  0  0  0
 35 36  1  0  0  0
 36 37  2  0  0  0
 37 32  1  0  0  0
  7 10  1  0  0  0
 19 21  1  0  0  0
 12 16  1  0  0  0
  4  5  1  0  0  0
 45 47  1  0  0  0
 27 28  1  0  0  0
 40 42  1  0  0  0
M  END
> <minimizedAffinity>
-7.60345

> <CNNscore>
0.1470163614

> <CNNaffinity>
5.8976101875

> <CNN_VS>
0.8670451641

> <CNNaffinity_variance>
0.2391747236

$$$$
[H]OC(=O)C([H])([H])[C@@]([H])(C(=O)c1c([H])c([H])c([H])c([H])c1[H])N([H])C(=O)[C@@]([H])(N([H])C(=O)[C@@]([H])(N([H])C(=O)[C@@]([H])(N([H])C(=O)C([H])([H])[H])C([H])([H])C(=O)O[H])C([H])(C([H])([H])[H])C([H])([H])[H])C([H])([H])C(=O)O[H]


 47 47  0  0  0  0  0  0  0  0999 V2000
   -2.6552   22.1394  -22.3534 C   0  0  0  0  0  0  0  0  0  0  0  0
   -4.5358   23.1962  -23.6255 C   0  0  0  0  0  0  0  0  0  0  0  0
   -5.2012   22.1868  -23.1838 O   0  0  0  0  0  0  0  0  0  0  0  0
   -3.1874   23.1911  -23.2163 N   0  0  0  0  0  0  0  0  0  0  0  0
   -2.5354   23.9161  -23.5361 H   0  0  0  0  0  0  0  0  0  0  0  0
   -5.2053   24.2203  -24.4870 C   0  0  0  0  0  0  0  0  0  0  0  0
   -4.9534   23.9417  -25.8630 N   0  0  0  0  0  0  0  0  0  0  0  0
   -4.1111   23.0910  -26.5540 C   0  0  0  0  0  0  0  0  0  0  0  0
   -3.3212   22.2789  -26.0025 O   0  0  0  0  0  0  0  0  0  0  0  0
   -5.5819   24.5467  -26.5408 H   0  0  0  0  0  0  0  0  0  0  0  0
   -4.0488   23.0612  -28.0522 C   0  0  0  0  0  0  0  0  0  0  0  0
   -4.0873   24.3945  -28.6225 N   0  0  0  0  0  0  0  0  0  0  0  0
   -5.1036   24.8179  -29.5068 C   0  0  0  0  0  0  0  0  0  0  0  0
   -5.1051   26.1824  -30.0610 C   0  0  0  0  0  0  0  0  0  0  0  0
   -6.0104   24.0168  -29.8170 O   0  0  0  0  0  0  0  0  0  0  0  0
   -3.3294   25.0521  -28.3601 H   0  0  0  0  0  0  0  0  0  0  0  0
   -2.8386   22.3806  -28.5987 C   0  0  0  0  0  0  0  0  0  0  0  0
   -1.5998   23.1773  -28.5886 C   0  0  0  0  0  0  0  0  0  0  0  0
   -0.7117   23.0745  -27.5004 O   0  0  0  0  0  0  0  0  0  0  0  0
   -1.2958   23.9516  -29.5158 O   0  0  0  0  0  0  0  0  0  0  0  0
    0.2319   23.4313  -27.5248 H   0  0  0  0  0  0  0  0  0  0  0  0
   -7.4512   24.6837  -25.4213 C   0  0  0  0  0  0  0  0  0  0  0  0
   -6.6214   24.5068  -24.1672 C   0  0  0  0  0  0  0  0  0  0  0  0
   -6.8544   25.6894  -23.2436 C   0  0  0  0  0  0  0  0  0  0  0  0
   -2.0075   22.7184  -21.1797 C   0  0  0  0  0  0  0  0  0  0  0  0
   -1.8451   23.9644  -21.1135 O   0  0  0  0  0  0  0  0  0  0  0  0
   -1.5373   21.9429  -20.0766 N   0  0  0  0  0  0  0  0  0  0  0  0
   -1.6279   20.9115  -20.0414 H   0  0  0  0  0  0  0  0  0  0  0  0
   -0.8888   22.5962  -18.9297 C   0  0  0  0  0  0  0  0  0  0  0  0
    0.5188   22.2348  -18.8385 C   0  0  0  0  0  0  0  0  0  0  0  0
    0.9689   21.3233  -19.6347 O   0  0  0  0  0  0  0  0  0  0  0  0
    1.5193   22.7853  -17.9376 C   0  0  0  0  0  0  0  0  0  0  0  0
    1.6913   22.2342  -16.6923 C   0  0  0  0  0  0  0  0  0  0  0  0
    2.6732   22.7476  -15.8384 C   0  0  0  0  0  0  0  0  0  0  0  0
    3.4509   23.7881  -16.2430 C   0  0  0  0  0  0  0  0  0  0  0  0
    3.2889   24.3495  -17.4853 C   0  0  0  0  0  0  0  0  0  0  0  0
    2.3268   23.8375  -18.3081 C   0  0  0  0  0  0  0  0  0  0  0  0
   -1.6679   22.2436  -17.6701 C   0  0  0  0  0  0  0  0  0  0  0  0
   -3.1062   22.5038  -17.7670 C   0  0  0  0  0  0  0  0  0  0  0  0
   -3.7524   23.6829  -17.4760 O   0  0  0  0  0  0  0  0  0  0  0  0
   -3.8291   21.5270  -18.1662 O   0  0  0  0  0  0  0  0  0  0  0  0
   -4.1840   24.1938  -18.2424 H   0  0  0  0  0  0  0  0  0  0  0  0
   -1.7525   21.2036  -23.1291 C   0  0  0  0  0  0  0  0  0  0  0  0
   -0.6092   21.8558  -23.7543 C   0  0  0  0  0  0  0  0  0  0  0  0
   -0.6245   22.7461  -24.7867 O   0  0  0  0  0  0  0  0  0  0  0  0
    0.5351   21.5556  -23.2783 O   0  0  0  0  0  0  0  0  0  0  0  0
   -0.3109   22.6279  -25.7206 H   0  0  0  0  0  0  0  0  0  0  0  0
 22 23  1  0  0  0
 23 24  1  0  0  0
 23  6  1  0  0  0
  6  7  1  0  0  0
  7  8  1  0  0  0
  8  9  2  0  0  0
  8 11  1  0  0  0
 11 17  1  0  0  0
 17 18  1  0  0  0
 18 19  1  0  0  0
 18 20  2  0  0  0
 11 12  1  0  0  0
 12 13  1  0  0  0
 13 14  1  0  0  0
 13 15  2  0  0  0
  6  2  1  0  0  0
  2  3  2  0  0  0
  2  4  1  0  0  0
  4  1  1  0  0  0
  1 43  1  0  0  0
 43 44  1  0  0  0
 44 45  1  0  0  0
 44 46  2  0  0  0
  1 25  1  0  0  0
 25 26  2  0  0  0
 25 27  1  0  0  0
 27 29  1  0  0  0
 29 38  1  0  0  0
 38 39  1  0  0  0
 39 40  1  0  0  0
 39 41  2  0  0  0
 29 30  1  0  0  0
 30 31  2  0  0  0
 30 32  1  0  0  0
 32 33  2  0  0  0
 33 34  1  0  0  0
 34 35  2  0  0  0
 35 36  1  0  0  0
 36 37  2  0  0  0
 37 32  1  0  0  0
  7 10  1  0  0  0
 19 21  1  0  0  0
 12 16  1  0  0  0
  4  5  1  0  0  0
 45 47  1  0  0  0
 27 28  1  0  0  0
 40 42  1  0  0  0
M  END
> <minimizedAffinity>
-6.83665

> <CNNscore>
0.1420039684

> <CNNaffinity>
5.8516354561

> <CNN_VS>
0.8309554458

> <CNNaffinity_variance>
0.1414715946

$$$$
[H]OC(=O)C([H])([H])[C@@]([H])(C(=O)c1c([H])c([H])c([H])c([H])c1[H])N([H])C(=O)[C@@]([H])(N([H])C(=O)[C@@]([H])(N([H])C(=O)[C@@]([H])(N([H])C(=O)C([H])([H])[H])C([H])([H])C(=O)O[H])C([H])(C([H])([H])[H])C([H])([H])[H])C([H])([H])C(=O)O[H]


 47 47  0  0  0  0  0  0  0  0999 V2000
   -2.1496   22.9487  -24.6689 C   0  0  0  0  0  0  0  0  0  0  0  0
   -1.8129   22.9098  -22.1876 C   0  0  0  0  0  0  0  0  0  0  0  0
   -1.4970   24.1452  -22.3631 O   0  0  0  0  0  0  0  0  0  0  0  0
   -2.1477   22.2493  -23.3865 N   0  0  0  0  0  0  0  0  0  0  0  0
   -2.3755   21.2488  -23.3927 H   0  0  0  0  0  0  0  0  0  0  0  0
   -1.7921   22.3153  -20.8145 C   0  0  0  0  0  0  0  0  0  0  0  0
   -3.1020   22.3415  -20.2507 N   0  0  0  0  0  0  0  0  0  0  0  0
   -4.3546   21.9225  -20.6582 C   0  0  0  0  0  0  0  0  0  0  0  0
   -4.5818   21.3375  -21.7507 O   0  0  0  0  0  0  0  0  0  0  0  0
   -3.1235   22.8043  -19.2477 H   0  0  0  0  0  0  0  0  0  0  0  0
   -5.5852   22.1380  -19.8285 C   0  0  0  0  0  0  0  0  0  0  0  0
   -5.9253   20.9630  -19.0485 N   0  0  0  0  0  0  0  0  0  0  0  0
   -7.1581   20.2877  -19.1828 C   0  0  0  0  0  0  0  0  0  0  0  0
   -7.4612   19.0963  -18.3718 C   0  0  0  0  0  0  0  0  0  0  0  0
   -7.9970   20.7140  -20.0042 O   0  0  0  0  0  0  0  0  0  0  0  0
   -5.2229   20.6174  -18.3681 H   0  0  0  0  0  0  0  0  0  0  0  0
   -5.4878   23.2860  -18.8801 C   0  0  0  0  0  0  0  0  0  0  0  0
   -6.4888   24.3509  -19.0629 C   0  0  0  0  0  0  0  0  0  0  0  0
   -6.0863   25.6143  -19.5373 O   0  0  0  0  0  0  0  0  0  0  0  0
   -7.6973   24.1817  -18.8132 O   0  0  0  0  0  0  0  0  0  0  0  0
   -6.7372   26.3097  -19.8707 H   0  0  0  0  0  0  0  0  0  0  0  0
   -1.1342   20.5037  -19.2597 C   0  0  0  0  0  0  0  0  0  0  0  0
   -1.0924   21.0180  -20.6833 C   0  0  0  0  0  0  0  0  0  0  0  0
    0.3427   20.9987  -21.1789 C   0  0  0  0  0  0  0  0  0  0  0  0
   -3.5145   23.2745  -25.0729 C   0  0  0  0  0  0  0  0  0  0  0  0
   -4.3378   22.3456  -25.2790 O   0  0  0  0  0  0  0  0  0  0  0  0
   -3.9853   24.6108  -25.2515 N   0  0  0  0  0  0  0  0  0  0  0  0
   -3.3810   25.4392  -25.1039 H   0  0  0  0  0  0  0  0  0  0  0  0
   -5.3739   24.8620  -25.6658 C   0  0  0  0  0  0  0  0  0  0  0  0
   -5.4303   25.5203  -26.9635 C   0  0  0  0  0  0  0  0  0  0  0  0
   -5.4522   26.8110  -26.9939 O   0  0  0  0  0  0  0  0  0  0  0  0
   -5.4656   24.8931  -28.2754 C   0  0  0  0  0  0  0  0  0  0  0  0
   -5.3857   23.5268  -28.3793 C   0  0  0  0  0  0  0  0  0  0  0  0
   -5.4480   22.9243  -29.6403 C   0  0  0  0  0  0  0  0  0  0  0  0
   -5.5861   23.6916  -30.7553 C   0  0  0  0  0  0  0  0  0  0  0  0
   -5.6661   25.0592  -30.6659 C   0  0  0  0  0  0  0  0  0  0  0  0
   -5.6044   25.6332  -29.4283 C   0  0  0  0  0  0  0  0  0  0  0  0
   -6.0663   25.6623  -24.5713 C   0  0  0  0  0  0  0  0  0  0  0  0
   -6.7107   24.8369  -23.5470 C   0  0  0  0  0  0  0  0  0  0  0  0
   -8.0604   24.6221  -23.3897 O   0  0  0  0  0  0  0  0  0  0  0  0
   -5.9285   24.2579  -22.7169 O   0  0  0  0  0  0  0  0  0  0  0  0
   -8.4191   23.6859  -23.5614 H   0  0  0  0  0  0  0  0  0  0  0  0
   -1.3908   22.1641  -25.7181 C   0  0  0  0  0  0  0  0  0  0  0  0
    0.0527   22.3599  -25.6846 C   0  0  0  0  0  0  0  0  0  0  0  0
    0.8382   22.9075  -26.6552 O   0  0  0  0  0  0  0  0  0  0  0  0
    0.6452   21.9723  -24.6241 O   0  0  0  0  0  0  0  0  0  0  0  0
    1.5107   22.4690  -27.2384 H   0  0  0  0  0  0  0  0  0  0  0  0
 22 23  1  0  0  0
 23 24  1  0  0  0
 23  6  1  0  0  0
  6  7  1  0  0  0
  7  8  1  0  0  0
  8  9  2  0  0  0
  8 11  1  0  0  0
 11 17  1  0  0  0
 17 18  1  0  0  0
 18 19  1  0  0  0
 18 20  2  0  0  0
 11 12  1  0  0  0
 12 13  1  0  0  0
 13 14  1  0  0  0
 13 15  2  0  0  0
  6  2  1  0  0  0
  2  3  2  0  0  0
  2  4  1  0  0  0
  4  1  1  0  0  0
  1 43  1  0  0  0
 43 44  1  0  0  0
 44 45  1  0  0  0
 44 46  2  0  0  0
  1 25  1  0  0  0
 25 26  2  0  0  0
 25 27  1  0  0  0
 27 29  1  0  0  0
 29 38  1  0  0  0
 38 39  1  0  0  0
 39 40  1  0  0  0
 39 41  2  0  0  0
 29 30  1  0  0  0
 30 31  2  0  0  0
 30 32  1  0  0  0
 32 33  2  0  0  0
 33 34  1  0  0  0
 34 35  2  0  0  0
 35 36  1  0  0  0
 36 37  2  0  0  0
 37 32  1  0  0  0
  7 10  1  0  0  0
 19 21  1  0  0  0
 12 16  1  0  0  0
  4  5  1  0  0  0
 45 47  1  0  0  0
 27 28  1  0  0  0
 40 42  1  0  0  0
M  END
> <minimizedAffinity>
-7.73395

> <CNNscore>
0.1340794712

> <CNNaffinity>
6.1583085060

> <CNN_VS>
0.8257027268

> <CNNaffinity_variance>
0.0305077620

$$$$
[H]OC(=O)C([H])([H])[C@@]([H])(C(=O)c1c([H])c([H])c([H])c([H])c1[H])N([H])C(=O)[C@@]([H])(N([H])C(=O)[C@@]([H])(N([H])C(=O)[C@@]([H])(N([H])C(=O)C([H])([H])[H])C([H])([H])C(=O)O[H])C([H])(C([H])([H])[H])C([H])([H])[H])C([H])([H])C(=O)O[H]


 47 47  0  0  0  0  0  0  0  0999 V2000
   -6.3547   23.4976  -21.3049 C   0  0  0  0  0  0  0  0  0  0  0  0
   -6.0867   21.3495  -20.0457 C   0  0  0  0  0  0  0  0  0  0  0  0
   -7.2799   21.1256  -20.4733 O   0  0  0  0  0  0  0  0  0  0  0  0
   -5.5779   22.5979  -20.4558 N   0  0  0  0  0  0  0  0  0  0  0  0
   -4.6539   22.9195  -20.1463 H   0  0  0  0  0  0  0  0  0  0  0  0
   -5.3880   20.3338  -19.1976 C   0  0  0  0  0  0  0  0  0  0  0  0
   -4.0541   20.7589  -18.9248 N   0  0  0  0  0  0  0  0  0  0  0  0
   -2.9084   20.1507  -18.4471 C   0  0  0  0  0  0  0  0  0  0  0  0
   -2.8301   18.9290  -18.1492 O   0  0  0  0  0  0  0  0  0  0  0  0
   -3.8946   21.8286  -19.1506 H   0  0  0  0  0  0  0  0  0  0  0  0
   -1.6304   20.9034  -18.2242 C   0  0  0  0  0  0  0  0  0  0  0  0
   -0.6102   20.0703  -17.6161 N   0  0  0  0  0  0  0  0  0  0  0  0
   -0.0521   20.3486  -16.3491 C   0  0  0  0  0  0  0  0  0  0  0  0
    0.9806   19.4740  -15.7680 C   0  0  0  0  0  0  0  0  0  0  0  0
   -0.4468   21.3526  -15.7196 O   0  0  0  0  0  0  0  0  0  0  0  0
   -0.2879   19.2396  -18.1470 H   0  0  0  0  0  0  0  0  0  0  0  0
   -1.0428   21.4882  -19.4649 C   0  0  0  0  0  0  0  0  0  0  0  0
   -1.4615   22.8644  -19.7814 C   0  0  0  0  0  0  0  0  0  0  0  0
   -0.5836   23.9369  -19.5313 O   0  0  0  0  0  0  0  0  0  0  0  0
   -2.5768   23.1278  -20.2697 O   0  0  0  0  0  0  0  0  0  0  0  0
   -0.7263   24.8632  -19.9053 H   0  0  0  0  0  0  0  0  0  0  0  0
   -6.9888   18.6504  -18.3398 C   0  0  0  0  0  0  0  0  0  0  0  0
   -6.1358   19.8579  -18.0126 C   0  0  0  0  0  0  0  0  0  0  0  0
   -6.9939   20.9025  -17.3211 C   0  0  0  0  0  0  0  0  0  0  0  0
   -6.0247   23.2871  -22.7116 C   0  0  0  0  0  0  0  0  0  0  0  0
   -6.8874   22.7926  -23.4828 O   0  0  0  0  0  0  0  0  0  0  0  0
   -4.7570   23.6156  -23.2811 N   0  0  0  0  0  0  0  0  0  0  0  0
   -3.9860   24.0274  -22.7251 H   0  0  0  0  0  0  0  0  0  0  0  0
   -4.4949   23.3695  -24.7071 C   0  0  0  0  0  0  0  0  0  0  0  0
   -3.5989   22.2372  -24.8950 C   0  0  0  0  0  0  0  0  0  0  0  0
   -4.0150   21.0645  -24.5503 O   0  0  0  0  0  0  0  0  0  0  0  0
   -2.2502   22.2542  -25.4395 C   0  0  0  0  0  0  0  0  0  0  0  0
   -2.0647   22.2486  -26.7995 C   0  0  0  0  0  0  0  0  0  0  0  0
   -0.7674   22.2932  -27.3208 C   0  0  0  0  0  0  0  0  0  0  0  0
    0.3023   22.3408  -26.4813 C   0  0  0  0  0  0  0  0  0  0  0  0
    0.1314   22.3459  -25.1192 C   0  0  0  0  0  0  0  0  0  0  0  0
   -1.1409   22.3025  -24.6249 C   0  0  0  0  0  0  0  0  0  0  0  0
   -3.9575   24.6521  -25.3268 C   0  0  0  0  0  0  0  0  0  0  0  0
   -4.4709   25.8748  -24.7047 C   0  0  0  0  0  0  0  0  0  0  0  0
   -3.7613   26.7719  -23.9403 O   0  0  0  0  0  0  0  0  0  0  0  0
   -5.7096   26.1276  -24.8990 O   0  0  0  0  0  0  0  0  0  0  0  0
   -3.6080   27.7046  -24.3160 H   0  0  0  0  0  0  0  0  0  0  0  0
   -6.1916   24.9372  -20.8654 C   0  0  0  0  0  0  0  0  0  0  0  0
   -6.6756   25.2107  -19.5185 C   0  0  0  0  0  0  0  0  0  0  0  0
   -5.9311   25.4016  -18.3924 O   0  0  0  0  0  0  0  0  0  0  0  0
   -7.9417   25.2774  -19.3820 O   0  0  0  0  0  0  0  0  0  0  0  0
   -5.8367   24.8158  -17.5970 H   0  0  0  0  0  0  0  0  0  0  0  0
 22 23  1  0  0  0
 23 24  1  0  0  0
 23  6  1  0  0  0
  6  7  1  0  0  0
  7  8  1  0  0  0
  8  9  2  0  0  0
  8 11  1  0  0  0
 11 17  1  0  0  0
 17 18  1  0  0  0
 18 19  1  0  0  0
 18 20  2  0  0  0
 11 12  1  0  0  0
 12 13  1  0  0  0
 13 14  1  0  0  0
 13 15  2  0  0  0
  6  2  1  0  0  0
  2  3  2  0  0  0
  2  4  1  0  0  0
  4  1  1  0  0  0
  1 43  1  0  0  0
 43 44  1  0  0  0
 44 45  1  0  0  0
 44 46  2  0  0  0
  1 25  1  0  0  0
 25 26  2  0  0  0
 25 27  1  0  0  0
 27 29  1  0  0  0
 29 38  1  0  0  0
 38 39  1  0  0  0
 39 40  1  0  0  0
 39 41  2  0  0  0
 29 30  1  0  0  0
 30 31  2  0  0  0
 30 32  1  0  0  0
 32 33  2  0  0  0
 33 34  1  0  0  0
 34 35  2  0  0  0
 35 36  1  0  0  0
 36 37  2  0  0  0
 37 32  1  0  0  0
  7 10  1  0  0  0
 19 21  1  0  0  0
 12 16  1  0  0  0
  4  5  1  0  0  0
 45 47  1  0  0  0
 27 28  1  0  0  0
 40 42  1  0  0  0
M  END
> <minimizedAffinity>
-6.90851

> <CNNscore>
0.1322358102

> <CNNaffinity>
5.1655259132

> <CNN_VS>
0.6830675006

> <CNNaffinity_variance>
0.5646157265

$$$$
[H]OC(=O)C([H])([H])[C@@]([H])(C(=O)c1c([H])c([H])c([H])c([H])c1[H])N([H])C(=O)[C@@]([H])(N([H])C(=O)[C@@]([H])(N([H])C(=O)[C@@]([H])(N([H])C(=O)C([H])([H])[H])C([H])([H])C(=O)O[H])C([H])(C([H])([H])[H])C([H])([H])[H])C([H])([H])C(=O)O[H]


 47 47  0  0  0  0  0  0  0  0999 V2000
   -6.4349   21.8042  -20.8052 C   0  0  0  0  0  0  0  0  0  0  0  0
   -4.8118   21.8994  -18.9005 C   0  0  0  0  0  0  0  0  0  0  0  0
   -4.8454   20.6170  -19.0058 O   0  0  0  0  0  0  0  0  0  0  0  0
   -5.6501   22.5520  -19.8261 N   0  0  0  0  0  0  0  0  0  0  0  0
   -5.7506   23.5732  -19.8195 H   0  0  0  0  0  0  0  0  0  0  0  0
   -3.9464   22.5472  -17.8657 C   0  0  0  0  0  0  0  0  0  0  0  0
   -4.7547   23.0957  -16.8264 N   0  0  0  0  0  0  0  0  0  0  0  0
   -6.0565   22.9168  -16.3973 C   0  0  0  0  0  0  0  0  0  0  0  0
   -6.8636   22.0990  -16.9144 O   0  0  0  0  0  0  0  0  0  0  0  0
   -4.2132   23.8396  -16.2148 H   0  0  0  0  0  0  0  0  0  0  0  0
   -6.6452   23.7007  -15.2623 C   0  0  0  0  0  0  0  0  0  0  0  0
   -7.1019   22.8391  -14.1882 N   0  0  0  0  0  0  0  0  0  0  0  0
   -8.4694   22.5995  -13.9304 C   0  0  0  0  0  0  0  0  0  0  0  0
   -8.8889   21.7150  -12.8300 C   0  0  0  0  0  0  0  0  0  0  0  0
   -9.3282   23.1495  -14.6515 O   0  0  0  0  0  0  0  0  0  0  0  0
   -6.3814   22.3879  -13.5939 H   0  0  0  0  0  0  0  0  0  0  0  0
   -5.7124   24.6992  -14.6626 C   0  0  0  0  0  0  0  0  0  0  0  0
   -6.3500   25.8516  -14.0030 C   0  0  0  0  0  0  0  0  0  0  0  0
   -5.5541   26.8047  -13.3385 O   0  0  0  0  0  0  0  0  0  0  0  0
   -7.5835   26.0252  -14.0066 O   0  0  0  0  0  0  0  0  0  0  0  0
   -5.9031   27.7055  -13.0467 H   0  0  0  0  0  0  0  0  0  0  0  0
   -2.7463   21.6829  -15.8796 C   0  0  0  0  0  0  0  0  0  0  0  0
   -2.7967   21.7452  -17.3916 C   0  0  0  0  0  0  0  0  0  0  0  0
   -1.4397   22.1770  -17.9188 C   0  0  0  0  0  0  0  0  0  0  0  0
   -5.8899   21.9886  -22.1474 C   0  0  0  0  0  0  0  0  0  0  0  0
   -6.5488   21.5916  -23.1432 O   0  0  0  0  0  0  0  0  0  0  0  0
   -4.6289   22.6061  -22.4076 N   0  0  0  0  0  0  0  0  0  0  0  0
   -4.0173   22.9646  -21.6522 H   0  0  0  0  0  0  0  0  0  0  0  0
   -4.1419   22.7524  -23.7876 C   0  0  0  0  0  0  0  0  0  0  0  0
   -2.8560   22.0939  -23.9698 C   0  0  0  0  0  0  0  0  0  0  0  0
   -2.4290   21.3162  -23.0317 O   0  0  0  0  0  0  0  0  0  0  0  0
   -1.9586   22.2004  -25.1096 C   0  0  0  0  0  0  0  0  0  0  0  0
   -0.6006   22.1712  -24.9122 C   0  0  0  0  0  0  0  0  0  0  0  0
    0.2599   22.2456  -26.0126 C   0  0  0  0  0  0  0  0  0  0  0  0
   -0.2500   22.3473  -27.2699 C   0  0  0  0  0  0  0  0  0  0  0  0
   -1.6060   22.3787  -27.4816 C   0  0  0  0  0  0  0  0  0  0  0  0
   -2.4337   22.3047  -26.3979 C   0  0  0  0  0  0  0  0  0  0  0  0
   -4.0951   24.2356  -24.1276 C   0  0  0  0  0  0  0  0  0  0  0  0
   -4.8652   25.0811  -23.2124 C   0  0  0  0  0  0  0  0  0  0  0  0
   -4.4714   25.5251  -21.9713 O   0  0  0  0  0  0  0  0  0  0  0  0
   -6.0235   25.4406  -23.6186 O   0  0  0  0  0  0  0  0  0  0  0  0
   -4.3076   26.5216  -21.8493 H   0  0  0  0  0  0  0  0  0  0  0  0
   -7.9045   22.1548  -20.7074 C   0  0  0  0  0  0  0  0  0  0  0  0
   -8.6532   21.3381  -19.7610 C   0  0  0  0  0  0  0  0  0  0  0  0
   -9.8634   21.6187  -19.1993 O   0  0  0  0  0  0  0  0  0  0  0  0
   -8.1098   20.2356  -19.4214 O   0  0  0  0  0  0  0  0  0  0  0  0
  -10.0794   21.8475  -18.2582 H   0  0  0  0  0  0  0  0  0  0  0  0
 22 23  1  0  0  0
 23 24  1  0  0  0
 23  6  1  0  0  0
  6  7  1  0  0  0
  7  8  1  0  0  0
  8  9  2  0  0  0
  8 11  1  0  0  0
 11 17  1  0  0  0
 17 18  1  0  0  0
 18 19  1  0  0  0
 18 20  2  0  0  0
 11 12  1  0  0  0
 12 13  1  0  0  0
 13 14  1  0  0  0
 13 15  2  0  0  0
  6  2  1  0  0  0
  2  3  2  0  0  0
  2  4  1  0  0  0
  4  1  1  0  0  0
  1 43  1  0  0  0
 43 44  1  0  0  0
 44 45  1  0  0  0
 44 46  2  0  0  0
  1 25  1  0  0  0
 25 26  2  0  0  0
 25 27  1  0  0  0
 27 29  1  0  0  0
 29 38  1  0  0  0
 38 39  1  0  0  0
 39 40  1  0  0  0
 39 41  2  0  0  0
 29 30  1  0  0  0
 30 31  2  0  0  0
 30 32  1  0  0  0
 32 33  2  0  0  0
 33 34  1  0  0  0
 34 35  2  0  0  0
 35 36  1  0  0  0
 36 37  2  0  0  0
 37 32  1  0  0  0
  7 10  1  0  0  0
 19 21  1  0  0  0
 12 16  1  0  0  0
  4  5  1  0  0  0
 45 47  1  0  0  0
 27 28  1  0  0  0
 40 42  1  0  0  0
M  END
> <minimizedAffinity>
-7.00896

> <CNNscore>
0.1305083185

> <CNNaffinity>
5.1474642754

> <CNN_VS>
0.6717869043

> <CNNaffinity_variance>
0.1254566610

$$$$
[H]OC(=O)C([H])([H])[C@@]([H])(C(=O)c1c([H])c([H])c([H])c([H])c1[H])N([H])C(=O)[C@@]([H])(N([H])C(=O)[C@@]([H])(N([H])C(=O)[C@@]([H])(N([H])C(=O)C([H])([H])[H])C([H])([H])C(=O)O[H])C([H])(C([H])([H])[H])C([H])([H])[H])C([H])([H])C(=O)O[H]


 47 47  0  0  0  0  0  0  0  0999 V2000
   -5.6850   25.5438  -24.9431 C   0  0  0  0  0  0  0  0  0  0  0  0
   -7.5080   25.3345  -23.2389 C   0  0  0  0  0  0  0  0  0  0  0  0
   -7.5314   26.6183  -23.3274 O   0  0  0  0  0  0  0  0  0  0  0  0
   -6.5354   24.7409  -24.0679 N   0  0  0  0  0  0  0  0  0  0  0  0
   -6.3818   23.7264  -24.0595 H   0  0  0  0  0  0  0  0  0  0  0  0
   -8.4501   24.6263  -22.3168 C   0  0  0  0  0  0  0  0  0  0  0  0
   -7.7266   24.0316  -21.2411 N   0  0  0  0  0  0  0  0  0  0  0  0
   -6.8409   22.9775  -21.1181 C   0  0  0  0  0  0  0  0  0  0  0  0
   -6.4451   22.2723  -22.0843 O   0  0  0  0  0  0  0  0  0  0  0  0
   -7.9149   24.5324  -20.2744 H   0  0  0  0  0  0  0  0  0  0  0  0
   -6.2653   22.5592  -19.7978 C   0  0  0  0  0  0  0  0  0  0  0  0
   -4.8625   22.9107  -19.6827 N   0  0  0  0  0  0  0  0  0  0  0  0
   -3.8513   21.9519  -19.4546 C   0  0  0  0  0  0  0  0  0  0  0  0
   -2.4382   22.3528  -19.3466 C   0  0  0  0  0  0  0  0  0  0  0  0
   -4.1693   20.7490  -19.3448 O   0  0  0  0  0  0  0  0  0  0  0  0
   -4.6084   23.9121  -19.7738 H   0  0  0  0  0  0  0  0  0  0  0  0
   -6.9659   23.1408  -18.6156 C   0  0  0  0  0  0  0  0  0  0  0  0
   -6.4333   24.4240  -18.1263 C   0  0  0  0  0  0  0  0  0  0  0  0
   -6.1117   25.4426  -19.0442 O   0  0  0  0  0  0  0  0  0  0  0  0
   -6.2516   24.6539  -16.9157 O   0  0  0  0  0  0  0  0  0  0  0  0
   -5.9379   26.3974  -18.7677 H   0  0  0  0  0  0  0  0  0  0  0  0
  -10.2549   24.8341  -20.6341 C   0  0  0  0  0  0  0  0  0  0  0  0
   -9.6466   25.3926  -21.9033 C   0  0  0  0  0  0  0  0  0  0  0  0
  -10.7303   25.5280  -22.9583 C   0  0  0  0  0  0  0  0  0  0  0  0
   -5.6243   24.9564  -26.2785 C   0  0  0  0  0  0  0  0  0  0  0  0
   -6.6595   24.4431  -26.7769 O   0  0  0  0  0  0  0  0  0  0  0  0
   -4.4385   24.9282  -27.0736 N   0  0  0  0  0  0  0  0  0  0  0  0
   -3.5394   25.3268  -26.7480 H   0  0  0  0  0  0  0  0  0  0  0  0
   -4.4519   24.3134  -28.4095 C   0  0  0  0  0  0  0  0  0  0  0  0
   -3.5676   23.1582  -28.4717 C   0  0  0  0  0  0  0  0  0  0  0  0
   -3.8262   22.2361  -29.3378 O   0  0  0  0  0  0  0  0  0  0  0  0
   -2.3900   22.8980  -27.6585 C   0  0  0  0  0  0  0  0  0  0  0  0
   -2.5361   22.3968  -26.3891 C   0  0  0  0  0  0  0  0  0  0  0  0
   -1.4010   22.1212  -25.6194 C   0  0  0  0  0  0  0  0  0  0  0  0
   -0.1606   22.3508  -26.1292 C   0  0  0  0  0  0  0  0  0  0  0  0
    0.0001   22.8527  -27.3969 C   0  0  0  0  0  0  0  0  0  0  0  0
   -1.1172   23.1165  -28.1366 C   0  0  0  0  0  0  0  0  0  0  0  0
   -4.0959   25.3808  -29.4351 C   0  0  0  0  0  0  0  0  0  0  0  0
   -5.2353   25.8490  -30.2276 C   0  0  0  0  0  0  0  0  0  0  0  0
   -5.2659   26.0521  -31.5879 O   0  0  0  0  0  0  0  0  0  0  0  0
   -6.3108   26.0905  -29.5787 O   0  0  0  0  0  0  0  0  0  0  0  0
   -5.8529   25.4404  -32.1499 H   0  0  0  0  0  0  0  0  0  0  0  0
   -4.3192   25.7598  -24.3265 C   0  0  0  0  0  0  0  0  0  0  0  0
   -4.0890   25.0050  -23.1015 C   0  0  0  0  0  0  0  0  0  0  0  0
   -4.4782   25.3365  -21.8375 O   0  0  0  0  0  0  0  0  0  0  0  0
   -3.4491   23.9098  -23.2313 O   0  0  0  0  0  0  0  0  0  0  0  0
   -3.9229   25.6150  -21.0638 H   0  0  0  0  0  0  0  0  0  0  0  0
 22 23  1  0  0  0
 23 24  1  0  0  0
 23  6  1  0  0  0
  6  7  1  0  0  0
  7  8  1  0  0  0
  8  9  2  0  0  0
  8 11  1  0  0  0
 11 17  1  0  0  0
 17 18  1  0  0  0
 18 19  1  0  0  0
 18 20  2  0  0  0
 11 12  1  0  0  0
 12 13  1  0  0  0
 13 14  1  0  0  0
 13 15  2  0  0  0
  6  2  1  0  0  0
  2  3  2  0  0  0
  2  4  1  0  0  0
  4  1  1  0  0  0
  1 43  1  0  0  0
 43 44  1  0  0  0
 44 45  1  0  0  0
 44 46  2  0  0  0
  1 25  1  0  0  0
 25 26  2  0  0  0
 25 27  1  0  0  0
 27 29  1  0  0  0
 29 38  1  0  0  0
 38 39  1  0  0  0
 39 40  1  0  0  0
 39 41  2  0  0  0
 29 30  1  0  0  0
 30 31  2  0  0  0
 30 32  1  0  0  0
 32 33  2  0  0  0
 33 34  1  0  0  0
 34 35  2  0  0  0
 35 36  1  0  0  0
 36 37  2  0  0  0
 37 32  1  0  0  0
  7 10  1  0  0  0
 19 21  1  0  0  0
 12 16  1  0  0  0
  4  5  1  0  0  0
 45 47  1  0  0  0
 27 28  1  0  0  0
 40 42  1  0  0  0
M  END
> <minimizedAffinity>
-8.21091

> <CNNscore>
0.1139730290

> <CNNaffinity>
6.2883787155

> <CNN_VS>
0.7167055607

> <CNNaffinity_variance>
0.1104360372

$$$$
[H]OC(=O)C([H])([H])[C@@]([H])(C(=O)c1c([H])c([H])c([H])c([H])c1[H])N([H])C(=O)[C@@]([H])(N([H])C(=O)[C@@]([H])(N([H])C(=O)[C@@]([H])(N([H])C(=O)C([H])([H])[H])C([H])([H])C(=O)O[H])C([H])(C([H])([H])[H])C([H])([H])[H])C([H])([H])C(=O)O[H]


 47 47  0  0  0  0  0  0  0  0999 V2000
   -1.6238   21.7733  -22.0203 C   0  0  0  0  0  0  0  0  0  0  0  0
   -3.9715   22.1712  -21.2446 C   0  0  0  0  0  0  0  0  0  0  0  0
   -3.5358   23.3619  -21.0229 O   0  0  0  0  0  0  0  0  0  0  0  0
   -2.9831   21.3075  -21.7569 N   0  0  0  0  0  0  0  0  0  0  0  0
   -3.1871   20.3178  -21.9355 H   0  0  0  0  0  0  0  0  0  0  0  0
   -5.3974   21.8248  -20.9514 C   0  0  0  0  0  0  0  0  0  0  0  0
   -5.6370   21.8882  -19.5468 N   0  0  0  0  0  0  0  0  0  0  0  0
   -5.7346   22.9022  -18.6125 C   0  0  0  0  0  0  0  0  0  0  0  0
   -5.6372   24.1277  -18.8887 O   0  0  0  0  0  0  0  0  0  0  0  0
   -5.7823   20.8904  -19.0952 H   0  0  0  0  0  0  0  0  0  0  0  0
   -5.9590   22.6344  -17.1539 C   0  0  0  0  0  0  0  0  0  0  0  0
   -6.3106   23.8411  -16.4295 N   0  0  0  0  0  0  0  0  0  0  0  0
   -5.7169   24.1925  -15.1973 C   0  0  0  0  0  0  0  0  0  0  0  0
   -6.1023   25.4292  -14.4965 C   0  0  0  0  0  0  0  0  0  0  0  0
   -4.8531   23.4377  -14.7030 O   0  0  0  0  0  0  0  0  0  0  0  0
   -7.0298   24.4608  -16.8472 H   0  0  0  0  0  0  0  0  0  0  0  0
   -7.0226   21.6254  -16.8759 C   0  0  0  0  0  0  0  0  0  0  0  0
   -8.3876   22.1603  -16.7341 C   0  0  0  0  0  0  0  0  0  0  0  0
   -8.9352   22.3466  -15.4500 O   0  0  0  0  0  0  0  0  0  0  0  0
   -9.0925   22.4615  -17.7159 O   0  0  0  0  0  0  0  0  0  0  0  0
   -9.7700   22.8878  -15.2812 H   0  0  0  0  0  0  0  0  0  0  0  0
   -7.8109   22.0227  -21.4693 C   0  0  0  0  0  0  0  0  0  0  0  0
   -6.4123   22.5132  -21.7796 C   0  0  0  0  0  0  0  0  0  0  0  0
   -6.1822   22.4489  -23.2791 C   0  0  0  0  0  0  0  0  0  0  0  0
   -1.5785   22.5495  -23.2562 C   0  0  0  0  0  0  0  0  0  0  0  0
   -1.0784   23.7041  -23.2444 O   0  0  0  0  0  0  0  0  0  0  0  0
   -2.0755   22.0701  -24.5062 N   0  0  0  0  0  0  0  0  0  0  0  0
   -2.5031   21.1326  -24.6135 H   0  0  0  0  0  0  0  0  0  0  0  0
   -2.0007   22.9121  -25.7097 C   0  0  0  0  0  0  0  0  0  0  0  0
   -3.3242   23.3354  -26.1450 C   0  0  0  0  0  0  0  0  0  0  0  0
   -4.0365   22.5055  -26.8315 O   0  0  0  0  0  0  0  0  0  0  0  0
   -3.9720   24.6143  -25.8989 C   0  0  0  0  0  0  0  0  0  0  0  0
   -4.5591   25.2915  -26.9384 C   0  0  0  0  0  0  0  0  0  0  0  0
   -5.2057   26.5077  -26.6942 C   0  0  0  0  0  0  0  0  0  0  0  0
   -5.2494   27.0139  -25.4321 C   0  0  0  0  0  0  0  0  0  0  0  0
   -4.6654   26.3477  -24.3834 C   0  0  0  0  0  0  0  0  0  0  0  0
   -4.0383   25.1614  -24.6369 C   0  0  0  0  0  0  0  0  0  0  0  0
   -1.2455   22.1466  -26.7874 C   0  0  0  0  0  0  0  0  0  0  0  0
    0.2120   22.2232  -26.6618 C   0  0  0  0  0  0  0  0  0  0  0  0
    0.9707   21.8047  -25.5933 O   0  0  0  0  0  0  0  0  0  0  0  0
    0.8363   22.7326  -27.6551 O   0  0  0  0  0  0  0  0  0  0  0  0
    1.5923   21.0111  -25.7294 H   0  0  0  0  0  0  0  0  0  0  0  0
   -0.6412   20.6215  -22.0057 C   0  0  0  0  0  0  0  0  0  0  0  0
    0.7532   21.0256  -21.8809 C   0  0  0  0  0  0  0  0  0  0  0  0
    1.6744   21.1458  -22.8788 O   0  0  0  0  0  0  0  0  0  0  0  0
    1.1536   21.2962  -20.7009 O   0  0  0  0  0  0  0  0  0  0  0  0
    2.4734   20.5875  -23.0644 H   0  0  0  0  0  0  0  0  0  0  0  0
 22 23  1  0  0  0
 23 24  1  0  0  0
 23  6  1  0  0  0
  6  7  1  0  0  0
  7  8  1  0  0  0
  8  9  2  0  0  0
  8 11  1  0  0  0
 11 17  1  0  0  0
 17 18  1  0  0  0
 18 19  1  0  0  0
 18 20  2  0  0  0
 11 12  1  0  0  0
 12 13  1  0  0  0
 13 14  1  0  0  0
 13 15  2  0  0  0
  6  2  1  0  0  0
  2  3  2  0  0  0
  2  4  1  0  0  0
  4  1  1  0  0  0
  1 43  1  0  0  0
 43 44  1  0  0  0
 44 45  1  0  0  0
 44 46  2  0  0  0
  1 25  1  0  0  0
 25 26  2  0  0  0
 25 27  1  0  0  0
 27 29  1  0  0  0
 29 38  1  0  0  0
 38 39  1  0  0  0
 39 40  1  0  0  0
 39 41  2  0  0  0
 29 30  1  0  0  0
 30 31  2  0  0  0
 30 32  1  0  0  0
 32 33  2  0  0  0
 33 34  1  0  0  0
 34 35  2  0  0  0
 35 36  1  0  0  0
 36 37  2  0  0  0
 37 32  1  0  0  0
  7 10  1  0  0  0
 19 21  1  0  0  0
 12 16  1  0  0  0
  4  5  1  0  0  0
 45 47  1  0  0  0
 27 28  1  0  0  0
 40 42  1  0  0  0
M  END
> <minimizedAffinity>
-7.09599

> <CNNscore>
0.1050068289

> <CNNaffinity>
5.5075945854

> <CNN_VS>
0.5783350468

> <CNNaffinity_variance>
0.2174078524

$$$$
[H]O[C@]1([H])C([H])([H])C([H])([H])[C@@]([H])(N([H])c2nc(N([H])c3c([H])c([H])c(S(=O)(=O)N(C([H])([H])[H])C([H])([H])[H])c([H])c3[H])nc([H])c2[H])C([H])([H])C1([H])[H]


 30 32  0  0  0  0  0  0  0  0999 V2000
    0.0549   22.8252  -26.2106 C   0  0  0  0  0  0  0  0  0  0  0  0
   -1.2989   22.8621  -26.0768 N   0  0  0  0  0  0  0  0  0  0  0  0
   -2.1550   22.9792  -27.0892 C   0  0  0  0  0  0  0  0  0  0  0  0
   -1.6629   23.0732  -28.3930 C   0  0  0  0  0  0  0  0  0  0  0  0
   -0.3077   23.0366  -28.5301 C   0  0  0  0  0  0  0  0  0  0  0  0
    0.4963   22.9169  -27.4666 N   0  0  0  0  0  0  0  0  0  0  0  0
    0.8907   22.7219  -25.0893 N   0  0  0  0  0  0  0  0  0  0  0  0
    1.7736   23.3135  -25.1122 H   0  0  0  0  0  0  0  0  0  0  0  0
    0.6471   21.9250  -23.9760 C   0  0  0  0  0  0  0  0  0  0  0  0
    1.7614   21.3185  -23.3933 C   0  0  0  0  0  0  0  0  0  0  0  0
    1.6717   20.5263  -22.2796 C   0  0  0  0  0  0  0  0  0  0  0  0
    0.4666   20.2772  -21.6606 C   0  0  0  0  0  0  0  0  0  0  0  0
   -0.6409   20.8660  -22.2199 C   0  0  0  0  0  0  0  0  0  0  0  0
   -0.5482   21.6763  -23.3585 C   0  0  0  0  0  0  0  0  0  0  0  0
    0.4593   19.2628  -20.2601 S   0  0  0  0  0  0  0  0  0  0  0  0
   -0.6092   19.7530  -19.3215 O   0  0  0  0  0  0  0  0  0  0  0  0
    1.7802   19.4345  -19.5569 O   0  0  0  0  0  0  0  0  0  0  0  0
    0.1364   17.6178  -20.6165 N   0  0  0  0  0  0  0  0  0  0  0  0
    1.3025   16.8543  -20.9386 C   0  0  0  0  0  0  0  0  0  0  0  0
   -0.4553   17.0250  -19.4181 C   0  0  0  0  0  0  0  0  0  0  0  0
   -3.5537   23.0120  -26.8883 N   0  0  0  0  0  0  0  0  0  0  0  0
   -4.1818   22.5435  -27.5963 H   0  0  0  0  0  0  0  0  0  0  0  0
   -4.2016   23.6433  -25.7775 C   0  0  0  0  0  0  0  0  0  0  0  0
   -4.1560   25.1287  -25.7611 C   0  0  0  0  0  0  0  0  0  0  0  0
   -5.1559   25.7928  -26.6811 C   0  0  0  0  0  0  0  0  0  0  0  0
   -6.5043   25.1566  -26.6765 C   0  0  0  0  0  0  0  0  0  0  0  0
   -7.2309   25.5795  -25.5717 O   0  0  0  0  0  0  0  0  0  0  0  0
   -6.4478   23.6478  -26.7284 C   0  0  0  0  0  0  0  0  0  0  0  0
   -5.6245   23.1366  -25.5931 C   0  0  0  0  0  0  0  0  0  0  0  0
   -7.6785   24.8432  -25.0893 H   0  0  0  0  0  0  0  0  0  0  0  0
  1  7  1  0  0  0
  7  9  1  0  0  0
  9 10  2  0  0  0
 10 11  1  0  0  0
 11 12  2  0  0  0
 12 15  1  0  0  0
 15 16  2  0  0  0
 15 18  1  0  0  0
 18 19  1  0  0  0
 18 20  1  0  0  0
 15 17  2  0  0  0
 12 13  1  0  0  0
 13 14  2  0  0  0
  1  2  2  0  0  0
  2  3  1  0  0  0
  3 21  1  0  0  0
 21 23  1  0  0  0
 23 24  1  0  0  0
 24 25  1  0  0  0
 25 26  1  0  0  0
 26 27  1  0  0  0
 26 28  1  0  0  0
 28 29  1  0  0  0
  3  4  2  0  0  0
  4  5  1  0  0  0
  5  6  2  0  0  0
  6  1  1  0  0  0
 14  9  1  0  0  0
 29 23  1  0  0  0
  7  8  1  0  0  0
 21 22  1  0  0  0
 27 30  1  0  0  0
M  END
> <minimizedAffinity>
-7.51638

> <CNNscore>
0.9407961369

> <CNNaffinity>
6.8910932541

> <CNN_VS>
6.4831137657

> <CNNaffinity_variance>
0.0649832115

$$$$
[H]O[C@]1([H])C([H])([H])C([H])([H])[C@@]([H])(N([H])c2nc(N([H])c3c([H])c([H])c(S(=O)(=O)N(C([H])([H])[H])C([H])([H])[H])c([H])c3[H])nc([H])c2[H])C([H])([H])C1([H])[H]


 30 32  0  0  0  0  0  0  0  0999 V2000
   -0.1253   22.5213  -26.7875 C   0  0  0  0  0  0  0  0  0  0  0  0
   -1.4528   22.5764  -26.4926 N   0  0  0  0  0  0  0  0  0  0  0  0
   -2.4015   22.9513  -27.3476 C   0  0  0  0  0  0  0  0  0  0  0  0
   -2.0441   23.3205  -28.6464 C   0  0  0  0  0  0  0  0  0  0  0  0
   -0.7156   23.2664  -28.9446 C   0  0  0  0  0  0  0  0  0  0  0  0
    0.1866   22.8793  -28.0346 N   0  0  0  0  0  0  0  0  0  0  0  0
    0.8155   22.1360  -25.8217 N   0  0  0  0  0  0  0  0  0  0  0  0
    1.8275   22.1048  -26.1457 H   0  0  0  0  0  0  0  0  0  0  0  0
    0.5242   21.8070  -24.5023 C   0  0  0  0  0  0  0  0  0  0  0  0
    1.5900   21.3392  -23.7314 C   0  0  0  0  0  0  0  0  0  0  0  0
    1.4524   21.0001  -22.4116 C   0  0  0  0  0  0  0  0  0  0  0  0
    0.2440   21.1004  -21.7580 C   0  0  0  0  0  0  0  0  0  0  0  0
   -0.8162   21.5592  -22.5007 C   0  0  0  0  0  0  0  0  0  0  0  0
   -0.6745   21.9063  -23.8502 C   0  0  0  0  0  0  0  0  0  0  0  0
    0.1742   20.6468  -20.0908 S   0  0  0  0  0  0  0  0  0  0  0  0
    0.7299   19.2559  -19.9510 O   0  0  0  0  0  0  0  0  0  0  0  0
   -1.2758   20.5877  -19.6871 O   0  0  0  0  0  0  0  0  0  0  0  0
    1.0785   21.6830  -19.0681 N   0  0  0  0  0  0  0  0  0  0  0  0
    0.4791   22.9661  -18.8660 C   0  0  0  0  0  0  0  0  0  0  0  0
    1.1650   21.0318  -17.7619 C   0  0  0  0  0  0  0  0  0  0  0  0
   -3.7667   22.9887  -26.9834 N   0  0  0  0  0  0  0  0  0  0  0  0
   -4.4724   22.5006  -27.5991 H   0  0  0  0  0  0  0  0  0  0  0  0
   -4.2810   23.6499  -25.8213 C   0  0  0  0  0  0  0  0  0  0  0  0
   -4.2090   25.1343  -25.8368 C   0  0  0  0  0  0  0  0  0  0  0  0
   -5.2907   25.8019  -26.6565 C   0  0  0  0  0  0  0  0  0  0  0  0
   -6.6412   25.1909  -26.4961 C   0  0  0  0  0  0  0  0  0  0  0  0
   -7.2379   25.6452  -25.3278 O   0  0  0  0  0  0  0  0  0  0  0  0
   -6.6159   23.6807  -26.5264 C   0  0  0  0  0  0  0  0  0  0  0  0
   -5.6842   23.1728  -25.4766 C   0  0  0  0  0  0  0  0  0  0  0  0
   -7.6434   24.9252  -24.7870 H   0  0  0  0  0  0  0  0  0  0  0  0
  1  7  1  0  0  0
  7  9  1  0  0  0
  9 10  2  0  0  0
 10 11  1  0  0  0
 11 12  2  0  0  0
 12 15  1  0  0  0
 15 16  2  0  0  0
 15 18  1  0  0  0
 18 19  1  0  0  0
 18 20  1  0  0  0
 15 17  2  0  0  0
 12 13  1  0  0  0
 13 14  2  0  0  0
  1  2  2  0  0  0
  2  3  1  0  0  0
  3 21  1  0  0  0
 21 23  1  0  0  0
 23 24  1  0  0  0
 24 25  1  0  0  0
 25 26  1  0  0  0
 26 27  1  0  0  0
 26 28  1  0  0  0
 28 29  1  0  0  0
  3  4  2  0  0  0
  4  5  1  0  0  0
  5  6  2  0  0  0
  6  1  1  0  0  0
 14  9  1  0  0  0
 29 23  1  0  0  0
  7  8  1  0  0  0
 21 22  1  0  0  0
 27 30  1  0  0  0
M  END
> <minimizedAffinity>
-7.76091

> <CNNscore>
0.9170069098

> <CNNaffinity>
6.8772759438

> <CNN_VS>
6.3065094948

> <CNNaffinity_variance>
0.0783905536

$$$$
[H]O[C@]1([H])C([H])([H])C([H])([H])[C@@]([H])(N([H])c2nc(N([H])c3c([H])c([H])c(S(=O)(=O)N(C([H])([H])[H])C([H])([H])[H])c([H])c3[H])nc([H])c2[H])C([H])([H])C1([H])[H]


 30 32  0  0  0  0  0  0  0  0999 V2000
   -0.2916   22.6285  -26.1034 C   0  0  0  0  0  0  0  0  0  0  0  0
   -1.6084   22.5426  -26.4361 N   0  0  0  0  0  0  0  0  0  0  0  0
   -2.1036   22.8242  -27.6391 C   0  0  0  0  0  0  0  0  0  0  0  0
   -1.2386   23.2397  -28.6540 C   0  0  0  0  0  0  0  0  0  0  0  0
    0.0806   23.3267  -28.3239 C   0  0  0  0  0  0  0  0  0  0  0  0
    0.5108   23.0277  -27.0921 N   0  0  0  0  0  0  0  0  0  0  0  0
    0.1477   22.3348  -24.8045 N   0  0  0  0  0  0  0  0  0  0  0  0
    1.1699   22.0580  -24.7116 H   0  0  0  0  0  0  0  0  0  0  0  0
   -0.6393   22.3858  -23.6592 C   0  0  0  0  0  0  0  0  0  0  0  0
   -0.8145   21.1818  -22.9745 C   0  0  0  0  0  0  0  0  0  0  0  0
   -1.5455   21.0897  -21.8200 C   0  0  0  0  0  0  0  0  0  0  0  0
   -2.1580   22.1883  -21.2585 C   0  0  0  0  0  0  0  0  0  0  0  0
   -1.9963   23.3818  -21.9183 C   0  0  0  0  0  0  0  0  0  0  0  0
   -1.2482   23.4753  -23.0987 C   0  0  0  0  0  0  0  0  0  0  0  0
   -3.0592   21.9672  -19.7993 S   0  0  0  0  0  0  0  0  0  0  0  0
   -2.8612   23.1775  -18.9281 O   0  0  0  0  0  0  0  0  0  0  0  0
   -2.4706   20.7911  -19.0650 O   0  0  0  0  0  0  0  0  0  0  0  0
   -4.7417   21.7756  -20.0642 N   0  0  0  0  0  0  0  0  0  0  0  0
   -5.5589   22.5774  -19.2064 C   0  0  0  0  0  0  0  0  0  0  0  0
   -5.0121   22.1931  -21.4390 C   0  0  0  0  0  0  0  0  0  0  0  0
   -3.4834   22.7162  -27.9259 N   0  0  0  0  0  0  0  0  0  0  0  0
   -3.8381   21.8442  -28.4044 H   0  0  0  0  0  0  0  0  0  0  0  0
   -4.4601   23.7164  -27.6131 C   0  0  0  0  0  0  0  0  0  0  0  0
   -4.0481   25.1227  -27.8610 C   0  0  0  0  0  0  0  0  0  0  0  0
   -4.1234   25.5476  -29.3105 C   0  0  0  0  0  0  0  0  0  0  0  0
   -5.3382   25.0617  -30.0255 C   0  0  0  0  0  0  0  0  0  0  0  0
   -6.4268   25.8695  -29.7259 O   0  0  0  0  0  0  0  0  0  0  0  0
   -5.6567   23.6136  -29.7362 C   0  0  0  0  0  0  0  0  0  0  0  0
   -5.8023   23.4157  -28.2639 C   0  0  0  0  0  0  0  0  0  0  0  0
   -7.2426   25.3622  -29.4975 H   0  0  0  0  0  0  0  0  0  0  0  0
  1  7  1  0  0  0
  7  9  1  0  0  0
  9 10  2  0  0  0
 10 11  1  0  0  0
 11 12  2  0  0  0
 12 15  1  0  0  0
 15 16  2  0  0  0
 15 18  1  0  0  0
 18 19  1  0  0  0
 18 20  1  0  0  0
 15 17  2  0  0  0
 12 13  1  0  0  0
 13 14  2  0  0  0
  1  2  2  0  0  0
  2  3  1  0  0  0
  3 21  1  0  0  0
 21 23  1  0  0  0
 23 24  1  0  0  0
 24 25  1  0  0  0
 25 26  1  0  0  0
 26 27  1  0  0  0
 26 28  1  0  0  0
 28 29  1  0  0  0
  3  4  2  0  0  0
  4  5  1  0  0  0
  5  6  2  0  0  0
  6  1  1  0  0  0
 14  9  1  0  0  0
 29 23  1  0  0  0
  7  8  1  0  0  0
 21 22  1  0  0  0
 27 30  1  0  0  0
M  END
> <minimizedAffinity>
-7.84930

> <CNNscore>
0.7426697016

> <CNNaffinity>
6.9581031799

> <CNN_VS>
5.1675724983

> <CNNaffinity_variance>
0.1879831553

$$$$
[H]O[C@]1([H])C([H])([H])C([H])([H])[C@@]([H])(N([H])c2nc(N([H])c3c([H])c([H])c(S(=O)(=O)N(C([H])([H])[H])C([H])([H])[H])c([H])c3[H])nc([H])c2[H])C([H])([H])C1([H])[H]


 30 32  0  0  0  0  0  0  0  0999 V2000
   -1.0121   22.2429  -25.9324 C   0  0  0  0  0  0  0  0  0  0  0  0
   -2.1504   22.3639  -26.6685 N   0  0  0  0  0  0  0  0  0  0  0  0
   -2.1932   22.7897  -27.9288 C   0  0  0  0  0  0  0  0  0  0  0  0
   -1.0048   23.1455  -28.5708 C   0  0  0  0  0  0  0  0  0  0  0  0
    0.1366   23.0253  -27.8363 C   0  0  0  0  0  0  0  0  0  0  0  0
    0.1072   22.5895  -26.5710 N   0  0  0  0  0  0  0  0  0  0  0  0
   -1.0542   21.8066  -24.6004 N   0  0  0  0  0  0  0  0  0  0  0  0
   -2.0241   21.6709  -24.1866 H   0  0  0  0  0  0  0  0  0  0  0  0
    0.0559   21.5397  -23.8066 C   0  0  0  0  0  0  0  0  0  0  0  0
   -0.1923   21.3124  -22.4517 C   0  0  0  0  0  0  0  0  0  0  0  0
    0.8034   21.0161  -21.5591 C   0  0  0  0  0  0  0  0  0  0  0  0
    2.1220   20.9233  -21.9464 C   0  0  0  0  0  0  0  0  0  0  0  0
    2.3853   21.1436  -23.2761 C   0  0  0  0  0  0  0  0  0  0  0  0
    1.3664   21.4462  -24.1883 C   0  0  0  0  0  0  0  0  0  0  0  0
    3.3046   20.5446  -20.7429 S   0  0  0  0  0  0  0  0  0  0  0  0
    4.3668   19.6848  -21.3716 O   0  0  0  0  0  0  0  0  0  0  0  0
    2.6341   19.7147  -19.6796 O   0  0  0  0  0  0  0  0  0  0  0  0
    4.0676   21.9301  -20.0829 N   0  0  0  0  0  0  0  0  0  0  0  0
    3.3891   22.4820  -18.9508 C   0  0  0  0  0  0  0  0  0  0  0  0
    5.3974   21.5185  -19.6359 C   0  0  0  0  0  0  0  0  0  0  0  0
   -3.4079   22.8947  -28.6438 N   0  0  0  0  0  0  0  0  0  0  0  0
   -3.5216   22.3466  -29.5393 H   0  0  0  0  0  0  0  0  0  0  0  0
   -4.5209   23.7025  -28.2427 C   0  0  0  0  0  0  0  0  0  0  0  0
   -4.2709   25.1665  -28.1873 C   0  0  0  0  0  0  0  0  0  0  0  0
   -4.2975   25.8544  -29.5339 C   0  0  0  0  0  0  0  0  0  0  0  0
   -5.3897   25.3875  -30.4351 C   0  0  0  0  0  0  0  0  0  0  0  0
   -6.5886   25.9981  -30.0928 O   0  0  0  0  0  0  0  0  0  0  0  0
   -5.5447   23.8848  -30.4492 C   0  0  0  0  0  0  0  0  0  0  0  0
   -5.7667   23.3898  -29.0586 C   0  0  0  0  0  0  0  0  0  0  0  0
   -7.3488   25.3703  -30.0382 H   0  0  0  0  0  0  0  0  0  0  0  0
  1  7  1  0  0  0
  7  9  1  0  0  0
  9 10  2  0  0  0
 10 11  1  0  0  0
 11 12  2  0  0  0
 12 15  1  0  0  0
 15 16  2  0  0  0
 15 18  1  0  0  0
 18 19  1  0  0  0
 18 20  1  0  0  0
 15 17  2  0  0  0
 12 13  1  0  0  0
 13 14  2  0  0  0
  1  2  2  0  0  0
  2  3  1  0  0  0
  3 21  1  0  0  0
 21 23  1  0  0  0
 23 24  1  0  0  0
 24 25  1  0  0  0
 25 26  1  0  0  0
 26 27  1  0  0  0
 26 28  1  0  0  0
 28 29  1  0  0  0
  3  4  2  0  0  0
  4  5  1  0  0  0
  5  6  2  0  0  0
  6  1  1  0  0  0
 14  9  1  0  0  0
 29 23  1  0  0  0
  7  8  1  0  0  0
 21 22  1  0  0  0
 27 30  1  0  0  0
M  END
> <minimizedAffinity>
-8.28558

> <CNNscore>
0.6899607778

> <CNNaffinity>
6.6589841843

> <CNN_VS>
4.5944380760

> <CNNaffinity_variance>
0.1155371070

$$$$
[H]O[C@]1([H])C([H])([H])C([H])([H])[C@@]([H])(N([H])c2nc(N([H])c3c([H])c([H])c(S(=O)(=O)N(C([H])([H])[H])C([H])([H])[H])c([H])c3[H])nc([H])c2[H])C([H])([H])C1([H])[H]


 30 32  0  0  0  0  0  0  0  0999 V2000
   -1.5930   22.0037  -24.9138 C   0  0  0  0  0  0  0  0  0  0  0  0
   -2.5113   22.2606  -25.8848 N   0  0  0  0  0  0  0  0  0  0  0  0
   -2.2130   22.6388  -27.1256 C   0  0  0  0  0  0  0  0  0  0  0  0
   -0.8734   22.7924  -27.4899 C   0  0  0  0  0  0  0  0  0  0  0  0
    0.0485   22.5359  -26.5197 C   0  0  0  0  0  0  0  0  0  0  0  0
   -0.3220   22.1585  -25.2901 N   0  0  0  0  0  0  0  0  0  0  0  0
   -1.9904   21.6303  -23.6219 N   0  0  0  0  0  0  0  0  0  0  0  0
   -3.0111   21.3544  -23.5117 H   0  0  0  0  0  0  0  0  0  0  0  0
   -1.1616   21.5907  -22.5060 C   0  0  0  0  0  0  0  0  0  0  0  0
   -1.3153   22.6276  -21.5838 C   0  0  0  0  0  0  0  0  0  0  0  0
   -0.5819   22.7026  -20.4295 C   0  0  0  0  0  0  0  0  0  0  0  0
    0.3604   21.7518  -20.1046 C   0  0  0  0  0  0  0  0  0  0  0  0
    0.5252   20.7238  -21.0002 C   0  0  0  0  0  0  0  0  0  0  0  0
   -0.2255   20.6476  -22.1802 C   0  0  0  0  0  0  0  0  0  0  0  0
    1.2344   21.9372  -18.6241 S   0  0  0  0  0  0  0  0  0  0  0  0
    1.6272   20.5726  -18.1277 O   0  0  0  0  0  0  0  0  0  0  0  0
    0.2970   22.5275  -17.6035 O   0  0  0  0  0  0  0  0  0  0  0  0
    2.6623   22.8701  -18.7923 N   0  0  0  0  0  0  0  0  0  0  0  0
    2.9169   23.7450  -17.6894 C   0  0  0  0  0  0  0  0  0  0  0  0
    3.7823   21.9338  -18.8734 C   0  0  0  0  0  0  0  0  0  0  0  0
   -3.2121   22.8919  -28.0929 N   0  0  0  0  0  0  0  0  0  0  0  0
   -3.1371   22.4258  -29.0375 H   0  0  0  0  0  0  0  0  0  0  0  0
   -4.3424   23.7483  -27.8903 C   0  0  0  0  0  0  0  0  0  0  0  0
   -4.1326   25.1836  -28.2137 C   0  0  0  0  0  0  0  0  0  0  0  0
   -4.1938   25.5048  -29.6904 C   0  0  0  0  0  0  0  0  0  0  0  0
   -5.2829   24.7977  -30.4230 C   0  0  0  0  0  0  0  0  0  0  0  0
   -6.4942   25.4465  -30.2256 O   0  0  0  0  0  0  0  0  0  0  0  0
   -5.3963   23.3378  -30.0515 C   0  0  0  0  0  0  0  0  0  0  0  0
   -5.5884   23.2083  -28.5769 C   0  0  0  0  0  0  0  0  0  0  0  0
   -7.2360   24.8353  -29.9992 H   0  0  0  0  0  0  0  0  0  0  0  0
  1  7  1  0  0  0
  7  9  1  0  0  0
  9 10  2  0  0  0
 10 11  1  0  0  0
 11 12  2  0  0  0
 12 15  1  0  0  0
 15 16  2  0  0  0
 15 18  1  0  0  0
 18 19  1  0  0  0
 18 20  1  0  0  0
 15 17  2  0  0  0
 12 13  1  0  0  0
 13 14  2  0  0  0
  1  2  2  0  0  0
  2  3  1  0  0  0
  3 21  1  0  0  0
 21 23  1  0  0  0
 23 24  1  0  0  0
 24 25  1  0  0  0
 25 26  1  0  0  0
 26 27  1  0  0  0
 26 28  1  0  0  0
 28 29  1  0  0  0
  3  4  2  0  0  0
  4  5  1  0  0  0
  5  6  2  0  0  0
  6  1  1  0  0  0
 14  9  1  0  0  0
 29 23  1  0  0  0
  7  8  1  0  0  0
 21 22  1  0  0  0
 27 30  1  0  0  0
M  END
> <minimizedAffinity>
-7.88278

> <CNNscore>
0.2217621952

> <CNNaffinity>
6.1322541237

> <CNN_VS>
1.3599021435

> <CNNaffinity_variance>
0.0904136673

$$$$
[H]O[C@]1([H])C([H])([H])C([H])([H])[C@@]([H])(N([H])c2nc(N([H])c3c([H])c([H])c(S(=O)(=O)N(C([H])([H])[H])C([H])([H])[H])c([H])c3[H])nc([H])c2[H])C([H])([H])C1([H])[H]


 30 32  0  0  0  0  0  0  0  0999 V2000
   -1.0060   21.9700  -24.1032 C   0  0  0  0  0  0  0  0  0  0  0  0
   -2.2141   21.9032  -23.4803 N   0  0  0  0  0  0  0  0  0  0  0  0
   -2.3866   21.5898  -22.1982 C   0  0  0  0  0  0  0  0  0  0  0  0
   -1.2706   21.3038  -21.4084 C   0  0  0  0  0  0  0  0  0  0  0  0
   -0.0595   21.3699  -22.0294 C   0  0  0  0  0  0  0  0  0  0  0  0
    0.0416   21.6921  -23.3247 N   0  0  0  0  0  0  0  0  0  0  0  0
   -0.9106   22.2867  -25.4659 N   0  0  0  0  0  0  0  0  0  0  0  0
    0.0439   22.1408  -25.9108 H   0  0  0  0  0  0  0  0  0  0  0  0
   -1.9527   22.7595  -26.2560 C   0  0  0  0  0  0  0  0  0  0  0  0
   -1.9255   22.3902  -27.6021 C   0  0  0  0  0  0  0  0  0  0  0  0
   -2.8990   22.7652  -28.4895 C   0  0  0  0  0  0  0  0  0  0  0  0
   -3.9739   23.5362  -28.1054 C   0  0  0  0  0  0  0  0  0  0  0  0
   -4.0176   23.9089  -26.7843 C   0  0  0  0  0  0  0  0  0  0  0  0
   -3.0218   23.5246  -25.8774 C   0  0  0  0  0  0  0  0  0  0  0  0
   -5.1493   23.9571  -29.3018 S   0  0  0  0  0  0  0  0  0  0  0  0
   -6.2861   24.6717  -28.6235 O   0  0  0  0  0  0  0  0  0  0  0  0
   -5.7066   22.6796  -29.8733 O   0  0  0  0  0  0  0  0  0  0  0  0
   -4.5324   24.9864  -30.5255 N   0  0  0  0  0  0  0  0  0  0  0  0
   -5.5399   25.7152  -31.2328 C   0  0  0  0  0  0  0  0  0  0  0  0
   -3.6661   25.9648  -29.8698 C   0  0  0  0  0  0  0  0  0  0  0  0
   -3.6686   21.5363  -21.6054 N   0  0  0  0  0  0  0  0  0  0  0  0
   -3.9999   20.6245  -21.1882 H   0  0  0  0  0  0  0  0  0  0  0  0
   -4.5740   22.6433  -21.5237 C   0  0  0  0  0  0  0  0  0  0  0  0
   -5.4163   22.8801  -22.7251 C   0  0  0  0  0  0  0  0  0  0  0  0
   -6.6073   21.9555  -22.8430 C   0  0  0  0  0  0  0  0  0  0  0  0
   -7.3179   21.7100  -21.5554 C   0  0  0  0  0  0  0  0  0  0  0  0
   -8.1635   22.7717  -21.2638 O   0  0  0  0  0  0  0  0  0  0  0  0
   -6.3793   21.4469  -20.4013 C   0  0  0  0  0  0  0  0  0  0  0  0
   -5.4230   22.5845  -20.2622 C   0  0  0  0  0  0  0  0  0  0  0  0
   -8.0929   23.0866  -20.3305 H   0  0  0  0  0  0  0  0  0  0  0  0
  1  7  1  0  0  0
  7  9  1  0  0  0
  9 10  2  0  0  0
 10 11  1  0  0  0
 11 12  2  0  0  0
 12 15  1  0  0  0
 15 16  2  0  0  0
 15 18  1  0  0  0
 18 19  1  0  0  0
 18 20  1  0  0  0
 15 17  2  0  0  0
 12 13  1  0  0  0
 13 14  2  0  0  0
  1  2  2  0  0  0
  2  3  1  0  0  0
  3 21  1  0  0  0
 21 23  1  0  0  0
 23 24  1  0  0  0
 24 25  1  0  0  0
 25 26  1  0  0  0
 26 27  1  0  0  0
 26 28  1  0  0  0
 28 29  1  0  0  0
  3  4  2  0  0  0
  4  5  1  0  0  0
  5  6  2  0  0  0
  6  1  1  0  0  0
 14  9  1  0  0  0
 29 23  1  0  0  0
  7  8  1  0  0  0
 21 22  1  0  0  0
 27 30  1  0  0  0
M  END
> <minimizedAffinity>
-7.48346

> <CNNscore>
0.2023018152

> <CNNaffinity>
6.4850301743

> <CNN_VS>
1.3119333982

> <CNNaffinity_variance>
0.1520135254

$$$$
[H]O[C@]1([H])C([H])([H])C([H])([H])[C@@]([H])(N([H])c2nc(N([H])c3c([H])c([H])c(S(=O)(=O)N(C([H])([H])[H])C([H])([H])[H])c([H])c3[H])nc([H])c2[H])C([H])([H])C1([H])[H]


 30 32  0  0  0  0  0  0  0  0999 V2000
   -0.9896   22.0708  -25.5342 C   0  0  0  0  0  0  0  0  0  0  0  0
   -2.0438   22.2704  -26.3714 N   0  0  0  0  0  0  0  0  0  0  0  0
   -1.9402   22.6978  -27.6277 C   0  0  0  0  0  0  0  0  0  0  0  0
   -0.6758   22.9700  -28.1550 C   0  0  0  0  0  0  0  0  0  0  0  0
    0.3817   22.7711  -27.3190 C   0  0  0  0  0  0  0  0  0  0  0  0
    0.2053   22.3387  -26.0645 N   0  0  0  0  0  0  0  0  0  0  0  0
   -1.1849   21.6388  -24.2144 N   0  0  0  0  0  0  0  0  0  0  0  0
   -0.4425   20.9849  -23.8253 H   0  0  0  0  0  0  0  0  0  0  0  0
   -2.2510   22.0027  -23.3991 C   0  0  0  0  0  0  0  0  0  0  0  0
   -2.0914   23.1751  -22.6581 C   0  0  0  0  0  0  0  0  0  0  0  0
   -3.0682   23.6639  -21.8318 C   0  0  0  0  0  0  0  0  0  0  0  0
   -4.2784   23.0238  -21.6798 C   0  0  0  0  0  0  0  0  0  0  0  0
   -4.4535   21.8686  -22.4015 C   0  0  0  0  0  0  0  0  0  0  0  0
   -3.4542   21.3695  -23.2465 C   0  0  0  0  0  0  0  0  0  0  0  0
   -5.4458   23.7217  -20.6119 S   0  0  0  0  0  0  0  0  0  0  0  0
   -6.7736   23.0585  -20.8574 O   0  0  0  0  0  0  0  0  0  0  0  0
   -5.6006   25.1740  -20.9803 O   0  0  0  0  0  0  0  0  0  0  0  0
   -5.0534   23.5229  -18.9554 N   0  0  0  0  0  0  0  0  0  0  0  0
   -6.0701   23.9811  -18.0594 C   0  0  0  0  0  0  0  0  0  0  0  0
   -4.8803   22.0900  -18.7221 C   0  0  0  0  0  0  0  0  0  0  0  0
   -3.0734   22.8868  -28.4511 N   0  0  0  0  0  0  0  0  0  0  0  0
   -3.1212   22.3809  -29.3768 H   0  0  0  0  0  0  0  0  0  0  0  0
   -4.1860   23.7277  -28.1236 C   0  0  0  0  0  0  0  0  0  0  0  0
   -4.0082   25.1756  -28.4083 C   0  0  0  0  0  0  0  0  0  0  0  0
   -4.1920   25.5519  -29.8616 C   0  0  0  0  0  0  0  0  0  0  0  0
   -5.3355   24.8659  -30.5286 C   0  0  0  0  0  0  0  0  0  0  0  0
   -6.5286   25.4991  -30.2075 O   0  0  0  0  0  0  0  0  0  0  0  0
   -5.4131   23.3923  -30.2049 C   0  0  0  0  0  0  0  0  0  0  0  0
   -5.4825   23.2060  -28.7255 C   0  0  0  0  0  0  0  0  0  0  0  0
   -7.2472   24.8750  -29.9443 H   0  0  0  0  0  0  0  0  0  0  0  0
  1  7  1  0  0  0
  7  9  1  0  0  0
  9 10  2  0  0  0
 10 11  1  0  0  0
 11 12  2  0  0  0
 12 15  1  0  0  0
 15 16  2  0  0  0
 15 18  1  0  0  0
 18 19  1  0  0  0
 18 20  1  0  0  0
 15 17  2  0  0  0
 12 13  1  0  0  0
 13 14  2  0  0  0
  1  2  2  0  0  0
  2  3  1  0  0  0
  3 21  1  0  0  0
 21 23  1  0  0  0
 23 24  1  0  0  0
 24 25  1  0  0  0
 25 26  1  0  0  0
 26 27  1  0  0  0
 26 28  1  0  0  0
 28 29  1  0  0  0
  3  4  2  0  0  0
  4  5  1  0  0  0
  5  6  2  0  0  0
  6  1  1  0  0  0
 14  9  1  0  0  0
 29 23  1  0  0  0
  7  8  1  0  0  0
 21 22  1  0  0  0
 27 30  1  0  0  0
M  END
> <minimizedAffinity>
-8.37966

> <CNNscore>
0.1968196929

> <CNNaffinity>
6.4122734070

> <CNN_VS>
1.2620617151

> <CNNaffinity_variance>
0.1127861515

$$$$
[H]O[C@]1([H])C([H])([H])C([H])([H])[C@@]([H])(N([H])c2nc(N([H])c3c([H])c([H])c(S(=O)(=O)N(C([H])([H])[H])C([H])([H])[H])c([H])c3[H])nc([H])c2[H])C([H])([H])C1([H])[H]


 30 32  0  0  0  0  0  0  0  0999 V2000
   -0.3683   21.9916  -23.9969 C   0  0  0  0  0  0  0  0  0  0  0  0
   -1.5705   22.2849  -24.5633 N   0  0  0  0  0  0  0  0  0  0  0  0
   -1.7729   22.4361  -25.8702 C   0  0  0  0  0  0  0  0  0  0  0  0
   -0.6978   22.2902  -26.7497 C   0  0  0  0  0  0  0  0  0  0  0  0
    0.5073   21.9965  -26.1854 C   0  0  0  0  0  0  0  0  0  0  0  0
    0.6401   21.8580  -24.8607 N   0  0  0  0  0  0  0  0  0  0  0  0
   -0.2335   21.8701  -22.6064 N   0  0  0  0  0  0  0  0  0  0  0  0
   -0.6413   22.6643  -22.0292 H   0  0  0  0  0  0  0  0  0  0  0  0
    0.3749   20.8072  -21.9477 C   0  0  0  0  0  0  0  0  0  0  0  0
    1.7695   20.7649  -21.9975 C   0  0  0  0  0  0  0  0  0  0  0  0
    2.5003   19.7882  -21.3748 C   0  0  0  0  0  0  0  0  0  0  0  0
    1.8995   18.7791  -20.6549 C   0  0  0  0  0  0  0  0  0  0  0  0
    0.5277   18.8046  -20.5947 C   0  0  0  0  0  0  0  0  0  0  0  0
   -0.2189   19.8040  -21.2314 C   0  0  0  0  0  0  0  0  0  0  0  0
    2.9107   17.5928  -19.9063 S   0  0  0  0  0  0  0  0  0  0  0  0
    4.3419   17.8964  -20.2562 O   0  0  0  0  0  0  0  0  0  0  0  0
    2.5806   16.2538  -20.5120 O   0  0  0  0  0  0  0  0  0  0  0  0
    2.7774   17.5694  -18.1977 N   0  0  0  0  0  0  0  0  0  0  0  0
    3.7326   16.7219  -17.5529 C   0  0  0  0  0  0  0  0  0  0  0  0
    3.0171   18.9329  -17.7277 C   0  0  0  0  0  0  0  0  0  0  0  0
   -3.0469   22.7411  -26.4011 N   0  0  0  0  0  0  0  0  0  0  0  0
   -3.8619   22.1127  -26.1642 H   0  0  0  0  0  0  0  0  0  0  0  0
   -3.3271   23.8580  -27.2531 C   0  0  0  0  0  0  0  0  0  0  0  0
   -3.3563   23.5684  -28.7105 C   0  0  0  0  0  0  0  0  0  0  0  0
   -4.6357   22.9210  -29.1915 C   0  0  0  0  0  0  0  0  0  0  0  0
   -5.8730   23.4961  -28.5904 C   0  0  0  0  0  0  0  0  0  0  0  0
   -6.2186   24.6743  -29.2383 O   0  0  0  0  0  0  0  0  0  0  0  0
   -5.7579   23.7236  -27.1013 C   0  0  0  0  0  0  0  0  0  0  0  0
   -4.5826   24.5985  -26.8162 C   0  0  0  0  0  0  0  0  0  0  0  0
   -6.4444   25.4114  -28.6212 H   0  0  0  0  0  0  0  0  0  0  0  0
  1  7  1  0  0  0
  7  9  1  0  0  0
  9 10  2  0  0  0
 10 11  1  0  0  0
 11 12  2  0  0  0
 12 15  1  0  0  0
 15 16  2  0  0  0
 15 18  1  0  0  0
 18 19  1  0  0  0
 18 20  1  0  0  0
 15 17  2  0  0  0
 12 13  1  0  0  0
 13 14  2  0  0  0
  1  2  2  0  0  0
  2  3  1  0  0  0
  3 21  1  0  0  0
 21 23  1  0  0  0
 23 24  1  0  0  0
 24 25  1  0  0  0
 25 26  1  0  0  0
 26 27  1  0  0  0
 26 28  1  0  0  0
 28 29  1  0  0  0
  3  4  2  0  0  0
  4  5  1  0  0  0
  5  6  2  0  0  0
  6  1  1  0  0  0
 14  9  1  0  0  0
 29 23  1  0  0  0
  7  8  1  0  0  0
 21 22  1  0  0  0
 27 30  1  0  0  0
M  END
> <minimizedAffinity>
-6.59692

> <CNNscore>
0.1510094404

> <CNNaffinity>
5.8335790634

> <CNN_VS>
0.8809255362

> <CNNaffinity_variance>
0.1188928634

$$$$
[H]O[C@]1([H])C([H])([H])C([H])([H])[C@@]([H])(N([H])c2nc(N([H])c3c([H])c([H])c(S(=O)(=O)N(C([H])([H])[H])C([H])([H])[H])c([H])c3[H])nc([H])c2[H])C([H])([H])C1([H])[H]


 30 32  0  0  0  0  0  0  0  0999 V2000
   -1.1539   21.9264  -24.7565 C   0  0  0  0  0  0  0  0  0  0  0  0
   -2.0701   22.1343  -25.7411 N   0  0  0  0  0  0  0  0  0  0  0  0
   -1.7684   22.3783  -27.0143 C   0  0  0  0  0  0  0  0  0  0  0  0
   -0.4272   22.4314  -27.4009 C   0  0  0  0  0  0  0  0  0  0  0  0
    0.4925   22.2235  -26.4171 C   0  0  0  0  0  0  0  0  0  0  0  0
    0.1186   21.9828  -25.1546 N   0  0  0  0  0  0  0  0  0  0  0  0
   -1.5538   21.6968  -23.4321 N   0  0  0  0  0  0  0  0  0  0  0  0
   -1.0236   20.9361  -22.9122 H   0  0  0  0  0  0  0  0  0  0  0  0
   -2.5648   22.3824  -22.7676 C   0  0  0  0  0  0  0  0  0  0  0  0
   -3.2303   21.6804  -21.7609 C   0  0  0  0  0  0  0  0  0  0  0  0
   -4.2307   22.2386  -21.0103 C   0  0  0  0  0  0  0  0  0  0  0  0
   -4.6454   23.5379  -21.2040 C   0  0  0  0  0  0  0  0  0  0  0  0
   -4.0016   24.2442  -22.1902 C   0  0  0  0  0  0  0  0  0  0  0  0
   -2.9784   23.6727  -22.9570 C   0  0  0  0  0  0  0  0  0  0  0  0
   -5.9170   24.1495  -20.2045 S   0  0  0  0  0  0  0  0  0  0  0  0
   -5.9539   25.6470  -20.3421 O   0  0  0  0  0  0  0  0  0  0  0  0
   -5.5674   23.8444  -18.7714 O   0  0  0  0  0  0  0  0  0  0  0  0
   -7.4629   23.5413  -20.6264 N   0  0  0  0  0  0  0  0  0  0  0  0
   -8.5430   24.1679  -19.9285 C   0  0  0  0  0  0  0  0  0  0  0  0
   -7.6549   23.8029  -22.0520 C   0  0  0  0  0  0  0  0  0  0  0  0
   -2.7654   22.5868  -27.9943 N   0  0  0  0  0  0  0  0  0  0  0  0
   -3.0918   21.7655  -28.5725 H   0  0  0  0  0  0  0  0  0  0  0  0
   -3.3816   23.8497  -28.2723 C   0  0  0  0  0  0  0  0  0  0  0  0
   -4.4258   23.8410  -29.3298 C   0  0  0  0  0  0  0  0  0  0  0  0
   -5.7706   23.3211  -28.8730 C   0  0  0  0  0  0  0  0  0  0  0  0
   -6.1803   23.7965  -27.5206 C   0  0  0  0  0  0  0  0  0  0  0  0
   -6.6977   25.0823  -27.6000 O   0  0  0  0  0  0  0  0  0  0  0  0
   -5.0614   23.7366  -26.5072 C   0  0  0  0  0  0  0  0  0  0  0  0
   -3.8913   24.5188  -27.0042 C   0  0  0  0  0  0  0  0  0  0  0  0
   -6.3398   25.6941  -26.9124 H   0  0  0  0  0  0  0  0  0  0  0  0
  1  7  1  0  0  0
  7  9  1  0  0  0
  9 10  2  0  0  0
 10 11  1  0  0  0
 11 12  2  0  0  0
 12 15  1  0  0  0
 15 16  2  0  0  0
 15 18  1  0  0  0
 18 19  1  0  0  0
 18 20  1  0  0  0
 15 17  2  0  0  0
 12 13  1  0  0  0
 13 14  2  0  0  0
  1  2  2  0  0  0
  2  3  1  0  0  0
  3 21  1  0  0  0
 21 23  1  0  0  0
 23 24  1  0  0  0
 24 25  1  0  0  0
 25 26  1  0  0  0
 26 27  1  0  0  0
 26 28  1  0  0  0
 28 29  1  0  0  0
  3  4  2  0  0  0
  4  5  1  0  0  0
  5  6  2  0  0  0
  6  1  1  0  0  0
 14  9  1  0  0  0
 29 23  1  0  0  0
  7  8  1  0  0  0
 21 22  1  0  0  0
 27 30  1  0  0  0
M  END
> <minimizedAffinity>
-7.58888

> <CNNscore>
0.1127840579

> <CNNaffinity>
6.1535406113

> <CNN_VS>
0.6940212846

> <CNNaffinity_variance>
0.0999588221

$$$$
[H]c1c([H])c([H])c(C([H])([H])[C@@]([H])(C(=O)N([H])[C@]([H])(C(=O)N([H])[C@]([H])(C(=O)N([H])[H])C([H])([H])c2c([H])c([H])c([H])c([H])c2[H])C([H])([H])C([H])(C([H])([H])[H])C([H])([H])[H])N([H])[H])c([H])c1[H]


 37 38  0  0  0  0  0  0  0  0999 V2000
   -4.0980   23.4952  -24.4560 C   0  0  0  0  0  0  0  0  0  0  0  0
   -3.5026   23.3102  -23.1788 N   0  0  0  0  0  0  0  0  0  0  0  0
   -4.3351   23.3004  -22.0283 C   0  0  0  0  0  0  0  0  0  0  0  0
   -5.6014   23.4544  -22.1219 O   0  0  0  0  0  0  0  0  0  0  0  0
   -2.4797   23.1788  -23.0139 H   0  0  0  0  0  0  0  0  0  0  0  0
   -3.8316   23.1158  -20.6440 C   0  0  0  0  0  0  0  0  0  0  0  0
   -4.8848   23.2875  -19.6611 N   0  0  0  0  0  0  0  0  0  0  0  0
   -5.4160   24.1767  -19.8128 H   0  0  0  0  0  0  0  0  0  0  0  0
   -4.4543   23.4119  -18.6950 H   0  0  0  0  0  0  0  0  0  0  0  0
   -3.2088   21.7565  -20.5767 C   0  0  0  0  0  0  0  0  0  0  0  0
   -1.7933   21.8907  -20.1790 C   0  0  0  0  0  0  0  0  0  0  0  0
   -1.4401   22.8538  -19.2620 C   0  0  0  0  0  0  0  0  0  0  0  0
   -0.1133   22.9688  -18.8988 C   0  0  0  0  0  0  0  0  0  0  0  0
    0.8359   22.1358  -19.4443 C   0  0  0  0  0  0  0  0  0  0  0  0
    0.4634   21.1714  -20.3663 C   0  0  0  0  0  0  0  0  0  0  0  0
   -0.8691   21.0452  -20.7405 C   0  0  0  0  0  0  0  0  0  0  0  0
   -3.2939   22.7185  -25.4435 C   0  0  0  0  0  0  0  0  0  0  0  0
   -3.3124   21.4499  -25.4411 O   0  0  0  0  0  0  0  0  0  0  0  0
   -2.4868   23.3661  -26.4122 N   0  0  0  0  0  0  0  0  0  0  0  0
   -2.4761   24.4073  -26.4100 H   0  0  0  0  0  0  0  0  0  0  0  0
   -1.7033   22.6184  -27.3740 C   0  0  0  0  0  0  0  0  0  0  0  0
   -0.3065   22.4863  -26.8950 C   0  0  0  0  0  0  0  0  0  0  0  0
   -0.0091   22.0388  -25.5871 N   0  0  0  0  0  0  0  0  0  0  0  0
    0.6787   22.7686  -27.6370 O   0  0  0  0  0  0  0  0  0  0  0  0
   -0.5890   22.3045  -24.7515 H   0  0  0  0  0  0  0  0  0  0  0  0
    0.8139   21.4221  -25.4365 H   0  0  0  0  0  0  0  0  0  0  0  0
   -1.7711   23.3719  -28.6858 C   0  0  0  0  0  0  0  0  0  0  0  0
   -3.1578   23.7079  -29.0621 C   0  0  0  0  0  0  0  0  0  0  0  0
   -3.4313   25.0062  -29.4402 C   0  0  0  0  0  0  0  0  0  0  0  0
   -4.7007   25.3698  -29.7985 C   0  0  0  0  0  0  0  0  0  0  0  0
   -5.7084   24.4436  -29.7831 C   0  0  0  0  0  0  0  0  0  0  0  0
   -5.4551   23.1339  -29.4065 C   0  0  0  0  0  0  0  0  0  0  0  0
   -4.1808   22.7693  -29.0470 C   0  0  0  0  0  0  0  0  0  0  0  0
   -4.1628   24.8977  -24.9467 C   0  0  0  0  0  0  0  0  0  0  0  0
   -5.3099   26.4157  -26.4416 C   0  0  0  0  0  0  0  0  0  0  0  0
   -5.5278   25.3737  -25.3432 C   0  0  0  0  0  0  0  0  0  0  0  0
   -6.3614   24.2740  -25.9679 C   0  0  0  0  0  0  0  0  0  0  0  0
 35 36  1  0  0  0
 36 37  1  0  0  0
 36 34  1  0  0  0
 34  1  1  0  0  0
  1  2  1  0  0  0
  2  3  1  0  0  0
  3  4  2  0  0  0
  3  6  1  0  0  0
  6  7  1  0  0  0
  6 10  1  0  0  0
 10 11  1  0  0  0
 11 12  2  0  0  0
 12 13  1  0  0  0
 13 14  2  0  0  0
 14 15  1  0  0  0
 15 16  2  0  0  0
  1 17  1  0  0  0
 17 18  2  0  0  0
 17 19  1  0  0  0
 19 21  1  0  0  0
 21 27  1  0  0  0
 27 28  1  0  0  0
 28 29  2  0  0  0
 29 30  1  0  0  0
 30 31  2  0  0  0
 31 32  1  0  0  0
 32 33  2  0  0  0
 21 22  1  0  0  0
 22 23  1  0  0  0
 22 24  2  0  0  0
 16 11  1  0  0  0
 33 28  1  0  0  0
  2  5  1  0  0  0
  7  8  1  0  0  0
  7  9  1  0  0  0
 19 20  1  0  0  0
 23 25  1  0  0  0
 23 26  1  0  0  0
M  END
> <minimizedAffinity>
-7.34994

> <CNNscore>
0.3305005133

> <CNNaffinity>
6.6454973221

> <CNN_VS>
2.1963403225

> <CNNaffinity_variance>
0.0860234872

$$$$
[H]c1c([H])c([H])c(C([H])([H])[C@@]([H])(C(=O)N([H])[C@]([H])(C(=O)N([H])[C@]([H])(C(=O)N([H])[H])C([H])([H])c2c([H])c([H])c([H])c([H])c2[H])C([H])([H])C([H])(C([H])([H])[H])C([H])([H])[H])N([H])[H])c([H])c1[H]


 37 38  0  0  0  0  0  0  0  0999 V2000
   -3.0322   22.6431  -23.6314 C   0  0  0  0  0  0  0  0  0  0  0  0
   -4.4352   22.8281  -23.5000 N   0  0  0  0  0  0  0  0  0  0  0  0
   -4.9164   23.8022  -22.5854 C   0  0  0  0  0  0  0  0  0  0  0  0
   -4.1144   24.5095  -21.8836 O   0  0  0  0  0  0  0  0  0  0  0  0
   -5.1572   22.2936  -24.0327 H   0  0  0  0  0  0  0  0  0  0  0  0
   -6.3560   24.0868  -22.3608 C   0  0  0  0  0  0  0  0  0  0  0  0
   -6.7269   23.9181  -20.9684 N   0  0  0  0  0  0  0  0  0  0  0  0
   -6.4042   22.9970  -20.5897 H   0  0  0  0  0  0  0  0  0  0  0  0
   -7.7874   23.8679  -20.8853 H   0  0  0  0  0  0  0  0  0  0  0  0
   -6.6148   25.4765  -22.8524 C   0  0  0  0  0  0  0  0  0  0  0  0
   -6.5050   25.4985  -24.3246 C   0  0  0  0  0  0  0  0  0  0  0  0
   -7.3229   24.6834  -25.0728 C   0  0  0  0  0  0  0  0  0  0  0  0
   -7.2102   24.7134  -26.4484 C   0  0  0  0  0  0  0  0  0  0  0  0
   -6.2972   25.5429  -27.0572 C   0  0  0  0  0  0  0  0  0  0  0  0
   -5.4813   26.3573  -26.2891 C   0  0  0  0  0  0  0  0  0  0  0  0
   -5.5848   26.3366  -24.9034 C   0  0  0  0  0  0  0  0  0  0  0  0
   -2.7513   22.3376  -25.0642 C   0  0  0  0  0  0  0  0  0  0  0  0
   -2.9950   21.1879  -25.5424 O   0  0  0  0  0  0  0  0  0  0  0  0
   -2.2065   23.3141  -25.9352 N   0  0  0  0  0  0  0  0  0  0  0  0
   -2.0094   24.2560  -25.5374 H   0  0  0  0  0  0  0  0  0  0  0  0
   -1.9311   23.0244  -27.3274 C   0  0  0  0  0  0  0  0  0  0  0  0
   -0.5171   22.6085  -27.4873 C   0  0  0  0  0  0  0  0  0  0  0  0
    0.1385   21.8170  -26.5162 N   0  0  0  0  0  0  0  0  0  0  0  0
    0.1627   22.9445  -28.5001 O   0  0  0  0  0  0  0  0  0  0  0  0
   -0.0248   21.9350  -25.4845 H   0  0  0  0  0  0  0  0  0  0  0  0
    0.8103   21.0868  -26.8258 H   0  0  0  0  0  0  0  0  0  0  0  0
   -2.2309   24.2844  -28.1122 C   0  0  0  0  0  0  0  0  0  0  0  0
   -3.4533   24.1525  -28.9282 C   0  0  0  0  0  0  0  0  0  0  0  0
   -4.1372   22.9552  -28.8841 C   0  0  0  0  0  0  0  0  0  0  0  0
   -5.2763   22.7813  -29.6217 C   0  0  0  0  0  0  0  0  0  0  0  0
   -5.7439   23.7982  -30.4096 C   0  0  0  0  0  0  0  0  0  0  0  0
   -5.0720   25.0092  -30.4683 C   0  0  0  0  0  0  0  0  0  0  0  0
   -3.9286   25.1834  -29.7277 C   0  0  0  0  0  0  0  0  0  0  0  0
   -2.4425   21.5428  -22.8229 C   0  0  0  0  0  0  0  0  0  0  0  0
   -1.1241   22.7904  -21.2229 C   0  0  0  0  0  0  0  0  0  0  0  0
   -1.0351   21.7724  -22.3611 C   0  0  0  0  0  0  0  0  0  0  0  0
   -0.4158   20.5266  -21.7619 C   0  0  0  0  0  0  0  0  0  0  0  0
 35 36  1  0  0  0
 36 37  1  0  0  0
 36 34  1  0  0  0
 34  1  1  0  0  0
  1  2  1  0  0  0
  2  3  1  0  0  0
  3  4  2  0  0  0
  3  6  1  0  0  0
  6  7  1  0  0  0
  6 10  1  0  0  0
 10 11  1  0  0  0
 11 12  2  0  0  0
 12 13  1  0  0  0
 13 14  2  0  0  0
 14 15  1  0  0  0
 15 16  2  0  0  0
  1 17  1  0  0  0
 17 18  2  0  0  0
 17 19  1  0  0  0
 19 21  1  0  0  0
 21 27  1  0  0  0
 27 28  1  0  0  0
 28 29  2  0  0  0
 29 30  1  0  0  0
 30 31  2  0  0  0
 31 32  1  0  0  0
 32 33  2  0  0  0
 21 22  1  0  0  0
 22 23  1  0  0  0
 22 24  2  0  0  0
 16 11  1  0  0  0
 33 28  1  0  0  0
  2  5  1  0  0  0
  7  8  1  0  0  0
  7  9  1  0  0  0
 19 20  1  0  0  0
 23 25  1  0  0  0
 23 26  1  0  0  0
M  END
> <minimizedAffinity>
-7.38621

> <CNNscore>
0.3117829561

> <CNNaffinity>
6.5455765724

> <CNN_VS>
2.0407991409

> <CNNaffinity_variance>
0.0889051110

$$$$
[H]c1c([H])c([H])c(C([H])([H])[C@@]([H])(C(=O)N([H])[C@]([H])(C(=O)N([H])[C@]([H])(C(=O)N([H])[H])C([H])([H])c2c([H])c([H])c([H])c([H])c2[H])C([H])([H])C([H])(C([H])([H])[H])C([H])([H])[H])N([H])[H])c([H])c1[H]


 37 38  0  0  0  0  0  0  0  0999 V2000
   -3.2665   22.7693  -23.8080 C   0  0  0  0  0  0  0  0  0  0  0  0
   -3.2436   23.4401  -25.0609 N   0  0  0  0  0  0  0  0  0  0  0  0
   -2.8657   22.7141  -26.2214 C   0  0  0  0  0  0  0  0  0  0  0  0
   -2.5479   21.4767  -26.1581 O   0  0  0  0  0  0  0  0  0  0  0  0
   -3.4868   24.4462  -25.2003 H   0  0  0  0  0  0  0  0  0  0  0  0
   -2.8043   23.3032  -27.5826 C   0  0  0  0  0  0  0  0  0  0  0  0
   -1.5514   22.9954  -28.2461 N   0  0  0  0  0  0  0  0  0  0  0  0
   -0.7268   23.2185  -27.6410 H   0  0  0  0  0  0  0  0  0  0  0  0
   -1.4272   23.6350  -29.0884 H   0  0  0  0  0  0  0  0  0  0  0  0
   -3.9886   22.7908  -28.3410 C   0  0  0  0  0  0  0  0  0  0  0  0
   -4.4132   23.8085  -29.3227 C   0  0  0  0  0  0  0  0  0  0  0  0
   -5.4783   23.5411  -30.1516 C   0  0  0  0  0  0  0  0  0  0  0  0
   -5.8652   24.5010  -31.0651 C   0  0  0  0  0  0  0  0  0  0  0  0
   -5.1974   25.7011  -31.1436 C   0  0  0  0  0  0  0  0  0  0  0  0
   -4.1269   25.9544  -30.3017 C   0  0  0  0  0  0  0  0  0  0  0  0
   -3.7274   24.9963  -29.3775 C   0  0  0  0  0  0  0  0  0  0  0  0
   -4.3751   23.3587  -23.0027 C   0  0  0  0  0  0  0  0  0  0  0  0
   -4.1287   24.0517  -21.9688 O   0  0  0  0  0  0  0  0  0  0  0  0
   -5.7328   23.1668  -23.3619 N   0  0  0  0  0  0  0  0  0  0  0  0
   -5.9289   22.5980  -24.2118 H   0  0  0  0  0  0  0  0  0  0  0  0
   -6.8142   23.7360  -22.5845 C   0  0  0  0  0  0  0  0  0  0  0  0
   -7.5474   22.6606  -21.8748 C   0  0  0  0  0  0  0  0  0  0  0  0
   -8.4390   22.9444  -20.8147 N   0  0  0  0  0  0  0  0  0  0  0  0
   -7.4058   21.4429  -22.1880 O   0  0  0  0  0  0  0  0  0  0  0  0
   -8.2566   23.7003  -20.1075 H   0  0  0  0  0  0  0  0  0  0  0  0
   -9.3124   22.3882  -20.7235 H   0  0  0  0  0  0  0  0  0  0  0  0
   -7.7148   24.4774  -23.5503 C   0  0  0  0  0  0  0  0  0  0  0  0
   -6.9476   25.1809  -24.5962 C   0  0  0  0  0  0  0  0  0  0  0  0
   -7.0732   24.7434  -25.8985 C   0  0  0  0  0  0  0  0  0  0  0  0
   -6.3835   25.3613  -26.9058 C   0  0  0  0  0  0  0  0  0  0  0  0
   -5.5629   26.4200  -26.6245 C   0  0  0  0  0  0  0  0  0  0  0  0
   -5.4223   26.8755  -25.3229 C   0  0  0  0  0  0  0  0  0  0  0  0
   -6.1149   26.2550  -24.3122 C   0  0  0  0  0  0  0  0  0  0  0  0
   -2.0271   22.8718  -22.9924 C   0  0  0  0  0  0  0  0  0  0  0  0
    0.0181   21.8359  -23.7665 C   0  0  0  0  0  0  0  0  0  0  0  0
   -1.2195   21.6127  -22.8957 C   0  0  0  0  0  0  0  0  0  0  0  0
   -0.7058   21.3652  -21.4924 C   0  0  0  0  0  0  0  0  0  0  0  0
 35 36  1  0  0  0
 36 37  1  0  0  0
 36 34  1  0  0  0
 34  1  1  0  0  0
  1  2  1  0  0  0
  2  3  1  0  0  0
  3  4  2  0  0  0
  3  6  1  0  0  0
  6  7  1  0  0  0
  6 10  1  0  0  0
 10 11  1  0  0  0
 11 12  2  0  0  0
 12 13  1  0  0  0
 13 14  2  0  0  0
 14 15  1  0  0  0
 15 16  2  0  0  0
  1 17  1  0  0  0
 17 18  2  0  0  0
 17 19  1  0  0  0
 19 21  1  0  0  0
 21 27  1  0  0  0
 27 28  1  0  0  0
 28 29  2  0  0  0
 29 30  1  0  0  0
 30 31  2  0  0  0
 31 32  1  0  0  0
 32 33  2  0  0  0
 21 22  1  0  0  0
 22 23  1  0  0  0
 22 24  2  0  0  0
 16 11  1  0  0  0
 33 28  1  0  0  0
  2  5  1  0  0  0
  7  8  1  0  0  0
  7  9  1  0  0  0
 19 20  1  0  0  0
 23 25  1  0  0  0
 23 26  1  0  0  0
M  END
> <minimizedAffinity>
-8.32191

> <CNNscore>
0.2683536410

> <CNNaffinity>
6.4409208298

> <CNN_VS>
1.7284445763

> <CNNaffinity_variance>
0.1488682777

$$$$
[H]c1c([H])c([H])c(C([H])([H])[C@@]([H])(C(=O)N([H])[C@]([H])(C(=O)N([H])[C@]([H])(C(=O)N([H])[H])C([H])([H])c2c([H])c([H])c([H])c([H])c2[H])C([H])([H])C([H])(C([H])([H])[H])C([H])([H])[H])N([H])[H])c([H])c1[H]


 37 38  0  0  0  0  0  0  0  0999 V2000
   -5.7649   22.7323  -22.7539 C   0  0  0  0  0  0  0  0  0  0  0  0
   -6.0729   23.5209  -23.8955 N   0  0  0  0  0  0  0  0  0  0  0  0
   -5.4613   24.7949  -24.0350 C   0  0  0  0  0  0  0  0  0  0  0  0
   -4.6448   25.2407  -23.1571 O   0  0  0  0  0  0  0  0  0  0  0  0
   -6.7277   23.2334  -24.6567 H   0  0  0  0  0  0  0  0  0  0  0  0
   -5.7026   25.7079  -25.1804 C   0  0  0  0  0  0  0  0  0  0  0  0
   -6.0253   27.0516  -24.7387 N   0  0  0  0  0  0  0  0  0  0  0  0
   -6.7851   27.0514  -24.0186 H   0  0  0  0  0  0  0  0  0  0  0  0
   -6.4444   27.6022  -25.5482 H   0  0  0  0  0  0  0  0  0  0  0  0
   -4.4786   25.6722  -26.0409 C   0  0  0  0  0  0  0  0  0  0  0  0
   -4.8180   25.0622  -27.3419 C   0  0  0  0  0  0  0  0  0  0  0  0
   -5.4704   23.8511  -27.3677 C   0  0  0  0  0  0  0  0  0  0  0  0
   -5.7820   23.2915  -28.5906 C   0  0  0  0  0  0  0  0  0  0  0  0
   -5.4458   23.9339  -29.7596 C   0  0  0  0  0  0  0  0  0  0  0  0
   -4.7890   25.1528  -29.7159 C   0  0  0  0  0  0  0  0  0  0  0  0
   -4.4696   25.7269  -28.4912 C   0  0  0  0  0  0  0  0  0  0  0  0
   -4.5053   21.9892  -23.0475 C   0  0  0  0  0  0  0  0  0  0  0  0
   -4.5231   20.9355  -23.7541 O   0  0  0  0  0  0  0  0  0  0  0  0
   -3.2534   22.4310  -22.5508 N   0  0  0  0  0  0  0  0  0  0  0  0
   -3.2448   23.2967  -21.9722 H   0  0  0  0  0  0  0  0  0  0  0  0
   -2.0265   21.7144  -22.8318 C   0  0  0  0  0  0  0  0  0  0  0  0
   -1.4880   21.1245  -21.5828 C   0  0  0  0  0  0  0  0  0  0  0  0
   -0.5149   20.0989  -21.6052 N   0  0  0  0  0  0  0  0  0  0  0  0
   -1.8770   21.5143  -20.4436 O   0  0  0  0  0  0  0  0  0  0  0  0
   -0.5170   19.3311  -22.3231 H   0  0  0  0  0  0  0  0  0  0  0  0
    0.2364   20.0964  -20.8869 H   0  0  0  0  0  0  0  0  0  0  0  0
   -1.0586   22.7089  -23.4379 C   0  0  0  0  0  0  0  0  0  0  0  0
   -0.9933   22.5951  -24.9077 C   0  0  0  0  0  0  0  0  0  0  0  0
    0.2420   22.3971  -25.4891 C   0  0  0  0  0  0  0  0  0  0  0  0
    0.3573   22.2849  -26.8478 C   0  0  0  0  0  0  0  0  0  0  0  0
   -0.7566   22.3690  -27.6389 C   0  0  0  0  0  0  0  0  0  0  0  0
   -2.0071   22.5676  -27.0750 C   0  0  0  0  0  0  0  0  0  0  0  0
   -2.1225   22.6801  -25.7111 C   0  0  0  0  0  0  0  0  0  0  0  0
   -6.7884   21.7266  -22.3625 C   0  0  0  0  0  0  0  0  0  0  0  0
   -6.6774   23.1024  -20.3750 C   0  0  0  0  0  0  0  0  0  0  0  0
   -7.2340   21.7913  -20.9327 C   0  0  0  0  0  0  0  0  0  0  0  0
   -8.7402   21.8865  -20.8035 C   0  0  0  0  0  0  0  0  0  0  0  0
 35 36  1  0  0  0
 36 37  1  0  0  0
 36 34  1  0  0  0
 34  1  1  0  0  0
  1  2  1  0  0  0
  2  3  1  0  0  0
  3  4  2  0  0  0
  3  6  1  0  0  0
  6  7  1  0  0  0
  6 10  1  0  0  0
 10 11  1  0  0  0
 11 12  2  0  0  0
 12 13  1  0  0  0
 13 14  2  0  0  0
 14 15  1  0  0  0
 15 16  2  0  0  0
  1 17  1  0  0  0
 17 18  2  0  0  0
 17 19  1  0  0  0
 19 21  1  0  0  0
 21 27  1  0  0  0
 27 28  1  0  0  0
 28 29  2  0  0  0
 29 30  1  0  0  0
 30 31  2  0  0  0
 31 32  1  0  0  0
 32 33  2  0  0  0
 21 22  1  0  0  0
 22 23  1  0  0  0
 22 24  2  0  0  0
 16 11  1  0  0  0
 33 28  1  0  0  0
  2  5  1  0  0  0
  7  8  1  0  0  0
  7  9  1  0  0  0
 19 20  1  0  0  0
 23 25  1  0  0  0
 23 26  1  0  0  0
M  END
> <minimizedAffinity>
-8.07090

> <CNNscore>
0.2524396777

> <CNNaffinity>
6.1041173935

> <CNN_VS>
1.5409214497

> <CNNaffinity_variance>
0.5399718285

$$$$
[H]c1c([H])c([H])c(C([H])([H])[C@@]([H])(C(=O)N([H])[C@]([H])(C(=O)N([H])[C@]([H])(C(=O)N([H])[H])C([H])([H])c2c([H])c([H])c([H])c([H])c2[H])C([H])([H])C([H])(C([H])([H])[H])C([H])([H])[H])N([H])[H])c([H])c1[H]


 37 38  0  0  0  0  0  0  0  0999 V2000
   -1.2953   21.8921  -21.3938 C   0  0  0  0  0  0  0  0  0  0  0  0
   -2.4009   21.2970  -20.7277 N   0  0  0  0  0  0  0  0  0  0  0  0
   -2.9733   21.9674  -19.6142 C   0  0  0  0  0  0  0  0  0  0  0  0
   -2.5137   23.0884  -19.2042 O   0  0  0  0  0  0  0  0  0  0  0  0
   -2.8358   20.3862  -20.9961 H   0  0  0  0  0  0  0  0  0  0  0  0
   -4.1279   21.4477  -18.8393 C   0  0  0  0  0  0  0  0  0  0  0  0
   -3.7154   20.9014  -17.5602 N   0  0  0  0  0  0  0  0  0  0  0  0
   -2.9246   20.2234  -17.6646 H   0  0  0  0  0  0  0  0  0  0  0  0
   -4.5028   20.3107  -17.1539 H   0  0  0  0  0  0  0  0  0  0  0  0
   -5.1024   22.5735  -18.6876 C   0  0  0  0  0  0  0  0  0  0  0  0
   -6.3025   22.2888  -19.4993 C   0  0  0  0  0  0  0  0  0  0  0  0
   -7.2778   21.4616  -18.9917 C   0  0  0  0  0  0  0  0  0  0  0  0
   -8.3947   21.2036  -19.7608 C   0  0  0  0  0  0  0  0  0  0  0  0
   -8.5282   21.7636  -21.0102 C   0  0  0  0  0  0  0  0  0  0  0  0
   -7.5369   22.5943  -21.5063 C   0  0  0  0  0  0  0  0  0  0  0  0
   -6.4074   22.8621  -20.7421 C   0  0  0  0  0  0  0  0  0  0  0  0
   -1.8389   22.7774  -22.4641 C   0  0  0  0  0  0  0  0  0  0  0  0
   -1.5854   24.0206  -22.4689 O   0  0  0  0  0  0  0  0  0  0  0  0
   -2.6518   22.2645  -23.5059 N   0  0  0  0  0  0  0  0  0  0  0  0
   -2.8558   21.2434  -23.4973 H   0  0  0  0  0  0  0  0  0  0  0  0
   -3.1831   23.1183  -24.5483 C   0  0  0  0  0  0  0  0  0  0  0  0
   -4.5123   23.6383  -24.1476 C   0  0  0  0  0  0  0  0  0  0  0  0
   -4.6464   24.7991  -23.3515 N   0  0  0  0  0  0  0  0  0  0  0  0
   -5.5832   23.0647  -24.5013 O   0  0  0  0  0  0  0  0  0  0  0  0
   -3.9857   25.0276  -22.5665 H   0  0  0  0  0  0  0  0  0  0  0  0
   -5.4265   25.4587  -23.5432 H   0  0  0  0  0  0  0  0  0  0  0  0
   -3.2712   22.2816  -25.8075 C   0  0  0  0  0  0  0  0  0  0  0  0
   -2.1606   22.5604  -26.7382 C   0  0  0  0  0  0  0  0  0  0  0  0
   -0.8739   22.3145  -26.3055 C   0  0  0  0  0  0  0  0  0  0  0  0
    0.1914   22.5560  -27.1295 C   0  0  0  0  0  0  0  0  0  0  0  0
   -0.0158   23.0445  -28.3912 C   0  0  0  0  0  0  0  0  0  0  0  0
   -1.3004   23.2984  -28.8457 C   0  0  0  0  0  0  0  0  0  0  0  0
   -2.3694   23.0558  -28.0183 C   0  0  0  0  0  0  0  0  0  0  0  0
   -0.3431   20.9513  -22.0420 C   0  0  0  0  0  0  0  0  0  0  0  0
    0.8462   19.2992  -20.7339 C   0  0  0  0  0  0  0  0  0  0  0  0
    0.9353   20.7196  -21.2943 C   0  0  0  0  0  0  0  0  0  0  0  0
    2.1454   20.7359  -22.2052 C   0  0  0  0  0  0  0  0  0  0  0  0
 35 36  1  0  0  0
 36 37  1  0  0  0
 36 34  1  0  0  0
 34  1  1  0  0  0
  1  2  1  0  0  0
  2  3  1  0  0  0
  3  4  2  0  0  0
  3  6  1  0  0  0
  6  7  1  0  0  0
  6 10  1  0  0  0
 10 11  1  0  0  0
 11 12  2  0  0  0
 12 13  1  0  0  0
 13 14  2  0  0  0
 14 15  1  0  0  0
 15 16  2  0  0  0
  1 17  1  0  0  0
 17 18  2  0  0  0
 17 19  1  0  0  0
 19 21  1  0  0  0
 21 27  1  0  0  0
 27 28  1  0  0  0
 28 29  2  0  0  0
 29 30  1  0  0  0
 30 31  2  0  0  0
 31 32  1  0  0  0
 32 33  2  0  0  0
 21 22  1  0  0  0
 22 23  1  0  0  0
 22 24  2  0  0  0
 16 11  1  0  0  0
 33 28  1  0  0  0
  2  5  1  0  0  0
  7  8  1  0  0  0
  7  9  1  0  0  0
 19 20  1  0  0  0
 23 25  1  0  0  0
 23 26  1  0  0  0
M  END
> <minimizedAffinity>
-6.89767

> <CNNscore>
0.2486241311

> <CNNaffinity>
5.7168931961

> <CNN_VS>
1.4213576317

> <CNNaffinity_variance>
0.2291597426

$$$$
[H]c1c([H])c([H])c(C([H])([H])[C@@]([H])(C(=O)N([H])[C@]([H])(C(=O)N([H])[C@]([H])(C(=O)N([H])[H])C([H])([H])c2c([H])c([H])c([H])c([H])c2[H])C([H])([H])C([H])(C([H])([H])[H])C([H])([H])[H])N([H])[H])c([H])c1[H]


 37 38  0  0  0  0  0  0  0  0999 V2000
   -2.9042   23.0573  -25.1861 C   0  0  0  0  0  0  0  0  0  0  0  0
   -3.0956   22.4179  -23.9312 N   0  0  0  0  0  0  0  0  0  0  0  0
   -2.1471   22.6372  -22.8973 C   0  0  0  0  0  0  0  0  0  0  0  0
   -1.1315   23.3941  -23.0756 O   0  0  0  0  0  0  0  0  0  0  0  0
   -3.8947   21.7853  -23.7029 H   0  0  0  0  0  0  0  0  0  0  0  0
   -2.2387   22.0269  -21.5471 C   0  0  0  0  0  0  0  0  0  0  0  0
   -3.4996   21.3362  -21.3533 N   0  0  0  0  0  0  0  0  0  0  0  0
   -4.3159   21.9387  -21.6115 H   0  0  0  0  0  0  0  0  0  0  0  0
   -3.6454   21.1442  -20.3160 H   0  0  0  0  0  0  0  0  0  0  0  0
   -1.0624   21.1144  -21.3927 C   0  0  0  0  0  0  0  0  0  0  0  0
   -0.4425   21.3415  -20.0721 C   0  0  0  0  0  0  0  0  0  0  0  0
   -0.0790   20.2593  -19.3041 C   0  0  0  0  0  0  0  0  0  0  0  0
    0.4997   20.4853  -18.0714 C   0  0  0  0  0  0  0  0  0  0  0  0
    0.7080   21.7684  -17.6213 C   0  0  0  0  0  0  0  0  0  0  0  0
    0.3361   22.8469  -18.4071 C   0  0  0  0  0  0  0  0  0  0  0  0
   -0.2474   22.6330  -19.6502 C   0  0  0  0  0  0  0  0  0  0  0  0
   -3.9491   24.1138  -25.3163 C   0  0  0  0  0  0  0  0  0  0  0  0
   -4.9919   24.0877  -24.5940 O   0  0  0  0  0  0  0  0  0  0  0  0
   -3.8144   25.1764  -26.2448 N   0  0  0  0  0  0  0  0  0  0  0  0
   -2.9562   25.1931  -26.8342 H   0  0  0  0  0  0  0  0  0  0  0  0
   -4.8251   26.2055  -26.3767 C   0  0  0  0  0  0  0  0  0  0  0  0
   -5.0759   26.8396  -25.0604 C   0  0  0  0  0  0  0  0  0  0  0  0
   -4.0161   27.2176  -24.2042 N   0  0  0  0  0  0  0  0  0  0  0  0
   -6.2497   27.0693  -24.6476 O   0  0  0  0  0  0  0  0  0  0  0  0
   -3.1402   26.6458  -24.0997 H   0  0  0  0  0  0  0  0  0  0  0  0
   -4.0977   28.0946  -23.6522 H   0  0  0  0  0  0  0  0  0  0  0  0
   -6.0722   25.5382  -26.9178 C   0  0  0  0  0  0  0  0  0  0  0  0
   -5.8529   24.9518  -28.2540 C   0  0  0  0  0  0  0  0  0  0  0  0
   -5.8130   23.5770  -28.3610 C   0  0  0  0  0  0  0  0  0  0  0  0
   -5.6125   22.9830  -29.5771 C   0  0  0  0  0  0  0  0  0  0  0  0
   -5.4498   23.7531  -30.6969 C   0  0  0  0  0  0  0  0  0  0  0  0
   -5.4864   25.1361  -30.6115 C   0  0  0  0  0  0  0  0  0  0  0  0
   -5.6879   25.7320  -29.3907 C   0  0  0  0  0  0  0  0  0  0  0  0
   -3.0102   22.1831  -26.3846 C   0  0  0  0  0  0  0  0  0  0  0  0
   -2.0570   23.0619  -28.4277 C   0  0  0  0  0  0  0  0  0  0  0  0
   -1.7850   22.1289  -27.2465 C   0  0  0  0  0  0  0  0  0  0  0  0
   -0.5632   22.6855  -26.5451 C   0  0  0  0  0  0  0  0  0  0  0  0
 35 36  1  0  0  0
 36 37  1  0  0  0
 36 34  1  0  0  0
 34  1  1  0  0  0
  1  2  1  0  0  0
  2  3  1  0  0  0
  3  4  2  0  0  0
  3  6  1  0  0  0
  6  7  1  0  0  0
  6 10  1  0  0  0
 10 11  1  0  0  0
 11 12  2  0  0  0
 12 13  1  0  0  0
 13 14  2  0  0  0
 14 15  1  0  0  0
 15 16  2  0  0  0
  1 17  1  0  0  0
 17 18  2  0  0  0
 17 19  1  0  0  0
 19 21  1  0  0  0
 21 27  1  0  0  0
 27 28  1  0  0  0
 28 29  2  0  0  0
 29 30  1  0  0  0
 30 31  2  0  0  0
 31 32  1  0  0  0
 32 33  2  0  0  0
 21 22  1  0  0  0
 22 23  1  0  0  0
 22 24  2  0  0  0
 16 11  1  0  0  0
 33 28  1  0  0  0
  2  5  1  0  0  0
  7  8  1  0  0  0
  7  9  1  0  0  0
 19 20  1  0  0  0
 23 25  1  0  0  0
 23 26  1  0  0  0
M  END
> <minimizedAffinity>
-7.81406

> <CNNscore>
0.2395967841

> <CNNaffinity>
5.8738150597

> <CNN_VS>
1.4073472023

> <CNNaffinity_variance>
0.4029590189

$$$$
[H]c1c([H])c([H])c(C([H])([H])[C@@]([H])(C(=O)N([H])[C@]([H])(C(=O)N([H])[C@]([H])(C(=O)N([H])[H])C([H])([H])c2c([H])c([H])c([H])c([H])c2[H])C([H])([H])C([H])(C([H])([H])[H])C([H])([H])[H])N([H])[H])c([H])c1[H]


 37 38  0  0  0  0  0  0  0  0999 V2000
   -2.0630   21.9792  -20.1196 C   0  0  0  0  0  0  0  0  0  0  0  0
   -0.8303   22.3404  -19.5113 N   0  0  0  0  0  0  0  0  0  0  0  0
    0.2938   21.4892  -19.6802 C   0  0  0  0  0  0  0  0  0  0  0  0
    0.2156   20.4116  -20.3647 O   0  0  0  0  0  0  0  0  0  0  0  0
   -0.6810   23.1997  -18.9368 H   0  0  0  0  0  0  0  0  0  0  0  0
    1.6314   21.7590  -19.0955 C   0  0  0  0  0  0  0  0  0  0  0  0
    2.6958   21.5098  -20.0493 N   0  0  0  0  0  0  0  0  0  0  0  0
    2.6021   20.5687  -20.4981 H   0  0  0  0  0  0  0  0  0  0  0  0
    3.6278   21.4540  -19.5372 H   0  0  0  0  0  0  0  0  0  0  0  0
    1.6251   23.1746  -18.6095 C   0  0  0  0  0  0  0  0  0  0  0  0
    2.4586   23.2741  -17.3948 C   0  0  0  0  0  0  0  0  0  0  0  0
    2.1897   22.4521  -16.3247 C   0  0  0  0  0  0  0  0  0  0  0  0
    2.9764   22.5551  -15.1951 C   0  0  0  0  0  0  0  0  0  0  0  0
    4.0088   23.4627  -15.1424 C   0  0  0  0  0  0  0  0  0  0  0  0
    4.2661   24.2829  -16.2286 C   0  0  0  0  0  0  0  0  0  0  0  0
    3.4815   24.1891  -17.3719 C   0  0  0  0  0  0  0  0  0  0  0  0
   -2.2420   22.8447  -21.3211 C   0  0  0  0  0  0  0  0  0  0  0  0
   -1.6994   23.9900  -21.3825 O   0  0  0  0  0  0  0  0  0  0  0  0
   -3.0189   22.4211  -22.4284 N   0  0  0  0  0  0  0  0  0  0  0  0
   -3.4611   21.4800  -22.3728 H   0  0  0  0  0  0  0  0  0  0  0  0
   -3.1971   23.2563  -23.5982 C   0  0  0  0  0  0  0  0  0  0  0  0
   -4.4353   24.0600  -23.4619 C   0  0  0  0  0  0  0  0  0  0  0  0
   -4.4606   25.2657  -22.7236 N   0  0  0  0  0  0  0  0  0  0  0  0
   -5.5222   23.7005  -24.0008 O   0  0  0  0  0  0  0  0  0  0  0  0
   -3.9186   25.3962  -21.8325 H   0  0  0  0  0  0  0  0  0  0  0  0
   -5.0354   26.0601  -23.0686 H   0  0  0  0  0  0  0  0  0  0  0  0
   -3.2632   22.3345  -24.7979 C   0  0  0  0  0  0  0  0  0  0  0  0
   -2.0198   22.3663  -25.5918 C   0  0  0  0  0  0  0  0  0  0  0  0
   -2.1101   22.7048  -26.9261 C   0  0  0  0  0  0  0  0  0  0  0  0
   -0.9871   22.7490  -27.7064 C   0  0  0  0  0  0  0  0  0  0  0  0
    0.2353   22.4565  -27.1645 C   0  0  0  0  0  0  0  0  0  0  0  0
    0.3482   22.1141  -25.8261 C   0  0  0  0  0  0  0  0  0  0  0  0
   -0.7792   22.0698  -25.0431 C   0  0  0  0  0  0  0  0  0  0  0  0
   -3.2770   22.1409  -19.2757 C   0  0  0  0  0  0  0  0  0  0  0  0
   -3.8997   23.0960  -17.1415 C   0  0  0  0  0  0  0  0  0  0  0  0
   -3.0521   22.0062  -17.7998 C   0  0  0  0  0  0  0  0  0  0  0  0
   -3.5673   20.6891  -17.2573 C   0  0  0  0  0  0  0  0  0  0  0  0
 35 36  1  0  0  0
 36 37  1  0  0  0
 36 34  1  0  0  0
 34  1  1  0  0  0
  1  2  1  0  0  0
  2  3  1  0  0  0
  3  4  2  0  0  0
  3  6  1  0  0  0
  6  7  1  0  0  0
  6 10  1  0  0  0
 10 11  1  0  0  0
 11 12  2  0  0  0
 12 13  1  0  0  0
 13 14  2  0  0  0
 14 15  1  0  0  0
 15 16  2  0  0  0
  1 17  1  0  0  0
 17 18  2  0  0  0
 17 19  1  0  0  0
 19 21  1  0  0  0
 21 27  1  0  0  0
 27 28  1  0  0  0
 28 29  2  0  0  0
 29 30  1  0  0  0
 30 31  2  0  0  0
 31 32  1  0  0  0
 32 33  2  0  0  0
 21 22  1  0  0  0
 22 23  1  0  0  0
 22 24  2  0  0  0
 16 11  1  0  0  0
 33 28  1  0  0  0
  2  5  1  0  0  0
  7  8  1  0  0  0
  7  9  1  0  0  0
 19 20  1  0  0  0
 23 25  1  0  0  0
 23 26  1  0  0  0
M  END
> <minimizedAffinity>
-6.96686

> <CNNscore>
0.2273372114

> <CNNaffinity>
5.3097677231

> <CNN_VS>
1.2071077824

> <CNNaffinity_variance>
0.2819702625

$$$$
[H]c1c([H])c([H])c(C([H])([H])[C@@]([H])(C(=O)N([H])[C@]([H])(C(=O)N([H])[C@]([H])(C(=O)N([H])[H])C([H])([H])c2c([H])c([H])c([H])c([H])c2[H])C([H])([H])C([H])(C([H])([H])[H])C([H])([H])[H])N([H])[H])c([H])c1[H]


 37 38  0  0  0  0  0  0  0  0999 V2000
   -4.7940   24.2075  -24.5987 C   0  0  0  0  0  0  0  0  0  0  0  0
   -4.8501   23.7499  -23.2543 N   0  0  0  0  0  0  0  0  0  0  0  0
   -6.1041   23.3600  -22.7137 C   0  0  0  0  0  0  0  0  0  0  0  0
   -7.1750   23.4139  -23.4110 O   0  0  0  0  0  0  0  0  0  0  0  0
   -4.0257   23.6761  -22.6172 H   0  0  0  0  0  0  0  0  0  0  0  0
   -6.2896   22.8659  -21.3261 C   0  0  0  0  0  0  0  0  0  0  0  0
   -5.3025   21.8620  -20.9760 N   0  0  0  0  0  0  0  0  0  0  0  0
   -5.2431   21.1074  -21.6991 H   0  0  0  0  0  0  0  0  0  0  0  0
   -5.6140   21.3465  -20.0978 H   0  0  0  0  0  0  0  0  0  0  0  0
   -6.2336   24.0565  -20.4208 C   0  0  0  0  0  0  0  0  0  0  0  0
   -7.5577   24.7093  -20.3957 C   0  0  0  0  0  0  0  0  0  0  0  0
   -7.6440   26.0650  -20.6139 C   0  0  0  0  0  0  0  0  0  0  0  0
   -8.8879   26.6631  -20.5877 C   0  0  0  0  0  0  0  0  0  0  0  0
  -10.0180   25.9163  -20.3479 C   0  0  0  0  0  0  0  0  0  0  0  0
   -9.9135   24.5523  -20.1302 C   0  0  0  0  0  0  0  0  0  0  0  0
   -8.6671   23.9379  -20.1539 C   0  0  0  0  0  0  0  0  0  0  0  0
   -3.9769   23.2288  -25.3729 C   0  0  0  0  0  0  0  0  0  0  0  0
   -4.1475   21.9802  -25.2249 O   0  0  0  0  0  0  0  0  0  0  0  0
   -2.9886   23.6562  -26.2947 N   0  0  0  0  0  0  0  0  0  0  0  0
   -2.8536   24.6820  -26.4126 H   0  0  0  0  0  0  0  0  0  0  0  0
   -2.1915   22.7116  -27.0497 C   0  0  0  0  0  0  0  0  0  0  0  0
   -0.8992   22.4771  -26.3620 C   0  0  0  0  0  0  0  0  0  0  0  0
   -0.8334   21.8381  -25.1024 N   0  0  0  0  0  0  0  0  0  0  0  0
    0.1999   22.8392  -26.8738 O   0  0  0  0  0  0  0  0  0  0  0  0
   -1.5500   21.9945  -24.3493 H   0  0  0  0  0  0  0  0  0  0  0  0
   -0.0487   21.1859  -24.9045 H   0  0  0  0  0  0  0  0  0  0  0  0
   -1.9869   23.3033  -28.4285 C   0  0  0  0  0  0  0  0  0  0  0  0
   -3.2606   23.7101  -29.0527 C   0  0  0  0  0  0  0  0  0  0  0  0
   -4.2806   22.7829  -29.1100 C   0  0  0  0  0  0  0  0  0  0  0  0
   -5.4815   23.1095  -29.6784 C   0  0  0  0  0  0  0  0  0  0  0  0
   -5.6768   24.3621  -30.1946 C   0  0  0  0  0  0  0  0  0  0  0  0
   -4.6652   25.3085  -30.1473 C   0  0  0  0  0  0  0  0  0  0  0  0
   -3.4599   24.9804  -29.5766 C   0  0  0  0  0  0  0  0  0  0  0  0
   -4.1858   25.5490  -24.8045 C   0  0  0  0  0  0  0  0  0  0  0  0
   -5.4898   26.2079  -26.7333 C   0  0  0  0  0  0  0  0  0  0  0  0
   -5.1240   26.6066  -25.3026 C   0  0  0  0  0  0  0  0  0  0  0  0
   -6.4258   26.6316  -24.5284 C   0  0  0  0  0  0  0  0  0  0  0  0
 35 36  1  0  0  0
 36 37  1  0  0  0
 36 34  1  0  0  0
 34  1  1  0  0  0
  1  2  1  0  0  0
  2  3  1  0  0  0
  3  4  2  0  0  0
  3  6  1  0  0  0
  6  7  1  0  0  0
  6 10  1  0  0  0
 10 11  1  0  0  0
 11 12  2  0  0  0
 12 13  1  0  0  0
 13 14  2  0  0  0
 14 15  1  0  0  0
 15 16  2  0  0  0
  1 17  1  0  0  0
 17 18  2  0  0  0
 17 19  1  0  0  0
 19 21  1  0  0  0
 21 27  1  0  0  0
 27 28  1  0  0  0
 28 29  2  0  0  0
 29 30  1  0  0  0
 30 31  2  0  0  0
 31 32  1  0  0  0
 32 33  2  0  0  0
 21 22  1  0  0  0
 22 23  1  0  0  0
 22 24  2  0  0  0
 16 11  1  0  0  0
 33 28  1  0  0  0
  2  5  1  0  0  0
  7  8  1  0  0  0
  7  9  1  0  0  0
 19 20  1  0  0  0
 23 25  1  0  0  0
 23 26  1  0  0  0
M  END
> <minimizedAffinity>
-7.66423

> <CNNscore>
0.2154215425

> <CNNaffinity>
6.1961445808

> <CNN_VS>
1.3347830772

> <CNNaffinity_variance>
0.0996908024

$$$$
[H]c1c([H])c([H])c(C([H])([H])[C@@]([H])(C(=O)N([H])[C@]([H])(C(=O)N([H])[C@]([H])(C(=O)N([H])[H])C([H])([H])c2c([H])c([H])c([H])c([H])c2[H])C([H])([H])C([H])(C([H])([H])[H])C([H])([H])[H])N([H])[H])c([H])c1[H]


 37 38  0  0  0  0  0  0  0  0999 V2000
   -2.7493   22.9211  -24.0086 C   0  0  0  0  0  0  0  0  0  0  0  0
   -3.4957   22.3105  -22.9645 N   0  0  0  0  0  0  0  0  0  0  0  0
   -3.4278   22.8635  -21.6582 C   0  0  0  0  0  0  0  0  0  0  0  0
   -2.7114   23.8931  -21.4079 O   0  0  0  0  0  0  0  0  0  0  0  0
   -4.1031   21.4691  -23.0824 H   0  0  0  0  0  0  0  0  0  0  0  0
   -4.1604   22.3163  -20.4887 C   0  0  0  0  0  0  0  0  0  0  0  0
   -4.6184   20.9605  -20.7270 N   0  0  0  0  0  0  0  0  0  0  0  0
   -5.1317   20.8784  -21.6357 H   0  0  0  0  0  0  0  0  0  0  0  0
   -5.3498   20.6979  -19.9989 H   0  0  0  0  0  0  0  0  0  0  0  0
   -3.2430   22.4062  -19.3096 C   0  0  0  0  0  0  0  0  0  0  0  0
   -4.0225   22.7940  -18.1171 C   0  0  0  0  0  0  0  0  0  0  0  0
   -3.5003   22.5591  -16.8660 C   0  0  0  0  0  0  0  0  0  0  0  0
   -4.2392   22.9265  -15.7593 C   0  0  0  0  0  0  0  0  0  0  0  0
   -5.4734   23.5159  -15.9067 C   0  0  0  0  0  0  0  0  0  0  0  0
   -5.9845   23.7453  -17.1736 C   0  0  0  0  0  0  0  0  0  0  0  0
   -5.2507   23.3802  -18.2960 C   0  0  0  0  0  0  0  0  0  0  0  0
   -3.6941   23.7510  -24.8107 C   0  0  0  0  0  0  0  0  0  0  0  0
   -3.7514   25.0082  -24.6492 O   0  0  0  0  0  0  0  0  0  0  0  0
   -4.5548   23.1684  -25.7745 N   0  0  0  0  0  0  0  0  0  0  0  0
   -4.5029   22.1364  -25.9033 H   0  0  0  0  0  0  0  0  0  0  0  0
   -5.4749   23.9681  -26.5567 C   0  0  0  0  0  0  0  0  0  0  0  0
   -6.7748   24.0774  -25.8524 C   0  0  0  0  0  0  0  0  0  0  0  0
   -6.8854   23.8599  -24.4597 N   0  0  0  0  0  0  0  0  0  0  0  0
   -7.8405   24.3701  -26.4685 O   0  0  0  0  0  0  0  0  0  0  0  0
   -6.3321   23.1219  -23.9555 H   0  0  0  0  0  0  0  0  0  0  0  0
   -7.5374   24.4487  -23.9042 H   0  0  0  0  0  0  0  0  0  0  0  0
   -5.6273   23.2855  -27.8999 C   0  0  0  0  0  0  0  0  0  0  0  0
   -5.2348   24.1654  -29.0176 C   0  0  0  0  0  0  0  0  0  0  0  0
   -4.1186   24.9602  -28.8569 C   0  0  0  0  0  0  0  0  0  0  0  0
   -3.7122   25.7939  -29.8628 C   0  0  0  0  0  0  0  0  0  0  0  0
   -4.4138   25.8433  -31.0369 C   0  0  0  0  0  0  0  0  0  0  0  0
   -5.5381   25.0531  -31.2189 C   0  0  0  0  0  0  0  0  0  0  0  0
   -5.9457   24.2163  -30.2091 C   0  0  0  0  0  0  0  0  0  0  0  0
   -2.0695   21.9928  -24.9510 C   0  0  0  0  0  0  0  0  0  0  0  0
    0.2543   22.0190  -25.6251 C   0  0  0  0  0  0  0  0  0  0  0  0
   -1.1147   22.6399  -25.9084 C   0  0  0  0  0  0  0  0  0  0  0  0
   -1.4346   22.3093  -27.3516 C   0  0  0  0  0  0  0  0  0  0  0  0
 35 36  1  0  0  0
 36 37  1  0  0  0
 36 34  1  0  0  0
 34  1  1  0  0  0
  1  2  1  0  0  0
  2  3  1  0  0  0
  3  4  2  0  0  0
  3  6  1  0  0  0
  6  7  1  0  0  0
  6 10  1  0  0  0
 10 11  1  0  0  0
 11 12  2  0  0  0
 12 13  1  0  0  0
 13 14  2  0  0  0
 14 15  1  0  0  0
 15 16  2  0  0  0
  1 17  1  0  0  0
 17 18  2  0  0  0
 17 19  1  0  0  0
 19 21  1  0  0  0
 21 27  1  0  0  0
 27 28  1  0  0  0
 28 29  2  0  0  0
 29 30  1  0  0  0
 30 31  2  0  0  0
 31 32  1  0  0  0
 32 33  2  0  0  0
 21 22  1  0  0  0
 22 23  1  0  0  0
 22 24  2  0  0  0
 16 11  1  0  0  0
 33 28  1  0  0  0
  2  5  1  0  0  0
  7  8  1  0  0  0
  7  9  1  0  0  0
 19 20  1  0  0  0
 23 25  1  0  0  0
 23 26  1  0  0  0
M  END
> <minimizedAffinity>
-7.53187

> <CNNscore>
0.2077757865

> <CNNaffinity>
5.7606492043

> <CNN_VS>
1.1969233751

> <CNNaffinity_variance>
0.2960440516

$$$$
[H]N=C(c1c([H])c([H])c(N2C([H])([H])C([H])([H])N(C([H])([H])C([H])([H])C(=O)N([H])c3c([H])c([H])c([H])c(Oc4c(C([H])([H])C(=O)N([H])[H])c([H])nc5c([H])c(Cl)c(OC([H])([H])[H])c([H])c45)c3[H])C([H])([H])C2([H])[H])c([H])c1[H])N([H])[H]


 50 54  0  0  0  0  0  0  0  0999 V2000
   -5.6576   23.5066  -24.8230 C   0  0  0  0  0  0  0  0  0  0  0  0
   -5.7245   24.8822  -24.9976 C   0  0  0  0  0  0  0  0  0  0  0  0
   -5.9216   25.6567  -23.8826 C   0  0  0  0  0  0  0  0  0  0  0  0
   -6.0544   25.1063  -22.5995 C   0  0  0  0  0  0  0  0  0  0  0  0
   -5.9910   23.7567  -22.4186 C   0  0  0  0  0  0  0  0  0  0  0  0
   -5.7900   22.9804  -23.5580 C   0  0  0  0  0  0  0  0  0  0  0  0
   -6.1453   23.1286  -21.1641 N   0  0  0  0  0  0  0  0  0  0  0  0
   -7.2652   22.4746  -20.6691 C   0  0  0  0  0  0  0  0  0  0  0  0
   -8.3240   22.3545  -21.2975 O   0  0  0  0  0  0  0  0  0  0  0  0
   -5.2870   23.1579  -20.4948 H   0  0  0  0  0  0  0  0  0  0  0  0
   -7.2262   21.8660  -19.3030 C   0  0  0  0  0  0  0  0  0  0  0  0
   -8.3836   22.3445  -18.4822 C   0  0  0  0  0  0  0  0  0  0  0  0
   -8.9457   21.2866  -17.7163 N   0  0  0  0  0  0  0  0  0  0  0  0
   -8.2199   20.0762  -17.8190 C   0  0  0  0  0  0  0  0  0  0  0  0
   -8.9218   18.8960  -17.1979 C   0  0  0  0  0  0  0  0  0  0  0  0
  -10.1197   19.1945  -16.4718 N   0  0  0  0  0  0  0  0  0  0  0  0
  -10.9883   20.2664  -16.8635 C   0  0  0  0  0  0  0  0  0  0  0  0
  -10.3682   21.0919  -17.9356 C   0  0  0  0  0  0  0  0  0  0  0  0
  -10.4450   18.3689  -15.3320 C   0  0  0  0  0  0  0  0  0  0  0  0
  -11.6981   18.2234  -14.8142 C   0  0  0  0  0  0  0  0  0  0  0  0
  -11.9457   17.3978  -13.7078 C   0  0  0  0  0  0  0  0  0  0  0  0
  -10.9229   16.7024  -13.1041 C   0  0  0  0  0  0  0  0  0  0  0  0
   -9.6600   16.8481  -13.6241 C   0  0  0  0  0  0  0  0  0  0  0  0
   -9.4199   17.6750  -14.7301 C   0  0  0  0  0  0  0  0  0  0  0  0
  -11.2013   15.8418  -11.9504 C   0  0  0  0  0  0  0  0  0  0  0  0
  -12.3205   14.9629  -11.9339 N   0  0  0  0  0  0  0  0  0  0  0  0
  -10.4575   15.8431  -10.9197 N   0  0  0  0  0  0  0  0  0  0  0  0
  -12.5187   14.3306  -12.7348 H   0  0  0  0  0  0  0  0  0  0  0  0
  -12.9586   14.9523  -11.0955 H   0  0  0  0  0  0  0  0  0  0  0  0
   -9.6150   16.3910  -10.7311 H   0  0  0  0  0  0  0  0  0  0  0  0
   -5.4579   22.7008  -25.9503 O   0  0  0  0  0  0  0  0  0  0  0  0
   -1.6891   21.8117  -24.3340 C   0  0  0  0  0  0  0  0  0  0  0  0
   -2.9306   22.1095  -24.8847 C   0  0  0  0  0  0  0  0  0  0  0  0
   -3.0601   22.5770  -26.1935 C   0  0  0  0  0  0  0  0  0  0  0  0
   -4.3028   22.8677  -26.7141 C   0  0  0  0  0  0  0  0  0  0  0  0
   -4.4317   23.3358  -28.0167 C   0  0  0  0  0  0  0  0  0  0  0  0
   -3.2605   23.4846  -28.7307 C   0  0  0  0  0  0  0  0  0  0  0  0
   -2.0568   23.1953  -28.2039 N   0  0  0  0  0  0  0  0  0  0  0  0
   -1.9009   22.7354  -26.9318 C   0  0  0  0  0  0  0  0  0  0  0  0
   -0.6550   22.4500  -26.4186 C   0  0  0  0  0  0  0  0  0  0  0  0
   -0.5680   21.9887  -25.1167 C   0  0  0  0  0  0  0  0  0  0  0  0
    1.0276   21.6333  -24.4889 Cl  0  0  0  0  0  0  0  0  0  0  0  0
   -2.4479   21.8475  -22.0571 C   0  0  0  0  0  0  0  0  0  0  0  0
   -1.5486   21.3467  -23.0350 O   0  0  0  0  0  0  0  0  0  0  0  0
   -5.7736   23.6168  -28.5298 C   0  0  0  0  0  0  0  0  0  0  0  0
   -5.7854   25.0236  -29.0698 C   0  0  0  0  0  0  0  0  0  0  0  0
   -5.9405   25.1843  -30.4700 N   0  0  0  0  0  0  0  0  0  0  0  0
   -5.6625   26.0283  -28.3172 O   0  0  0  0  0  0  0  0  0  0  0  0
   -5.2406   24.8195  -31.1526 H   0  0  0  0  0  0  0  0  0  0  0  0
   -6.7620   25.6738  -30.8618 H   0  0  0  0  0  0  0  0  0  0  0  0
 43 44  1  0  0  0
 44 32  1  0  0  0
 32 33  2  0  0  0
 33 34  1  0  0  0
 34 35  2  0  0  0
 35 31  1  0  0  0
 31  1  1  0  0  0
  1  2  2  0  0  0
  2  3  1  0  0  0
  3  4  2  0  0  0
  4  5  1  0  0  0
  5  7  1  0  0  0
  7  8  1  0  0  0
  8  9  2  0  0  0
  8 11  1  0  0  0
 11 12  1  0  0  0
 12 13  1  0  0  0
 13 14  1  0  0  0
 14 15  1  0  0  0
 15 16  1  0  0  0
 16 17  1  0  0  0
 17 18  1  0  0  0
 16 19  1  0  0  0
 19 20  2  0  0  0
 20 21  1  0  0  0
 21 22  2  0  0  0
 22 23  1  0  0  0
 23 24  2  0  0  0
 22 25  1  0  0  0
 25 26  1  0  0  0
 25 27  2  0  0  0
  5  6  2  0  0  0
 35 36  1  0  0  0
 36 45  1  0  0  0
 45 46  1  0  0  0
 46 47  1  0  0  0
 46 48  2  0  0  0
 36 37  2  0  0  0
 37 38  1  0  0  0
 38 39  2  0  0  0
 39 40  1  0  0  0
 40 41  2  0  0  0
 41 42  1  0  0  0
 41 32  1  0  0  0
 39 34  1  0  0  0
  6  1  1  0  0  0
 18 13  1  0  0  0
 24 19  1  0  0  0
  7 10  1  0  0  0
 26 28  1  0  0  0
 26 29  1  0  0  0
 27 30  1  0  0  0
 47 49  1  0  0  0
 47 50  1  0  0  0
M  END
> <minimizedAffinity>
-8.12895

> <CNNscore>
0.4759174287

> <CNNaffinity>
6.7439513206

> <CNN_VS>
3.2095639706

> <CNNaffinity_variance>
0.4188412130

$$$$
[H]N=C(c1c([H])c([H])c(N2C([H])([H])C([H])([H])N(C([H])([H])C([H])([H])C(=O)N([H])c3c([H])c([H])c([H])c(Oc4c(C([H])([H])C(=O)N([H])[H])c([H])nc5c([H])c(Cl)c(OC([H])([H])[H])c([H])c45)c3[H])C([H])([H])C2([H])[H])c([H])c1[H])N([H])[H]


 50 54  0  0  0  0  0  0  0  0999 V2000
   -5.7657   23.9760  -25.4422 C   0  0  0  0  0  0  0  0  0  0  0  0
   -5.2897   25.2176  -25.8412 C   0  0  0  0  0  0  0  0  0  0  0  0
   -5.6546   26.3092  -25.0949 C   0  0  0  0  0  0  0  0  0  0  0  0
   -6.4780   26.2051  -23.9643 C   0  0  0  0  0  0  0  0  0  0  0  0
   -6.9507   24.9904  -23.5655 C   0  0  0  0  0  0  0  0  0  0  0  0
   -6.5731   23.8889  -24.3308 C   0  0  0  0  0  0  0  0  0  0  0  0
   -7.8065   24.8105  -22.4577 N   0  0  0  0  0  0  0  0  0  0  0  0
   -7.5186   25.0140  -21.1150 C   0  0  0  0  0  0  0  0  0  0  0  0
   -6.4186   25.3977  -20.6990 O   0  0  0  0  0  0  0  0  0  0  0  0
   -8.8174   24.4679  -22.6724 H   0  0  0  0  0  0  0  0  0  0  0  0
   -8.5742   24.7678  -20.0838 C   0  0  0  0  0  0  0  0  0  0  0  0
   -8.8912   23.3070  -19.9958 C   0  0  0  0  0  0  0  0  0  0  0  0
   -8.9315   22.8681  -18.6440 N   0  0  0  0  0  0  0  0  0  0  0  0
   -7.6827   22.3997  -18.1715 C   0  0  0  0  0  0  0  0  0  0  0  0
   -7.7592   21.7282  -16.8244 C   0  0  0  0  0  0  0  0  0  0  0  0
   -9.0274   21.8012  -16.1628 N   0  0  0  0  0  0  0  0  0  0  0  0
  -10.2590   21.8060  -16.8975 C   0  0  0  0  0  0  0  0  0  0  0  0
  -10.0088   21.9365  -18.3590 C   0  0  0  0  0  0  0  0  0  0  0  0
   -9.0368   21.8526  -14.7192 C   0  0  0  0  0  0  0  0  0  0  0  0
   -9.0952   23.0010  -13.9862 C   0  0  0  0  0  0  0  0  0  0  0  0
   -9.1086   22.9789  -12.5839 C   0  0  0  0  0  0  0  0  0  0  0  0
   -9.0625   21.7870  -11.8972 C   0  0  0  0  0  0  0  0  0  0  0  0
   -9.0031   20.6294  -12.6339 C   0  0  0  0  0  0  0  0  0  0  0  0
   -8.9900   20.6591  -14.0352 C   0  0  0  0  0  0  0  0  0  0  0  0
   -9.0804   21.7835  -10.4313 C   0  0  0  0  0  0  0  0  0  0  0  0
   -8.3478   22.7435   -9.6784 N   0  0  0  0  0  0  0  0  0  0  0  0
   -9.7492   20.9265   -9.7725 N   0  0  0  0  0  0  0  0  0  0  0  0
   -8.4079   23.7577   -9.8981 H   0  0  0  0  0  0  0  0  0  0  0  0
   -7.7348   22.4211   -8.8844 H   0  0  0  0  0  0  0  0  0  0  0  0
  -10.3362   20.1624  -10.1147 H   0  0  0  0  0  0  0  0  0  0  0  0
   -5.4040   22.8511  -26.1930 O   0  0  0  0  0  0  0  0  0  0  0  0
   -1.8327   22.0626  -24.1360 C   0  0  0  0  0  0  0  0  0  0  0  0
   -3.0074   22.3243  -24.8323 C   0  0  0  0  0  0  0  0  0  0  0  0
   -3.0055   22.5843  -26.2038 C   0  0  0  0  0  0  0  0  0  0  0  0
   -4.1843   22.8438  -26.8694 C   0  0  0  0  0  0  0  0  0  0  0  0
   -4.1823   23.1053  -28.2347 C   0  0  0  0  0  0  0  0  0  0  0  0
   -2.9515   23.0873  -28.8580 C   0  0  0  0  0  0  0  0  0  0  0  0
   -1.8119   22.8319  -28.1899 N   0  0  0  0  0  0  0  0  0  0  0  0
   -1.7842   22.5725  -26.8534 C   0  0  0  0  0  0  0  0  0  0  0  0
   -0.6014   22.3168  -26.1956 C   0  0  0  0  0  0  0  0  0  0  0  0
   -0.6447   22.0639  -24.8357 C   0  0  0  0  0  0  0  0  0  0  0  0
    0.8730   21.7418  -24.0236 Cl  0  0  0  0  0  0  0  0  0  0  0  0
   -3.0558   21.9024  -22.0769 C   0  0  0  0  0  0  0  0  0  0  0  0
   -1.8227   21.8032  -22.7737 O   0  0  0  0  0  0  0  0  0  0  0  0
   -5.4608   23.3608  -28.9003 C   0  0  0  0  0  0  0  0  0  0  0  0
   -5.3616   24.6823  -29.6178 C   0  0  0  0  0  0  0  0  0  0  0  0
   -6.0487   24.8085  -30.8517 N   0  0  0  0  0  0  0  0  0  0  0  0
   -4.6962   25.6467  -29.1509 O   0  0  0  0  0  0  0  0  0  0  0  0
   -5.8115   24.2238  -31.6827 H   0  0  0  0  0  0  0  0  0  0  0  0
   -6.8150   25.4923  -30.9666 H   0  0  0  0  0  0  0  0  0  0  0  0
 43 44  1  0  0  0
 44 32  1  0  0  0
 32 33  2  0  0  0
 33 34  1  0  0  0
 34 35  2  0  0  0
 35 31  1  0  0  0
 31  1  1  0  0  0
  1  2  2  0  0  0
  2  3  1  0  0  0
  3  4  2  0  0  0
  4  5  1  0  0  0
  5  7  1  0  0  0
  7  8  1  0  0  0
  8  9  2  0  0  0
  8 11  1  0  0  0
 11 12  1  0  0  0
 12 13  1  0  0  0
 13 14  1  0  0  0
 14 15  1  0  0  0
 15 16  1  0  0  0
 16 17  1  0  0  0
 17 18  1  0  0  0
 16 19  1  0  0  0
 19 20  2  0  0  0
 20 21  1  0  0  0
 21 22  2  0  0  0
 22 23  1  0  0  0
 23 24  2  0  0  0
 22 25  1  0  0  0
 25 26  1  0  0  0
 25 27  2  0  0  0
  5  6  2  0  0  0
 35 36  1  0  0  0
 36 45  1  0  0  0
 45 46  1  0  0  0
 46 47  1  0  0  0
 46 48  2  0  0  0
 36 37  2  0  0  0
 37 38  1  0  0  0
 38 39  2  0  0  0
 39 40  1  0  0  0
 40 41  2  0  0  0
 41 42  1  0  0  0
 41 32  1  0  0  0
 39 34  1  0  0  0
  6  1  1  0  0  0
 18 13  1  0  0  0
 24 19  1  0  0  0
  7 10  1  0  0  0
 26 28  1  0  0  0
 26 29  1  0  0  0
 27 30  1  0  0  0
 47 49  1  0  0  0
 47 50  1  0  0  0
M  END
> <minimizedAffinity>
-8.51617

> <CNNscore>
0.3565424085

> <CNNaffinity>
6.8916168213

> <CNN_VS>
2.4571535587

> <CNNaffinity_variance>
0.3571649194

$$$$
[H]N=C(c1c([H])c([H])c(N2C([H])([H])C([H])([H])N(C([H])([H])C([H])([H])C(=O)N([H])c3c([H])c([H])c([H])c(Oc4c(C([H])([H])C(=O)N([H])[H])c([H])nc5c([H])c(Cl)c(OC([H])([H])[H])c([H])c45)c3[H])C([H])([H])C2([H])[H])c([H])c1[H])N([H])[H]


 50 54  0  0  0  0  0  0  0  0999 V2000
   -5.2891   24.4515  -25.7985 C   0  0  0  0  0  0  0  0  0  0  0  0
   -5.1856   25.6179  -26.5443 C   0  0  0  0  0  0  0  0  0  0  0  0
   -5.4553   26.8045  -25.9110 C   0  0  0  0  0  0  0  0  0  0  0  0
   -5.8247   26.8677  -24.5595 C   0  0  0  0  0  0  0  0  0  0  0  0
   -5.9298   25.7277  -23.8197 C   0  0  0  0  0  0  0  0  0  0  0  0
   -5.6530   24.5287  -24.4733 C   0  0  0  0  0  0  0  0  0  0  0  0
   -6.3244   25.7094  -22.4647 N   0  0  0  0  0  0  0  0  0  0  0  0
   -7.5869   25.9505  -21.9402 C   0  0  0  0  0  0  0  0  0  0  0  0
   -8.5758   26.2269  -22.6301 O   0  0  0  0  0  0  0  0  0  0  0  0
   -5.5502   25.4817  -21.7338 H   0  0  0  0  0  0  0  0  0  0  0  0
   -7.8025   25.8788  -20.4615 C   0  0  0  0  0  0  0  0  0  0  0  0
   -9.0373   25.0915  -20.1489 C   0  0  0  0  0  0  0  0  0  0  0  0
   -8.7137   23.8172  -19.6075 N   0  0  0  0  0  0  0  0  0  0  0  0
   -7.4423   23.7805  -18.9874 C   0  0  0  0  0  0  0  0  0  0  0  0
   -6.9937   22.3922  -18.6097 C   0  0  0  0  0  0  0  0  0  0  0  0
   -7.9649   21.3541  -18.7850 N   0  0  0  0  0  0  0  0  0  0  0  0
   -8.9323   21.4012  -19.8427 C   0  0  0  0  0  0  0  0  0  0  0  0
   -8.9009   22.7172  -20.5373 C   0  0  0  0  0  0  0  0  0  0  0  0
   -7.9349   20.2364  -17.8705 C   0  0  0  0  0  0  0  0  0  0  0  0
   -7.8053   18.9321  -18.2466 C   0  0  0  0  0  0  0  0  0  0  0  0
   -7.7757   17.8940  -17.3039 C   0  0  0  0  0  0  0  0  0  0  0  0
   -7.8776   18.1611  -15.9576 C   0  0  0  0  0  0  0  0  0  0  0  0
   -8.0087   19.4744  -15.5771 C   0  0  0  0  0  0  0  0  0  0  0  0
   -8.0375   20.5067  -16.5248 C   0  0  0  0  0  0  0  0  0  0  0  0
   -7.8417   17.0633  -14.9868 C   0  0  0  0  0  0  0  0  0  0  0  0
   -6.6317   16.6836  -14.3413 N   0  0  0  0  0  0  0  0  0  0  0  0
   -8.8861   16.4066  -14.6805 N   0  0  0  0  0  0  0  0  0  0  0  0
   -6.0147   17.3923  -13.8969 H   0  0  0  0  0  0  0  0  0  0  0  0
   -6.3568   15.6667  -14.3124 H   0  0  0  0  0  0  0  0  0  0  0  0
   -9.8431   16.5170  -15.0233 H   0  0  0  0  0  0  0  0  0  0  0  0
   -5.0185   23.2313  -26.4292 O   0  0  0  0  0  0  0  0  0  0  0  0
   -1.5707   22.3286  -24.2144 C   0  0  0  0  0  0  0  0  0  0  0  0
   -2.7043   22.6260  -24.9627 C   0  0  0  0  0  0  0  0  0  0  0  0
   -2.6546   22.7513  -26.3521 C   0  0  0  0  0  0  0  0  0  0  0  0
   -3.7929   23.0498  -27.0698 C   0  0  0  0  0  0  0  0  0  0  0  0
   -3.7431   23.1772  -28.4532 C   0  0  0  0  0  0  0  0  0  0  0  0
   -2.5084   22.9892  -29.0396 C   0  0  0  0  0  0  0  0  0  0  0  0
   -1.4089   22.6986  -28.3208 N   0  0  0  0  0  0  0  0  0  0  0  0
   -1.4284   22.5678  -26.9656 C   0  0  0  0  0  0  0  0  0  0  0  0
   -0.2856   22.2720  -26.2558 C   0  0  0  0  0  0  0  0  0  0  0  0
   -0.3756   22.1562  -24.8797 C   0  0  0  0  0  0  0  0  0  0  0  0
    1.0918   21.7796  -24.0014 Cl  0  0  0  0  0  0  0  0  0  0  0  0
   -2.8451   21.8346  -22.2412 C   0  0  0  0  0  0  0  0  0  0  0  0
   -1.6084   22.2019  -22.8338 O   0  0  0  0  0  0  0  0  0  0  0  0
   -4.9811   23.4807  -29.1731 C   0  0  0  0  0  0  0  0  0  0  0  0
   -4.8371   24.8420  -29.8031 C   0  0  0  0  0  0  0  0  0  0  0  0
   -5.9821   25.3960  -30.4297 N   0  0  0  0  0  0  0  0  0  0  0  0
   -3.7464   25.4750  -29.7819 O   0  0  0  0  0  0  0  0  0  0  0  0
   -6.4345   24.9488  -31.2568 H   0  0  0  0  0  0  0  0  0  0  0  0
   -6.4084   26.2706  -30.0816 H   0  0  0  0  0  0  0  0  0  0  0  0
 43 44  1  0  0  0
 44 32  1  0  0  0
 32 33  2  0  0  0
 33 34  1  0  0  0
 34 35  2  0  0  0
 35 31  1  0  0  0
 31  1  1  0  0  0
  1  2  2  0  0  0
  2  3  1  0  0  0
  3  4  2  0  0  0
  4  5  1  0  0  0
  5  7  1  0  0  0
  7  8  1  0  0  0
  8  9  2  0  0  0
  8 11  1  0  0  0
 11 12  1  0  0  0
 12 13  1  0  0  0
 13 14  1  0  0  0
 14 15  1  0  0  0
 15 16  1  0  0  0
 16 17  1  0  0  0
 17 18  1  0  0  0
 16 19  1  0  0  0
 19 20  2  0  0  0
 20 21  1  0  0  0
 21 22  2  0  0  0
 22 23  1  0  0  0
 23 24  2  0  0  0
 22 25  1  0  0  0
 25 26  1  0  0  0
 25 27  2  0  0  0
  5  6  2  0  0  0
 35 36  1  0  0  0
 36 45  1  0  0  0
 45 46  1  0  0  0
 46 47  1  0  0  0
 46 48  2  0  0  0
 36 37  2  0  0  0
 37 38  1  0  0  0
 38 39  2  0  0  0
 39 40  1  0  0  0
 40 41  2  0  0  0
 41 42  1  0  0  0
 41 32  1  0  0  0
 39 34  1  0  0  0
  6  1  1  0  0  0
 18 13  1  0  0  0
 24 19  1  0  0  0
  7 10  1  0  0  0
 26 28  1  0  0  0
 26 29  1  0  0  0
 27 30  1  0  0  0
 47 49  1  0  0  0
 47 50  1  0  0  0
M  END
> <minimizedAffinity>
-8.58684

> <CNNscore>
0.3423779905

> <CNNaffinity>
7.2009301186

> <CNN_VS>
2.4654400349

> <CNNaffinity_variance>
0.1669536531

$$$$
[H]N=C(c1c([H])c([H])c(N2C([H])([H])C([H])([H])N(C([H])([H])C([H])([H])C(=O)N([H])c3c([H])c([H])c([H])c(Oc4c(C([H])([H])C(=O)N([H])[H])c([H])nc5c([H])c(Cl)c(OC([H])([H])[H])c([H])c45)c3[H])C([H])([H])C2([H])[H])c([H])c1[H])N([H])[H]


 50 54  0  0  0  0  0  0  0  0999 V2000
   -5.6035   24.4589  -25.6575 C   0  0  0  0  0  0  0  0  0  0  0  0
   -5.3757   25.6531  -26.3278 C   0  0  0  0  0  0  0  0  0  0  0  0
   -5.5688   26.8201  -25.6329 C   0  0  0  0  0  0  0  0  0  0  0  0
   -5.9813   26.8368  -24.2926 C   0  0  0  0  0  0  0  0  0  0  0  0
   -6.2082   25.6693  -23.6266 C   0  0  0  0  0  0  0  0  0  0  0  0
   -6.0083   24.4906  -24.3423 C   0  0  0  0  0  0  0  0  0  0  0  0
   -6.6527   25.6068  -22.2885 N   0  0  0  0  0  0  0  0  0  0  0  0
   -7.9032   25.9428  -21.7881 C   0  0  0  0  0  0  0  0  0  0  0  0
   -8.8332   26.3615  -22.4883 O   0  0  0  0  0  0  0  0  0  0  0  0
   -5.9328   25.2559  -21.5509 H   0  0  0  0  0  0  0  0  0  0  0  0
   -8.1797   25.8013  -20.3247 C   0  0  0  0  0  0  0  0  0  0  0  0
   -8.6334   24.4098  -20.0085 C   0  0  0  0  0  0  0  0  0  0  0  0
   -7.9779   23.9030  -18.8531 N   0  0  0  0  0  0  0  0  0  0  0  0
   -6.6719   24.4196  -18.6804 C   0  0  0  0  0  0  0  0  0  0  0  0
   -5.8872   23.7289  -17.5948 C   0  0  0  0  0  0  0  0  0  0  0  0
   -6.6150   22.7790  -16.8078 N   0  0  0  0  0  0  0  0  0  0  0  0
   -7.6752   21.9933  -17.3692 C   0  0  0  0  0  0  0  0  0  0  0  0
   -8.0125   22.4551  -18.7435 C   0  0  0  0  0  0  0  0  0  0  0  0
   -6.2392   22.6169  -15.4224 C   0  0  0  0  0  0  0  0  0  0  0  0
   -6.9339   21.8743  -14.5140 C   0  0  0  0  0  0  0  0  0  0  0  0
   -6.5080   21.7528  -13.1832 C   0  0  0  0  0  0  0  0  0  0  0  0
   -5.3655   22.3851  -12.7481 C   0  0  0  0  0  0  0  0  0  0  0  0
   -4.6648   23.1339  -13.6618 C   0  0  0  0  0  0  0  0  0  0  0  0
   -5.0965   23.2509  -14.9902 C   0  0  0  0  0  0  0  0  0  0  0  0
   -4.9342   22.2441  -11.3542 C   0  0  0  0  0  0  0  0  0  0  0  0
   -3.8739   21.3672  -10.9911 N   0  0  0  0  0  0  0  0  0  0  0  0
   -5.4862   22.8972  -10.4137 N   0  0  0  0  0  0  0  0  0  0  0  0
   -2.9691   21.3778  -11.5028 H   0  0  0  0  0  0  0  0  0  0  0  0
   -4.0076   20.6964  -10.1896 H   0  0  0  0  0  0  0  0  0  0  0  0
   -6.2539   23.5712  -10.4584 H   0  0  0  0  0  0  0  0  0  0  0  0
   -5.4123   23.2583  -26.3517 O   0  0  0  0  0  0  0  0  0  0  0  0
   -1.7867   22.3634  -24.4383 C   0  0  0  0  0  0  0  0  0  0  0  0
   -2.9804   22.6582  -25.0874 C   0  0  0  0  0  0  0  0  0  0  0  0
   -3.0500   22.7803  -26.4762 C   0  0  0  0  0  0  0  0  0  0  0  0
   -4.2458   23.0762  -27.0945 C   0  0  0  0  0  0  0  0  0  0  0  0
   -4.3149   23.2005  -28.4774 C   0  0  0  0  0  0  0  0  0  0  0  0
   -3.1348   23.0122  -29.1669 C   0  0  0  0  0  0  0  0  0  0  0  0
   -1.9774   22.7241  -28.5443 N   0  0  0  0  0  0  0  0  0  0  0  0
   -1.8807   22.5964  -27.1921 C   0  0  0  0  0  0  0  0  0  0  0  0
   -0.6810   22.3031  -26.5821 C   0  0  0  0  0  0  0  0  0  0  0  0
   -0.6527   22.1904  -25.2031 C   0  0  0  0  0  0  0  0  0  0  0  0
    0.8849   21.8168  -24.4529 Cl  0  0  0  0  0  0  0  0  0  0  0  0
   -2.9181   22.0541  -22.3441 C   0  0  0  0  0  0  0  0  0  0  0  0
   -1.7058   22.2397  -23.0593 O   0  0  0  0  0  0  0  0  0  0  0  0
   -5.6103   23.5014  -29.0892 C   0  0  0  0  0  0  0  0  0  0  0  0
   -5.5668   24.9144  -29.6114 C   0  0  0  0  0  0  0  0  0  0  0  0
   -4.5693   25.2260  -30.5696 N   0  0  0  0  0  0  0  0  0  0  0  0
   -6.3795   25.7958  -29.2196 O   0  0  0  0  0  0  0  0  0  0  0  0
   -3.5506   25.1672  -30.3512 H   0  0  0  0  0  0  0  0  0  0  0  0
   -4.8243   25.5246  -31.5255 H   0  0  0  0  0  0  0  0  0  0  0  0
 43 44  1  0  0  0
 44 32  1  0  0  0
 32 33  2  0  0  0
 33 34  1  0  0  0
 34 35  2  0  0  0
 35 31  1  0  0  0
 31  1  1  0  0  0
  1  2  2  0  0  0
  2  3  1  0  0  0
  3  4  2  0  0  0
  4  5  1  0  0  0
  5  7  1  0  0  0
  7  8  1  0  0  0
  8  9  2  0  0  0
  8 11  1  0  0  0
 11 12  1  0  0  0
 12 13  1  0  0  0
 13 14  1  0  0  0
 14 15  1  0  0  0
 15 16  1  0  0  0
 16 17  1  0  0  0
 17 18  1  0  0  0
 16 19  1  0  0  0
 19 20  2  0  0  0
 20 21  1  0  0  0
 21 22  2  0  0  0
 22 23  1  0  0  0
 23 24  2  0  0  0
 22 25  1  0  0  0
 25 26  1  0  0  0
 25 27  2  0  0  0
  5  6  2  0  0  0
 35 36  1  0  0  0
 36 45  1  0  0  0
 45 46  1  0  0  0
 46 47  1  0  0  0
 46 48  2  0  0  0
 36 37  2  0  0  0
 37 38  1  0  0  0
 38 39  2  0  0  0
 39 40  1  0  0  0
 40 41  2  0  0  0
 41 42  1  0  0  0
 41 32  1  0  0  0
 39 34  1  0  0  0
  6  1  1  0  0  0
 18 13  1  0  0  0
 24 19  1  0  0  0
  7 10  1  0  0  0
 26 28  1  0  0  0
 26 29  1  0  0  0
 27 30  1  0  0  0
 47 49  1  0  0  0
 47 50  1  0  0  0
M  END
> <minimizedAffinity>
-8.56782

> <CNNscore>
0.3182807267

> <CNNaffinity>
7.1376214027

> <CNN_VS>
2.2717673779

> <CNNaffinity_variance>
0.1492042243

$$$$
[H]N=C(c1c([H])c([H])c(N2C([H])([H])C([H])([H])N(C([H])([H])C([H])([H])C(=O)N([H])c3c([H])c([H])c([H])c(Oc4c(C([H])([H])C(=O)N([H])[H])c([H])nc5c([H])c(Cl)c(OC([H])([H])[H])c([H])c45)c3[H])C([H])([H])C2([H])[H])c([H])c1[H])N([H])[H]


 50 54  0  0  0  0  0  0  0  0999 V2000
   -6.0204   23.8467  -25.3018 C   0  0  0  0  0  0  0  0  0  0  0  0
   -6.0961   25.1730  -25.7048 C   0  0  0  0  0  0  0  0  0  0  0  0
   -6.4192   26.1093  -24.7557 C   0  0  0  0  0  0  0  0  0  0  0  0
   -6.6696   25.7682  -23.4186 C   0  0  0  0  0  0  0  0  0  0  0  0
   -6.5984   24.4685  -23.0139 C   0  0  0  0  0  0  0  0  0  0  0  0
   -6.2688   23.5265  -23.9863 C   0  0  0  0  0  0  0  0  0  0  0  0
   -6.8656   24.0455  -21.6942 N   0  0  0  0  0  0  0  0  0  0  0  0
   -6.3432   24.5538  -20.5128 C   0  0  0  0  0  0  0  0  0  0  0  0
   -5.5354   25.4895  -20.4657 O   0  0  0  0  0  0  0  0  0  0  0  0
   -7.5637   23.2179  -21.5788 H   0  0  0  0  0  0  0  0  0  0  0  0
   -6.7592   23.9635  -19.2026 C   0  0  0  0  0  0  0  0  0  0  0  0
   -6.1616   22.6019  -19.0271 C   0  0  0  0  0  0  0  0  0  0  0  0
   -7.0803   21.7107  -18.4078 N   0  0  0  0  0  0  0  0  0  0  0  0
   -7.9552   22.3529  -17.4999 C   0  0  0  0  0  0  0  0  0  0  0  0
   -8.7786   21.3971  -16.6752 C   0  0  0  0  0  0  0  0  0  0  0  0
   -8.6734   20.0144  -17.0336 N   0  0  0  0  0  0  0  0  0  0  0  0
   -7.4532   19.4617  -17.5457 C   0  0  0  0  0  0  0  0  0  0  0  0
   -6.4589   20.5326  -17.8286 C   0  0  0  0  0  0  0  0  0  0  0  0
   -9.8349   19.1759  -16.8481 C   0  0  0  0  0  0  0  0  0  0  0  0
  -11.1046   19.6408  -16.6709 C   0  0  0  0  0  0  0  0  0  0  0  0
  -12.1906   18.7691  -16.5036 C   0  0  0  0  0  0  0  0  0  0  0  0
  -12.0076   17.4050  -16.5129 C   0  0  0  0  0  0  0  0  0  0  0  0
  -10.7293   16.9351  -16.6909 C   0  0  0  0  0  0  0  0  0  0  0  0
   -9.6487   17.8122  -16.8573 C   0  0  0  0  0  0  0  0  0  0  0  0
  -13.1552   16.5094  -16.3396 C   0  0  0  0  0  0  0  0  0  0  0  0
  -14.2979   16.5967  -17.1832 N   0  0  0  0  0  0  0  0  0  0  0  0
  -13.1783   15.6194  -15.4324 N   0  0  0  0  0  0  0  0  0  0  0  0
  -14.2004   16.6340  -18.2174 H   0  0  0  0  0  0  0  0  0  0  0  0
  -15.2592   16.6231  -16.7525 H   0  0  0  0  0  0  0  0  0  0  0  0
  -12.4695   15.3924  -14.7312 H   0  0  0  0  0  0  0  0  0  0  0  0
   -5.6928   22.8776  -26.2575 O   0  0  0  0  0  0  0  0  0  0  0  0
   -2.0701   22.0044  -24.3286 C   0  0  0  0  0  0  0  0  0  0  0  0
   -3.2621   22.2959  -24.9824 C   0  0  0  0  0  0  0  0  0  0  0  0
   -3.2876   22.6904  -26.3212 C   0  0  0  0  0  0  0  0  0  0  0  0
   -4.4830   22.9765  -26.9448 C   0  0  0  0  0  0  0  0  0  0  0  0
   -4.5084   23.3718  -28.2772 C   0  0  0  0  0  0  0  0  0  0  0  0
   -3.2866   23.4552  -28.9127 C   0  0  0  0  0  0  0  0  0  0  0  0
   -2.1304   23.1717  -28.2858 N   0  0  0  0  0  0  0  0  0  0  0  0
   -2.0758   22.7822  -26.9822 C   0  0  0  0  0  0  0  0  0  0  0  0
   -0.8765   22.5008  -26.3660 C   0  0  0  0  0  0  0  0  0  0  0  0
   -0.8928   22.1131  -25.0376 C   0  0  0  0  0  0  0  0  0  0  0  0
    0.6455   21.7611  -24.2783 Cl  0  0  0  0  0  0  0  0  0  0  0  0
   -3.2230   21.7549  -22.2381 C   0  0  0  0  0  0  0  0  0  0  0  0
   -2.0329   21.6117  -22.9990 O   0  0  0  0  0  0  0  0  0  0  0  0
   -5.8035   23.6509  -28.9000 C   0  0  0  0  0  0  0  0  0  0  0  0
   -5.6982   24.9607  -29.6377 C   0  0  0  0  0  0  0  0  0  0  0  0
   -5.8392   24.9289  -31.0482 N   0  0  0  0  0  0  0  0  0  0  0  0
   -5.4921   26.0502  -29.0366 O   0  0  0  0  0  0  0  0  0  0  0  0
   -5.1719   24.4126  -31.6623 H   0  0  0  0  0  0  0  0  0  0  0  0
   -6.6170   25.4224  -31.5165 H   0  0  0  0  0  0  0  0  0  0  0  0
 43 44  1  0  0  0
 44 32  1  0  0  0
 32 33  2  0  0  0
 33 34  1  0  0  0
 34 35  2  0  0  0
 35 31  1  0  0  0
 31  1  1  0  0  0
  1  2  2  0  0  0
  2  3  1  0  0  0
  3  4  2  0  0  0
  4  5  1  0  0  0
  5  7  1  0  0  0
  7  8  1  0  0  0
  8  9  2  0  0  0
  8 11  1  0  0  0
 11 12  1  0  0  0
 12 13  1  0  0  0
 13 14  1  0  0  0
 14 15  1  0  0  0
 15 16  1  0  0  0
 16 17  1  0  0  0
 17 18  1  0  0  0
 16 19  1  0  0  0
 19 20  2  0  0  0
 20 21  1  0  0  0
 21 22  2  0  0  0
 22 23  1  0  0  0
 23 24  2  0  0  0
 22 25  1  0  0  0
 25 26  1  0  0  0
 25 27  2  0  0  0
  5  6  2  0  0  0
 35 36  1  0  0  0
 36 45  1  0  0  0
 45 46  1  0  0  0
 46 47  1  0  0  0
 46 48  2  0  0  0
 36 37  2  0  0  0
 37 38  1  0  0  0
 38 39  2  0  0  0
 39 40  1  0  0  0
 40 41  2  0  0  0
 41 42  1  0  0  0
 41 32  1  0  0  0
 39 34  1  0  0  0
  6  1  1  0  0  0
 18 13  1  0  0  0
 24 19  1  0  0  0
  7 10  1  0  0  0
 26 28  1  0  0  0
 26 29  1  0  0  0
 27 30  1  0  0  0
 47 49  1  0  0  0
 47 50  1  0  0  0
M  END
> <minimizedAffinity>
-8.77201

> <CNNscore>
0.2831332088

> <CNNaffinity>
6.9894838333

> <CNN_VS>
1.9789550304

> <CNNaffinity_variance>
0.3388858140

$$$$
[H]N=C(c1c([H])c([H])c(N2C([H])([H])C([H])([H])N(C([H])([H])C([H])([H])C(=O)N([H])c3c([H])c([H])c([H])c(Oc4c(C([H])([H])C(=O)N([H])[H])c([H])nc5c([H])c(Cl)c(OC([H])([H])[H])c([H])c45)c3[H])C([H])([H])C2([H])[H])c([H])c1[H])N([H])[H]


 50 54  0  0  0  0  0  0  0  0999 V2000
   -5.7118   24.1156  -25.5044 C   0  0  0  0  0  0  0  0  0  0  0  0
   -4.8996   25.2350  -25.6252 C   0  0  0  0  0  0  0  0  0  0  0  0
   -5.3310   26.4003  -25.0441 C   0  0  0  0  0  0  0  0  0  0  0  0
   -6.5448   26.4876  -24.3467 C   0  0  0  0  0  0  0  0  0  0  0  0
   -7.3491   25.3940  -24.2237 C   0  0  0  0  0  0  0  0  0  0  0  0
   -6.9003   24.2160  -24.8174 C   0  0  0  0  0  0  0  0  0  0  0  0
   -8.5964   25.4119  -23.5635 N   0  0  0  0  0  0  0  0  0  0  0  0
   -8.8982   25.9597  -22.3242 C   0  0  0  0  0  0  0  0  0  0  0  0
   -8.0686   26.5300  -21.6051 O   0  0  0  0  0  0  0  0  0  0  0  0
   -9.4292   24.9381  -24.0805 H   0  0  0  0  0  0  0  0  0  0  0  0
  -10.2956   25.8771  -21.7963 C   0  0  0  0  0  0  0  0  0  0  0  0
  -10.3010   26.0014  -20.3041 C   0  0  0  0  0  0  0  0  0  0  0  0
  -10.6178   24.7618  -19.6840 N   0  0  0  0  0  0  0  0  0  0  0  0
   -9.6059   23.7850  -19.8395 C   0  0  0  0  0  0  0  0  0  0  0  0
  -10.0193   22.4087  -19.3851 C   0  0  0  0  0  0  0  0  0  0  0  0
  -11.2904   22.3241  -18.7305 N   0  0  0  0  0  0  0  0  0  0  0  0
  -12.3793   23.1856  -19.0895 C   0  0  0  0  0  0  0  0  0  0  0  0
  -11.9317   24.2486  -20.0304 C   0  0  0  0  0  0  0  0  0  0  0  0
  -11.4567   21.3261  -17.6995 C   0  0  0  0  0  0  0  0  0  0  0  0
  -12.6457   20.7464  -17.3682 C   0  0  0  0  0  0  0  0  0  0  0  0
  -12.7354   19.7759  -16.3595 C   0  0  0  0  0  0  0  0  0  0  0  0
  -11.6164   19.3747  -15.6659 C   0  0  0  0  0  0  0  0  0  0  0  0
  -10.4180   19.9580  -15.9979 C   0  0  0  0  0  0  0  0  0  0  0  0
  -10.3360   20.9272  -17.0071 C   0  0  0  0  0  0  0  0  0  0  0  0
  -11.7290   18.3568  -14.6169 C   0  0  0  0  0  0  0  0  0  0  0  0
  -12.4508   17.1490  -14.8301 N   0  0  0  0  0  0  0  0  0  0  0  0
  -11.1882   18.5085  -13.4766 N   0  0  0  0  0  0  0  0  0  0  0  0
  -12.2948   16.5733  -15.6814 H   0  0  0  0  0  0  0  0  0  0  0  0
  -13.1545   16.8324  -14.1126 H   0  0  0  0  0  0  0  0  0  0  0  0
  -10.6327   19.2909  -13.1234 H   0  0  0  0  0  0  0  0  0  0  0  0
   -5.2875   22.9180  -26.0922 O   0  0  0  0  0  0  0  0  0  0  0  0
   -1.5741   22.0911  -24.3218 C   0  0  0  0  0  0  0  0  0  0  0  0
   -2.7970   22.3656  -24.9238 C   0  0  0  0  0  0  0  0  0  0  0  0
   -2.8987   22.6362  -26.2894 C   0  0  0  0  0  0  0  0  0  0  0  0
   -4.1233   22.9082  -26.8606 C   0  0  0  0  0  0  0  0  0  0  0  0
   -4.2245   23.1803  -28.2200 C   0  0  0  0  0  0  0  0  0  0  0  0
   -3.0454   23.1595  -28.9362 C   0  0  0  0  0  0  0  0  0  0  0  0
   -1.8596   22.8918  -28.3595 N   0  0  0  0  0  0  0  0  0  0  0  0
   -1.7311   22.6218  -27.0311 C   0  0  0  0  0  0  0  0  0  0  0  0
   -0.5030   22.3537  -26.4680 C   0  0  0  0  0  0  0  0  0  0  0  0
   -0.4434   22.0904  -25.1107 C   0  0  0  0  0  0  0  0  0  0  0  0
    1.1300   21.7525  -24.4201 Cl  0  0  0  0  0  0  0  0  0  0  0  0
   -1.4748   22.9246  -22.0730 C   0  0  0  0  0  0  0  0  0  0  0  0
   -1.4612   21.8210  -22.9662 O   0  0  0  0  0  0  0  0  0  0  0  0
   -5.5486   23.4491  -28.7834 C   0  0  0  0  0  0  0  0  0  0  0  0
   -5.4818   24.7494  -29.5421 C   0  0  0  0  0  0  0  0  0  0  0  0
   -5.8627   24.7288  -30.9078 N   0  0  0  0  0  0  0  0  0  0  0  0
   -5.1030   25.8216  -28.9965 O   0  0  0  0  0  0  0  0  0  0  0  0
   -5.3463   24.1687  -31.6208 H   0  0  0  0  0  0  0  0  0  0  0  0
   -6.6736   25.2751  -31.2424 H   0  0  0  0  0  0  0  0  0  0  0  0
 43 44  1  0  0  0
 44 32  1  0  0  0
 32 33  2  0  0  0
 33 34  1  0  0  0
 34 35  2  0  0  0
 35 31  1  0  0  0
 31  1  1  0  0  0
  1  2  2  0  0  0
  2  3  1  0  0  0
  3  4  2  0  0  0
  4  5  1  0  0  0
  5  7  1  0  0  0
  7  8  1  0  0  0
  8  9  2  0  0  0
  8 11  1  0  0  0
 11 12  1  0  0  0
 12 13  1  0  0  0
 13 14  1  0  0  0
 14 15  1  0  0  0
 15 16  1  0  0  0
 16 17  1  0  0  0
 17 18  1  0  0  0
 16 19  1  0  0  0
 19 20  2  0  0  0
 20 21  1  0  0  0
 21 22  2  0  0  0
 22 23  1  0  0  0
 23 24  2  0  0  0
 22 25  1  0  0  0
 25 26  1  0  0  0
 25 27  2  0  0  0
  5  6  2  0  0  0
 35 36  1  0  0  0
 36 45  1  0  0  0
 45 46  1  0  0  0
 46 47  1  0  0  0
 46 48  2  0  0  0
 36 37  2  0  0  0
 37 38  1  0  0  0
 38 39  2  0  0  0
 39 40  1  0  0  0
 40 41  2  0  0  0
 41 42  1  0  0  0
 41 32  1  0  0  0
 39 34  1  0  0  0
  6  1  1  0  0  0
 18 13  1  0  0  0
 24 19  1  0  0  0
  7 10  1  0  0  0
 26 28  1  0  0  0
 26 29  1  0  0  0
 27 30  1  0  0  0
 47 49  1  0  0  0
 47 50  1  0  0  0
M  END
> <minimizedAffinity>
-9.96665

> <CNNscore>
0.2785413265

> <CNNaffinity>
6.9696145058

> <CNN_VS>
1.9413256645

> <CNNaffinity_variance>
0.1979147196

$$$$
[H]N=C(c1c([H])c([H])c(N2C([H])([H])C([H])([H])N(C([H])([H])C([H])([H])C(=O)N([H])c3c([H])c([H])c([H])c(Oc4c(C([H])([H])C(=O)N([H])[H])c([H])nc5c([H])c(Cl)c(OC([H])([H])[H])c([H])c45)c3[H])C([H])([H])C2([H])[H])c([H])c1[H])N([H])[H]


 50 54  0  0  0  0  0  0  0  0999 V2000
   -2.4290   21.6184  -24.4391 C   0  0  0  0  0  0  0  0  0  0  0  0
   -1.4888   21.8594  -25.4318 C   0  0  0  0  0  0  0  0  0  0  0  0
   -0.1901   22.0670  -25.0418 C   0  0  0  0  0  0  0  0  0  0  0  0
    0.2031   22.0425  -23.6958 C   0  0  0  0  0  0  0  0  0  0  0  0
   -0.7131   21.8075  -22.7143 C   0  0  0  0  0  0  0  0  0  0  0  0
   -2.0287   21.5976  -23.1223 C   0  0  0  0  0  0  0  0  0  0  0  0
   -0.3987   21.7972  -21.3384 N   0  0  0  0  0  0  0  0  0  0  0  0
   -0.7575   22.7289  -20.3740 C   0  0  0  0  0  0  0  0  0  0  0  0
   -1.4323   23.7382  -20.6116 O   0  0  0  0  0  0  0  0  0  0  0  0
    0.2005   20.9613  -20.9809 H   0  0  0  0  0  0  0  0  0  0  0  0
   -0.3237   22.5338  -18.9555 C   0  0  0  0  0  0  0  0  0  0  0  0
    1.1536   22.7405  -18.8254 C   0  0  0  0  0  0  0  0  0  0  0  0
    1.5514   22.7783  -17.4609 N   0  0  0  0  0  0  0  0  0  0  0  0
    2.9501   22.9075  -17.2905 C   0  0  0  0  0  0  0  0  0  0  0  0
    3.4049   22.7251  -15.8652 C   0  0  0  0  0  0  0  0  0  0  0  0
    2.3635   22.6079  -14.8888 N   0  0  0  0  0  0  0  0  0  0  0  0
    1.1094   21.9853  -15.1990 C   0  0  0  0  0  0  0  0  0  0  0  0
    0.9991   21.7026  -16.6562 C   0  0  0  0  0  0  0  0  0  0  0  0
    2.6164   23.1226  -13.5630 C   0  0  0  0  0  0  0  0  0  0  0  0
    1.9278   24.1489  -12.9869 C   0  0  0  0  0  0  0  0  0  0  0  0
    2.2207   24.5949  -11.6898 C   0  0  0  0  0  0  0  0  0  0  0  0
    3.2213   24.0058  -10.9510 C   0  0  0  0  0  0  0  0  0  0  0  0
    3.9163   22.9722  -11.5299 C   0  0  0  0  0  0  0  0  0  0  0  0
    3.6181   22.5318  -12.8268 C   0  0  0  0  0  0  0  0  0  0  0  0
    3.5112   24.4835   -9.5956 C   0  0  0  0  0  0  0  0  0  0  0  0
    4.1260   23.6405   -8.6279 N   0  0  0  0  0  0  0  0  0  0  0  0
    3.2277   25.6669   -9.2284 N   0  0  0  0  0  0  0  0  0  0  0  0
    4.9795   23.0933   -8.8571 H   0  0  0  0  0  0  0  0  0  0  0  0
    3.7095   23.5703   -7.6626 H   0  0  0  0  0  0  0  0  0  0  0  0
    2.7901   26.4220   -9.7614 H   0  0  0  0  0  0  0  0  0  0  0  0
   -3.7594   21.4054  -24.8191 O   0  0  0  0  0  0  0  0  0  0  0  0
   -3.3348   23.7451  -28.2763 C   0  0  0  0  0  0  0  0  0  0  0  0
   -3.4891   22.9790  -27.1263 C   0  0  0  0  0  0  0  0  0  0  0  0
   -4.4623   23.2770  -26.1709 C   0  0  0  0  0  0  0  0  0  0  0  0
   -4.5921   22.5028  -25.0380 C   0  0  0  0  0  0  0  0  0  0  0  0
   -5.5594   22.8009  -24.0851 C   0  0  0  0  0  0  0  0  0  0  0  0
   -6.3572   23.8957  -24.3469 C   0  0  0  0  0  0  0  0  0  0  0  0
   -6.2141   24.6389  -25.4592 N   0  0  0  0  0  0  0  0  0  0  0  0
   -5.2759   24.3702  -26.4088 C   0  0  0  0  0  0  0  0  0  0  0  0
   -5.1513   25.1507  -27.5368 C   0  0  0  0  0  0  0  0  0  0  0  0
   -4.1743   24.8231  -28.4606 C   0  0  0  0  0  0  0  0  0  0  0  0
   -4.0371   25.8315  -29.8857 Cl  0  0  0  0  0  0  0  0  0  0  0  0
   -1.0419   23.2461  -28.7816 C   0  0  0  0  0  0  0  0  0  0  0  0
   -2.3715   23.4585  -29.2320 O   0  0  0  0  0  0  0  0  0  0  0  0
   -5.6683   21.9408  -22.9055 C   0  0  0  0  0  0  0  0  0  0  0  0
   -5.5142   22.8030  -21.6792 C   0  0  0  0  0  0  0  0  0  0  0  0
   -4.3134   23.5458  -21.5499 N   0  0  0  0  0  0  0  0  0  0  0  0
   -6.4102   22.8701  -20.7939 O   0  0  0  0  0  0  0  0  0  0  0  0
   -3.3807   23.0853  -21.4680 H   0  0  0  0  0  0  0  0  0  0  0  0
   -4.3260   24.5790  -21.5326 H   0  0  0  0  0  0  0  0  0  0  0  0
 43 44  1  0  0  0
 44 32  1  0  0  0
 32 33  2  0  0  0
 33 34  1  0  0  0
 34 35  2  0  0  0
 35 31  1  0  0  0
 31  1  1  0  0  0
  1  2  2  0  0  0
  2  3  1  0  0  0
  3  4  2  0  0  0
  4  5  1  0  0  0
  5  7  1  0  0  0
  7  8  1  0  0  0
  8  9  2  0  0  0
  8 11  1  0  0  0
 11 12  1  0  0  0
 12 13  1  0  0  0
 13 14  1  0  0  0
 14 15  1  0  0  0
 15 16  1  0  0  0
 16 17  1  0  0  0
 17 18  1  0  0  0
 16 19  1  0  0  0
 19 20  2  0  0  0
 20 21  1  0  0  0
 21 22  2  0  0  0
 22 23  1  0  0  0
 23 24  2  0  0  0
 22 25  1  0  0  0
 25 26  1  0  0  0
 25 27  2  0  0  0
  5  6  2  0  0  0
 35 36  1  0  0  0
 36 45  1  0  0  0
 45 46  1  0  0  0
 46 47  1  0  0  0
 46 48  2  0  0  0
 36 37  2  0  0  0
 37 38  1  0  0  0
 38 39  2  0  0  0
 39 40  1  0  0  0
 40 41  2  0  0  0
 41 42  1  0  0  0
 41 32  1  0  0  0
 39 34  1  0  0  0
  6  1  1  0  0  0
 18 13  1  0  0  0
 24 19  1  0  0  0
  7 10  1  0  0  0
 26 28  1  0  0  0
 26 29  1  0  0  0
 27 30  1  0  0  0
 47 49  1  0  0  0
 47 50  1  0  0  0
M  END
> <minimizedAffinity>
-8.82098

> <CNNscore>
0.2752910256

> <CNNaffinity>
6.3562688828

> <CNN_VS>
1.7498238087

> <CNNaffinity_variance>
0.1182518452

$$$$
[H]N=C(c1c([H])c([H])c(N2C([H])([H])C([H])([H])N(C([H])([H])C([H])([H])C(=O)N([H])c3c([H])c([H])c([H])c(Oc4c(C([H])([H])C(=O)N([H])[H])c([H])nc5c([H])c(Cl)c(OC([H])([H])[H])c([H])c45)c3[H])C([H])([H])C2([H])[H])c([H])c1[H])N([H])[H]


 50 54  0  0  0  0  0  0  0  0999 V2000
   -2.3968   22.7285  -27.4500 C   0  0  0  0  0  0  0  0  0  0  0  0
   -1.5940   23.2428  -28.4591 C   0  0  0  0  0  0  0  0  0  0  0  0
   -0.2351   23.1977  -28.2768 C   0  0  0  0  0  0  0  0  0  0  0  0
    0.3505   22.6575  -27.1226 C   0  0  0  0  0  0  0  0  0  0  0  0
   -0.4297   22.1511  -26.1263 C   0  0  0  0  0  0  0  0  0  0  0  0
   -1.8083   22.2017  -26.3227 C   0  0  0  0  0  0  0  0  0  0  0  0
    0.0853   21.6190  -24.9247 N   0  0  0  0  0  0  0  0  0  0  0  0
   -0.1992   22.0149  -23.6250 C   0  0  0  0  0  0  0  0  0  0  0  0
   -0.9797   22.9320  -23.3418 O   0  0  0  0  0  0  0  0  0  0  0  0
    0.7953   20.7990  -25.0189 H   0  0  0  0  0  0  0  0  0  0  0  0
    0.4544   21.3147  -22.4757 C   0  0  0  0  0  0  0  0  0  0  0  0
   -0.5769   20.7996  -21.5201 C   0  0  0  0  0  0  0  0  0  0  0  0
   -0.1867   21.0209  -20.1709 N   0  0  0  0  0  0  0  0  0  0  0  0
    1.0149   20.3602  -19.8216 C   0  0  0  0  0  0  0  0  0  0  0  0
    1.3207   20.4014  -18.3464 C   0  0  0  0  0  0  0  0  0  0  0  0
    0.4536   21.2198  -17.5528 N   0  0  0  0  0  0  0  0  0  0  0  0
   -0.9335   21.3815  -17.8790 C   0  0  0  0  0  0  0  0  0  0  0  0
   -1.2442   20.7803  -19.2047 C   0  0  0  0  0  0  0  0  0  0  0  0
    1.0128   21.8724  -16.3917 C   0  0  0  0  0  0  0  0  0  0  0  0
    2.1426   22.6359  -16.4021 C   0  0  0  0  0  0  0  0  0  0  0  0
    2.6274   23.2484  -15.2372 C   0  0  0  0  0  0  0  0  0  0  0  0
    1.9727   23.0968  -14.0362 C   0  0  0  0  0  0  0  0  0  0  0  0
    0.8348   22.3277  -14.0238 C   0  0  0  0  0  0  0  0  0  0  0  0
    0.3561   21.7185  -15.1919 C   0  0  0  0  0  0  0  0  0  0  0  0
    2.4927   23.7472  -12.8297 C   0  0  0  0  0  0  0  0  0  0  0  0
    2.0156   25.0203  -12.4093 N   0  0  0  0  0  0  0  0  0  0  0  0
    3.3880   23.2035  -12.1095 N   0  0  0  0  0  0  0  0  0  0  0  0
    0.9971   25.2180  -12.3459 H   0  0  0  0  0  0  0  0  0  0  0  0
    2.7063   25.7751  -12.1573 H   0  0  0  0  0  0  0  0  0  0  0  0
    3.8581   22.3037  -12.2320 H   0  0  0  0  0  0  0  0  0  0  0  0
   -3.7860   22.7672  -27.6188 O   0  0  0  0  0  0  0  0  0  0  0  0
   -5.4334   22.7332  -23.7598 C   0  0  0  0  0  0  0  0  0  0  0  0
   -4.8926   22.7606  -25.0405 C   0  0  0  0  0  0  0  0  0  0  0  0
   -5.0459   23.8664  -25.8785 C   0  0  0  0  0  0  0  0  0  0  0  0
   -4.5021   23.8665  -27.1450 C   0  0  0  0  0  0  0  0  0  0  0  0
   -4.6568   24.9665  -27.9807 C   0  0  0  0  0  0  0  0  0  0  0  0
   -5.3732   26.0277  -27.4667 C   0  0  0  0  0  0  0  0  0  0  0  0
   -5.8963   26.0078  -26.2273 N   0  0  0  0  0  0  0  0  0  0  0  0
   -5.7603   24.9445  -25.3876 C   0  0  0  0  0  0  0  0  0  0  0  0
   -6.3093   24.9518  -24.1244 C   0  0  0  0  0  0  0  0  0  0  0  0
   -6.1358   23.8365  -23.3237 C   0  0  0  0  0  0  0  0  0  0  0  0
   -6.8437   23.8717  -21.7224 Cl  0  0  0  0  0  0  0  0  0  0  0  0
   -4.1260   21.5886  -22.1039 C   0  0  0  0  0  0  0  0  0  0  0  0
   -5.2875   21.6402  -22.9187 O   0  0  0  0  0  0  0  0  0  0  0  0
   -4.0487   24.9254  -29.3117 C   0  0  0  0  0  0  0  0  0  0  0  0
   -5.1539   24.9690  -30.3352 C   0  0  0  0  0  0  0  0  0  0  0  0
   -5.0486   25.9335  -31.3692 N   0  0  0  0  0  0  0  0  0  0  0  0
   -6.1404   24.1846  -30.2858 O   0  0  0  0  0  0  0  0  0  0  0  0
   -5.0492   26.9588  -31.1755 H   0  0  0  0  0  0  0  0  0  0  0  0
   -4.9671   25.6463  -32.3585 H   0  0  0  0  0  0  0  0  0  0  0  0
 43 44  1  0  0  0
 44 32  1  0  0  0
 32 33  2  0  0  0
 33 34  1  0  0  0
 34 35  2  0  0  0
 35 31  1  0  0  0
 31  1  1  0  0  0
  1  2  2  0  0  0
  2  3  1  0  0  0
  3  4  2  0  0  0
  4  5  1  0  0  0
  5  7  1  0  0  0
  7  8  1  0  0  0
  8  9  2  0  0  0
  8 11  1  0  0  0
 11 12  1  0  0  0
 12 13  1  0  0  0
 13 14  1  0  0  0
 14 15  1  0  0  0
 15 16  1  0  0  0
 16 17  1  0  0  0
 17 18  1  0  0  0
 16 19  1  0  0  0
 19 20  2  0  0  0
 20 21  1  0  0  0
 21 22  2  0  0  0
 22 23  1  0  0  0
 23 24  2  0  0  0
 22 25  1  0  0  0
 25 26  1  0  0  0
 25 27  2  0  0  0
  5  6  2  0  0  0
 35 36  1  0  0  0
 36 45  1  0  0  0
 45 46  1  0  0  0
 46 47  1  0  0  0
 46 48  2  0  0  0
 36 37  2  0  0  0
 37 38  1  0  0  0
 38 39  2  0  0  0
 39 40  1  0  0  0
 40 41  2  0  0  0
 41 42  1  0  0  0
 41 32  1  0  0  0
 39 34  1  0  0  0
  6  1  1  0  0  0
 18 13  1  0  0  0
 24 19  1  0  0  0
  7 10  1  0  0  0
 26 28  1  0  0  0
 26 29  1  0  0  0
 27 30  1  0  0  0
 47 49  1  0  0  0
 47 50  1  0  0  0
M  END
> <minimizedAffinity>
-9.62098

> <CNNscore>
0.2459420860

> <CNNaffinity>
6.8798875809

> <CNN_VS>
1.6920539141

> <CNNaffinity_variance>
0.2103694379

$$$$
[H]N=C(c1c([H])c([H])c(N2C([H])([H])C([H])([H])N(C([H])([H])C([H])([H])C(=O)N([H])c3c([H])c([H])c([H])c(Oc4c(C([H])([H])C(=O)N([H])[H])c([H])nc5c([H])c(Cl)c(OC([H])([H])[H])c([H])c45)c3[H])C([H])([H])C2([H])[H])c([H])c1[H])N([H])[H]


 50 54  0  0  0  0  0  0  0  0999 V2000
   -5.6976   23.6284  -25.7350 C   0  0  0  0  0  0  0  0  0  0  0  0
   -5.4519   24.9856  -25.8929 C   0  0  0  0  0  0  0  0  0  0  0  0
   -5.8661   25.8283  -24.8928 C   0  0  0  0  0  0  0  0  0  0  0  0
   -6.5169   25.3638  -23.7406 C   0  0  0  0  0  0  0  0  0  0  0  0
   -6.7632   24.0331  -23.5772 C   0  0  0  0  0  0  0  0  0  0  0  0
   -6.3376   23.1869  -24.5991 C   0  0  0  0  0  0  0  0  0  0  0  0
   -7.4384   23.4949  -22.4608 N   0  0  0  0  0  0  0  0  0  0  0  0
   -6.8883   23.0208  -21.2777 C   0  0  0  0  0  0  0  0  0  0  0  0
   -5.6740   23.0092  -21.0413 O   0  0  0  0  0  0  0  0  0  0  0  0
   -8.5237   23.4380  -22.5275 H   0  0  0  0  0  0  0  0  0  0  0  0
   -7.7834   22.4882  -20.2038 C   0  0  0  0  0  0  0  0  0  0  0  0
   -8.3858   23.6114  -19.4179 C   0  0  0  0  0  0  0  0  0  0  0  0
   -9.3111   24.3526  -20.2029 N   0  0  0  0  0  0  0  0  0  0  0  0
   -9.1264   25.7524  -20.1101 C   0  0  0  0  0  0  0  0  0  0  0  0
  -10.2304   26.5517  -20.7534 C   0  0  0  0  0  0  0  0  0  0  0  0
  -11.2017   25.7959  -21.4860 N   0  0  0  0  0  0  0  0  0  0  0  0
  -11.5790   24.4709  -21.0875 C   0  0  0  0  0  0  0  0  0  0  0  0
  -10.6969   23.9688  -19.9989 C   0  0  0  0  0  0  0  0  0  0  0  0
  -11.8124   26.4146  -22.6396 C   0  0  0  0  0  0  0  0  0  0  0  0
  -11.9362   27.7603  -22.8213 C   0  0  0  0  0  0  0  0  0  0  0  0
  -12.5345   28.2955  -23.9715 C   0  0  0  0  0  0  0  0  0  0  0  0
  -13.0200   27.4722  -24.9617 C   0  0  0  0  0  0  0  0  0  0  0  0
  -12.8965   26.1163  -24.7801 C   0  0  0  0  0  0  0  0  0  0  0  0
  -12.2975   25.5886  -23.6280 C   0  0  0  0  0  0  0  0  0  0  0  0
  -13.6395   28.0498  -26.1583 C   0  0  0  0  0  0  0  0  0  0  0  0
  -13.0138   29.1032  -26.8821 N   0  0  0  0  0  0  0  0  0  0  0  0
  -14.7573   27.6354  -26.5992 N   0  0  0  0  0  0  0  0  0  0  0  0
  -12.0130   29.0455  -27.1569 H   0  0  0  0  0  0  0  0  0  0  0  0
  -13.5746   29.9557  -27.1448 H   0  0  0  0  0  0  0  0  0  0  0  0
  -15.3634   26.8976  -26.2334 H   0  0  0  0  0  0  0  0  0  0  0  0
   -5.2826   22.7541  -26.7465 O   0  0  0  0  0  0  0  0  0  0  0  0
   -1.8355   21.9045  -24.5099 C   0  0  0  0  0  0  0  0  0  0  0  0
   -2.9680   22.1890  -25.2647 C   0  0  0  0  0  0  0  0  0  0  0  0
   -2.8777   22.6341  -26.5846 C   0  0  0  0  0  0  0  0  0  0  0  0
   -4.0164   22.9120  -27.3099 C   0  0  0  0  0  0  0  0  0  0  0  0
   -3.9267   23.3577  -28.6235 C   0  0  0  0  0  0  0  0  0  0  0  0
   -2.6530   23.4985  -29.1348 C   0  0  0  0  0  0  0  0  0  0  0  0
   -1.5537   23.2220  -28.4099 N   0  0  0  0  0  0  0  0  0  0  0  0
   -1.6118   22.7840  -27.1219 C   0  0  0  0  0  0  0  0  0  0  0  0
   -0.4687   22.5113  -26.4035 C   0  0  0  0  0  0  0  0  0  0  0  0
   -0.5997   22.0722  -25.0977 C   0  0  0  0  0  0  0  0  0  0  0  0
    0.8691   21.7325  -24.2067 Cl  0  0  0  0  0  0  0  0  0  0  0  0
   -2.3356   22.3942  -22.2138 C   0  0  0  0  0  0  0  0  0  0  0  0
   -1.9133   21.4619  -23.1978 O   0  0  0  0  0  0  0  0  0  0  0  0
   -5.1644   23.6257  -29.3578 C   0  0  0  0  0  0  0  0  0  0  0  0
   -5.1785   25.0835  -29.7394 C   0  0  0  0  0  0  0  0  0  0  0  0
   -5.9333   25.4522  -30.8818 N   0  0  0  0  0  0  0  0  0  0  0  0
   -4.5475   25.9525  -29.0780 O   0  0  0  0  0  0  0  0  0  0  0  0
   -5.7048   25.0994  -31.8369 H   0  0  0  0  0  0  0  0  0  0  0  0
   -6.7428   26.0895  -30.8018 H   0  0  0  0  0  0  0  0  0  0  0  0
 43 44  1  0  0  0
 44 32  1  0  0  0
 32 33  2  0  0  0
 33 34  1  0  0  0
 34 35  2  0  0  0
 35 31  1  0  0  0
 31  1  1  0  0  0
  1  2  2  0  0  0
  2  3  1  0  0  0
  3  4  2  0  0  0
  4  5  1  0  0  0
  5  7  1  0  0  0
  7  8  1  0  0  0
  8  9  2  0  0  0
  8 11  1  0  0  0
 11 12  1  0  0  0
 12 13  1  0  0  0
 13 14  1  0  0  0
 14 15  1  0  0  0
 15 16  1  0  0  0
 16 17  1  0  0  0
 17 18  1  0  0  0
 16 19  1  0  0  0
 19 20  2  0  0  0
 20 21  1  0  0  0
 21 22  2  0  0  0
 22 23  1  0  0  0
 23 24  2  0  0  0
 22 25  1  0  0  0
 25 26  1  0  0  0
 25 27  2  0  0  0
  5  6  2  0  0  0
 35 36  1  0  0  0
 36 45  1  0  0  0
 45 46  1  0  0  0
 46 47  1  0  0  0
 46 48  2  0  0  0
 36 37  2  0  0  0
 37 38  1  0  0  0
 38 39  2  0  0  0
 39 40  1  0  0  0
 40 41  2  0  0  0
 41 42  1  0  0  0
 41 32  1  0  0  0
 39 34  1  0  0  0
  6  1  1  0  0  0
 18 13  1  0  0  0
 24 19  1  0  0  0
  7 10  1  0  0  0
 26 28  1  0  0  0
 26 29  1  0  0  0
 27 30  1  0  0  0
 47 49  1  0  0  0
 47 50  1  0  0  0
M  END
> <minimizedAffinity>
-9.62854

> <CNNscore>
0.2319225967

> <CNNaffinity>
7.3469190598

> <CNN_VS>
1.7039165497

> <CNNaffinity_variance>
0.1832269877

$$$$
[H]OC(=O)[C@@]([H])(N([H])C(=O)n1c([H])nc2c(=O)n([H])c(-c3c([H])c([H])c(O[H])c([H])c3[H])nc21)C([H])([H])C([H])([H])C([H])([H])C([H])([H])N([H])[H]


 35 37  0  0  0  0  0  0  0  0999 V2000
   -2.1772   23.3181  -27.1982 C   0  0  0  0  0  0  0  0  0  0  0  0
   -2.1364   22.9589  -25.8970 N   0  0  0  0  0  0  0  0  0  0  0  0
   -1.0717   22.3557  -25.3477 C   0  0  0  0  0  0  0  0  0  0  0  0
   -0.7858   21.9066  -24.1063 N   0  0  0  0  0  0  0  0  0  0  0  0
    0.4484   21.3742  -24.1053 C   0  0  0  0  0  0  0  0  0  0  0  0
    0.9334   21.4908  -25.3453 N   0  0  0  0  0  0  0  0  0  0  0  0
    0.0340   22.0880  -26.1436 C   0  0  0  0  0  0  0  0  0  0  0  0
   -0.0026   22.4491  -27.4588 C   0  0  0  0  0  0  0  0  0  0  0  0
    0.9863   22.2181  -28.2027 O   0  0  0  0  0  0  0  0  0  0  0  0
   -1.1219   23.0635  -27.9612 N   0  0  0  0  0  0  0  0  0  0  0  0
   -1.6393   21.9765  -22.9712 C   0  0  0  0  0  0  0  0  0  0  0  0
   -2.7848   22.4934  -23.0592 O   0  0  0  0  0  0  0  0  0  0  0  0
   -1.2418   21.4763  -21.7187 N   0  0  0  0  0  0  0  0  0  0  0  0
   -1.0833   23.3114  -28.9691 H   0  0  0  0  0  0  0  0  0  0  0  0
   -0.2850   21.0308  -21.5926 H   0  0  0  0  0  0  0  0  0  0  0  0
   -6.8063   25.8398  -29.1992 O   0  0  0  0  0  0  0  0  0  0  0  0
   -5.6628   25.2197  -28.7161 C   0  0  0  0  0  0  0  0  0  0  0  0
   -4.6120   24.9793  -29.5540 C   0  0  0  0  0  0  0  0  0  0  0  0
   -3.4853   24.3651  -29.0655 C   0  0  0  0  0  0  0  0  0  0  0  0
   -3.3663   23.9775  -27.7576 C   0  0  0  0  0  0  0  0  0  0  0  0
   -4.4416   24.2231  -26.8980 C   0  0  0  0  0  0  0  0  0  0  0  0
   -5.5631   24.8346  -27.3848 C   0  0  0  0  0  0  0  0  0  0  0  0
   -7.5924   25.3247  -29.5873 H   0  0  0  0  0  0  0  0  0  0  0  0
   -2.0656   21.5201  -20.5327 C   0  0  0  0  0  0  0  0  0  0  0  0
   -2.3014   22.9247  -20.1761 C   0  0  0  0  0  0  0  0  0  0  0  0
   -3.5811   23.4230  -20.2122 O   0  0  0  0  0  0  0  0  0  0  0  0
   -1.3647   23.6652  -19.8440 O   0  0  0  0  0  0  0  0  0  0  0  0
   -3.8787   23.8527  -21.1017 H   0  0  0  0  0  0  0  0  0  0  0  0
   -1.4852   20.7088  -19.4064 C   0  0  0  0  0  0  0  0  0  0  0  0
   -2.5390   20.2200  -18.4423 C   0  0  0  0  0  0  0  0  0  0  0  0
   -2.1454   18.8946  -17.8396 C   0  0  0  0  0  0  0  0  0  0  0  0
   -3.2750   17.8897  -17.8886 C   0  0  0  0  0  0  0  0  0  0  0  0
   -4.3817   18.3510  -18.6867 N   0  0  0  0  0  0  0  0  0  0  0  0
   -4.8883   19.0920  -18.1545 H   0  0  0  0  0  0  0  0  0  0  0  0
   -3.9772   18.8394  -19.5373 H   0  0  0  0  0  0  0  0  0  0  0  0
 16 17  1  0  0  0
 17 18  2  0  0  0
 18 19  1  0  0  0
 19 20  2  0  0  0
 20 21  1  0  0  0
 21 22  2  0  0  0
 20  1  1  0  0  0
  1  2  2  0  0  0
  2  3  1  0  0  0
  3  4  1  0  0  0
  4  5  1  0  0  0
  5  6  2  0  0  0
  6  7  1  0  0  0
  7  8  1  0  0  0
  8  9  2  0  0  0
  8 10  1  0  0  0
  4 11  1  0  0  0
 11 12  2  0  0  0
 11 13  1  0  0  0
 13 24  1  0  0  0
 24 29  1  0  0  0
 29 30  1  0  0  0
 30 31  1  0  0  0
 31 32  1  0  0  0
 32 33  1  0  0  0
 24 25  1  0  0  0
 25 26  1  0  0  0
 25 27  2  0  0  0
 22 17  1  0  0  0
 10  1  1  0  0  0
  7  3  2  0  0  0
 16 23  1  0  0  0
 10 14  1  0  0  0
 13 15  1  0  0  0
 33 34  1  0  0  0
 33 35  1  0  0  0
 26 28  1  0  0  0
M  END
> <minimizedAffinity>
-6.94833

> <CNNscore>
0.8940510154

> <CNNaffinity>
6.7670392990

> <CNN_VS>
6.0500783920

> <CNNaffinity_variance>
0.1009073853

$$$$
[H]OC(=O)[C@@]([H])(N([H])C(=O)n1c([H])nc2c(=O)n([H])c(-c3c([H])c([H])c(O[H])c([H])c3[H])nc21)C([H])([H])C([H])([H])C([H])([H])C([H])([H])N([H])[H]


 35 37  0  0  0  0  0  0  0  0999 V2000
   -3.1847   23.3865  -27.8820 C   0  0  0  0  0  0  0  0  0  0  0  0
   -3.6947   23.3148  -26.6335 N   0  0  0  0  0  0  0  0  0  0  0  0
   -3.0113   22.7945  -25.6033 C   0  0  0  0  0  0  0  0  0  0  0  0
   -3.2860   22.6106  -24.2936 N   0  0  0  0  0  0  0  0  0  0  0  0
   -2.2274   22.0332  -23.6997 C   0  0  0  0  0  0  0  0  0  0  0  0
   -1.2918   21.8566  -24.6377 N   0  0  0  0  0  0  0  0  0  0  0  0
   -1.7291   22.3095  -25.8236 C   0  0  0  0  0  0  0  0  0  0  0  0
   -1.2096   22.3799  -27.0833 C   0  0  0  0  0  0  0  0  0  0  0  0
   -0.0494   21.9474  -27.3107 O   0  0  0  0  0  0  0  0  0  0  0  0
   -1.9595   22.9237  -28.0955 N   0  0  0  0  0  0  0  0  0  0  0  0
   -4.4938   22.9640  -23.6317 C   0  0  0  0  0  0  0  0  0  0  0  0
   -5.4399   23.5033  -24.2652 O   0  0  0  0  0  0  0  0  0  0  0  0
   -4.6774   22.7273  -22.2579 N   0  0  0  0  0  0  0  0  0  0  0  0
   -1.5042   22.9464  -29.0288 H   0  0  0  0  0  0  0  0  0  0  0  0
   -3.9093   22.2747  -21.6792 H   0  0  0  0  0  0  0  0  0  0  0  0
   -6.2819   25.4696  -32.1079 O   0  0  0  0  0  0  0  0  0  0  0  0
   -5.5144   24.9658  -31.0674 C   0  0  0  0  0  0  0  0  0  0  0  0
   -4.5375   25.7366  -30.5057 C   0  0  0  0  0  0  0  0  0  0  0  0
   -3.7839   25.2281  -29.4766 C   0  0  0  0  0  0  0  0  0  0  0  0
   -3.9706   23.9652  -28.9814 C   0  0  0  0  0  0  0  0  0  0  0  0
   -4.9709   23.1745  -29.5556 C   0  0  0  0  0  0  0  0  0  0  0  0
   -5.7209   23.6810  -30.5800 C   0  0  0  0  0  0  0  0  0  0  0  0
   -6.0236   25.3658  -33.0859 H   0  0  0  0  0  0  0  0  0  0  0  0
   -5.8811   23.0647  -21.5338 C   0  0  0  0  0  0  0  0  0  0  0  0
   -5.5910   24.1926  -20.6398 C   0  0  0  0  0  0  0  0  0  0  0  0
   -5.2419   25.4069  -21.1789 O   0  0  0  0  0  0  0  0  0  0  0  0
   -5.6563   24.0649  -19.4086 O   0  0  0  0  0  0  0  0  0  0  0  0
   -4.2328   25.5723  -21.3163 H   0  0  0  0  0  0  0  0  0  0  0  0
   -6.4692   21.8765  -20.8223 C   0  0  0  0  0  0  0  0  0  0  0  0
   -7.9309   21.6759  -21.1417 C   0  0  0  0  0  0  0  0  0  0  0  0
   -8.7423   21.5208  -19.8798 C   0  0  0  0  0  0  0  0  0  0  0  0
   -8.0055   20.7268  -18.8239 C   0  0  0  0  0  0  0  0  0  0  0  0
   -8.5393   20.9466  -17.5043 N   0  0  0  0  0  0  0  0  0  0  0  0
   -8.2476   21.8954  -17.1823 H   0  0  0  0  0  0  0  0  0  0  0  0
   -9.5957   20.9898  -17.5928 H   0  0  0  0  0  0  0  0  0  0  0  0
 16 17  1  0  0  0
 17 18  2  0  0  0
 18 19  1  0  0  0
 19 20  2  0  0  0
 20 21  1  0  0  0
 21 22  2  0  0  0
 20  1  1  0  0  0
  1  2  2  0  0  0
  2  3  1  0  0  0
  3  4  1  0  0  0
  4  5  1  0  0  0
  5  6  2  0  0  0
  6  7  1  0  0  0
  7  8  1  0  0  0
  8  9  2  0  0  0
  8 10  1  0  0  0
  4 11  1  0  0  0
 11 12  2  0  0  0
 11 13  1  0  0  0
 13 24  1  0  0  0
 24 29  1  0  0  0
 29 30  1  0  0  0
 30 31  1  0  0  0
 31 32  1  0  0  0
 32 33  1  0  0  0
 24 25  1  0  0  0
 25 26  1  0  0  0
 25 27  2  0  0  0
 22 17  1  0  0  0
 10  1  1  0  0  0
  7  3  2  0  0  0
 16 23  1  0  0  0
 10 14  1  0  0  0
 13 15  1  0  0  0
 33 34  1  0  0  0
 33 35  1  0  0  0
 26 28  1  0  0  0
M  END
> <minimizedAffinity>
-8.46704

> <CNNscore>
0.7921291590

> <CNNaffinity>
6.6300597191

> <CNN_VS>
5.2518634796

> <CNNaffinity_variance>
0.4517594874

$$$$
[H]OC(=O)[C@@]([H])(N([H])C(=O)n1c([H])nc2c(=O)n([H])c(-c3c([H])c([H])c(O[H])c([H])c3[H])nc21)C([H])([H])C([H])([H])C([H])([H])C([H])([H])N([H])[H]


 35 37  0  0  0  0  0  0  0  0999 V2000
   -3.1101   23.4327  -27.8802 C   0  0  0  0  0  0  0  0  0  0  0  0
   -3.5530   23.4297  -26.6043 N   0  0  0  0  0  0  0  0  0  0  0  0
   -2.8169   22.9609  -25.5857 C   0  0  0  0  0  0  0  0  0  0  0  0
   -3.0219   22.8480  -24.2554 N   0  0  0  0  0  0  0  0  0  0  0  0
   -1.9345   22.2971  -23.6888 C   0  0  0  0  0  0  0  0  0  0  0  0
   -1.0507   22.0662  -24.6645 N   0  0  0  0  0  0  0  0  0  0  0  0
   -1.5496   22.4582  -25.8479 C   0  0  0  0  0  0  0  0  0  0  0  0
   -1.0978   22.4591  -27.1353 C   0  0  0  0  0  0  0  0  0  0  0  0
    0.0475   22.0090  -27.4007 O   0  0  0  0  0  0  0  0  0  0  0  0
   -1.8992   22.9527  -28.1336 N   0  0  0  0  0  0  0  0  0  0  0  0
   -4.1917   23.2423  -23.5500 C   0  0  0  0  0  0  0  0  0  0  0  0
   -5.1688   23.7525  -24.1600 O   0  0  0  0  0  0  0  0  0  0  0  0
   -4.3024   23.0795  -22.1578 N   0  0  0  0  0  0  0  0  0  0  0  0
   -1.4942   22.9236  -29.0897 H   0  0  0  0  0  0  0  0  0  0  0  0
   -3.5056   22.6540  -21.5974 H   0  0  0  0  0  0  0  0  0  0  0  0
   -6.2519   25.5766  -32.0423 O   0  0  0  0  0  0  0  0  0  0  0  0
   -5.4844   25.0403  -31.0181 C   0  0  0  0  0  0  0  0  0  0  0  0
   -5.7665   23.7949  -30.5352 C   0  0  0  0  0  0  0  0  0  0  0  0
   -5.0006   23.2739  -29.5216 C   0  0  0  0  0  0  0  0  0  0  0  0
   -3.9520   23.9567  -28.9655 C   0  0  0  0  0  0  0  0  0  0  0  0
   -3.6617   25.2325  -29.4590 C   0  0  0  0  0  0  0  0  0  0  0  0
   -4.4245   25.7508  -30.4681 C   0  0  0  0  0  0  0  0  0  0  0  0
   -7.0862   26.1331  -31.8747 H   0  0  0  0  0  0  0  0  0  0  0  0
   -5.4649   23.4612  -21.3896 C   0  0  0  0  0  0  0  0  0  0  0  0
   -5.0806   23.5659  -19.9765 C   0  0  0  0  0  0  0  0  0  0  0  0
   -3.9364   22.9422  -19.5416 O   0  0  0  0  0  0  0  0  0  0  0  0
   -5.7721   24.2074  -19.1724 O   0  0  0  0  0  0  0  0  0  0  0  0
   -4.0476   21.9794  -19.1877 H   0  0  0  0  0  0  0  0  0  0  0  0
   -6.6297   22.5380  -21.6234 C   0  0  0  0  0  0  0  0  0  0  0  0
   -7.9465   23.2733  -21.6908 C   0  0  0  0  0  0  0  0  0  0  0  0
   -7.7379   24.7198  -22.0635 C   0  0  0  0  0  0  0  0  0  0  0  0
   -8.2128   25.0194  -23.4681 C   0  0  0  0  0  0  0  0  0  0  0  0
   -7.4667   26.0886  -24.0801 N   0  0  0  0  0  0  0  0  0  0  0  0
   -7.7628   26.9903  -23.6464 H   0  0  0  0  0  0  0  0  0  0  0  0
   -6.4495   25.9628  -23.8058 H   0  0  0  0  0  0  0  0  0  0  0  0
 16 17  1  0  0  0
 17 18  2  0  0  0
 18 19  1  0  0  0
 19 20  2  0  0  0
 20 21  1  0  0  0
 21 22  2  0  0  0
 20  1  1  0  0  0
  1  2  2  0  0  0
  2  3  1  0  0  0
  3  4  1  0  0  0
  4  5  1  0  0  0
  5  6  2  0  0  0
  6  7  1  0  0  0
  7  8  1  0  0  0
  8  9  2  0  0  0
  8 10  1  0  0  0
  4 11  1  0  0  0
 11 12  2  0  0  0
 11 13  1  0  0  0
 13 24  1  0  0  0
 24 29  1  0  0  0
 29 30  1  0  0  0
 30 31  1  0  0  0
 31 32  1  0  0  0
 32 33  1  0  0  0
 24 25  1  0  0  0
 25 26  1  0  0  0
 25 27  2  0  0  0
 22 17  1  0  0  0
 10  1  1  0  0  0
  7  3  2  0  0  0
 16 23  1  0  0  0
 10 14  1  0  0  0
 13 15  1  0  0  0
 33 34  1  0  0  0
 33 35  1  0  0  0
 26 28  1  0  0  0
M  END
> <minimizedAffinity>
-8.64358

> <CNNscore>
0.7542256117

> <CNNaffinity>
6.8946900368

> <CNN_VS>
5.2001519203

> <CNNaffinity_variance>
0.4088343978

$$$$
[H]OC(=O)[C@@]([H])(N([H])C(=O)n1c([H])nc2c(=O)n([H])c(-c3c([H])c([H])c(O[H])c([H])c3[H])nc21)C([H])([H])C([H])([H])C([H])([H])C([H])([H])N([H])[H]


 35 37  0  0  0  0  0  0  0  0999 V2000
    0.2742   21.8847  -24.6486 C   0  0  0  0  0  0  0  0  0  0  0  0
   -0.9646   22.3840  -24.4483 N   0  0  0  0  0  0  0  0  0  0  0  0
   -1.7285   22.8435  -25.4505 C   0  0  0  0  0  0  0  0  0  0  0  0
   -2.9670   23.3784  -25.5156 N   0  0  0  0  0  0  0  0  0  0  0  0
   -3.2520   23.6718  -26.7961 C   0  0  0  0  0  0  0  0  0  0  0  0
   -2.1921   23.3202  -27.5305 N   0  0  0  0  0  0  0  0  0  0  0  0
   -1.2310   22.8064  -26.7462 C   0  0  0  0  0  0  0  0  0  0  0  0
    0.0200   22.3027  -26.9535 C   0  0  0  0  0  0  0  0  0  0  0  0
    0.4952   22.2575  -28.1183 O   0  0  0  0  0  0  0  0  0  0  0  0
    0.7522   21.8480  -25.8858 N   0  0  0  0  0  0  0  0  0  0  0  0
   -3.8431   23.6030  -24.4184 C   0  0  0  0  0  0  0  0  0  0  0  0
   -3.4963   23.2980  -23.2463 O   0  0  0  0  0  0  0  0  0  0  0  0
   -5.1178   24.1687  -24.5973 N   0  0  0  0  0  0  0  0  0  0  0  0
    1.6955   21.4779  -26.1139 H   0  0  0  0  0  0  0  0  0  0  0  0
   -5.4571   24.4432  -25.5665 H   0  0  0  0  0  0  0  0  0  0  0  0
    3.2181   19.9951  -20.2266 O   0  0  0  0  0  0  0  0  0  0  0  0
    2.5021   20.4601  -21.3206 C   0  0  0  0  0  0  0  0  0  0  0  0
    3.1388   20.6811  -22.5079 C   0  0  0  0  0  0  0  0  0  0  0  0
    2.4208   21.1413  -23.5840 C   0  0  0  0  0  0  0  0  0  0  0  0
    1.0762   21.3920  -23.5192 C   0  0  0  0  0  0  0  0  0  0  0  0
    0.4225   21.1660  -22.3038 C   0  0  0  0  0  0  0  0  0  0  0  0
    1.1377   20.7079  -21.2327 C   0  0  0  0  0  0  0  0  0  0  0  0
    3.6645   20.6139  -19.5546 H   0  0  0  0  0  0  0  0  0  0  0  0
   -6.0487   24.4194  -23.5213 C   0  0  0  0  0  0  0  0  0  0  0  0
   -7.0333   25.4103  -23.9732 C   0  0  0  0  0  0  0  0  0  0  0  0
   -8.3319   25.0186  -24.1910 O   0  0  0  0  0  0  0  0  0  0  0  0
   -6.7102   26.5921  -24.1605 O   0  0  0  0  0  0  0  0  0  0  0  0
   -8.5619   24.7129  -25.1492 H   0  0  0  0  0  0  0  0  0  0  0  0
   -5.3525   24.8100  -22.2459 C   0  0  0  0  0  0  0  0  0  0  0  0
   -6.1262   24.4013  -21.0157 C   0  0  0  0  0  0  0  0  0  0  0  0
   -6.5882   25.6112  -20.2426 C   0  0  0  0  0  0  0  0  0  0  0  0
   -8.0708   25.8608  -20.4094 C   0  0  0  0  0  0  0  0  0  0  0  0
   -8.3455   26.8853  -21.3838 N   0  0  0  0  0  0  0  0  0  0  0  0
   -8.1025   27.8114  -20.9690 H   0  0  0  0  0  0  0  0  0  0  0  0
   -7.6670   26.7481  -22.1879 H   0  0  0  0  0  0  0  0  0  0  0  0
 16 17  1  0  0  0
 17 18  2  0  0  0
 18 19  1  0  0  0
 19 20  2  0  0  0
 20 21  1  0  0  0
 21 22  2  0  0  0
 20  1  1  0  0  0
  1  2  2  0  0  0
  2  3  1  0  0  0
  3  4  1  0  0  0
  4  5  1  0  0  0
  5  6  2  0  0  0
  6  7  1  0  0  0
  7  8  1  0  0  0
  8  9  2  0  0  0
  8 10  1  0  0  0
  4 11  1  0  0  0
 11 12  2  0  0  0
 11 13  1  0  0  0
 13 24  1  0  0  0
 24 29  1  0  0  0
 29 30  1  0  0  0
 30 31  1  0  0  0
 31 32  1  0  0  0
 32 33  1  0  0  0
 24 25  1  0  0  0
 25 26  1  0  0  0
 25 27  2  0  0  0
 22 17  1  0  0  0
 10  1  1  0  0  0
  7  3  2  0  0  0
 16 23  1  0  0  0
 10 14  1  0  0  0
 13 15  1  0  0  0
 33 34  1  0  0  0
 33 35  1  0  0  0
 26 28  1  0  0  0
M  END
> <minimizedAffinity>
-7.91479

> <CNNscore>
0.7363284230

> <CNNaffinity>
6.4722070694

> <CNN_VS>
4.7656698227

> <CNNaffinity_variance>
0.2311661243

$$$$
[H]OC(=O)[C@@]([H])(N([H])C(=O)n1c([H])nc2c(=O)n([H])c(-c3c([H])c([H])c(O[H])c([H])c3[H])nc21)C([H])([H])C([H])([H])C([H])([H])C([H])([H])N([H])[H]


 35 37  0  0  0  0  0  0  0  0999 V2000
   -2.9198   23.1952  -25.9155 C   0  0  0  0  0  0  0  0  0  0  0  0
   -2.3957   22.8610  -24.7165 N   0  0  0  0  0  0  0  0  0  0  0  0
   -1.1389   22.4136  -24.5775 C   0  0  0  0  0  0  0  0  0  0  0  0
   -0.3947   22.0226  -23.5202 N   0  0  0  0  0  0  0  0  0  0  0  0
    0.8260   21.6614  -23.9519 C   0  0  0  0  0  0  0  0  0  0  0  0
    0.8445   21.8267  -25.2780 N   0  0  0  0  0  0  0  0  0  0  0  0
   -0.3415   22.2874  -25.7071 C   0  0  0  0  0  0  0  0  0  0  0  0
   -0.8667   22.6238  -26.9206 C   0  0  0  0  0  0  0  0  0  0  0  0
   -0.1655   22.5188  -27.9608 O   0  0  0  0  0  0  0  0  0  0  0  0
   -2.1601   23.0755  -26.9968 N   0  0  0  0  0  0  0  0  0  0  0  0
   -0.8165   21.9912  -22.1627 C   0  0  0  0  0  0  0  0  0  0  0  0
   -1.9818   22.3479  -21.8433 O   0  0  0  0  0  0  0  0  0  0  0  0
    0.0421   21.5647  -21.1342 N   0  0  0  0  0  0  0  0  0  0  0  0
   -2.4966   23.3138  -27.9501 H   0  0  0  0  0  0  0  0  0  0  0  0
    1.0350   21.2537  -21.3519 H   0  0  0  0  0  0  0  0  0  0  0  0
   -8.2734   24.9369  -26.2266 O   0  0  0  0  0  0  0  0  0  0  0  0
   -6.9530   24.5162  -26.1559 C   0  0  0  0  0  0  0  0  0  0  0  0
   -5.9765   25.2254  -26.7943 C   0  0  0  0  0  0  0  0  0  0  0  0
   -4.6731   24.8002  -26.7178 C   0  0  0  0  0  0  0  0  0  0  0  0
   -4.3034   23.6813  -26.0203 C   0  0  0  0  0  0  0  0  0  0  0  0
   -5.3023   22.9539  -25.3658 C   0  0  0  0  0  0  0  0  0  0  0  0
   -6.5997   23.3775  -25.4422 C   0  0  0  0  0  0  0  0  0  0  0  0
   -8.9130   24.6302  -26.9551 H   0  0  0  0  0  0  0  0  0  0  0  0
   -0.3315   21.5120  -19.7396 C   0  0  0  0  0  0  0  0  0  0  0  0
    0.0302   22.7870  -19.1079 C   0  0  0  0  0  0  0  0  0  0  0  0
   -0.7069   23.9114  -19.3897 O   0  0  0  0  0  0  0  0  0  0  0  0
    0.9888   22.8630  -18.3258 O   0  0  0  0  0  0  0  0  0  0  0  0
   -0.3762   24.4882  -20.1787 H   0  0  0  0  0  0  0  0  0  0  0  0
    0.2503   20.3140  -19.0395 C   0  0  0  0  0  0  0  0  0  0  0  0
   -0.8062   19.4557  -18.3867 C   0  0  0  0  0  0  0  0  0  0  0  0
   -0.3577   18.9922  -17.0233 C   0  0  0  0  0  0  0  0  0  0  0  0
   -0.1011   20.1505  -16.0848 C   0  0  0  0  0  0  0  0  0  0  0  0
    0.4579   19.7216  -14.8286 N   0  0  0  0  0  0  0  0  0  0  0  0
   -0.2951   19.2641  -14.2694 H   0  0  0  0  0  0  0  0  0  0  0  0
    1.1601   18.9547  -15.0394 H   0  0  0  0  0  0  0  0  0  0  0  0
 16 17  1  0  0  0
 17 18  2  0  0  0
 18 19  1  0  0  0
 19 20  2  0  0  0
 20 21  1  0  0  0
 21 22  2  0  0  0
 20  1  1  0  0  0
  1  2  2  0  0  0
  2  3  1  0  0  0
  3  4  1  0  0  0
  4  5  1  0  0  0
  5  6  2  0  0  0
  6  7  1  0  0  0
  7  8  1  0  0  0
  8  9  2  0  0  0
  8 10  1  0  0  0
  4 11  1  0  0  0
 11 12  2  0  0  0
 11 13  1  0  0  0
 13 24  1  0  0  0
 24 29  1  0  0  0
 29 30  1  0  0  0
 30 31  1  0  0  0
 31 32  1  0  0  0
 32 33  1  0  0  0
 24 25  1  0  0  0
 25 26  1  0  0  0
 25 27  2  0  0  0
 22 17  1  0  0  0
 10  1  1  0  0  0
  7  3  2  0  0  0
 16 23  1  0  0  0
 10 14  1  0  0  0
 13 15  1  0  0  0
 33 34  1  0  0  0
 33 35  1  0  0  0
 26 28  1  0  0  0
M  END
> <minimizedAffinity>
-6.85612

> <CNNscore>
0.7133093476

> <CNNaffinity>
6.2322320938

> <CNN_VS>
4.4455094337

> <CNNaffinity_variance>
0.3209494054

$$$$
[H]OC(=O)[C@@]([H])(N([H])C(=O)n1c([H])nc2c(=O)n([H])c(-c3c([H])c([H])c(O[H])c([H])c3[H])nc21)C([H])([H])C([H])([H])C([H])([H])C([H])([H])N([H])[H]


 35 37  0  0  0  0  0  0  0  0999 V2000
   -3.0215   23.1614  -25.9749 C   0  0  0  0  0  0  0  0  0  0  0  0
   -2.4389   22.8127  -24.8075 N   0  0  0  0  0  0  0  0  0  0  0  0
   -1.1567   22.4270  -24.7274 C   0  0  0  0  0  0  0  0  0  0  0  0
   -0.3567   22.0381  -23.7109 N   0  0  0  0  0  0  0  0  0  0  0  0
    0.8648   21.7569  -24.1964 C   0  0  0  0  0  0  0  0  0  0  0  0
    0.8280   21.9701  -25.5153 N   0  0  0  0  0  0  0  0  0  0  0  0
   -0.3944   22.3830  -25.8869 C   0  0  0  0  0  0  0  0  0  0  0  0
   -0.9786   22.7345  -27.0688 C   0  0  0  0  0  0  0  0  0  0  0  0
   -0.3102   22.7035  -28.1350 O   0  0  0  0  0  0  0  0  0  0  0  0
   -2.2953   23.1203  -27.0847 N   0  0  0  0  0  0  0  0  0  0  0  0
   -0.7282   21.9362  -22.3422 C   0  0  0  0  0  0  0  0  0  0  0  0
   -1.8981   22.2199  -21.9709 O   0  0  0  0  0  0  0  0  0  0  0  0
    0.1869   21.5189  -21.3596 N   0  0  0  0  0  0  0  0  0  0  0  0
   -2.6770   23.3745  -28.0167 H   0  0  0  0  0  0  0  0  0  0  0  0
    1.1861   21.2683  -21.6219 H   0  0  0  0  0  0  0  0  0  0  0  0
   -8.3874   24.8736  -26.2333 O   0  0  0  0  0  0  0  0  0  0  0  0
   -7.0695   24.4449  -26.1630 C   0  0  0  0  0  0  0  0  0  0  0  0
   -6.7373   23.3915  -25.3606 C   0  0  0  0  0  0  0  0  0  0  0  0
   -5.4301   22.9755  -25.2985 C   0  0  0  0  0  0  0  0  0  0  0  0
   -4.4309   23.5779  -26.0152 C   0  0  0  0  0  0  0  0  0  0  0  0
   -4.7696   24.6569  -26.8377 C   0  0  0  0  0  0  0  0  0  0  0  0
   -6.0709   25.0708  -26.8991 C   0  0  0  0  0  0  0  0  0  0  0  0
   -8.7719   25.5821  -25.6137 H   0  0  0  0  0  0  0  0  0  0  0  0
   -0.1340   21.3971  -19.9563 C   0  0  0  0  0  0  0  0  0  0  0  0
    0.1213   22.6864  -19.3023 C   0  0  0  0  0  0  0  0  0  0  0  0
   -0.7409   23.7338  -19.5186 O   0  0  0  0  0  0  0  0  0  0  0  0
    1.1013   22.8430  -18.5597 O   0  0  0  0  0  0  0  0  0  0  0  0
   -0.5082   24.3622  -20.3031 H   0  0  0  0  0  0  0  0  0  0  0  0
    0.5850   20.2464  -19.3060 C   0  0  0  0  0  0  0  0  0  0  0  0
    1.7771   19.7817  -20.1072 C   0  0  0  0  0  0  0  0  0  0  0  0
    1.6685   18.3130  -20.4330 C   0  0  0  0  0  0  0  0  0  0  0  0
    0.2313   17.8734  -20.6052 C   0  0  0  0  0  0  0  0  0  0  0  0
    0.1128   16.4475  -20.7701 N   0  0  0  0  0  0  0  0  0  0  0  0
    0.4426   16.1957  -21.7276 H   0  0  0  0  0  0  0  0  0  0  0  0
    0.8025   15.9930  -20.1042 H   0  0  0  0  0  0  0  0  0  0  0  0
 16 17  1  0  0  0
 17 18  2  0  0  0
 18 19  1  0  0  0
 19 20  2  0  0  0
 20 21  1  0  0  0
 21 22  2  0  0  0
 20  1  1  0  0  0
  1  2  2  0  0  0
  2  3  1  0  0  0
  3  4  1  0  0  0
  4  5  1  0  0  0
  5  6  2  0  0  0
  6  7  1  0  0  0
  7  8  1  0  0  0
  8  9  2  0  0  0
  8 10  1  0  0  0
  4 11  1  0  0  0
 11 12  2  0  0  0
 11 13  1  0  0  0
 13 24  1  0  0  0
 24 29  1  0  0  0
 29 30  1  0  0  0
 30 31  1  0  0  0
 31 32  1  0  0  0
 32 33  1  0  0  0
 24 25  1  0  0  0
 25 26  1  0  0  0
 25 27  2  0  0  0
 22 17  1  0  0  0
 10  1  1  0  0  0
  7  3  2  0  0  0
 16 23  1  0  0  0
 10 14  1  0  0  0
 13 15  1  0  0  0
 33 34  1  0  0  0
 33 35  1  0  0  0
 26 28  1  0  0  0
M  END
> <minimizedAffinity>
-7.36329

> <CNNscore>
0.7033773661

> <CNNaffinity>
6.2636127472

> <CNN_VS>
4.4056835175

> <CNNaffinity_variance>
0.1811464578

$$$$
[H]OC(=O)[C@@]([H])(N([H])C(=O)n1c([H])nc2c(=O)n([H])c(-c3c([H])c([H])c(O[H])c([H])c3[H])nc21)C([H])([H])C([H])([H])C([H])([H])C([H])([H])N([H])[H]


 35 37  0  0  0  0  0  0  0  0999 V2000
   -2.6586   23.2394  -27.9033 C   0  0  0  0  0  0  0  0  0  0  0  0
   -3.0242   22.9762  -26.6301 N   0  0  0  0  0  0  0  0  0  0  0  0
   -2.1519   22.5607  -25.6997 C   0  0  0  0  0  0  0  0  0  0  0  0
   -2.2587   22.2379  -24.3925 N   0  0  0  0  0  0  0  0  0  0  0  0
   -1.0492   21.8790  -23.9286 C   0  0  0  0  0  0  0  0  0  0  0  0
   -0.1873   21.9777  -24.9453 N   0  0  0  0  0  0  0  0  0  0  0  0
   -0.8200   22.3932  -26.0543 C   0  0  0  0  0  0  0  0  0  0  0  0
   -0.4460   22.6579  -27.3394 C   0  0  0  0  0  0  0  0  0  0  0  0
    0.7552   22.5143  -27.6876 O   0  0  0  0  0  0  0  0  0  0  0  0
   -1.3864   23.0802  -28.2450 N   0  0  0  0  0  0  0  0  0  0  0  0
   -3.4490   22.2666  -23.6154 C   0  0  0  0  0  0  0  0  0  0  0  0
   -4.5444   22.6165  -24.1301 O   0  0  0  0  0  0  0  0  0  0  0  0
   -3.4498   21.9092  -22.2555 N   0  0  0  0  0  0  0  0  0  0  0  0
   -1.0344   23.2637  -29.2048 H   0  0  0  0  0  0  0  0  0  0  0  0
   -2.5513   21.6068  -21.7747 H   0  0  0  0  0  0  0  0  0  0  0  0
   -6.3839   25.1193  -31.6953 O   0  0  0  0  0  0  0  0  0  0  0  0
   -5.4721   24.6476  -30.7617 C   0  0  0  0  0  0  0  0  0  0  0  0
   -5.6007   23.3839  -30.2614 C   0  0  0  0  0  0  0  0  0  0  0  0
   -4.6929   22.9273  -29.3379 C   0  0  0  0  0  0  0  0  0  0  0  0
   -3.6497   23.6929  -28.8899 C   0  0  0  0  0  0  0  0  0  0  0  0
   -3.5165   24.9875  -29.4015 C   0  0  0  0  0  0  0  0  0  0  0  0
   -4.4205   25.4417  -30.3208 C   0  0  0  0  0  0  0  0  0  0  0  0
   -7.2378   25.6069  -31.4367 H   0  0  0  0  0  0  0  0  0  0  0  0
   -4.6270   21.9195  -21.4181 C   0  0  0  0  0  0  0  0  0  0  0  0
   -5.1835   23.2780  -21.4065 C   0  0  0  0  0  0  0  0  0  0  0  0
   -6.3308   23.5420  -22.1144 O   0  0  0  0  0  0  0  0  0  0  0  0
   -4.6340   24.1878  -20.7688 O   0  0  0  0  0  0  0  0  0  0  0  0
   -6.2037   23.8648  -23.0860 H   0  0  0  0  0  0  0  0  0  0  0  0
   -4.3513   21.3768  -20.0421 C   0  0  0  0  0  0  0  0  0  0  0  0
   -2.8756   21.2109  -19.7704 C   0  0  0  0  0  0  0  0  0  0  0  0
   -2.3505   22.3488  -18.9312 C   0  0  0  0  0  0  0  0  0  0  0  0
   -1.1608   23.0273  -19.5734 C   0  0  0  0  0  0  0  0  0  0  0  0
   -1.5132   23.7076  -20.7931 N   0  0  0  0  0  0  0  0  0  0  0  0
   -1.6741   22.9934  -21.5367 H   0  0  0  0  0  0  0  0  0  0  0  0
   -2.4548   24.1710  -20.6368 H   0  0  0  0  0  0  0  0  0  0  0  0
 16 17  1  0  0  0
 17 18  2  0  0  0
 18 19  1  0  0  0
 19 20  2  0  0  0
 20 21  1  0  0  0
 21 22  2  0  0  0
 20  1  1  0  0  0
  1  2  2  0  0  0
  2  3  1  0  0  0
  3  4  1  0  0  0
  4  5  1  0  0  0
  5  6  2  0  0  0
  6  7  1  0  0  0
  7  8  1  0  0  0
  8  9  2  0  0  0
  8 10  1  0  0  0
  4 11  1  0  0  0
 11 12  2  0  0  0
 11 13  1  0  0  0
 13 24  1  0  0  0
 24 29  1  0  0  0
 29 30  1  0  0  0
 30 31  1  0  0  0
 31 32  1  0  0  0
 32 33  1  0  0  0
 24 25  1  0  0  0
 25 26  1  0  0  0
 25 27  2  0  0  0
 22 17  1  0  0  0
 10  1  1  0  0  0
  7  3  2  0  0  0
 16 23  1  0  0  0
 10 14  1  0  0  0
 13 15  1  0  0  0
 33 34  1  0  0  0
 33 35  1  0  0  0
 26 28  1  0  0  0
M  END
> <minimizedAffinity>
-8.63298

> <CNNscore>
0.7020186186

> <CNNaffinity>
6.6656789780

> <CNN_VS>
4.6794309616

> <CNNaffinity_variance>
0.1732739210

$$$$
[H]OC(=O)[C@@]([H])(N([H])C(=O)n1c([H])nc2c(=O)n([H])c(-c3c([H])c([H])c(O[H])c([H])c3[H])nc21)C([H])([H])C([H])([H])C([H])([H])C([H])([H])N([H])[H]


 35 37  0  0  0  0  0  0  0  0999 V2000
   -3.0251   23.2388  -26.1747 C   0  0  0  0  0  0  0  0  0  0  0  0
   -2.4374   22.8720  -25.0153 N   0  0  0  0  0  0  0  0  0  0  0  0
   -1.1613   22.4638  -24.9504 C   0  0  0  0  0  0  0  0  0  0  0  0
   -0.3584   22.0542  -23.9445 N   0  0  0  0  0  0  0  0  0  0  0  0
    0.8534   21.7553  -24.4437 C   0  0  0  0  0  0  0  0  0  0  0  0
    0.8074   21.9781  -25.7608 N   0  0  0  0  0  0  0  0  0  0  0  0
   -0.4112   22.4146  -26.1177 C   0  0  0  0  0  0  0  0  0  0  0  0
   -1.0006   22.7842  -27.2913 C   0  0  0  0  0  0  0  0  0  0  0  0
   -0.3432   22.7490  -28.3643 O   0  0  0  0  0  0  0  0  0  0  0  0
   -2.3105   23.1927  -27.2918 N   0  0  0  0  0  0  0  0  0  0  0  0
   -0.7182   21.9494  -22.5729 C   0  0  0  0  0  0  0  0  0  0  0  0
   -1.8795   22.2506  -22.1882 O   0  0  0  0  0  0  0  0  0  0  0  0
    0.1990   21.5096  -21.6021 N   0  0  0  0  0  0  0  0  0  0  0  0
   -2.6968   23.4598  -28.2182 H   0  0  0  0  0  0  0  0  0  0  0  0
    1.1910   21.2436  -21.8759 H   0  0  0  0  0  0  0  0  0  0  0  0
   -8.4402   24.8096  -26.1666 O   0  0  0  0  0  0  0  0  0  0  0  0
   -7.1053   24.4308  -26.1750 C   0  0  0  0  0  0  0  0  0  0  0  0
   -6.1994   25.1423  -26.9079 C   0  0  0  0  0  0  0  0  0  0  0  0
   -4.8809   24.7587  -26.9090 C   0  0  0  0  0  0  0  0  0  0  0  0
   -4.4274   23.6797  -26.1983 C   0  0  0  0  0  0  0  0  0  0  0  0
   -5.3540   22.9500  -25.4470 C   0  0  0  0  0  0  0  0  0  0  0  0
   -6.6664   23.3322  -25.4461 C   0  0  0  0  0  0  0  0  0  0  0  0
   -9.1194   24.4557  -26.8354 H   0  0  0  0  0  0  0  0  0  0  0  0
   -0.1104   21.3837  -20.1966 C   0  0  0  0  0  0  0  0  0  0  0  0
    0.0838   22.6894  -19.5540 C   0  0  0  0  0  0  0  0  0  0  0  0
   -0.8663   23.6681  -19.7167 O   0  0  0  0  0  0  0  0  0  0  0  0
    1.0903   22.9205  -18.8685 O   0  0  0  0  0  0  0  0  0  0  0  0
   -0.7275   24.3116  -20.5112 H   0  0  0  0  0  0  0  0  0  0  0  0
    0.6666   20.2751  -19.5400 C   0  0  0  0  0  0  0  0  0  0  0  0
    1.7486   19.7186  -20.4336 C   0  0  0  0  0  0  0  0  0  0  0  0
    3.1161   19.9927  -19.8595 C   0  0  0  0  0  0  0  0  0  0  0  0
    3.7889   21.1701  -20.5298 C   0  0  0  0  0  0  0  0  0  0  0  0
    3.4349   21.2812  -21.9215 N   0  0  0  0  0  0  0  0  0  0  0  0
    3.9287   20.5294  -22.4505 H   0  0  0  0  0  0  0  0  0  0  0  0
    2.4017   21.0546  -22.0049 H   0  0  0  0  0  0  0  0  0  0  0  0
 16 17  1  0  0  0
 17 18  2  0  0  0
 18 19  1  0  0  0
 19 20  2  0  0  0
 20 21  1  0  0  0
 21 22  2  0  0  0
 20  1  1  0  0  0
  1  2  2  0  0  0
  2  3  1  0  0  0
  3  4  1  0  0  0
  4  5  1  0  0  0
  5  6  2  0  0  0
  6  7  1  0  0  0
  7  8  1  0  0  0
  8  9  2  0  0  0
  8 10  1  0  0  0
  4 11  1  0  0  0
 11 12  2  0  0  0
 11 13  1  0  0  0
 13 24  1  0  0  0
 24 29  1  0  0  0
 29 30  1  0  0  0
 30 31  1  0  0  0
 31 32  1  0  0  0
 32 33  1  0  0  0
 24 25  1  0  0  0
 25 26  1  0  0  0
 25 27  2  0  0  0
 22 17  1  0  0  0
 10  1  1  0  0  0
  7  3  2  0  0  0
 16 23  1  0  0  0
 10 14  1  0  0  0
 13 15  1  0  0  0
 33 34  1  0  0  0
 33 35  1  0  0  0
 26 28  1  0  0  0
M  END
> <minimizedAffinity>
-7.54955

> <CNNscore>
0.6697201133

> <CNNaffinity>
6.3062934875

> <CNN_VS>
4.2234516144

> <CNNaffinity_variance>
0.1350466907

$$$$
[H]OC(=O)[C@@]([H])(N([H])C(=O)n1c([H])nc2c(=O)n([H])c(-c3c([H])c([H])c(O[H])c([H])c3[H])nc21)C([H])([H])C([H])([H])C([H])([H])C([H])([H])N([H])[H]


 35 37  0  0  0  0  0  0  0  0999 V2000
   -3.0404   23.2241  -25.7624 C   0  0  0  0  0  0  0  0  0  0  0  0
   -2.3450   22.7903  -24.6890 N   0  0  0  0  0  0  0  0  0  0  0  0
   -1.0820   22.3477  -24.7779 C   0  0  0  0  0  0  0  0  0  0  0  0
   -0.1901   21.8727  -23.8815 N   0  0  0  0  0  0  0  0  0  0  0  0
    0.9529   21.5668  -24.5193 C   0  0  0  0  0  0  0  0  0  0  0  0
    0.7753   21.8505  -25.8133 N   0  0  0  0  0  0  0  0  0  0  0  0
   -0.4606   22.3331  -26.0194 C   0  0  0  0  0  0  0  0  0  0  0  0
   -1.1592   22.7705  -27.1067 C   0  0  0  0  0  0  0  0  0  0  0  0
   -0.6197   22.7679  -28.2441 O   0  0  0  0  0  0  0  0  0  0  0  0
   -2.4491   23.2113  -26.9502 N   0  0  0  0  0  0  0  0  0  0  0  0
   -0.4065   21.7144  -22.4852 C   0  0  0  0  0  0  0  0  0  0  0  0
   -1.5113   22.0267  -21.9666 O   0  0  0  0  0  0  0  0  0  0  0  0
    0.5944   21.2081  -21.6373 N   0  0  0  0  0  0  0  0  0  0  0  0
   -2.9227   23.5300  -27.8180 H   0  0  0  0  0  0  0  0  0  0  0  0
    1.5437   20.9301  -22.0263 H   0  0  0  0  0  0  0  0  0  0  0  0
   -8.3812   24.9170  -25.1287 O   0  0  0  0  0  0  0  0  0  0  0  0
   -7.0646   24.5091  -25.2898 C   0  0  0  0  0  0  0  0  0  0  0  0
   -6.1778   25.3121  -25.9476 C   0  0  0  0  0  0  0  0  0  0  0  0
   -4.8775   24.8987  -26.1012 C   0  0  0  0  0  0  0  0  0  0  0  0
   -4.4237   23.7007  -25.6177 C   0  0  0  0  0  0  0  0  0  0  0  0
   -5.3307   22.8771  -24.9436 C   0  0  0  0  0  0  0  0  0  0  0  0
   -6.6252   23.2890  -24.7908 C   0  0  0  0  0  0  0  0  0  0  0  0
   -9.1124   24.7034  -25.8022 H   0  0  0  0  0  0  0  0  0  0  0  0
    0.4311   21.0259  -20.2135 C   0  0  0  0  0  0  0  0  0  0  0  0
   -0.4578   19.8800  -19.9853 C   0  0  0  0  0  0  0  0  0  0  0  0
   -1.7362   20.0989  -19.5326 O   0  0  0  0  0  0  0  0  0  0  0  0
   -0.0722   18.7209  -20.1948 O   0  0  0  0  0  0  0  0  0  0  0  0
   -1.8655   20.0919  -18.5091 H   0  0  0  0  0  0  0  0  0  0  0  0
   -0.0300   22.2835  -19.5281 C   0  0  0  0  0  0  0  0  0  0  0  0
    0.7733   22.5948  -18.2884 C   0  0  0  0  0  0  0  0  0  0  0  0
    1.8335   23.6277  -18.5781 C   0  0  0  0  0  0  0  0  0  0  0  0
    3.2144   23.0163  -18.6656 C   0  0  0  0  0  0  0  0  0  0  0  0
    4.1977   23.7841  -17.9459 N   0  0  0  0  0  0  0  0  0  0  0  0
    4.4037   24.6513  -18.4885 H   0  0  0  0  0  0  0  0  0  0  0  0
    3.7449   24.1143  -17.0450 H   0  0  0  0  0  0  0  0  0  0  0  0
 16 17  1  0  0  0
 17 18  2  0  0  0
 18 19  1  0  0  0
 19 20  2  0  0  0
 20 21  1  0  0  0
 21 22  2  0  0  0
 20  1  1  0  0  0
  1  2  2  0  0  0
  2  3  1  0  0  0
  3  4  1  0  0  0
  4  5  1  0  0  0
  5  6  2  0  0  0
  6  7  1  0  0  0
  7  8  1  0  0  0
  8  9  2  0  0  0
  8 10  1  0  0  0
  4 11  1  0  0  0
 11 12  2  0  0  0
 11 13  1  0  0  0
 13 24  1  0  0  0
 24 29  1  0  0  0
 29 30  1  0  0  0
 30 31  1  0  0  0
 31 32  1  0  0  0
 32 33  1  0  0  0
 24 25  1  0  0  0
 25 26  1  0  0  0
 25 27  2  0  0  0
 22 17  1  0  0  0
 10  1  1  0  0  0
  7  3  2  0  0  0
 16 23  1  0  0  0
 10 14  1  0  0  0
 13 15  1  0  0  0
 33 34  1  0  0  0
 33 35  1  0  0  0
 26 28  1  0  0  0
M  END
> <minimizedAffinity>
-6.95100

> <CNNscore>
0.6476986408

> <CNNaffinity>
6.1010050774

> <CNN_VS>
3.9516127110

> <CNNaffinity_variance>
0.1664134562

$$$$
[H]Oc1c([H])c([H])c(C([H])([H])[C@@]([H])(C(=O)N2C([H])([H])C([H])([H])C([H])([H])[C@@]2([H])C(=O)N([H])[C@]([H])(C(=O)N([H])[C@]([H])(C([H])([H])[H])C(F)(F)F)C([H])([H])c2c([H])c([H])c(O[H])c([H])c2[H])N([H])C(=O)c2c([H])c([H])c(F)c([H])c2[H])c([H])c1[H]


 52 55  0  0  0  0  0  0  0  0999 V2000
   -5.3239   21.6964  -22.0010 C   0  0  0  0  0  0  0  0  0  0  0  0
   -4.4846   21.8236  -20.7104 C   0  0  0  0  0  0  0  0  0  0  0  0
   -3.6096   23.0360  -20.9693 C   0  0  0  0  0  0  0  0  0  0  0  0
   -3.7083   23.2967  -22.4532 C   0  0  0  0  0  0  0  0  0  0  0  0
   -4.3334   22.1086  -22.9584 N   0  0  0  0  0  0  0  0  0  0  0  0
   -4.0185   21.4357  -24.1522 C   0  0  0  0  0  0  0  0  0  0  0  0
   -4.6500   20.3616  -24.4077 O   0  0  0  0  0  0  0  0  0  0  0  0
   -6.2651   23.9592  -21.6800 N   0  0  0  0  0  0  0  0  0  0  0  0
   -6.4725   22.5688  -21.8314 C   0  0  0  0  0  0  0  0  0  0  0  0
   -7.6387   22.1280  -21.8154 O   0  0  0  0  0  0  0  0  0  0  0  0
   -5.3175   24.4130  -21.6718 H   0  0  0  0  0  0  0  0  0  0  0  0
   -7.3990   24.8742  -21.5197 C   0  0  0  0  0  0  0  0  0  0  0  0
   -9.4499   23.8546  -20.4536 N   0  0  0  0  0  0  0  0  0  0  0  0
   -8.1994   24.5141  -20.3440 C   0  0  0  0  0  0  0  0  0  0  0  0
   -7.7828   24.7934  -19.1716 O   0  0  0  0  0  0  0  0  0  0  0  0
   -9.8597   23.5924  -21.3855 H   0  0  0  0  0  0  0  0  0  0  0  0
  -10.2506   22.0399  -19.0223 C   0  0  0  0  0  0  0  0  0  0  0  0
  -10.2259   23.5088  -19.2869 C   0  0  0  0  0  0  0  0  0  0  0  0
  -11.6714   23.9680  -19.4215 C   0  0  0  0  0  0  0  0  0  0  0  0
  -12.0734   24.6316  -18.2885 F   0  0  0  0  0  0  0  0  0  0  0  0
  -12.5147   22.8557  -19.5270 F   0  0  0  0  0  0  0  0  0  0  0  0
  -11.7780   24.7732  -20.5266 F   0  0  0  0  0  0  0  0  0  0  0  0
   -8.2534   24.8643  -22.7513 C   0  0  0  0  0  0  0  0  0  0  0  0
   -7.5626   25.1930  -24.0049 C   0  0  0  0  0  0  0  0  0  0  0  0
   -6.7566   26.3249  -23.9984 C   0  0  0  0  0  0  0  0  0  0  0  0
   -6.1001   26.6939  -25.1431 C   0  0  0  0  0  0  0  0  0  0  0  0
   -6.1985   25.9828  -26.3344 C   0  0  0  0  0  0  0  0  0  0  0  0
   -5.5020   26.4343  -27.4226 O   0  0  0  0  0  0  0  0  0  0  0  0
   -7.0043   24.8646  -26.3134 C   0  0  0  0  0  0  0  0  0  0  0  0
   -7.6645   24.4889  -25.1719 C   0  0  0  0  0  0  0  0  0  0  0  0
   -5.5885   25.8956  -28.2898 H   0  0  0  0  0  0  0  0  0  0  0  0
   -2.9878   21.9128  -25.1195 C   0  0  0  0  0  0  0  0  0  0  0  0
   -3.7116   22.6388  -26.1560 N   0  0  0  0  0  0  0  0  0  0  0  0
   -3.1573   22.8821  -27.4290 C   0  0  0  0  0  0  0  0  0  0  0  0
   -1.9748   22.4421  -27.6284 O   0  0  0  0  0  0  0  0  0  0  0  0
   -4.6566   22.9802  -25.9289 H   0  0  0  0  0  0  0  0  0  0  0  0
   -3.7881   23.5735  -28.5247 C   0  0  0  0  0  0  0  0  0  0  0  0
   -5.0362   23.1387  -28.9477 C   0  0  0  0  0  0  0  0  0  0  0  0
   -5.7028   23.7602  -29.9541 C   0  0  0  0  0  0  0  0  0  0  0  0
   -5.1623   24.8515  -30.5963 C   0  0  0  0  0  0  0  0  0  0  0  0
   -5.8381   25.4825  -31.6104 F   0  0  0  0  0  0  0  0  0  0  0  0
   -3.9191   25.2926  -30.1826 C   0  0  0  0  0  0  0  0  0  0  0  0
   -3.2428   24.6612  -29.1612 C   0  0  0  0  0  0  0  0  0  0  0  0
   -2.0716   22.8358  -24.3492 C   0  0  0  0  0  0  0  0  0  0  0  0
   -0.7401   22.2323  -24.0997 C   0  0  0  0  0  0  0  0  0  0  0  0
    0.2070   22.1558  -25.0961 C   0  0  0  0  0  0  0  0  0  0  0  0
    1.4557   21.5968  -24.8889 C   0  0  0  0  0  0  0  0  0  0  0  0
    1.8143   21.0791  -23.6455 C   0  0  0  0  0  0  0  0  0  0  0  0
    3.0672   20.5182  -23.4390 O   0  0  0  0  0  0  0  0  0  0  0  0
    0.8693   21.1541  -22.6474 C   0  0  0  0  0  0  0  0  0  0  0  0
   -0.3804   21.7165  -22.8640 C   0  0  0  0  0  0  0  0  0  0  0  0
    3.8836   21.0444  -23.1265 H   0  0  0  0  0  0  0  0  0  0  0  0
 17 18  1  0  0  0
 18 13  1  0  0  0
 13 14  1  0  0  0
 14 15  2  0  0  0
 14 12  1  0  0  0
 12 23  1  0  0  0
 23 24  1  0  0  0
 24 25  2  0  0  0
 25 26  1  0  0  0
 26 27  2  0  0  0
 27 28  1  0  0  0
 27 29  1  0  0  0
 29 30  2  0  0  0
 12  8  1  0  0  0
  8  9  1  0  0  0
  9 10  2  0  0  0
  9  1  1  0  0  0
  1  2  1  0  0  0
  2  3  1  0  0  0
  3  4  1  0  0  0
  4  5  1  0  0  0
  5  6  1  0  0  0
  6  7  2  0  0  0
  6 32  1  0  0  0
 32 44  1  0  0  0
 44 45  1  0  0  0
 45 46  2  0  0  0
 46 47  1  0  0  0
 47 48  2  0  0  0
 48 49  1  0  0  0
 48 50  1  0  0  0
 50 51  2  0  0  0
 32 33  1  0  0  0
 33 34  1  0  0  0
 34 35  2  0  0  0
 34 37  1  0  0  0
 37 38  2  0  0  0
 38 39  1  0  0  0
 39 40  2  0  0  0
 40 41  1  0  0  0
 40 42  1  0  0  0
 42 43  2  0  0  0
 18 19  1  0  0  0
 19 20  1  0  0  0
 19 21  1  0  0  0
 19 22  1  0  0  0
 30 24  1  0  0  0
  5  1  1  0  0  0
 51 45  1  0  0  0
 43 37  1  0  0  0
 13 16  1  0  0  0
 28 31  1  0  0  0
  8 11  1  0  0  0
 49 52  1  0  0  0
 33 36  1  0  0  0
M  END
> <minimizedAffinity>
-10.21546

> <CNNscore>
0.2379126549

> <CNNaffinity>
7.0807342529

> <CNN_VS>
1.6845963001

> <CNNaffinity_variance>
0.4660675526

$$$$
[H]Oc1c([H])c([H])c(C([H])([H])[C@@]([H])(C(=O)N2C([H])([H])C([H])([H])C([H])([H])[C@@]2([H])C(=O)N([H])[C@]([H])(C(=O)N([H])[C@]([H])(C([H])([H])[H])C(F)(F)F)C([H])([H])c2c([H])c([H])c(O[H])c([H])c2[H])N([H])C(=O)c2c([H])c([H])c(F)c([H])c2[H])c([H])c1[H]


 52 55  0  0  0  0  0  0  0  0999 V2000
   -5.4973   23.6465  -23.2696 C   0  0  0  0  0  0  0  0  0  0  0  0
   -6.0788   22.8180  -24.4365 C   0  0  0  0  0  0  0  0  0  0  0  0
   -5.7091   21.3897  -24.0818 C   0  0  0  0  0  0  0  0  0  0  0  0
   -4.6656   21.4996  -22.9962 C   0  0  0  0  0  0  0  0  0  0  0  0
   -4.3013   22.8867  -23.0248 N   0  0  0  0  0  0  0  0  0  0  0  0
   -3.0080   23.4194  -22.8802 C   0  0  0  0  0  0  0  0  0  0  0  0
   -2.8741   24.6796  -22.9880 O   0  0  0  0  0  0  0  0  0  0  0  0
   -6.1558   24.1077  -20.9324 N   0  0  0  0  0  0  0  0  0  0  0  0
   -6.5022   23.6405  -22.2211 C   0  0  0  0  0  0  0  0  0  0  0  0
   -7.6638   23.2353  -22.4235 O   0  0  0  0  0  0  0  0  0  0  0  0
   -5.1994   24.4568  -20.6730 H   0  0  0  0  0  0  0  0  0  0  0  0
   -7.1452   24.1300  -19.8511 C   0  0  0  0  0  0  0  0  0  0  0  0
   -9.5035   24.7895  -20.4718 N   0  0  0  0  0  0  0  0  0  0  0  0
   -8.1784   25.1394  -20.1083 C   0  0  0  0  0  0  0  0  0  0  0  0
   -7.9035   26.3809  -20.0118 O   0  0  0  0  0  0  0  0  0  0  0  0
   -9.8058   23.7877  -20.5722 H   0  0  0  0  0  0  0  0  0  0  0  0
  -11.7259   25.6212  -19.8778 C   0  0  0  0  0  0  0  0  0  0  0  0
  -10.5079   25.7951  -20.7231 C   0  0  0  0  0  0  0  0  0  0  0  0
  -10.9611   25.7805  -22.1767 C   0  0  0  0  0  0  0  0  0  0  0  0
   -9.9945   25.2227  -22.9770 F   0  0  0  0  0  0  0  0  0  0  0  0
  -11.1212   27.0929  -22.6369 F   0  0  0  0  0  0  0  0  0  0  0  0
  -12.1371   25.0807  -22.2658 F   0  0  0  0  0  0  0  0  0  0  0  0
   -6.4741   24.3981  -18.5377 C   0  0  0  0  0  0  0  0  0  0  0  0
   -6.5386   23.3058  -17.5582 C   0  0  0  0  0  0  0  0  0  0  0  0
   -6.7953   22.0334  -18.0539 C   0  0  0  0  0  0  0  0  0  0  0  0
   -6.8856   20.9757  -17.1876 C   0  0  0  0  0  0  0  0  0  0  0  0
   -6.7308   21.1093  -15.8118 C   0  0  0  0  0  0  0  0  0  0  0  0
   -6.8391   19.9900  -15.0318 O   0  0  0  0  0  0  0  0  0  0  0  0
   -6.4771   22.3819  -15.3465 C   0  0  0  0  0  0  0  0  0  0  0  0
   -6.3852   23.4453  -16.2072 C   0  0  0  0  0  0  0  0  0  0  0  0
   -6.7215   20.1109  -14.0212 H   0  0  0  0  0  0  0  0  0  0  0  0
   -1.7991   22.5865  -22.6149 C   0  0  0  0  0  0  0  0  0  0  0  0
   -1.9716   22.0389  -21.2748 N   0  0  0  0  0  0  0  0  0  0  0  0
   -1.5389   22.7247  -20.1218 C   0  0  0  0  0  0  0  0  0  0  0  0
   -0.9726   23.8539  -20.3103 O   0  0  0  0  0  0  0  0  0  0  0  0
   -2.4236   21.1171  -21.1900 H   0  0  0  0  0  0  0  0  0  0  0  0
   -1.6717   22.2826  -18.7567 C   0  0  0  0  0  0  0  0  0  0  0  0
   -2.9456   22.1925  -18.2138 C   0  0  0  0  0  0  0  0  0  0  0  0
   -3.1489   21.7557  -16.9444 C   0  0  0  0  0  0  0  0  0  0  0  0
   -2.0925   21.3837  -16.1436 C   0  0  0  0  0  0  0  0  0  0  0  0
   -2.2983   20.9379  -14.8622 F   0  0  0  0  0  0  0  0  0  0  0  0
   -0.8191   21.4701  -16.6750 C   0  0  0  0  0  0  0  0  0  0  0  0
   -0.6134   21.9137  -17.9635 C   0  0  0  0  0  0  0  0  0  0  0  0
   -1.7983   21.4886  -23.6539 C   0  0  0  0  0  0  0  0  0  0  0  0
   -1.2940   21.9543  -24.9686 C   0  0  0  0  0  0  0  0  0  0  0  0
    0.0306   22.2840  -25.1489 C   0  0  0  0  0  0  0  0  0  0  0  0
    0.5254   22.7217  -26.3647 C   0  0  0  0  0  0  0  0  0  0  0  0
   -0.3069   22.8503  -27.4754 C   0  0  0  0  0  0  0  0  0  0  0  0
    0.1906   23.2899  -28.6945 O   0  0  0  0  0  0  0  0  0  0  0  0
   -1.6318   22.5216  -27.2979 C   0  0  0  0  0  0  0  0  0  0  0  0
   -2.1193   22.0833  -26.0751 C   0  0  0  0  0  0  0  0  0  0  0  0
    0.5647   22.6715  -29.4146 H   0  0  0  0  0  0  0  0  0  0  0  0
 17 18  1  0  0  0
 18 13  1  0  0  0
 13 14  1  0  0  0
 14 15  2  0  0  0
 14 12  1  0  0  0
 12 23  1  0  0  0
 23 24  1  0  0  0
 24 25  2  0  0  0
 25 26  1  0  0  0
 26 27  2  0  0  0
 27 28  1  0  0  0
 27 29  1  0  0  0
 29 30  2  0  0  0
 12  8  1  0  0  0
  8  9  1  0  0  0
  9 10  2  0  0  0
  9  1  1  0  0  0
  1  2  1  0  0  0
  2  3  1  0  0  0
  3  4  1  0  0  0
  4  5  1  0  0  0
  5  6  1  0  0  0
  6  7  2  0  0  0
  6 32  1  0  0  0
 32 44  1  0  0  0
 44 45  1  0  0  0
 45 46  2  0  0  0
 46 47  1  0  0  0
 47 48  2  0  0  0
 48 49  1  0  0  0
 48 50  1  0  0  0
 50 51  2  0  0  0
 32 33  1  0  0  0
 33 34  1  0  0  0
 34 35  2  0  0  0
 34 37  1  0  0  0
 37 38  2  0  0  0
 38 39  1  0  0  0
 39 40  2  0  0  0
 40 41  1  0  0  0
 40 42  1  0  0  0
 42 43  2  0  0  0
 18 19  1  0  0  0
 19 20  1  0  0  0
 19 21  1  0  0  0
 19 22  1  0  0  0
 30 24  1  0  0  0
  5  1  1  0  0  0
 51 45  1  0  0  0
 43 37  1  0  0  0
 13 16  1  0  0  0
 28 31  1  0  0  0
  8 11  1  0  0  0
 49 52  1  0  0  0
 33 36  1  0  0  0
M  END
> <minimizedAffinity>
-9.00170

> <CNNscore>
0.1880947649

> <CNNaffinity>
6.3663806915

> <CNN_VS>
1.1974828243

> <CNNaffinity_variance>
0.5865722895

$$$$
[H]Oc1c([H])c([H])c(C([H])([H])[C@@]([H])(C(=O)N2C([H])([H])C([H])([H])C([H])([H])[C@@]2([H])C(=O)N([H])[C@]([H])(C(=O)N([H])[C@]([H])(C([H])([H])[H])C(F)(F)F)C([H])([H])c2c([H])c([H])c(O[H])c([H])c2[H])N([H])C(=O)c2c([H])c([H])c(F)c([H])c2[H])c([H])c1[H]


 52 55  0  0  0  0  0  0  0  0999 V2000
   -5.8106   24.0475  -23.1216 C   0  0  0  0  0  0  0  0  0  0  0  0
   -6.5365   23.1954  -24.1861 C   0  0  0  0  0  0  0  0  0  0  0  0
   -6.2432   21.7677  -23.7642 C   0  0  0  0  0  0  0  0  0  0  0  0
   -5.1150   21.8647  -22.7654 C   0  0  0  0  0  0  0  0  0  0  0  0
   -4.6564   23.2158  -22.9124 N   0  0  0  0  0  0  0  0  0  0  0  0
   -3.3214   23.6569  -22.8963 C   0  0  0  0  0  0  0  0  0  0  0  0
   -3.1069   24.8943  -23.0972 O   0  0  0  0  0  0  0  0  0  0  0  0
   -8.1124   23.9756  -22.2240 N   0  0  0  0  0  0  0  0  0  0  0  0
   -6.7308   24.1820  -22.0061 C   0  0  0  0  0  0  0  0  0  0  0  0
   -6.3384   24.4744  -20.8593 O   0  0  0  0  0  0  0  0  0  0  0  0
   -8.5291   23.7364  -23.1584 H   0  0  0  0  0  0  0  0  0  0  0  0
   -9.0715   24.0892  -21.1213 C   0  0  0  0  0  0  0  0  0  0  0  0
   -9.7346   22.7152  -19.1077 N   0  0  0  0  0  0  0  0  0  0  0  0
   -9.2259   22.8053  -20.4282 C   0  0  0  0  0  0  0  0  0  0  0  0
   -8.8974   21.7177  -21.0072 O   0  0  0  0  0  0  0  0  0  0  0  0
  -10.0259   23.5673  -18.5653 H   0  0  0  0  0  0  0  0  0  0  0  0
  -11.1323   21.3521  -17.6340 C   0  0  0  0  0  0  0  0  0  0  0  0
   -9.8788   21.4442  -18.4393 C   0  0  0  0  0  0  0  0  0  0  0  0
   -8.7147   21.1745  -17.4955 C   0  0  0  0  0  0  0  0  0  0  0  0
   -8.1323   22.3535  -17.0999 F   0  0  0  0  0  0  0  0  0  0  0  0
   -7.7127   20.4656  -18.1686 F   0  0  0  0  0  0  0  0  0  0  0  0
   -9.1768   20.4676  -16.4149 F   0  0  0  0  0  0  0  0  0  0  0  0
  -10.3978   24.5651  -21.6326 C   0  0  0  0  0  0  0  0  0  0  0  0
  -10.6142   26.0166  -21.5789 C   0  0  0  0  0  0  0  0  0  0  0  0
  -11.3885   26.5729  -22.5898 C   0  0  0  0  0  0  0  0  0  0  0  0
  -11.6112   27.9248  -22.6047 C   0  0  0  0  0  0  0  0  0  0  0  0
  -11.0943   28.7874  -21.6437 C   0  0  0  0  0  0  0  0  0  0  0  0
  -11.3753   30.1227  -21.7475 O   0  0  0  0  0  0  0  0  0  0  0  0
  -10.3300   28.2098  -20.6525 C   0  0  0  0  0  0  0  0  0  0  0  0
  -10.1027   26.8578  -20.6308 C   0  0  0  0  0  0  0  0  0  0  0  0
  -10.9848   30.7402  -21.0291 H   0  0  0  0  0  0  0  0  0  0  0  0
   -2.1580   22.7526  -22.6629 C   0  0  0  0  0  0  0  0  0  0  0  0
   -2.3300   22.2110  -21.3203 N   0  0  0  0  0  0  0  0  0  0  0  0
   -1.7333   22.8036  -20.1891 C   0  0  0  0  0  0  0  0  0  0  0  0
   -1.0183   23.8407  -20.4005 O   0  0  0  0  0  0  0  0  0  0  0  0
   -2.9076   21.3642  -21.2172 H   0  0  0  0  0  0  0  0  0  0  0  0
   -1.8491   22.3600  -18.8230 C   0  0  0  0  0  0  0  0  0  0  0  0
   -3.1007   22.3884  -18.2243 C   0  0  0  0  0  0  0  0  0  0  0  0
   -3.2902   21.9581  -16.9506 C   0  0  0  0  0  0  0  0  0  0  0  0
   -2.2415   21.4746  -16.2009 C   0  0  0  0  0  0  0  0  0  0  0  0
   -2.4339   21.0354  -14.9150 F   0  0  0  0  0  0  0  0  0  0  0  0
   -0.9903   21.4423  -16.7880 C   0  0  0  0  0  0  0  0  0  0  0  0
   -0.7985   21.8794  -18.0809 C   0  0  0  0  0  0  0  0  0  0  0  0
   -2.2477   21.6608  -23.7043 C   0  0  0  0  0  0  0  0  0  0  0  0
   -1.6088   22.0474  -24.9857 C   0  0  0  0  0  0  0  0  0  0  0  0
   -0.2500   22.2523  -25.0725 C   0  0  0  0  0  0  0  0  0  0  0  0
    0.3697   22.6142  -26.2555 C   0  0  0  0  0  0  0  0  0  0  0  0
   -0.3644   22.7902  -27.4272 C   0  0  0  0  0  0  0  0  0  0  0  0
    0.2584   23.1537  -28.6133 O   0  0  0  0  0  0  0  0  0  0  0  0
   -1.7232   22.5862  -27.3432 C   0  0  0  0  0  0  0  0  0  0  0  0
   -2.3363   22.2232  -26.1527 C   0  0  0  0  0  0  0  0  0  0  0  0
    0.6257   22.4869  -29.2926 H   0  0  0  0  0  0  0  0  0  0  0  0
 17 18  1  0  0  0
 18 13  1  0  0  0
 13 14  1  0  0  0
 14 15  2  0  0  0
 14 12  1  0  0  0
 12 23  1  0  0  0
 23 24  1  0  0  0
 24 25  2  0  0  0
 25 26  1  0  0  0
 26 27  2  0  0  0
 27 28  1  0  0  0
 27 29  1  0  0  0
 29 30  2  0  0  0
 12  8  1  0  0  0
  8  9  1  0  0  0
  9 10  2  0  0  0
  9  1  1  0  0  0
  1  2  1  0  0  0
  2  3  1  0  0  0
  3  4  1  0  0  0
  4  5  1  0  0  0
  5  6  1  0  0  0
  6  7  2  0  0  0
  6 32  1  0  0  0
 32 44  1  0  0  0
 44 45  1  0  0  0
 45 46  2  0  0  0
 46 47  1  0  0  0
 47 48  2  0  0  0
 48 49  1  0  0  0
 48 50  1  0  0  0
 50 51  2  0  0  0
 32 33  1  0  0  0
 33 34  1  0  0  0
 34 35  2  0  0  0
 34 37  1  0  0  0
 37 38  2  0  0  0
 38 39  1  0  0  0
 39 40  2  0  0  0
 40 41  1  0  0  0
 40 42  1  0  0  0
 42 43  2  0  0  0
 18 19  1  0  0  0
 19 20  1  0  0  0
 19 21  1  0  0  0
 19 22  1  0  0  0
 30 24  1  0  0  0
  5  1  1  0  0  0
 51 45  1  0  0  0
 43 37  1  0  0  0
 13 16  1  0  0  0
 28 31  1  0  0  0
  8 11  1  0  0  0
 49 52  1  0  0  0
 33 36  1  0  0  0
M  END
> <minimizedAffinity>
-9.51015

> <CNNscore>
0.1856168658

> <CNNaffinity>
6.3965997696

> <CNN_VS>
1.1873167753

> <CNNaffinity_variance>
0.7555879354

$$$$
[H]Oc1c([H])c([H])c(C([H])([H])[C@@]([H])(C(=O)N2C([H])([H])C([H])([H])C([H])([H])[C@@]2([H])C(=O)N([H])[C@]([H])(C(=O)N([H])[C@]([H])(C([H])([H])[H])C(F)(F)F)C([H])([H])c2c([H])c([H])c(O[H])c([H])c2[H])N([H])C(=O)c2c([H])c([H])c(F)c([H])c2[H])c([H])c1[H]


 52 55  0  0  0  0  0  0  0  0999 V2000
   -1.3041   23.1362  -22.7914 C   0  0  0  0  0  0  0  0  0  0  0  0
   -0.1199   23.0115  -23.7754 C   0  0  0  0  0  0  0  0  0  0  0  0
    0.3367   21.5742  -23.6074 C   0  0  0  0  0  0  0  0  0  0  0  0
   -0.3176   21.0879  -22.3365 C   0  0  0  0  0  0  0  0  0  0  0  0
   -0.8126   22.2927  -21.7356 N   0  0  0  0  0  0  0  0  0  0  0  0
   -0.7921   22.6200  -20.3683 C   0  0  0  0  0  0  0  0  0  0  0  0
   -1.2313   23.7645  -20.0295 O   0  0  0  0  0  0  0  0  0  0  0  0
   -2.9936   23.4514  -24.5677 N   0  0  0  0  0  0  0  0  0  0  0  0
   -2.4812   22.6727  -23.5046 C   0  0  0  0  0  0  0  0  0  0  0  0
   -3.0548   21.6063  -23.2074 O   0  0  0  0  0  0  0  0  0  0  0  0
   -2.5789   24.3658  -24.8772 H   0  0  0  0  0  0  0  0  0  0  0  0
   -4.1718   23.0113  -25.3205 C   0  0  0  0  0  0  0  0  0  0  0  0
   -4.5635   23.9107  -27.6485 N   0  0  0  0  0  0  0  0  0  0  0  0
   -3.9043   23.0208  -26.7630 C   0  0  0  0  0  0  0  0  0  0  0  0
   -3.0572   22.2110  -27.2659 O   0  0  0  0  0  0  0  0  0  0  0  0
   -5.2748   24.6064  -27.3093 H   0  0  0  0  0  0  0  0  0  0  0  0
   -4.3098   25.2736  -29.6638 C   0  0  0  0  0  0  0  0  0  0  0  0
   -4.2901   23.9061  -29.0657 C   0  0  0  0  0  0  0  0  0  0  0  0
   -5.3053   23.0650  -29.8275 C   0  0  0  0  0  0  0  0  0  0  0  0
   -5.8030   23.7645  -30.8993 F   0  0  0  0  0  0  0  0  0  0  0  0
   -6.4078   22.7948  -29.0081 F   0  0  0  0  0  0  0  0  0  0  0  0
   -4.6996   21.9044  -30.2363 F   0  0  0  0  0  0  0  0  0  0  0  0
   -5.3471   23.8869  -25.0054 C   0  0  0  0  0  0  0  0  0  0  0  0
   -6.1757   23.4528  -23.8733 C   0  0  0  0  0  0  0  0  0  0  0  0
   -6.2501   22.0852  -23.6389 C   0  0  0  0  0  0  0  0  0  0  0  0
   -7.0220   21.6170  -22.6082 C   0  0  0  0  0  0  0  0  0  0  0  0
   -7.7492   22.4529  -21.7672 C   0  0  0  0  0  0  0  0  0  0  0  0
   -8.4897   21.8859  -20.7657 O   0  0  0  0  0  0  0  0  0  0  0  0
   -7.6577   23.8046  -22.0217 C   0  0  0  0  0  0  0  0  0  0  0  0
   -6.8874   24.2808  -23.0511 C   0  0  0  0  0  0  0  0  0  0  0  0
   -9.0174   22.5197  -20.1578 H   0  0  0  0  0  0  0  0  0  0  0  0
   -0.2809   21.7021  -19.3092 C   0  0  0  0  0  0  0  0  0  0  0  0
    0.8116   22.4104  -18.6533 N   0  0  0  0  0  0  0  0  0  0  0  0
    2.1570   22.2350  -19.0353 C   0  0  0  0  0  0  0  0  0  0  0  0
    2.3760   21.4090  -19.9846 O   0  0  0  0  0  0  0  0  0  0  0  0
    0.5711   23.0529  -17.8848 H   0  0  0  0  0  0  0  0  0  0  0  0
    3.3063   22.8920  -18.4659 C   0  0  0  0  0  0  0  0  0  0  0  0
    4.5687   22.4482  -18.8333 C   0  0  0  0  0  0  0  0  0  0  0  0
    5.6961   23.0385  -18.3600 C   0  0  0  0  0  0  0  0  0  0  0  0
    5.6286   24.1056  -17.4927 C   0  0  0  0  0  0  0  0  0  0  0  0
    6.7680   24.7051  -17.0178 F   0  0  0  0  0  0  0  0  0  0  0  0
    4.3754   24.5553  -17.1201 C   0  0  0  0  0  0  0  0  0  0  0  0
    3.2314   23.9556  -17.6008 C   0  0  0  0  0  0  0  0  0  0  0  0
   -1.4283   21.4692  -18.3531 C   0  0  0  0  0  0  0  0  0  0  0  0
   -1.0039   20.7585  -17.1226 C   0  0  0  0  0  0  0  0  0  0  0  0
   -0.5386   19.4635  -17.1708 C   0  0  0  0  0  0  0  0  0  0  0  0
   -0.1377   18.7785  -16.0373 C   0  0  0  0  0  0  0  0  0  0  0  0
   -0.1885   19.3775  -14.7797 C   0  0  0  0  0  0  0  0  0  0  0  0
    0.2136   18.6891  -13.6433 O   0  0  0  0  0  0  0  0  0  0  0  0
   -0.6535   20.6721  -14.7286 C   0  0  0  0  0  0  0  0  0  0  0  0
   -1.0533   21.3514  -15.8703 C   0  0  0  0  0  0  0  0  0  0  0  0
    1.1676   18.6929  -13.2814 H   0  0  0  0  0  0  0  0  0  0  0  0
 17 18  1  0  0  0
 18 13  1  0  0  0
 13 14  1  0  0  0
 14 15  2  0  0  0
 14 12  1  0  0  0
 12 23  1  0  0  0
 23 24  1  0  0  0
 24 25  2  0  0  0
 25 26  1  0  0  0
 26 27  2  0  0  0
 27 28  1  0  0  0
 27 29  1  0  0  0
 29 30  2  0  0  0
 12  8  1  0  0  0
  8  9  1  0  0  0
  9 10  2  0  0  0
  9  1  1  0  0  0
  1  2  1  0  0  0
  2  3  1  0  0  0
  3  4  1  0  0  0
  4  5  1  0  0  0
  5  6  1  0  0  0
  6  7  2  0  0  0
  6 32  1  0  0  0
 32 44  1  0  0  0
 44 45  1  0  0  0
 45 46  2  0  0  0
 46 47  1  0  0  0
 47 48  2  0  0  0
 48 49  1  0  0  0
 48 50  1  0  0  0
 50 51  2  0  0  0
 32 33  1  0  0  0
 33 34  1  0  0  0
 34 35  2  0  0  0
 34 37  1  0  0  0
 37 38  2  0  0  0
 38 39  1  0  0  0
 39 40  2  0  0  0
 40 41  1  0  0  0
 40 42  1  0  0  0
 42 43  2  0  0  0
 18 19  1  0  0  0
 19 20  1  0  0  0
 19 21  1  0  0  0
 19 22  1  0  0  0
 30 24  1  0  0  0
  5  1  1  0  0  0
 51 45  1  0  0  0
 43 37  1  0  0  0
 13 16  1  0  0  0
 28 31  1  0  0  0
  8 11  1  0  0  0
 49 52  1  0  0  0
 33 36  1  0  0  0
M  END
> <minimizedAffinity>
-8.72919

> <CNNscore>
0.1639895588

> <CNNaffinity>
6.7149658203

> <CNN_VS>
1.1011842489

> <CNNaffinity_variance>
0.0989060849

$$$$
[H]Oc1c([H])c([H])c(C([H])([H])[C@@]([H])(C(=O)N2C([H])([H])C([H])([H])C([H])([H])[C@@]2([H])C(=O)N([H])[C@]([H])(C(=O)N([H])[C@]([H])(C([H])([H])[H])C(F)(F)F)C([H])([H])c2c([H])c([H])c(O[H])c([H])c2[H])N([H])C(=O)c2c([H])c([H])c(F)c([H])c2[H])c([H])c1[H]


 52 55  0  0  0  0  0  0  0  0999 V2000
   -1.1669   21.8564  -18.8014 C   0  0  0  0  0  0  0  0  0  0  0  0
   -0.9206   20.3332  -18.7280 C   0  0  0  0  0  0  0  0  0  0  0  0
   -0.7005   19.9350  -20.1756 C   0  0  0  0  0  0  0  0  0  0  0  0
   -1.1833   21.1074  -20.9955 C   0  0  0  0  0  0  0  0  0  0  0  0
   -1.8925   21.9103  -20.0416 N   0  0  0  0  0  0  0  0  0  0  0  0
   -3.0997   22.5991  -20.2548 C   0  0  0  0  0  0  0  0  0  0  0  0
   -3.6073   23.2186  -19.2668 O   0  0  0  0  0  0  0  0  0  0  0  0
    1.2698   21.7173  -18.4109 N   0  0  0  0  0  0  0  0  0  0  0  0
    0.1420   22.4853  -18.7815 C   0  0  0  0  0  0  0  0  0  0  0  0
    0.3018   23.6847  -19.0823 O   0  0  0  0  0  0  0  0  0  0  0  0
    1.2240   20.7049  -18.1337 H   0  0  0  0  0  0  0  0  0  0  0  0
    2.6094   22.3120  -18.3912 C   0  0  0  0  0  0  0  0  0  0  0  0
    2.7840   21.2053  -20.6554 N   0  0  0  0  0  0  0  0  0  0  0  0
    3.3711   21.9248  -19.5838 C   0  0  0  0  0  0  0  0  0  0  0  0
    4.6050   22.2298  -19.6866 O   0  0  0  0  0  0  0  0  0  0  0  0
    1.7730   20.9175  -20.6433 H   0  0  0  0  0  0  0  0  0  0  0  0
    2.7787   20.9833  -23.0914 C   0  0  0  0  0  0  0  0  0  0  0  0
    3.5478   20.8305  -21.8212 C   0  0  0  0  0  0  0  0  0  0  0  0
    4.0095   19.3815  -21.7441 C   0  0  0  0  0  0  0  0  0  0  0  0
    3.7527   18.8597  -20.5001 F   0  0  0  0  0  0  0  0  0  0  0  0
    5.3990   19.3173  -21.9011 F   0  0  0  0  0  0  0  0  0  0  0  0
    3.3700   18.6616  -22.7207 F   0  0  0  0  0  0  0  0  0  0  0  0
    3.3433   21.8995  -17.1508 C   0  0  0  0  0  0  0  0  0  0  0  0
    2.7126   22.2869  -15.8825 C   0  0  0  0  0  0  0  0  0  0  0  0
    1.7068   21.4566  -15.4031 C   0  0  0  0  0  0  0  0  0  0  0  0
    1.0675   21.7746  -14.2336 C   0  0  0  0  0  0  0  0  0  0  0  0
    1.3770   22.9057  -13.4856 C   0  0  0  0  0  0  0  0  0  0  0  0
    0.6798   23.1342  -12.3304 O   0  0  0  0  0  0  0  0  0  0  0  0
    2.3781   23.7120  -13.9835 C   0  0  0  0  0  0  0  0  0  0  0  0
    3.0225   23.4004  -15.1530 C   0  0  0  0  0  0  0  0  0  0  0  0
    0.9239   23.9728  -11.7947 H   0  0  0  0  0  0  0  0  0  0  0  0
   -3.8079   22.6331  -21.5674 C   0  0  0  0  0  0  0  0  0  0  0  0
   -2.8044   22.3165  -22.5764 N   0  0  0  0  0  0  0  0  0  0  0  0
   -2.8419   22.8696  -23.8724 C   0  0  0  0  0  0  0  0  0  0  0  0
   -3.8130   23.6595  -24.1262 O   0  0  0  0  0  0  0  0  0  0  0  0
   -2.0536   21.6617  -22.3144 H   0  0  0  0  0  0  0  0  0  0  0  0
   -1.8979   22.6357  -24.9358 C   0  0  0  0  0  0  0  0  0  0  0  0
   -2.3489   22.7103  -26.2461 C   0  0  0  0  0  0  0  0  0  0  0  0
   -1.5102   22.5308  -27.2985 C   0  0  0  0  0  0  0  0  0  0  0  0
   -0.1731   22.2664  -27.1042 C   0  0  0  0  0  0  0  0  0  0  0  0
    0.6755   22.0895  -28.1681 F   0  0  0  0  0  0  0  0  0  0  0  0
    0.2864   22.1897  -25.8025 C   0  0  0  0  0  0  0  0  0  0  0  0
   -0.5655   22.3719  -24.7345 C   0  0  0  0  0  0  0  0  0  0  0  0
   -4.8738   21.5630  -21.5074 C   0  0  0  0  0  0  0  0  0  0  0  0
   -6.2337   22.1283  -21.3325 C   0  0  0  0  0  0  0  0  0  0  0  0
   -7.1994   21.4565  -20.6170 C   0  0  0  0  0  0  0  0  0  0  0  0
   -8.4752   21.9620  -20.4403 C   0  0  0  0  0  0  0  0  0  0  0  0
   -8.8442   23.1900  -20.9869 C   0  0  0  0  0  0  0  0  0  0  0  0
  -10.1246   23.6958  -20.8093 O   0  0  0  0  0  0  0  0  0  0  0  0
   -7.8807   23.8637  -21.7030 C   0  0  0  0  0  0  0  0  0  0  0  0
   -6.6037   23.3494  -21.8750 C   0  0  0  0  0  0  0  0  0  0  0  0
  -10.3989   24.2936  -20.0293 H   0  0  0  0  0  0  0  0  0  0  0  0
 17 18  1  0  0  0
 18 13  1  0  0  0
 13 14  1  0  0  0
 14 15  2  0  0  0
 14 12  1  0  0  0
 12 23  1  0  0  0
 23 24  1  0  0  0
 24 25  2  0  0  0
 25 26  1  0  0  0
 26 27  2  0  0  0
 27 28  1  0  0  0
 27 29  1  0  0  0
 29 30  2  0  0  0
 12  8  1  0  0  0
  8  9  1  0  0  0
  9 10  2  0  0  0
  9  1  1  0  0  0
  1  2  1  0  0  0
  2  3  1  0  0  0
  3  4  1  0  0  0
  4  5  1  0  0  0
  5  6  1  0  0  0
  6  7  2  0  0  0
  6 32  1  0  0  0
 32 44  1  0  0  0
 44 45  1  0  0  0
 45 46  2  0  0  0
 46 47  1  0  0  0
 47 48  2  0  0  0
 48 49  1  0  0  0
 48 50  1  0  0  0
 50 51  2  0  0  0
 32 33  1  0  0  0
 33 34  1  0  0  0
 34 35  2  0  0  0
 34 37  1  0  0  0
 37 38  2  0  0  0
 38 39  1  0  0  0
 39 40  2  0  0  0
 40 41  1  0  0  0
 40 42  1  0  0  0
 42 43  2  0  0  0
 18 19  1  0  0  0
 19 20  1  0  0  0
 19 21  1  0  0  0
 19 22  1  0  0  0
 30 24  1  0  0  0
  5  1  1  0  0  0
 51 45  1  0  0  0
 43 37  1  0  0  0
 13 16  1  0  0  0
 28 31  1  0  0  0
  8 11  1  0  0  0
 49 52  1  0  0  0
 33 36  1  0  0  0
M  END
> <minimizedAffinity>
-8.48022

> <CNNscore>
0.1526801586

> <CNNaffinity>
6.4823026657

> <CNN_VS>
0.9897189736

> <CNNaffinity_variance>
0.2247711122

$$$$
[H]Oc1c([H])c([H])c(C([H])([H])[C@@]([H])(C(=O)N2C([H])([H])C([H])([H])C([H])([H])[C@@]2([H])C(=O)N([H])[C@]([H])(C(=O)N([H])[C@]([H])(C([H])([H])[H])C(F)(F)F)C([H])([H])c2c([H])c([H])c(O[H])c([H])c2[H])N([H])C(=O)c2c([H])c([H])c(F)c([H])c2[H])c([H])c1[H]


 52 55  0  0  0  0  0  0  0  0999 V2000
   -2.4577   23.3909  -22.9793 C   0  0  0  0  0  0  0  0  0  0  0  0
   -1.7107   23.1823  -24.3151 C   0  0  0  0  0  0  0  0  0  0  0  0
   -1.4434   21.6890  -24.3476 C   0  0  0  0  0  0  0  0  0  0  0  0
   -1.6917   21.2029  -22.9398 C   0  0  0  0  0  0  0  0  0  0  0  0
   -1.7682   22.4160  -22.1781 N   0  0  0  0  0  0  0  0  0  0  0  0
   -1.2361   22.6383  -20.8957 C   0  0  0  0  0  0  0  0  0  0  0  0
   -1.3588   23.8034  -20.4005 O   0  0  0  0  0  0  0  0  0  0  0  0
   -4.5399   23.9550  -24.1857 N   0  0  0  0  0  0  0  0  0  0  0  0
   -3.8621   23.1394  -23.2506 C   0  0  0  0  0  0  0  0  0  0  0  0
   -4.4897   22.2237  -22.6828 O   0  0  0  0  0  0  0  0  0  0  0  0
   -4.0911   24.7531  -24.7011 H   0  0  0  0  0  0  0  0  0  0  0  0
   -5.9537   23.7249  -24.4967 C   0  0  0  0  0  0  0  0  0  0  0  0
   -5.1237   23.8854  -26.8773 N   0  0  0  0  0  0  0  0  0  0  0  0
   -6.1860   23.7772  -25.9444 C   0  0  0  0  0  0  0  0  0  0  0  0
   -7.3730   23.7283  -26.4080 O   0  0  0  0  0  0  0  0  0  0  0  0
   -4.1189   23.9318  -26.5719 H   0  0  0  0  0  0  0  0  0  0  0  0
   -4.4800   23.0232  -29.0740 C   0  0  0  0  0  0  0  0  0  0  0  0
   -5.3694   23.9375  -28.2985 C   0  0  0  0  0  0  0  0  0  0  0  0
   -5.1643   25.3421  -28.8496 C   0  0  0  0  0  0  0  0  0  0  0  0
   -6.1446   25.6500  -29.7605 F   0  0  0  0  0  0  0  0  0  0  0  0
   -3.9582   25.4024  -29.5578 F   0  0  0  0  0  0  0  0  0  0  0  0
   -5.1669   26.2310  -27.8052 F   0  0  0  0  0  0  0  0  0  0  0  0
   -6.8114   24.7359  -23.7971 C   0  0  0  0  0  0  0  0  0  0  0  0
   -7.0306   24.4988  -22.3645 C   0  0  0  0  0  0  0  0  0  0  0  0
   -6.4960   25.4327  -21.4854 C   0  0  0  0  0  0  0  0  0  0  0  0
   -6.6515   25.2569  -20.1354 C   0  0  0  0  0  0  0  0  0  0  0  0
   -7.3289   24.1731  -19.5866 C   0  0  0  0  0  0  0  0  0  0  0  0
   -7.4296   24.0891  -18.2244 O   0  0  0  0  0  0  0  0  0  0  0  0
   -7.8492   23.2619  -20.4806 C   0  0  0  0  0  0  0  0  0  0  0  0
   -7.6978   23.4309  -21.8329 C   0  0  0  0  0  0  0  0  0  0  0  0
   -7.9328   23.2830  -17.8413 H   0  0  0  0  0  0  0  0  0  0  0  0
   -0.5382   21.5871  -20.0999 C   0  0  0  0  0  0  0  0  0  0  0  0
    0.4887   22.2783  -19.3297 N   0  0  0  0  0  0  0  0  0  0  0  0
    1.8644   22.0667  -19.5523 C   0  0  0  0  0  0  0  0  0  0  0  0
    2.1707   21.2236  -20.4616 O   0  0  0  0  0  0  0  0  0  0  0  0
    0.1773   22.9361  -18.6007 H   0  0  0  0  0  0  0  0  0  0  0  0
    2.9563   22.7042  -18.8610 C   0  0  0  0  0  0  0  0  0  0  0  0
    2.6670   23.7429  -17.9874 C   0  0  0  0  0  0  0  0  0  0  0  0
    3.6415   24.3699  -17.2799 C   0  0  0  0  0  0  0  0  0  0  0  0
    4.9609   23.9966  -17.4035 C   0  0  0  0  0  0  0  0  0  0  0  0
    5.9454   24.6274  -16.6850 F   0  0  0  0  0  0  0  0  0  0  0  0
    5.2599   22.9629  -18.2715 C   0  0  0  0  0  0  0  0  0  0  0  0
    4.2703   22.3269  -18.9895 C   0  0  0  0  0  0  0  0  0  0  0  0
   -1.5794   20.9757  -19.1905 C   0  0  0  0  0  0  0  0  0  0  0  0
   -1.0399   20.6582  -17.8460 C   0  0  0  0  0  0  0  0  0  0  0  0
   -0.3086   19.5132  -17.6225 C   0  0  0  0  0  0  0  0  0  0  0  0
    0.2045   19.1941  -16.3777 C   0  0  0  0  0  0  0  0  0  0  0  0
    0.0004   20.0289  -15.2803 C   0  0  0  0  0  0  0  0  0  0  0  0
    0.5153   19.7075  -14.0319 O   0  0  0  0  0  0  0  0  0  0  0  0
   -0.7306   21.1743  -15.5009 C   0  0  0  0  0  0  0  0  0  0  0  0
   -1.2413   21.4865  -16.7526 C   0  0  0  0  0  0  0  0  0  0  0  0
    1.4386   19.9929  -13.7047 H   0  0  0  0  0  0  0  0  0  0  0  0
 17 18  1  0  0  0
 18 13  1  0  0  0
 13 14  1  0  0  0
 14 15  2  0  0  0
 14 12  1  0  0  0
 12 23  1  0  0  0
 23 24  1  0  0  0
 24 25  2  0  0  0
 25 26  1  0  0  0
 26 27  2  0  0  0
 27 28  1  0  0  0
 27 29  1  0  0  0
 29 30  2  0  0  0
 12  8  1  0  0  0
  8  9  1  0  0  0
  9 10  2  0  0  0
  9  1  1  0  0  0
  1  2  1  0  0  0
  2  3  1  0  0  0
  3  4  1  0  0  0
  4  5  1  0  0  0
  5  6  1  0  0  0
  6  7  2  0  0  0
  6 32  1  0  0  0
 32 44  1  0  0  0
 44 45  1  0  0  0
 45 46  2  0  0  0
 46 47  1  0  0  0
 47 48  2  0  0  0
 48 49  1  0  0  0
 48 50  1  0  0  0
 50 51  2  0  0  0
 32 33  1  0  0  0
 33 34  1  0  0  0
 34 35  2  0  0  0
 34 37  1  0  0  0
 37 38  2  0  0  0
 38 39  1  0  0  0
 39 40  2  0  0  0
 40 41  1  0  0  0
 40 42  1  0  0  0
 42 43  2  0  0  0
 18 19  1  0  0  0
 19 20  1  0  0  0
 19 21  1  0  0  0
 19 22  1  0  0  0
 30 24  1  0  0  0
  5  1  1  0  0  0
 51 45  1  0  0  0
 43 37  1  0  0  0
 13 16  1  0  0  0
 28 31  1  0  0  0
  8 11  1  0  0  0
 49 52  1  0  0  0
 33 36  1  0  0  0
M  END
> <minimizedAffinity>
-8.52490

> <CNNscore>
0.1459283531

> <CNNaffinity>
6.5048623085

> <CNN_VS>
0.9492438436

> <CNNaffinity_variance>
0.3603502810

$$$$
[H]Oc1c([H])c([H])c(C([H])([H])[C@@]([H])(C(=O)N2C([H])([H])C([H])([H])C([H])([H])[C@@]2([H])C(=O)N([H])[C@]([H])(C(=O)N([H])[C@]([H])(C([H])([H])[H])C(F)(F)F)C([H])([H])c2c([H])c([H])c(O[H])c([H])c2[H])N([H])C(=O)c2c([H])c([H])c(F)c([H])c2[H])c([H])c1[H]


 52 55  0  0  0  0  0  0  0  0999 V2000
   -2.9432   23.4791  -23.2039 C   0  0  0  0  0  0  0  0  0  0  0  0
   -2.2263   23.0768  -24.5117 C   0  0  0  0  0  0  0  0  0  0  0  0
   -2.1573   21.5631  -24.4322 C   0  0  0  0  0  0  0  0  0  0  0  0
   -2.4713   21.2187  -22.9960 C   0  0  0  0  0  0  0  0  0  0  0  0
   -2.3899   22.4842  -22.3255 N   0  0  0  0  0  0  0  0  0  0  0  0
   -1.8368   22.7289  -21.0562 C   0  0  0  0  0  0  0  0  0  0  0  0
   -1.8068   23.9333  -20.6485 O   0  0  0  0  0  0  0  0  0  0  0  0
   -4.9603   24.3335  -24.3486 N   0  0  0  0  0  0  0  0  0  0  0  0
   -4.3677   23.3942  -23.4737 C   0  0  0  0  0  0  0  0  0  0  0  0
   -5.0855   22.5159  -22.9561 O   0  0  0  0  0  0  0  0  0  0  0  0
   -4.4324   25.1106  -24.8191 H   0  0  0  0  0  0  0  0  0  0  0  0
   -6.3922   24.2731  -24.6565 C   0  0  0  0  0  0  0  0  0  0  0  0
   -5.6026   24.1120  -27.0508 N   0  0  0  0  0  0  0  0  0  0  0  0
   -6.6213   24.3804  -26.1017 C   0  0  0  0  0  0  0  0  0  0  0  0
   -7.7644   24.7269  -26.5482 O   0  0  0  0  0  0  0  0  0  0  0  0
   -4.6349   23.8221  -26.7600 H   0  0  0  0  0  0  0  0  0  0  0  0
   -5.3156   23.0598  -29.2403 C   0  0  0  0  0  0  0  0  0  0  0  0
   -5.8439   24.2238  -28.4694 C   0  0  0  0  0  0  0  0  0  0  0  0
   -5.2022   25.4776  -29.0479 C   0  0  0  0  0  0  0  0  0  0  0  0
   -6.0608   26.0991  -29.9209 F   0  0  0  0  0  0  0  0  0  0  0  0
   -4.0789   25.1287  -29.8069 F   0  0  0  0  0  0  0  0  0  0  0  0
   -4.8590   26.3141  -28.0167 F   0  0  0  0  0  0  0  0  0  0  0  0
   -7.1260   25.3619  -23.9331 C   0  0  0  0  0  0  0  0  0  0  0  0
   -7.8277   24.9497  -22.7107 C   0  0  0  0  0  0  0  0  0  0  0  0
   -8.4178   25.9567  -21.9567 C   0  0  0  0  0  0  0  0  0  0  0  0
   -9.0717   25.6372  -20.7957 C   0  0  0  0  0  0  0  0  0  0  0  0
   -9.1789   24.3339  -20.3219 C   0  0  0  0  0  0  0  0  0  0  0  0
   -9.8536   24.1194  -19.1507 O   0  0  0  0  0  0  0  0  0  0  0  0
   -8.5848   23.3545  -21.0887 C   0  0  0  0  0  0  0  0  0  0  0  0
   -7.9288   23.6663  -22.2517 C   0  0  0  0  0  0  0  0  0  0  0  0
   -9.9209   23.1520  -18.8199 H   0  0  0  0  0  0  0  0  0  0  0  0
   -1.2852   21.6569  -20.1774 C   0  0  0  0  0  0  0  0  0  0  0  0
   -0.5037   22.3373  -19.1518 N   0  0  0  0  0  0  0  0  0  0  0  0
    0.8512   22.0307  -18.9132 C   0  0  0  0  0  0  0  0  0  0  0  0
    1.3628   21.1113  -19.6374 O   0  0  0  0  0  0  0  0  0  0  0  0
   -0.9775   23.0602  -18.5914 H   0  0  0  0  0  0  0  0  0  0  0  0
    1.7149   22.6483  -17.9389 C   0  0  0  0  0  0  0  0  0  0  0  0
    1.7110   22.1495  -16.6440 C   0  0  0  0  0  0  0  0  0  0  0  0
    2.5199   22.6623  -15.6816 C   0  0  0  0  0  0  0  0  0  0  0  0
    3.3792   23.7024  -15.9559 C   0  0  0  0  0  0  0  0  0  0  0  0
    4.2001   24.2176  -14.9843 F   0  0  0  0  0  0  0  0  0  0  0  0
    3.3906   24.2068  -17.2431 C   0  0  0  0  0  0  0  0  0  0  0  0
    2.5692   23.6860  -18.2196 C   0  0  0  0  0  0  0  0  0  0  0  0
   -2.4732   20.9453  -19.5717 C   0  0  0  0  0  0  0  0  0  0  0  0
   -3.4250   21.8819  -18.9265 C   0  0  0  0  0  0  0  0  0  0  0  0
   -4.6340   22.1861  -19.5109 C   0  0  0  0  0  0  0  0  0  0  0  0
   -5.5385   23.0572  -18.9297 C   0  0  0  0  0  0  0  0  0  0  0  0
   -5.2614   23.6738  -17.7107 C   0  0  0  0  0  0  0  0  0  0  0  0
   -6.1694   24.5478  -17.1290 O   0  0  0  0  0  0  0  0  0  0  0  0
   -4.0532   23.3716  -17.1244 C   0  0  0  0  0  0  0  0  0  0  0  0
   -3.1522   22.4968  -17.7141 C   0  0  0  0  0  0  0  0  0  0  0  0
   -6.9035   24.2603  -16.4812 H   0  0  0  0  0  0  0  0  0  0  0  0
 17 18  1  0  0  0
 18 13  1  0  0  0
 13 14  1  0  0  0
 14 15  2  0  0  0
 14 12  1  0  0  0
 12 23  1  0  0  0
 23 24  1  0  0  0
 24 25  2  0  0  0
 25 26  1  0  0  0
 26 27  2  0  0  0
 27 28  1  0  0  0
 27 29  1  0  0  0
 29 30  2  0  0  0
 12  8  1  0  0  0
  8  9  1  0  0  0
  9 10  2  0  0  0
  9  1  1  0  0  0
  1  2  1  0  0  0
  2  3  1  0  0  0
  3  4  1  0  0  0
  4  5  1  0  0  0
  5  6  1  0  0  0
  6  7  2  0  0  0
  6 32  1  0  0  0
 32 44  1  0  0  0
 44 45  1  0  0  0
 45 46  2  0  0  0
 46 47  1  0  0  0
 47 48  2  0  0  0
 48 49  1  0  0  0
 48 50  1  0  0  0
 50 51  2  0  0  0
 32 33  1  0  0  0
 33 34  1  0  0  0
 34 35  2  0  0  0
 34 37  1  0  0  0
 37 38  2  0  0  0
 38 39  1  0  0  0
 39 40  2  0  0  0
 40 41  1  0  0  0
 40 42  1  0  0  0
 42 43  2  0  0  0
 18 19  1  0  0  0
 19 20  1  0  0  0
 19 21  1  0  0  0
 19 22  1  0  0  0
 30 24  1  0  0  0
  5  1  1  0  0  0
 51 45  1  0  0  0
 43 37  1  0  0  0
 13 16  1  0  0  0
 28 31  1  0  0  0
  8 11  1  0  0  0
 49 52  1  0  0  0
 33 36  1  0  0  0
M  END
> <minimizedAffinity>
-8.74180

> <CNNscore>
0.1437195390

> <CNNaffinity>
6.8140821457

> <CNN_VS>
0.9793167710

> <CNNaffinity_variance>
0.2637573779

$$$$
[H]Oc1c([H])c([H])c(C([H])([H])[C@@]([H])(C(=O)N2C([H])([H])C([H])([H])C([H])([H])[C@@]2([H])C(=O)N([H])[C@]([H])(C(=O)N([H])[C@]([H])(C([H])([H])[H])C(F)(F)F)C([H])([H])c2c([H])c([H])c(O[H])c([H])c2[H])N([H])C(=O)c2c([H])c([H])c(F)c([H])c2[H])c([H])c1[H]


 52 55  0  0  0  0  0  0  0  0999 V2000
   -2.6021   23.2001  -21.5395 C   0  0  0  0  0  0  0  0  0  0  0  0
   -1.2638   23.4878  -22.2553 C   0  0  0  0  0  0  0  0  0  0  0  0
   -0.6521   22.1114  -22.4394 C   0  0  0  0  0  0  0  0  0  0  0  0
   -1.4385   21.1947  -21.5333 C   0  0  0  0  0  0  0  0  0  0  0  0
   -2.1854   22.1016  -20.7104 N   0  0  0  0  0  0  0  0  0  0  0  0
   -2.4389   21.9729  -19.3334 C   0  0  0  0  0  0  0  0  0  0  0  0
   -3.0793   22.9114  -18.7616 O   0  0  0  0  0  0  0  0  0  0  0  0
   -3.6561   23.7573  -23.7046 N   0  0  0  0  0  0  0  0  0  0  0  0
   -3.5693   22.9031  -22.5813 C   0  0  0  0  0  0  0  0  0  0  0  0
   -4.3271   21.9151  -22.5152 O   0  0  0  0  0  0  0  0  0  0  0  0
   -3.0638   24.6152  -23.8357 H   0  0  0  0  0  0  0  0  0  0  0  0
   -4.6102   23.4842  -24.7834 C   0  0  0  0  0  0  0  0  0  0  0  0
   -6.5162   24.0762  -23.2346 N   0  0  0  0  0  0  0  0  0  0  0  0
   -5.9560   23.2551  -24.2458 C   0  0  0  0  0  0  0  0  0  0  0  0
   -6.6678   22.2912  -24.6820 O   0  0  0  0  0  0  0  0  0  0  0  0
   -5.9906   24.8891  -22.8246 H   0  0  0  0  0  0  0  0  0  0  0  0
   -8.5640   25.0953  -22.3680 C   0  0  0  0  0  0  0  0  0  0  0  0
   -7.8412   23.8363  -22.7152 C   0  0  0  0  0  0  0  0  0  0  0  0
   -7.8014   22.9770  -21.4588 C   0  0  0  0  0  0  0  0  0  0  0  0
   -6.6435   23.2045  -20.7563 F   0  0  0  0  0  0  0  0  0  0  0  0
   -7.7695   21.6226  -21.8111 F   0  0  0  0  0  0  0  0  0  0  0  0
   -8.9040   23.2610  -20.6943 F   0  0  0  0  0  0  0  0  0  0  0  0
   -4.1635   22.2989  -25.5850 C   0  0  0  0  0  0  0  0  0  0  0  0
   -2.9387   22.4909  -26.3721 C   0  0  0  0  0  0  0  0  0  0  0  0
   -3.0890   23.0280  -27.6448 C   0  0  0  0  0  0  0  0  0  0  0  0
   -1.9850   23.2142  -28.4348 C   0  0  0  0  0  0  0  0  0  0  0  0
   -0.6968   22.8885  -28.0236 C   0  0  0  0  0  0  0  0  0  0  0  0
    0.3400   23.1138  -28.8881 O   0  0  0  0  0  0  0  0  0  0  0  0
   -0.5759   22.3575  -26.7573 C   0  0  0  0  0  0  0  0  0  0  0  0
   -1.6758   22.1683  -25.9608 C   0  0  0  0  0  0  0  0  0  0  0  0
    1.2805   22.8669  -28.5651 H   0  0  0  0  0  0  0  0  0  0  0  0
   -1.9935   20.8046  -18.5195 C   0  0  0  0  0  0  0  0  0  0  0  0
   -2.8884   19.7068  -18.8647 N   0  0  0  0  0  0  0  0  0  0  0  0
   -4.0217   19.3892  -18.0890 C   0  0  0  0  0  0  0  0  0  0  0  0
   -4.2219   20.1089  -17.0529 O   0  0  0  0  0  0  0  0  0  0  0  0
   -2.6651   19.1547  -19.7053 H   0  0  0  0  0  0  0  0  0  0  0  0
   -4.9745   18.3393  -18.3465 C   0  0  0  0  0  0  0  0  0  0  0  0
   -4.4945   17.0716  -18.6434 C   0  0  0  0  0  0  0  0  0  0  0  0
   -5.3332   16.0277  -18.8680 C   0  0  0  0  0  0  0  0  0  0  0  0
   -6.6993   16.1889  -18.8093 C   0  0  0  0  0  0  0  0  0  0  0  0
   -7.5469   15.1328  -19.0318 F   0  0  0  0  0  0  0  0  0  0  0  0
   -7.1878   17.4482  -18.5145 C   0  0  0  0  0  0  0  0  0  0  0  0
   -6.3360   18.5074  -18.2868 C   0  0  0  0  0  0  0  0  0  0  0  0
   -0.5746   20.5023  -18.9440 C   0  0  0  0  0  0  0  0  0  0  0  0
    0.4150   21.3841  -18.2787 C   0  0  0  0  0  0  0  0  0  0  0  0
    1.1432   22.3076  -18.9947 C   0  0  0  0  0  0  0  0  0  0  0  0
    2.0727   23.1408  -18.3978 C   0  0  0  0  0  0  0  0  0  0  0  0
    2.3163   23.0808  -17.0267 C   0  0  0  0  0  0  0  0  0  0  0  0
    3.2493   23.9170  -16.4291 O   0  0  0  0  0  0  0  0  0  0  0  0
    1.5897   22.1583  -16.3084 C   0  0  0  0  0  0  0  0  0  0  0  0
    0.6595   21.3268  -16.9152 C   0  0  0  0  0  0  0  0  0  0  0  0
    3.0300   24.8392  -16.0515 H   0  0  0  0  0  0  0  0  0  0  0  0
 17 18  1  0  0  0
 18 13  1  0  0  0
 13 14  1  0  0  0
 14 15  2  0  0  0
 14 12  1  0  0  0
 12 23  1  0  0  0
 23 24  1  0  0  0
 24 25  2  0  0  0
 25 26  1  0  0  0
 26 27  2  0  0  0
 27 28  1  0  0  0
 27 29  1  0  0  0
 29 30  2  0  0  0
 12  8  1  0  0  0
  8  9  1  0  0  0
  9 10  2  0  0  0
  9  1  1  0  0  0
  1  2  1  0  0  0
  2  3  1  0  0  0
  3  4  1  0  0  0
  4  5  1  0  0  0
  5  6  1  0  0  0
  6  7  2  0  0  0
  6 32  1  0  0  0
 32 44  1  0  0  0
 44 45  1  0  0  0
 45 46  2  0  0  0
 46 47  1  0  0  0
 47 48  2  0  0  0
 48 49  1  0  0  0
 48 50  1  0  0  0
 50 51  2  0  0  0
 32 33  1  0  0  0
 33 34  1  0  0  0
 34 35  2  0  0  0
 34 37  1  0  0  0
 37 38  2  0  0  0
 38 39  1  0  0  0
 39 40  2  0  0  0
 40 41  1  0  0  0
 40 42  1  0  0  0
 42 43  2  0  0  0
 18 19  1  0  0  0
 19 20  1  0  0  0
 19 21  1  0  0  0
 19 22  1  0  0  0
 30 24  1  0  0  0
  5  1  1  0  0  0
 51 45  1  0  0  0
 43 37  1  0  0  0
 13 16  1  0  0  0
 28 31  1  0  0  0
  8 11  1  0  0  0
 49 52  1  0  0  0
 33 36  1  0  0  0
M  END
> <minimizedAffinity>
-8.34233

> <CNNscore>
0.1353093237

> <CNNaffinity>
6.8671059608

> <CNN_VS>
0.9291834831

> <CNNaffinity_variance>
0.0659800768

$$$$
[H]Oc1c([H])c([H])c(C([H])([H])[C@@]([H])(C(=O)N2C([H])([H])C([H])([H])C([H])([H])[C@@]2([H])C(=O)N([H])[C@]([H])(C(=O)N([H])[C@]([H])(C([H])([H])[H])C(F)(F)F)C([H])([H])c2c([H])c([H])c(O[H])c([H])c2[H])N([H])C(=O)c2c([H])c([H])c(F)c([H])c2[H])c([H])c1[H]


 52 55  0  0  0  0  0  0  0  0999 V2000
   -1.2712   23.1223  -22.8018 C   0  0  0  0  0  0  0  0  0  0  0  0
   -0.0898   22.9744  -23.7859 C   0  0  0  0  0  0  0  0  0  0  0  0
    0.3501   21.5336  -23.6048 C   0  0  0  0  0  0  0  0  0  0  0  0
   -0.3081   21.0670  -22.3286 C   0  0  0  0  0  0  0  0  0  0  0  0
   -0.7883   22.2831  -21.7386 N   0  0  0  0  0  0  0  0  0  0  0  0
   -0.7622   22.6232  -20.3745 C   0  0  0  0  0  0  0  0  0  0  0  0
   -1.1876   23.7760  -20.0461 O   0  0  0  0  0  0  0  0  0  0  0  0
   -2.9367   23.4202  -24.6035 N   0  0  0  0  0  0  0  0  0  0  0  0
   -2.4545   22.6659  -23.5092 C   0  0  0  0  0  0  0  0  0  0  0  0
   -3.0594   21.6264  -23.1803 O   0  0  0  0  0  0  0  0  0  0  0  0
   -2.4947   24.3117  -24.9410 H   0  0  0  0  0  0  0  0  0  0  0  0
   -4.1202   22.9858  -25.3514 C   0  0  0  0  0  0  0  0  0  0  0  0
   -4.5397   23.9100  -27.6648 N   0  0  0  0  0  0  0  0  0  0  0  0
   -3.8657   23.0148  -26.7960 C   0  0  0  0  0  0  0  0  0  0  0  0
   -3.0169   22.2177  -27.3161 O   0  0  0  0  0  0  0  0  0  0  0  0
   -5.2533   24.5960  -27.3109 H   0  0  0  0  0  0  0  0  0  0  0  0
   -4.3089   25.2995  -29.6646 C   0  0  0  0  0  0  0  0  0  0  0  0
   -4.2789   23.9246  -29.0843 C   0  0  0  0  0  0  0  0  0  0  0  0
   -5.2980   23.0896  -29.8477 C   0  0  0  0  0  0  0  0  0  0  0  0
   -4.7306   21.9178  -30.2843 F   0  0  0  0  0  0  0  0  0  0  0  0
   -5.6975   23.7697  -31.0043 F   0  0  0  0  0  0  0  0  0  0  0  0
   -6.3691   22.8416  -29.0278 F   0  0  0  0  0  0  0  0  0  0  0  0
   -5.2955   23.8533  -25.0146 C   0  0  0  0  0  0  0  0  0  0  0  0
   -6.1416   23.3750  -23.9137 C   0  0  0  0  0  0  0  0  0  0  0  0
   -6.8093   24.3411  -23.1709 C   0  0  0  0  0  0  0  0  0  0  0  0
   -7.5998   23.9585  -22.1191 C   0  0  0  0  0  0  0  0  0  0  0  0
   -7.7736   22.6294  -21.7475 C   0  0  0  0  0  0  0  0  0  0  0  0
   -8.5852   22.3514  -20.6812 O   0  0  0  0  0  0  0  0  0  0  0  0
   -7.1002   21.6917  -22.5007 C   0  0  0  0  0  0  0  0  0  0  0  0
   -6.3074   22.0667  -23.5548 C   0  0  0  0  0  0  0  0  0  0  0  0
   -8.6995   21.3661  -20.4247 H   0  0  0  0  0  0  0  0  0  0  0  0
   -0.2605   21.7095  -19.3073 C   0  0  0  0  0  0  0  0  0  0  0  0
    0.8220   22.4229  -18.6403 N   0  0  0  0  0  0  0  0  0  0  0  0
    2.1707   22.2645  -19.0180 C   0  0  0  0  0  0  0  0  0  0  0  0
    2.4021   21.4494  -19.9738 O   0  0  0  0  0  0  0  0  0  0  0  0
    0.5717   23.0560  -17.8672 H   0  0  0  0  0  0  0  0  0  0  0  0
    3.3108   22.9280  -18.4378 C   0  0  0  0  0  0  0  0  0  0  0  0
    4.5792   22.5019  -18.8054 C   0  0  0  0  0  0  0  0  0  0  0  0
    5.6985   23.0995  -18.3220 C   0  0  0  0  0  0  0  0  0  0  0  0
    5.6163   24.1567  -17.4438 C   0  0  0  0  0  0  0  0  0  0  0  0
    6.7476   24.7635  -16.9588 F   0  0  0  0  0  0  0  0  0  0  0  0
    4.3571   24.5887  -17.0710 C   0  0  0  0  0  0  0  0  0  0  0  0
    3.2213   23.9817  -17.5619 C   0  0  0  0  0  0  0  0  0  0  0  0
   -1.4182   21.4751  -18.3641 C   0  0  0  0  0  0  0  0  0  0  0  0
   -1.7618   20.0380  -18.2365 C   0  0  0  0  0  0  0  0  0  0  0  0
   -0.8830   19.0558  -18.6350 C   0  0  0  0  0  0  0  0  0  0  0  0
   -1.1802   17.7088  -18.5272 C   0  0  0  0  0  0  0  0  0  0  0  0
   -2.3992   17.2811  -18.0037 C   0  0  0  0  0  0  0  0  0  0  0  0
   -2.6963   15.9294  -17.8964 O   0  0  0  0  0  0  0  0  0  0  0  0
   -3.2798   18.2609  -17.6047 C   0  0  0  0  0  0  0  0  0  0  0  0
   -2.9734   19.6095  -17.7162 C   0  0  0  0  0  0  0  0  0  0  0  0
   -2.4805   15.3609  -17.0771 H   0  0  0  0  0  0  0  0  0  0  0  0
 17 18  1  0  0  0
 18 13  1  0  0  0
 13 14  1  0  0  0
 14 15  2  0  0  0
 14 12  1  0  0  0
 12 23  1  0  0  0
 23 24  1  0  0  0
 24 25  2  0  0  0
 25 26  1  0  0  0
 26 27  2  0  0  0
 27 28  1  0  0  0
 27 29  1  0  0  0
 29 30  2  0  0  0
 12  8  1  0  0  0
  8  9  1  0  0  0
  9 10  2  0  0  0
  9  1  1  0  0  0
  1  2  1  0  0  0
  2  3  1  0  0  0
  3  4  1  0  0  0
  4  5  1  0  0  0
  5  6  1  0  0  0
  6  7  2  0  0  0
  6 32  1  0  0  0
 32 44  1  0  0  0
 44 45  1  0  0  0
 45 46  2  0  0  0
 46 47  1  0  0  0
 47 48  2  0  0  0
 48 49  1  0  0  0
 48 50  1  0  0  0
 50 51  2  0  0  0
 32 33  1  0  0  0
 33 34  1  0  0  0
 34 35  2  0  0  0
 34 37  1  0  0  0
 37 38  2  0  0  0
 38 39  1  0  0  0
 39 40  2  0  0  0
 40 41  1  0  0  0
 40 42  1  0  0  0
 42 43  2  0  0  0
 18 19  1  0  0  0
 19 20  1  0  0  0
 19 21  1  0  0  0
 19 22  1  0  0  0
 30 24  1  0  0  0
  5  1  1  0  0  0
 51 45  1  0  0  0
 43 37  1  0  0  0
 13 16  1  0  0  0
 28 31  1  0  0  0
  8 11  1  0  0  0
 49 52  1  0  0  0
 33 36  1  0  0  0
M  END
> <minimizedAffinity>
-8.93125

> <CNNscore>
0.1350551546

> <CNNaffinity>
6.9429793358

> <CNN_VS>
0.9376851320

> <CNNaffinity_variance>
0.0941367000

$$$$
[H]c1nc(N([H])[H])nc(-c2c([H])n([H])c3c(Br)c([H])c([H])c([H])c23)c1I


 21 23  0  0  0  0  0  0  0  0999 V2000
   -3.0378   23.3855  -24.7627 C   0  0  0  0  0  0  0  0  0  0  0  0
   -3.3135   24.6491  -24.3022 C   0  0  0  0  0  0  0  0  0  0  0  0
   -4.5406   24.6618  -23.7161 N   0  0  0  0  0  0  0  0  0  0  0  0
   -5.0737   23.4311  -23.7809 C   0  0  0  0  0  0  0  0  0  0  0  0
   -6.2606   22.8904  -23.3511 C   0  0  0  0  0  0  0  0  0  0  0  0
   -7.5935   23.9307  -22.4601 Br  0  0  0  0  0  0  0  0  0  0  0  0
   -6.4570   21.5483  -23.5995 C   0  0  0  0  0  0  0  0  0  0  0  0
   -5.5537   20.7316  -24.2397 C   0  0  0  0  0  0  0  0  0  0  0  0
   -4.3654   21.2769  -24.6694 C   0  0  0  0  0  0  0  0  0  0  0  0
   -4.1416   22.6123  -24.4366 C   0  0  0  0  0  0  0  0  0  0  0  0
   -5.0327   25.4807  -23.2699 H   0  0  0  0  0  0  0  0  0  0  0  0
   -0.7376   23.1676  -28.9638 N   0  0  0  0  0  0  0  0  0  0  0  0
   -0.7172   22.8194  -27.5739 C   0  0  0  0  0  0  0  0  0  0  0  0
    0.3080   22.1424  -26.9977 N   0  0  0  0  0  0  0  0  0  0  0  0
    0.2515   21.8676  -25.6848 C   0  0  0  0  0  0  0  0  0  0  0  0
   -0.8220   22.2526  -24.8945 C   0  0  0  0  0  0  0  0  0  0  0  0
   -0.9041   21.8226  -22.8392 I   0  0  0  0  0  0  0  0  0  0  0  0
   -1.8453   22.9292  -25.4753 C   0  0  0  0  0  0  0  0  0  0  0  0
   -1.7335   23.1804  -26.8110 N   0  0  0  0  0  0  0  0  0  0  0  0
   -0.2554   24.0283  -29.2642 H   0  0  0  0  0  0  0  0  0  0  0  0
   -1.2360   22.5504  -29.6433 H   0  0  0  0  0  0  0  0  0  0  0  0
 12 13  1  0  0  0
 13 14  2  0  0  0
 14 15  1  0  0  0
 15 16  2  0  0  0
 16 17  1  0  0  0
 16 18  1  0  0  0
 18 19  2  0  0  0
 18  1  1  0  0  0
  1  2  2  0  0  0
  2  3  1  0  0  0
  3  4  1  0  0  0
  4  5  2  0  0  0
  5  6  1  0  0  0
  5  7  1  0  0  0
  7  8  2  0  0  0
  8  9  1  0  0  0
  9 10  2  0  0  0
 19 13  1  0  0  0
 10  1  1  0  0  0
 10  4  1  0  0  0
 12 20  1  0  0  0
 12 21  1  0  0  0
  3 11  1  0  0  0
M  END
> <minimizedAffinity>
-5.89543

> <CNNscore>
0.7088412046

> <CNNaffinity>
6.4479408264

> <CNN_VS>
4.5705661774

> <CNNaffinity_variance>
0.3110015988

$$$$
[H]c1nc(N([H])[H])nc(-c2c([H])n([H])c3c(Br)c([H])c([H])c([H])c23)c1I


 21 23  0  0  0  0  0  0  0  0999 V2000
   -4.1159   23.3515  -25.8036 C   0  0  0  0  0  0  0  0  0  0  0  0
   -4.8995   22.3982  -25.2020 C   0  0  0  0  0  0  0  0  0  0  0  0
   -5.9215   23.0020  -24.5385 N   0  0  0  0  0  0  0  0  0  0  0  0
   -5.8250   24.3321  -24.6955 C   0  0  0  0  0  0  0  0  0  0  0  0
   -6.5770   25.3936  -24.2555 C   0  0  0  0  0  0  0  0  0  0  0  0
   -8.1263   25.1635  -23.1602 Br  0  0  0  0  0  0  0  0  0  0  0  0
   -6.1575   26.6510  -24.6356 C   0  0  0  0  0  0  0  0  0  0  0  0
   -5.0521   26.9038  -25.4147 C   0  0  0  0  0  0  0  0  0  0  0  0
   -4.3006   25.8376  -25.8536 C   0  0  0  0  0  0  0  0  0  0  0  0
   -4.6937   24.5723  -25.4901 C   0  0  0  0  0  0  0  0  0  0  0  0
   -6.6879   22.5414  -23.9797 H   0  0  0  0  0  0  0  0  0  0  0  0
    0.6132   22.5659  -25.7316 N   0  0  0  0  0  0  0  0  0  0  0  0
   -0.5494   22.7685  -26.5444 C   0  0  0  0  0  0  0  0  0  0  0  0
   -0.5112   22.7660  -27.9008 N   0  0  0  0  0  0  0  0  0  0  0  0
   -1.6510   22.9516  -28.5854 C   0  0  0  0  0  0  0  0  0  0  0  0
   -2.8702   23.1469  -27.9523 C   0  0  0  0  0  0  0  0  0  0  0  0
   -4.6519   23.4340  -29.0287 I   0  0  0  0  0  0  0  0  0  0  0  0
   -2.9034   23.1491  -26.5954 C   0  0  0  0  0  0  0  0  0  0  0  0
   -1.7160   22.9555  -25.9534 N   0  0  0  0  0  0  0  0  0  0  0  0
    0.9114   21.5998  -25.5287 H   0  0  0  0  0  0  0  0  0  0  0  0
    1.1345   23.3919  -25.3611 H   0  0  0  0  0  0  0  0  0  0  0  0
 12 13  1  0  0  0
 13 14  2  0  0  0
 14 15  1  0  0  0
 15 16  2  0  0  0
 16 17  1  0  0  0
 16 18  1  0  0  0
 18 19  2  0  0  0
 18  1  1  0  0  0
  1  2  2  0  0  0
  2  3  1  0  0  0
  3  4  1  0  0  0
  4  5  2  0  0  0
  5  6  1  0  0  0
  5  7  1  0  0  0
  7  8  2  0  0  0
  8  9  1  0  0  0
  9 10  2  0  0  0
 19 13  1  0  0  0
 10  1  1  0  0  0
 10  4  1  0  0  0
 12 20  1  0  0  0
 12 21  1  0  0  0
  3 11  1  0  0  0
M  END
> <minimizedAffinity>
-7.37651

> <CNNscore>
0.6829708219

> <CNNaffinity>
6.5160741806

> <CNN_VS>
4.4502887726

> <CNNaffinity_variance>
0.2867426574

$$$$
[H]c1nc(N([H])[H])nc(-c2c([H])n([H])c3c(Br)c([H])c([H])c([H])c23)c1I


 21 23  0  0  0  0  0  0  0  0999 V2000
   -3.5706   23.0479  -25.5292 C   0  0  0  0  0  0  0  0  0  0  0  0
   -4.4930   22.0787  -25.2215 C   0  0  0  0  0  0  0  0  0  0  0  0
   -5.6462   22.6652  -24.8025 N   0  0  0  0  0  0  0  0  0  0  0  0
   -5.4990   23.9996  -24.8320 C   0  0  0  0  0  0  0  0  0  0  0  0
   -6.3289   25.0499  -24.5253 C   0  0  0  0  0  0  0  0  0  0  0  0
   -8.1117   24.7903  -23.8873 Br  0  0  0  0  0  0  0  0  0  0  0  0
   -5.8125   26.3176  -24.6916 C   0  0  0  0  0  0  0  0  0  0  0  0
   -4.5402   26.5909  -25.1380 C   0  0  0  0  0  0  0  0  0  0  0  0
   -3.7111   25.5359  -25.4442 C   0  0  0  0  0  0  0  0  0  0  0  0
   -4.1978   24.2606  -25.2877 C   0  0  0  0  0  0  0  0  0  0  0  0
   -6.5360   22.1898  -24.4958 H   0  0  0  0  0  0  0  0  0  0  0  0
   -0.5356   23.3378  -29.2295 N   0  0  0  0  0  0  0  0  0  0  0  0
   -0.6998   23.0043  -27.8455 C   0  0  0  0  0  0  0  0  0  0  0  0
    0.3217   22.5708  -27.0646 N   0  0  0  0  0  0  0  0  0  0  0  0
    0.0821   22.2918  -25.7734 C   0  0  0  0  0  0  0  0  0  0  0  0
   -1.1773   22.4315  -25.2083 C   0  0  0  0  0  0  0  0  0  0  0  0
   -1.5462   21.9964  -23.1858 I   0  0  0  0  0  0  0  0  0  0  0  0
   -2.1961   22.8650  -25.9934 C   0  0  0  0  0  0  0  0  0  0  0  0
   -1.8942   23.1331  -27.2959 N   0  0  0  0  0  0  0  0  0  0  0  0
   -0.2037   24.2833  -29.4734 H   0  0  0  0  0  0  0  0  0  0  0  0
   -0.7528   22.6251  -29.9616 H   0  0  0  0  0  0  0  0  0  0  0  0
 12 13  1  0  0  0
 13 14  2  0  0  0
 14 15  1  0  0  0
 15 16  2  0  0  0
 16 17  1  0  0  0
 16 18  1  0  0  0
 18 19  2  0  0  0
 18  1  1  0  0  0
  1  2  2  0  0  0
  2  3  1  0  0  0
  3  4  1  0  0  0
  4  5  2  0  0  0
  5  6  1  0  0  0
  5  7  1  0  0  0
  7  8  2  0  0  0
  8  9  1  0  0  0
  9 10  2  0  0  0
 19 13  1  0  0  0
 10  1  1  0  0  0
 10  4  1  0  0  0
 12 20  1  0  0  0
 12 21  1  0  0  0
  3 11  1  0  0  0
M  END
> <minimizedAffinity>
-6.76800

> <CNNscore>
0.6413131952

> <CNNaffinity>
6.3834867477

> <CNN_VS>
4.0938143730

> <CNNaffinity_variance>
0.2955590487

$$$$
[H]c1nc(N([H])[H])nc(-c2c([H])n([H])c3c(Br)c([H])c([H])c([H])c23)c1I


 21 23  0  0  0  0  0  0  0  0999 V2000
   -3.9496   23.8823  -25.4770 C   0  0  0  0  0  0  0  0  0  0  0  0
   -4.3115   25.1639  -25.1432 C   0  0  0  0  0  0  0  0  0  0  0  0
   -5.3359   25.1290  -24.2495 N   0  0  0  0  0  0  0  0  0  0  0  0
   -5.6511   23.8500  -23.9889 C   0  0  0  0  0  0  0  0  0  0  0  0
   -6.5824   23.2520  -23.1760 C   0  0  0  0  0  0  0  0  0  0  0  0
   -7.8059   24.2615  -22.1096 Br  0  0  0  0  0  0  0  0  0  0  0  0
   -6.6040   21.8733  -23.1668 C   0  0  0  0  0  0  0  0  0  0  0  0
   -5.7651   21.0736  -23.9081 C   0  0  0  0  0  0  0  0  0  0  0  0
   -4.8331   21.6763  -24.7219 C   0  0  0  0  0  0  0  0  0  0  0  0
   -4.7883   23.0492  -24.7525 C   0  0  0  0  0  0  0  0  0  0  0  0
   -5.8321   25.9470  -23.8064 H   0  0  0  0  0  0  0  0  0  0  0  0
    0.5712   22.3841  -26.0289 N   0  0  0  0  0  0  0  0  0  0  0  0
   -0.6603   22.7226  -26.6787 C   0  0  0  0  0  0  0  0  0  0  0  0
   -0.8306   22.6474  -28.0228 N   0  0  0  0  0  0  0  0  0  0  0  0
   -2.0226   22.9719  -28.5481 C   0  0  0  0  0  0  0  0  0  0  0  0
   -3.0896   23.3832  -27.7621 C   0  0  0  0  0  0  0  0  0  0  0  0
   -4.9544   23.8871  -28.5892 I   0  0  0  0  0  0  0  0  0  0  0  0
   -2.9145   23.4573  -26.4183 C   0  0  0  0  0  0  0  0  0  0  0  0
   -1.6835   23.1155  -25.9412 N   0  0  0  0  0  0  0  0  0  0  0  0
    0.7541   21.3949  -25.8022 H   0  0  0  0  0  0  0  0  0  0  0  0
    1.2568   23.1375  -25.7973 H   0  0  0  0  0  0  0  0  0  0  0  0
 12 13  1  0  0  0
 13 14  2  0  0  0
 14 15  1  0  0  0
 15 16  2  0  0  0
 16 17  1  0  0  0
 16 18  1  0  0  0
 18 19  2  0  0  0
 18  1  1  0  0  0
  1  2  2  0  0  0
  2  3  1  0  0  0
  3  4  1  0  0  0
  4  5  2  0  0  0
  5  6  1  0  0  0
  5  7  1  0  0  0
  7  8  2  0  0  0
  8  9  1  0  0  0
  9 10  2  0  0  0
 19 13  1  0  0  0
 10  1  1  0  0  0
 10  4  1  0  0  0
 12 20  1  0  0  0
 12 21  1  0  0  0
  3 11  1  0  0  0
M  END
> <minimizedAffinity>
-6.71916

> <CNNscore>
0.6033006907

> <CNNaffinity>
6.4769120216

> <CNN_VS>
3.9075255394

> <CNNaffinity_variance>
0.3849134743

$$$$
[H]c1nc(N([H])[H])nc(-c2c([H])n([H])c3c(Br)c([H])c([H])c([H])c23)c1I


 21 23  0  0  0  0  0  0  0  0999 V2000
   -3.3010   22.1402  -24.7468 C   0  0  0  0  0  0  0  0  0  0  0  0
   -4.1386   21.0541  -24.6870 C   0  0  0  0  0  0  0  0  0  0  0  0
   -5.2030   21.3440  -23.8918 N   0  0  0  0  0  0  0  0  0  0  0  0
   -5.0812   22.5994  -23.4312 C   0  0  0  0  0  0  0  0  0  0  0  0
   -5.8543   23.3862  -22.6133 C   0  0  0  0  0  0  0  0  0  0  0  0
   -7.4864   22.7610  -21.8398 Br  0  0  0  0  0  0  0  0  0  0  0  0
   -5.3938   24.6617  -22.3632 C   0  0  0  0  0  0  0  0  0  0  0  0
   -4.2286   25.1859  -22.8733 C   0  0  0  0  0  0  0  0  0  0  0  0
   -3.4560   24.3945  -23.6924 C   0  0  0  0  0  0  0  0  0  0  0  0
   -3.8890   23.1181  -23.9592 C   0  0  0  0  0  0  0  0  0  0  0  0
   -6.0152   20.7169  -23.6490 H   0  0  0  0  0  0  0  0  0  0  0  0
    1.4541   21.5519  -24.5718 N   0  0  0  0  0  0  0  0  0  0  0  0
    0.3327   21.9702  -25.3599 C   0  0  0  0  0  0  0  0  0  0  0  0
    0.4532   22.4209  -26.6341 N   0  0  0  0  0  0  0  0  0  0  0  0
   -0.6521   22.7814  -27.3053 C   0  0  0  0  0  0  0  0  0  0  0  0
   -1.9170   22.7093  -26.7396 C   0  0  0  0  0  0  0  0  0  0  0  0
   -3.6443   23.2720  -27.7958 I   0  0  0  0  0  0  0  0  0  0  0  0
   -2.0326   22.2582  -25.4647 C   0  0  0  0  0  0  0  0  0  0  0  0
   -0.8767   21.9062  -24.8324 N   0  0  0  0  0  0  0  0  0  0  0  0
    1.7975   20.5851  -24.6761 H   0  0  0  0  0  0  0  0  0  0  0  0
    1.9008   22.2261  -23.9107 H   0  0  0  0  0  0  0  0  0  0  0  0
 12 13  1  0  0  0
 13 14  2  0  0  0
 14 15  1  0  0  0
 15 16  2  0  0  0
 16 17  1  0  0  0
 16 18  1  0  0  0
 18 19  2  0  0  0
 18  1  1  0  0  0
  1  2  2  0  0  0
  2  3  1  0  0  0
  3  4  1  0  0  0
  4  5  2  0  0  0
  5  6  1  0  0  0
  5  7  1  0  0  0
  7  8  2  0  0  0
  8  9  1  0  0  0
  9 10  2  0  0  0
 19 13  1  0  0  0
 10  1  1  0  0  0
 10  4  1  0  0  0
 12 20  1  0  0  0
 12 21  1  0  0  0
  3 11  1  0  0  0
M  END
> <minimizedAffinity>
-6.88539

> <CNNscore>
0.5881235600

> <CNNaffinity>
6.3243460655

> <CNN_VS>
3.7194969654

> <CNNaffinity_variance>
0.3146254122

$$$$
[H]c1nc(N([H])[H])nc(-c2c([H])n([H])c3c(Br)c([H])c([H])c([H])c23)c1I


 21 23  0  0  0  0  0  0  0  0999 V2000
   -2.8437   22.9398  -26.4598 C   0  0  0  0  0  0  0  0  0  0  0  0
   -2.9015   22.4228  -27.7303 C   0  0  0  0  0  0  0  0  0  0  0  0
   -3.6714   23.2251  -28.5132 N   0  0  0  0  0  0  0  0  0  0  0  0
   -4.1174   24.2592  -27.7818 C   0  0  0  0  0  0  0  0  0  0  0  0
   -4.9090   25.3454  -28.0634 C   0  0  0  0  0  0  0  0  0  0  0  0
   -5.6583   25.6412  -29.7966 Br  0  0  0  0  0  0  0  0  0  0  0  0
   -5.1509   26.2222  -27.0270 C   0  0  0  0  0  0  0  0  0  0  0  0
   -4.6569   26.0792  -25.7509 C   0  0  0  0  0  0  0  0  0  0  0  0
   -3.8641   24.9893  -25.4722 C   0  0  0  0  0  0  0  0  0  0  0  0
   -3.6061   24.0976  -26.4851 C   0  0  0  0  0  0  0  0  0  0  0  0
   -3.9066   23.0961  -29.5329 H   0  0  0  0  0  0  0  0  0  0  0  0
    1.3845   22.1278  -24.3502 N   0  0  0  0  0  0  0  0  0  0  0  0
   -0.0385   21.9827  -24.2636 C   0  0  0  0  0  0  0  0  0  0  0  0
   -0.6578   21.3983  -23.2071 N   0  0  0  0  0  0  0  0  0  0  0  0
   -1.9977   21.3146  -23.2015 C   0  0  0  0  0  0  0  0  0  0  0  0
   -2.7734   21.8060  -24.2417 C   0  0  0  0  0  0  0  0  0  0  0  0
   -4.8706   21.6751  -24.2266 I   0  0  0  0  0  0  0  0  0  0  0  0
   -2.1495   22.3893  -25.2965 C   0  0  0  0  0  0  0  0  0  0  0  0
   -0.7879   22.4465  -25.2477 N   0  0  0  0  0  0  0  0  0  0  0  0
    1.8270   22.9378  -23.8902 H   0  0  0  0  0  0  0  0  0  0  0  0
    1.9449   21.4180  -24.8731 H   0  0  0  0  0  0  0  0  0  0  0  0
 12 13  1  0  0  0
 13 14  2  0  0  0
 14 15  1  0  0  0
 15 16  2  0  0  0
 16 17  1  0  0  0
 16 18  1  0  0  0
 18 19  2  0  0  0
 18  1  1  0  0  0
  1  2  2  0  0  0
  2  3  1  0  0  0
  3  4  1  0  0  0
  4  5  2  0  0  0
  5  6  1  0  0  0
  5  7  1  0  0  0
  7  8  2  0  0  0
  8  9  1  0  0  0
  9 10  2  0  0  0
 19 13  1  0  0  0
 10  1  1  0  0  0
 10  4  1  0  0  0
 12 20  1  0  0  0
 12 21  1  0  0  0
  3 11  1  0  0  0
M  END
> <minimizedAffinity>
-7.24679

> <CNNscore>
0.3835722506

> <CNNaffinity>
6.2362756729

> <CNN_VS>
2.3920621872

> <CNNaffinity_variance>
0.3187285662

$$$$
[H]c1nc(N([H])[H])nc(-c2c([H])n([H])c3c(Br)c([H])c([H])c([H])c23)c1I


 21 23  0  0  0  0  0  0  0  0999 V2000
   -0.1526   21.7290  -23.5469 C   0  0  0  0  0  0  0  0  0  0  0  0
    1.0423   22.1884  -24.0428 C   0  0  0  0  0  0  0  0  0  0  0  0
    0.8864   22.5473  -25.3452 N   0  0  0  0  0  0  0  0  0  0  0  0
   -0.3877   22.3346  -25.7122 C   0  0  0  0  0  0  0  0  0  0  0  0
   -1.0785   22.5226  -26.8841 C   0  0  0  0  0  0  0  0  0  0  0  0
   -0.2457   23.2076  -28.4621 Br  0  0  0  0  0  0  0  0  0  0  0  0
   -2.4153   22.1844  -26.8773 C   0  0  0  0  0  0  0  0  0  0  0  0
   -3.0882   21.6795  -25.7887 C   0  0  0  0  0  0  0  0  0  0  0  0
   -2.3927   21.4921  -24.6160 C   0  0  0  0  0  0  0  0  0  0  0  0
   -1.0586   21.8195  -24.5926 C   0  0  0  0  0  0  0  0  0  0  0  0
    1.6177   22.9345  -25.9986 H   0  0  0  0  0  0  0  0  0  0  0  0
    0.6791   18.2650  -20.3381 N   0  0  0  0  0  0  0  0  0  0  0  0
   -0.0174   19.4847  -20.6223 C   0  0  0  0  0  0  0  0  0  0  0  0
   -0.8406   20.0898  -19.7293 N   0  0  0  0  0  0  0  0  0  0  0  0
   -1.4447   21.2382  -20.0737 C   0  0  0  0  0  0  0  0  0  0  0  0
   -1.2563   21.8293  -21.3148 C   0  0  0  0  0  0  0  0  0  0  0  0
   -2.2020   23.6285  -21.8478 I   0  0  0  0  0  0  0  0  0  0  0  0
   -0.4323   21.2202  -22.2049 C   0  0  0  0  0  0  0  0  0  0  0  0
    0.1538   20.0572  -21.8005 N   0  0  0  0  0  0  0  0  0  0  0  0
    1.5784   18.3156  -19.8360 H   0  0  0  0  0  0  0  0  0  0  0  0
    0.2688   17.3535  -20.6414 H   0  0  0  0  0  0  0  0  0  0  0  0
 12 13  1  0  0  0
 13 14  2  0  0  0
 14 15  1  0  0  0
 15 16  2  0  0  0
 16 17  1  0  0  0
 16 18  1  0  0  0
 18 19  2  0  0  0
 18  1  1  0  0  0
  1  2  2  0  0  0
  2  3  1  0  0  0
  3  4  1  0  0  0
  4  5  2  0  0  0
  5  6  1  0  0  0
  5  7  1  0  0  0
  7  8  2  0  0  0
  8  9  1  0  0  0
  9 10  2  0  0  0
 19 13  1  0  0  0
 10  1  1  0  0  0
 10  4  1  0  0  0
 12 20  1  0  0  0
 12 21  1  0  0  0
  3 11  1  0  0  0
M  END
> <minimizedAffinity>
-6.01825

> <CNNscore>
0.3548263013

> <CNNaffinity>
5.6127781868

> <CNN_VS>
1.9915612936

> <CNNaffinity_variance>
0.0495559908

$$$$
[H]c1nc(N([H])[H])nc(-c2c([H])n([H])c3c(Br)c([H])c([H])c([H])c23)c1I


 21 23  0  0  0  0  0  0  0  0999 V2000
   -3.0209   22.9016  -26.5730 C   0  0  0  0  0  0  0  0  0  0  0  0
   -2.9702   22.3630  -27.8347 C   0  0  0  0  0  0  0  0  0  0  0  0
   -3.6583   23.1584  -28.6968 N   0  0  0  0  0  0  0  0  0  0  0  0
   -4.1569   24.2092  -28.0258 C   0  0  0  0  0  0  0  0  0  0  0  0
   -4.9086   25.2974  -28.3954 C   0  0  0  0  0  0  0  0  0  0  0  0
   -5.4964   25.5695  -30.1935 Br  0  0  0  0  0  0  0  0  0  0  0  0
   -5.2330   26.1944  -27.3996 C   0  0  0  0  0  0  0  0  0  0  0  0
   -4.8570   26.0694  -26.0821 C   0  0  0  0  0  0  0  0  0  0  0  0
   -4.1040   24.9774  -25.7152 C   0  0  0  0  0  0  0  0  0  0  0  0
   -3.7657   24.0657  -26.6858 C   0  0  0  0  0  0  0  0  0  0  0  0
   -3.8024   23.0137  -29.7313 H   0  0  0  0  0  0  0  0  0  0  0  0
   -3.8546   21.3102  -22.1278 N   0  0  0  0  0  0  0  0  0  0  0  0
   -2.8682   21.5859  -23.1300 C   0  0  0  0  0  0  0  0  0  0  0  0
   -1.5429   21.3636  -22.9419 N   0  0  0  0  0  0  0  0  0  0  0  0
   -0.6877   21.6388  -23.9396 C   0  0  0  0  0  0  0  0  0  0  0  0
   -1.1132   22.1444  -25.1597 C   0  0  0  0  0  0  0  0  0  0  0  0
    0.2293   22.5705  -26.7190 I   0  0  0  0  0  0  0  0  0  0  0  0
   -2.4397   22.3654  -25.3430 C   0  0  0  0  0  0  0  0  0  0  0  0
   -3.2608   22.0674  -24.2958 N   0  0  0  0  0  0  0  0  0  0  0  0
   -4.2239   20.3506  -22.0494 H   0  0  0  0  0  0  0  0  0  0  0  0
   -4.1807   22.0783  -21.4994 H   0  0  0  0  0  0  0  0  0  0  0  0
 12 13  1  0  0  0
 13 14  2  0  0  0
 14 15  1  0  0  0
 15 16  2  0  0  0
 16 17  1  0  0  0
 16 18  1  0  0  0
 18 19  2  0  0  0
 18  1  1  0  0  0
  1  2  2  0  0  0
  2  3  1  0  0  0
  3  4  1  0  0  0
  4  5  2  0  0  0
  5  6  1  0  0  0
  5  7  1  0  0  0
  7  8  2  0  0  0
  8  9  1  0  0  0
  9 10  2  0  0  0
 19 13  1  0  0  0
 10  1  1  0  0  0
 10  4  1  0  0  0
 12 20  1  0  0  0
 12 21  1  0  0  0
  3 11  1  0  0  0
M  END
> <minimizedAffinity>
-7.57049

> <CNNscore>
0.2951200306

> <CNNaffinity>
5.9277486801

> <CNN_VS>
1.7493973970

> <CNNaffinity_variance>
0.1823550314

$$$$
[H]c1nc(N([H])[H])nc(-c2c([H])n([H])c3c(Br)c([H])c([H])c([H])c23)c1I


 21 23  0  0  0  0  0  0  0  0999 V2000
   -3.2307   23.2018  -25.1312 C   0  0  0  0  0  0  0  0  0  0  0  0
   -3.0023   23.1401  -23.7788 C   0  0  0  0  0  0  0  0  0  0  0  0
   -1.7381   22.6935  -23.5511 N   0  0  0  0  0  0  0  0  0  0  0  0
   -1.1324   22.4636  -24.7274 C   0  0  0  0  0  0  0  0  0  0  0  0
    0.1194   22.0197  -25.0760 C   0  0  0  0  0  0  0  0  0  0  0  0
    1.4385   21.5566  -23.7727 Br  0  0  0  0  0  0  0  0  0  0  0  0
    0.3866   21.9128  -26.4246 C   0  0  0  0  0  0  0  0  0  0  0  0
   -0.5072   22.2182  -27.4249 C   0  0  0  0  0  0  0  0  0  0  0  0
   -1.7610   22.6625  -27.0719 C   0  0  0  0  0  0  0  0  0  0  0  0
   -2.0567   22.7785  -25.7352 C   0  0  0  0  0  0  0  0  0  0  0  0
   -1.2677   22.5384  -22.6203 H   0  0  0  0  0  0  0  0  0  0  0  0
   -5.1810   25.9591  -28.5342 N   0  0  0  0  0  0  0  0  0  0  0  0
   -5.4156   24.9880  -27.5069 C   0  0  0  0  0  0  0  0  0  0  0  0
   -6.6493   24.5020  -27.2186 N   0  0  0  0  0  0  0  0  0  0  0  0
   -6.7777   23.5840  -26.2475 C   0  0  0  0  0  0  0  0  0  0  0  0
   -5.6898   23.1139  -25.5260 C   0  0  0  0  0  0  0  0  0  0  0  0
   -5.8960   21.6746  -24.0089 I   0  0  0  0  0  0  0  0  0  0  0  0
   -4.4578   23.6032  -25.8177 C   0  0  0  0  0  0  0  0  0  0  0  0
   -4.3878   24.5326  -26.8131 N   0  0  0  0  0  0  0  0  0  0  0  0
   -5.0674   25.6323  -29.5057 H   0  0  0  0  0  0  0  0  0  0  0  0
   -5.1289   26.9721  -28.2848 H   0  0  0  0  0  0  0  0  0  0  0  0
 12 13  1  0  0  0
 13 14  2  0  0  0
 14 15  1  0  0  0
 15 16  2  0  0  0
 16 17  1  0  0  0
 16 18  1  0  0  0
 18 19  2  0  0  0
 18  1  1  0  0  0
  1  2  2  0  0  0
  2  3  1  0  0  0
  3  4  1  0  0  0
  4  5  2  0  0  0
  5  6  1  0  0  0
  5  7  1  0  0  0
  7  8  2  0  0  0
  8  9  1  0  0  0
  9 10  2  0  0  0
 19 13  1  0  0  0
 10  1  1  0  0  0
 10  4  1  0  0  0
 12 20  1  0  0  0
 12 21  1  0  0  0
  3 11  1  0  0  0
M  END
> <minimizedAffinity>
-7.28162

> <CNNscore>
0.2605314553

> <CNNaffinity>
6.1549282074

> <CNN_VS>
1.6035524607

> <CNNaffinity_variance>
0.0871928111

$$$$
[H]c1nc(Oc2c([H])c([H])c([H])c([H])c2[H])c(C([H])([H])N([H])c2nnc(-c3c([H])nc(OC4([H])C([H])([H])C([H])([H])N([H])C([H])([H])C4([H])[H])c([H])c3[H])s2)c([H])c1[H]


 35 39  0  0  0  0  0  0  0  0999 V2000
   -1.3139   21.9840  -25.1280 C   0  0  0  0  0  0  0  0  0  0  0  0
   -2.6375   21.9115  -25.2346 N   0  0  0  0  0  0  0  0  0  0  0  0
   -3.2113   22.2456  -26.3040 N   0  0  0  0  0  0  0  0  0  0  0  0
   -2.4914   22.6738  -27.3344 C   0  0  0  0  0  0  0  0  0  0  0  0
   -0.9093   22.5785  -26.6977 S   0  0  0  0  0  0  0  0  0  0  0  0
    1.2839   21.0625  -21.9812 C   0  0  0  0  0  0  0  0  0  0  0  0
   -0.0695   21.0264  -21.7891 C   0  0  0  0  0  0  0  0  0  0  0  0
   -0.9691   21.3274  -22.8140 C   0  0  0  0  0  0  0  0  0  0  0  0
   -0.4423   21.6573  -24.0099 C   0  0  0  0  0  0  0  0  0  0  0  0
    0.9161   21.6916  -24.1961 C   0  0  0  0  0  0  0  0  0  0  0  0
    1.7813   21.4035  -23.2150 N   0  0  0  0  0  0  0  0  0  0  0  0
    2.2342   20.7847  -21.0405 O   0  0  0  0  0  0  0  0  0  0  0  0
    5.4038   21.7309  -19.4786 C   0  0  0  0  0  0  0  0  0  0  0  0
    3.9593   21.8121  -19.8390 C   0  0  0  0  0  0  0  0  0  0  0  0
    3.6127   21.0319  -21.0885 C   0  0  0  0  0  0  0  0  0  0  0  0
    4.2970   19.6825  -21.1150 C   0  0  0  0  0  0  0  0  0  0  0  0
    5.6847   19.6917  -20.5709 C   0  0  0  0  0  0  0  0  0  0  0  0
    5.7110   20.3129  -19.2589 N   0  0  0  0  0  0  0  0  0  0  0  0
    4.8816   19.9350  -18.7339 H   0  0  0  0  0  0  0  0  0  0  0  0
   -2.9512   23.0978  -28.6300 N   0  0  0  0  0  0  0  0  0  0  0  0
   -2.2697   23.4261  -29.3137 H   0  0  0  0  0  0  0  0  0  0  0  0
   -4.3565   23.0277  -28.8729 C   0  0  0  0  0  0  0  0  0  0  0  0
   -4.9434   24.1040  -29.6698 C   0  0  0  0  0  0  0  0  0  0  0  0
   -5.4572   23.9083  -30.9163 C   0  0  0  0  0  0  0  0  0  0  0  0
   -5.9918   25.0067  -31.5869 C   0  0  0  0  0  0  0  0  0  0  0  0
   -6.0001   26.2382  -31.0134 C   0  0  0  0  0  0  0  0  0  0  0  0
   -5.4833   26.3837  -29.7842 N   0  0  0  0  0  0  0  0  0  0  0  0
   -4.9534   25.3790  -29.0788 C   0  0  0  0  0  0  0  0  0  0  0  0
   -4.4341   25.5647  -27.8248 O   0  0  0  0  0  0  0  0  0  0  0  0
   -5.1997   25.7848  -26.6917 C   0  0  0  0  0  0  0  0  0  0  0  0
   -4.9389   26.7948  -25.7968 C   0  0  0  0  0  0  0  0  0  0  0  0
   -5.7314   26.9727  -24.6830 C   0  0  0  0  0  0  0  0  0  0  0  0
   -6.7940   26.1289  -24.4671 C   0  0  0  0  0  0  0  0  0  0  0  0
   -7.0813   25.1069  -25.3458 C   0  0  0  0  0  0  0  0  0  0  0  0
   -6.2696   24.9555  -26.4504 C   0  0  0  0  0  0  0  0  0  0  0  0
 13 14  1  0  0  0
 14 15  1  0  0  0
 15 16  1  0  0  0
 16 17  1  0  0  0
 17 18  1  0  0  0
 15 12  1  0  0  0
 12  6  1  0  0  0
  6  7  2  0  0  0
  7  8  1  0  0  0
  8  9  2  0  0  0
  9 10  1  0  0  0
 10 11  2  0  0  0
  9  1  1  0  0  0
  1  2  2  0  0  0
  2  3  1  0  0  0
  3  4  2  0  0  0
  4 20  1  0  0  0
 20 22  1  0  0  0
 22 23  1  0  0  0
 23 24  2  0  0  0
 24 25  1  0  0  0
 25 26  2  0  0  0
 26 27  1  0  0  0
 27 28  2  0  0  0
 28 29  1  0  0  0
 29 30  1  0  0  0
 30 31  2  0  0  0
 31 32  1  0  0  0
 32 33  2  0  0  0
 33 34  1  0  0  0
 34 35  2  0  0  0
  4  5  1  0  0  0
 18 13  1  0  0  0
 11  6  1  0  0  0
  5  1  1  0  0  0
 28 23  1  0  0  0
 35 30  1  0  0  0
 18 19  1  0  0  0
 20 21  1  0  0  0
M  END
> <minimizedAffinity>
-8.56153

> <CNNscore>
0.8068303466

> <CNNaffinity>
7.2645707130

> <CNN_VS>
5.8612761497

> <CNNaffinity_variance>
0.2332797796

$$$$
[H]c1nc(Oc2c([H])c([H])c([H])c([H])c2[H])c(C([H])([H])N([H])c2nnc(-c3c([H])nc(OC4([H])C([H])([H])C([H])([H])N([H])C([H])([H])C4([H])[H])c([H])c3[H])s2)c([H])c1[H]


 35 39  0  0  0  0  0  0  0  0999 V2000
   -0.2257   22.0286  -25.2800 C   0  0  0  0  0  0  0  0  0  0  0  0
    0.5418   22.3259  -26.3245 N   0  0  0  0  0  0  0  0  0  0  0  0
    0.0260   22.6989  -27.4105 N   0  0  0  0  0  0  0  0  0  0  0  0
   -1.2941   22.7968  -27.5159 C   0  0  0  0  0  0  0  0  0  0  0  0
   -1.7892   22.3199  -25.9522 S   0  0  0  0  0  0  0  0  0  0  0  0
    0.9314   20.7460  -21.4700 C   0  0  0  0  0  0  0  0  0  0  0  0
   -0.3895   20.9598  -21.7523 C   0  0  0  0  0  0  0  0  0  0  0  0
   -0.8155   21.3880  -23.0114 C   0  0  0  0  0  0  0  0  0  0  0  0
    0.1380   21.5829  -23.9437 C   0  0  0  0  0  0  0  0  0  0  0  0
    1.4611   21.3666  -23.6543 C   0  0  0  0  0  0  0  0  0  0  0  0
    1.8728   20.9561  -22.4475 N   0  0  0  0  0  0  0  0  0  0  0  0
    1.4372   20.3291  -20.2718 O   0  0  0  0  0  0  0  0  0  0  0  0
    1.2504   16.6970  -20.6643 C   0  0  0  0  0  0  0  0  0  0  0  0
    0.7804   18.1115  -20.6265 C   0  0  0  0  0  0  0  0  0  0  0  0
    1.6960   19.0221  -19.8376 C   0  0  0  0  0  0  0  0  0  0  0  0
    3.1539   18.7450  -20.1336 C   0  0  0  0  0  0  0  0  0  0  0  0
    3.4746   17.3012  -20.3197 C   0  0  0  0  0  0  0  0  0  0  0  0
    2.5770   16.7034  -21.2919 N   0  0  0  0  0  0  0  0  0  0  0  0
    2.4973   17.3898  -22.0850 H   0  0  0  0  0  0  0  0  0  0  0  0
   -2.0712   23.2007  -28.6573 N   0  0  0  0  0  0  0  0  0  0  0  0
   -1.6065   23.6818  -29.4268 H   0  0  0  0  0  0  0  0  0  0  0  0
   -3.4653   22.8937  -28.6325 C   0  0  0  0  0  0  0  0  0  0  0  0
   -4.3794   23.9355  -29.0982 C   0  0  0  0  0  0  0  0  0  0  0  0
   -4.9552   23.9191  -30.3328 C   0  0  0  0  0  0  0  0  0  0  0  0
   -5.8113   24.9649  -30.6730 C   0  0  0  0  0  0  0  0  0  0  0  0
   -6.0642   25.9724  -29.7975 C   0  0  0  0  0  0  0  0  0  0  0  0
   -5.4748   25.9470  -28.5928 N   0  0  0  0  0  0  0  0  0  0  0  0
   -4.6428   24.9790  -28.1946 C   0  0  0  0  0  0  0  0  0  0  0  0
   -4.0585   24.9857  -26.9556 O   0  0  0  0  0  0  0  0  0  0  0  0
   -4.7386   24.7385  -25.7745 C   0  0  0  0  0  0  0  0  0  0  0  0
   -4.5309   25.4634  -24.6254 C   0  0  0  0  0  0  0  0  0  0  0  0
   -5.2338   25.1780  -23.4744 C   0  0  0  0  0  0  0  0  0  0  0  0
   -6.1523   24.1563  -23.4786 C   0  0  0  0  0  0  0  0  0  0  0  0
   -6.3832   23.4112  -24.6148 C   0  0  0  0  0  0  0  0  0  0  0  0
   -5.6639   23.7217  -25.7497 C   0  0  0  0  0  0  0  0  0  0  0  0
 13 14  1  0  0  0
 14 15  1  0  0  0
 15 16  1  0  0  0
 16 17  1  0  0  0
 17 18  1  0  0  0
 15 12  1  0  0  0
 12  6  1  0  0  0
  6  7  2  0  0  0
  7  8  1  0  0  0
  8  9  2  0  0  0
  9 10  1  0  0  0
 10 11  2  0  0  0
  9  1  1  0  0  0
  1  2  2  0  0  0
  2  3  1  0  0  0
  3  4  2  0  0  0
  4 20  1  0  0  0
 20 22  1  0  0  0
 22 23  1  0  0  0
 23 24  2  0  0  0
 24 25  1  0  0  0
 25 26  2  0  0  0
 26 27  1  0  0  0
 27 28  2  0  0  0
 28 29  1  0  0  0
 29 30  1  0  0  0
 30 31  2  0  0  0
 31 32  1  0  0  0
 32 33  2  0  0  0
 33 34  1  0  0  0
 34 35  2  0  0  0
  4  5  1  0  0  0
 18 13  1  0  0  0
 11  6  1  0  0  0
  5  1  1  0  0  0
 28 23  1  0  0  0
 35 30  1  0  0  0
 18 19  1  0  0  0
 20 21  1  0  0  0
M  END
> <minimizedAffinity>
-8.05242

> <CNNscore>
0.7167406678

> <CNNaffinity>
7.2860655785

> <CNN_VS>
5.2222194672

> <CNNaffinity_variance>
0.2055892050

$$$$
[H]c1nc(Oc2c([H])c([H])c([H])c([H])c2[H])c(C([H])([H])N([H])c2nnc(-c3c([H])nc(OC4([H])C([H])([H])C([H])([H])N([H])C([H])([H])C4([H])[H])c([H])c3[H])s2)c([H])c1[H]


 35 39  0  0  0  0  0  0  0  0999 V2000
   -1.5162   22.4867  -24.9420 C   0  0  0  0  0  0  0  0  0  0  0  0
   -0.6640   22.2769  -25.9412 N   0  0  0  0  0  0  0  0  0  0  0  0
   -1.0368   22.4072  -27.1365 N   0  0  0  0  0  0  0  0  0  0  0  0
   -2.2897   22.7567  -27.4037 C   0  0  0  0  0  0  0  0  0  0  0  0
   -2.9389   22.8974  -25.8300 S   0  0  0  0  0  0  0  0  0  0  0  0
   -0.9770   22.3428  -20.7961 C   0  0  0  0  0  0  0  0  0  0  0  0
   -0.7235   21.2384  -21.5616 C   0  0  0  0  0  0  0  0  0  0  0  0
   -0.8914   21.2465  -22.9480 C   0  0  0  0  0  0  0  0  0  0  0  0
   -1.3172   22.3982  -23.5036 C   0  0  0  0  0  0  0  0  0  0  0  0
   -1.5697   23.5024  -22.7303 C   0  0  0  0  0  0  0  0  0  0  0  0
   -1.4096   23.4976  -21.4003 N   0  0  0  0  0  0  0  0  0  0  0  0
   -0.8412   22.4256  -19.4397 O   0  0  0  0  0  0  0  0  0  0  0  0
    2.1809   21.8645  -17.4564 C   0  0  0  0  0  0  0  0  0  0  0  0
    1.3482   22.2340  -18.6368 C   0  0  0  0  0  0  0  0  0  0  0  0
   -0.0453   21.6458  -18.5899 C   0  0  0  0  0  0  0  0  0  0  0  0
   -0.6518   21.7498  -17.2074 C   0  0  0  0  0  0  0  0  0  0  0  0
    0.3180   21.5264  -16.0977 C   0  0  0  0  0  0  0  0  0  0  0  0
    1.4864   22.3716  -16.2672 N   0  0  0  0  0  0  0  0  0  0  0  0
    1.1293   23.3205  -16.5471 H   0  0  0  0  0  0  0  0  0  0  0  0
   -2.9064   22.9565  -28.6880 N   0  0  0  0  0  0  0  0  0  0  0  0
   -2.3144   23.0282  -29.5151 H   0  0  0  0  0  0  0  0  0  0  0  0
   -4.3313   23.0419  -28.7155 C   0  0  0  0  0  0  0  0  0  0  0  0
   -4.9149   24.0667  -29.5797 C   0  0  0  0  0  0  0  0  0  0  0  0
   -5.4536   23.7890  -30.7999 C   0  0  0  0  0  0  0  0  0  0  0  0
   -5.9824   24.8443  -31.5407 C   0  0  0  0  0  0  0  0  0  0  0  0
   -5.9610   26.1145  -31.0593 C   0  0  0  0  0  0  0  0  0  0  0  0
   -5.4204   26.3408  -29.8528 N   0  0  0  0  0  0  0  0  0  0  0  0
   -4.8942   25.3816  -29.0842 C   0  0  0  0  0  0  0  0  0  0  0  0
   -4.3501   25.6498  -27.8559 O   0  0  0  0  0  0  0  0  0  0  0  0
   -5.0932   25.8592  -26.7059 C   0  0  0  0  0  0  0  0  0  0  0  0
   -4.7143   26.7382  -25.7196 C   0  0  0  0  0  0  0  0  0  0  0  0
   -5.4893   26.9112  -24.5928 C   0  0  0  0  0  0  0  0  0  0  0  0
   -6.6539   26.1952  -24.4565 C   0  0  0  0  0  0  0  0  0  0  0  0
   -7.0609   25.3063  -25.4278 C   0  0  0  0  0  0  0  0  0  0  0  0
   -6.2635   25.1561  -26.5429 C   0  0  0  0  0  0  0  0  0  0  0  0
 13 14  1  0  0  0
 14 15  1  0  0  0
 15 16  1  0  0  0
 16 17  1  0  0  0
 17 18  1  0  0  0
 15 12  1  0  0  0
 12  6  1  0  0  0
  6  7  2  0  0  0
  7  8  1  0  0  0
  8  9  2  0  0  0
  9 10  1  0  0  0
 10 11  2  0  0  0
  9  1  1  0  0  0
  1  2  2  0  0  0
  2  3  1  0  0  0
  3  4  2  0  0  0
  4 20  1  0  0  0
 20 22  1  0  0  0
 22 23  1  0  0  0
 23 24  2  0  0  0
 24 25  1  0  0  0
 25 26  2  0  0  0
 26 27  1  0  0  0
 27 28  2  0  0  0
 28 29  1  0  0  0
 29 30  1  0  0  0
 30 31  2  0  0  0
 31 32  1  0  0  0
 32 33  2  0  0  0
 33 34  1  0  0  0
 34 35  2  0  0  0
  4  5  1  0  0  0
 18 13  1  0  0  0
 11  6  1  0  0  0
  5  1  1  0  0  0
 28 23  1  0  0  0
 35 30  1  0  0  0
 18 19  1  0  0  0
 20 21  1  0  0  0
M  END
> <minimizedAffinity>
-8.50478

> <CNNscore>
0.6597331166

> <CNNaffinity>
7.1446161270

> <CNN_VS>
4.7135400772

> <CNNaffinity_variance>
0.1829455197

$$$$
[H]c1nc(Oc2c([H])c([H])c([H])c([H])c2[H])c(C([H])([H])N([H])c2nnc(-c3c([H])nc(OC4([H])C([H])([H])C([H])([H])N([H])C([H])([H])C4([H])[H])c([H])c3[H])s2)c([H])c1[H]


 35 39  0  0  0  0  0  0  0  0999 V2000
   -0.5876   22.0764  -24.7017 C   0  0  0  0  0  0  0  0  0  0  0  0
   -0.4928   22.2480  -26.0171 N   0  0  0  0  0  0  0  0  0  0  0  0
   -1.4768   22.6708  -26.6786 N   0  0  0  0  0  0  0  0  0  0  0  0
   -2.6188   22.9479  -26.0602 C   0  0  0  0  0  0  0  0  0  0  0  0
   -2.2219   22.5693  -24.4426 S   0  0  0  0  0  0  0  0  0  0  0  0
    2.1688   20.7201  -21.8623 C   0  0  0  0  0  0  0  0  0  0  0  0
    2.5751   20.9958  -23.1386 C   0  0  0  0  0  0  0  0  0  0  0  0
    1.6857   21.4502  -24.1147 C   0  0  0  0  0  0  0  0  0  0  0  0
    0.3999   21.6066  -23.7423 C   0  0  0  0  0  0  0  0  0  0  0  0
   -0.0012   21.3283  -22.4605 C   0  0  0  0  0  0  0  0  0  0  0  0
    0.8495   20.8923  -21.5222 N   0  0  0  0  0  0  0  0  0  0  0  0
    2.9656   20.2734  -20.8469 O   0  0  0  0  0  0  0  0  0  0  0  0
    5.6950   17.8936  -20.3290 C   0  0  0  0  0  0  0  0  0  0  0  0
    4.9273   19.0034  -20.9633 C   0  0  0  0  0  0  0  0  0  0  0  0
    3.4535   18.9793  -20.6210 C   0  0  0  0  0  0  0  0  0  0  0  0
    3.2226   18.6758  -19.1566 C   0  0  0  0  0  0  0  0  0  0  0  0
    4.1639   17.6705  -18.5864 C   0  0  0  0  0  0  0  0  0  0  0  0
    5.5377   18.0396  -18.8773 N   0  0  0  0  0  0  0  0  0  0  0  0
    5.6119   19.0738  -18.7002 H   0  0  0  0  0  0  0  0  0  0  0  0
   -3.8466   23.4364  -26.6292 N   0  0  0  0  0  0  0  0  0  0  0  0
   -4.4957   23.9526  -26.0361 H   0  0  0  0  0  0  0  0  0  0  0  0
   -4.0746   23.1593  -28.0112 C   0  0  0  0  0  0  0  0  0  0  0  0
   -4.4710   24.2863  -28.8541 C   0  0  0  0  0  0  0  0  0  0  0  0
   -3.6807   24.7848  -29.8455 C   0  0  0  0  0  0  0  0  0  0  0  0
   -4.1587   25.8632  -30.5877 C   0  0  0  0  0  0  0  0  0  0  0  0
   -5.3787   26.4020  -30.3294 C   0  0  0  0  0  0  0  0  0  0  0  0
   -6.1224   25.8784  -29.3435 N   0  0  0  0  0  0  0  0  0  0  0  0
   -5.7327   24.8456  -28.5891 C   0  0  0  0  0  0  0  0  0  0  0  0
   -6.5194   24.3365  -27.5898 O   0  0  0  0  0  0  0  0  0  0  0  0
   -6.6832   24.9322  -26.3501 C   0  0  0  0  0  0  0  0  0  0  0  0
   -5.9138   25.9862  -25.9187 C   0  0  0  0  0  0  0  0  0  0  0  0
   -6.1163   26.5449  -24.6749 C   0  0  0  0  0  0  0  0  0  0  0  0
   -7.0996   26.0404  -23.8587 C   0  0  0  0  0  0  0  0  0  0  0  0
   -7.8876   24.9844  -24.2626 C   0  0  0  0  0  0  0  0  0  0  0  0
   -7.6600   24.4477  -25.5124 C   0  0  0  0  0  0  0  0  0  0  0  0
 13 14  1  0  0  0
 14 15  1  0  0  0
 15 16  1  0  0  0
 16 17  1  0  0  0
 17 18  1  0  0  0
 15 12  1  0  0  0
 12  6  1  0  0  0
  6  7  2  0  0  0
  7  8  1  0  0  0
  8  9  2  0  0  0
  9 10  1  0  0  0
 10 11  2  0  0  0
  9  1  1  0  0  0
  1  2  2  0  0  0
  2  3  1  0  0  0
  3  4  2  0  0  0
  4 20  1  0  0  0
 20 22  1  0  0  0
 22 23  1  0  0  0
 23 24  2  0  0  0
 24 25  1  0  0  0
 25 26  2  0  0  0
 26 27  1  0  0  0
 27 28  2  0  0  0
 28 29  1  0  0  0
 29 30  1  0  0  0
 30 31  2  0  0  0
 31 32  1  0  0  0
 32 33  2  0  0  0
 33 34  1  0  0  0
 34 35  2  0  0  0
  4  5  1  0  0  0
 18 13  1  0  0  0
 11  6  1  0  0  0
  5  1  1  0  0  0
 28 23  1  0  0  0
 35 30  1  0  0  0
 18 19  1  0  0  0
 20 21  1  0  0  0
M  END
> <minimizedAffinity>
-8.09401

> <CNNscore>
0.6062674522

> <CNNaffinity>
6.9134001732

> <CNN_VS>
4.1913695335

> <CNNaffinity_variance>
0.2143578976

$$$$
[H]c1nc(Oc2c([H])c([H])c([H])c([H])c2[H])c(C([H])([H])N([H])c2nnc(-c3c([H])nc(OC4([H])C([H])([H])C([H])([H])N([H])C([H])([H])C4([H])[H])c([H])c3[H])s2)c([H])c1[H]


 35 39  0  0  0  0  0  0  0  0999 V2000
   -0.4664   22.1057  -24.7851 C   0  0  0  0  0  0  0  0  0  0  0  0
    0.3398   22.4500  -25.7851 N   0  0  0  0  0  0  0  0  0  0  0  0
   -0.1330   22.7459  -26.9137 N   0  0  0  0  0  0  0  0  0  0  0  0
   -1.4461   22.7147  -27.1089 C   0  0  0  0  0  0  0  0  0  0  0  0
   -2.0004   22.2302  -25.5677 S   0  0  0  0  0  0  0  0  0  0  0  0
    0.3217   21.0532  -20.8139 C   0  0  0  0  0  0  0  0  0  0  0  0
    1.2886   20.9056  -21.7696 C   0  0  0  0  0  0  0  0  0  0  0  0
    1.0643   21.2454  -23.1054 C   0  0  0  0  0  0  0  0  0  0  0  0
   -0.1551   21.7289  -23.4149 C   0  0  0  0  0  0  0  0  0  0  0  0
   -1.1205   21.8745  -22.4516 C   0  0  0  0  0  0  0  0  0  0  0  0
   -0.9084   21.5493  -21.1696 N   0  0  0  0  0  0  0  0  0  0  0  0
    0.4518   20.7481  -19.4890 O   0  0  0  0  0  0  0  0  0  0  0  0
    3.6186   21.7972  -17.9884 C   0  0  0  0  0  0  0  0  0  0  0  0
    2.6083   20.8809  -18.5907 C   0  0  0  0  0  0  0  0  0  0  0  0
    1.1948   21.4147  -18.5055 C   0  0  0  0  0  0  0  0  0  0  0  0
    1.1315   22.8900  -18.8365 C   0  0  0  0  0  0  0  0  0  0  0  0
    2.2870   23.6800  -18.3242 C   0  0  0  0  0  0  0  0  0  0  0  0
    3.5396   23.0644  -18.7243 N   0  0  0  0  0  0  0  0  0  0  0  0
    3.4255   22.7849  -19.7319 H   0  0  0  0  0  0  0  0  0  0  0  0
   -2.1774   23.0152  -28.3109 N   0  0  0  0  0  0  0  0  0  0  0  0
   -1.6623   23.1767  -29.1759 H   0  0  0  0  0  0  0  0  0  0  0  0
   -3.6004   23.0671  -28.2067 C   0  0  0  0  0  0  0  0  0  0  0  0
   -4.2737   24.1647  -28.8993 C   0  0  0  0  0  0  0  0  0  0  0  0
   -3.6279   25.0143  -29.7462 C   0  0  0  0  0  0  0  0  0  0  0  0
   -4.3685   26.0272  -30.3526 C   0  0  0  0  0  0  0  0  0  0  0  0
   -5.6975   26.1632  -30.1058 C   0  0  0  0  0  0  0  0  0  0  0  0
   -6.2914   25.3035  -29.2647 N   0  0  0  0  0  0  0  0  0  0  0  0
   -5.6485   24.3078  -28.6459 C   0  0  0  0  0  0  0  0  0  0  0  0
   -6.2881   23.4479  -27.7926 O   0  0  0  0  0  0  0  0  0  0  0  0
   -6.5775   23.7383  -26.4695 C   0  0  0  0  0  0  0  0  0  0  0  0
   -7.4924   24.6933  -26.0956 C   0  0  0  0  0  0  0  0  0  0  0  0
   -7.7452   24.9452  -24.7641 C   0  0  0  0  0  0  0  0  0  0  0  0
   -7.0732   24.2318  -23.8013 C   0  0  0  0  0  0  0  0  0  0  0  0
   -6.1500   23.2678  -24.1442 C   0  0  0  0  0  0  0  0  0  0  0  0
   -5.9198   23.0396  -25.4846 C   0  0  0  0  0  0  0  0  0  0  0  0
 13 14  1  0  0  0
 14 15  1  0  0  0
 15 16  1  0  0  0
 16 17  1  0  0  0
 17 18  1  0  0  0
 15 12  1  0  0  0
 12  6  1  0  0  0
  6  7  2  0  0  0
  7  8  1  0  0  0
  8  9  2  0  0  0
  9 10  1  0  0  0
 10 11  2  0  0  0
  9  1  1  0  0  0
  1  2  2  0  0  0
  2  3  1  0  0  0
  3  4  2  0  0  0
  4 20  1  0  0  0
 20 22  1  0  0  0
 22 23  1  0  0  0
 23 24  2  0  0  0
 24 25  1  0  0  0
 25 26  2  0  0  0
 26 27  1  0  0  0
 27 28  2  0  0  0
 28 29  1  0  0  0
 29 30  1  0  0  0
 30 31  2  0  0  0
 31 32  1  0  0  0
 32 33  2  0  0  0
 33 34  1  0  0  0
 34 35  2  0  0  0
  4  5  1  0  0  0
 18 13  1  0  0  0
 11  6  1  0  0  0
  5  1  1  0  0  0
 28 23  1  0  0  0
 35 30  1  0  0  0
 18 19  1  0  0  0
 20 21  1  0  0  0
M  END
> <minimizedAffinity>
-8.90432

> <CNNscore>
0.5262262821

> <CNNaffinity>
7.0341310501

> <CNN_VS>
3.7015445232

> <CNNaffinity_variance>
0.1184490547

$$$$
[H]c1nc(Oc2c([H])c([H])c([H])c([H])c2[H])c(C([H])([H])N([H])c2nnc(-c3c([H])nc(OC4([H])C([H])([H])C([H])([H])N([H])C([H])([H])C4([H])[H])c([H])c3[H])s2)c([H])c1[H]


 35 39  0  0  0  0  0  0  0  0999 V2000
   -0.0463   21.8828  -24.3622 C   0  0  0  0  0  0  0  0  0  0  0  0
    0.0885   22.1197  -25.6638 N   0  0  0  0  0  0  0  0  0  0  0  0
   -0.8625   22.6124  -26.3252 N   0  0  0  0  0  0  0  0  0  0  0  0
   -2.0096   22.8985  -25.7204 C   0  0  0  0  0  0  0  0  0  0  0  0
   -1.6683   22.4212  -24.1163 S   0  0  0  0  0  0  0  0  0  0  0  0
    2.5857   20.2777  -21.5345 C   0  0  0  0  0  0  0  0  0  0  0  0
    3.0376   20.6189  -22.7793 C   0  0  0  0  0  0  0  0  0  0  0  0
    2.1906   21.1571  -23.7504 C   0  0  0  0  0  0  0  0  0  0  0  0
    0.8988   21.3274  -23.4058 C   0  0  0  0  0  0  0  0  0  0  0  0
    0.4518   20.9831  -22.1556 C   0  0  0  0  0  0  0  0  0  0  0  0
    1.2618   20.4666  -21.2221 N   0  0  0  0  0  0  0  0  0  0  0  0
    3.3391   19.7473  -20.5263 O   0  0  0  0  0  0  0  0  0  0  0  0
    4.2457   16.6806  -18.7503 C   0  0  0  0  0  0  0  0  0  0  0  0
    4.0820   18.1423  -18.9943 C   0  0  0  0  0  0  0  0  0  0  0  0
    3.9553   18.4904  -20.4616 C   0  0  0  0  0  0  0  0  0  0  0  0
    3.0495   17.5226  -21.1915 C   0  0  0  0  0  0  0  0  0  0  0  0
    3.1813   16.1073  -20.7426 C   0  0  0  0  0  0  0  0  0  0  0  0
    3.0559   16.0193  -19.2988 N   0  0  0  0  0  0  0  0  0  0  0  0
    2.2525   16.6434  -19.0311 H   0  0  0  0  0  0  0  0  0  0  0  0
   -3.2042   23.4610  -26.2918 N   0  0  0  0  0  0  0  0  0  0  0  0
   -3.5971   23.0380  -27.1322 H   0  0  0  0  0  0  0  0  0  0  0  0
   -3.7670   24.5937  -25.6295 C   0  0  0  0  0  0  0  0  0  0  0  0
   -5.2218   24.6193  -25.4859 C   0  0  0  0  0  0  0  0  0  0  0  0
   -5.8675   24.1322  -24.3895 C   0  0  0  0  0  0  0  0  0  0  0  0
   -7.2587   24.2073  -24.3585 C   0  0  0  0  0  0  0  0  0  0  0  0
   -7.9514   24.7509  -25.3930 C   0  0  0  0  0  0  0  0  0  0  0  0
   -7.2736   25.2178  -26.4521 N   0  0  0  0  0  0  0  0  0  0  0  0
   -5.9409   25.1812  -26.5546 C   0  0  0  0  0  0  0  0  0  0  0  0
   -5.2817   25.6680  -27.6523 O   0  0  0  0  0  0  0  0  0  0  0  0
   -5.4430   25.1759  -28.9370 C   0  0  0  0  0  0  0  0  0  0  0  0
   -5.5953   25.9875  -30.0357 C   0  0  0  0  0  0  0  0  0  0  0  0
   -5.7527   25.4485  -31.2946 C   0  0  0  0  0  0  0  0  0  0  0  0
   -5.7570   24.0834  -31.4502 C   0  0  0  0  0  0  0  0  0  0  0  0
   -5.6065   23.2431  -30.3683 C   0  0  0  0  0  0  0  0  0  0  0  0
   -5.4511   23.8135  -29.1224 C   0  0  0  0  0  0  0  0  0  0  0  0
 13 14  1  0  0  0
 14 15  1  0  0  0
 15 16  1  0  0  0
 16 17  1  0  0  0
 17 18  1  0  0  0
 15 12  1  0  0  0
 12  6  1  0  0  0
  6  7  2  0  0  0
  7  8  1  0  0  0
  8  9  2  0  0  0
  9 10  1  0  0  0
 10 11  2  0  0  0
  9  1  1  0  0  0
  1  2  2  0  0  0
  2  3  1  0  0  0
  3  4  2  0  0  0
  4 20  1  0  0  0
 20 22  1  0  0  0
 22 23  1  0  0  0
 23 24  2  0  0  0
 24 25  1  0  0  0
 25 26  2  0  0  0
 26 27  1  0  0  0
 27 28  2  0  0  0
 28 29  1  0  0  0
 29 30  1  0  0  0
 30 31  2  0  0  0
 31 32  1  0  0  0
 32 33  2  0  0  0
 33 34  1  0  0  0
 34 35  2  0  0  0
  4  5  1  0  0  0
 18 13  1  0  0  0
 11  6  1  0  0  0
  5  1  1  0  0  0
 28 23  1  0  0  0
 35 30  1  0  0  0
 18 19  1  0  0  0
 20 21  1  0  0  0
M  END
> <minimizedAffinity>
-7.66444

> <CNNscore>
0.3715117872

> <CNNaffinity>
6.6530561447

> <CNN_VS>
2.4716887474

> <CNNaffinity_variance>
0.2500754297

$$$$
[H]c1nc(Oc2c([H])c([H])c([H])c([H])c2[H])c(C([H])([H])N([H])c2nnc(-c3c([H])nc(OC4([H])C([H])([H])C([H])([H])N([H])C([H])([H])C4([H])[H])c([H])c3[H])s2)c([H])c1[H]


 35 39  0  0  0  0  0  0  0  0999 V2000
   -3.7786   22.3937  -19.0780 C   0  0  0  0  0  0  0  0  0  0  0  0
   -4.0984   23.1611  -20.1160 N   0  0  0  0  0  0  0  0  0  0  0  0
   -3.5307   23.0004  -21.2280 N   0  0  0  0  0  0  0  0  0  0  0  0
   -2.6055   22.0581  -21.3675 C   0  0  0  0  0  0  0  0  0  0  0  0
   -2.5748   21.3865  -19.7973 S   0  0  0  0  0  0  0  0  0  0  0  0
   -5.2863   22.2840  -15.1774 C   0  0  0  0  0  0  0  0  0  0  0  0
   -4.7084   23.4257  -15.6598 C   0  0  0  0  0  0  0  0  0  0  0  0
   -4.1936   23.5019  -16.9557 C   0  0  0  0  0  0  0  0  0  0  0  0
   -4.2914   22.3938  -17.7166 C   0  0  0  0  0  0  0  0  0  0  0  0
   -4.8723   21.2519  -17.2269 C   0  0  0  0  0  0  0  0  0  0  0  0
   -5.3669   21.1757  -15.9843 N   0  0  0  0  0  0  0  0  0  0  0  0
   -5.8140   22.1193  -13.9285 O   0  0  0  0  0  0  0  0  0  0  0  0
   -9.2350   23.3104  -13.4195 C   0  0  0  0  0  0  0  0  0  0  0  0
   -7.9891   22.9513  -14.1557 C   0  0  0  0  0  0  0  0  0  0  0  0
   -6.7643   22.9095  -13.2680 C   0  0  0  0  0  0  0  0  0  0  0  0
   -7.0524   22.2313  -11.9462 C   0  0  0  0  0  0  0  0  0  0  0  0
   -8.4008   22.5331  -11.3872 C   0  0  0  0  0  0  0  0  0  0  0  0
   -9.4289   22.2898  -12.3831 N   0  0  0  0  0  0  0  0  0  0  0  0
   -9.1817   21.3802  -12.8500 H   0  0  0  0  0  0  0  0  0  0  0  0
   -1.8482   21.7175  -22.5424 N   0  0  0  0  0  0  0  0  0  0  0  0
   -0.9065   21.3423  -22.4324 H   0  0  0  0  0  0  0  0  0  0  0  0
   -2.4802   21.9324  -23.8045 C   0  0  0  0  0  0  0  0  0  0  0  0
   -1.6035   22.0828  -24.9649 C   0  0  0  0  0  0  0  0  0  0  0  0
   -0.2513   21.9312  -24.8974 C   0  0  0  0  0  0  0  0  0  0  0  0
    0.4882   22.0981  -26.0668 C   0  0  0  0  0  0  0  0  0  0  0  0
   -0.1227   22.4037  -27.2411 C   0  0  0  0  0  0  0  0  0  0  0  0
   -1.4566   22.5435  -27.2601 N   0  0  0  0  0  0  0  0  0  0  0  0
   -2.2328   22.3989  -26.1811 C   0  0  0  0  0  0  0  0  0  0  0  0
   -3.5933   22.5492  -26.2378 O   0  0  0  0  0  0  0  0  0  0  0  0
   -4.2337   23.5854  -26.8971 C   0  0  0  0  0  0  0  0  0  0  0  0
   -4.2163   24.8835  -26.4462 C   0  0  0  0  0  0  0  0  0  0  0  0
   -4.8699   25.8800  -27.1392 C   0  0  0  0  0  0  0  0  0  0  0  0
   -5.5461   25.5691  -28.2940 C   0  0  0  0  0  0  0  0  0  0  0  0
   -5.5822   24.2770  -28.7719 C   0  0  0  0  0  0  0  0  0  0  0  0
   -4.9183   23.3031  -28.0557 C   0  0  0  0  0  0  0  0  0  0  0  0
 13 14  1  0  0  0
 14 15  1  0  0  0
 15 16  1  0  0  0
 16 17  1  0  0  0
 17 18  1  0  0  0
 15 12  1  0  0  0
 12  6  1  0  0  0
  6  7  2  0  0  0
  7  8  1  0  0  0
  8  9  2  0  0  0
  9 10  1  0  0  0
 10 11  2  0  0  0
  9  1  1  0  0  0
  1  2  2  0  0  0
  2  3  1  0  0  0
  3  4  2  0  0  0
  4 20  1  0  0  0
 20 22  1  0  0  0
 22 23  1  0  0  0
 23 24  2  0  0  0
 24 25  1  0  0  0
 25 26  2  0  0  0
 26 27  1  0  0  0
 27 28  2  0  0  0
 28 29  1  0  0  0
 29 30  1  0  0  0
 30 31  2  0  0  0
 31 32  1  0  0  0
 32 33  2  0  0  0
 33 34  1  0  0  0
 34 35  2  0  0  0
  4  5  1  0  0  0
 18 13  1  0  0  0
 11  6  1  0  0  0
  5  1  1  0  0  0
 28 23  1  0  0  0
 35 30  1  0  0  0
 18 19  1  0  0  0
 20 21  1  0  0  0
M  END
> <minimizedAffinity>
-7.17700

> <CNNscore>
0.1632198095

> <CNNaffinity>
5.7722301483

> <CNN_VS>
0.9421423078

> <CNNaffinity_variance>
0.3517067134

$$$$
[H]c1nc(Oc2c([H])c([H])c([H])c([H])c2[H])c(C([H])([H])N([H])c2nnc(-c3c([H])nc(OC4([H])C([H])([H])C([H])([H])N([H])C([H])([H])C4([H])[H])c([H])c3[H])s2)c([H])c1[H]


 35 39  0  0  0  0  0  0  0  0999 V2000
    0.4902   21.6820  -19.7465 C   0  0  0  0  0  0  0  0  0  0  0  0
    0.6619   20.5662  -20.4495 N   0  0  0  0  0  0  0  0  0  0  0  0
   -0.0623   20.3241  -21.4502 N   0  0  0  0  0  0  0  0  0  0  0  0
   -1.0051   21.1880  -21.8083 C   0  0  0  0  0  0  0  0  0  0  0  0
   -0.8128   22.4014  -20.6216 S   0  0  0  0  0  0  0  0  0  0  0  0
    2.4377   23.0318  -16.2990 C   0  0  0  0  0  0  0  0  0  0  0  0
    2.9347   23.3398  -17.5352 C   0  0  0  0  0  0  0  0  0  0  0  0
    2.3138   22.9081  -18.7092 C   0  0  0  0  0  0  0  0  0  0  0  0
    1.1951   22.1693  -18.5708 C   0  0  0  0  0  0  0  0  0  0  0  0
    0.7017   21.8638  -17.3281 C   0  0  0  0  0  0  0  0  0  0  0  0
    1.2951   22.2764  -16.2003 N   0  0  0  0  0  0  0  0  0  0  0  0
    2.9764   23.4094  -15.1021 O   0  0  0  0  0  0  0  0  0  0  0  0
    4.0155   22.2327  -11.7980 C   0  0  0  0  0  0  0  0  0  0  0  0
    3.9952   22.3444  -13.2847 C   0  0  0  0  0  0  0  0  0  0  0  0
    2.6994   22.9128  -13.8214 C   0  0  0  0  0  0  0  0  0  0  0  0
    2.2159   24.0844  -12.9947 C   0  0  0  0  0  0  0  0  0  0  0  0
    2.4437   23.9322  -11.5294 C   0  0  0  0  0  0  0  0  0  0  0  0
    3.8290   23.5871  -11.2646 N   0  0  0  0  0  0  0  0  0  0  0  0
    4.4132   24.2043  -11.8843 H   0  0  0  0  0  0  0  0  0  0  0  0
   -1.9273   21.0978  -22.9088 N   0  0  0  0  0  0  0  0  0  0  0  0
   -1.5932   20.7491  -23.8068 H   0  0  0  0  0  0  0  0  0  0  0  0
   -3.2717   21.5106  -22.6621 C   0  0  0  0  0  0  0  0  0  0  0  0
   -3.6211   22.8802  -23.0359 C   0  0  0  0  0  0  0  0  0  0  0  0
   -4.0548   23.8068  -22.1363 C   0  0  0  0  0  0  0  0  0  0  0  0
   -4.3610   25.0836  -22.6033 C   0  0  0  0  0  0  0  0  0  0  0  0
   -4.2307   25.3952  -23.9192 C   0  0  0  0  0  0  0  0  0  0  0  0
   -3.8002   24.4507  -24.7689 N   0  0  0  0  0  0  0  0  0  0  0  0
   -3.4872   23.2053  -24.3966 C   0  0  0  0  0  0  0  0  0  0  0  0
   -3.0502   22.2659  -25.2928 O   0  0  0  0  0  0  0  0  0  0  0  0
   -2.0687   22.4957  -26.2428 C   0  0  0  0  0  0  0  0  0  0  0  0
   -2.3514   22.8456  -27.5415 C   0  0  0  0  0  0  0  0  0  0  0  0
   -1.3378   23.0638  -28.4500 C   0  0  0  0  0  0  0  0  0  0  0  0
   -0.0304   22.9293  -28.0499 C   0  0  0  0  0  0  0  0  0  0  0  0
    0.2854   22.5797  -26.7548 C   0  0  0  0  0  0  0  0  0  0  0  0
   -0.7512   22.3684  -25.8702 C   0  0  0  0  0  0  0  0  0  0  0  0
 13 14  1  0  0  0
 14 15  1  0  0  0
 15 16  1  0  0  0
 16 17  1  0  0  0
 17 18  1  0  0  0
 15 12  1  0  0  0
 12  6  1  0  0  0
  6  7  2  0  0  0
  7  8  1  0  0  0
  8  9  2  0  0  0
  9 10  1  0  0  0
 10 11  2  0  0  0
  9  1  1  0  0  0
  1  2  2  0  0  0
  2  3  1  0  0  0
  3  4  2  0  0  0
  4 20  1  0  0  0
 20 22  1  0  0  0
 22 23  1  0  0  0
 23 24  2  0  0  0
 24 25  1  0  0  0
 25 26  2  0  0  0
 26 27  1  0  0  0
 27 28  2  0  0  0
 28 29  1  0  0  0
 29 30  1  0  0  0
 30 31  2  0  0  0
 31 32  1  0  0  0
 32 33  2  0  0  0
 33 34  1  0  0  0
 34 35  2  0  0  0
  4  5  1  0  0  0
 18 13  1  0  0  0
 11  6  1  0  0  0
  5  1  1  0  0  0
 28 23  1  0  0  0
 35 30  1  0  0  0
 18 19  1  0  0  0
 20 21  1  0  0  0
M  END
> <minimizedAffinity>
-7.35668

> <CNNscore>
0.1581788659

> <CNNaffinity>
5.5883460045

> <CNN_VS>
0.8839582205

> <CNNaffinity_variance>
0.1420989335

$$$$
[H]c1nc(Oc2c([H])c([H])c([H])c([H])c2[H])c(C([H])([H])N([H])c2nnc(-c3c([H])nc(OC4([H])C([H])([H])C([H])([H])N([H])C([H])([H])C4([H])[H])c([H])c3[H])s2)c([H])c1[H]


 35 39  0  0  0  0  0  0  0  0999 V2000
   -1.3126   21.6722  -23.8744 C   0  0  0  0  0  0  0  0  0  0  0  0
   -1.5771   22.1094  -25.1022 N   0  0  0  0  0  0  0  0  0  0  0  0
   -2.7653   22.3092  -25.4668 N   0  0  0  0  0  0  0  0  0  0  0  0
   -3.7632   22.0825  -24.6207 C   0  0  0  0  0  0  0  0  0  0  0  0
   -2.9127   21.5548  -23.2366 S   0  0  0  0  0  0  0  0  0  0  0  0
    2.2934   20.7928  -21.9448 C   0  0  0  0  0  0  0  0  0  0  0  0
    2.2890   21.1528  -23.2641 C   0  0  0  0  0  0  0  0  0  0  0  0
    1.1065   21.4538  -23.9434 C   0  0  0  0  0  0  0  0  0  0  0  0
   -0.0390   21.3738  -23.2378 C   0  0  0  0  0  0  0  0  0  0  0  0
   -0.0278   21.0122  -21.9148 C   0  0  0  0  0  0  0  0  0  0  0  0
    1.1047   20.7229  -21.2606 N   0  0  0  0  0  0  0  0  0  0  0  0
    3.3972   20.4824  -21.2028 O   0  0  0  0  0  0  0  0  0  0  0  0
    3.7237   16.9043  -21.8895 C   0  0  0  0  0  0  0  0  0  0  0  0
    3.0505   18.2024  -21.5983 C   0  0  0  0  0  0  0  0  0  0  0  0
    3.9752   19.2261  -20.9762 C   0  0  0  0  0  0  0  0  0  0  0  0
    5.3299   19.2415  -21.6506 C   0  0  0  0  0  0  0  0  0  0  0  0
    5.8272   17.8944  -22.0506 C   0  0  0  0  0  0  0  0  0  0  0  0
    4.8193   17.1904  -22.8230 N   0  0  0  0  0  0  0  0  0  0  0  0
    4.4213   17.8896  -23.5005 H   0  0  0  0  0  0  0  0  0  0  0  0
   -5.1754   22.2475  -24.8408 N   0  0  0  0  0  0  0  0  0  0  0  0
   -5.8313   21.7564  -24.2340 H   0  0  0  0  0  0  0  0  0  0  0  0
   -5.5673   23.1039  -25.9138 C   0  0  0  0  0  0  0  0  0  0  0  0
   -5.5060   24.5436  -25.6659 C   0  0  0  0  0  0  0  0  0  0  0  0
   -6.1057   25.1382  -24.5969 C   0  0  0  0  0  0  0  0  0  0  0  0
   -5.9833   26.5195  -24.4586 C   0  0  0  0  0  0  0  0  0  0  0  0
   -5.2854   27.2523  -25.3649 C   0  0  0  0  0  0  0  0  0  0  0  0
   -4.7116   26.6242  -26.4019 N   0  0  0  0  0  0  0  0  0  0  0  0
   -4.7846   25.3041  -26.6019 C   0  0  0  0  0  0  0  0  0  0  0  0
   -4.1854   24.6961  -27.6733 O   0  0  0  0  0  0  0  0  0  0  0  0
   -4.6616   24.7650  -28.9722 C   0  0  0  0  0  0  0  0  0  0  0  0
   -5.4596   23.7946  -29.5293 C   0  0  0  0  0  0  0  0  0  0  0  0
   -5.9082   23.9097  -30.8276 C   0  0  0  0  0  0  0  0  0  0  0  0
   -5.5520   25.0084  -31.5715 C   0  0  0  0  0  0  0  0  0  0  0  0
   -4.7531   25.9984  -31.0414 C   0  0  0  0  0  0  0  0  0  0  0  0
   -4.3208   25.8538  -29.7398 C   0  0  0  0  0  0  0  0  0  0  0  0
 13 14  1  0  0  0
 14 15  1  0  0  0
 15 16  1  0  0  0
 16 17  1  0  0  0
 17 18  1  0  0  0
 15 12  1  0  0  0
 12  6  1  0  0  0
  6  7  2  0  0  0
  7  8  1  0  0  0
  8  9  2  0  0  0
  9 10  1  0  0  0
 10 11  2  0  0  0
  9  1  1  0  0  0
  1  2  2  0  0  0
  2  3  1  0  0  0
  3  4  2  0  0  0
  4 20  1  0  0  0
 20 22  1  0  0  0
 22 23  1  0  0  0
 23 24  2  0  0  0
 24 25  1  0  0  0
 25 26  2  0  0  0
 26 27  1  0  0  0
 27 28  2  0  0  0
 28 29  1  0  0  0
 29 30  1  0  0  0
 30 31  2  0  0  0
 31 32  1  0  0  0
 32 33  2  0  0  0
 33 34  1  0  0  0
 34 35  2  0  0  0
  4  5  1  0  0  0
 18 13  1  0  0  0
 11  6  1  0  0  0
  5  1  1  0  0  0
 28 23  1  0  0  0
 35 30  1  0  0  0
 18 19  1  0  0  0
 20 21  1  0  0  0
M  END
> <minimizedAffinity>
-8.22070

> <CNNscore>
0.1476243138

> <CNNaffinity>
6.2859430313

> <CNN_VS>
0.9279580116

> <CNNaffinity_variance>
0.3296526968

$$$$
[H]c1c(F)c([H])c(Cl)c(C(=O)N([H])C([H])([H])C([H])(C(=O)C([H])([H])F)N(C([H])([H])c2nnn([H])c2[H])C([H])(C([H])([H])[H])C([H])([H])[H])c1F


 30 31  0  0  0  0  0  0  0  0999 V2000
   -5.7115   24.8698  -23.0941 C   0  0  0  0  0  0  0  0  0  0  0  0
   -5.8927   25.3947  -24.4497 C   0  0  0  0  0  0  0  0  0  0  0  0
   -6.1336   24.6964  -25.4344 O   0  0  0  0  0  0  0  0  0  0  0  0
   -5.8227   26.8629  -24.8278 C   0  0  0  0  0  0  0  0  0  0  0  0
   -4.5167   27.1696  -25.1054 F   0  0  0  0  0  0  0  0  0  0  0  0
   -6.8940   24.2798  -22.5274 N   0  0  0  0  0  0  0  0  0  0  0  0
   -7.0842   21.8482  -22.3842 C   0  0  0  0  0  0  0  0  0  0  0  0
   -6.7480   23.1539  -21.7535 C   0  0  0  0  0  0  0  0  0  0  0  0
   -7.3198   23.1687  -20.3650 C   0  0  0  0  0  0  0  0  0  0  0  0
   -8.1482   24.6820  -22.9712 C   0  0  0  0  0  0  0  0  0  0  0  0
   -8.7987   25.7374  -22.1219 C   0  0  0  0  0  0  0  0  0  0  0  0
  -10.1312   25.9329  -21.8543 C   0  0  0  0  0  0  0  0  0  0  0  0
  -10.2593   26.9717  -21.0354 N   0  0  0  0  0  0  0  0  0  0  0  0
   -9.0558   27.4406  -20.7757 N   0  0  0  0  0  0  0  0  0  0  0  0
   -8.1617   26.7119  -21.4192 N   0  0  0  0  0  0  0  0  0  0  0  0
  -11.1630   27.3733  -20.6416 H   0  0  0  0  0  0  0  0  0  0  0  0
   -4.4036   24.5271  -22.5755 C   0  0  0  0  0  0  0  0  0  0  0  0
   -3.3769   24.1934  -23.5322 N   0  0  0  0  0  0  0  0  0  0  0  0
   -3.0393   22.9206  -24.0039 C   0  0  0  0  0  0  0  0  0  0  0  0
   -3.6661   21.9115  -23.5568 O   0  0  0  0  0  0  0  0  0  0  0  0
   -2.8353   25.0326  -23.9362 H   0  0  0  0  0  0  0  0  0  0  0  0
   -2.0166   22.6415  -24.9879 C   0  0  0  0  0  0  0  0  0  0  0  0
   -0.6883   22.4316  -24.7501 C   0  0  0  0  0  0  0  0  0  0  0  0
   -0.1986   22.3862  -23.4927 F   0  0  0  0  0  0  0  0  0  0  0  0
    0.2249   22.2216  -25.7971 C   0  0  0  0  0  0  0  0  0  0  0  0
   -0.1649   22.2142  -27.1037 C   0  0  0  0  0  0  0  0  0  0  0  0
    0.7067   22.0126  -28.1279 F   0  0  0  0  0  0  0  0  0  0  0  0
   -1.4978   22.4214  -27.3689 C   0  0  0  0  0  0  0  0  0  0  0  0
   -2.3738   22.6234  -26.3603 C   0  0  0  0  0  0  0  0  0  0  0  0
   -4.0637   22.8825  -26.7828 Cl  0  0  0  0  0  0  0  0  0  0  0  0
  7  8  1  0  0  0
  8  9  1  0  0  0
  8  6  1  0  0  0
  6  1  1  0  0  0
  1 17  1  0  0  0
 17 18  1  0  0  0
 18 19  1  0  0  0
 19 20  2  0  0  0
 19 22  1  0  0  0
 22 23  2  0  0  0
 23 24  1  0  0  0
 23 25  1  0  0  0
 25 26  2  0  0  0
 26 27  1  0  0  0
 26 28  1  0  0  0
 28 29  2  0  0  0
 29 30  1  0  0  0
  1  2  1  0  0  0
  2  3  2  0  0  0
  2  4  1  0  0  0
  4  5  1  0  0  0
  6 10  1  0  0  0
 10 11  1  0  0  0
 11 12  2  0  0  0
 12 13  1  0  0  0
 13 14  1  0  0  0
 14 15  2  0  0  0
 29 22  1  0  0  0
 15 11  1  0  0  0
 18 21  1  0  0  0
 13 16  1  0  0  0
M  END
> <minimizedAffinity>
-7.04392

> <CNNscore>
0.2418263555

> <CNNaffinity>
6.0296831131

> <CNN_VS>
1.4581363201

> <CNNaffinity_variance>
0.2121394426

$$$$
[H]c1c(F)c([H])c(Cl)c(C(=O)N([H])C([H])([H])C([H])(C(=O)C([H])([H])F)N(C([H])([H])c2nnn([H])c2[H])C([H])(C([H])([H])[H])C([H])([H])[H])c1F


 30 31  0  0  0  0  0  0  0  0999 V2000
   -5.8344   23.0432  -22.2235 C   0  0  0  0  0  0  0  0  0  0  0  0
   -6.6179   21.9495  -21.6437 C   0  0  0  0  0  0  0  0  0  0  0  0
   -7.4497   21.2898  -22.2667 O   0  0  0  0  0  0  0  0  0  0  0  0
   -6.5073   21.4695  -20.2082 C   0  0  0  0  0  0  0  0  0  0  0  0
   -6.6838   22.5489  -19.3832 F   0  0  0  0  0  0  0  0  0  0  0  0
   -6.6273   24.1093  -22.7736 N   0  0  0  0  0  0  0  0  0  0  0  0
   -8.8223   25.1688  -22.6041 C   0  0  0  0  0  0  0  0  0  0  0  0
   -7.5618   24.7056  -21.9619 C   0  0  0  0  0  0  0  0  0  0  0  0
   -7.0981   25.7701  -21.0096 C   0  0  0  0  0  0  0  0  0  0  0  0
   -6.6264   24.3350  -24.1451 C   0  0  0  0  0  0  0  0  0  0  0  0
   -5.8156   25.5238  -24.5783 C   0  0  0  0  0  0  0  0  0  0  0  0
   -6.2419   26.7097  -25.1234 C   0  0  0  0  0  0  0  0  0  0  0  0
   -5.1881   27.4913  -25.3350 N   0  0  0  0  0  0  0  0  0  0  0  0
   -4.1105   26.8422  -24.9437 N   0  0  0  0  0  0  0  0  0  0  0  0
   -4.4655   25.6559  -24.4843 N   0  0  0  0  0  0  0  0  0  0  0  0
   -5.1872   28.4738  -25.7446 H   0  0  0  0  0  0  0  0  0  0  0  0
   -4.4546   23.2761  -21.8513 C   0  0  0  0  0  0  0  0  0  0  0  0
   -3.4678   23.2364  -22.9027 N   0  0  0  0  0  0  0  0  0  0  0  0
   -3.0853   22.1276  -23.6648 C   0  0  0  0  0  0  0  0  0  0  0  0
   -3.6258   21.0032  -23.4310 O   0  0  0  0  0  0  0  0  0  0  0  0
   -2.9999   24.1801  -23.1293 H   0  0  0  0  0  0  0  0  0  0  0  0
   -2.1073   22.1468  -24.7302 C   0  0  0  0  0  0  0  0  0  0  0  0
   -0.7584   21.9745  -24.6053 C   0  0  0  0  0  0  0  0  0  0  0  0
   -0.1959   21.6753  -23.4149 F   0  0  0  0  0  0  0  0  0  0  0  0
    0.1032   22.0681  -25.7112 C   0  0  0  0  0  0  0  0  0  0  0  0
   -0.3597   22.3336  -26.9660 C   0  0  0  0  0  0  0  0  0  0  0  0
    0.4613   22.4274  -28.0460 F   0  0  0  0  0  0  0  0  0  0  0  0
   -1.7146   22.5092  -27.1179 C   0  0  0  0  0  0  0  0  0  0  0  0
   -2.5410   22.4190  -26.0528 C   0  0  0  0  0  0  0  0  0  0  0  0
   -4.2635   22.6579  -26.3300 Cl  0  0  0  0  0  0  0  0  0  0  0  0
  7  8  1  0  0  0
  8  9  1  0  0  0
  8  6  1  0  0  0
  6  1  1  0  0  0
  1 17  1  0  0  0
 17 18  1  0  0  0
 18 19  1  0  0  0
 19 20  2  0  0  0
 19 22  1  0  0  0
 22 23  2  0  0  0
 23 24  1  0  0  0
 23 25  1  0  0  0
 25 26  2  0  0  0
 26 27  1  0  0  0
 26 28  1  0  0  0
 28 29  2  0  0  0
 29 30  1  0  0  0
  1  2  1  0  0  0
  2  3  2  0  0  0
  2  4  1  0  0  0
  4  5  1  0  0  0
  6 10  1  0  0  0
 10 11  1  0  0  0
 11 12  2  0  0  0
 12 13  1  0  0  0
 13 14  1  0  0  0
 14 15  2  0  0  0
 29 22  1  0  0  0
 15 11  1  0  0  0
 18 21  1  0  0  0
 13 16  1  0  0  0
M  END
> <minimizedAffinity>
-6.85386

> <CNNscore>
0.2346036136

> <CNNaffinity>
5.8327512741

> <CNN_VS>
1.3683844805

> <CNNaffinity_variance>
0.4844109416

$$$$
[H]c1c(F)c([H])c(Cl)c(C(=O)N([H])C([H])([H])C([H])(C(=O)C([H])([H])F)N(C([H])([H])c2nnn([H])c2[H])C([H])(C([H])([H])[H])C([H])([H])[H])c1F


 30 31  0  0  0  0  0  0  0  0999 V2000
   -6.0708   23.0838  -22.3930 C   0  0  0  0  0  0  0  0  0  0  0  0
   -6.8170   22.0060  -21.7388 C   0  0  0  0  0  0  0  0  0  0  0  0
   -7.6280   21.2798  -22.3134 O   0  0  0  0  0  0  0  0  0  0  0  0
   -6.6878   21.6260  -20.2752 C   0  0  0  0  0  0  0  0  0  0  0  0
   -7.2206   22.6396  -19.5232 F   0  0  0  0  0  0  0  0  0  0  0  0
   -6.8981   24.1190  -22.9512 N   0  0  0  0  0  0  0  0  0  0  0  0
   -9.0660   25.2278  -22.7509 C   0  0  0  0  0  0  0  0  0  0  0  0
   -7.8077   24.7355  -22.1263 C   0  0  0  0  0  0  0  0  0  0  0  0
   -7.3069   25.7883  -21.1798 C   0  0  0  0  0  0  0  0  0  0  0  0
   -6.9536   24.2920  -24.3292 C   0  0  0  0  0  0  0  0  0  0  0  0
   -6.0308   25.3528  -24.8597 C   0  0  0  0  0  0  0  0  0  0  0  0
   -6.1577   26.7187  -24.8002 C   0  0  0  0  0  0  0  0  0  0  0  0
   -5.0980   27.2764  -25.3765 N   0  0  0  0  0  0  0  0  0  0  0  0
   -4.3055   26.3123  -25.7987 N   0  0  0  0  0  0  0  0  0  0  0  0
   -4.8477   25.1463  -25.4974 N   0  0  0  0  0  0  0  0  0  0  0  0
   -4.8986   28.3160  -25.4882 H   0  0  0  0  0  0  0  0  0  0  0  0
   -4.6798   23.3454  -22.0874 C   0  0  0  0  0  0  0  0  0  0  0  0
   -3.7454   23.3339  -23.1863 N   0  0  0  0  0  0  0  0  0  0  0  0
   -3.2662   22.2176  -23.8798 C   0  0  0  0  0  0  0  0  0  0  0  0
   -3.6540   21.0611  -23.5289 O   0  0  0  0  0  0  0  0  0  0  0  0
   -3.4072   24.3036  -23.5118 H   0  0  0  0  0  0  0  0  0  0  0  0
   -2.3483   22.2622  -24.9967 C   0  0  0  0  0  0  0  0  0  0  0  0
   -2.6744   22.3316  -26.3210 C   0  0  0  0  0  0  0  0  0  0  0  0
   -3.9578   22.4508  -26.7229 F   0  0  0  0  0  0  0  0  0  0  0  0
   -1.6915   22.3147  -27.3250 C   0  0  0  0  0  0  0  0  0  0  0  0
   -0.3625   22.2301  -27.0323 C   0  0  0  0  0  0  0  0  0  0  0  0
    0.6003   22.2126  -27.9925 F   0  0  0  0  0  0  0  0  0  0  0  0
   -0.0087   22.1610  -25.7057 C   0  0  0  0  0  0  0  0  0  0  0  0
   -0.9557   22.1771  -24.7422 C   0  0  0  0  0  0  0  0  0  0  0  0
   -0.4212   22.0836  -23.0668 Cl  0  0  0  0  0  0  0  0  0  0  0  0
  7  8  1  0  0  0
  8  9  1  0  0  0
  8  6  1  0  0  0
  6  1  1  0  0  0
  1 17  1  0  0  0
 17 18  1  0  0  0
 18 19  1  0  0  0
 19 20  2  0  0  0
 19 22  1  0  0  0
 22 23  2  0  0  0
 23 24  1  0  0  0
 23 25  1  0  0  0
 25 26  2  0  0  0
 26 27  1  0  0  0
 26 28  1  0  0  0
 28 29  2  0  0  0
 29 30  1  0  0  0
  1  2  1  0  0  0
  2  3  2  0  0  0
  2  4  1  0  0  0
  4  5  1  0  0  0
  6 10  1  0  0  0
 10 11  1  0  0  0
 11 12  2  0  0  0
 12 13  1  0  0  0
 13 14  1  0  0  0
 14 15  2  0  0  0
 29 22  1  0  0  0
 15 11  1  0  0  0
 18 21  1  0  0  0
 13 16  1  0  0  0
M  END
> <minimizedAffinity>
-6.98563

> <CNNscore>
0.2291406393

> <CNNaffinity>
5.8633446693

> <CNN_VS>
1.3435305357

> <CNNaffinity_variance>
0.4808923304

$$$$
[H]c1c(F)c([H])c(Cl)c(C(=O)N([H])C([H])([H])C([H])(C(=O)C([H])([H])F)N(C([H])([H])c2nnn([H])c2[H])C([H])(C([H])([H])[H])C([H])([H])[H])c1F


 30 31  0  0  0  0  0  0  0  0999 V2000
   -5.5988   23.3685  -22.1197 C   0  0  0  0  0  0  0  0  0  0  0  0
   -4.2954   23.1440  -21.4897 C   0  0  0  0  0  0  0  0  0  0  0  0
   -3.4206   24.0038  -21.3869 O   0  0  0  0  0  0  0  0  0  0  0  0
   -3.8468   21.8343  -20.8678 C   0  0  0  0  0  0  0  0  0  0  0  0
   -2.7103   21.4233  -21.5131 F   0  0  0  0  0  0  0  0  0  0  0  0
   -6.5721   23.9831  -21.2580 N   0  0  0  0  0  0  0  0  0  0  0  0
   -7.3366   23.0454  -19.1354 C   0  0  0  0  0  0  0  0  0  0  0  0
   -7.4708   23.1685  -20.6127 C   0  0  0  0  0  0  0  0  0  0  0  0
   -7.7222   21.8008  -21.1796 C   0  0  0  0  0  0  0  0  0  0  0  0
   -6.7573   25.3601  -21.2954 C   0  0  0  0  0  0  0  0  0  0  0  0
   -8.0873   25.7933  -21.8445 C   0  0  0  0  0  0  0  0  0  0  0  0
   -8.7785   25.3032  -22.9250 C   0  0  0  0  0  0  0  0  0  0  0  0
   -9.9258   25.9641  -23.0397 N   0  0  0  0  0  0  0  0  0  0  0  0
   -9.9851   26.8547  -22.0707 N   0  0  0  0  0  0  0  0  0  0  0  0
   -8.8888   26.7686  -21.3391 N   0  0  0  0  0  0  0  0  0  0  0  0
  -10.6824   25.8177  -23.7740 H   0  0  0  0  0  0  0  0  0  0  0  0
   -5.7513   23.4345  -23.5582 C   0  0  0  0  0  0  0  0  0  0  0  0
   -4.5486   23.4199  -24.3544 N   0  0  0  0  0  0  0  0  0  0  0  0
   -3.8903   22.3009  -24.8751 C   0  0  0  0  0  0  0  0  0  0  0  0
   -4.3546   21.1448  -24.6327 O   0  0  0  0  0  0  0  0  0  0  0  0
   -4.1381   24.3892  -24.5842 H   0  0  0  0  0  0  0  0  0  0  0  0
   -2.6986   22.3421  -25.6939 C   0  0  0  0  0  0  0  0  0  0  0  0
   -1.4186   22.0935  -25.2882 C   0  0  0  0  0  0  0  0  0  0  0  0
   -1.1473   21.6865  -24.0298 F   0  0  0  0  0  0  0  0  0  0  0  0
   -0.3288   22.2174  -26.1664 C   0  0  0  0  0  0  0  0  0  0  0  0
   -0.4898   22.5900  -27.4680 C   0  0  0  0  0  0  0  0  0  0  0  0
    0.5547   22.7145  -28.3299 F   0  0  0  0  0  0  0  0  0  0  0  0
   -1.7696   22.8442  -27.9010 C   0  0  0  0  0  0  0  0  0  0  0  0
   -2.8158   22.7245  -27.0546 C   0  0  0  0  0  0  0  0  0  0  0  0
   -4.4234   23.0689  -27.6856 Cl  0  0  0  0  0  0  0  0  0  0  0  0
  7  8  1  0  0  0
  8  9  1  0  0  0
  8  6  1  0  0  0
  6  1  1  0  0  0
  1 17  1  0  0  0
 17 18  1  0  0  0
 18 19  1  0  0  0
 19 20  2  0  0  0
 19 22  1  0  0  0
 22 23  2  0  0  0
 23 24  1  0  0  0
 23 25  1  0  0  0
 25 26  2  0  0  0
 26 27  1  0  0  0
 26 28  1  0  0  0
 28 29  2  0  0  0
 29 30  1  0  0  0
  1  2  1  0  0  0
  2  3  2  0  0  0
  2  4  1  0  0  0
  4  5  1  0  0  0
  6 10  1  0  0  0
 10 11  1  0  0  0
 11 12  2  0  0  0
 12 13  1  0  0  0
 13 14  1  0  0  0
 14 15  2  0  0  0
 29 22  1  0  0  0
 15 11  1  0  0  0
 18 21  1  0  0  0
 13 16  1  0  0  0
M  END
> <minimizedAffinity>
-7.08030

> <CNNscore>
0.1810106784

> <CNNaffinity>
5.7889456749

> <CNN_VS>
1.0478609800

> <CNNaffinity_variance>
0.2641590536

$$$$
[H]c1c(F)c([H])c(Cl)c(C(=O)N([H])C([H])([H])C([H])(C(=O)C([H])([H])F)N(C([H])([H])c2nnn([H])c2[H])C([H])(C([H])([H])[H])C([H])([H])[H])c1F


 30 31  0  0  0  0  0  0  0  0999 V2000
   -4.3524   23.5003  -24.9483 C   0  0  0  0  0  0  0  0  0  0  0  0
   -3.6145   24.2764  -23.9485 C   0  0  0  0  0  0  0  0  0  0  0  0
   -3.7628   25.4844  -23.7647 O   0  0  0  0  0  0  0  0  0  0  0  0
   -2.5806   23.7039  -22.9964 C   0  0  0  0  0  0  0  0  0  0  0  0
   -2.9047   24.1017  -21.7261 F   0  0  0  0  0  0  0  0  0  0  0  0
   -3.6101   23.2293  -26.1496 N   0  0  0  0  0  0  0  0  0  0  0  0
   -4.5780   25.2587  -27.1055 C   0  0  0  0  0  0  0  0  0  0  0  0
   -3.9438   23.9243  -27.2869 C   0  0  0  0  0  0  0  0  0  0  0  0
   -4.6807   23.1949  -28.3732 C   0  0  0  0  0  0  0  0  0  0  0  0
   -2.7762   22.1190  -26.2116 C   0  0  0  0  0  0  0  0  0  0  0  0
   -1.3320   22.4408  -26.4744 C   0  0  0  0  0  0  0  0  0  0  0  0
   -0.2763   22.4603  -25.5967 C   0  0  0  0  0  0  0  0  0  0  0  0
    0.8312   22.7757  -26.2603 N   0  0  0  0  0  0  0  0  0  0  0  0
    0.5138   22.9568  -27.5260 N   0  0  0  0  0  0  0  0  0  0  0  0
   -0.7834   22.7595  -27.6771 N   0  0  0  0  0  0  0  0  0  0  0  0
    1.8145   22.8696  -25.8637 H   0  0  0  0  0  0  0  0  0  0  0  0
   -5.4896   22.6782  -24.5910 C   0  0  0  0  0  0  0  0  0  0  0  0
   -6.5659   23.3118  -23.8694 N   0  0  0  0  0  0  0  0  0  0  0  0
   -6.7161   23.4061  -22.4819 C   0  0  0  0  0  0  0  0  0  0  0  0
   -5.8424   22.8748  -21.7300 O   0  0  0  0  0  0  0  0  0  0  0  0
   -7.3172   23.7803  -24.4832 H   0  0  0  0  0  0  0  0  0  0  0  0
   -7.8035   24.0789  -21.8059 C   0  0  0  0  0  0  0  0  0  0  0  0
   -8.0255   25.4253  -21.7531 C   0  0  0  0  0  0  0  0  0  0  0  0
   -7.2463   26.2927  -22.4338 F   0  0  0  0  0  0  0  0  0  0  0  0
   -9.0911   25.9694  -21.0164 C   0  0  0  0  0  0  0  0  0  0  0  0
   -9.9600   25.1846  -20.3176 C   0  0  0  0  0  0  0  0  0  0  0  0
  -10.9957   25.6961  -19.5999 F   0  0  0  0  0  0  0  0  0  0  0  0
   -9.7585   23.8253  -20.3567 C   0  0  0  0  0  0  0  0  0  0  0  0
   -8.7330   23.3046  -21.0656 C   0  0  0  0  0  0  0  0  0  0  0  0
   -8.5419   21.5540  -21.0644 Cl  0  0  0  0  0  0  0  0  0  0  0  0
  7  8  1  0  0  0
  8  9  1  0  0  0
  8  6  1  0  0  0
  6  1  1  0  0  0
  1 17  1  0  0  0
 17 18  1  0  0  0
 18 19  1  0  0  0
 19 20  2  0  0  0
 19 22  1  0  0  0
 22 23  2  0  0  0
 23 24  1  0  0  0
 23 25  1  0  0  0
 25 26  2  0  0  0
 26 27  1  0  0  0
 26 28  1  0  0  0
 28 29  2  0  0  0
 29 30  1  0  0  0
  1  2  1  0  0  0
  2  3  2  0  0  0
  2  4  1  0  0  0
  4  5  1  0  0  0
  6 10  1  0  0  0
 10 11  1  0  0  0
 11 12  2  0  0  0
 12 13  1  0  0  0
 13 14  1  0  0  0
 14 15  2  0  0  0
 29 22  1  0  0  0
 15 11  1  0  0  0
 18 21  1  0  0  0
 13 16  1  0  0  0
M  END
> <minimizedAffinity>
-6.83798

> <CNNscore>
0.1768035740

> <CNNaffinity>
6.1008710861

> <CNN_VS>
1.0786558390

> <CNNaffinity_variance>
0.1842477620

$$$$
[H]c1c(F)c([H])c(Cl)c(C(=O)N([H])C([H])([H])C([H])(C(=O)C([H])([H])F)N(C([H])([H])c2nnn([H])c2[H])C([H])(C([H])([H])[H])C([H])([H])[H])c1F


 30 31  0  0  0  0  0  0  0  0999 V2000
   -5.1868   23.2252  -21.8453 C   0  0  0  0  0  0  0  0  0  0  0  0
   -5.8695   22.1025  -21.1974 C   0  0  0  0  0  0  0  0  0  0  0  0
   -5.3058   21.2643  -20.4940 O   0  0  0  0  0  0  0  0  0  0  0  0
   -7.3583   21.8229  -21.2896 C   0  0  0  0  0  0  0  0  0  0  0  0
   -7.6071   21.2341  -22.5013 F   0  0  0  0  0  0  0  0  0  0  0  0
   -6.0515   24.3209  -22.1910 N   0  0  0  0  0  0  0  0  0  0  0  0
   -6.2766   23.4312  -24.4553 C   0  0  0  0  0  0  0  0  0  0  0  0
   -6.2519   24.5914  -23.5231 C   0  0  0  0  0  0  0  0  0  0  0  0
   -5.4412   25.6869  -24.1539 C   0  0  0  0  0  0  0  0  0  0  0  0
   -6.4457   25.2259  -21.2126 C   0  0  0  0  0  0  0  0  0  0  0  0
   -7.8661   25.6995  -21.3405 C   0  0  0  0  0  0  0  0  0  0  0  0
   -9.0206   24.9605  -21.4213 C   0  0  0  0  0  0  0  0  0  0  0  0
  -10.0579   25.7875  -21.5010 N   0  0  0  0  0  0  0  0  0  0  0  0
   -9.6010   27.0229  -21.4739 N   0  0  0  0  0  0  0  0  0  0  0  0
   -8.2842   26.9929  -21.3770 N   0  0  0  0  0  0  0  0  0  0  0  0
  -11.0869   25.5244  -21.5723 H   0  0  0  0  0  0  0  0  0  0  0  0
   -3.7608   23.4354  -21.7071 C   0  0  0  0  0  0  0  0  0  0  0  0
   -2.9693   23.4308  -22.9130 N   0  0  0  0  0  0  0  0  0  0  0  0
   -2.7225   22.3459  -23.7608 C   0  0  0  0  0  0  0  0  0  0  0  0
   -3.2137   21.2124  -23.4698 O   0  0  0  0  0  0  0  0  0  0  0  0
   -2.5482   24.3831  -23.1896 H   0  0  0  0  0  0  0  0  0  0  0  0
   -1.9421   22.4006  -24.9774 C   0  0  0  0  0  0  0  0  0  0  0  0
   -2.4016   22.6833  -26.2319 C   0  0  0  0  0  0  0  0  0  0  0  0
   -3.6876   23.0343  -26.4461 F   0  0  0  0  0  0  0  0  0  0  0  0
   -1.5543   22.6542  -27.3523 C   0  0  0  0  0  0  0  0  0  0  0  0
   -0.2305   22.3445  -27.2479 C   0  0  0  0  0  0  0  0  0  0  0  0
    0.6020   22.3119  -28.3227 F   0  0  0  0  0  0  0  0  0  0  0  0
    0.2566   22.0578  -25.9948 C   0  0  0  0  0  0  0  0  0  0  0  0
   -0.5603   22.0863  -24.9190 C   0  0  0  0  0  0  0  0  0  0  0  0
    0.1399   21.7057  -23.3486 Cl  0  0  0  0  0  0  0  0  0  0  0  0
  7  8  1  0  0  0
  8  9  1  0  0  0
  8  6  1  0  0  0
  6  1  1  0  0  0
  1 17  1  0  0  0
 17 18  1  0  0  0
 18 19  1  0  0  0
 19 20  2  0  0  0
 19 22  1  0  0  0
 22 23  2  0  0  0
 23 24  1  0  0  0
 23 25  1  0  0  0
 25 26  2  0  0  0
 26 27  1  0  0  0
 26 28  1  0  0  0
 28 29  2  0  0  0
 29 30  1  0  0  0
  1  2  1  0  0  0
  2  3  2  0  0  0
  2  4  1  0  0  0
  4  5  1  0  0  0
  6 10  1  0  0  0
 10 11  1  0  0  0
 11 12  2  0  0  0
 12 13  1  0  0  0
 13 14  1  0  0  0
 14 15  2  0  0  0
 29 22  1  0  0  0
 15 11  1  0  0  0
 18 21  1  0  0  0
 13 16  1  0  0  0
M  END
> <minimizedAffinity>
-6.84556

> <CNNscore>
0.1582465619

> <CNNaffinity>
5.8713350296

> <CNN_VS>
0.9291185737

> <CNNaffinity_variance>
0.0862745643

$$$$
[H]c1c(F)c([H])c(Cl)c(C(=O)N([H])C([H])([H])C([H])(C(=O)C([H])([H])F)N(C([H])([H])c2nnn([H])c2[H])C([H])(C([H])([H])[H])C([H])([H])[H])c1F


 30 31  0  0  0  0  0  0  0  0999 V2000
   -5.8789   24.8839  -22.6934 C   0  0  0  0  0  0  0  0  0  0  0  0
   -6.9765   25.5679  -23.3816 C   0  0  0  0  0  0  0  0  0  0  0  0
   -6.9296   26.7365  -23.7654 O   0  0  0  0  0  0  0  0  0  0  0  0
   -8.3115   24.9346  -23.7281 C   0  0  0  0  0  0  0  0  0  0  0  0
   -8.3703   24.7815  -25.0882 F   0  0  0  0  0  0  0  0  0  0  0  0
   -6.2038   24.4345  -21.3668 N   0  0  0  0  0  0  0  0  0  0  0  0
   -5.2598   22.3484  -20.5144 C   0  0  0  0  0  0  0  0  0  0  0  0
   -6.3770   23.0865  -21.1647 C   0  0  0  0  0  0  0  0  0  0  0  0
   -6.8880   22.2579  -22.3082 C   0  0  0  0  0  0  0  0  0  0  0  0
   -6.5884   25.3555  -20.3995 C   0  0  0  0  0  0  0  0  0  0  0  0
   -8.0728   25.5667  -20.2983 C   0  0  0  0  0  0  0  0  0  0  0  0
   -9.0597   24.6537  -20.0196 C   0  0  0  0  0  0  0  0  0  0  0  0
  -10.2335   25.2768  -20.0070 N   0  0  0  0  0  0  0  0  0  0  0  0
  -10.0245   26.5511  -20.2680 N   0  0  0  0  0  0  0  0  0  0  0  0
   -8.7307   26.7476  -20.4460 N   0  0  0  0  0  0  0  0  0  0  0  0
  -11.1888   24.8465  -19.8192 H   0  0  0  0  0  0  0  0  0  0  0  0
   -4.7769   24.2859  -23.4180 C   0  0  0  0  0  0  0  0  0  0  0  0
   -4.5682   24.7135  -24.7797 N   0  0  0  0  0  0  0  0  0  0  0  0
   -5.0725   24.1195  -25.9414 C   0  0  0  0  0  0  0  0  0  0  0  0
   -5.7850   23.0741  -25.8394 O   0  0  0  0  0  0  0  0  0  0  0  0
   -3.9748   25.6053  -24.8953 H   0  0  0  0  0  0  0  0  0  0  0  0
   -4.8560   24.6054  -27.2864 C   0  0  0  0  0  0  0  0  0  0  0  0
   -5.6706   25.4417  -27.9949 C   0  0  0  0  0  0  0  0  0  0  0  0
   -6.7759   25.9825  -27.4393 F   0  0  0  0  0  0  0  0  0  0  0  0
   -5.3820   25.8043  -29.3214 C   0  0  0  0  0  0  0  0  0  0  0  0
   -4.2751   25.3436  -29.9708 C   0  0  0  0  0  0  0  0  0  0  0  0
   -3.9824   25.6852  -31.2540 F   0  0  0  0  0  0  0  0  0  0  0  0
   -3.4382   24.5014  -29.2778 C   0  0  0  0  0  0  0  0  0  0  0  0
   -3.7181   24.1540  -28.0025 C   0  0  0  0  0  0  0  0  0  0  0  0
   -2.5971   23.0701  -27.1841 Cl  0  0  0  0  0  0  0  0  0  0  0  0
  7  8  1  0  0  0
  8  9  1  0  0  0
  8  6  1  0  0  0
  6  1  1  0  0  0
  1 17  1  0  0  0
 17 18  1  0  0  0
 18 19  1  0  0  0
 19 20  2  0  0  0
 19 22  1  0  0  0
 22 23  2  0  0  0
 23 24  1  0  0  0
 23 25  1  0  0  0
 25 26  2  0  0  0
 26 27  1  0  0  0
 26 28  1  0  0  0
 28 29  2  0  0  0
 29 30  1  0  0  0
  1  2  1  0  0  0
  2  3  2  0  0  0
  2  4  1  0  0  0
  4  5  1  0  0  0
  6 10  1  0  0  0
 10 11  1  0  0  0
 11 12  2  0  0  0
 12 13  1  0  0  0
 13 14  1  0  0  0
 14 15  2  0  0  0
 29 22  1  0  0  0
 15 11  1  0  0  0
 18 21  1  0  0  0
 13 16  1  0  0  0
M  END
> <minimizedAffinity>
-7.06780

> <CNNscore>
0.1558541507

> <CNNaffinity>
5.7994375229

> <CNN_VS>
0.9038664103

> <CNNaffinity_variance>
0.3605948985

$$$$
[H]c1c(F)c([H])c(Cl)c(C(=O)N([H])C([H])([H])C([H])(C(=O)C([H])([H])F)N(C([H])([H])c2nnn([H])c2[H])C([H])(C([H])([H])[H])C([H])([H])[H])c1F


 30 31  0  0  0  0  0  0  0  0999 V2000
   -5.5800   22.8847  -23.6672 C   0  0  0  0  0  0  0  0  0  0  0  0
   -6.8866   23.2498  -23.1143 C   0  0  0  0  0  0  0  0  0  0  0  0
   -7.5037   22.5706  -22.2940 O   0  0  0  0  0  0  0  0  0  0  0  0
   -7.6528   24.5131  -23.4612 C   0  0  0  0  0  0  0  0  0  0  0  0
   -6.8454   25.3015  -24.2379 F   0  0  0  0  0  0  0  0  0  0  0  0
   -4.5206   22.8394  -22.6960 N   0  0  0  0  0  0  0  0  0  0  0  0
   -4.7550   24.6922  -21.1208 C   0  0  0  0  0  0  0  0  0  0  0  0
   -4.0174   24.0306  -22.2316 C   0  0  0  0  0  0  0  0  0  0  0  0
   -3.6368   25.0796  -23.2366 C   0  0  0  0  0  0  0  0  0  0  0  0
   -3.8604   21.6416  -22.4483 C   0  0  0  0  0  0  0  0  0  0  0  0
   -2.4240   21.6213  -22.8895 C   0  0  0  0  0  0  0  0  0  0  0  0
   -1.2899   21.4433  -22.1362 C   0  0  0  0  0  0  0  0  0  0  0  0
   -0.2300   21.4744  -22.9374 N   0  0  0  0  0  0  0  0  0  0  0  0
   -0.6530   21.6660  -24.1703 N   0  0  0  0  0  0  0  0  0  0  0  0
   -1.9706   21.7566  -24.1643 N   0  0  0  0  0  0  0  0  0  0  0  0
    0.7912   21.3639  -22.6584 H   0  0  0  0  0  0  0  0  0  0  0  0
   -5.4528   22.1714  -24.9210 C   0  0  0  0  0  0  0  0  0  0  0  0
   -5.6756   22.9181  -26.1349 N   0  0  0  0  0  0  0  0  0  0  0  0
   -4.7559   23.1638  -27.1598 C   0  0  0  0  0  0  0  0  0  0  0  0
   -3.5739   22.7151  -27.0476 O   0  0  0  0  0  0  0  0  0  0  0  0
   -6.6742   23.3023  -26.2610 H   0  0  0  0  0  0  0  0  0  0  0  0
   -5.0385   23.8974  -28.3739 C   0  0  0  0  0  0  0  0  0  0  0  0
   -5.3183   23.3698  -29.6019 C   0  0  0  0  0  0  0  0  0  0  0  0
   -5.4400   22.0374  -29.7826 F   0  0  0  0  0  0  0  0  0  0  0  0
   -5.5243   24.1865  -30.7266 C   0  0  0  0  0  0  0  0  0  0  0  0
   -5.4578   25.5464  -30.6527 C   0  0  0  0  0  0  0  0  0  0  0  0
   -5.6545   26.3500  -31.7319 F   0  0  0  0  0  0  0  0  0  0  0  0
   -5.1792   26.1017  -29.4264 C   0  0  0  0  0  0  0  0  0  0  0  0
   -4.9813   25.3143  -28.3465 C   0  0  0  0  0  0  0  0  0  0  0  0
   -4.6279   26.1024  -26.8119 Cl  0  0  0  0  0  0  0  0  0  0  0  0
  7  8  1  0  0  0
  8  9  1  0  0  0
  8  6  1  0  0  0
  6  1  1  0  0  0
  1 17  1  0  0  0
 17 18  1  0  0  0
 18 19  1  0  0  0
 19 20  2  0  0  0
 19 22  1  0  0  0
 22 23  2  0  0  0
 23 24  1  0  0  0
 23 25  1  0  0  0
 25 26  2  0  0  0
 26 27  1  0  0  0
 26 28  1  0  0  0
 28 29  2  0  0  0
 29 30  1  0  0  0
  1  2  1  0  0  0
  2  3  2  0  0  0
  2  4  1  0  0  0
  4  5  1  0  0  0
  6 10  1  0  0  0
 10 11  1  0  0  0
 11 12  2  0  0  0
 12 13  1  0  0  0
 13 14  1  0  0  0
 14 15  2  0  0  0
 29 22  1  0  0  0
 15 11  1  0  0  0
 18 21  1  0  0  0
 13 16  1  0  0  0
M  END
> <minimizedAffinity>
-6.66621

> <CNNscore>
0.1497104913

> <CNNaffinity>
6.3331518173

> <CNN_VS>
0.9481392503

> <CNNaffinity_variance>
0.0626474023

$$$$
[H]c1c(F)c([H])c(Cl)c(C(=O)N([H])C([H])([H])C([H])(C(=O)C([H])([H])F)N(C([H])([H])c2nnn([H])c2[H])C([H])(C([H])([H])[H])C([H])([H])[H])c1F


 30 31  0  0  0  0  0  0  0  0999 V2000
   -5.4950   23.8034  -22.4744 C   0  0  0  0  0  0  0  0  0  0  0  0
   -6.1012   22.5214  -22.1068 C   0  0  0  0  0  0  0  0  0  0  0  0
   -6.6953   21.7868  -22.8958 O   0  0  0  0  0  0  0  0  0  0  0  0
   -6.0722   21.9155  -20.7157 C   0  0  0  0  0  0  0  0  0  0  0  0
   -4.9568   21.1260  -20.6180 F   0  0  0  0  0  0  0  0  0  0  0  0
   -6.4335   24.8859  -22.5967 N   0  0  0  0  0  0  0  0  0  0  0  0
   -7.1075   24.4285  -24.9002 C   0  0  0  0  0  0  0  0  0  0  0  0
   -6.6771   25.3923  -23.8505 C   0  0  0  0  0  0  0  0  0  0  0  0
   -5.6605   26.3208  -24.4502 C   0  0  0  0  0  0  0  0  0  0  0  0
   -6.8641   25.5596  -21.4598 C   0  0  0  0  0  0  0  0  0  0  0  0
   -8.3354   25.4314  -21.1817 C   0  0  0  0  0  0  0  0  0  0  0  0
   -9.2104   26.3739  -20.7007 C   0  0  0  0  0  0  0  0  0  0  0  0
  -10.4249   25.8390  -20.6292 N   0  0  0  0  0  0  0  0  0  0  0  0
  -10.3494   24.5919  -21.0474 N   0  0  0  0  0  0  0  0  0  0  0  0
   -9.1007   24.3260  -21.3854 N   0  0  0  0  0  0  0  0  0  0  0  0
  -11.3187   26.3131  -20.2987 H   0  0  0  0  0  0  0  0  0  0  0  0
   -4.0901   24.0760  -22.2533 C   0  0  0  0  0  0  0  0  0  0  0  0
   -3.1938   23.8856  -23.3674 N   0  0  0  0  0  0  0  0  0  0  0  0
   -2.6710   22.6764  -23.8377 C   0  0  0  0  0  0  0  0  0  0  0  0
   -2.9758   21.5993  -23.2395 O   0  0  0  0  0  0  0  0  0  0  0  0
   -2.9262   24.7830  -23.9002 H   0  0  0  0  0  0  0  0  0  0  0  0
   -1.7952   22.5362  -24.9802 C   0  0  0  0  0  0  0  0  0  0  0  0
   -0.4463   22.3249  -24.9556 C   0  0  0  0  0  0  0  0  0  0  0  0
    0.2144   22.1391  -23.7929 F   0  0  0  0  0  0  0  0  0  0  0  0
    0.3121   22.2586  -26.1366 C   0  0  0  0  0  0  0  0  0  0  0  0
   -0.2563   22.3997  -27.3679 C   0  0  0  0  0  0  0  0  0  0  0  0
    0.4640   22.3382  -28.5196 F   0  0  0  0  0  0  0  0  0  0  0  0
   -1.6137   22.6115  -27.4190 C   0  0  0  0  0  0  0  0  0  0  0  0
   -2.3406   22.6751  -26.2820 C   0  0  0  0  0  0  0  0  0  0  0  0
   -4.0735   22.9505  -26.4320 Cl  0  0  0  0  0  0  0  0  0  0  0  0
  7  8  1  0  0  0
  8  9  1  0  0  0
  8  6  1  0  0  0
  6  1  1  0  0  0
  1 17  1  0  0  0
 17 18  1  0  0  0
 18 19  1  0  0  0
 19 20  2  0  0  0
 19 22  1  0  0  0
 22 23  2  0  0  0
 23 24  1  0  0  0
 23 25  1  0  0  0
 25 26  2  0  0  0
 26 27  1  0  0  0
 26 28  1  0  0  0
 28 29  2  0  0  0
 29 30  1  0  0  0
  1  2  1  0  0  0
  2  3  2  0  0  0
  2  4  1  0  0  0
  4  5  1  0  0  0
  6 10  1  0  0  0
 10 11  1  0  0  0
 11 12  2  0  0  0
 12 13  1  0  0  0
 13 14  1  0  0  0
 14 15  2  0  0  0
 29 22  1  0  0  0
 15 11  1  0  0  0
 18 21  1  0  0  0
 13 16  1  0  0  0
M  END
> <minimizedAffinity>
-6.64815

> <CNNscore>
0.1467271000

> <CNNaffinity>
5.6802225113

> <CNN_VS>
0.8334425688

> <CNNaffinity_variance>
0.2072379887

$$$$
[H]Oc1c([H])c([H])c([H])c(-c2c([H])nc(C([H])([H])[H])c([H])c2[H])c1[H]


 15 16  0  0  0  0  0  0  0  0999 V2000
   -0.7206   22.1388  -25.5286 C   0  0  0  0  0  0  0  0  0  0  0  0
   -2.1007   22.1321  -25.7179 C   0  0  0  0  0  0  0  0  0  0  0  0
   -2.6843   22.5261  -26.9036 C   0  0  0  0  0  0  0  0  0  0  0  0
   -1.8609   22.9395  -27.9308 C   0  0  0  0  0  0  0  0  0  0  0  0
   -0.4858   22.9689  -27.8053 C   0  0  0  0  0  0  0  0  0  0  0  0
    0.3461   23.3835  -28.8355 O   0  0  0  0  0  0  0  0  0  0  0  0
    0.0470   22.5611  -26.5893 C   0  0  0  0  0  0  0  0  0  0  0  0
    1.3448   23.3844  -28.6870 H   0  0  0  0  0  0  0  0  0  0  0  0
    1.5946   20.4741  -20.5504 C   0  0  0  0  0  0  0  0  0  0  0  0
    0.9594   20.9058  -21.8433 C   0  0  0  0  0  0  0  0  0  0  0  0
   -0.3970   21.0201  -22.0008 C   0  0  0  0  0  0  0  0  0  0  0  0
   -0.9546   21.4205  -23.1979 C   0  0  0  0  0  0  0  0  0  0  0  0
   -0.1507   21.7117  -24.2553 C   0  0  0  0  0  0  0  0  0  0  0  0
    1.2127   21.5931  -24.0861 C   0  0  0  0  0  0  0  0  0  0  0  0
    1.7230   21.2003  -22.9058 N   0  0  0  0  0  0  0  0  0  0  0  0
  9 10  1  0  0  0
 10 11  2  0  0  0
 11 12  1  0  0  0
 12 13  2  0  0  0
 13 14  1  0  0  0
 14 15  2  0  0  0
 13  1  1  0  0  0
  1  2  2  0  0  0
  2  3  1  0  0  0
  3  4  2  0  0  0
  4  5  1  0  0  0
  5  6  1  0  0  0
  5  7  2  0  0  0
 15 10  1  0  0  0
  7  1  1  0  0  0
  6  8  1  0  0  0
M  END
> <minimizedAffinity>
-6.75539

> <CNNscore>
0.7105939984

> <CNNaffinity>
4.5124282837

> <CNN_VS>
3.2065043449

> <CNNaffinity_variance>
0.1739898026

$$$$
[H]Oc1c([H])c([H])c([H])c(-c2c([H])nc(C([H])([H])[H])c([H])c2[H])c1[H]


 15 16  0  0  0  0  0  0  0  0999 V2000
   -2.6193   23.0526  -27.5947 C   0  0  0  0  0  0  0  0  0  0  0  0
   -3.1326   22.5112  -26.4182 C   0  0  0  0  0  0  0  0  0  0  0  0
   -2.3223   21.9925  -25.4302 C   0  0  0  0  0  0  0  0  0  0  0  0
   -0.9567   22.0165  -25.6264 C   0  0  0  0  0  0  0  0  0  0  0  0
   -0.3867   22.5393  -26.7706 C   0  0  0  0  0  0  0  0  0  0  0  0
    0.9860   22.5659  -26.9721 O   0  0  0  0  0  0  0  0  0  0  0  0
   -1.2505   23.0481  -27.7318 C   0  0  0  0  0  0  0  0  0  0  0  0
    1.3467   22.9606  -27.8286 H   0  0  0  0  0  0  0  0  0  0  0  0
   -6.1040   25.2299  -31.5985 C   0  0  0  0  0  0  0  0  0  0  0  0
   -5.2094   24.6344  -30.5466 C   0  0  0  0  0  0  0  0  0  0  0  0
   -5.4266   23.3951  -30.0038 C   0  0  0  0  0  0  0  0  0  0  0  0
   -4.5889   22.8708  -29.0407 C   0  0  0  0  0  0  0  0  0  0  0  0
   -3.5181   23.5902  -28.6104 C   0  0  0  0  0  0  0  0  0  0  0  0
   -3.3089   24.8362  -29.1631 C   0  0  0  0  0  0  0  0  0  0  0  0
   -4.1449   25.3171  -30.0999 N   0  0  0  0  0  0  0  0  0  0  0  0
  9 10  1  0  0  0
 10 11  2  0  0  0
 11 12  1  0  0  0
 12 13  2  0  0  0
 13 14  1  0  0  0
 14 15  2  0  0  0
 13  1  1  0  0  0
  1  2  2  0  0  0
  2  3  1  0  0  0
  3  4  2  0  0  0
  4  5  1  0  0  0
  5  6  1  0  0  0
  5  7  2  0  0  0
 15 10  1  0  0  0
  7  1  1  0  0  0
  6  8  1  0  0  0
M  END
> <minimizedAffinity>
-7.26098

> <CNNscore>
0.6762233973

> <CNNaffinity>
4.9542169571

> <CNN_VS>
3.3501574993

> <CNNaffinity_variance>
0.1456195712

$$$$
[H]Oc1c([H])c([H])c([H])c(-c2c([H])nc(C([H])([H])[H])c([H])c2[H])c1[H]


 15 16  0  0  0  0  0  0  0  0999 V2000
   -5.2615   24.6001  -28.0462 C   0  0  0  0  0  0  0  0  0  0  0  0
   -5.2142   23.3700  -28.6982 C   0  0  0  0  0  0  0  0  0  0  0  0
   -5.4371   23.2445  -30.0533 C   0  0  0  0  0  0  0  0  0  0  0  0
   -5.7160   24.3855  -30.7774 C   0  0  0  0  0  0  0  0  0  0  0  0
   -5.7771   25.6337  -30.1894 C   0  0  0  0  0  0  0  0  0  0  0  0
   -6.0569   26.7838  -30.9136 O   0  0  0  0  0  0  0  0  0  0  0  0
   -5.5440   25.7006  -28.8219 C   0  0  0  0  0  0  0  0  0  0  0  0
   -6.0887   27.6699  -30.4306 H   0  0  0  0  0  0  0  0  0  0  0  0
   -4.3178   24.8402  -22.3924 C   0  0  0  0  0  0  0  0  0  0  0  0
   -4.5578   24.8075  -23.8765 C   0  0  0  0  0  0  0  0  0  0  0  0
   -4.3272   25.8868  -24.6886 C   0  0  0  0  0  0  0  0  0  0  0  0
   -4.5540   25.8299  -26.0487 C   0  0  0  0  0  0  0  0  0  0  0  0
   -5.0176   24.6814  -26.6101 C   0  0  0  0  0  0  0  0  0  0  0  0
   -5.2465   23.6013  -25.7838 C   0  0  0  0  0  0  0  0  0  0  0  0
   -5.0149   23.6910  -24.4624 N   0  0  0  0  0  0  0  0  0  0  0  0
  9 10  1  0  0  0
 10 11  2  0  0  0
 11 12  1  0  0  0
 12 13  2  0  0  0
 13 14  1  0  0  0
 14 15  2  0  0  0
 13  1  1  0  0  0
  1  2  2  0  0  0
  2  3  1  0  0  0
  3  4  2  0  0  0
  4  5  1  0  0  0
  5  6  1  0  0  0
  5  7  2  0  0  0
 15 10  1  0  0  0
  7  1  1  0  0  0
  6  8  1  0  0  0
M  END
> <minimizedAffinity>
-6.75901

> <CNNscore>
0.6300952435

> <CNNaffinity>
4.8624653816

> <CNN_VS>
3.0638163090

> <CNNaffinity_variance>
0.1829780489

$$$$
[H]Oc1c([H])c([H])c([H])c(-c2c([H])nc(C([H])([H])[H])c([H])c2[H])c1[H]


 15 16  0  0  0  0  0  0  0  0999 V2000
   -4.9389   24.6720  -28.4658 C   0  0  0  0  0  0  0  0  0  0  0  0
   -3.6515   24.6100  -28.9945 C   0  0  0  0  0  0  0  0  0  0  0  0
   -3.2983   25.2670  -30.1544 C   0  0  0  0  0  0  0  0  0  0  0  0
   -4.2634   26.0083  -30.8047 C   0  0  0  0  0  0  0  0  0  0  0  0
   -5.5570   26.1090  -30.3314 C   0  0  0  0  0  0  0  0  0  0  0  0
   -6.5308   26.8536  -30.9816 O   0  0  0  0  0  0  0  0  0  0  0  0
   -5.8564   25.4269  -29.1592 C   0  0  0  0  0  0  0  0  0  0  0  0
   -7.4604   26.8913  -30.5894 H   0  0  0  0  0  0  0  0  0  0  0  0
   -6.1413   21.8381  -23.6247 C   0  0  0  0  0  0  0  0  0  0  0  0
   -5.8543   22.5942  -24.8924 C   0  0  0  0  0  0  0  0  0  0  0  0
   -6.7238   23.5118  -25.4212 C   0  0  0  0  0  0  0  0  0  0  0  0
   -6.4353   24.1938  -26.5857 C   0  0  0  0  0  0  0  0  0  0  0  0
   -5.2635   23.9597  -27.2347 C   0  0  0  0  0  0  0  0  0  0  0  0
   -4.3958   23.0341  -26.6941 C   0  0  0  0  0  0  0  0  0  0  0  0
   -4.7082   22.3872  -25.5576 N   0  0  0  0  0  0  0  0  0  0  0  0
  9 10  1  0  0  0
 10 11  2  0  0  0
 11 12  1  0  0  0
 12 13  2  0  0  0
 13 14  1  0  0  0
 14 15  2  0  0  0
 13  1  1  0  0  0
  1  2  2  0  0  0
  2  3  1  0  0  0
  3  4  2  0  0  0
  4  5  1  0  0  0
  5  6  1  0  0  0
  5  7  2  0  0  0
 15 10  1  0  0  0
  7  1  1  0  0  0
  6  8  1  0  0  0
M  END
> <minimizedAffinity>
-6.42196

> <CNNscore>
0.6272291541

> <CNNaffinity>
4.8083181381

> <CNN_VS>
3.0159173012

> <CNNaffinity_variance>
0.2100227326

$$$$
[H]Oc1c([H])c([H])c([H])c(-c2c([H])nc(C([H])([H])[H])c([H])c2[H])c1[H]


 15 16  0  0  0  0  0  0  0  0999 V2000
   -2.5072   22.6444  -26.7117 C   0  0  0  0  0  0  0  0  0  0  0  0
   -2.7940   23.1042  -27.9950 C   0  0  0  0  0  0  0  0  0  0  0  0
   -1.8067   23.3763  -28.9186 C   0  0  0  0  0  0  0  0  0  0  0  0
   -0.4925   23.1823  -28.5458 C   0  0  0  0  0  0  0  0  0  0  0  0
   -0.1435   22.7286  -27.2888 C   0  0  0  0  0  0  0  0  0  0  0  0
    1.1767   22.5317  -26.9095 O   0  0  0  0  0  0  0  0  0  0  0  0
   -1.1787   22.4706  -26.3996 C   0  0  0  0  0  0  0  0  0  0  0  0
    1.3727   22.1982  -25.9768 H   0  0  0  0  0  0  0  0  0  0  0  0
   -6.8030   21.6149  -23.0511 C   0  0  0  0  0  0  0  0  0  0  0  0
   -5.6593   21.8642  -23.9951 C   0  0  0  0  0  0  0  0  0  0  0  0
   -4.4800   21.1694  -23.9307 C   0  0  0  0  0  0  0  0  0  0  0  0
   -3.4463   21.4165  -24.8108 C   0  0  0  0  0  0  0  0  0  0  0  0
   -3.5874   22.3697  -25.7703 C   0  0  0  0  0  0  0  0  0  0  0  0
   -4.7781   23.0632  -25.8262 C   0  0  0  0  0  0  0  0  0  0  0  0
   -5.7652   22.7971  -24.9528 N   0  0  0  0  0  0  0  0  0  0  0  0
  9 10  1  0  0  0
 10 11  2  0  0  0
 11 12  1  0  0  0
 12 13  2  0  0  0
 13 14  1  0  0  0
 14 15  2  0  0  0
 13  1  1  0  0  0
  1  2  2  0  0  0
  2  3  1  0  0  0
  3  4  2  0  0  0
  4  5  1  0  0  0
  5  6  1  0  0  0
  5  7  2  0  0  0
 15 10  1  0  0  0
  7  1  1  0  0  0
  6  8  1  0  0  0
M  END
> <minimizedAffinity>
-6.85730

> <CNNscore>
0.6234837174

> <CNNaffinity>
4.7611937523

> <CNN_VS>
2.9685268402

> <CNNaffinity_variance>
0.2727483213

$$$$
[H]Oc1c([H])c([H])c([H])c(-c2c([H])nc(C([H])([H])[H])c([H])c2[H])c1[H]


 15 16  0  0  0  0  0  0  0  0999 V2000
   -3.9048   23.7016  -28.7414 C   0  0  0  0  0  0  0  0  0  0  0  0
   -4.6876   22.7693  -29.4187 C   0  0  0  0  0  0  0  0  0  0  0  0
   -5.6092   23.1370  -30.3764 C   0  0  0  0  0  0  0  0  0  0  0  0
   -5.7514   24.4789  -30.6644 C   0  0  0  0  0  0  0  0  0  0  0  0
   -5.0053   25.4513  -30.0278 C   0  0  0  0  0  0  0  0  0  0  0  0
   -5.1446   26.8018  -30.3144 O   0  0  0  0  0  0  0  0  0  0  0  0
   -4.0923   25.0236  -29.0725 C   0  0  0  0  0  0  0  0  0  0  0  0
   -4.5721   27.4686  -29.8172 H   0  0  0  0  0  0  0  0  0  0  0  0
   -0.1800   21.9723  -24.7353 C   0  0  0  0  0  0  0  0  0  0  0  0
   -1.1333   22.4255  -25.8064 C   0  0  0  0  0  0  0  0  0  0  0  0
   -0.7630   22.5629  -27.1184 C   0  0  0  0  0  0  0  0  0  0  0  0
   -1.6584   22.9789  -28.0826 C   0  0  0  0  0  0  0  0  0  0  0  0
   -2.9425   23.2627  -27.7366 C   0  0  0  0  0  0  0  0  0  0  0  0
   -3.3045   23.1212  -26.4135 C   0  0  0  0  0  0  0  0  0  0  0  0
   -2.4067   22.7137  -25.4993 N   0  0  0  0  0  0  0  0  0  0  0  0
  9 10  1  0  0  0
 10 11  2  0  0  0
 11 12  1  0  0  0
 12 13  2  0  0  0
 13 14  1  0  0  0
 14 15  2  0  0  0
 13  1  1  0  0  0
  1  2  2  0  0  0
  2  3  1  0  0  0
  3  4  2  0  0  0
  4  5  1  0  0  0
  5  6  1  0  0  0
  5  7  2  0  0  0
 15 10  1  0  0  0
  7  1  1  0  0  0
  6  8  1  0  0  0
M  END
> <minimizedAffinity>
-7.35809

> <CNNscore>
0.5302377939

> <CNNaffinity>
4.9903273582

> <CNN_VS>
2.6460602283

> <CNNaffinity_variance>
0.0821815580

$$$$
[H]Oc1c([H])c([H])c([H])c(-c2c([H])nc(C([H])([H])[H])c([H])c2[H])c1[H]


 15 16  0  0  0  0  0  0  0  0999 V2000
   -1.1671   22.4452  -24.5174 C   0  0  0  0  0  0  0  0  0  0  0  0
   -2.3904   22.2502  -25.1546 C   0  0  0  0  0  0  0  0  0  0  0  0
   -2.5005   22.1542  -26.5259 C   0  0  0  0  0  0  0  0  0  0  0  0
   -1.3508   22.2569  -27.2820 C   0  0  0  0  0  0  0  0  0  0  0  0
   -0.1087   22.4505  -26.7099 C   0  0  0  0  0  0  0  0  0  0  0  0
    1.0502   22.5540  -27.4661 O   0  0  0  0  0  0  0  0  0  0  0  0
   -0.0573   22.5395  -25.3248 C   0  0  0  0  0  0  0  0  0  0  0  0
    1.9312   22.6953  -26.9935 H   0  0  0  0  0  0  0  0  0  0  0  0
   -0.9607   22.8804  -18.8006 C   0  0  0  0  0  0  0  0  0  0  0  0
   -0.9970   22.7407  -20.2974 C   0  0  0  0  0  0  0  0  0  0  0  0
   -0.4251   21.6848  -20.9574 C   0  0  0  0  0  0  0  0  0  0  0  0
   -0.4743   21.5795  -22.3325 C   0  0  0  0  0  0  0  0  0  0  0  0
   -1.1022   22.5394  -23.0629 C   0  0  0  0  0  0  0  0  0  0  0  0
   -1.6741   23.5978  -22.3888 C   0  0  0  0  0  0  0  0  0  0  0  0
   -1.6077   23.6696  -21.0478 N   0  0  0  0  0  0  0  0  0  0  0  0
  9 10  1  0  0  0
 10 11  2  0  0  0
 11 12  1  0  0  0
 12 13  2  0  0  0
 13 14  1  0  0  0
 14 15  2  0  0  0
 13  1  1  0  0  0
  1  2  2  0  0  0
  2  3  1  0  0  0
  3  4  2  0  0  0
  4  5  1  0  0  0
  5  6  1  0  0  0
  5  7  2  0  0  0
 15 10  1  0  0  0
  7  1  1  0  0  0
  6  8  1  0  0  0
M  END
> <minimizedAffinity>
-6.73101

> <CNNscore>
0.5295709372

> <CNNaffinity>
4.3495202065

> <CNN_VS>
2.3033795357

> <CNNaffinity_variance>
0.0611781366

$$$$
[H]Oc1c([H])c([H])c([H])c(-c2c([H])nc(C([H])([H])[H])c([H])c2[H])c1[H]


 15 16  0  0  0  0  0  0  0  0999 V2000
   -2.3284   22.4884  -25.8484 C   0  0  0  0  0  0  0  0  0  0  0  0
   -3.0623   22.7790  -26.9963 C   0  0  0  0  0  0  0  0  0  0  0  0
   -2.4617   23.0244  -28.2131 C   0  0  0  0  0  0  0  0  0  0  0  0
   -1.0844   22.9777  -28.2826 C   0  0  0  0  0  0  0  0  0  0  0  0
   -0.3012   22.6953  -27.1806 C   0  0  0  0  0  0  0  0  0  0  0  0
    1.0841   22.6469  -27.2458 O   0  0  0  0  0  0  0  0  0  0  0  0
   -0.9595   22.4562  -25.9814 C   0  0  0  0  0  0  0  0  0  0  0  0
    1.6057   22.4355  -26.4076 H   0  0  0  0  0  0  0  0  0  0  0  0
   -4.9517   21.5326  -20.8366 C   0  0  0  0  0  0  0  0  0  0  0  0
   -4.2875   21.7685  -22.1649 C   0  0  0  0  0  0  0  0  0  0  0  0
   -4.8661   21.4162  -23.3560 C   0  0  0  0  0  0  0  0  0  0  0  0
   -4.2357   21.6458  -24.5619 C   0  0  0  0  0  0  0  0  0  0  0  0
   -3.0104   22.2351  -24.5838 C   0  0  0  0  0  0  0  0  0  0  0  0
   -2.4370   22.5854  -23.3796 C   0  0  0  0  0  0  0  0  0  0  0  0
   -3.0789   22.3473  -22.2224 N   0  0  0  0  0  0  0  0  0  0  0  0
  9 10  1  0  0  0
 10 11  2  0  0  0
 11 12  1  0  0  0
 12 13  2  0  0  0
 13 14  1  0  0  0
 14 15  2  0  0  0
 13  1  1  0  0  0
  1  2  2  0  0  0
  2  3  1  0  0  0
  3  4  2  0  0  0
  4  5  1  0  0  0
  5  6  1  0  0  0
  5  7  2  0  0  0
 15 10  1  0  0  0
  7  1  1  0  0  0
  6  8  1  0  0  0
M  END
> <minimizedAffinity>
-6.20550

> <CNNscore>
0.5073564053

> <CNNaffinity>
4.5279722214

> <CNN_VS>
2.2972958088

> <CNNaffinity_variance>
0.0900652558

$$$$
[H]Oc1c([H])c([H])c([H])c(-c2c([H])nc(C([H])([H])[H])c([H])c2[H])c1[H]


 15 16  0  0  0  0  0  0  0  0999 V2000
   -4.8892   23.7127  -26.8312 C   0  0  0  0  0  0  0  0  0  0  0  0
   -3.7558   23.1405  -27.4046 C   0  0  0  0  0  0  0  0  0  0  0  0
   -3.2365   23.5769  -28.6052 C   0  0  0  0  0  0  0  0  0  0  0  0
   -3.8713   24.6178  -29.2514 C   0  0  0  0  0  0  0  0  0  0  0  0
   -4.9983   25.2266  -28.7348 C   0  0  0  0  0  0  0  0  0  0  0  0
   -5.6398   26.2737  -29.3808 O   0  0  0  0  0  0  0  0  0  0  0  0
   -5.4772   24.7463  -27.5228 C   0  0  0  0  0  0  0  0  0  0  0  0
   -6.4605   26.6807  -28.9560 H   0  0  0  0  0  0  0  0  0  0  0  0
   -6.9545   21.8177  -21.8255 C   0  0  0  0  0  0  0  0  0  0  0  0
   -6.3923   22.2911  -23.1374 C   0  0  0  0  0  0  0  0  0  0  0  0
   -5.4065   21.6160  -23.8083 C   0  0  0  0  0  0  0  0  0  0  0  0
   -4.9092   22.0712  -25.0124 C   0  0  0  0  0  0  0  0  0  0  0  0
   -5.4000   23.2160  -25.5581 C   0  0  0  0  0  0  0  0  0  0  0  0
   -6.3917   23.8877  -24.8746 C   0  0  0  0  0  0  0  0  0  0  0  0
   -6.8537   23.4162  -23.7033 N   0  0  0  0  0  0  0  0  0  0  0  0
  9 10  1  0  0  0
 10 11  2  0  0  0
 11 12  1  0  0  0
 12 13  2  0  0  0
 13 14  1  0  0  0
 14 15  2  0  0  0
 13  1  1  0  0  0
  1  2  2  0  0  0
  2  3  1  0  0  0
  3  4  2  0  0  0
  4  5  1  0  0  0
  5  6  1  0  0  0
  5  7  2  0  0  0
 15 10  1  0  0  0
  7  1  1  0  0  0
  6  8  1  0  0  0
M  END
> <minimizedAffinity>
-5.97791

> <CNNscore>
0.4881602526

> <CNNaffinity>
4.7578611374

> <CNN_VS>
2.3225986958

> <CNNaffinity_variance>
0.0592211261

$$$$
[H]c1nc(N2C([H])([H])C([H])([H])N(c3c([H])c([H])c([H])c([H])c3OC([H])([H])[H])C([H])([H])C([H])([H])C2([H])[H])c2c([H])nn(-c3c([H])c([H])c([H])c([H])c3[H])c2n1


 30 34  0  0  0  0  0  0  0  0999 V2000
   -0.2753   21.8239  -19.6918 N   0  0  0  0  0  0  0  0  0  0  0  0
   -0.6563   20.4515  -19.9686 C   0  0  0  0  0  0  0  0  0  0  0  0
    0.0467   19.8595  -21.1551 C   0  0  0  0  0  0  0  0  0  0  0  0
    0.3495   20.8170  -22.2567 C   0  0  0  0  0  0  0  0  0  0  0  0
   -0.6153   21.8212  -22.4974 N   0  0  0  0  0  0  0  0  0  0  0  0
   -1.5172   22.5919  -21.6596 C   0  0  0  0  0  0  0  0  0  0  0  0
   -0.8648   22.9804  -20.3514 C   0  0  0  0  0  0  0  0  0  0  0  0
   -0.7516   22.1744  -23.8697 C   0  0  0  0  0  0  0  0  0  0  0  0
    0.2985   22.0765  -24.7263 N   0  0  0  0  0  0  0  0  0  0  0  0
    0.0975   22.4190  -26.0069 C   0  0  0  0  0  0  0  0  0  0  0  0
   -1.1022   22.8542  -26.4700 N   0  0  0  0  0  0  0  0  0  0  0  0
   -2.1674   22.9667  -25.6586 C   0  0  0  0  0  0  0  0  0  0  0  0
   -3.4316   23.3643  -25.8590 N   0  0  0  0  0  0  0  0  0  0  0  0
   -4.0677   23.2797  -24.6862 N   0  0  0  0  0  0  0  0  0  0  0  0
   -3.2236   22.8331  -23.7429 C   0  0  0  0  0  0  0  0  0  0  0  0
   -1.9932   22.6222  -24.3367 C   0  0  0  0  0  0  0  0  0  0  0  0
   -4.0477   23.8055  -27.0638 C   0  0  0  0  0  0  0  0  0  0  0  0
   -4.4875   25.1054  -27.1789 C   0  0  0  0  0  0  0  0  0  0  0  0
   -5.0920   25.5347  -28.3639 C   0  0  0  0  0  0  0  0  0  0  0  0
   -5.2479   24.6655  -29.4102 C   0  0  0  0  0  0  0  0  0  0  0  0
   -4.8145   23.3632  -29.3128 C   0  0  0  0  0  0  0  0  0  0  0  0
   -4.2180   22.9570  -28.1302 C   0  0  0  0  0  0  0  0  0  0  0  0
    0.4153   22.0425  -17.3840 C   0  0  0  0  0  0  0  0  0  0  0  0
    1.4265   22.2774  -16.4525 C   0  0  0  0  0  0  0  0  0  0  0  0
    2.7312   22.5331  -16.8191 C   0  0  0  0  0  0  0  0  0  0  0  0
    3.0280   22.5532  -18.1600 C   0  0  0  0  0  0  0  0  0  0  0  0
    2.0344   22.3213  -19.1061 C   0  0  0  0  0  0  0  0  0  0  0  0
    0.7274   22.0656  -18.7186 C   0  0  0  0  0  0  0  0  0  0  0  0
   -1.1138   20.6895  -16.1326 C   0  0  0  0  0  0  0  0  0  0  0  0
   -0.8911   21.7881  -16.9969 O   0  0  0  0  0  0  0  0  0  0  0  0
 29 30  1  0  0  0
 30 23  1  0  0  0
 23 24  2  0  0  0
 24 25  1  0  0  0
 25 26  2  0  0  0
 26 27  1  0  0  0
 27 28  2  0  0  0
 28  1  1  0  0  0
  1  2  1  0  0  0
  2  3  1  0  0  0
  3  4  1  0  0  0
  4  5  1  0  0  0
  5  6  1  0  0  0
  6  7  1  0  0  0
  5  8  1  0  0  0
  8  9  2  0  0  0
  9 10  1  0  0  0
 10 11  2  0  0  0
 11 12  1  0  0  0
 12 13  1  0  0  0
 13 14  1  0  0  0
 14 15  2  0  0  0
 15 16  1  0  0  0
 13 17  1  0  0  0
 17 18  2  0  0  0
 18 19  1  0  0  0
 19 20  2  0  0  0
 20 21  1  0  0  0
 21 22  2  0  0  0
 28 23  1  0  0  0
  7  1  1  0  0  0
 16  8  1  0  0  0
 22 17  1  0  0  0
 16 12  2  0  0  0
M  END
> <minimizedAffinity>
-7.69975

> <CNNscore>
0.2943617105

> <CNNaffinity>
6.2296171188

> <CNN_VS>
1.8337607384

> <CNNaffinity_variance>
0.1307778955

$$$$
[H]c1nc(N2C([H])([H])C([H])([H])N(c3c([H])c([H])c([H])c([H])c3OC([H])([H])[H])C([H])([H])C([H])([H])C2([H])[H])c2c([H])nn(-c3c([H])c([H])c([H])c([H])c3[H])c2n1


 30 34  0  0  0  0  0  0  0  0999 V2000
    0.0352   21.7231  -18.9638 N   0  0  0  0  0  0  0  0  0  0  0  0
   -0.5545   20.4097  -19.1441 C   0  0  0  0  0  0  0  0  0  0  0  0
    0.0031   19.6554  -20.3158 C   0  0  0  0  0  0  0  0  0  0  0  0
    0.3962   20.4953  -21.4829 C   0  0  0  0  0  0  0  0  0  0  0  0
   -0.4201   21.6174  -21.7510 N   0  0  0  0  0  0  0  0  0  0  0  0
   -1.1627   22.5586  -20.9314 C   0  0  0  0  0  0  0  0  0  0  0  0
   -0.4055   22.9166  -19.6719 C   0  0  0  0  0  0  0  0  0  0  0  0
   -0.5611   21.9112  -23.1368 C   0  0  0  0  0  0  0  0  0  0  0  0
    0.5219   21.9654  -23.9555 N   0  0  0  0  0  0  0  0  0  0  0  0
    0.3154   22.2404  -25.2515 C   0  0  0  0  0  0  0  0  0  0  0  0
   -0.9209   22.4633  -25.7659 N   0  0  0  0  0  0  0  0  0  0  0  0
   -2.0195   22.4200  -24.9933 C   0  0  0  0  0  0  0  0  0  0  0  0
   -3.3231   22.6017  -25.2463 N   0  0  0  0  0  0  0  0  0  0  0  0
   -3.9800   22.4423  -24.0929 N   0  0  0  0  0  0  0  0  0  0  0  0
   -3.1101   22.1615  -23.1099 C   0  0  0  0  0  0  0  0  0  0  0  0
   -1.8407   22.1397  -23.6569 C   0  0  0  0  0  0  0  0  0  0  0  0
   -3.9577   22.9081  -26.4829 C   0  0  0  0  0  0  0  0  0  0  0  0
   -5.2660   23.3377  -26.5001 C   0  0  0  0  0  0  0  0  0  0  0  0
   -5.8855   23.6377  -27.7168 C   0  0  0  0  0  0  0  0  0  0  0  0
   -5.1943   23.5052  -28.8912 C   0  0  0  0  0  0  0  0  0  0  0  0
   -3.8866   23.0772  -28.8928 C   0  0  0  0  0  0  0  0  0  0  0  0
   -3.2905   22.7849  -27.6769 C   0  0  0  0  0  0  0  0  0  0  0  0
    2.3891   22.0170  -18.4911 C   0  0  0  0  0  0  0  0  0  0  0  0
    3.4152   22.1618  -17.5576 C   0  0  0  0  0  0  0  0  0  0  0  0
    3.1895   22.1587  -16.1971 C   0  0  0  0  0  0  0  0  0  0  0  0
    1.8956   22.0058  -15.7624 C   0  0  0  0  0  0  0  0  0  0  0  0
    0.8568   21.8600  -16.6766 C   0  0  0  0  0  0  0  0  0  0  0  0
    1.1029   21.8657  -18.0415 C   0  0  0  0  0  0  0  0  0  0  0  0
    3.7900   21.3428  -20.3125 C   0  0  0  0  0  0  0  0  0  0  0  0
    2.6351   22.0215  -19.8551 O   0  0  0  0  0  0  0  0  0  0  0  0
 29 30  1  0  0  0
 30 23  1  0  0  0
 23 24  2  0  0  0
 24 25  1  0  0  0
 25 26  2  0  0  0
 26 27  1  0  0  0
 27 28  2  0  0  0
 28  1  1  0  0  0
  1  2  1  0  0  0
  2  3  1  0  0  0
  3  4  1  0  0  0
  4  5  1  0  0  0
  5  6  1  0  0  0
  6  7  1  0  0  0
  5  8  1  0  0  0
  8  9  2  0  0  0
  9 10  1  0  0  0
 10 11  2  0  0  0
 11 12  1  0  0  0
 12 13  1  0  0  0
 13 14  1  0  0  0
 14 15  2  0  0  0
 15 16  1  0  0  0
 13 17  1  0  0  0
 17 18  2  0  0  0
 18 19  1  0  0  0
 19 20  2  0  0  0
 20 21  1  0  0  0
 21 22  2  0  0  0
 28 23  1  0  0  0
  7  1  1  0  0  0
 16  8  1  0  0  0
 22 17  1  0  0  0
 16 12  2  0  0  0
M  END
> <minimizedAffinity>
-7.75374

> <CNNscore>
0.1684100479

> <CNNaffinity>
5.9547905922

> <CNN_VS>
1.0028465986

> <CNNaffinity_variance>
0.0711149052

$$$$
[H]c1nc(N2C([H])([H])C([H])([H])N(c3c([H])c([H])c([H])c([H])c3OC([H])([H])[H])C([H])([H])C([H])([H])C2([H])[H])c2c([H])nn(-c3c([H])c([H])c([H])c([H])c3[H])c2n1


 30 34  0  0  0  0  0  0  0  0999 V2000
   -0.0496   21.5948  -17.6693 N   0  0  0  0  0  0  0  0  0  0  0  0
   -1.3997   21.6006  -17.1377 C   0  0  0  0  0  0  0  0  0  0  0  0
   -2.4118   20.9844  -18.0588 C   0  0  0  0  0  0  0  0  0  0  0  0
   -2.1506   21.1824  -19.5130 C   0  0  0  0  0  0  0  0  0  0  0  0
   -1.5929   22.4262  -19.8861 N   0  0  0  0  0  0  0  0  0  0  0  0
   -0.6480   23.3453  -19.2763 C   0  0  0  0  0  0  0  0  0  0  0  0
    0.4717   22.6076  -18.5762 C   0  0  0  0  0  0  0  0  0  0  0  0
   -2.0476   22.9087  -21.1459 C   0  0  0  0  0  0  0  0  0  0  0  0
   -3.1049   23.7577  -21.2311 N   0  0  0  0  0  0  0  0  0  0  0  0
   -3.4751   24.1784  -22.4491 C   0  0  0  0  0  0  0  0  0  0  0  0
   -2.8387   23.7903  -23.5837 N   0  0  0  0  0  0  0  0  0  0  0  0
   -1.7891   22.9521  -23.5467 C   0  0  0  0  0  0  0  0  0  0  0  0
   -1.0062   22.4243  -24.4980 N   0  0  0  0  0  0  0  0  0  0  0  0
   -0.1079   21.6440  -23.8887 N   0  0  0  0  0  0  0  0  0  0  0  0
   -0.3099   21.6693  -22.5619 C   0  0  0  0  0  0  0  0  0  0  0  0
   -1.3842   22.5020  -22.3098 C   0  0  0  0  0  0  0  0  0  0  0  0
   -1.0632   22.6147  -25.9073 C   0  0  0  0  0  0  0  0  0  0  0  0
   -2.2795   22.6365  -26.5529 C   0  0  0  0  0  0  0  0  0  0  0  0
   -2.3309   22.8238  -27.9371 C   0  0  0  0  0  0  0  0  0  0  0  0
   -1.1747   22.9853  -28.6525 C   0  0  0  0  0  0  0  0  0  0  0  0
    0.0491   22.9662  -28.0241 C   0  0  0  0  0  0  0  0  0  0  0  0
    0.0792   22.7794  -26.6517 C   0  0  0  0  0  0  0  0  0  0  0  0
    1.5691   20.6520  -16.1391 C   0  0  0  0  0  0  0  0  0  0  0  0
    2.4145   19.6001  -15.7867 C   0  0  0  0  0  0  0  0  0  0  0  0
    2.5339   18.4550  -16.5461 C   0  0  0  0  0  0  0  0  0  0  0  0
    1.7823   18.3646  -17.6921 C   0  0  0  0  0  0  0  0  0  0  0  0
    0.9323   19.4023  -18.0621 C   0  0  0  0  0  0  0  0  0  0  0  0
    0.8252   20.5466  -17.2857 C   0  0  0  0  0  0  0  0  0  0  0  0
    2.5336   22.7205  -15.4140 C   0  0  0  0  0  0  0  0  0  0  0  0
    1.4628   21.7961  -15.3639 O   0  0  0  0  0  0  0  0  0  0  0  0
 29 30  1  0  0  0
 30 23  1  0  0  0
 23 24  2  0  0  0
 24 25  1  0  0  0
 25 26  2  0  0  0
 26 27  1  0  0  0
 27 28  2  0  0  0
 28  1  1  0  0  0
  1  2  1  0  0  0
  2  3  1  0  0  0
  3  4  1  0  0  0
  4  5  1  0  0  0
  5  6  1  0  0  0
  6  7  1  0  0  0
  5  8  1  0  0  0
  8  9  2  0  0  0
  9 10  1  0  0  0
 10 11  2  0  0  0
 11 12  1  0  0  0
 12 13  1  0  0  0
 13 14  1  0  0  0
 14 15  2  0  0  0
 15 16  1  0  0  0
 13 17  1  0  0  0
 17 18  2  0  0  0
 18 19  1  0  0  0
 19 20  2  0  0  0
 20 21  1  0  0  0
 21 22  2  0  0  0
 28 23  1  0  0  0
  7  1  1  0  0  0
 16  8  1  0  0  0
 22 17  1  0  0  0
 16 12  2  0  0  0
M  END
> <minimizedAffinity>
-7.07260

> <CNNscore>
0.0864561871

> <CNNaffinity>
5.2500543594

> <CNN_VS>
0.4538996816

> <CNNaffinity_variance>
0.1753697097

$$$$
[H]c1nc(N2C([H])([H])C([H])([H])N(c3c([H])c([H])c([H])c([H])c3OC([H])([H])[H])C([H])([H])C([H])([H])C2([H])[H])c2c([H])nn(-c3c([H])c([H])c([H])c([H])c3[H])c2n1


 30 34  0  0  0  0  0  0  0  0999 V2000
   -3.9728   22.2542  -20.9887 N   0  0  0  0  0  0  0  0  0  0  0  0
   -2.5420   22.3203  -20.7566 C   0  0  0  0  0  0  0  0  0  0  0  0
   -1.8650   23.4426  -21.4877 C   0  0  0  0  0  0  0  0  0  0  0  0
   -2.4510   23.7800  -22.8161 C   0  0  0  0  0  0  0  0  0  0  0  0
   -2.9367   22.6953  -23.5808 N   0  0  0  0  0  0  0  0  0  0  0  0
   -3.5908   21.4371  -23.2670 C   0  0  0  0  0  0  0  0  0  0  0  0
   -4.5811   21.5930  -22.1344 C   0  0  0  0  0  0  0  0  0  0  0  0
   -2.7533   22.8496  -24.9841 C   0  0  0  0  0  0  0  0  0  0  0  0
   -1.6253   22.4041  -25.5966 N   0  0  0  0  0  0  0  0  0  0  0  0
   -1.5218   22.5759  -26.9223 C   0  0  0  0  0  0  0  0  0  0  0  0
   -2.4916   23.1711  -27.6626 N   0  0  0  0  0  0  0  0  0  0  0  0
   -3.6231   23.6267  -27.0988 C   0  0  0  0  0  0  0  0  0  0  0  0
   -4.7078   24.2403  -27.5920 N   0  0  0  0  0  0  0  0  0  0  0  0
   -5.5351   24.4735  -26.5681 N   0  0  0  0  0  0  0  0  0  0  0  0
   -4.9897   24.0158  -25.4302 C   0  0  0  0  0  0  0  0  0  0  0  0
   -3.7597   23.4651  -25.7380 C   0  0  0  0  0  0  0  0  0  0  0  0
   -4.9919   24.6048  -28.9382 C   0  0  0  0  0  0  0  0  0  0  0  0
   -5.5679   23.6924  -29.7940 C   0  0  0  0  0  0  0  0  0  0  0  0
   -5.8453   24.0545  -31.1154 C   0  0  0  0  0  0  0  0  0  0  0  0
   -5.5454   25.3141  -31.5605 C   0  0  0  0  0  0  0  0  0  0  0  0
   -4.9698   26.2383  -30.7193 C   0  0  0  0  0  0  0  0  0  0  0  0
   -4.7026   25.8603  -29.4135 C   0  0  0  0  0  0  0  0  0  0  0  0
   -5.6117   23.9366  -20.4108 C   0  0  0  0  0  0  0  0  0  0  0  0
   -6.4600   24.5077  -19.4623 C   0  0  0  0  0  0  0  0  0  0  0  0
   -6.5558   24.0364  -18.1697 C   0  0  0  0  0  0  0  0  0  0  0  0
   -5.7769   22.9603  -17.8206 C   0  0  0  0  0  0  0  0  0  0  0  0
   -4.9238   22.3753  -18.7512 C   0  0  0  0  0  0  0  0  0  0  0  0
   -4.8408   22.8630  -20.0470 C   0  0  0  0  0  0  0  0  0  0  0  0
   -6.7346   24.8079  -22.3380 C   0  0  0  0  0  0  0  0  0  0  0  0
   -5.5278   24.4247  -21.7053 O   0  0  0  0  0  0  0  0  0  0  0  0
 29 30  1  0  0  0
 30 23  1  0  0  0
 23 24  2  0  0  0
 24 25  1  0  0  0
 25 26  2  0  0  0
 26 27  1  0  0  0
 27 28  2  0  0  0
 28  1  1  0  0  0
  1  2  1  0  0  0
  2  3  1  0  0  0
  3  4  1  0  0  0
  4  5  1  0  0  0
  5  6  1  0  0  0
  6  7  1  0  0  0
  5  8  1  0  0  0
  8  9  2  0  0  0
  9 10  1  0  0  0
 10 11  2  0  0  0
 11 12  1  0  0  0
 12 13  1  0  0  0
 13 14  1  0  0  0
 14 15  2  0  0  0
 15 16  1  0  0  0
 13 17  1  0  0  0
 17 18  2  0  0  0
 18 19  1  0  0  0
 19 20  2  0  0  0
 20 21  1  0  0  0
 21 22  2  0  0  0
 28 23  1  0  0  0
  7  1  1  0  0  0
 16  8  1  0  0  0
 22 17  1  0  0  0
 16 12  2  0  0  0
M  END
> <minimizedAffinity>
-8.88547

> <CNNscore>
0.0824221224

> <CNNaffinity>
6.1320843697

> <CNN_VS>
0.5054194331

> <CNNaffinity_variance>
0.4272424579

$$$$
[H]c1nc(N2C([H])([H])C([H])([H])N(c3c([H])c([H])c([H])c([H])c3OC([H])([H])[H])C([H])([H])C([H])([H])C2([H])[H])c2c([H])nn(-c3c([H])c([H])c([H])c([H])c3[H])c2n1


 30 34  0  0  0  0  0  0  0  0999 V2000
   -3.5331   22.5127  -25.3627 N   0  0  0  0  0  0  0  0  0  0  0  0
   -4.3038   23.7355  -25.2351 C   0  0  0  0  0  0  0  0  0  0  0  0
   -4.0813   24.4541  -23.9364 C   0  0  0  0  0  0  0  0  0  0  0  0
   -3.8218   23.5753  -22.7606 C   0  0  0  0  0  0  0  0  0  0  0  0
   -4.5301   22.3530  -22.7231 N   0  0  0  0  0  0  0  0  0  0  0  0
   -4.9780   21.4016  -23.7249 C   0  0  0  0  0  0  0  0  0  0  0  0
   -3.9525   21.2271  -24.8231 C   0  0  0  0  0  0  0  0  0  0  0  0
   -4.9001   21.9396  -21.4121 C   0  0  0  0  0  0  0  0  0  0  0  0
   -3.9661   21.7770  -20.4387 N   0  0  0  0  0  0  0  0  0  0  0  0
   -4.3857   21.3927  -19.2247 C   0  0  0  0  0  0  0  0  0  0  0  0
   -5.6930   21.1638  -18.9391 N   0  0  0  0  0  0  0  0  0  0  0  0
   -6.6500   21.3120  -19.8706 C   0  0  0  0  0  0  0  0  0  0  0  0
   -7.9803   21.1500  -19.8487 N   0  0  0  0  0  0  0  0  0  0  0  0
   -8.4375   21.4340  -21.0724 N   0  0  0  0  0  0  0  0  0  0  0  0
   -7.4144   21.7746  -21.8718 C   0  0  0  0  0  0  0  0  0  0  0  0
   -6.2510   21.7061  -21.1283 C   0  0  0  0  0  0  0  0  0  0  0  0
   -8.8130   20.7534  -18.7647 C   0  0  0  0  0  0  0  0  0  0  0  0
   -9.9475   21.4745  -18.4654 C   0  0  0  0  0  0  0  0  0  0  0  0
  -10.7627   21.0816  -17.4000 C   0  0  0  0  0  0  0  0  0  0  0  0
  -10.4355   19.9816  -16.6534 C   0  0  0  0  0  0  0  0  0  0  0  0
   -9.3059   19.2494  -16.9382 C   0  0  0  0  0  0  0  0  0  0  0  0
   -8.5111   19.6548  -17.9979 C   0  0  0  0  0  0  0  0  0  0  0  0
   -2.2739   22.7537  -27.4138 C   0  0  0  0  0  0  0  0  0  0  0  0
   -1.0415   22.8020  -28.0651 C   0  0  0  0  0  0  0  0  0  0  0  0
    0.1581   22.6622  -27.3991 C   0  0  0  0  0  0  0  0  0  0  0  0
    0.1178   22.4683  -26.0400 C   0  0  0  0  0  0  0  0  0  0  0  0
   -1.1008   22.4171  -25.3704 C   0  0  0  0  0  0  0  0  0  0  0  0
   -2.2975   22.5599  -26.0569 C   0  0  0  0  0  0  0  0  0  0  0  0
   -3.6256   24.0455  -28.9101 C   0  0  0  0  0  0  0  0  0  0  0  0
   -3.4699   22.8953  -28.1000 O   0  0  0  0  0  0  0  0  0  0  0  0
 29 30  1  0  0  0
 30 23  1  0  0  0
 23 24  2  0  0  0
 24 25  1  0  0  0
 25 26  2  0  0  0
 26 27  1  0  0  0
 27 28  2  0  0  0
 28  1  1  0  0  0
  1  2  1  0  0  0
  2  3  1  0  0  0
  3  4  1  0  0  0
  4  5  1  0  0  0
  5  6  1  0  0  0
  6  7  1  0  0  0
  5  8  1  0  0  0
  8  9  2  0  0  0
  9 10  1  0  0  0
 10 11  2  0  0  0
 11 12  1  0  0  0
 12 13  1  0  0  0
 13 14  1  0  0  0
 14 15  2  0  0  0
 15 16  1  0  0  0
 13 17  1  0  0  0
 17 18  2  0  0  0
 18 19  1  0  0  0
 19 20  2  0  0  0
 20 21  1  0  0  0
 21 22  2  0  0  0
 28 23  1  0  0  0
  7  1  1  0  0  0
 16  8  1  0  0  0
 22 17  1  0  0  0
 16 12  2  0  0  0
M  END
> <minimizedAffinity>
-8.25016

> <CNNscore>
0.0707990080

> <CNNaffinity>
5.5216960907

> <CNN_VS>
0.3909305930

> <CNNaffinity_variance>
0.1561028957

$$$$
[H]c1nc(N2C([H])([H])C([H])([H])N(c3c([H])c([H])c([H])c([H])c3OC([H])([H])[H])C([H])([H])C([H])([H])C2([H])[H])c2c([H])nn(-c3c([H])c([H])c([H])c([H])c3[H])c2n1


 30 34  0  0  0  0  0  0  0  0999 V2000
   -7.2853   21.6177  -18.7091 N   0  0  0  0  0  0  0  0  0  0  0  0
   -6.5048   20.4310  -19.0060 C   0  0  0  0  0  0  0  0  0  0  0  0
   -5.0375   20.7011  -19.1690 C   0  0  0  0  0  0  0  0  0  0  0  0
   -4.6979   22.0225  -19.7696 C   0  0  0  0  0  0  0  0  0  0  0  0
   -5.5697   22.4964  -20.7759 N   0  0  0  0  0  0  0  0  0  0  0  0
   -7.0005   22.4111  -21.0100 C   0  0  0  0  0  0  0  0  0  0  0  0
   -7.7828   22.5382  -19.7216 C   0  0  0  0  0  0  0  0  0  0  0  0
   -4.9171   23.2284  -21.8078 C   0  0  0  0  0  0  0  0  0  0  0  0
   -4.6964   24.5637  -21.6879 N   0  0  0  0  0  0  0  0  0  0  0  0
   -4.0699   25.1888  -22.6951 C   0  0  0  0  0  0  0  0  0  0  0  0
   -3.6548   24.5424  -23.8144 N   0  0  0  0  0  0  0  0  0  0  0  0
   -3.8522   23.2231  -23.9754 C   0  0  0  0  0  0  0  0  0  0  0  0
   -3.5504   22.3669  -24.9615 N   0  0  0  0  0  0  0  0  0  0  0  0
   -3.9887   21.1597  -24.5905 N   0  0  0  0  0  0  0  0  0  0  0  0
   -4.5652   21.2378  -23.3808 C   0  0  0  0  0  0  0  0  0  0  0  0
   -4.4933   22.5519  -22.9580 C   0  0  0  0  0  0  0  0  0  0  0  0
   -2.8902   22.6246  -26.1958 C   0  0  0  0  0  0  0  0  0  0  0  0
   -3.6023   23.1024  -27.2734 C   0  0  0  0  0  0  0  0  0  0  0  0
   -2.9501   23.3542  -28.4838 C   0  0  0  0  0  0  0  0  0  0  0  0
   -1.6050   23.1267  -28.6003 C   0  0  0  0  0  0  0  0  0  0  0  0
   -0.8779   22.6495  -27.5341 C   0  0  0  0  0  0  0  0  0  0  0  0
   -1.5424   22.4062  -26.3431 C   0  0  0  0  0  0  0  0  0  0  0  0
   -8.7536   21.4404  -16.7952 C   0  0  0  0  0  0  0  0  0  0  0  0
   -9.0217   21.7357  -15.4587 C   0  0  0  0  0  0  0  0  0  0  0  0
   -8.1645   22.4787  -14.6743 C   0  0  0  0  0  0  0  0  0  0  0  0
   -7.0050   22.9380  -15.2496 C   0  0  0  0  0  0  0  0  0  0  0  0
   -6.7178   22.6548  -16.5813 C   0  0  0  0  0  0  0  0  0  0  0  0
   -7.5920   21.9057  -17.3549 C   0  0  0  0  0  0  0  0  0  0  0  0
  -10.9591   21.1590  -17.6846 C   0  0  0  0  0  0  0  0  0  0  0  0
   -9.6277   20.6927  -17.5686 O   0  0  0  0  0  0  0  0  0  0  0  0
 29 30  1  0  0  0
 30 23  1  0  0  0
 23 24  2  0  0  0
 24 25  1  0  0  0
 25 26  2  0  0  0
 26 27  1  0  0  0
 27 28  2  0  0  0
 28  1  1  0  0  0
  1  2  1  0  0  0
  2  3  1  0  0  0
  3  4  1  0  0  0
  4  5  1  0  0  0
  5  6  1  0  0  0
  6  7  1  0  0  0
  5  8  1  0  0  0
  8  9  2  0  0  0
  9 10  1  0  0  0
 10 11  2  0  0  0
 11 12  1  0  0  0
 12 13  1  0  0  0
 13 14  1  0  0  0
 14 15  2  0  0  0
 15 16  1  0  0  0
 13 17  1  0  0  0
 17 18  2  0  0  0
 18 19  1  0  0  0
 19 20  2  0  0  0
 20 21  1  0  0  0
 21 22  2  0  0  0
 28 23  1  0  0  0
  7  1  1  0  0  0
 16  8  1  0  0  0
 22 17  1  0  0  0
 16 12  2  0  0  0
M  END
> <minimizedAffinity>
-7.14631

> <CNNscore>
0.0698243678

> <CNNaffinity>
5.1075615883

> <CNN_VS>
0.3566322625

> <CNNaffinity_variance>
0.2955569029

$$$$
[H]c1nc(N2C([H])([H])C([H])([H])N(c3c([H])c([H])c([H])c([H])c3OC([H])([H])[H])C([H])([H])C([H])([H])C2([H])[H])c2c([H])nn(-c3c([H])c([H])c([H])c([H])c3[H])c2n1


 30 34  0  0  0  0  0  0  0  0999 V2000
   -4.5051   22.9078  -20.5992 N   0  0  0  0  0  0  0  0  0  0  0  0
   -5.3633   21.7420  -20.6973 C   0  0  0  0  0  0  0  0  0  0  0  0
   -5.3586   21.1039  -22.0557 C   0  0  0  0  0  0  0  0  0  0  0  0
   -5.1977   22.0462  -23.1995 C   0  0  0  0  0  0  0  0  0  0  0  0
   -5.8242   23.3060  -23.0666 N   0  0  0  0  0  0  0  0  0  0  0  0
   -6.0756   24.2092  -21.9574 C   0  0  0  0  0  0  0  0  0  0  0  0
   -4.9069   24.2493  -20.9978 C   0  0  0  0  0  0  0  0  0  0  0  0
   -6.3339   23.8295  -24.2885 C   0  0  0  0  0  0  0  0  0  0  0  0
   -7.6055   24.3007  -24.3728 N   0  0  0  0  0  0  0  0  0  0  0  0
   -8.0177   24.7861  -25.5527 C   0  0  0  0  0  0  0  0  0  0  0  0
   -7.2193   24.8221  -26.6501 N   0  0  0  0  0  0  0  0  0  0  0  0
   -5.9556   24.3669  -26.6124 C   0  0  0  0  0  0  0  0  0  0  0  0
   -4.9844   24.2873  -27.5327 N   0  0  0  0  0  0  0  0  0  0  0  0
   -3.9179   23.7392  -26.9417 N   0  0  0  0  0  0  0  0  0  0  0  0
   -4.1990   23.4694  -25.6572 C   0  0  0  0  0  0  0  0  0  0  0  0
   -5.5021   23.8617  -25.4142 C   0  0  0  0  0  0  0  0  0  0  0  0
   -5.0134   24.6903  -28.8974 C   0  0  0  0  0  0  0  0  0  0  0  0
   -4.2584   25.7628  -29.3172 C   0  0  0  0  0  0  0  0  0  0  0  0
   -4.2897   26.1553  -30.6584 C   0  0  0  0  0  0  0  0  0  0  0  0
   -5.0695   25.4758  -31.5555 C   0  0  0  0  0  0  0  0  0  0  0  0
   -5.8302   24.4020  -31.1538 C   0  0  0  0  0  0  0  0  0  0  0  0
   -5.7857   24.0286  -29.8204 C   0  0  0  0  0  0  0  0  0  0  0  0
   -3.0060   22.5012  -18.7450 C   0  0  0  0  0  0  0  0  0  0  0  0
   -1.7053   22.3374  -18.2689 C   0  0  0  0  0  0  0  0  0  0  0  0
   -0.5983   22.4094  -19.0884 C   0  0  0  0  0  0  0  0  0  0  0  0
   -0.8045   22.6528  -20.4243 C   0  0  0  0  0  0  0  0  0  0  0  0
   -2.0938   22.8192  -20.9203 C   0  0  0  0  0  0  0  0  0  0  0  0
   -3.1954   22.7434  -20.0810 C   0  0  0  0  0  0  0  0  0  0  0  0
   -4.1443   21.3646  -16.9711 C   0  0  0  0  0  0  0  0  0  0  0  0
   -4.1068   22.4266  -17.9061 O   0  0  0  0  0  0  0  0  0  0  0  0
 29 30  1  0  0  0
 30 23  1  0  0  0
 23 24  2  0  0  0
 24 25  1  0  0  0
 25 26  2  0  0  0
 26 27  1  0  0  0
 27 28  2  0  0  0
 28  1  1  0  0  0
  1  2  1  0  0  0
  2  3  1  0  0  0
  3  4  1  0  0  0
  4  5  1  0  0  0
  5  6  1  0  0  0
  6  7  1  0  0  0
  5  8  1  0  0  0
  8  9  2  0  0  0
  9 10  1  0  0  0
 10 11  2  0  0  0
 11 12  1  0  0  0
 12 13  1  0  0  0
 13 14  1  0  0  0
 14 15  2  0  0  0
 15 16  1  0  0  0
 13 17  1  0  0  0
 17 18  2  0  0  0
 18 19  1  0  0  0
 19 20  2  0  0  0
 20 21  1  0  0  0
 21 22  2  0  0  0
 28 23  1  0  0  0
  7  1  1  0  0  0
 16  8  1  0  0  0
 22 17  1  0  0  0
 16 12  2  0  0  0
M  END
> <minimizedAffinity>
-7.32584

> <CNNscore>
0.0694387853

> <CNNaffinity>
5.7999691963

> <CNN_VS>
0.4027428031

> <CNNaffinity_variance>
0.1573022306

$$$$
[H]c1nc(N2C([H])([H])C([H])([H])N(c3c([H])c([H])c([H])c([H])c3OC([H])([H])[H])C([H])([H])C([H])([H])C2([H])[H])c2c([H])nn(-c3c([H])c([H])c([H])c([H])c3[H])c2n1


 30 34  0  0  0  0  0  0  0  0999 V2000
   -1.4304   21.4402  -21.0033 N   0  0  0  0  0  0  0  0  0  0  0  0
   -0.7674   20.8022  -22.1253 C   0  0  0  0  0  0  0  0  0  0  0  0
   -0.2541   21.7704  -23.1507 C   0  0  0  0  0  0  0  0  0  0  0  0
   -1.0795   22.9981  -23.3343 C   0  0  0  0  0  0  0  0  0  0  0  0
   -2.4791   22.8343  -23.2267 N   0  0  0  0  0  0  0  0  0  0  0  0
   -3.3499   21.9961  -22.4214 C   0  0  0  0  0  0  0  0  0  0  0  0
   -2.8281   21.8480  -21.0094 C   0  0  0  0  0  0  0  0  0  0  0  0
   -3.2278   23.6739  -24.0992 C   0  0  0  0  0  0  0  0  0  0  0  0
   -3.9357   24.7297  -23.6195 N   0  0  0  0  0  0  0  0  0  0  0  0
   -4.6123   25.4827  -24.4985 C   0  0  0  0  0  0  0  0  0  0  0  0
   -4.6141   25.2297  -25.8323 N   0  0  0  0  0  0  0  0  0  0  0  0
   -3.9285   24.1967  -26.3505 C   0  0  0  0  0  0  0  0  0  0  0  0
   -3.7717   23.7381  -27.6001 N   0  0  0  0  0  0  0  0  0  0  0  0
   -2.9774   22.6647  -27.5349 N   0  0  0  0  0  0  0  0  0  0  0  0
   -2.6273   22.4355  -26.2595 C   0  0  0  0  0  0  0  0  0  0  0  0
   -3.2229   23.4039  -25.4730 C   0  0  0  0  0  0  0  0  0  0  0  0
   -4.3170   24.2470  -28.8122 C   0  0  0  0  0  0  0  0  0  0  0  0
   -5.2432   23.5099  -29.5161 C   0  0  0  0  0  0  0  0  0  0  0  0
   -5.7764   24.0134  -30.7061 C   0  0  0  0  0  0  0  0  0  0  0  0
   -5.3797   25.2377  -31.1734 C   0  0  0  0  0  0  0  0  0  0  0  0
   -4.4554   25.9877  -30.4832 C   0  0  0  0  0  0  0  0  0  0  0  0
   -3.9387   25.4714  -29.3060 C   0  0  0  0  0  0  0  0  0  0  0  0
   -0.5014   20.6820  -18.9027 C   0  0  0  0  0  0  0  0  0  0  0  0
    0.2450   20.9509  -17.7555 C   0  0  0  0  0  0  0  0  0  0  0  0
    0.8096   22.1844  -17.5072 C   0  0  0  0  0  0  0  0  0  0  0  0
    0.6186   23.1758  -18.4383 C   0  0  0  0  0  0  0  0  0  0  0  0
   -0.1225   22.9290  -19.5898 C   0  0  0  0  0  0  0  0  0  0  0  0
   -0.6828   21.6819  -19.8228 C   0  0  0  0  0  0  0  0  0  0  0  0
   -0.1790   18.3409  -19.2902 C   0  0  0  0  0  0  0  0  0  0  0  0
   -1.0624   19.4360  -19.1350 O   0  0  0  0  0  0  0  0  0  0  0  0
 29 30  1  0  0  0
 30 23  1  0  0  0
 23 24  2  0  0  0
 24 25  1  0  0  0
 25 26  2  0  0  0
 26 27  1  0  0  0
 27 28  2  0  0  0
 28  1  1  0  0  0
  1  2  1  0  0  0
  2  3  1  0  0  0
  3  4  1  0  0  0
  4  5  1  0  0  0
  5  6  1  0  0  0
  6  7  1  0  0  0
  5  8  1  0  0  0
  8  9  2  0  0  0
  9 10  1  0  0  0
 10 11  2  0  0  0
 11 12  1  0  0  0
 12 13  1  0  0  0
 13 14  1  0  0  0
 14 15  2  0  0  0
 15 16  1  0  0  0
 13 17  1  0  0  0
 17 18  2  0  0  0
 18 19  1  0  0  0
 19 20  2  0  0  0
 20 21  1  0  0  0
 21 22  2  0  0  0
 28 23  1  0  0  0
  7  1  1  0  0  0
 16  8  1  0  0  0
 22 17  1  0  0  0
 16 12  2  0  0  0
M  END
> <minimizedAffinity>
-8.76425

> <CNNscore>
0.0688580647

> <CNNaffinity>
5.8435811996

> <CNN_VS>
0.4023776948

> <CNNaffinity_variance>
0.1342127472

$$$$
[H]c1nc(N2C([H])([H])C([H])([H])N(c3c([H])c([H])c([H])c([H])c3OC([H])([H])[H])C([H])([H])C([H])([H])C2([H])[H])c2c([H])nn(-c3c([H])c([H])c([H])c([H])c3[H])c2n1


 30 34  0  0  0  0  0  0  0  0999 V2000
   -8.5180   21.0019  -18.3381 N   0  0  0  0  0  0  0  0  0  0  0  0
   -7.5881   20.0146  -18.8537 C   0  0  0  0  0  0  0  0  0  0  0  0
   -6.2522   20.5854  -19.2306 C   0  0  0  0  0  0  0  0  0  0  0  0
   -6.2844   21.9751  -19.7688 C   0  0  0  0  0  0  0  0  0  0  0  0
   -7.3941   22.3085  -20.5778 N   0  0  0  0  0  0  0  0  0  0  0  0
   -8.8002   21.9447  -20.5822 C   0  0  0  0  0  0  0  0  0  0  0  0
   -9.3535   21.8486  -19.1777 C   0  0  0  0  0  0  0  0  0  0  0  0
   -7.0865   23.2062  -21.6391 C   0  0  0  0  0  0  0  0  0  0  0  0
   -7.3197   24.5393  -21.5193 N   0  0  0  0  0  0  0  0  0  0  0  0
   -6.9993   25.3278  -22.5554 C   0  0  0  0  0  0  0  0  0  0  0  0
   -6.4578   24.8463  -23.7033 N   0  0  0  0  0  0  0  0  0  0  0  0
   -6.2104   23.5355  -23.8654 C   0  0  0  0  0  0  0  0  0  0  0  0
   -5.6973   22.8198  -24.8759 N   0  0  0  0  0  0  0  0  0  0  0  0
   -5.6828   21.5395  -24.4916 N   0  0  0  0  0  0  0  0  0  0  0  0
   -6.1802   21.4324  -23.2495 C   0  0  0  0  0  0  0  0  0  0  0  0
   -6.5285   22.6990  -22.8188 C   0  0  0  0  0  0  0  0  0  0  0  0
   -5.2353   23.2710  -26.1442 C   0  0  0  0  0  0  0  0  0  0  0  0
   -6.1321   23.7326  -27.0818 C   0  0  0  0  0  0  0  0  0  0  0  0
   -5.6742   24.1749  -28.3263 C   0  0  0  0  0  0  0  0  0  0  0  0
   -4.3361   24.1500  -28.6150 C   0  0  0  0  0  0  0  0  0  0  0  0
   -3.4259   23.6922  -27.6902 C   0  0  0  0  0  0  0  0  0  0  0  0
   -3.8994   23.2582  -26.4628 C   0  0  0  0  0  0  0  0  0  0  0  0
   -8.0708   22.2417  -16.3099 C   0  0  0  0  0  0  0  0  0  0  0  0
   -8.2068   22.3678  -14.9275 C   0  0  0  0  0  0  0  0  0  0  0  0
   -8.8837   21.4441  -14.1589 C   0  0  0  0  0  0  0  0  0  0  0  0
   -9.4396   20.3629  -14.7979 C   0  0  0  0  0  0  0  0  0  0  0  0
   -9.3160   20.2176  -16.1762 C   0  0  0  0  0  0  0  0  0  0  0  0
   -8.6316   21.1571  -16.9331 C   0  0  0  0  0  0  0  0  0  0  0  0
   -6.2152   23.7428  -16.5040 C   0  0  0  0  0  0  0  0  0  0  0  0
   -7.3859   23.1798  -17.0661 O   0  0  0  0  0  0  0  0  0  0  0  0
 29 30  1  0  0  0
 30 23  1  0  0  0
 23 24  2  0  0  0
 24 25  1  0  0  0
 25 26  2  0  0  0
 26 27  1  0  0  0
 27 28  2  0  0  0
 28  1  1  0  0  0
  1  2  1  0  0  0
  2  3  1  0  0  0
  3  4  1  0  0  0
  4  5  1  0  0  0
  5  6  1  0  0  0
  6  7  1  0  0  0
  5  8  1  0  0  0
  8  9  2  0  0  0
  9 10  1  0  0  0
 10 11  2  0  0  0
 11 12  1  0  0  0
 12 13  1  0  0  0
 13 14  1  0  0  0
 14 15  2  0  0  0
 15 16  1  0  0  0
 13 17  1  0  0  0
 17 18  2  0  0  0
 18 19  1  0  0  0
 19 20  2  0  0  0
 20 21  1  0  0  0
 21 22  2  0  0  0
 28 23  1  0  0  0
  7  1  1  0  0  0
 16  8  1  0  0  0
 22 17  1  0  0  0
 16 12  2  0  0  0
M  END
> <minimizedAffinity>
-6.75005

> <CNNscore>
0.0686299428

> <CNNaffinity>
5.1364073753

> <CNN_VS>
0.3525113463

> <CNNaffinity_variance>
0.2285341024

$$$$
[H]O[C@]1([H])C([H])([H])C([H])([H])[C@]([H])(N([H])c2nc(-c3c([H])c(OC([H])([H])[H])c(OC([H])([H])[H])c(OC([H])([H])[H])c3[H])nc(N3C([H])([H])C([H])([H])OC([H])([H])C3([H])[H])n2)C([H])([H])C1([H])[H]


 34 37  0  0  0  0  0  0  0  0999 V2000
   -0.7503   21.2620  -22.5331 C   0  0  0  0  0  0  0  0  0  0  0  0
   -1.4508   20.8743  -21.4682 N   0  0  0  0  0  0  0  0  0  0  0  0
   -0.8304   20.4792  -20.3316 C   0  0  0  0  0  0  0  0  0  0  0  0
    0.5013   20.4953  -20.3260 N   0  0  0  0  0  0  0  0  0  0  0  0
    1.2197   20.8865  -21.4001 C   0  0  0  0  0  0  0  0  0  0  0  0
    0.5939   21.2746  -22.5169 N   0  0  0  0  0  0  0  0  0  0  0  0
   -1.4536   21.6866  -23.7556 C   0  0  0  0  0  0  0  0  0  0  0  0
   -0.7294   22.1728  -24.8275 C   0  0  0  0  0  0  0  0  0  0  0  0
   -1.4068   22.5671  -25.9681 C   0  0  0  0  0  0  0  0  0  0  0  0
   -2.7719   22.4948  -26.0787 C   0  0  0  0  0  0  0  0  0  0  0  0
   -3.4973   22.0132  -25.0189 C   0  0  0  0  0  0  0  0  0  0  0  0
   -2.8271   21.6097  -23.8565 C   0  0  0  0  0  0  0  0  0  0  0  0
   -0.6833   23.0545  -27.0430 O   0  0  0  0  0  0  0  0  0  0  0  0
    0.3579   22.3709  -27.6795 C   0  0  0  0  0  0  0  0  0  0  0  0
   -3.3951   22.8944  -27.2214 O   0  0  0  0  0  0  0  0  0  0  0  0
   -3.9636   24.1524  -27.4651 C   0  0  0  0  0  0  0  0  0  0  0  0
   -4.8793   21.9068  -25.0472 O   0  0  0  0  0  0  0  0  0  0  0  0
   -5.6484   21.4553  -23.9722 C   0  0  0  0  0  0  0  0  0  0  0  0
    2.6323   20.8833  -21.3368 N   0  0  0  0  0  0  0  0  0  0  0  0
    3.3525   21.4876  -20.2363 C   0  0  0  0  0  0  0  0  0  0  0  0
    4.4931   20.6110  -19.7722 C   0  0  0  0  0  0  0  0  0  0  0  0
    5.2125   20.0746  -20.8178 O   0  0  0  0  0  0  0  0  0  0  0  0
    4.4354   19.3676  -21.7137 C   0  0  0  0  0  0  0  0  0  0  0  0
    3.4071   20.2674  -22.3843 C   0  0  0  0  0  0  0  0  0  0  0  0
   -1.5850   20.0628  -19.2119 N   0  0  0  0  0  0  0  0  0  0  0  0
   -1.4326   19.0807  -18.8535 H   0  0  0  0  0  0  0  0  0  0  0  0
   -2.5327   20.8925  -18.5472 C   0  0  0  0  0  0  0  0  0  0  0  0
   -2.1441   22.3253  -18.3728 C   0  0  0  0  0  0  0  0  0  0  0  0
   -3.1183   22.9920  -17.4299 C   0  0  0  0  0  0  0  0  0  0  0  0
   -4.5461   22.8125  -17.8091 C   0  0  0  0  0  0  0  0  0  0  0  0
   -4.9815   23.7048  -18.7768 O   0  0  0  0  0  0  0  0  0  0  0  0
   -4.8884   21.4163  -18.2499 C   0  0  0  0  0  0  0  0  0  0  0  0
   -3.8879   20.8929  -19.2685 C   0  0  0  0  0  0  0  0  0  0  0  0
   -4.3144   23.7235  -19.5095 H   0  0  0  0  0  0  0  0  0  0  0  0
  1  7  1  0  0  0
  7  8  2  0  0  0
  8  9  1  0  0  0
  9 13  1  0  0  0
 13 14  1  0  0  0
  9 10  2  0  0  0
 10 15  1  0  0  0
 15 16  1  0  0  0
 10 11  1  0  0  0
 11 17  1  0  0  0
 17 18  1  0  0  0
 11 12  2  0  0  0
  1  2  2  0  0  0
  2  3  1  0  0  0
  3 25  1  0  0  0
 25 27  1  0  0  0
 27 28  1  0  0  0
 28 29  1  0  0  0
 29 30  1  0  0  0
 30 31  1  0  0  0
 30 32  1  0  0  0
 32 33  1  0  0  0
  3  4  2  0  0  0
  4  5  1  0  0  0
  5 19  1  0  0  0
 19 20  1  0  0  0
 20 21  1  0  0  0
 21 22  1  0  0  0
 22 23  1  0  0  0
 23 24  1  0  0  0
  5  6  2  0  0  0
  6  1  1  0  0  0
 12  7  1  0  0  0
 33 27  1  0  0  0
 24 19  1  0  0  0
 25 26  1  0  0  0
 31 34  1  0  0  0
M  END
> <minimizedAffinity>
-6.59361

> <CNNscore>
0.2388794720

> <CNNaffinity>
5.7800726891

> <CNN_VS>
1.3807407618

> <CNNaffinity_variance>
0.1046935916

$$$$
[H]O[C@]1([H])C([H])([H])C([H])([H])[C@]([H])(N([H])c2nc(-c3c([H])c(OC([H])([H])[H])c(OC([H])([H])[H])c(OC([H])([H])[H])c3[H])nc(N3C([H])([H])C([H])([H])OC([H])([H])C3([H])[H])n2)C([H])([H])C1([H])[H]


 34 37  0  0  0  0  0  0  0  0999 V2000
   -2.6974   22.0350  -23.2426 C   0  0  0  0  0  0  0  0  0  0  0  0
   -3.6231   22.2969  -22.3208 N   0  0  0  0  0  0  0  0  0  0  0  0
   -3.4103   22.0045  -21.0162 C   0  0  0  0  0  0  0  0  0  0  0  0
   -2.2431   21.4475  -20.6982 N   0  0  0  0  0  0  0  0  0  0  0  0
   -1.2991   21.1783  -21.6251 C   0  0  0  0  0  0  0  0  0  0  0  0
   -1.5224   21.4725  -22.9108 N   0  0  0  0  0  0  0  0  0  0  0  0
   -2.9580   22.3647  -24.6543 C   0  0  0  0  0  0  0  0  0  0  0  0
   -1.9181   22.3451  -25.5644 C   0  0  0  0  0  0  0  0  0  0  0  0
   -2.1813   22.6575  -26.8867 C   0  0  0  0  0  0  0  0  0  0  0  0
   -3.4358   22.9868  -27.3324 C   0  0  0  0  0  0  0  0  0  0  0  0
   -4.4727   23.0082  -26.4349 C   0  0  0  0  0  0  0  0  0  0  0  0
   -4.2236   22.6945  -25.0922 C   0  0  0  0  0  0  0  0  0  0  0  0
   -1.1411   22.6386  -27.8000 O   0  0  0  0  0  0  0  0  0  0  0  0
    0.2157   22.5936  -27.4630 C   0  0  0  0  0  0  0  0  0  0  0  0
   -3.6469   23.2869  -28.6436 O   0  0  0  0  0  0  0  0  0  0  0  0
   -3.7646   24.5695  -29.1971 C   0  0  0  0  0  0  0  0  0  0  0  0
   -5.7705   23.3300  -26.8013 O   0  0  0  0  0  0  0  0  0  0  0  0
   -6.3895   24.5433  -26.4922 C   0  0  0  0  0  0  0  0  0  0  0  0
   -0.0777   20.5858  -21.2293 N   0  0  0  0  0  0  0  0  0  0  0  0
    1.1549   20.8115  -21.9535 C   0  0  0  0  0  0  0  0  0  0  0  0
    2.3137   21.0541  -21.0136 C   0  0  0  0  0  0  0  0  0  0  0  0
    2.3245   20.1840  -19.9454 O   0  0  0  0  0  0  0  0  0  0  0  0
    1.1483   20.1873  -19.2222 C   0  0  0  0  0  0  0  0  0  0  0  0
   -0.0259   19.7261  -20.0738 C   0  0  0  0  0  0  0  0  0  0  0  0
   -4.4034   22.2802  -20.0497 N   0  0  0  0  0  0  0  0  0  0  0  0
   -4.1340   22.8841  -19.2257 H   0  0  0  0  0  0  0  0  0  0  0  0
   -5.7381   21.7896  -20.1287 C   0  0  0  0  0  0  0  0  0  0  0  0
   -6.3249   21.2720  -18.8551 C   0  0  0  0  0  0  0  0  0  0  0  0
   -7.6189   20.5546  -19.1610 C   0  0  0  0  0  0  0  0  0  0  0  0
   -8.5790   21.3562  -19.9671 C   0  0  0  0  0  0  0  0  0  0  0  0
   -9.3320   22.2445  -19.2145 O   0  0  0  0  0  0  0  0  0  0  0  0
   -7.9425   22.1051  -21.1049 C   0  0  0  0  0  0  0  0  0  0  0  0
   -6.7048   22.8624  -20.6500 C   0  0  0  0  0  0  0  0  0  0  0  0
   -8.7223   22.7381  -18.6088 H   0  0  0  0  0  0  0  0  0  0  0  0
  1  7  1  0  0  0
  7  8  2  0  0  0
  8  9  1  0  0  0
  9 13  1  0  0  0
 13 14  1  0  0  0
  9 10  2  0  0  0
 10 15  1  0  0  0
 15 16  1  0  0  0
 10 11  1  0  0  0
 11 17  1  0  0  0
 17 18  1  0  0  0
 11 12  2  0  0  0
  1  2  2  0  0  0
  2  3  1  0  0  0
  3 25  1  0  0  0
 25 27  1  0  0  0
 27 28  1  0  0  0
 28 29  1  0  0  0
 29 30  1  0  0  0
 30 31  1  0  0  0
 30 32  1  0  0  0
 32 33  1  0  0  0
  3  4  2  0  0  0
  4  5  1  0  0  0
  5 19  1  0  0  0
 19 20  1  0  0  0
 20 21  1  0  0  0
 21 22  1  0  0  0
 22 23  1  0  0  0
 23 24  1  0  0  0
  5  6  2  0  0  0
  6  1  1  0  0  0
 12  7  1  0  0  0
 33 27  1  0  0  0
 24 19  1  0  0  0
 25 26  1  0  0  0
 31 34  1  0  0  0
M  END
> <minimizedAffinity>
-6.62399

> <CNNscore>
0.0881887376

> <CNNaffinity>
5.7479124069

> <CNN_VS>
0.5069011450

> <CNNaffinity_variance>
0.0588054769

$$$$
[H]O[C@]1([H])C([H])([H])C([H])([H])[C@]([H])(N([H])c2nc(-c3c([H])c(OC([H])([H])[H])c(OC([H])([H])[H])c(OC([H])([H])[H])c3[H])nc(N3C([H])([H])C([H])([H])OC([H])([H])C3([H])[H])n2)C([H])([H])C1([H])[H]


 34 37  0  0  0  0  0  0  0  0999 V2000
   -2.7004   23.1561  -23.9973 C   0  0  0  0  0  0  0  0  0  0  0  0
   -2.3858   22.9351  -25.2729 N   0  0  0  0  0  0  0  0  0  0  0  0
   -3.2256   23.2972  -26.2710 C   0  0  0  0  0  0  0  0  0  0  0  0
   -4.3716   23.8798  -25.9232 N   0  0  0  0  0  0  0  0  0  0  0  0
   -4.6991   24.1080  -24.6334 C   0  0  0  0  0  0  0  0  0  0  0  0
   -3.8599   23.7450  -23.6569 N   0  0  0  0  0  0  0  0  0  0  0  0
   -1.7661   22.7508  -22.9332 C   0  0  0  0  0  0  0  0  0  0  0  0
   -0.7101   21.9113  -23.2334 C   0  0  0  0  0  0  0  0  0  0  0  0
    0.1579   21.5409  -22.2212 C   0  0  0  0  0  0  0  0  0  0  0  0
    0.0127   21.9742  -20.9281 C   0  0  0  0  0  0  0  0  0  0  0  0
   -1.0330   22.8076  -20.6227 C   0  0  0  0  0  0  0  0  0  0  0  0
   -1.9212   23.1924  -21.6358 C   0  0  0  0  0  0  0  0  0  0  0  0
    1.2164   20.7001  -22.5197 O   0  0  0  0  0  0  0  0  0  0  0  0
    2.3801   21.0899  -23.1908 C   0  0  0  0  0  0  0  0  0  0  0  0
    0.8922   21.5831  -19.9650 O   0  0  0  0  0  0  0  0  0  0  0  0
    0.7536   20.4843  -19.1056 C   0  0  0  0  0  0  0  0  0  0  0  0
   -1.2524   23.2914  -19.3421 O   0  0  0  0  0  0  0  0  0  0  0  0
   -2.1457   22.7175  -18.4346 C   0  0  0  0  0  0  0  0  0  0  0  0
   -5.9302   24.7306  -24.3230 N   0  0  0  0  0  0  0  0  0  0  0  0
   -6.8314   25.2041  -25.3518 C   0  0  0  0  0  0  0  0  0  0  0  0
   -8.2668   24.8492  -25.0378 C   0  0  0  0  0  0  0  0  0  0  0  0
   -8.5944   25.0722  -23.7182 O   0  0  0  0  0  0  0  0  0  0  0  0
   -7.7633   24.4214  -22.8282 C   0  0  0  0  0  0  0  0  0  0  0  0
   -6.3282   24.9137  -22.9502 C   0  0  0  0  0  0  0  0  0  0  0  0
   -2.8834   23.0500  -27.6195 N   0  0  0  0  0  0  0  0  0  0  0  0
   -2.0429   22.4390  -27.8098 H   0  0  0  0  0  0  0  0  0  0  0  0
   -3.6080   23.5780  -28.7262 C   0  0  0  0  0  0  0  0  0  0  0  0
   -4.9673   23.0011  -28.9577 C   0  0  0  0  0  0  0  0  0  0  0  0
   -5.4805   23.4650  -30.3008 C   0  0  0  0  0  0  0  0  0  0  0  0
   -5.4279   24.9398  -30.4919 C   0  0  0  0  0  0  0  0  0  0  0  0
   -6.5014   25.6128  -29.9288 O   0  0  0  0  0  0  0  0  0  0  0  0
   -4.1528   25.5718  -30.0068 C   0  0  0  0  0  0  0  0  0  0  0  0
   -3.7934   25.0974  -28.6074 C   0  0  0  0  0  0  0  0  0  0  0  0
   -6.6326   25.2774  -29.0054 H   0  0  0  0  0  0  0  0  0  0  0  0
  1  7  1  0  0  0
  7  8  2  0  0  0
  8  9  1  0  0  0
  9 13  1  0  0  0
 13 14  1  0  0  0
  9 10  2  0  0  0
 10 15  1  0  0  0
 15 16  1  0  0  0
 10 11  1  0  0  0
 11 17  1  0  0  0
 17 18  1  0  0  0
 11 12  2  0  0  0
  1  2  2  0  0  0
  2  3  1  0  0  0
  3 25  1  0  0  0
 25 27  1  0  0  0
 27 28  1  0  0  0
 28 29  1  0  0  0
 29 30  1  0  0  0
 30 31  1  0  0  0
 30 32  1  0  0  0
 32 33  1  0  0  0
  3  4  2  0  0  0
  4  5  1  0  0  0
  5 19  1  0  0  0
 19 20  1  0  0  0
 20 21  1  0  0  0
 21 22  1  0  0  0
 22 23  1  0  0  0
 23 24  1  0  0  0
  5  6  2  0  0  0
  6  1  1  0  0  0
 12  7  1  0  0  0
 33 27  1  0  0  0
 24 19  1  0  0  0
 25 26  1  0  0  0
 31 34  1  0  0  0
M  END
> <minimizedAffinity>
-8.32341

> <CNNscore>
0.0853163749

> <CNNaffinity>
6.2336339951

> <CNN_VS>
0.5318310261

> <CNNaffinity_variance>
0.1282956302

$$$$
[H]O[C@]1([H])C([H])([H])C([H])([H])[C@]([H])(N([H])c2nc(-c3c([H])c(OC([H])([H])[H])c(OC([H])([H])[H])c(OC([H])([H])[H])c3[H])nc(N3C([H])([H])C([H])([H])OC([H])([H])C3([H])[H])n2)C([H])([H])C1([H])[H]


 34 37  0  0  0  0  0  0  0  0999 V2000
   -2.3878   22.2477  -22.6320 C   0  0  0  0  0  0  0  0  0  0  0  0
   -3.3749   22.2512  -21.7372 N   0  0  0  0  0  0  0  0  0  0  0  0
   -3.1561   21.8722  -20.4562 C   0  0  0  0  0  0  0  0  0  0  0  0
   -1.9193   21.4984  -20.1331 N   0  0  0  0  0  0  0  0  0  0  0  0
   -0.9126   21.4915  -21.0328 C   0  0  0  0  0  0  0  0  0  0  0  0
   -1.1427   21.8686  -22.2955 N   0  0  0  0  0  0  0  0  0  0  0  0
   -2.6567   22.6656  -24.0186 C   0  0  0  0  0  0  0  0  0  0  0  0
   -3.8423   23.3077  -24.3217 C   0  0  0  0  0  0  0  0  0  0  0  0
   -4.0781   23.6933  -25.6297 C   0  0  0  0  0  0  0  0  0  0  0  0
   -3.1805   23.4636  -26.6409 C   0  0  0  0  0  0  0  0  0  0  0  0
   -2.0016   22.8268  -26.3475 C   0  0  0  0  0  0  0  0  0  0  0  0
   -1.7470   22.4297  -25.0282 C   0  0  0  0  0  0  0  0  0  0  0  0
   -5.2651   24.3367  -25.9356 O   0  0  0  0  0  0  0  0  0  0  0  0
   -6.5221   23.7234  -25.9581 C   0  0  0  0  0  0  0  0  0  0  0  0
   -3.4560   23.8613  -27.9136 O   0  0  0  0  0  0  0  0  0  0  0  0
   -4.1309   23.1180  -28.8920 C   0  0  0  0  0  0  0  0  0  0  0  0
   -1.0403   22.5558  -27.3091 O   0  0  0  0  0  0  0  0  0  0  0  0
    0.2940   22.2642  -27.0166 C   0  0  0  0  0  0  0  0  0  0  0  0
    0.3812   21.0847  -20.6329 N   0  0  0  0  0  0  0  0  0  0  0  0
    1.3015   20.4444  -21.5484 C   0  0  0  0  0  0  0  0  0  0  0  0
    2.7010   20.9970  -21.4046 C   0  0  0  0  0  0  0  0  0  0  0  0
    3.0793   21.1541  -20.0890 O   0  0  0  0  0  0  0  0  0  0  0  0
    2.2080   21.9352  -19.3562 C   0  0  0  0  0  0  0  0  0  0  0  0
    0.8268   21.3002  -19.2795 C   0  0  0  0  0  0  0  0  0  0  0  0
   -4.2135   21.8729  -19.5189 N   0  0  0  0  0  0  0  0  0  0  0  0
   -5.1225   21.4150  -19.8021 H   0  0  0  0  0  0  0  0  0  0  0  0
   -4.1173   22.4546  -18.2224 C   0  0  0  0  0  0  0  0  0  0  0  0
   -5.2349   23.3641  -17.8252 C   0  0  0  0  0  0  0  0  0  0  0  0
   -4.8534   24.0950  -16.5592 C   0  0  0  0  0  0  0  0  0  0  0  0
   -4.4031   23.2017  -15.4575 C   0  0  0  0  0  0  0  0  0  0  0  0
   -5.4448   22.6402  -14.7351 O   0  0  0  0  0  0  0  0  0  0  0  0
   -3.4771   22.1041  -15.9031 C   0  0  0  0  0  0  0  0  0  0  0  0
   -4.0173   21.3827  -17.1279 C   0  0  0  0  0  0  0  0  0  0  0  0
   -6.1095   22.2763  -15.3739 H   0  0  0  0  0  0  0  0  0  0  0  0
  1  7  1  0  0  0
  7  8  2  0  0  0
  8  9  1  0  0  0
  9 13  1  0  0  0
 13 14  1  0  0  0
  9 10  2  0  0  0
 10 15  1  0  0  0
 15 16  1  0  0  0
 10 11  1  0  0  0
 11 17  1  0  0  0
 17 18  1  0  0  0
 11 12  2  0  0  0
  1  2  2  0  0  0
  2  3  1  0  0  0
  3 25  1  0  0  0
 25 27  1  0  0  0
 27 28  1  0  0  0
 28 29  1  0  0  0
 29 30  1  0  0  0
 30 31  1  0  0  0
 30 32  1  0  0  0
 32 33  1  0  0  0
  3  4  2  0  0  0
  4  5  1  0  0  0
  5 19  1  0  0  0
 19 20  1  0  0  0
 20 21  1  0  0  0
 21 22  1  0  0  0
 22 23  1  0  0  0
 23 24  1  0  0  0
  5  6  2  0  0  0
  6  1  1  0  0  0
 12  7  1  0  0  0
 33 27  1  0  0  0
 24 19  1  0  0  0
 25 26  1  0  0  0
 31 34  1  0  0  0
M  END
> <minimizedAffinity>
-6.35607

> <CNNscore>
0.0842291191

> <CNNaffinity>
5.5859584808

> <CNN_VS>
0.4705003500

> <CNNaffinity_variance>
0.1485727131

$$$$
[H]O[C@]1([H])C([H])([H])C([H])([H])[C@]([H])(N([H])c2nc(-c3c([H])c(OC([H])([H])[H])c(OC([H])([H])[H])c(OC([H])([H])[H])c3[H])nc(N3C([H])([H])C([H])([H])OC([H])([H])C3([H])[H])n2)C([H])([H])C1([H])[H]


 34 37  0  0  0  0  0  0  0  0999 V2000
   -2.0448   21.6330  -22.6521 C   0  0  0  0  0  0  0  0  0  0  0  0
   -2.8528   21.9092  -21.6293 N   0  0  0  0  0  0  0  0  0  0  0  0
   -2.4888   21.6250  -20.3568 C   0  0  0  0  0  0  0  0  0  0  0  0
   -1.2961   21.0611  -20.1746 N   0  0  0  0  0  0  0  0  0  0  0  0
   -0.4705   20.7775  -21.2046 C   0  0  0  0  0  0  0  0  0  0  0  0
   -0.8427   21.0637  -22.4572 N   0  0  0  0  0  0  0  0  0  0  0  0
   -2.4686   21.9541  -24.0257 C   0  0  0  0  0  0  0  0  0  0  0  0
   -3.7787   22.3205  -24.2693 C   0  0  0  0  0  0  0  0  0  0  0  0
   -4.1592   22.6187  -25.5660 C   0  0  0  0  0  0  0  0  0  0  0  0
   -3.2867   22.5654  -26.6228 C   0  0  0  0  0  0  0  0  0  0  0  0
   -1.9849   22.2026  -26.3886 C   0  0  0  0  0  0  0  0  0  0  0  0
   -1.5829   21.8974  -25.0815 C   0  0  0  0  0  0  0  0  0  0  0  0
   -5.4711   22.9860  -25.8123 O   0  0  0  0  0  0  0  0  0  0  0  0
   -6.4130   23.2911  -24.8242 C   0  0  0  0  0  0  0  0  0  0  0  0
   -3.7067   22.8678  -27.8821 O   0  0  0  0  0  0  0  0  0  0  0  0
   -3.6999   24.1349  -28.4818 C   0  0  0  0  0  0  0  0  0  0  0  0
   -1.0387   22.1237  -27.3989 O   0  0  0  0  0  0  0  0  0  0  0  0
    0.3201   22.3906  -27.2167 C   0  0  0  0  0  0  0  0  0  0  0  0
    0.7850   20.1783  -20.9513 N   0  0  0  0  0  0  0  0  0  0  0  0
    0.9031   18.8852  -20.3119 C   0  0  0  0  0  0  0  0  0  0  0  0
    1.9377   18.0210  -20.9957 C   0  0  0  0  0  0  0  0  0  0  0  0
    3.0883   18.7123  -21.3066 O   0  0  0  0  0  0  0  0  0  0  0  0
    2.8626   19.8383  -22.0731 C   0  0  0  0  0  0  0  0  0  0  0  0
    2.0024   20.8503  -21.3296 C   0  0  0  0  0  0  0  0  0  0  0  0
   -3.3583   21.9158  -19.2816 N   0  0  0  0  0  0  0  0  0  0  0  0
   -2.9243   22.1766  -18.3544 H   0  0  0  0  0  0  0  0  0  0  0  0
   -4.7784   21.8758  -19.3832 C   0  0  0  0  0  0  0  0  0  0  0  0
   -5.5024   21.2518  -18.2340 C   0  0  0  0  0  0  0  0  0  0  0  0
   -6.9507   21.0473  -18.6127 C   0  0  0  0  0  0  0  0  0  0  0  0
   -7.6184   22.2712  -19.1330 C   0  0  0  0  0  0  0  0  0  0  0  0
   -8.0726   23.1233  -18.1380 O   0  0  0  0  0  0  0  0  0  0  0  0
   -6.7779   23.0599  -20.0985 C   0  0  0  0  0  0  0  0  0  0  0  0
   -5.3722   23.2802  -19.5621 C   0  0  0  0  0  0  0  0  0  0  0  0
   -7.3462   23.2474  -17.4754 H   0  0  0  0  0  0  0  0  0  0  0  0
  1  7  1  0  0  0
  7  8  2  0  0  0
  8  9  1  0  0  0
  9 13  1  0  0  0
 13 14  1  0  0  0
  9 10  2  0  0  0
 10 15  1  0  0  0
 15 16  1  0  0  0
 10 11  1  0  0  0
 11 17  1  0  0  0
 17 18  1  0  0  0
 11 12  2  0  0  0
  1  2  2  0  0  0
  2  3  1  0  0  0
  3 25  1  0  0  0
 25 27  1  0  0  0
 27 28  1  0  0  0
 28 29  1  0  0  0
 29 30  1  0  0  0
 30 31  1  0  0  0
 30 32  1  0  0  0
 32 33  1  0  0  0
  3  4  2  0  0  0
  4  5  1  0  0  0
  5 19  1  0  0  0
 19 20  1  0  0  0
 20 21  1  0  0  0
 21 22  1  0  0  0
 22 23  1  0  0  0
 23 24  1  0  0  0
  5  6  2  0  0  0
  6  1  1  0  0  0
 12  7  1  0  0  0
 33 27  1  0  0  0
 24 19  1  0  0  0
 25 26  1  0  0  0
 31 34  1  0  0  0
M  END
> <minimizedAffinity>
-6.46337

> <CNNscore>
0.0787624568

> <CNNaffinity>
5.4560046196

> <CNN_VS>
0.4297283292

> <CNNaffinity_variance>
0.1978046149

$$$$
[H]O[C@]1([H])C([H])([H])C([H])([H])[C@]([H])(N([H])c2nc(-c3c([H])c(OC([H])([H])[H])c(OC([H])([H])[H])c(OC([H])([H])[H])c3[H])nc(N3C([H])([H])C([H])([H])OC([H])([H])C3([H])[H])n2)C([H])([H])C1([H])[H]


 34 37  0  0  0  0  0  0  0  0999 V2000
   -4.1264   22.1823  -23.0035 C   0  0  0  0  0  0  0  0  0  0  0  0
   -5.4072   22.5492  -23.0036 N   0  0  0  0  0  0  0  0  0  0  0  0
   -6.1488   22.4927  -21.8725 C   0  0  0  0  0  0  0  0  0  0  0  0
   -5.5452   22.0571  -20.7681 N   0  0  0  0  0  0  0  0  0  0  0  0
   -4.2479   21.6831  -20.7582 C   0  0  0  0  0  0  0  0  0  0  0  0
   -3.5266   21.7440  -21.8831 N   0  0  0  0  0  0  0  0  0  0  0  0
   -3.3452   22.2549  -24.2501 C   0  0  0  0  0  0  0  0  0  0  0  0
   -3.9823   22.5509  -25.4403 C   0  0  0  0  0  0  0  0  0  0  0  0
   -3.2325   22.6151  -26.6017 C   0  0  0  0  0  0  0  0  0  0  0  0
   -1.8787   22.3963  -26.6201 C   0  0  0  0  0  0  0  0  0  0  0  0
   -1.2397   22.1020  -25.4428 C   0  0  0  0  0  0  0  0  0  0  0  0
   -1.9839   22.0332  -24.2576 C   0  0  0  0  0  0  0  0  0  0  0  0
   -3.8686   22.9114  -27.7950 O   0  0  0  0  0  0  0  0  0  0  0  0
   -5.1297   23.5074  -27.9002 C   0  0  0  0  0  0  0  0  0  0  0  0
   -1.1823   22.4702  -27.7878 O   0  0  0  0  0  0  0  0  0  0  0  0
    0.0485   23.1116  -27.9855 C   0  0  0  0  0  0  0  0  0  0  0  0
    0.1249   21.8673  -25.3726 O   0  0  0  0  0  0  0  0  0  0  0  0
    0.8342   21.7453  -24.1755 C   0  0  0  0  0  0  0  0  0  0  0  0
   -3.6593   21.2285  -19.5555 N   0  0  0  0  0  0  0  0  0  0  0  0
   -4.4017   20.4572  -18.5815 C   0  0  0  0  0  0  0  0  0  0  0  0
   -3.5856   19.3005  -18.0516 C   0  0  0  0  0  0  0  0  0  0  0  0
   -2.2854   19.6536  -17.7632 O   0  0  0  0  0  0  0  0  0  0  0  0
   -1.6209   20.2231  -18.8311 C   0  0  0  0  0  0  0  0  0  0  0  0
   -2.2801   21.5257  -19.2617 C   0  0  0  0  0  0  0  0  0  0  0  0
   -7.5083   22.8773  -21.8878 N   0  0  0  0  0  0  0  0  0  0  0  0
   -8.2315   22.1228  -22.0420 H   0  0  0  0  0  0  0  0  0  0  0  0
   -7.9500   24.2193  -21.7075 C   0  0  0  0  0  0  0  0  0  0  0  0
   -9.2769   24.5607  -22.3050 C   0  0  0  0  0  0  0  0  0  0  0  0
   -9.4700   26.0585  -22.2608 C   0  0  0  0  0  0  0  0  0  0  0  0
   -9.2610   26.6557  -20.9139 C   0  0  0  0  0  0  0  0  0  0  0  0
  -10.3680   26.5598  -20.0846 O   0  0  0  0  0  0  0  0  0  0  0  0
   -8.0629   26.1124  -20.1859 C   0  0  0  0  0  0  0  0  0  0  0  0
   -8.0322   24.5924  -20.2206 C   0  0  0  0  0  0  0  0  0  0  0  0
  -10.7092   25.6301  -20.1228 H   0  0  0  0  0  0  0  0  0  0  0  0
  1  7  1  0  0  0
  7  8  2  0  0  0
  8  9  1  0  0  0
  9 13  1  0  0  0
 13 14  1  0  0  0
  9 10  2  0  0  0
 10 15  1  0  0  0
 15 16  1  0  0  0
 10 11  1  0  0  0
 11 17  1  0  0  0
 17 18  1  0  0  0
 11 12  2  0  0  0
  1  2  2  0  0  0
  2  3  1  0  0  0
  3 25  1  0  0  0
 25 27  1  0  0  0
 27 28  1  0  0  0
 28 29  1  0  0  0
 29 30  1  0  0  0
 30 31  1  0  0  0
 30 32  1  0  0  0
 32 33  1  0  0  0
  3  4  2  0  0  0
  4  5  1  0  0  0
  5 19  1  0  0  0
 19 20  1  0  0  0
 20 21  1  0  0  0
 21 22  1  0  0  0
 22 23  1  0  0  0
 23 24  1  0  0  0
  5  6  2  0  0  0
  6  1  1  0  0  0
 12  7  1  0  0  0
 33 27  1  0  0  0
 24 19  1  0  0  0
 25 26  1  0  0  0
 31 34  1  0  0  0
M  END
> <minimizedAffinity>
-6.77376

> <CNNscore>
0.0755486339

> <CNNaffinity>
5.6066284180

> <CNN_VS>
0.4235731065

> <CNNaffinity_variance>
0.0464544557

$$$$
[H]O[C@]1([H])C([H])([H])C([H])([H])[C@]([H])(N([H])c2nc(-c3c([H])c(OC([H])([H])[H])c(OC([H])([H])[H])c(OC([H])([H])[H])c3[H])nc(N3C([H])([H])C([H])([H])OC([H])([H])C3([H])[H])n2)C([H])([H])C1([H])[H]


 34 37  0  0  0  0  0  0  0  0999 V2000
   -3.0551   22.6070  -24.0437 C   0  0  0  0  0  0  0  0  0  0  0  0
   -3.9064   22.9050  -23.0631 N   0  0  0  0  0  0  0  0  0  0  0  0
   -3.6419   22.5596  -21.7812 C   0  0  0  0  0  0  0  0  0  0  0  0
   -2.5012   21.9134  -21.5461 N   0  0  0  0  0  0  0  0  0  0  0  0
   -1.6325   21.6071  -22.5332 C   0  0  0  0  0  0  0  0  0  0  0  0
   -1.9063   21.9544  -23.7957 N   0  0  0  0  0  0  0  0  0  0  0  0
   -3.3706   22.9960  -25.4289 C   0  0  0  0  0  0  0  0  0  0  0  0
   -4.6435   23.4328  -25.7436 C   0  0  0  0  0  0  0  0  0  0  0  0
   -4.9220   23.7943  -27.0501 C   0  0  0  0  0  0  0  0  0  0  0  0
   -3.9836   23.7368  -28.0487 C   0  0  0  0  0  0  0  0  0  0  0  0
   -2.7182   23.3043  -27.7437 C   0  0  0  0  0  0  0  0  0  0  0  0
   -2.4194   22.9344  -26.4257 C   0  0  0  0  0  0  0  0  0  0  0  0
   -6.1963   24.2322  -27.3676 O   0  0  0  0  0  0  0  0  0  0  0  0
   -7.1119   24.7558  -26.4489 C   0  0  0  0  0  0  0  0  0  0  0  0
   -4.3039   24.1030  -29.3203 O   0  0  0  0  0  0  0  0  0  0  0  0
   -4.1550   25.3781  -29.8835 C   0  0  0  0  0  0  0  0  0  0  0  0
   -1.7108   23.2160  -28.6921 O   0  0  0  0  0  0  0  0  0  0  0  0
   -0.3579   23.0634  -28.3801 C   0  0  0  0  0  0  0  0  0  0  0  0
   -0.4360   20.9194  -22.2247 N   0  0  0  0  0  0  0  0  0  0  0  0
    0.7298   20.9862  -23.0798 C   0  0  0  0  0  0  0  0  0  0  0  0
    1.9976   21.1627  -22.2759 C   0  0  0  0  0  0  0  0  0  0  0  0
    2.0400   20.3520  -21.1627 O   0  0  0  0  0  0  0  0  0  0  0  0
    0.9510   20.5072  -20.3282 C   0  0  0  0  0  0  0  0  0  0  0  0
   -0.3430   20.1196  -21.0296 C   0  0  0  0  0  0  0  0  0  0  0  0
   -4.5568   22.8747  -20.7515 N   0  0  0  0  0  0  0  0  0  0  0  0
   -4.2228   22.7883  -19.7530 H   0  0  0  0  0  0  0  0  0  0  0  0
   -5.8953   23.2994  -20.9891 C   0  0  0  0  0  0  0  0  0  0  0  0
   -6.9719   22.3954  -20.4813 C   0  0  0  0  0  0  0  0  0  0  0  0
   -8.3014   22.8445  -21.0412 C   0  0  0  0  0  0  0  0  0  0  0  0
   -8.5937   24.2870  -20.8222 C   0  0  0  0  0  0  0  0  0  0  0  0
   -9.1090   24.5661  -19.5657 O   0  0  0  0  0  0  0  0  0  0  0  0
   -7.4197   25.1917  -21.0752 C   0  0  0  0  0  0  0  0  0  0  0  0
   -6.1654   24.6834  -20.3819 C   0  0  0  0  0  0  0  0  0  0  0  0
   -8.5504   24.1065  -18.8882 H   0  0  0  0  0  0  0  0  0  0  0  0
  1  7  1  0  0  0
  7  8  2  0  0  0
  8  9  1  0  0  0
  9 13  1  0  0  0
 13 14  1  0  0  0
  9 10  2  0  0  0
 10 15  1  0  0  0
 15 16  1  0  0  0
 10 11  1  0  0  0
 11 17  1  0  0  0
 17 18  1  0  0  0
 11 12  2  0  0  0
  1  2  2  0  0  0
  2  3  1  0  0  0
  3 25  1  0  0  0
 25 27  1  0  0  0
 27 28  1  0  0  0
 28 29  1  0  0  0
 29 30  1  0  0  0
 30 31  1  0  0  0
 30 32  1  0  0  0
 32 33  1  0  0  0
  3  4  2  0  0  0
  4  5  1  0  0  0
  5 19  1  0  0  0
 19 20  1  0  0  0
 20 21  1  0  0  0
 21 22  1  0  0  0
 22 23  1  0  0  0
 23 24  1  0  0  0
  5  6  2  0  0  0
  6  1  1  0  0  0
 12  7  1  0  0  0
 33 27  1  0  0  0
 24 19  1  0  0  0
 25 26  1  0  0  0
 31 34  1  0  0  0
M  END
> <minimizedAffinity>
-6.70206

> <CNNscore>
0.0676262677

> <CNNaffinity>
5.8244347572

> <CNN_VS>
0.3938847780

> <CNNaffinity_variance>
0.2440950572

$$$$
[H]O[C@]1([H])C([H])([H])C([H])([H])[C@]([H])(N([H])c2nc(-c3c([H])c(OC([H])([H])[H])c(OC([H])([H])[H])c(OC([H])([H])[H])c3[H])nc(N3C([H])([H])C([H])([H])OC([H])([H])C3([H])[H])n2)C([H])([H])C1([H])[H]


 34 37  0  0  0  0  0  0  0  0999 V2000
   -5.9384   22.7192  -22.3000 C   0  0  0  0  0  0  0  0  0  0  0  0
   -4.7214   22.1777  -22.2728 N   0  0  0  0  0  0  0  0  0  0  0  0
   -3.7731   22.5484  -23.1651 C   0  0  0  0  0  0  0  0  0  0  0  0
   -4.1089   23.4715  -24.0644 N   0  0  0  0  0  0  0  0  0  0  0  0
   -5.3395   24.0259  -24.0999 C   0  0  0  0  0  0  0  0  0  0  0  0
   -6.2671   23.6505  -23.2121 N   0  0  0  0  0  0  0  0  0  0  0  0
   -6.9491   22.2956  -21.3159 C   0  0  0  0  0  0  0  0  0  0  0  0
   -6.6647   21.2601  -20.4459 C   0  0  0  0  0  0  0  0  0  0  0  0
   -7.6262   20.8754  -19.5279 C   0  0  0  0  0  0  0  0  0  0  0  0
   -8.8536   21.4816  -19.4457 C   0  0  0  0  0  0  0  0  0  0  0  0
   -9.1429   22.5100  -20.3059 C   0  0  0  0  0  0  0  0  0  0  0  0
   -8.1807   22.9121  -21.2416 C   0  0  0  0  0  0  0  0  0  0  0  0
   -7.3434   19.8384  -18.6555 O   0  0  0  0  0  0  0  0  0  0  0  0
   -6.3925   19.8944  -17.6312 C   0  0  0  0  0  0  0  0  0  0  0  0
   -9.7684   21.0687  -18.5256 O   0  0  0  0  0  0  0  0  0  0  0  0
   -9.9261   21.5669  -17.2248 C   0  0  0  0  0  0  0  0  0  0  0  0
  -10.3585   23.1766  -20.2903 O   0  0  0  0  0  0  0  0  0  0  0  0
  -10.4974   24.5375  -20.0081 C   0  0  0  0  0  0  0  0  0  0  0  0
   -5.6399   25.0022  -25.0778 N   0  0  0  0  0  0  0  0  0  0  0  0
   -5.8055   26.4000  -24.7410 C   0  0  0  0  0  0  0  0  0  0  0  0
   -5.1105   27.2970  -25.7397 C   0  0  0  0  0  0  0  0  0  0  0  0
   -5.3161   26.9023  -27.0437 O   0  0  0  0  0  0  0  0  0  0  0  0
   -4.9536   25.5921  -27.2849 C   0  0  0  0  0  0  0  0  0  0  0  0
   -5.7919   24.6255  -26.4604 C   0  0  0  0  0  0  0  0  0  0  0  0
   -2.4887   21.9605  -23.1303 N   0  0  0  0  0  0  0  0  0  0  0  0
   -2.1343   21.6070  -22.2000 H   0  0  0  0  0  0  0  0  0  0  0  0
   -1.6542   21.8214  -24.2761 C   0  0  0  0  0  0  0  0  0  0  0  0
   -2.0718   22.5861  -25.4905 C   0  0  0  0  0  0  0  0  0  0  0  0
   -1.2512   22.1259  -26.6727 C   0  0  0  0  0  0  0  0  0  0  0  0
    0.2178   22.1542  -26.4370 C   0  0  0  0  0  0  0  0  0  0  0  0
    0.7869   23.4052  -26.6194 O   0  0  0  0  0  0  0  0  0  0  0  0
    0.6288   21.6277  -25.0899 C   0  0  0  0  0  0  0  0  0  0  0  0
   -0.2071   22.2368  -23.9752 C   0  0  0  0  0  0  0  0  0  0  0  0
    0.2354   24.0740  -26.1388 H   0  0  0  0  0  0  0  0  0  0  0  0
  1  7  1  0  0  0
  7  8  2  0  0  0
  8  9  1  0  0  0
  9 13  1  0  0  0
 13 14  1  0  0  0
  9 10  2  0  0  0
 10 15  1  0  0  0
 15 16  1  0  0  0
 10 11  1  0  0  0
 11 17  1  0  0  0
 17 18  1  0  0  0
 11 12  2  0  0  0
  1  2  2  0  0  0
  2  3  1  0  0  0
  3 25  1  0  0  0
 25 27  1  0  0  0
 27 28  1  0  0  0
 28 29  1  0  0  0
 29 30  1  0  0  0
 30 31  1  0  0  0
 30 32  1  0  0  0
 32 33  1  0  0  0
  3  4  2  0  0  0
  4  5  1  0  0  0
  5 19  1  0  0  0
 19 20  1  0  0  0
 20 21  1  0  0  0
 21 22  1  0  0  0
 22 23  1  0  0  0
 23 24  1  0  0  0
  5  6  2  0  0  0
  6  1  1  0  0  0
 12  7  1  0  0  0
 33 27  1  0  0  0
 24 19  1  0  0  0
 25 26  1  0  0  0
 31 34  1  0  0  0
M  END
> <minimizedAffinity>
-7.59320

> <CNNscore>
0.0632557124

> <CNNaffinity>
5.3786478043

> <CNN_VS>
0.3402301967

> <CNNaffinity_variance>
0.4318828583

$$$$
[H]O[C@]1([H])C([H])([H])C([H])([H])[C@]([H])(N([H])c2nc(-c3c([H])c(OC([H])([H])[H])c(OC([H])([H])[H])c(OC([H])([H])[H])c3[H])nc(N3C([H])([H])C([H])([H])OC([H])([H])C3([H])[H])n2)C([H])([H])C1([H])[H]


 34 37  0  0  0  0  0  0  0  0999 V2000
   -3.4945   23.0980  -23.0051 C   0  0  0  0  0  0  0  0  0  0  0  0
   -2.9503   22.4483  -21.9770 N   0  0  0  0  0  0  0  0  0  0  0  0
   -1.8487   21.6790  -22.1427 C   0  0  0  0  0  0  0  0  0  0  0  0
   -1.3374   21.6015  -23.3700 N   0  0  0  0  0  0  0  0  0  0  0  0
   -1.8818   22.2561  -24.4179 C   0  0  0  0  0  0  0  0  0  0  0  0
   -2.9704   23.0130  -24.2401 N   0  0  0  0  0  0  0  0  0  0  0  0
   -4.6931   23.9275  -22.7935 C   0  0  0  0  0  0  0  0  0  0  0  0
   -5.4244   24.3630  -23.8824 C   0  0  0  0  0  0  0  0  0  0  0  0
   -6.5477   25.1415  -23.6649 C   0  0  0  0  0  0  0  0  0  0  0  0
   -6.9665   25.4996  -22.4090 C   0  0  0  0  0  0  0  0  0  0  0  0
   -6.2458   25.0710  -21.3236 C   0  0  0  0  0  0  0  0  0  0  0  0
   -5.1057   24.2820  -21.5261 C   0  0  0  0  0  0  0  0  0  0  0  0
   -7.2817   25.5788  -24.7541 O   0  0  0  0  0  0  0  0  0  0  0  0
   -7.6962   24.7666  -25.8148 C   0  0  0  0  0  0  0  0  0  0  0  0
   -8.0787   26.2674  -22.2438 O   0  0  0  0  0  0  0  0  0  0  0  0
   -9.4028   25.8126  -22.1712 C   0  0  0  0  0  0  0  0  0  0  0  0
   -6.5992   25.3872  -20.0208 O   0  0  0  0  0  0  0  0  0  0  0  0
   -6.5887   24.4713  -18.9663 C   0  0  0  0  0  0  0  0  0  0  0  0
   -1.2958   22.1368  -25.6992 N   0  0  0  0  0  0  0  0  0  0  0  0
   -2.0946   22.0360  -26.9020 C   0  0  0  0  0  0  0  0  0  0  0  0
   -1.5387   22.8998  -28.0108 C   0  0  0  0  0  0  0  0  0  0  0  0
   -0.1679   22.8119  -28.1184 O   0  0  0  0  0  0  0  0  0  0  0  0
    0.4953   23.1038  -26.9431 C   0  0  0  0  0  0  0  0  0  0  0  0
    0.1376   22.1121  -25.8453 C   0  0  0  0  0  0  0  0  0  0  0  0
   -1.2860   20.9888  -21.0457 N   0  0  0  0  0  0  0  0  0  0  0  0
   -1.7336   20.0767  -20.7561 H   0  0  0  0  0  0  0  0  0  0  0  0
   -0.1555   21.4561  -20.3162 C   0  0  0  0  0  0  0  0  0  0  0  0
   -0.4499   22.2576  -19.0894 C   0  0  0  0  0  0  0  0  0  0  0  0
    0.8281   22.8929  -18.5937 C   0  0  0  0  0  0  0  0  0  0  0  0
    1.9503   21.9326  -18.4127 C   0  0  0  0  0  0  0  0  0  0  0  0
    1.9076   21.2469  -17.2084 O   0  0  0  0  0  0  0  0  0  0  0  0
    2.0865   20.9371  -19.5313 C   0  0  0  0  0  0  0  0  0  0  0  0
    0.7499   20.2978  -19.8737 C   0  0  0  0  0  0  0  0  0  0  0  0
    0.9877   20.9029  -17.0755 H   0  0  0  0  0  0  0  0  0  0  0  0
  1  7  1  0  0  0
  7  8  2  0  0  0
  8  9  1  0  0  0
  9 13  1  0  0  0
 13 14  1  0  0  0
  9 10  2  0  0  0
 10 15  1  0  0  0
 15 16  1  0  0  0
 10 11  1  0  0  0
 11 17  1  0  0  0
 17 18  1  0  0  0
 11 12  2  0  0  0
  1  2  2  0  0  0
  2  3  1  0  0  0
  3 25  1  0  0  0
 25 27  1  0  0  0
 27 28  1  0  0  0
 28 29  1  0  0  0
 29 30  1  0  0  0
 30 31  1  0  0  0
 30 32  1  0  0  0
 32 33  1  0  0  0
  3  4  2  0  0  0
  4  5  1  0  0  0
  5 19  1  0  0  0
 19 20  1  0  0  0
 20 21  1  0  0  0
 21 22  1  0  0  0
 22 23  1  0  0  0
 23 24  1  0  0  0
  5  6  2  0  0  0
  6  1  1  0  0  0
 12  7  1  0  0  0
 33 27  1  0  0  0
 24 19  1  0  0  0
 25 26  1  0  0  0
 31 34  1  0  0  0
M  END
> <minimizedAffinity>
-6.95652

> <CNNscore>
0.0551936850

> <CNNaffinity>
5.4668726921

> <CNN_VS>
0.3017368615

> <CNNaffinity_variance>
0.4608749747

$$$$
[H]c1c([H])c(C#N)c([H])c(OC([H])([H])C([H])([H])C2([H])C([H])([H])C([H])([H])N(C([H])([H])c3c([H])c(OC([H])([H])C([H])([H])C([H])([H])c4c([H])c([H])c(S(=O)(=O)C([H])([H])[H])c([H])c4[H])c([H])c([H])c3Cl)C([H])([H])C2([H])[H])c1[H]


 39 42  0  0  0  0  0  0  0  0999 V2000
   -6.2950   21.7010  -22.5109 Cl  0  0  0  0  0  0  0  0  0  0  0  0
   -4.7711   22.2380  -21.8176 C   0  0  0  0  0  0  0  0  0  0  0  0
   -4.4016   21.8564  -20.5448 C   0  0  0  0  0  0  0  0  0  0  0  0
   -3.2163   22.2735  -20.0057 C   0  0  0  0  0  0  0  0  0  0  0  0
   -2.4058   23.0793  -20.7600 C   0  0  0  0  0  0  0  0  0  0  0  0
   -2.7658   23.4767  -22.0548 C   0  0  0  0  0  0  0  0  0  0  0  0
   -3.9475   23.0620  -22.5964 C   0  0  0  0  0  0  0  0  0  0  0  0
   -1.1887   23.5438  -20.2836 O   0  0  0  0  0  0  0  0  0  0  0  0
   -0.7769   23.3664  -18.9486 C   0  0  0  0  0  0  0  0  0  0  0  0
    0.3527   22.3521  -18.8766 C   0  0  0  0  0  0  0  0  0  0  0  0
    0.8986   22.3529  -17.4637 C   0  0  0  0  0  0  0  0  0  0  0  0
    2.3315   22.7457  -17.4396 C   0  0  0  0  0  0  0  0  0  0  0  0
    3.1079   22.9126  -18.5606 C   0  0  0  0  0  0  0  0  0  0  0  0
    4.4362   23.2822  -18.4794 C   0  0  0  0  0  0  0  0  0  0  0  0
    5.0407   23.5004  -17.2525 C   0  0  0  0  0  0  0  0  0  0  0  0
    4.2699   23.3354  -16.1202 C   0  0  0  0  0  0  0  0  0  0  0  0
    2.9346   22.9635  -16.2097 C   0  0  0  0  0  0  0  0  0  0  0  0
    6.7324   23.9738  -17.1294 S   0  0  0  0  0  0  0  0  0  0  0  0
    7.7380   22.5299  -17.1969 C   0  0  0  0  0  0  0  0  0  0  0  0
    7.0646   24.9142  -18.2760 O   0  0  0  0  0  0  0  0  0  0  0  0
    7.0152   24.7093  -15.8594 O   0  0  0  0  0  0  0  0  0  0  0  0
   -4.4267   23.4659  -23.8983 C   0  0  0  0  0  0  0  0  0  0  0  0
   -5.2312   24.6465  -23.9297 N   0  0  0  0  0  0  0  0  0  0  0  0
   -6.3891   24.4213  -24.7747 C   0  0  0  0  0  0  0  0  0  0  0  0
   -6.6524   25.3982  -25.8413 C   0  0  0  0  0  0  0  0  0  0  0  0
   -5.4402   25.7432  -26.6656 C   0  0  0  0  0  0  0  0  0  0  0  0
   -4.1867   25.7112  -25.8252 C   0  0  0  0  0  0  0  0  0  0  0  0
   -4.4929   25.8188  -24.3615 C   0  0  0  0  0  0  0  0  0  0  0  0
   -5.2412   24.8131  -27.8535 C   0  0  0  0  0  0  0  0  0  0  0  0
   -4.8862   23.4250  -27.3804 C   0  0  0  0  0  0  0  0  0  0  0  0
   -3.7309   22.9809  -27.9598 O   0  0  0  0  0  0  0  0  0  0  0  0
   -2.4523   22.8532  -27.5756 C   0  0  0  0  0  0  0  0  0  0  0  0
   -1.4540   23.1322  -28.5278 C   0  0  0  0  0  0  0  0  0  0  0  0
   -0.1155   23.0339  -28.2344 C   0  0  0  0  0  0  0  0  0  0  0  0
    0.2935   22.6507  -26.9708 C   0  0  0  0  0  0  0  0  0  0  0  0
   -0.6562   22.3742  -26.0267 C   0  0  0  0  0  0  0  0  0  0  0  0
   -1.9986   22.4783  -26.3384 C   0  0  0  0  0  0  0  0  0  0  0  0
   -0.2093   21.9762  -24.7138 C   0  0  0  0  0  0  0  0  0  0  0  0
    0.1614   21.6439  -23.6618 N   0  0  0  0  0  0  0  0  0  0  0  0
  1  2  1  0  0  0
  2  3  2  0  0  0
  3  4  1  0  0  0
  4  5  2  0  0  0
  5  8  1  0  0  0
  8  9  1  0  0  0
  9 10  1  0  0  0
 10 11  1  0  0  0
 11 12  1  0  0  0
 12 13  2  0  0  0
 13 14  1  0  0  0
 14 15  2  0  0  0
 15 16  1  0  0  0
 16 17  2  0  0  0
 15 18  1  0  0  0
 18 19  1  0  0  0
 18 20  2  0  0  0
 18 21  2  0  0  0
  5  6  1  0  0  0
  6  7  2  0  0  0
  7 22  1  0  0  0
 22 23  1  0  0  0
 23 24  1  0  0  0
 24 25  1  0  0  0
 25 26  1  0  0  0
 26 29  1  0  0  0
 29 30  1  0  0  0
 30 31  1  0  0  0
 31 32  1  0  0  0
 32 33  2  0  0  0
 33 34  1  0  0  0
 34 35  2  0  0  0
 35 36  1  0  0  0
 36 38  1  0  0  0
 38 39  3  0  0  0
 36 37  2  0  0  0
 26 27  1  0  0  0
 27 28  1  0  0  0
  7  2  1  0  0  0
 28 23  1  0  0  0
 17 12  1  0  0  0
 37 32  1  0  0  0
M  END
> <minimizedAffinity>
-8.55707

> <CNNscore>
0.2735973299

> <CNNaffinity>
6.8578095436

> <CNN_VS>
1.8762784004

> <CNNaffinity_variance>
0.1834222525

$$$$
[H]c1c([H])c(C#N)c([H])c(OC([H])([H])C([H])([H])C2([H])C([H])([H])C([H])([H])N(C([H])([H])c3c([H])c(OC([H])([H])C([H])([H])C([H])([H])c4c([H])c([H])c(S(=O)(=O)C([H])([H])[H])c([H])c4[H])c([H])c([H])c3Cl)C([H])([H])C2([H])[H])c1[H]


 39 42  0  0  0  0  0  0  0  0999 V2000
   -1.0145   23.5208  -29.1833 Cl  0  0  0  0  0  0  0  0  0  0  0  0
   -0.8601   22.8494  -27.5657 C   0  0  0  0  0  0  0  0  0  0  0  0
    0.3686   22.4534  -27.0803 C   0  0  0  0  0  0  0  0  0  0  0  0
    0.4888   21.9317  -25.8222 C   0  0  0  0  0  0  0  0  0  0  0  0
   -0.6401   21.8117  -25.0565 C   0  0  0  0  0  0  0  0  0  0  0  0
   -1.8965   22.2088  -25.5341 C   0  0  0  0  0  0  0  0  0  0  0  0
   -2.0203   22.7304  -26.7888 C   0  0  0  0  0  0  0  0  0  0  0  0
   -0.6002   21.2919  -23.7712 O   0  0  0  0  0  0  0  0  0  0  0  0
    0.4043   21.6315  -22.8444 C   0  0  0  0  0  0  0  0  0  0  0  0
    0.1821   20.8948  -21.5337 C   0  0  0  0  0  0  0  0  0  0  0  0
    1.4739   20.1985  -21.1587 C   0  0  0  0  0  0  0  0  0  0  0  0
    2.3038   21.0471  -20.2646 C   0  0  0  0  0  0  0  0  0  0  0  0
    1.8139   21.7538  -19.1932 C   0  0  0  0  0  0  0  0  0  0  0  0
    2.6330   22.5257  -18.3927 C   0  0  0  0  0  0  0  0  0  0  0  0
    3.9921   22.6167  -18.6429 C   0  0  0  0  0  0  0  0  0  0  0  0
    4.4946   21.9109  -19.7166 C   0  0  0  0  0  0  0  0  0  0  0  0
    3.6647   21.1367  -20.5173 C   0  0  0  0  0  0  0  0  0  0  0  0
    5.0523   23.5943  -17.6321 S   0  0  0  0  0  0  0  0  0  0  0  0
    6.5455   23.9141  -18.5090 C   0  0  0  0  0  0  0  0  0  0  0  0
    4.3427   24.8932  -17.2874 O   0  0  0  0  0  0  0  0  0  0  0  0
    5.3775   22.9134  -16.3421 O   0  0  0  0  0  0  0  0  0  0  0  0
   -3.2795   23.1134  -27.3850 C   0  0  0  0  0  0  0  0  0  0  0  0
   -3.5393   24.5171  -27.4496 N   0  0  0  0  0  0  0  0  0  0  0  0
   -4.0237   24.9800  -26.1625 C   0  0  0  0  0  0  0  0  0  0  0  0
   -5.2791   25.7448  -26.1438 C   0  0  0  0  0  0  0  0  0  0  0  0
   -6.3885   25.1163  -26.9450 C   0  0  0  0  0  0  0  0  0  0  0  0
   -5.8428   24.3974  -28.1549 C   0  0  0  0  0  0  0  0  0  0  0  0
   -4.4649   24.8694  -28.5104 C   0  0  0  0  0  0  0  0  0  0  0  0
   -7.2216   24.1294  -26.1400 C   0  0  0  0  0  0  0  0  0  0  0  0
   -7.7130   24.7726  -24.8666 C   0  0  0  0  0  0  0  0  0  0  0  0
   -7.2607   24.1044  -23.7636 O   0  0  0  0  0  0  0  0  0  0  0  0
   -6.1786   23.3713  -23.4627 C   0  0  0  0  0  0  0  0  0  0  0  0
   -6.1714   22.0229  -23.8663 C   0  0  0  0  0  0  0  0  0  0  0  0
   -5.1109   21.1882  -23.6092 C   0  0  0  0  0  0  0  0  0  0  0  0
   -4.0014   21.6608  -22.9339 C   0  0  0  0  0  0  0  0  0  0  0  0
   -3.9825   22.9673  -22.5309 C   0  0  0  0  0  0  0  0  0  0  0  0
   -5.0577   23.7936  -22.7978 C   0  0  0  0  0  0  0  0  0  0  0  0
   -2.8153   23.4418  -21.8277 C   0  0  0  0  0  0  0  0  0  0  0  0
   -1.8809   23.8397  -21.2594 N   0  0  0  0  0  0  0  0  0  0  0  0
  1  2  1  0  0  0
  2  3  2  0  0  0
  3  4  1  0  0  0
  4  5  2  0  0  0
  5  8  1  0  0  0
  8  9  1  0  0  0
  9 10  1  0  0  0
 10 11  1  0  0  0
 11 12  1  0  0  0
 12 13  2  0  0  0
 13 14  1  0  0  0
 14 15  2  0  0  0
 15 16  1  0  0  0
 16 17  2  0  0  0
 15 18  1  0  0  0
 18 19  1  0  0  0
 18 20  2  0  0  0
 18 21  2  0  0  0
  5  6  1  0  0  0
  6  7  2  0  0  0
  7 22  1  0  0  0
 22 23  1  0  0  0
 23 24  1  0  0  0
 24 25  1  0  0  0
 25 26  1  0  0  0
 26 29  1  0  0  0
 29 30  1  0  0  0
 30 31  1  0  0  0
 31 32  1  0  0  0
 32 33  2  0  0  0
 33 34  1  0  0  0
 34 35  2  0  0  0
 35 36  1  0  0  0
 36 38  1  0  0  0
 38 39  3  0  0  0
 36 37  2  0  0  0
 26 27  1  0  0  0
 27 28  1  0  0  0
  7  2  1  0  0  0
 28 23  1  0  0  0
 17 12  1  0  0  0
 37 32  1  0  0  0
M  END
> <minimizedAffinity>
-8.47708

> <CNNscore>
0.2601550817

> <CNNaffinity>
7.0025205612

> <CNN_VS>
1.8217413425

> <CNNaffinity_variance>
0.3038150966

$$$$
[H]c1c([H])c(C#N)c([H])c(OC([H])([H])C([H])([H])C2([H])C([H])([H])C([H])([H])N(C([H])([H])c3c([H])c(OC([H])([H])C([H])([H])C([H])([H])c4c([H])c([H])c(S(=O)(=O)C([H])([H])[H])c([H])c4[H])c([H])c([H])c3Cl)C([H])([H])C2([H])[H])c1[H]


 39 42  0  0  0  0  0  0  0  0999 V2000
    0.0718   22.2938  -25.5322 Cl  0  0  0  0  0  0  0  0  0  0  0  0
   -1.2386   22.6134  -26.6601 C   0  0  0  0  0  0  0  0  0  0  0  0
   -0.9747   22.9502  -27.9712 C   0  0  0  0  0  0  0  0  0  0  0  0
   -1.9937   23.1982  -28.8485 C   0  0  0  0  0  0  0  0  0  0  0  0
   -3.2818   23.1046  -28.3935 C   0  0  0  0  0  0  0  0  0  0  0  0
   -3.5679   22.7639  -27.0645 C   0  0  0  0  0  0  0  0  0  0  0  0
   -2.5537   22.5150  -26.1863 C   0  0  0  0  0  0  0  0  0  0  0  0
   -4.3690   23.3417  -29.2217 O   0  0  0  0  0  0  0  0  0  0  0  0
   -4.6323   24.6038  -29.7884 C   0  0  0  0  0  0  0  0  0  0  0  0
   -5.6916   25.3336  -28.9788 C   0  0  0  0  0  0  0  0  0  0  0  0
   -4.9967   26.0910  -27.8662 C   0  0  0  0  0  0  0  0  0  0  0  0
   -5.6522   25.8451  -26.5555 C   0  0  0  0  0  0  0  0  0  0  0  0
   -5.4646   26.6217  -25.4379 C   0  0  0  0  0  0  0  0  0  0  0  0
   -6.1032   26.3480  -24.2442 C   0  0  0  0  0  0  0  0  0  0  0  0
   -6.9648   25.2698  -24.1285 C   0  0  0  0  0  0  0  0  0  0  0  0
   -7.1602   24.4832  -25.2450 C   0  0  0  0  0  0  0  0  0  0  0  0
   -6.5145   24.7646  -26.4422 C   0  0  0  0  0  0  0  0  0  0  0  0
   -7.7891   24.9065  -22.6154 S   0  0  0  0  0  0  0  0  0  0  0  0
   -9.4650   25.4337  -22.7347 C   0  0  0  0  0  0  0  0  0  0  0  0
   -7.7132   23.4101  -22.3610 O   0  0  0  0  0  0  0  0  0  0  0  0
   -7.1433   25.5852  -21.4510 O   0  0  0  0  0  0  0  0  0  0  0  0
   -2.7511   22.2130  -24.7872 C   0  0  0  0  0  0  0  0  0  0  0  0
   -3.8680   22.8483  -24.1620 N   0  0  0  0  0  0  0  0  0  0  0  0
   -3.4197   24.0378  -23.4624 C   0  0  0  0  0  0  0  0  0  0  0  0
   -3.8005   24.1793  -22.0494 C   0  0  0  0  0  0  0  0  0  0  0  0
   -3.5569   22.9429  -21.2250 C   0  0  0  0  0  0  0  0  0  0  0  0
   -3.7667   21.6941  -22.0466 C   0  0  0  0  0  0  0  0  0  0  0  0
   -4.5918   21.9621  -23.2693 C   0  0  0  0  0  0  0  0  0  0  0  0
   -2.1589   22.8900  -20.6263 C   0  0  0  0  0  0  0  0  0  0  0  0
   -1.6868   21.4609  -20.5191 C   0  0  0  0  0  0  0  0  0  0  0  0
   -0.4053   21.3929  -20.0493 O   0  0  0  0  0  0  0  0  0  0  0  0
    0.8128   21.2755  -20.5982 C   0  0  0  0  0  0  0  0  0  0  0  0
    0.8839   20.9269  -21.9600 C   0  0  0  0  0  0  0  0  0  0  0  0
    2.0821   20.7838  -22.6167 C   0  0  0  0  0  0  0  0  0  0  0  0
    3.2726   20.9828  -21.9433 C   0  0  0  0  0  0  0  0  0  0  0  0
    3.2319   21.3228  -20.6195 C   0  0  0  0  0  0  0  0  0  0  0  0
    2.0179   21.4628  -19.9739 C   0  0  0  0  0  0  0  0  0  0  0  0
    4.4852   21.5264  -19.9342 C   0  0  0  0  0  0  0  0  0  0  0  0
    5.4982   21.6740  -19.3806 N   0  0  0  0  0  0  0  0  0  0  0  0
  1  2  1  0  0  0
  2  3  2  0  0  0
  3  4  1  0  0  0
  4  5  2  0  0  0
  5  8  1  0  0  0
  8  9  1  0  0  0
  9 10  1  0  0  0
 10 11  1  0  0  0
 11 12  1  0  0  0
 12 13  2  0  0  0
 13 14  1  0  0  0
 14 15  2  0  0  0
 15 16  1  0  0  0
 16 17  2  0  0  0
 15 18  1  0  0  0
 18 19  1  0  0  0
 18 20  2  0  0  0
 18 21  2  0  0  0
  5  6  1  0  0  0
  6  7  2  0  0  0
  7 22  1  0  0  0
 22 23  1  0  0  0
 23 24  1  0  0  0
 24 25  1  0  0  0
 25 26  1  0  0  0
 26 29  1  0  0  0
 29 30  1  0  0  0
 30 31  1  0  0  0
 31 32  1  0  0  0
 32 33  2  0  0  0
 33 34  1  0  0  0
 34 35  2  0  0  0
 35 36  1  0  0  0
 36 38  1  0  0  0
 38 39  3  0  0  0
 36 37  2  0  0  0
 26 27  1  0  0  0
 27 28  1  0  0  0
  7  2  1  0  0  0
 28 23  1  0  0  0
 17 12  1  0  0  0
 37 32  1  0  0  0
M  END
> <minimizedAffinity>
-7.87012

> <CNNscore>
0.2118324190

> <CNNaffinity>
7.2300539017

> <CNN_VS>
1.5315598249

> <CNNaffinity_variance>
0.4276734889

$$$$
[H]c1c([H])c(C#N)c([H])c(OC([H])([H])C([H])([H])C2([H])C([H])([H])C([H])([H])N(C([H])([H])c3c([H])c(OC([H])([H])C([H])([H])C([H])([H])c4c([H])c([H])c(S(=O)(=O)C([H])([H])[H])c([H])c4[H])c([H])c([H])c3Cl)C([H])([H])C2([H])[H])c1[H]


 39 42  0  0  0  0  0  0  0  0999 V2000
   -5.0905   21.6813  -21.0802 Cl  0  0  0  0  0  0  0  0  0  0  0  0
   -3.6430   21.6873  -22.0781 C   0  0  0  0  0  0  0  0  0  0  0  0
   -2.3935   21.5544  -21.5096 C   0  0  0  0  0  0  0  0  0  0  0  0
   -1.2678   21.5585  -22.2856 C   0  0  0  0  0  0  0  0  0  0  0  0
   -1.4112   21.6983  -23.6402 C   0  0  0  0  0  0  0  0  0  0  0  0
   -2.6732   21.8347  -24.2344 C   0  0  0  0  0  0  0  0  0  0  0  0
   -3.7989   21.8303  -23.4634 C   0  0  0  0  0  0  0  0  0  0  0  0
   -0.3180   21.7124  -24.4938 O   0  0  0  0  0  0  0  0  0  0  0  0
    0.1448   22.8872  -25.1173 C   0  0  0  0  0  0  0  0  0  0  0  0
    0.4959   22.6090  -26.5697 C   0  0  0  0  0  0  0  0  0  0  0  0
   -0.6132   21.7711  -27.1713 C   0  0  0  0  0  0  0  0  0  0  0  0
   -1.6706   22.6263  -27.7702 C   0  0  0  0  0  0  0  0  0  0  0  0
   -1.4670   23.4891  -28.8196 C   0  0  0  0  0  0  0  0  0  0  0  0
   -2.4889   24.2595  -29.3392 C   0  0  0  0  0  0  0  0  0  0  0  0
   -3.7695   24.1897  -28.8164 C   0  0  0  0  0  0  0  0  0  0  0  0
   -3.9850   23.3264  -27.7620 C   0  0  0  0  0  0  0  0  0  0  0  0
   -2.9523   22.5548  -27.2447 C   0  0  0  0  0  0  0  0  0  0  0  0
   -5.0852   25.1628  -29.4669 S   0  0  0  0  0  0  0  0  0  0  0  0
   -4.5591   25.9027  -30.9757 C   0  0  0  0  0  0  0  0  0  0  0  0
   -6.2908   24.2673  -29.6993 O   0  0  0  0  0  0  0  0  0  0  0  0
   -5.5090   26.2354  -28.5165 O   0  0  0  0  0  0  0  0  0  0  0  0
   -5.1344   22.0212  -23.9807 C   0  0  0  0  0  0  0  0  0  0  0  0
   -5.4041   23.2999  -24.5588 N   0  0  0  0  0  0  0  0  0  0  0  0
   -4.5486   24.2989  -23.9461 C   0  0  0  0  0  0  0  0  0  0  0  0
   -5.1923   25.5031  -23.4013 C   0  0  0  0  0  0  0  0  0  0  0  0
   -6.3926   25.2162  -22.5384 C   0  0  0  0  0  0  0  0  0  0  0  0
   -7.1352   23.9978  -23.0311 C   0  0  0  0  0  0  0  0  0  0  0  0
   -6.8012   23.6794  -24.4575 C   0  0  0  0  0  0  0  0  0  0  0  0
   -6.0375   24.9981  -21.0747 C   0  0  0  0  0  0  0  0  0  0  0  0
   -7.0528   25.6685  -20.1822 C   0  0  0  0  0  0  0  0  0  0  0  0
   -7.4429   24.8446  -19.1641 O   0  0  0  0  0  0  0  0  0  0  0  0
   -7.6906   23.5330  -19.0324 C   0  0  0  0  0  0  0  0  0  0  0  0
   -8.6417   22.9589  -19.8966 C   0  0  0  0  0  0  0  0  0  0  0  0
   -8.9656   21.6247  -19.8450 C   0  0  0  0  0  0  0  0  0  0  0  0
   -8.3532   20.7953  -18.9243 C   0  0  0  0  0  0  0  0  0  0  0  0
   -7.4250   21.3277  -18.0731 C   0  0  0  0  0  0  0  0  0  0  0  0
   -7.1106   22.6719  -18.1385 C   0  0  0  0  0  0  0  0  0  0  0  0
   -6.7968   20.4457  -17.1195 C   0  0  0  0  0  0  0  0  0  0  0  0
   -6.2844   19.7475  -16.3420 N   0  0  0  0  0  0  0  0  0  0  0  0
  1  2  1  0  0  0
  2  3  2  0  0  0
  3  4  1  0  0  0
  4  5  2  0  0  0
  5  8  1  0  0  0
  8  9  1  0  0  0
  9 10  1  0  0  0
 10 11  1  0  0  0
 11 12  1  0  0  0
 12 13  2  0  0  0
 13 14  1  0  0  0
 14 15  2  0  0  0
 15 16  1  0  0  0
 16 17  2  0  0  0
 15 18  1  0  0  0
 18 19  1  0  0  0
 18 20  2  0  0  0
 18 21  2  0  0  0
  5  6  1  0  0  0
  6  7  2  0  0  0
  7 22  1  0  0  0
 22 23  1  0  0  0
 23 24  1  0  0  0
 24 25  1  0  0  0
 25 26  1  0  0  0
 26 29  1  0  0  0
 29 30  1  0  0  0
 30 31  1  0  0  0
 31 32  1  0  0  0
 32 33  2  0  0  0
 33 34  1  0  0  0
 34 35  2  0  0  0
 35 36  1  0  0  0
 36 38  1  0  0  0
 38 39  3  0  0  0
 36 37  2  0  0  0
 26 27  1  0  0  0
 27 28  1  0  0  0
  7  2  1  0  0  0
 28 23  1  0  0  0
 17 12  1  0  0  0
 37 32  1  0  0  0
M  END
> <minimizedAffinity>
-7.51474

> <CNNscore>
0.2003608346

> <CNNaffinity>
7.1870322227

> <CNN_VS>
1.4399998188

> <CNNaffinity_variance>
0.1947270930

$$$$
[H]c1c([H])c(C#N)c([H])c(OC([H])([H])C([H])([H])C2([H])C([H])([H])C([H])([H])N(C([H])([H])c3c([H])c(OC([H])([H])C([H])([H])C([H])([H])c4c([H])c([H])c(S(=O)(=O)C([H])([H])[H])c([H])c4[H])c([H])c([H])c3Cl)C([H])([H])C2([H])[H])c1[H]


 39 42  0  0  0  0  0  0  0  0999 V2000
   -4.9195   21.6446  -21.0830 Cl  0  0  0  0  0  0  0  0  0  0  0  0
   -3.4952   21.6664  -22.1136 C   0  0  0  0  0  0  0  0  0  0  0  0
   -2.2292   21.6134  -21.5690 C   0  0  0  0  0  0  0  0  0  0  0  0
   -1.1216   21.6298  -22.3705 C   0  0  0  0  0  0  0  0  0  0  0  0
   -1.2999   21.7006  -23.7263 C   0  0  0  0  0  0  0  0  0  0  0  0
   -2.5791   21.7554  -24.2964 C   0  0  0  0  0  0  0  0  0  0  0  0
   -3.6868   21.7385  -23.5000 C   0  0  0  0  0  0  0  0  0  0  0  0
   -0.2269   21.7220  -24.6050 O   0  0  0  0  0  0  0  0  0  0  0  0
    0.2522   22.9093  -25.1915 C   0  0  0  0  0  0  0  0  0  0  0  0
    0.5034   22.6991  -26.6756 C   0  0  0  0  0  0  0  0  0  0  0  0
   -0.6266   21.8572  -27.2311 C   0  0  0  0  0  0  0  0  0  0  0  0
   -1.6871   22.7073  -27.8320 C   0  0  0  0  0  0  0  0  0  0  0  0
   -1.4952   23.5410  -28.9068 C   0  0  0  0  0  0  0  0  0  0  0  0
   -2.5194   24.3078  -29.4270 C   0  0  0  0  0  0  0  0  0  0  0  0
   -3.7905   24.2641  -28.8788 C   0  0  0  0  0  0  0  0  0  0  0  0
   -3.9942   23.4301  -27.7988 C   0  0  0  0  0  0  0  0  0  0  0  0
   -2.9592   22.6619  -27.2811 C   0  0  0  0  0  0  0  0  0  0  0  0
   -5.1091   25.2331  -29.5296 S   0  0  0  0  0  0  0  0  0  0  0  0
   -4.6204   25.8937  -31.0871 C   0  0  0  0  0  0  0  0  0  0  0  0
   -6.3383   24.3525  -29.6811 O   0  0  0  0  0  0  0  0  0  0  0  0
   -5.4806   26.3558  -28.6157 O   0  0  0  0  0  0  0  0  0  0  0  0
   -5.0401   21.8480  -23.9940 C   0  0  0  0  0  0  0  0  0  0  0  0
   -5.3761   23.0837  -24.6282 N   0  0  0  0  0  0  0  0  0  0  0  0
   -4.5773   24.1531  -24.0593 C   0  0  0  0  0  0  0  0  0  0  0  0
   -5.2864   25.3439  -23.5688 C   0  0  0  0  0  0  0  0  0  0  0  0
   -6.4724   25.0311  -22.6951 C   0  0  0  0  0  0  0  0  0  0  0  0
   -7.1470   23.7542  -23.1343 C   0  0  0  0  0  0  0  0  0  0  0  0
   -6.7918   23.3917  -24.5450 C   0  0  0  0  0  0  0  0  0  0  0  0
   -6.1110   24.8970  -21.2229 C   0  0  0  0  0  0  0  0  0  0  0  0
   -6.8317   25.9421  -20.4075 C   0  0  0  0  0  0  0  0  0  0  0  0
   -7.7177   25.3720  -19.5371 O   0  0  0  0  0  0  0  0  0  0  0  0
   -8.6526   24.4131  -19.6104 C   0  0  0  0  0  0  0  0  0  0  0  0
   -8.2899   23.1160  -19.2017 C   0  0  0  0  0  0  0  0  0  0  0  0
   -9.1737   22.0646  -19.2353 C   0  0  0  0  0  0  0  0  0  0  0  0
  -10.4680   22.2578  -19.6805 C   0  0  0  0  0  0  0  0  0  0  0  0
  -10.8464   23.5086  -20.0830 C   0  0  0  0  0  0  0  0  0  0  0  0
   -9.9449   24.5553  -20.0426 C   0  0  0  0  0  0  0  0  0  0  0  0
  -12.2016   23.6899  -20.5440 C   0  0  0  0  0  0  0  0  0  0  0  0
  -13.2903   23.8510  -20.9224 N   0  0  0  0  0  0  0  0  0  0  0  0
  1  2  1  0  0  0
  2  3  2  0  0  0
  3  4  1  0  0  0
  4  5  2  0  0  0
  5  8  1  0  0  0
  8  9  1  0  0  0
  9 10  1  0  0  0
 10 11  1  0  0  0
 11 12  1  0  0  0
 12 13  2  0  0  0
 13 14  1  0  0  0
 14 15  2  0  0  0
 15 16  1  0  0  0
 16 17  2  0  0  0
 15 18  1  0  0  0
 18 19  1  0  0  0
 18 20  2  0  0  0
 18 21  2  0  0  0
  5  6  1  0  0  0
  6  7  2  0  0  0
  7 22  1  0  0  0
 22 23  1  0  0  0
 23 24  1  0  0  0
 24 25  1  0  0  0
 25 26  1  0  0  0
 26 29  1  0  0  0
 29 30  1  0  0  0
 30 31  1  0  0  0
 31 32  1  0  0  0
 32 33  2  0  0  0
 33 34  1  0  0  0
 34 35  2  0  0  0
 35 36  1  0  0  0
 36 38  1  0  0  0
 38 39  3  0  0  0
 36 37  2  0  0  0
 26 27  1  0  0  0
 27 28  1  0  0  0
  7  2  1  0  0  0
 28 23  1  0  0  0
 17 12  1  0  0  0
 37 32  1  0  0  0
M  END
> <minimizedAffinity>
-7.66321

> <CNNscore>
0.1950328797

> <CNNaffinity>
7.1111397743

> <CNN_VS>
1.3869060278

> <CNNaffinity_variance>
0.2338120490

$$$$
[H]c1c([H])c(C#N)c([H])c(OC([H])([H])C([H])([H])C2([H])C([H])([H])C([H])([H])N(C([H])([H])c3c([H])c(OC([H])([H])C([H])([H])C([H])([H])c4c([H])c([H])c(S(=O)(=O)C([H])([H])[H])c([H])c4[H])c([H])c([H])c3Cl)C([H])([H])C2([H])[H])c1[H]


 39 42  0  0  0  0  0  0  0  0999 V2000
   -1.7355   23.1254  -28.4581 Cl  0  0  0  0  0  0  0  0  0  0  0  0
   -1.2618   22.6379  -26.8366 C   0  0  0  0  0  0  0  0  0  0  0  0
    0.0652   22.4353  -26.5200 C   0  0  0  0  0  0  0  0  0  0  0  0
    0.4336   22.0567  -25.2589 C   0  0  0  0  0  0  0  0  0  0  0  0
   -0.5466   21.8832  -24.3186 C   0  0  0  0  0  0  0  0  0  0  0  0
   -1.8997   22.0845  -24.6233 C   0  0  0  0  0  0  0  0  0  0  0  0
   -2.2713   22.4630  -25.8804 C   0  0  0  0  0  0  0  0  0  0  0  0
   -0.2531   21.4999  -23.0183 O   0  0  0  0  0  0  0  0  0  0  0  0
    1.0225   21.0485  -22.6281 C   0  0  0  0  0  0  0  0  0  0  0  0
    0.9725   20.4841  -21.2178 C   0  0  0  0  0  0  0  0  0  0  0  0
    0.5388   21.5924  -20.2809 C   0  0  0  0  0  0  0  0  0  0  0  0
    1.6989   22.1655  -19.5503 C   0  0  0  0  0  0  0  0  0  0  0  0
    1.6051   23.1552  -18.6022 C   0  0  0  0  0  0  0  0  0  0  0  0
    2.7185   23.6494  -17.9512 C   0  0  0  0  0  0  0  0  0  0  0  0
    3.9834   23.1606  -18.2330 C   0  0  0  0  0  0  0  0  0  0  0  0
    4.0889   22.1664  -19.1838 C   0  0  0  0  0  0  0  0  0  0  0  0
    2.9647   21.6744  -19.8344 C   0  0  0  0  0  0  0  0  0  0  0  0
    5.4141   23.7771  -17.4120 S   0  0  0  0  0  0  0  0  0  0  0  0
    5.7925   22.7247  -16.0518 C   0  0  0  0  0  0  0  0  0  0  0  0
    6.5690   23.8160  -18.3989 O   0  0  0  0  0  0  0  0  0  0  0  0
    5.2136   25.1712  -16.9122 O   0  0  0  0  0  0  0  0  0  0  0  0
   -3.6426   22.6385  -26.3003 C   0  0  0  0  0  0  0  0  0  0  0  0
   -3.9856   23.9367  -26.7891 N   0  0  0  0  0  0  0  0  0  0  0  0
   -4.0700   24.8660  -25.6779 C   0  0  0  0  0  0  0  0  0  0  0  0
   -5.2970   25.6662  -25.5529 C   0  0  0  0  0  0  0  0  0  0  0  0
   -6.5647   24.8641  -25.6846 C   0  0  0  0  0  0  0  0  0  0  0  0
   -6.3841   23.7208  -26.6536 C   0  0  0  0  0  0  0  0  0  0  0  0
   -5.2129   23.9398  -27.5635 C   0  0  0  0  0  0  0  0  0  0  0  0
   -7.0511   24.2938  -24.3602 C   0  0  0  0  0  0  0  0  0  0  0  0
   -6.6440   22.8468  -24.2300 C   0  0  0  0  0  0  0  0  0  0  0  0
   -5.8576   22.6470  -23.1303 O   0  0  0  0  0  0  0  0  0  0  0  0
   -6.0387   22.1461  -21.8994 C   0  0  0  0  0  0  0  0  0  0  0  0
   -4.8959   21.7364  -21.1872 C   0  0  0  0  0  0  0  0  0  0  0  0
   -4.9730   21.2125  -19.9195 C   0  0  0  0  0  0  0  0  0  0  0  0
   -6.1997   21.0717  -19.2983 C   0  0  0  0  0  0  0  0  0  0  0  0
   -7.3260   21.4625  -19.9680 C   0  0  0  0  0  0  0  0  0  0  0  0
   -7.2307   21.9877  -21.2429 C   0  0  0  0  0  0  0  0  0  0  0  0
   -8.5969   21.3077  -19.3027 C   0  0  0  0  0  0  0  0  0  0  0  0
   -9.6213   21.1663  -18.7687 N   0  0  0  0  0  0  0  0  0  0  0  0
  1  2  1  0  0  0
  2  3  2  0  0  0
  3  4  1  0  0  0
  4  5  2  0  0  0
  5  8  1  0  0  0
  8  9  1  0  0  0
  9 10  1  0  0  0
 10 11  1  0  0  0
 11 12  1  0  0  0
 12 13  2  0  0  0
 13 14  1  0  0  0
 14 15  2  0  0  0
 15 16  1  0  0  0
 16 17  2  0  0  0
 15 18  1  0  0  0
 18 19  1  0  0  0
 18 20  2  0  0  0
 18 21  2  0  0  0
  5  6  1  0  0  0
  6  7  2  0  0  0
  7 22  1  0  0  0
 22 23  1  0  0  0
 23 24  1  0  0  0
 24 25  1  0  0  0
 25 26  1  0  0  0
 26 29  1  0  0  0
 29 30  1  0  0  0
 30 31  1  0  0  0
 31 32  1  0  0  0
 32 33  2  0  0  0
 33 34  1  0  0  0
 34 35  2  0  0  0
 35 36  1  0  0  0
 36 38  1  0  0  0
 38 39  3  0  0  0
 36 37  2  0  0  0
 26 27  1  0  0  0
 27 28  1  0  0  0
  7  2  1  0  0  0
 28 23  1  0  0  0
 17 12  1  0  0  0
 37 32  1  0  0  0
M  END
> <minimizedAffinity>
-7.73432

> <CNNscore>
0.1843092740

> <CNNaffinity>
6.7057847977

> <CNN_VS>
1.2359383106

> <CNNaffinity_variance>
0.1805523485

$$$$
[H]c1c([H])c(C#N)c([H])c(OC([H])([H])C([H])([H])C2([H])C([H])([H])C([H])([H])N(C([H])([H])c3c([H])c(OC([H])([H])C([H])([H])C([H])([H])c4c([H])c([H])c(S(=O)(=O)C([H])([H])[H])c([H])c4[H])c([H])c([H])c3Cl)C([H])([H])C2([H])[H])c1[H]


 39 42  0  0  0  0  0  0  0  0999 V2000
   -2.5629   22.7830  -28.5636 Cl  0  0  0  0  0  0  0  0  0  0  0  0
   -1.8746   22.6541  -26.9509 C   0  0  0  0  0  0  0  0  0  0  0  0
   -0.5232   22.4421  -26.7753 C   0  0  0  0  0  0  0  0  0  0  0  0
    0.0122   22.3425  -25.5212 C   0  0  0  0  0  0  0  0  0  0  0  0
   -0.8258   22.4577  -24.4444 C   0  0  0  0  0  0  0  0  0  0  0  0
   -2.2014   22.6729  -24.6047 C   0  0  0  0  0  0  0  0  0  0  0  0
   -2.7393   22.7737  -25.8545 C   0  0  0  0  0  0  0  0  0  0  0  0
   -0.3590   22.3675  -23.1413 O   0  0  0  0  0  0  0  0  0  0  0  0
   -0.1328   21.1353  -22.4981 C   0  0  0  0  0  0  0  0  0  0  0  0
    0.3641   21.3650  -21.0803 C   0  0  0  0  0  0  0  0  0  0  0  0
    1.7086   20.6828  -20.9350 C   0  0  0  0  0  0  0  0  0  0  0  0
    2.6112   21.4548  -20.0420 C   0  0  0  0  0  0  0  0  0  0  0  0
    3.9764   21.5130  -20.1832 C   0  0  0  0  0  0  0  0  0  0  0  0
    4.7677   22.2502  -19.3241 C   0  0  0  0  0  0  0  0  0  0  0  0
    4.2085   22.9653  -18.2781 C   0  0  0  0  0  0  0  0  0  0  0  0
    2.8381   22.9137  -18.1271 C   0  0  0  0  0  0  0  0  0  0  0  0
    2.0487   22.1700  -18.9950 C   0  0  0  0  0  0  0  0  0  0  0  0
    5.2011   23.9122  -17.1739 S   0  0  0  0  0  0  0  0  0  0  0  0
    6.4424   22.8715  -16.4833 C   0  0  0  0  0  0  0  0  0  0  0  0
    5.8305   25.0626  -17.9420 O   0  0  0  0  0  0  0  0  0  0  0  0
    4.3919   24.5099  -16.0688 O   0  0  0  0  0  0  0  0  0  0  0  0
   -4.1505   22.9383  -26.1170 C   0  0  0  0  0  0  0  0  0  0  0  0
   -4.5570   24.2347  -26.5599 N   0  0  0  0  0  0  0  0  0  0  0  0
   -4.5820   25.1465  -25.4315 C   0  0  0  0  0  0  0  0  0  0  0  0
   -5.8145   25.9157  -25.2064 C   0  0  0  0  0  0  0  0  0  0  0  0
   -7.0700   25.0858  -25.2591 C   0  0  0  0  0  0  0  0  0  0  0  0
   -6.9340   23.9605  -26.2559 C   0  0  0  0  0  0  0  0  0  0  0  0
   -5.8367   24.2194  -27.2441 C   0  0  0  0  0  0  0  0  0  0  0  0
   -7.4467   24.4862  -23.9121 C   0  0  0  0  0  0  0  0  0  0  0  0
   -8.0621   25.5380  -23.0224 C   0  0  0  0  0  0  0  0  0  0  0  0
   -9.3936   25.3047  -22.8218 O   0  0  0  0  0  0  0  0  0  0  0  0
  -10.2053   25.2327  -21.7566 C   0  0  0  0  0  0  0  0  0  0  0  0
  -11.0532   26.3281  -21.5074 C   0  0  0  0  0  0  0  0  0  0  0  0
  -11.9235   26.3524  -20.4445 C   0  0  0  0  0  0  0  0  0  0  0  0
  -11.9899   25.2799  -19.5751 C   0  0  0  0  0  0  0  0  0  0  0  0
  -11.1771   24.2025  -19.7947 C   0  0  0  0  0  0  0  0  0  0  0  0
  -10.3075   24.1942  -20.8689 C   0  0  0  0  0  0  0  0  0  0  0  0
  -11.2614   23.0929  -18.8763 C   0  0  0  0  0  0  0  0  0  0  0  0
  -11.3436   22.1929  -18.1430 N   0  0  0  0  0  0  0  0  0  0  0  0
  1  2  1  0  0  0
  2  3  2  0  0  0
  3  4  1  0  0  0
  4  5  2  0  0  0
  5  8  1  0  0  0
  8  9  1  0  0  0
  9 10  1  0  0  0
 10 11  1  0  0  0
 11 12  1  0  0  0
 12 13  2  0  0  0
 13 14  1  0  0  0
 14 15  2  0  0  0
 15 16  1  0  0  0
 16 17  2  0  0  0
 15 18  1  0  0  0
 18 19  1  0  0  0
 18 20  2  0  0  0
 18 21  2  0  0  0
  5  6  1  0  0  0
  6  7  2  0  0  0
  7 22  1  0  0  0
 22 23  1  0  0  0
 23 24  1  0  0  0
 24 25  1  0  0  0
 25 26  1  0  0  0
 26 29  1  0  0  0
 29 30  1  0  0  0
 30 31  1  0  0  0
 31 32  1  0  0  0
 32 33  2  0  0  0
 33 34  1  0  0  0
 34 35  2  0  0  0
 35 36  1  0  0  0
 36 38  1  0  0  0
 38 39  3  0  0  0
 36 37  2  0  0  0
 26 27  1  0  0  0
 27 28  1  0  0  0
  7  2  1  0  0  0
 28 23  1  0  0  0
 17 12  1  0  0  0
 37 32  1  0  0  0
M  END
> <minimizedAffinity>
-7.92877

> <CNNscore>
0.1770340502

> <CNNaffinity>
6.2908487320

> <CNN_VS>
1.1136944294

> <CNNaffinity_variance>
0.1046265364

$$$$
[H]c1c([H])c(C#N)c([H])c(OC([H])([H])C([H])([H])C2([H])C([H])([H])C([H])([H])N(C([H])([H])c3c([H])c(OC([H])([H])C([H])([H])C([H])([H])c4c([H])c([H])c(S(=O)(=O)C([H])([H])[H])c([H])c4[H])c([H])c([H])c3Cl)C([H])([H])C2([H])[H])c1[H]


 39 42  0  0  0  0  0  0  0  0999 V2000
   -0.9715   22.7996  -28.0368 Cl  0  0  0  0  0  0  0  0  0  0  0  0
   -0.8609   22.4437  -26.3185 C   0  0  0  0  0  0  0  0  0  0  0  0
    0.3648   22.2614  -25.7132 C   0  0  0  0  0  0  0  0  0  0  0  0
    0.4510   21.9852  -24.3769 C   0  0  0  0  0  0  0  0  0  0  0  0
   -0.7089   21.8936  -23.6548 C   0  0  0  0  0  0  0  0  0  0  0  0
   -1.9627   22.0757  -24.2540 C   0  0  0  0  0  0  0  0  0  0  0  0
   -2.0527   22.3521  -25.5871 C   0  0  0  0  0  0  0  0  0  0  0  0
   -0.7044   21.6162  -22.2958 O   0  0  0  0  0  0  0  0  0  0  0  0
   -0.2021   20.4113  -21.7672 C   0  0  0  0  0  0  0  0  0  0  0  0
    1.0764   20.6712  -20.9875 C   0  0  0  0  0  0  0  0  0  0  0  0
    0.7645   21.6642  -19.8870 C   0  0  0  0  0  0  0  0  0  0  0  0
    2.0086   22.1987  -19.2748 C   0  0  0  0  0  0  0  0  0  0  0  0
    3.2699   21.7266  -19.5457 C   0  0  0  0  0  0  0  0  0  0  0  0
    4.3935   22.2639  -18.9487 C   0  0  0  0  0  0  0  0  0  0  0  0
    4.2892   23.3089  -18.0458 C   0  0  0  0  0  0  0  0  0  0  0  0
    3.0269   23.7906  -17.7665 C   0  0  0  0  0  0  0  0  0  0  0  0
    1.9014   23.2452  -18.3708 C   0  0  0  0  0  0  0  0  0  0  0  0
    5.7105   24.0079  -17.2762 S   0  0  0  0  0  0  0  0  0  0  0  0
    6.9599   24.2511  -18.4930 C   0  0  0  0  0  0  0  0  0  0  0  0
    5.3221   25.3289  -16.6332 O   0  0  0  0  0  0  0  0  0  0  0  0
    6.2465   23.1301  -16.1918 O   0  0  0  0  0  0  0  0  0  0  0  0
   -3.3006   22.4992  -26.3003 C   0  0  0  0  0  0  0  0  0  0  0  0
   -3.6736   23.8365  -26.6386 N   0  0  0  0  0  0  0  0  0  0  0  0
   -3.7945   24.6268  -25.4277 C   0  0  0  0  0  0  0  0  0  0  0  0
   -5.0439   25.3751  -25.2264 C   0  0  0  0  0  0  0  0  0  0  0  0
   -6.2880   24.5617  -25.4678 C   0  0  0  0  0  0  0  0  0  0  0  0
   -6.0666   23.5447  -26.5611 C   0  0  0  0  0  0  0  0  0  0  0  0
   -4.8926   23.8988  -27.4236 C   0  0  0  0  0  0  0  0  0  0  0  0
   -6.7723   23.8279  -24.2256 C   0  0  0  0  0  0  0  0  0  0  0  0
   -6.3902   22.3699  -24.2941 C   0  0  0  0  0  0  0  0  0  0  0  0
   -6.7265   21.7116  -23.1447 O   0  0  0  0  0  0  0  0  0  0  0  0
   -6.4277   21.8392  -21.8435 C   0  0  0  0  0  0  0  0  0  0  0  0
   -7.4702   21.6627  -20.9144 C   0  0  0  0  0  0  0  0  0  0  0  0
   -7.2685   21.7697  -19.5596 C   0  0  0  0  0  0  0  0  0  0  0  0
   -6.0110   22.0594  -19.0643 C   0  0  0  0  0  0  0  0  0  0  0  0
   -4.9803   22.2352  -19.9454 C   0  0  0  0  0  0  0  0  0  0  0  0
   -5.2004   22.1239  -21.3052 C   0  0  0  0  0  0  0  0  0  0  0  0
   -3.6753   22.5366  -19.4087 C   0  0  0  0  0  0  0  0  0  0  0  0
   -2.6157   22.7751  -18.9904 N   0  0  0  0  0  0  0  0  0  0  0  0
  1  2  1  0  0  0
  2  3  2  0  0  0
  3  4  1  0  0  0
  4  5  2  0  0  0
  5  8  1  0  0  0
  8  9  1  0  0  0
  9 10  1  0  0  0
 10 11  1  0  0  0
 11 12  1  0  0  0
 12 13  2  0  0  0
 13 14  1  0  0  0
 14 15  2  0  0  0
 15 16  1  0  0  0
 16 17  2  0  0  0
 15 18  1  0  0  0
 18 19  1  0  0  0
 18 20  2  0  0  0
 18 21  2  0  0  0
  5  6  1  0  0  0
  6  7  2  0  0  0
  7 22  1  0  0  0
 22 23  1  0  0  0
 23 24  1  0  0  0
 24 25  1  0  0  0
 25 26  1  0  0  0
 26 29  1  0  0  0
 29 30  1  0  0  0
 30 31  1  0  0  0
 31 32  1  0  0  0
 32 33  2  0  0  0
 33 34  1  0  0  0
 34 35  2  0  0  0
 35 36  1  0  0  0
 36 38  1  0  0  0
 38 39  3  0  0  0
 36 37  2  0  0  0
 26 27  1  0  0  0
 27 28  1  0  0  0
  7  2  1  0  0  0
 28 23  1  0  0  0
 17 12  1  0  0  0
 37 32  1  0  0  0
M  END
> <minimizedAffinity>
-7.76213

> <CNNscore>
0.1768205613

> <CNNaffinity>
6.7208237648

> <CNN_VS>
1.1883798838

> <CNNaffinity_variance>
0.2928846478

$$$$
[H]c1c([H])c(C#N)c([H])c(OC([H])([H])C([H])([H])C2([H])C([H])([H])C([H])([H])N(C([H])([H])c3c([H])c(OC([H])([H])C([H])([H])C([H])([H])c4c([H])c([H])c(S(=O)(=O)C([H])([H])[H])c([H])c4[H])c([H])c([H])c3Cl)C([H])([H])C2([H])[H])c1[H]


 39 42  0  0  0  0  0  0  0  0999 V2000
   -1.7803   23.1914  -28.8849 Cl  0  0  0  0  0  0  0  0  0  0  0  0
   -1.2726   22.7470  -27.2613 C   0  0  0  0  0  0  0  0  0  0  0  0
    0.0281   22.3641  -27.0087 C   0  0  0  0  0  0  0  0  0  0  0  0
    0.4231   22.0190  -25.7461 C   0  0  0  0  0  0  0  0  0  0  0  0
   -0.5039   22.0623  -24.7392 C   0  0  0  0  0  0  0  0  0  0  0  0
   -1.8297   22.4486  -24.9782 C   0  0  0  0  0  0  0  0  0  0  0  0
   -2.2275   22.7944  -26.2368 C   0  0  0  0  0  0  0  0  0  0  0  0
   -0.1808   21.7266  -23.4327 O   0  0  0  0  0  0  0  0  0  0  0  0
    1.1198   21.3525  -23.0431 C   0  0  0  0  0  0  0  0  0  0  0  0
    1.0593   20.3293  -21.9209 C   0  0  0  0  0  0  0  0  0  0  0  0
    1.6114   20.9723  -20.6655 C   0  0  0  0  0  0  0  0  0  0  0  0
    0.5477   21.1651  -19.6460 C   0  0  0  0  0  0  0  0  0  0  0  0
    0.6538   22.0068  -18.5655 C   0  0  0  0  0  0  0  0  0  0  0  0
   -0.3695   22.1495  -17.6489 C   0  0  0  0  0  0  0  0  0  0  0  0
   -1.5523   21.4422  -17.7866 C   0  0  0  0  0  0  0  0  0  0  0  0
   -1.6693   20.5938  -18.8683 C   0  0  0  0  0  0  0  0  0  0  0  0
   -0.6359   20.4555  -19.7860 C   0  0  0  0  0  0  0  0  0  0  0  0
   -2.8685   21.6125  -16.6292 S   0  0  0  0  0  0  0  0  0  0  0  0
   -3.8085   23.0447  -17.0367 C   0  0  0  0  0  0  0  0  0  0  0  0
   -3.7365   20.3663  -16.6846 O   0  0  0  0  0  0  0  0  0  0  0  0
   -2.3662   21.7383  -15.2272 O   0  0  0  0  0  0  0  0  0  0  0  0
   -3.5832   23.1503  -26.5875 C   0  0  0  0  0  0  0  0  0  0  0  0
   -3.8219   24.5378  -26.8326 N   0  0  0  0  0  0  0  0  0  0  0  0
   -4.2611   25.1778  -25.6067 C   0  0  0  0  0  0  0  0  0  0  0  0
   -5.5028   25.9633  -25.6573 C   0  0  0  0  0  0  0  0  0  0  0  0
   -6.6451   25.2559  -26.3373 C   0  0  0  0  0  0  0  0  0  0  0  0
   -6.1465   24.3712  -27.4541 C   0  0  0  0  0  0  0  0  0  0  0  0
   -4.7720   24.7638  -27.9061 C   0  0  0  0  0  0  0  0  0  0  0  0
   -7.4704   24.4022  -25.3856 C   0  0  0  0  0  0  0  0  0  0  0  0
   -7.7187   25.1440  -24.0953 C   0  0  0  0  0  0  0  0  0  0  0  0
   -7.1740   24.4856  -23.0288 O   0  0  0  0  0  0  0  0  0  0  0  0
   -6.1324   23.6621  -22.8397 C   0  0  0  0  0  0  0  0  0  0  0  0
   -6.2466   22.3446  -23.3218 C   0  0  0  0  0  0  0  0  0  0  0  0
   -5.2363   21.4242  -23.1810 C   0  0  0  0  0  0  0  0  0  0  0  0
   -4.0581   21.7756  -22.5495 C   0  0  0  0  0  0  0  0  0  0  0  0
   -3.9210   23.0496  -22.0722 C   0  0  0  0  0  0  0  0  0  0  0  0
   -4.9470   23.9633  -22.2223 C   0  0  0  0  0  0  0  0  0  0  0  0
   -2.6836   23.3970  -21.4165 C   0  0  0  0  0  0  0  0  0  0  0  0
   -1.6770   23.6700  -20.9000 N   0  0  0  0  0  0  0  0  0  0  0  0
  1  2  1  0  0  0
  2  3  2  0  0  0
  3  4  1  0  0  0
  4  5  2  0  0  0
  5  8  1  0  0  0
  8  9  1  0  0  0
  9 10  1  0  0  0
 10 11  1  0  0  0
 11 12  1  0  0  0
 12 13  2  0  0  0
 13 14  1  0  0  0
 14 15  2  0  0  0
 15 16  1  0  0  0
 16 17  2  0  0  0
 15 18  1  0  0  0
 18 19  1  0  0  0
 18 20  2  0  0  0
 18 21  2  0  0  0
  5  6  1  0  0  0
  6  7  2  0  0  0
  7 22  1  0  0  0
 22 23  1  0  0  0
 23 24  1  0  0  0
 24 25  1  0  0  0
 25 26  1  0  0  0
 26 29  1  0  0  0
 29 30  1  0  0  0
 30 31  1  0  0  0
 31 32  1  0  0  0
 32 33  2  0  0  0
 33 34  1  0  0  0
 34 35  2  0  0  0
 35 36  1  0  0  0
 36 38  1  0  0  0
 38 39  3  0  0  0
 36 37  2  0  0  0
 26 27  1  0  0  0
 27 28  1  0  0  0
  7  2  1  0  0  0
 28 23  1  0  0  0
 17 12  1  0  0  0
 37 32  1  0  0  0
M  END
> <minimizedAffinity>
-7.47031

> <CNNscore>
0.1760620624

> <CNNaffinity>
6.9416427612

> <CNN_VS>
1.2221599817

> <CNNaffinity_variance>
0.4002285600

$$$$
