[H]OC(=O)[C@@]([H])(N([H])C(=O)[C@@]([H])(N([H])C(=O)[C@@]([H])(N([H])C(=O)[C@@]([H])(N([H])C(=O)[C@@]([H])(N([H])[H])C([H])([H])C([H])([H])C([H])([H])C([H])([H])N([H])[H])C([H])([H])SC([H])(C([H])([H])[H])C([H])([H])[H])C([H])([H])C([H])(C([H])([H])[H])C([H])([H])[H])C([H])([H])C([H])(C([H])([H])[H])C([H])([H])[H])C([H])(C([H])([H])[H])C([H])([H])[H]


 51 50  0  0  0  0  0  0  0  0999 V2000
   34.6477  -14.3696   36.6626 C   0  0  0  0  0  0  0  0  0  0  0  0
   34.9104  -16.8496   35.8959 C   0  0  0  0  0  0  0  0  0  0  0  0
   35.3887  -17.4105   36.8924 O   0  0  0  0  0  0  0  0  0  0  0  0
   34.5852  -15.4798   35.8517 N   0  0  0  0  0  0  0  0  0  0  0  0
   34.2112  -15.2311   34.8276 H   0  0  0  0  0  0  0  0  0  0  0  0
   34.6787  -17.6916   34.6625 C   0  0  0  0  0  0  0  0  0  0  0  0
   35.5992  -18.8064   34.5796 N   0  0  0  0  0  0  0  0  0  0  0  0
   36.8714  -18.7092   33.9983 C   0  0  0  0  0  0  0  0  0  0  0  0
   37.3010  -17.6450   33.5072 O   0  0  0  0  0  0  0  0  0  0  0  0
   35.3179  -19.7630   34.9733 H   0  0  0  0  0  0  0  0  0  0  0  0
   37.8489  -19.8889   33.9125 C   0  0  0  0  0  0  0  0  0  0  0  0
   38.7092  -19.4464   32.7843 N   0  0  0  0  0  0  0  0  0  0  0  0
   38.5842  -20.0383   31.9615 H   0  0  0  0  0  0  0  0  0  0  0  0
   39.6566  -19.2309   33.0958 H   0  0  0  0  0  0  0  0  0  0  0  0
   38.5742  -19.9721   35.1760 C   0  0  0  0  0  0  0  0  0  0  0  0
   39.6584  -19.1365   35.6308 C   0  0  0  0  0  0  0  0  0  0  0  0
   41.0824  -19.4534   35.4748 C   0  0  0  0  0  0  0  0  0  0  0  0
   41.8930  -18.4600   34.7325 C   0  0  0  0  0  0  0  0  0  0  0  0
   41.1695  -17.9014   33.5854 N   0  0  0  0  0  0  0  0  0  0  0  0
   41.8873  -17.5069   32.9235 H   0  0  0  0  0  0  0  0  0  0  0  0
   40.4949  -18.5440   33.1656 H   0  0  0  0  0  0  0  0  0  0  0  0
   33.2879  -18.1924   34.4845 C   0  0  0  0  0  0  0  0  0  0  0  0
   32.7271  -19.4341   35.6135 S   0  0  0  0  0  0  0  0  0  0  0  0
   30.8697  -21.2465   36.3685 C   0  0  0  0  0  0  0  0  0  0  0  0
   31.2688  -20.3245   35.2068 C   0  0  0  0  0  0  0  0  0  0  0  0
   30.1211  -19.3496   34.9343 C   0  0  0  0  0  0  0  0  0  0  0  0
   33.4073  -13.5329   36.8237 C   0  0  0  0  0  0  0  0  0  0  0  0
   32.6031  -13.2456   35.9501 O   0  0  0  0  0  0  0  0  0  0  0  0
   33.1090  -13.0122   38.1352 N   0  0  0  0  0  0  0  0  0  0  0  0
   33.7551  -13.2199   38.9293 H   0  0  0  0  0  0  0  0  0  0  0  0
   31.9608  -12.2153   38.4658 C   0  0  0  0  0  0  0  0  0  0  0  0
   31.2593  -12.9190   39.5898 C   0  0  0  0  0  0  0  0  0  0  0  0
   31.8177  -12.9165   40.7391 O   0  0  0  0  0  0  0  0  0  0  0  0
   30.0240  -13.5884   39.4579 N   0  0  0  0  0  0  0  0  0  0  0  0
   29.5659  -13.6173   38.5330 H   0  0  0  0  0  0  0  0  0  0  0  0
   29.4065  -14.2364   40.5972 C   0  0  0  0  0  0  0  0  0  0  0  0
   29.1887  -15.6721   40.3545 C   0  0  0  0  0  0  0  0  0  0  0  0
   28.4448  -16.0911   39.2797 O   0  0  0  0  0  0  0  0  0  0  0  0
   29.6666  -16.5535   41.1132 O   0  0  0  0  0  0  0  0  0  0  0  0
   27.4328  -16.0809   39.3677 H   0  0  0  0  0  0  0  0  0  0  0  0
   28.2217  -13.4806   41.0987 C   0  0  0  0  0  0  0  0  0  0  0  0
   27.3961  -12.8974   39.9958 C   0  0  0  0  0  0  0  0  0  0  0  0
   27.4303  -14.2678   42.0908 C   0  0  0  0  0  0  0  0  0  0  0  0
   31.0491  -11.9071   37.3239 C   0  0  0  0  0  0  0  0  0  0  0  0
   30.5304  -10.5193   37.2335 C   0  0  0  0  0  0  0  0  0  0  0  0
   31.4965   -9.4133   37.4255 C   0  0  0  0  0  0  0  0  0  0  0  0
   29.3540  -10.2662   38.1608 C   0  0  0  0  0  0  0  0  0  0  0  0
   35.8563  -13.5017   36.6290 C   0  0  0  0  0  0  0  0  0  0  0  0
   37.1781  -14.0849   36.9861 C   0  0  0  0  0  0  0  0  0  0  0  0
   36.9888  -14.9370   38.2858 C   0  0  0  0  0  0  0  0  0  0  0  0
   38.2596  -13.1215   37.3601 C   0  0  0  0  0  0  0  0  0  0  0  0
 24 25  1  0  0  0
 25 26  1  0  0  0
 25 23  1  0  0  0
 23 22  1  0  0  0
 22  6  1  0  0  0
  6  7  1  0  0  0
  7  8  1  0  0  0
  8  9  2  0  0  0
  8 11  1  0  0  0
 11 12  1  0  0  0
 11 15  1  0  0  0
 15 16  1  0  0  0
 16 17  1  0  0  0
 17 18  1  0  0  0
 18 19  1  0  0  0
  6  2  1  0  0  0
  2  3  2  0  0  0
  2  4  1  0  0  0
  4  1  1  0  0  0
  1 48  1  0  0  0
 48 49  1  0  0  0
 49 50  1  0  0  0
 49 51  1  0  0  0
  1 27  1  0  0  0
 27 28  2  0  0  0
 27 29  1  0  0  0
 29 31  1  0  0  0
 31 44  1  0  0  0
 44 45  1  0  0  0
 45 46  1  0  0  0
 45 47  1  0  0  0
 31 32  1  0  0  0
 32 33  2  0  0  0
 32 34  1  0  0  0
 34 36  1  0  0  0
 36 41  1  0  0  0
 41 42  1  0  0  0
 41 43  1  0  0  0
 36 37  1  0  0  0
 37 38  1  0  0  0
 37 39  2  0  0  0
  7 10  1  0  0  0
 12 13  1  0  0  0
 12 14  1  0  0  0
 19 20  1  0  0  0
 19 21  1  0  0  0
  4  5  1  0  0  0
 29 30  1  0  0  0
 34 35  1  0  0  0
 38 40  1  0  0  0
M  END
> <minimizedAffinity>
-7.99275

> <CNNscore>
0.6564552784

> <CNNaffinity>
7.3322510719

> <CNN_VS>
4.8132948875

> <CNNaffinity_variance>
0.1069189757

$$$$
[H]OC(=O)[C@@]([H])(N([H])C(=O)[C@@]([H])(N([H])C(=O)[C@@]([H])(N([H])C(=O)[C@@]([H])(N([H])C(=O)[C@@]([H])(N([H])[H])C([H])([H])C([H])([H])C([H])([H])C([H])([H])N([H])[H])C([H])([H])SC([H])(C([H])([H])[H])C([H])([H])[H])C([H])([H])C([H])(C([H])([H])[H])C([H])([H])[H])C([H])([H])C([H])(C([H])([H])[H])C([H])([H])[H])C([H])(C([H])([H])[H])C([H])([H])[H]


 51 50  0  0  0  0  0  0  0  0999 V2000
   34.5815  -14.4913   36.4732 C   0  0  0  0  0  0  0  0  0  0  0  0
   34.5972  -16.9899   35.7222 C   0  0  0  0  0  0  0  0  0  0  0  0
   34.8940  -17.6008   36.7590 O   0  0  0  0  0  0  0  0  0  0  0  0
   34.4589  -15.5898   35.6533 N   0  0  0  0  0  0  0  0  0  0  0  0
   34.2273  -15.3021   34.5978 H   0  0  0  0  0  0  0  0  0  0  0  0
   34.3859  -17.8035   34.4664 C   0  0  0  0  0  0  0  0  0  0  0  0
   35.3775  -18.8482   34.3173 N   0  0  0  0  0  0  0  0  0  0  0  0
   36.7242  -18.5914   34.0230 C   0  0  0  0  0  0  0  0  0  0  0  0
   37.1639  -17.4335   33.8672 O   0  0  0  0  0  0  0  0  0  0  0  0
   35.0937  -19.8757   34.4316 H   0  0  0  0  0  0  0  0  0  0  0  0
   37.7766  -19.6973   33.8678 C   0  0  0  0  0  0  0  0  0  0  0  0
   38.6046  -19.1313   32.7711 N   0  0  0  0  0  0  0  0  0  0  0  0
   38.5174  -19.6785   31.9133 H   0  0  0  0  0  0  0  0  0  0  0  0
   39.5363  -18.8738   33.0978 H   0  0  0  0  0  0  0  0  0  0  0  0
   38.5074  -19.8102   35.1258 C   0  0  0  0  0  0  0  0  0  0  0  0
   38.0577  -19.4442   36.4465 C   0  0  0  0  0  0  0  0  0  0  0  0
   37.7003  -20.3969   37.5035 C   0  0  0  0  0  0  0  0  0  0  0  0
   36.6307  -21.3668   37.1714 C   0  0  0  0  0  0  0  0  0  0  0  0
   35.4248  -20.7071   36.6594 N   0  0  0  0  0  0  0  0  0  0  0  0
   34.6222  -21.3766   36.7881 H   0  0  0  0  0  0  0  0  0  0  0  0
   35.2740  -19.7677   37.0323 H   0  0  0  0  0  0  0  0  0  0  0  0
   33.0278  -18.3935   34.3100 C   0  0  0  0  0  0  0  0  0  0  0  0
   32.9352  -20.1321   33.9945 S   0  0  0  0  0  0  0  0  0  0  0  0
   30.6601  -20.5198   35.4013 C   0  0  0  0  0  0  0  0  0  0  0  0
   32.0419  -21.1325   35.1286 C   0  0  0  0  0  0  0  0  0  0  0  0
   31.8532  -22.5364   34.5497 C   0  0  0  0  0  0  0  0  0  0  0  0
   33.3752  -13.6151   36.6776 C   0  0  0  0  0  0  0  0  0  0  0  0
   32.5565  -13.2924   35.8302 O   0  0  0  0  0  0  0  0  0  0  0  0
   33.1322  -13.0979   38.0018 N   0  0  0  0  0  0  0  0  0  0  0  0
   33.7933  -13.3351   38.7750 H   0  0  0  0  0  0  0  0  0  0  0  0
   32.0215  -12.2665   38.3727 C   0  0  0  0  0  0  0  0  0  0  0  0
   31.3482  -12.9414   39.5311 C   0  0  0  0  0  0  0  0  0  0  0  0
   31.9265  -12.8952   40.6696 O   0  0  0  0  0  0  0  0  0  0  0  0
   30.1188  -13.6287   39.4429 N   0  0  0  0  0  0  0  0  0  0  0  0
   29.6451  -13.6928   38.5277 H   0  0  0  0  0  0  0  0  0  0  0  0
   29.5292  -14.2465   40.6134 C   0  0  0  0  0  0  0  0  0  0  0  0
   29.2458  -15.6740   40.3907 C   0  0  0  0  0  0  0  0  0  0  0  0
   28.4938  -16.0745   39.3144 O   0  0  0  0  0  0  0  0  0  0  0  0
   29.6735  -16.5647   41.1682 O   0  0  0  0  0  0  0  0  0  0  0  0
   27.4826  -16.0148   39.3912 H   0  0  0  0  0  0  0  0  0  0  0  0
   28.3981  -13.4429   41.1624 C   0  0  0  0  0  0  0  0  0  0  0  0
   28.8161  -12.5409   42.2803 C   0  0  0  0  0  0  0  0  0  0  0  0
   27.6254  -12.7510   40.0880 C   0  0  0  0  0  0  0  0  0  0  0  0
   31.0718  -11.9417   37.2669 C   0  0  0  0  0  0  0  0  0  0  0  0
   30.5593  -10.5498   37.2080 C   0  0  0  0  0  0  0  0  0  0  0  0
   31.5265   -9.4535   37.4451 C   0  0  0  0  0  0  0  0  0  0  0  0
   29.3704  -10.3183   38.1248 C   0  0  0  0  0  0  0  0  0  0  0  0
   35.8174  -13.6641   36.4141 C   0  0  0  0  0  0  0  0  0  0  0  0
   37.0915  -14.2253   36.9399 C   0  0  0  0  0  0  0  0  0  0  0  0
   36.7432  -15.1337   38.1665 C   0  0  0  0  0  0  0  0  0  0  0  0
   38.0752  -13.2488   37.5026 C   0  0  0  0  0  0  0  0  0  0  0  0
 24 25  1  0  0  0
 25 26  1  0  0  0
 25 23  1  0  0  0
 23 22  1  0  0  0
 22  6  1  0  0  0
  6  7  1  0  0  0
  7  8  1  0  0  0
  8  9  2  0  0  0
  8 11  1  0  0  0
 11 12  1  0  0  0
 11 15  1  0  0  0
 15 16  1  0  0  0
 16 17  1  0  0  0
 17 18  1  0  0  0
 18 19  1  0  0  0
  6  2  1  0  0  0
  2  3  2  0  0  0
  2  4  1  0  0  0
  4  1  1  0  0  0
  1 48  1  0  0  0
 48 49  1  0  0  0
 49 50  1  0  0  0
 49 51  1  0  0  0
  1 27  1  0  0  0
 27 28  2  0  0  0
 27 29  1  0  0  0
 29 31  1  0  0  0
 31 44  1  0  0  0
 44 45  1  0  0  0
 45 46  1  0  0  0
 45 47  1  0  0  0
 31 32  1  0  0  0
 32 33  2  0  0  0
 32 34  1  0  0  0
 34 36  1  0  0  0
 36 41  1  0  0  0
 41 42  1  0  0  0
 41 43  1  0  0  0
 36 37  1  0  0  0
 37 38  1  0  0  0
 37 39  2  0  0  0
  7 10  1  0  0  0
 12 13  1  0  0  0
 12 14  1  0  0  0
 19 20  1  0  0  0
 19 21  1  0  0  0
  4  5  1  0  0  0
 29 30  1  0  0  0
 34 35  1  0  0  0
 38 40  1  0  0  0
M  END
> <minimizedAffinity>
-7.76226

> <CNNscore>
0.6098439693

> <CNNaffinity>
7.1213088036

> <CNN_VS>
4.3428874016

> <CNNaffinity_variance>
0.2253757268

$$$$
[H]OC(=O)[C@@]([H])(N([H])C(=O)[C@@]([H])(N([H])C(=O)[C@@]([H])(N([H])C(=O)[C@@]([H])(N([H])C(=O)[C@@]([H])(N([H])[H])C([H])([H])C([H])([H])C([H])([H])C([H])([H])N([H])[H])C([H])([H])SC([H])(C([H])([H])[H])C([H])([H])[H])C([H])([H])C([H])(C([H])([H])[H])C([H])([H])[H])C([H])([H])C([H])(C([H])([H])[H])C([H])([H])[H])C([H])(C([H])([H])[H])C([H])([H])[H]


 51 50  0  0  0  0  0  0  0  0999 V2000
   34.5019  -14.0550   35.8258 C   0  0  0  0  0  0  0  0  0  0  0  0
   32.8632  -12.8627   37.4691 C   0  0  0  0  0  0  0  0  0  0  0  0
   33.1812  -13.3204   38.5762 O   0  0  0  0  0  0  0  0  0  0  0  0
   33.4996  -13.2202   36.2644 N   0  0  0  0  0  0  0  0  0  0  0  0
   32.9918  -12.6935   35.4186 H   0  0  0  0  0  0  0  0  0  0  0  0
   31.7198  -11.8757   37.4218 C   0  0  0  0  0  0  0  0  0  0  0  0
   30.6006  -12.2945   38.2397 N   0  0  0  0  0  0  0  0  0  0  0  0
   29.2939  -11.8221   38.0518 C   0  0  0  0  0  0  0  0  0  0  0  0
   29.0038  -10.9998   37.1586 O   0  0  0  0  0  0  0  0  0  0  0  0
   30.7522  -12.9980   39.0343 H   0  0  0  0  0  0  0  0  0  0  0  0
   28.1065  -12.2673   38.9159 C   0  0  0  0  0  0  0  0  0  0  0  0
   26.9896  -12.0958   37.9506 N   0  0  0  0  0  0  0  0  0  0  0  0
   26.3643  -11.3383   38.2299 H   0  0  0  0  0  0  0  0  0  0  0  0
   26.5856  -12.9926   37.6796 H   0  0  0  0  0  0  0  0  0  0  0  0
   28.3160  -13.6610   39.2943 C   0  0  0  0  0  0  0  0  0  0  0  0
   28.3418  -14.2232   40.6223 C   0  0  0  0  0  0  0  0  0  0  0  0
   28.7709  -13.5051   41.8277 C   0  0  0  0  0  0  0  0  0  0  0  0
   30.2118  -13.5947   42.1606 C   0  0  0  0  0  0  0  0  0  0  0  0
   31.0459  -12.8441   41.2161 N   0  0  0  0  0  0  0  0  0  0  0  0
   32.0229  -13.2311   41.2840 H   0  0  0  0  0  0  0  0  0  0  0  0
   30.6612  -12.7926   40.2708 H   0  0  0  0  0  0  0  0  0  0  0  0
   32.0757  -10.4709   37.7636 C   0  0  0  0  0  0  0  0  0  0  0  0
   33.7087   -9.9294   37.3502 S   0  0  0  0  0  0  0  0  0  0  0  0
   35.1171   -8.2646   35.7534 C   0  0  0  0  0  0  0  0  0  0  0  0
   33.9026   -8.3125   36.6922 C   0  0  0  0  0  0  0  0  0  0  0  0
   32.6528   -7.9174   35.9022 C   0  0  0  0  0  0  0  0  0  0  0  0
   34.3160  -15.5395   35.9874 C   0  0  0  0  0  0  0  0  0  0  0  0
   33.3505  -16.1042   36.4787 O   0  0  0  0  0  0  0  0  0  0  0  0
   35.3658  -16.4076   35.5135 N   0  0  0  0  0  0  0  0  0  0  0  0
   36.2208  -15.9909   35.0815 H   0  0  0  0  0  0  0  0  0  0  0  0
   35.3407  -17.8423   35.5725 C   0  0  0  0  0  0  0  0  0  0  0  0
   36.7541  -18.2870   35.8082 C   0  0  0  0  0  0  0  0  0  0  0  0
   37.2910  -18.0043   36.9326 O   0  0  0  0  0  0  0  0  0  0  0  0
   37.5307  -18.9934   34.8652 N   0  0  0  0  0  0  0  0  0  0  0  0
   37.1208  -19.2151   33.9438 H   0  0  0  0  0  0  0  0  0  0  0  0
   38.8876  -19.3960   35.1748 C   0  0  0  0  0  0  0  0  0  0  0  0
   39.8244  -19.0211   34.1026 C   0  0  0  0  0  0  0  0  0  0  0  0
   40.9869  -18.3528   34.3964 O   0  0  0  0  0  0  0  0  0  0  0  0
   39.5959  -19.2930   32.8965 O   0  0  0  0  0  0  0  0  0  0  0  0
   40.9369  -17.3473   34.5324 H   0  0  0  0  0  0  0  0  0  0  0  0
   38.9622  -20.8155   35.6285 C   0  0  0  0  0  0  0  0  0  0  0  0
   39.0215  -21.7858   34.4913 C   0  0  0  0  0  0  0  0  0  0  0  0
   40.0282  -21.0238   36.6533 C   0  0  0  0  0  0  0  0  0  0  0  0
   34.7155  -18.5173   34.3962 C   0  0  0  0  0  0  0  0  0  0  0  0
   33.7955  -19.6470   34.6801 C   0  0  0  0  0  0  0  0  0  0  0  0
   32.6479  -19.8423   33.7643 C   0  0  0  0  0  0  0  0  0  0  0  0
   33.2513  -19.6244   36.0982 C   0  0  0  0  0  0  0  0  0  0  0  0
   35.9238  -13.6832   36.0610 C   0  0  0  0  0  0  0  0  0  0  0  0
   36.4441  -13.6519   37.4550 C   0  0  0  0  0  0  0  0  0  0  0  0
   37.9268  -13.1522   37.4003 C   0  0  0  0  0  0  0  0  0  0  0  0
   36.5490  -14.9652   38.1635 C   0  0  0  0  0  0  0  0  0  0  0  0
 24 25  1  0  0  0
 25 26  1  0  0  0
 25 23  1  0  0  0
 23 22  1  0  0  0
 22  6  1  0  0  0
  6  7  1  0  0  0
  7  8  1  0  0  0
  8  9  2  0  0  0
  8 11  1  0  0  0
 11 12  1  0  0  0
 11 15  1  0  0  0
 15 16  1  0  0  0
 16 17  1  0  0  0
 17 18  1  0  0  0
 18 19  1  0  0  0
  6  2  1  0  0  0
  2  3  2  0  0  0
  2  4  1  0  0  0
  4  1  1  0  0  0
  1 48  1  0  0  0
 48 49  1  0  0  0
 49 50  1  0  0  0
 49 51  1  0  0  0
  1 27  1  0  0  0
 27 28  2  0  0  0
 27 29  1  0  0  0
 29 31  1  0  0  0
 31 44  1  0  0  0
 44 45  1  0  0  0
 45 46  1  0  0  0
 45 47  1  0  0  0
 31 32  1  0  0  0
 32 33  2  0  0  0
 32 34  1  0  0  0
 34 36  1  0  0  0
 36 41  1  0  0  0
 41 42  1  0  0  0
 41 43  1  0  0  0
 36 37  1  0  0  0
 37 38  1  0  0  0
 37 39  2  0  0  0
  7 10  1  0  0  0
 12 13  1  0  0  0
 12 14  1  0  0  0
 19 20  1  0  0  0
 19 21  1  0  0  0
  4  5  1  0  0  0
 29 30  1  0  0  0
 34 35  1  0  0  0
 38 40  1  0  0  0
M  END
> <minimizedAffinity>
-7.00241

> <CNNscore>
0.5544892550

> <CNNaffinity>
7.4652986526

> <CNN_VS>
4.1394276619

> <CNNaffinity_variance>
0.0606568083

$$$$
[H]OC(=O)[C@@]([H])(N([H])C(=O)[C@@]([H])(N([H])C(=O)[C@@]([H])(N([H])C(=O)[C@@]([H])(N([H])C(=O)[C@@]([H])(N([H])[H])C([H])([H])C([H])([H])C([H])([H])C([H])([H])N([H])[H])C([H])([H])SC([H])(C([H])([H])[H])C([H])([H])[H])C([H])([H])C([H])(C([H])([H])[H])C([H])([H])[H])C([H])([H])C([H])(C([H])([H])[H])C([H])([H])[H])C([H])(C([H])([H])[H])C([H])([H])[H]


 51 50  0  0  0  0  0  0  0  0999 V2000
   34.9974  -14.0239   37.4486 C   0  0  0  0  0  0  0  0  0  0  0  0
   33.8159  -15.5350   35.6800 C   0  0  0  0  0  0  0  0  0  0  0  0
   32.9815  -14.7771   35.1644 O   0  0  0  0  0  0  0  0  0  0  0  0
   34.7064  -15.1396   36.6973 N   0  0  0  0  0  0  0  0  0  0  0  0
   35.3174  -16.0241   37.0051 H   0  0  0  0  0  0  0  0  0  0  0  0
   33.8620  -16.9634   35.1886 C   0  0  0  0  0  0  0  0  0  0  0  0
   34.8179  -17.7649   35.9240 N   0  0  0  0  0  0  0  0  0  0  0  0
   36.1193  -18.0178   35.4675 C   0  0  0  0  0  0  0  0  0  0  0  0
   36.5463  -17.5655   34.3852 O   0  0  0  0  0  0  0  0  0  0  0  0
   34.5415  -18.1980   36.8649 H   0  0  0  0  0  0  0  0  0  0  0  0
   37.1341  -18.8645   36.2472 C   0  0  0  0  0  0  0  0  0  0  0  0
   36.2171  -19.7298   37.0341 N   0  0  0  0  0  0  0  0  0  0  0  0
   36.2642  -19.5180   38.0320 H   0  0  0  0  0  0  0  0  0  0  0  0
   36.2700  -20.7038   36.7349 H   0  0  0  0  0  0  0  0  0  0  0  0
   37.9335  -19.6169   35.2859 C   0  0  0  0  0  0  0  0  0  0  0  0
   39.2990  -19.3754   34.8889 C   0  0  0  0  0  0  0  0  0  0  0  0
   39.7423  -19.1476   33.5090 C   0  0  0  0  0  0  0  0  0  0  0  0
   41.1954  -19.2936   33.2595 C   0  0  0  0  0  0  0  0  0  0  0  0
   41.9390  -18.0731   33.5891 N   0  0  0  0  0  0  0  0  0  0  0  0
   42.8540  -18.1130   33.0694 H   0  0  0  0  0  0  0  0  0  0  0  0
   41.4028  -17.2122   33.4639 H   0  0  0  0  0  0  0  0  0  0  0  0
   32.5519  -17.6702   35.1595 C   0  0  0  0  0  0  0  0  0  0  0  0
   32.4499  -19.2153   36.0157 S   0  0  0  0  0  0  0  0  0  0  0  0
   32.8768  -20.4967   33.6746 C   0  0  0  0  0  0  0  0  0  0  0  0
   32.2465  -20.6771   35.0634 C   0  0  0  0  0  0  0  0  0  0  0  0
   32.9267  -21.8553   35.7644 C   0  0  0  0  0  0  0  0  0  0  0  0
   33.8541  -13.1889   37.9587 C   0  0  0  0  0  0  0  0  0  0  0  0
   33.0220  -13.5214   38.7890 O   0  0  0  0  0  0  0  0  0  0  0  0
   33.7084  -11.8520   37.4373 N   0  0  0  0  0  0  0  0  0  0  0  0
   34.3864  -11.5026   36.7236 H   0  0  0  0  0  0  0  0  0  0  0  0
   32.6888  -10.9195   37.8288 C   0  0  0  0  0  0  0  0  0  0  0  0
   31.3891  -11.6684   37.8019 C   0  0  0  0  0  0  0  0  0  0  0  0
   31.0288  -12.2031   36.6988 O   0  0  0  0  0  0  0  0  0  0  0  0
   30.5359  -11.8158   38.9163 N   0  0  0  0  0  0  0  0  0  0  0  0
   30.8006  -11.3753   39.8119 H   0  0  0  0  0  0  0  0  0  0  0  0
   29.3000  -12.5645   38.8099 C   0  0  0  0  0  0  0  0  0  0  0  0
   28.2032  -11.7327   38.2874 C   0  0  0  0  0  0  0  0  0  0  0  0
   27.0012  -12.3006   37.9457 O   0  0  0  0  0  0  0  0  0  0  0  0
   28.3268  -10.4908   38.1349 O   0  0  0  0  0  0  0  0  0  0  0  0
   26.9270  -12.7479   37.0365 H   0  0  0  0  0  0  0  0  0  0  0  0
   28.9947  -13.3240   40.0575 C   0  0  0  0  0  0  0  0  0  0  0  0
   28.7323  -14.7748   39.8040 C   0  0  0  0  0  0  0  0  0  0  0  0
   30.0030  -13.0734   41.1301 C   0  0  0  0  0  0  0  0  0  0  0  0
   32.6403   -9.6572   37.0322 C   0  0  0  0  0  0  0  0  0  0  0  0
   33.9279   -8.9535   36.8087 C   0  0  0  0  0  0  0  0  0  0  0  0
   33.8948   -7.6977   36.0242 C   0  0  0  0  0  0  0  0  0  0  0  0
   34.9922   -9.8482   36.1965 C   0  0  0  0  0  0  0  0  0  0  0  0
   36.1404  -13.1535   37.0599 C   0  0  0  0  0  0  0  0  0  0  0  0
   37.5056  -13.7410   36.9821 C   0  0  0  0  0  0  0  0  0  0  0  0
   37.4490  -15.1676   37.6245 C   0  0  0  0  0  0  0  0  0  0  0  0
   38.5795  -13.0533   37.7640 C   0  0  0  0  0  0  0  0  0  0  0  0
 24 25  1  0  0  0
 25 26  1  0  0  0
 25 23  1  0  0  0
 23 22  1  0  0  0
 22  6  1  0  0  0
  6  7  1  0  0  0
  7  8  1  0  0  0
  8  9  2  0  0  0
  8 11  1  0  0  0
 11 12  1  0  0  0
 11 15  1  0  0  0
 15 16  1  0  0  0
 16 17  1  0  0  0
 17 18  1  0  0  0
 18 19  1  0  0  0
  6  2  1  0  0  0
  2  3  2  0  0  0
  2  4  1  0  0  0
  4  1  1  0  0  0
  1 48  1  0  0  0
 48 49  1  0  0  0
 49 50  1  0  0  0
 49 51  1  0  0  0
  1 27  1  0  0  0
 27 28  2  0  0  0
 27 29  1  0  0  0
 29 31  1  0  0  0
 31 44  1  0  0  0
 44 45  1  0  0  0
 45 46  1  0  0  0
 45 47  1  0  0  0
 31 32  1  0  0  0
 32 33  2  0  0  0
 32 34  1  0  0  0
 34 36  1  0  0  0
 36 41  1  0  0  0
 41 42  1  0  0  0
 41 43  1  0  0  0
 36 37  1  0  0  0
 37 38  1  0  0  0
 37 39  2  0  0  0
  7 10  1  0  0  0
 12 13  1  0  0  0
 12 14  1  0  0  0
 19 20  1  0  0  0
 19 21  1  0  0  0
  4  5  1  0  0  0
 29 30  1  0  0  0
 34 35  1  0  0  0
 38 40  1  0  0  0
M  END
> <minimizedAffinity>
-6.71361

> <CNNscore>
0.3528547883

> <CNNaffinity>
7.1501684189

> <CNN_VS>
2.5229711533

> <CNNaffinity_variance>
0.0834291726

$$$$
[H]OC(=O)[C@@]([H])(N([H])C(=O)[C@@]([H])(N([H])C(=O)[C@@]([H])(N([H])C(=O)[C@@]([H])(N([H])C(=O)[C@@]([H])(N([H])[H])C([H])([H])C([H])([H])C([H])([H])C([H])([H])N([H])[H])C([H])([H])SC([H])(C([H])([H])[H])C([H])([H])[H])C([H])([H])C([H])(C([H])([H])[H])C([H])([H])[H])C([H])([H])C([H])(C([H])([H])[H])C([H])([H])[H])C([H])(C([H])([H])[H])C([H])([H])[H]


 51 50  0  0  0  0  0  0  0  0999 V2000
   34.9790  -13.6556   37.5298 C   0  0  0  0  0  0  0  0  0  0  0  0
   33.9742  -15.5928   36.0998 C   0  0  0  0  0  0  0  0  0  0  0  0
   33.3934  -15.0002   35.1789 O   0  0  0  0  0  0  0  0  0  0  0  0
   34.6825  -14.9373   37.1258 N   0  0  0  0  0  0  0  0  0  0  0  0
   35.0716  -15.7036   37.8414 H   0  0  0  0  0  0  0  0  0  0  0  0
   33.9008  -17.1021   36.1171 C   0  0  0  0  0  0  0  0  0  0  0  0
   32.9506  -17.6154   35.1524 N   0  0  0  0  0  0  0  0  0  0  0  0
   32.1514  -18.7430   35.3879 C   0  0  0  0  0  0  0  0  0  0  0  0
   32.2056  -19.3880   36.4553 O   0  0  0  0  0  0  0  0  0  0  0  0
   32.8344  -17.1282   34.2045 H   0  0  0  0  0  0  0  0  0  0  0  0
   31.1419  -19.2861   34.3677 C   0  0  0  0  0  0  0  0  0  0  0  0
   31.9097  -20.4294   33.8092 N   0  0  0  0  0  0  0  0  0  0  0  0
   32.1680  -20.2685   32.8343 H   0  0  0  0  0  0  0  0  0  0  0  0
   31.4923  -21.3242   34.0662 H   0  0  0  0  0  0  0  0  0  0  0  0
   29.9467  -19.7085   35.0903 C   0  0  0  0  0  0  0  0  0  0  0  0
   29.3430  -21.0183   35.1133 C   0  0  0  0  0  0  0  0  0  0  0  0
   29.8831  -22.1769   35.8334 C   0  0  0  0  0  0  0  0  0  0  0  0
   30.0376  -22.0188   37.2984 C   0  0  0  0  0  0  0  0  0  0  0  0
   28.8617  -21.3955   37.9149 N   0  0  0  0  0  0  0  0  0  0  0  0
   29.1674  -20.9947   38.8395 H   0  0  0  0  0  0  0  0  0  0  0  0
   28.3640  -20.7476   37.3011 H   0  0  0  0  0  0  0  0  0  0  0  0
   35.2015  -17.8057   35.9434 C   0  0  0  0  0  0  0  0  0  0  0  0
   35.5465  -18.4797   34.3442 S   0  0  0  0  0  0  0  0  0  0  0  0
   38.1344  -18.2305   33.6055 C   0  0  0  0  0  0  0  0  0  0  0  0
   37.1010  -19.2574   34.0917 C   0  0  0  0  0  0  0  0  0  0  0  0
   37.5959  -19.8721   35.4029 C   0  0  0  0  0  0  0  0  0  0  0  0
   33.8449  -12.6817   37.7029 C   0  0  0  0  0  0  0  0  0  0  0  0
   33.8009  -11.5329   37.2897 O   0  0  0  0  0  0  0  0  0  0  0  0
   32.6743  -13.1276   38.4178 N   0  0  0  0  0  0  0  0  0  0  0  0
   32.6446  -14.0999   38.7985 H   0  0  0  0  0  0  0  0  0  0  0  0
   31.4999  -12.3357   38.6548 C   0  0  0  0  0  0  0  0  0  0  0  0
   30.6942  -13.0624   39.6910 C   0  0  0  0  0  0  0  0  0  0  0  0
   31.1217  -13.0557   40.8950 O   0  0  0  0  0  0  0  0  0  0  0  0
   29.4964  -13.7577   39.4200 N   0  0  0  0  0  0  0  0  0  0  0  0
   29.1444  -13.7902   38.4499 H   0  0  0  0  0  0  0  0  0  0  0  0
   28.7714  -14.4270   40.4809 C   0  0  0  0  0  0  0  0  0  0  0  0
   28.7034  -15.8810   40.2602 C   0  0  0  0  0  0  0  0  0  0  0  0
   28.1490  -16.3851   39.1101 O   0  0  0  0  0  0  0  0  0  0  0  0
   29.1416  -16.7019   41.1058 O   0  0  0  0  0  0  0  0  0  0  0  0
   27.1367  -16.4571   39.0611 H   0  0  0  0  0  0  0  0  0  0  0  0
   27.4710  -13.7590   40.7800 C   0  0  0  0  0  0  0  0  0  0  0  0
   27.5590  -12.8064   41.9301 C   0  0  0  0  0  0  0  0  0  0  0  0
   26.8461  -13.1706   39.5579 C   0  0  0  0  0  0  0  0  0  0  0  0
   30.7013  -12.0007   37.4382 C   0  0  0  0  0  0  0  0  0  0  0  0
   30.1623  -10.6207   37.3469 C   0  0  0  0  0  0  0  0  0  0  0  0
   31.1216   -9.5004   37.4821 C   0  0  0  0  0  0  0  0  0  0  0  0
   29.0212  -10.3663   38.3170 C   0  0  0  0  0  0  0  0  0  0  0  0
   36.1723  -12.9654   36.9688 C   0  0  0  0  0  0  0  0  0  0  0  0
   37.4878  -13.6611   36.9872 C   0  0  0  0  0  0  0  0  0  0  0  0
   37.3017  -15.0145   37.7519 C   0  0  0  0  0  0  0  0  0  0  0  0
   38.5934  -12.9899   37.7387 C   0  0  0  0  0  0  0  0  0  0  0  0
 24 25  1  0  0  0
 25 26  1  0  0  0
 25 23  1  0  0  0
 23 22  1  0  0  0
 22  6  1  0  0  0
  6  7  1  0  0  0
  7  8  1  0  0  0
  8  9  2  0  0  0
  8 11  1  0  0  0
 11 12  1  0  0  0
 11 15  1  0  0  0
 15 16  1  0  0  0
 16 17  1  0  0  0
 17 18  1  0  0  0
 18 19  1  0  0  0
  6  2  1  0  0  0
  2  3  2  0  0  0
  2  4  1  0  0  0
  4  1  1  0  0  0
  1 48  1  0  0  0
 48 49  1  0  0  0
 49 50  1  0  0  0
 49 51  1  0  0  0
  1 27  1  0  0  0
 27 28  2  0  0  0
 27 29  1  0  0  0
 29 31  1  0  0  0
 31 44  1  0  0  0
 44 45  1  0  0  0
 45 46  1  0  0  0
 45 47  1  0  0  0
 31 32  1  0  0  0
 32 33  2  0  0  0
 32 34  1  0  0  0
 34 36  1  0  0  0
 36 41  1  0  0  0
 41 42  1  0  0  0
 41 43  1  0  0  0
 36 37  1  0  0  0
 37 38  1  0  0  0
 37 39  2  0  0  0
  7 10  1  0  0  0
 12 13  1  0  0  0
 12 14  1  0  0  0
 19 20  1  0  0  0
 19 21  1  0  0  0
  4  5  1  0  0  0
 29 30  1  0  0  0
 34 35  1  0  0  0
 38 40  1  0  0  0
M  END
> <minimizedAffinity>
-7.58740

> <CNNscore>
0.2998157740

> <CNNaffinity>
6.6525459290

> <CNN_VS>
1.9945381880

> <CNNaffinity_variance>
0.4112457335

$$$$
[H]OC(=O)[C@@]([H])(N([H])C(=O)[C@@]([H])(N([H])C(=O)[C@@]([H])(N([H])C(=O)[C@@]([H])(N([H])C(=O)[C@@]([H])(N([H])[H])C([H])([H])C([H])([H])C([H])([H])C([H])([H])N([H])[H])C([H])([H])SC([H])(C([H])([H])[H])C([H])([H])[H])C([H])([H])C([H])(C([H])([H])[H])C([H])([H])[H])C([H])([H])C([H])(C([H])([H])[H])C([H])([H])[H])C([H])(C([H])([H])[H])C([H])([H])[H]


 51 50  0  0  0  0  0  0  0  0999 V2000
   34.0788  -20.2243   36.8303 C   0  0  0  0  0  0  0  0  0  0  0  0
   36.3098  -18.9159   36.4868 C   0  0  0  0  0  0  0  0  0  0  0  0
   37.0217  -19.3091   37.4223 O   0  0  0  0  0  0  0  0  0  0  0  0
   34.9958  -19.3703   36.2613 N   0  0  0  0  0  0  0  0  0  0  0  0
   34.5728  -18.8265   35.3804 H   0  0  0  0  0  0  0  0  0  0  0  0
   36.8924  -17.8829   35.5502 C   0  0  0  0  0  0  0  0  0  0  0  0
   37.1203  -16.6134   36.2084 N   0  0  0  0  0  0  0  0  0  0  0  0
   36.0825  -15.7634   36.6162 C   0  0  0  0  0  0  0  0  0  0  0  0
   34.8798  -16.0454   36.4370 O   0  0  0  0  0  0  0  0  0  0  0  0
   38.1217  -16.2843   36.4040 H   0  0  0  0  0  0  0  0  0  0  0  0
   36.3227  -14.4193   37.3165 C   0  0  0  0  0  0  0  0  0  0  0  0
   37.8040  -14.4370   37.4362 N   0  0  0  0  0  0  0  0  0  0  0  0
   38.1016  -14.5165   38.4098 H   0  0  0  0  0  0  0  0  0  0  0  0
   38.2375  -13.7269   36.8456 H   0  0  0  0  0  0  0  0  0  0  0  0
   35.8402  -13.3567   36.4405 C   0  0  0  0  0  0  0  0  0  0  0  0
   34.6151  -12.6039   36.5541 C   0  0  0  0  0  0  0  0  0  0  0  0
   33.7496  -12.5864   37.7387 C   0  0  0  0  0  0  0  0  0  0  0  0
   32.2927  -12.5125   37.4795 C   0  0  0  0  0  0  0  0  0  0  0  0
   31.9544  -12.9018   36.1064 N   0  0  0  0  0  0  0  0  0  0  0  0
   31.0081  -12.4941   35.8888 H   0  0  0  0  0  0  0  0  0  0  0  0
   32.6860  -12.6964   35.4232 H   0  0  0  0  0  0  0  0  0  0  0  0
   38.1345  -18.2947   34.8400 C   0  0  0  0  0  0  0  0  0  0  0  0
   38.1687  -19.9257   34.1548 S   0  0  0  0  0  0  0  0  0  0  0  0
   39.9090  -20.7382   36.0564 C   0  0  0  0  0  0  0  0  0  0  0  0
   39.5022  -20.9805   34.5953 C   0  0  0  0  0  0  0  0  0  0  0  0
   39.0843  -22.4441   34.4360 C   0  0  0  0  0  0  0  0  0  0  0  0
   34.5777  -21.5128   37.4265 C   0  0  0  0  0  0  0  0  0  0  0  0
   34.3172  -22.6428   37.0425 O   0  0  0  0  0  0  0  0  0  0  0  0
   35.4630  -21.4337   38.5623 N   0  0  0  0  0  0  0  0  0  0  0  0
   35.7278  -20.4975   38.9427 H   0  0  0  0  0  0  0  0  0  0  0  0
   36.0434  -22.5608   39.2371 C   0  0  0  0  0  0  0  0  0  0  0  0
   35.5970  -22.4814   40.6672 C   0  0  0  0  0  0  0  0  0  0  0  0
   35.5138  -23.5706   41.3298 O   0  0  0  0  0  0  0  0  0  0  0  0
   35.2579  -21.2805   41.3264 N   0  0  0  0  0  0  0  0  0  0  0  0
   35.3011  -20.3918   40.8024 H   0  0  0  0  0  0  0  0  0  0  0  0
   34.8447  -21.2882   42.7150 C   0  0  0  0  0  0  0  0  0  0  0  0
   33.3836  -21.4122   42.8473 C   0  0  0  0  0  0  0  0  0  0  0  0
   32.5616  -21.1175   41.7882 O   0  0  0  0  0  0  0  0  0  0  0  0
   32.8435  -21.7844   43.9199 O   0  0  0  0  0  0  0  0  0  0  0  0
   32.3371  -20.1417   41.6166 H   0  0  0  0  0  0  0  0  0  0  0  0
   35.4703  -20.1791   43.4929 C   0  0  0  0  0  0  0  0  0  0  0  0
   36.9625  -20.2744   43.5416 C   0  0  0  0  0  0  0  0  0  0  0  0
   34.9667  -18.8392   43.0675 C   0  0  0  0  0  0  0  0  0  0  0  0
   37.5255  -22.6883   39.1049 C   0  0  0  0  0  0  0  0  0  0  0  0
   38.3415  -22.2958   40.2810 C   0  0  0  0  0  0  0  0  0  0  0  0
   39.2621  -21.1463   40.1228 C   0  0  0  0  0  0  0  0  0  0  0  0
   39.1446  -23.4503   40.8553 C   0  0  0  0  0  0  0  0  0  0  0  0
   32.7623  -20.4360   36.1691 C   0  0  0  0  0  0  0  0  0  0  0  0
   32.7251  -20.7856   34.7230 C   0  0  0  0  0  0  0  0  0  0  0  0
   31.8655  -19.7009   33.9912 C   0  0  0  0  0  0  0  0  0  0  0  0
   32.0457  -22.0674   34.3581 C   0  0  0  0  0  0  0  0  0  0  0  0
 24 25  1  0  0  0
 25 26  1  0  0  0
 25 23  1  0  0  0
 23 22  1  0  0  0
 22  6  1  0  0  0
  6  7  1  0  0  0
  7  8  1  0  0  0
  8  9  2  0  0  0
  8 11  1  0  0  0
 11 12  1  0  0  0
 11 15  1  0  0  0
 15 16  1  0  0  0
 16 17  1  0  0  0
 17 18  1  0  0  0
 18 19  1  0  0  0
  6  2  1  0  0  0
  2  3  2  0  0  0
  2  4  1  0  0  0
  4  1  1  0  0  0
  1 48  1  0  0  0
 48 49  1  0  0  0
 49 50  1  0  0  0
 49 51  1  0  0  0
  1 27  1  0  0  0
 27 28  2  0  0  0
 27 29  1  0  0  0
 29 31  1  0  0  0
 31 44  1  0  0  0
 44 45  1  0  0  0
 45 46  1  0  0  0
 45 47  1  0  0  0
 31 32  1  0  0  0
 32 33  2  0  0  0
 32 34  1  0  0  0
 34 36  1  0  0  0
 36 41  1  0  0  0
 41 42  1  0  0  0
 41 43  1  0  0  0
 36 37  1  0  0  0
 37 38  1  0  0  0
 37 39  2  0  0  0
  7 10  1  0  0  0
 12 13  1  0  0  0
 12 14  1  0  0  0
 19 20  1  0  0  0
 19 21  1  0  0  0
  4  5  1  0  0  0
 29 30  1  0  0  0
 34 35  1  0  0  0
 38 40  1  0  0  0
M  END
> <minimizedAffinity>
-5.48379

> <CNNscore>
0.2797626853

> <CNNaffinity>
6.1518602371

> <CNN_VS>
1.7210609913

> <CNNaffinity_variance>
0.3557488322

$$$$
[H]OC(=O)[C@@]([H])(N([H])C(=O)[C@@]([H])(N([H])C(=O)[C@@]([H])(N([H])C(=O)[C@@]([H])(N([H])C(=O)[C@@]([H])(N([H])[H])C([H])([H])C([H])([H])C([H])([H])C([H])([H])N([H])[H])C([H])([H])SC([H])(C([H])([H])[H])C([H])([H])[H])C([H])([H])C([H])(C([H])([H])[H])C([H])([H])[H])C([H])([H])C([H])(C([H])([H])[H])C([H])([H])[H])C([H])(C([H])([H])[H])C([H])([H])[H]


 51 50  0  0  0  0  0  0  0  0999 V2000
   36.7089  -17.0777   36.6090 C   0  0  0  0  0  0  0  0  0  0  0  0
   38.5926  -18.8749   36.4387 C   0  0  0  0  0  0  0  0  0  0  0  0
   38.2347  -19.7452   37.2454 O   0  0  0  0  0  0  0  0  0  0  0  0
   37.8609  -17.6987   36.1833 N   0  0  0  0  0  0  0  0  0  0  0  0
   38.4268  -17.0749   35.4476 H   0  0  0  0  0  0  0  0  0  0  0  0
   39.8942  -19.0951   35.7031 C   0  0  0  0  0  0  0  0  0  0  0  0
   40.9479  -19.5592   36.5813 N   0  0  0  0  0  0  0  0  0  0  0  0
   42.0193  -18.7512   36.9878 C   0  0  0  0  0  0  0  0  0  0  0  0
   42.1394  -17.5656   36.6159 O   0  0  0  0  0  0  0  0  0  0  0  0
   40.9316  -20.5651   36.9516 H   0  0  0  0  0  0  0  0  0  0  0  0
   43.1348  -19.2408   37.9208 C   0  0  0  0  0  0  0  0  0  0  0  0
   44.3070  -18.5426   37.3313 N   0  0  0  0  0  0  0  0  0  0  0  0
   44.9586  -19.2002   36.9002 H   0  0  0  0  0  0  0  0  0  0  0  0
   44.6737  -17.8272   37.9596 H   0  0  0  0  0  0  0  0  0  0  0  0
   42.8293  -18.7865   39.2734 C   0  0  0  0  0  0  0  0  0  0  0  0
   43.6029  -18.9947   40.4729 C   0  0  0  0  0  0  0  0  0  0  0  0
   43.1522  -19.7658   41.6369 C   0  0  0  0  0  0  0  0  0  0  0  0
   42.3917  -19.0130   42.6617 C   0  0  0  0  0  0  0  0  0  0  0  0
   40.9766  -19.3972   42.6941 N   0  0  0  0  0  0  0  0  0  0  0  0
   40.4484  -18.6109   43.1542 H   0  0  0  0  0  0  0  0  0  0  0  0
   40.6072  -19.7020   41.7913 H   0  0  0  0  0  0  0  0  0  0  0  0
   39.8133  -19.9949   34.5195 C   0  0  0  0  0  0  0  0  0  0  0  0
   41.2344  -20.9865   34.1616 S   0  0  0  0  0  0  0  0  0  0  0  0
   39.6843  -23.1977   34.2739 C   0  0  0  0  0  0  0  0  0  0  0  0
   41.1315  -22.7155   34.4527 C   0  0  0  0  0  0  0  0  0  0  0  0
   42.0268  -23.4653   33.4637 C   0  0  0  0  0  0  0  0  0  0  0  0
   35.3928  -17.7595   36.3493 C   0  0  0  0  0  0  0  0  0  0  0  0
   34.4090  -17.2672   35.8181 O   0  0  0  0  0  0  0  0  0  0  0  0
   35.2553  -19.1382   36.7500 N   0  0  0  0  0  0  0  0  0  0  0  0
   36.0588  -19.6217   37.2102 H   0  0  0  0  0  0  0  0  0  0  0  0
   34.0792  -19.9401   36.5596 C   0  0  0  0  0  0  0  0  0  0  0  0
   34.2033  -21.1112   37.4891 C   0  0  0  0  0  0  0  0  0  0  0  0
   34.2984  -22.2768   36.9744 O   0  0  0  0  0  0  0  0  0  0  0  0
   34.2164  -21.0084   38.8965 N   0  0  0  0  0  0  0  0  0  0  0  0
   34.1221  -20.0768   39.3318 H   0  0  0  0  0  0  0  0  0  0  0  0
   34.3498  -22.1895   39.7250 C   0  0  0  0  0  0  0  0  0  0  0  0
   33.1057  -22.4859   40.4543 C   0  0  0  0  0  0  0  0  0  0  0  0
   33.1104  -22.5951   41.8226 O   0  0  0  0  0  0  0  0  0  0  0  0
   32.0105  -22.6501   39.8591 O   0  0  0  0  0  0  0  0  0  0  0  0
   33.4106  -23.4764   42.2292 H   0  0  0  0  0  0  0  0  0  0  0  0
   35.5904  -22.1567   40.5535 C   0  0  0  0  0  0  0  0  0  0  0  0
   36.7592  -22.7969   39.8738 C   0  0  0  0  0  0  0  0  0  0  0  0
   35.8772  -20.7904   41.0839 C   0  0  0  0  0  0  0  0  0  0  0  0
   33.8110  -20.3526   35.1496 C   0  0  0  0  0  0  0  0  0  0  0  0
   32.3971  -20.6192   34.7846 C   0  0  0  0  0  0  0  0  0  0  0  0
   32.0661  -21.9664   34.2658 C   0  0  0  0  0  0  0  0  0  0  0  0
   31.8371  -19.6011   33.8060 C   0  0  0  0  0  0  0  0  0  0  0  0
   36.5676  -15.6042   36.4536 C   0  0  0  0  0  0  0  0  0  0  0  0
   36.5657  -14.7438   37.6680 C   0  0  0  0  0  0  0  0  0  0  0  0
   35.3481  -13.7658   37.5587 C   0  0  0  0  0  0  0  0  0  0  0  0
   37.7322  -13.8237   37.8422 C   0  0  0  0  0  0  0  0  0  0  0  0
 24 25  1  0  0  0
 25 26  1  0  0  0
 25 23  1  0  0  0
 23 22  1  0  0  0
 22  6  1  0  0  0
  6  7  1  0  0  0
  7  8  1  0  0  0
  8  9  2  0  0  0
  8 11  1  0  0  0
 11 12  1  0  0  0
 11 15  1  0  0  0
 15 16  1  0  0  0
 16 17  1  0  0  0
 17 18  1  0  0  0
 18 19  1  0  0  0
  6  2  1  0  0  0
  2  3  2  0  0  0
  2  4  1  0  0  0
  4  1  1  0  0  0
  1 48  1  0  0  0
 48 49  1  0  0  0
 49 50  1  0  0  0
 49 51  1  0  0  0
  1 27  1  0  0  0
 27 28  2  0  0  0
 27 29  1  0  0  0
 29 31  1  0  0  0
 31 44  1  0  0  0
 44 45  1  0  0  0
 45 46  1  0  0  0
 45 47  1  0  0  0
 31 32  1  0  0  0
 32 33  2  0  0  0
 32 34  1  0  0  0
 34 36  1  0  0  0
 36 41  1  0  0  0
 41 42  1  0  0  0
 41 43  1  0  0  0
 36 37  1  0  0  0
 37 38  1  0  0  0
 37 39  2  0  0  0
  7 10  1  0  0  0
 12 13  1  0  0  0
 12 14  1  0  0  0
 19 20  1  0  0  0
 19 21  1  0  0  0
  4  5  1  0  0  0
 29 30  1  0  0  0
 34 35  1  0  0  0
 38 40  1  0  0  0
M  END
> <minimizedAffinity>
-5.42361

> <CNNscore>
0.2744535506

> <CNNaffinity>
5.9396529198

> <CNN_VS>
1.6301587820

> <CNNaffinity_variance>
0.4698753357

$$$$
[H]OC(=O)[C@@]([H])(N([H])C(=O)[C@@]([H])(N([H])C(=O)[C@@]([H])(N([H])C(=O)[C@@]([H])(N([H])C(=O)[C@@]([H])(N([H])[H])C([H])([H])C([H])([H])C([H])([H])C([H])([H])N([H])[H])C([H])([H])SC([H])(C([H])([H])[H])C([H])([H])[H])C([H])([H])C([H])(C([H])([H])[H])C([H])([H])[H])C([H])([H])C([H])(C([H])([H])[H])C([H])([H])[H])C([H])(C([H])([H])[H])C([H])([H])[H]


 51 50  0  0  0  0  0  0  0  0999 V2000
   36.6523  -17.3828   36.6657 C   0  0  0  0  0  0  0  0  0  0  0  0
   38.4098  -19.3042   36.8291 C   0  0  0  0  0  0  0  0  0  0  0  0
   37.9516  -20.0397   37.7154 O   0  0  0  0  0  0  0  0  0  0  0  0
   37.7770  -18.1257   36.3878 N   0  0  0  0  0  0  0  0  0  0  0  0
   38.4214  -17.6385   35.6146 H   0  0  0  0  0  0  0  0  0  0  0  0
   39.7274  -19.6995   36.2033 C   0  0  0  0  0  0  0  0  0  0  0  0
   39.5626  -20.6881   35.1582 N   0  0  0  0  0  0  0  0  0  0  0  0
   39.7285  -22.0641   35.3708 C   0  0  0  0  0  0  0  0  0  0  0  0
   40.0334  -22.5349   36.4860 O   0  0  0  0  0  0  0  0  0  0  0  0
   39.3023  -20.3789   34.1653 H   0  0  0  0  0  0  0  0  0  0  0  0
   39.5512  -23.1130   34.2649 C   0  0  0  0  0  0  0  0  0  0  0  0
   40.5549  -22.6377   33.2772 N   0  0  0  0  0  0  0  0  0  0  0  0
   40.1095  -22.2844   32.4288 H   0  0  0  0  0  0  0  0  0  0  0  0
   41.3338  -23.2908   33.1885 H   0  0  0  0  0  0  0  0  0  0  0  0
   39.8822  -24.4210   34.8206 C   0  0  0  0  0  0  0  0  0  0  0  0
   39.2350  -25.6832   34.5591 C   0  0  0  0  0  0  0  0  0  0  0  0
   37.8186  -25.8420   34.2107 C   0  0  0  0  0  0  0  0  0  0  0  0
   36.8913  -26.0713   35.3432 C   0  0  0  0  0  0  0  0  0  0  0  0
   36.3713  -24.8161   35.8957 N   0  0  0  0  0  0  0  0  0  0  0  0
   36.0347  -25.0189   36.8727 H   0  0  0  0  0  0  0  0  0  0  0  0
   37.0136  -24.0259   35.8102 H   0  0  0  0  0  0  0  0  0  0  0  0
   40.5501  -18.5723   35.6840 C   0  0  0  0  0  0  0  0  0  0  0  0
   42.2765  -18.8773   35.4448 S   0  0  0  0  0  0  0  0  0  0  0  0
   43.3916  -16.6447   36.4826 C   0  0  0  0  0  0  0  0  0  0  0  0
   43.4073  -18.1766   36.5917 C   0  0  0  0  0  0  0  0  0  0  0  0
   43.0176  -18.5734   38.0174 C   0  0  0  0  0  0  0  0  0  0  0  0
   35.3056  -18.0180   36.4474 C   0  0  0  0  0  0  0  0  0  0  0  0
   34.3556  -17.5281   35.8558 O   0  0  0  0  0  0  0  0  0  0  0  0
   35.0910  -19.3443   36.9720 N   0  0  0  0  0  0  0  0  0  0  0  0
   35.8622  -19.8229   37.4891 H   0  0  0  0  0  0  0  0  0  0  0  0
   33.8770  -20.0995   36.8365 C   0  0  0  0  0  0  0  0  0  0  0  0
   33.7514  -20.9360   38.0756 C   0  0  0  0  0  0  0  0  0  0  0  0
   32.6532  -21.5601   38.2679 O   0  0  0  0  0  0  0  0  0  0  0  0
   34.7671  -21.0737   39.0455 N   0  0  0  0  0  0  0  0  0  0  0  0
   35.6551  -20.5626   38.9173 H   0  0  0  0  0  0  0  0  0  0  0  0
   34.5700  -21.9103   40.2119 C   0  0  0  0  0  0  0  0  0  0  0  0
   34.1817  -21.1180   41.3905 C   0  0  0  0  0  0  0  0  0  0  0  0
   35.1182  -20.7616   42.3286 O   0  0  0  0  0  0  0  0  0  0  0  0
   32.9953  -20.7469   41.5792 O   0  0  0  0  0  0  0  0  0  0  0  0
   35.3740  -21.4491   43.0315 H   0  0  0  0  0  0  0  0  0  0  0  0
   35.7016  -22.8607   40.4186 C   0  0  0  0  0  0  0  0  0  0  0  0
   35.2913  -24.1022   41.1455 C   0  0  0  0  0  0  0  0  0  0  0  0
   36.4537  -23.1238   39.1556 C   0  0  0  0  0  0  0  0  0  0  0  0
   33.7657  -20.9072   35.5853 C   0  0  0  0  0  0  0  0  0  0  0  0
   32.5621  -20.6837   34.7458 C   0  0  0  0  0  0  0  0  0  0  0  0
   31.5518  -19.7202   35.2401 C   0  0  0  0  0  0  0  0  0  0  0  0
   31.8356  -21.9720   34.3991 C   0  0  0  0  0  0  0  0  0  0  0  0
   36.6115  -15.9428   36.2918 C   0  0  0  0  0  0  0  0  0  0  0  0
   36.3602  -14.9260   37.3490 C   0  0  0  0  0  0  0  0  0  0  0  0
   35.3122  -13.9055   36.7909 C   0  0  0  0  0  0  0  0  0  0  0  0
   37.5152  -14.0573   37.7352 C   0  0  0  0  0  0  0  0  0  0  0  0
 24 25  1  0  0  0
 25 26  1  0  0  0
 25 23  1  0  0  0
 23 22  1  0  0  0
 22  6  1  0  0  0
  6  7  1  0  0  0
  7  8  1  0  0  0
  8  9  2  0  0  0
  8 11  1  0  0  0
 11 12  1  0  0  0
 11 15  1  0  0  0
 15 16  1  0  0  0
 16 17  1  0  0  0
 17 18  1  0  0  0
 18 19  1  0  0  0
  6  2  1  0  0  0
  2  3  2  0  0  0
  2  4  1  0  0  0
  4  1  1  0  0  0
  1 48  1  0  0  0
 48 49  1  0  0  0
 49 50  1  0  0  0
 49 51  1  0  0  0
  1 27  1  0  0  0
 27 28  2  0  0  0
 27 29  1  0  0  0
 29 31  1  0  0  0
 31 44  1  0  0  0
 44 45  1  0  0  0
 45 46  1  0  0  0
 45 47  1  0  0  0
 31 32  1  0  0  0
 32 33  2  0  0  0
 32 34  1  0  0  0
 34 36  1  0  0  0
 36 41  1  0  0  0
 41 42  1  0  0  0
 41 43  1  0  0  0
 36 37  1  0  0  0
 37 38  1  0  0  0
 37 39  2  0  0  0
  7 10  1  0  0  0
 12 13  1  0  0  0
 12 14  1  0  0  0
 19 20  1  0  0  0
 19 21  1  0  0  0
  4  5  1  0  0  0
 29 30  1  0  0  0
 34 35  1  0  0  0
 38 40  1  0  0  0
M  END
> <minimizedAffinity>
-4.72417

> <CNNscore>
0.2719748020

> <CNNaffinity>
5.8743200302

> <CNN_VS>
1.5976669788

> <CNNaffinity_variance>
0.4203802049

$$$$
[H]OC(=O)[C@@]([H])(N([H])C(=O)[C@@]([H])(N([H])C(=O)[C@@]([H])(N([H])C(=O)[C@@]([H])(N([H])C(=O)[C@@]([H])(N([H])[H])C([H])([H])C([H])([H])C([H])([H])C([H])([H])N([H])[H])C([H])([H])SC([H])(C([H])([H])[H])C([H])([H])[H])C([H])([H])C([H])(C([H])([H])[H])C([H])([H])[H])C([H])([H])C([H])(C([H])([H])[H])C([H])([H])[H])C([H])(C([H])([H])[H])C([H])([H])[H]


 51 50  0  0  0  0  0  0  0  0999 V2000
   34.1287  -19.8501   37.0827 C   0  0  0  0  0  0  0  0  0  0  0  0
   36.7317  -19.6728   37.0926 C   0  0  0  0  0  0  0  0  0  0  0  0
   37.0839  -20.6370   37.7874 O   0  0  0  0  0  0  0  0  0  0  0  0
   35.3875  -19.3722   36.7981 N   0  0  0  0  0  0  0  0  0  0  0  0
   35.3528  -18.4340   36.1905 H   0  0  0  0  0  0  0  0  0  0  0  0
   37.8144  -18.7708   36.5467 C   0  0  0  0  0  0  0  0  0  0  0  0
   37.6776  -17.4067   37.0130 N   0  0  0  0  0  0  0  0  0  0  0  0
   36.7773  -16.4905   36.4508 C   0  0  0  0  0  0  0  0  0  0  0  0
   36.0259  -16.7910   35.5005 O   0  0  0  0  0  0  0  0  0  0  0  0
   38.2830  -17.0555   37.8251 H   0  0  0  0  0  0  0  0  0  0  0  0
   36.6292  -15.0457   36.9460 C   0  0  0  0  0  0  0  0  0  0  0  0
   36.8461  -14.3012   35.6781 N   0  0  0  0  0  0  0  0  0  0  0  0
   37.7187  -13.7710   35.6979 H   0  0  0  0  0  0  0  0  0  0  0  0
   35.9942  -13.8349   35.3652 H   0  0  0  0  0  0  0  0  0  0  0  0
   35.2784  -14.8811   37.4727 C   0  0  0  0  0  0  0  0  0  0  0  0
   34.4895  -13.6746   37.5245 C   0  0  0  0  0  0  0  0  0  0  0  0
   33.2532  -13.4492   36.7674 C   0  0  0  0  0  0  0  0  0  0  0  0
   32.2798  -12.5116   37.3745 C   0  0  0  0  0  0  0  0  0  0  0  0
   32.9342  -11.4951   38.2049 N   0  0  0  0  0  0  0  0  0  0  0  0
   32.2079  -11.1144   38.8656 H   0  0  0  0  0  0  0  0  0  0  0  0
   33.8011  -11.8113   38.6441 H   0  0  0  0  0  0  0  0  0  0  0  0
   39.2096  -19.2316   36.7878 C   0  0  0  0  0  0  0  0  0  0  0  0
   40.3966  -18.9090   35.5159 S   0  0  0  0  0  0  0  0  0  0  0  0
   38.9439  -18.3941   33.2956 C   0  0  0  0  0  0  0  0  0  0  0  0
   39.9887  -19.3630   33.8689 C   0  0  0  0  0  0  0  0  0  0  0  0
   41.2402  -19.3156   32.9894 C   0  0  0  0  0  0  0  0  0  0  0  0
   34.0002  -21.2556   37.6051 C   0  0  0  0  0  0  0  0  0  0  0  0
   33.5376  -21.5928   38.6843 O   0  0  0  0  0  0  0  0  0  0  0  0
   34.4534  -22.3341   36.7615 N   0  0  0  0  0  0  0  0  0  0  0  0
   34.8600  -22.1167   35.8242 H   0  0  0  0  0  0  0  0  0  0  0  0
   34.3861  -23.7289   37.0968 C   0  0  0  0  0  0  0  0  0  0  0  0
   35.7821  -24.2660   36.9809 C   0  0  0  0  0  0  0  0  0  0  0  0
   35.9629  -25.5136   37.1890 O   0  0  0  0  0  0  0  0  0  0  0  0
   36.9100  -23.4801   36.6617 N   0  0  0  0  0  0  0  0  0  0  0  0
   36.7872  -22.4664   36.5082 H   0  0  0  0  0  0  0  0  0  0  0  0
   38.2256  -24.0784   36.5593 C   0  0  0  0  0  0  0  0  0  0  0  0
   39.0871  -23.6951   37.6900 C   0  0  0  0  0  0  0  0  0  0  0  0
   38.6653  -22.7577   38.5997 O   0  0  0  0  0  0  0  0  0  0  0  0
   40.2248  -24.2028   37.8594 O   0  0  0  0  0  0  0  0  0  0  0  0
   38.7652  -21.7770   38.3542 H   0  0  0  0  0  0  0  0  0  0  0  0
   38.8216  -23.8947   35.2037 C   0  0  0  0  0  0  0  0  0  0  0  0
   38.3073  -24.8827   34.2050 C   0  0  0  0  0  0  0  0  0  0  0  0
   38.7440  -22.4766   34.7420 C   0  0  0  0  0  0  0  0  0  0  0  0
   33.3976  -24.5260   36.3108 C   0  0  0  0  0  0  0  0  0  0  0  0
   32.1654  -23.8244   35.8718 C   0  0  0  0  0  0  0  0  0  0  0  0
   31.0950  -23.6272   36.8762 C   0  0  0  0  0  0  0  0  0  0  0  0
   31.5312  -24.4557   34.6442 C   0  0  0  0  0  0  0  0  0  0  0  0
   32.9978  -19.5327   36.1687 C   0  0  0  0  0  0  0  0  0  0  0  0
   33.2124  -19.6035   34.6977 C   0  0  0  0  0  0  0  0  0  0  0  0
   32.9059  -18.1887   34.1015 C   0  0  0  0  0  0  0  0  0  0  0  0
   32.3018  -20.5066   33.9277 C   0  0  0  0  0  0  0  0  0  0  0  0
 24 25  1  0  0  0
 25 26  1  0  0  0
 25 23  1  0  0  0
 23 22  1  0  0  0
 22  6  1  0  0  0
  6  7  1  0  0  0
  7  8  1  0  0  0
  8  9  2  0  0  0
  8 11  1  0  0  0
 11 12  1  0  0  0
 11 15  1  0  0  0
 15 16  1  0  0  0
 16 17  1  0  0  0
 17 18  1  0  0  0
 18 19  1  0  0  0
  6  2  1  0  0  0
  2  3  2  0  0  0
  2  4  1  0  0  0
  4  1  1  0  0  0
  1 48  1  0  0  0
 48 49  1  0  0  0
 49 50  1  0  0  0
 49 51  1  0  0  0
  1 27  1  0  0  0
 27 28  2  0  0  0
 27 29  1  0  0  0
 29 31  1  0  0  0
 31 44  1  0  0  0
 44 45  1  0  0  0
 45 46  1  0  0  0
 45 47  1  0  0  0
 31 32  1  0  0  0
 32 33  2  0  0  0
 32 34  1  0  0  0
 34 36  1  0  0  0
 36 41  1  0  0  0
 41 42  1  0  0  0
 41 43  1  0  0  0
 36 37  1  0  0  0
 37 38  1  0  0  0
 37 39  2  0  0  0
  7 10  1  0  0  0
 12 13  1  0  0  0
 12 14  1  0  0  0
 19 20  1  0  0  0
 19 21  1  0  0  0
  4  5  1  0  0  0
 29 30  1  0  0  0
 34 35  1  0  0  0
 38 40  1  0  0  0
M  END
> <minimizedAffinity>
-4.83405

> <CNNscore>
0.2437025458

> <CNNaffinity>
5.9355411530

> <CNN_VS>
1.4465065002

> <CNNaffinity_variance>
0.2465067357

$$$$
[H]C(=C1C(=O)/C(=N/OC([H])([H])C([H])([H])OC(=O)c2c([H])c([H])c(F)c([H])c2[H])OC([H])([H])C1([H])[H])c1c([H])c([H])c(C#N)c([H])c1[H]


 30 32  0  0  0  0  0  0  0  0999 V2000
   32.1694  -23.3719   39.5065 N   0  0  0  0  0  0  0  0  0  0  0  0
   33.2457  -23.2620   38.9206 C   0  0  0  0  0  0  0  0  0  0  0  0
   33.8725  -24.1582   38.1156 O   0  0  0  0  0  0  0  0  0  0  0  0
   35.0205  -24.0300   37.3047 C   0  0  0  0  0  0  0  0  0  0  0  0
   35.2458  -22.4906   37.0835 C   0  0  0  0  0  0  0  0  0  0  0  0
   35.3188  -21.8390   38.4289 C   0  0  0  0  0  0  0  0  0  0  0  0
   36.1875  -21.0737   38.8780 C   0  0  0  0  0  0  0  0  0  0  0  0
   33.9655  -21.9445   39.1183 C   0  0  0  0  0  0  0  0  0  0  0  0
   33.5357  -21.0306   39.7641 O   0  0  0  0  0  0  0  0  0  0  0  0
   37.3480  -20.5171   38.1724 C   0  0  0  0  0  0  0  0  0  0  0  0
   38.5978  -20.9426   38.4463 C   0  0  0  0  0  0  0  0  0  0  0  0
   39.7495  -20.4874   37.9308 C   0  0  0  0  0  0  0  0  0  0  0  0
   39.6039  -19.4305   36.9999 C   0  0  0  0  0  0  0  0  0  0  0  0
   38.3444  -19.0220   36.7049 C   0  0  0  0  0  0  0  0  0  0  0  0
   37.1992  -19.5378   37.2228 C   0  0  0  0  0  0  0  0  0  0  0  0
   40.7666  -18.8845   36.3708 C   0  0  0  0  0  0  0  0  0  0  0  0
   41.6945  -18.5011   35.8332 N   0  0  0  0  0  0  0  0  0  0  0  0
   31.2764  -24.5661   39.2953 O   0  0  0  0  0  0  0  0  0  0  0  0
   30.3805  -24.1163   38.3391 C   0  0  0  0  0  0  0  0  0  0  0  0
   29.3037  -23.0692   39.0154 C   0  0  0  0  0  0  0  0  0  0  0  0
   29.2323  -22.0500   38.2146 O   0  0  0  0  0  0  0  0  0  0  0  0
   29.2110  -21.7502   37.0254 C   0  0  0  0  0  0  0  0  0  0  0  0
   28.1805  -22.0648   36.2926 O   0  0  0  0  0  0  0  0  0  0  0  0
   32.5082  -17.9433   35.2208 F   0  0  0  0  0  0  0  0  0  0  0  0
   31.7988  -19.1861   35.3641 C   0  0  0  0  0  0  0  0  0  0  0  0
   30.5004  -19.1195   34.9088 C   0  0  0  0  0  0  0  0  0  0  0  0
   29.7260  -20.2089   35.3493 C   0  0  0  0  0  0  0  0  0  0  0  0
   30.3355  -21.1489   36.1404 C   0  0  0  0  0  0  0  0  0  0  0  0
   31.5900  -21.2406   36.5203 C   0  0  0  0  0  0  0  0  0  0  0  0
   32.3939  -20.1286   36.0835 C   0  0  0  0  0  0  0  0  0  0  0  0
 24 25  1  0  0  0
 25 26  2  0  0  0
 26 27  1  0  0  0
 27 28  2  0  0  0
 28 29  1  0  0  0
 29 30  2  0  0  0
 28 22  1  0  0  0
 22 23  2  0  0  0
 22 21  1  0  0  0
 21 20  1  0  0  0
 20 19  1  0  0  0
 19 18  1  0  0  0
 18  1  1  0  0  0
  1  2  2  0  0  0
  2  3  1  0  0  0
  3  4  1  0  0  0
  4  5  1  0  0  0
  5  6  1  0  0  0
  6  7  2  0  0  0
  7 10  1  0  0  0
 10 11  2  0  0  0
 11 12  1  0  0  0
 12 13  2  0  0  0
 13 14  1  0  0  0
 14 15  2  0  0  0
 13 16  1  0  0  0
 16 17  3  0  0  0
  6  8  1  0  0  0
  8  9  2  0  0  0
 30 25  1  0  0  0
  8  2  1  0  0  0
 15 10  1  0  0  0
M  END
> <minimizedAffinity>
-4.87511

> <CNNscore>
0.4129316509

> <CNNaffinity>
4.3299193382

> <CNN_VS>
1.7879607677

> <CNNaffinity_variance>
0.2929068506

$$$$
[H]C(=C1C(=O)/C(=N/OC([H])([H])C([H])([H])OC(=O)c2c([H])c([H])c(F)c([H])c2[H])OC([H])([H])C1([H])[H])c1c([H])c([H])c(C#N)c([H])c1[H]


 30 32  0  0  0  0  0  0  0  0999 V2000
   34.0982  -19.6721   36.0581 N   0  0  0  0  0  0  0  0  0  0  0  0
   34.5432  -20.1735   37.0897 C   0  0  0  0  0  0  0  0  0  0  0  0
   33.8798  -20.5224   38.2221 O   0  0  0  0  0  0  0  0  0  0  0  0
   34.3074  -21.2326   39.3643 C   0  0  0  0  0  0  0  0  0  0  0  0
   35.6072  -22.0122   38.9493 C   0  0  0  0  0  0  0  0  0  0  0  0
   36.5801  -21.0201   38.3932 C   0  0  0  0  0  0  0  0  0  0  0  0
   37.7689  -20.8372   38.7020 C   0  0  0  0  0  0  0  0  0  0  0  0
   36.0329  -20.4457   37.0939 C   0  0  0  0  0  0  0  0  0  0  0  0
   36.7601  -20.2355   36.1644 O   0  0  0  0  0  0  0  0  0  0  0  0
   38.5837  -21.6146   39.6434 C   0  0  0  0  0  0  0  0  0  0  0  0
   38.5995  -21.3177   40.9586 C   0  0  0  0  0  0  0  0  0  0  0  0
   39.3354  -21.8953   41.9200 C   0  0  0  0  0  0  0  0  0  0  0  0
   40.1925  -22.9279   41.4685 C   0  0  0  0  0  0  0  0  0  0  0  0
   40.1554  -23.2439   40.1498 C   0  0  0  0  0  0  0  0  0  0  0  0
   39.3646  -22.6577   39.2135 C   0  0  0  0  0  0  0  0  0  0  0  0
   41.0059  -23.6281   42.4141 C   0  0  0  0  0  0  0  0  0  0  0  0
   41.6939  -24.1981   43.1202 N   0  0  0  0  0  0  0  0  0  0  0  0
   32.6193  -19.4727   35.8541 O   0  0  0  0  0  0  0  0  0  0  0  0
   32.5702  -18.3913   34.9895 C   0  0  0  0  0  0  0  0  0  0  0  0
   33.9686  -17.5256   35.0804 C   0  0  0  0  0  0  0  0  0  0  0  0
   33.7395  -16.5455   35.9001 O   0  0  0  0  0  0  0  0  0  0  0  0
   33.9262  -15.3425   36.0503 C   0  0  0  0  0  0  0  0  0  0  0  0
   33.2783  -14.4856   35.3129 O   0  0  0  0  0  0  0  0  0  0  0  0
   38.7507  -13.3911   37.2901 F   0  0  0  0  0  0  0  0  0  0  0  0
   37.3716  -13.7906   37.3738 C   0  0  0  0  0  0  0  0  0  0  0  0
   37.2145  -15.1492   37.5378 C   0  0  0  0  0  0  0  0  0  0  0  0
   35.8941  -15.5659   37.2863 C   0  0  0  0  0  0  0  0  0  0  0  0
   34.9795  -14.6103   36.9243 C   0  0  0  0  0  0  0  0  0  0  0  0
   35.1196  -13.3071   36.8300 C   0  0  0  0  0  0  0  0  0  0  0  0
   36.4678  -12.8659   37.0771 C   0  0  0  0  0  0  0  0  0  0  0  0
 24 25  1  0  0  0
 25 26  2  0  0  0
 26 27  1  0  0  0
 27 28  2  0  0  0
 28 29  1  0  0  0
 29 30  2  0  0  0
 28 22  1  0  0  0
 22 23  2  0  0  0
 22 21  1  0  0  0
 21 20  1  0  0  0
 20 19  1  0  0  0
 19 18  1  0  0  0
 18  1  1  0  0  0
  1  2  2  0  0  0
  2  3  1  0  0  0
  3  4  1  0  0  0
  4  5  1  0  0  0
  5  6  1  0  0  0
  6  7  2  0  0  0
  7 10  1  0  0  0
 10 11  2  0  0  0
 11 12  1  0  0  0
 12 13  2  0  0  0
 13 14  1  0  0  0
 14 15  2  0  0  0
 13 16  1  0  0  0
 16 17  3  0  0  0
  6  8  1  0  0  0
  8  9  2  0  0  0
 30 25  1  0  0  0
  8  2  1  0  0  0
 15 10  1  0  0  0
M  END
> <minimizedAffinity>
-5.71657

> <CNNscore>
0.3558408916

> <CNNaffinity>
4.7128448486

> <CNN_VS>
1.6770229340

> <CNNaffinity_variance>
0.1862158328

$$$$
[H]C(=C1C(=O)/C(=N/OC([H])([H])C([H])([H])OC(=O)c2c([H])c([H])c(F)c([H])c2[H])OC([H])([H])C1([H])[H])c1c([H])c([H])c(C#N)c([H])c1[H]


 30 32  0  0  0  0  0  0  0  0999 V2000
   38.0281  -20.5055   35.5047 N   0  0  0  0  0  0  0  0  0  0  0  0
   37.2940  -19.6823   36.0497 C   0  0  0  0  0  0  0  0  0  0  0  0
   36.5306  -19.8275   37.1634 O   0  0  0  0  0  0  0  0  0  0  0  0
   35.7960  -18.8833   37.9121 C   0  0  0  0  0  0  0  0  0  0  0  0
   36.3659  -17.4681   37.5353 C   0  0  0  0  0  0  0  0  0  0  0  0
   36.2916  -17.3243   36.0474 C   0  0  0  0  0  0  0  0  0  0  0  0
   35.7974  -16.4031   35.3772 C   0  0  0  0  0  0  0  0  0  0  0  0
   37.2408  -18.3188   35.3931 C   0  0  0  0  0  0  0  0  0  0  0  0
   37.8807  -18.0087   34.4281 O   0  0  0  0  0  0  0  0  0  0  0  0
   35.2255  -15.1424   35.8649 C   0  0  0  0  0  0  0  0  0  0  0  0
   36.0127  -14.0836   36.1428 C   0  0  0  0  0  0  0  0  0  0  0  0
   35.6423  -12.8978   36.6488 C   0  0  0  0  0  0  0  0  0  0  0  0
   34.2580  -12.7774   36.9209 C   0  0  0  0  0  0  0  0  0  0  0  0
   33.4633  -13.8335   36.6154 C   0  0  0  0  0  0  0  0  0  0  0  0
   33.8751  -15.0061   36.0665 C   0  0  0  0  0  0  0  0  0  0  0  0
   33.7498  -11.5459   37.4414 C   0  0  0  0  0  0  0  0  0  0  0  0
   33.3902  -10.5674   37.8999 N   0  0  0  0  0  0  0  0  0  0  0  0
   38.2897  -21.8556   36.1189 O   0  0  0  0  0  0  0  0  0  0  0  0
   39.6724  -21.8978   36.1940 C   0  0  0  0  0  0  0  0  0  0  0  0
   40.1855  -21.2488   37.6184 C   0  0  0  0  0  0  0  0  0  0  0  0
   39.4006  -21.7198   38.5388 O   0  0  0  0  0  0  0  0  0  0  0  0
   39.0087  -21.5076   39.6816 C   0  0  0  0  0  0  0  0  0  0  0  0
   39.7240  -20.7785   40.4907 O   0  0  0  0  0  0  0  0  0  0  0  0
   35.3623  -25.2334   40.8829 F   0  0  0  0  0  0  0  0  0  0  0  0
   36.0928  -23.9953   40.8393 C   0  0  0  0  0  0  0  0  0  0  0  0
   35.8531  -23.2699   39.6931 C   0  0  0  0  0  0  0  0  0  0  0  0
   36.8020  -22.2482   39.5024 C   0  0  0  0  0  0  0  0  0  0  0  0
   37.7970  -22.1164   40.4369 C   0  0  0  0  0  0  0  0  0  0  0  0
   37.9851  -22.7707   41.5609 C   0  0  0  0  0  0  0  0  0  0  0  0
   37.0261  -23.8249   41.7665 C   0  0  0  0  0  0  0  0  0  0  0  0
 24 25  1  0  0  0
 25 26  2  0  0  0
 26 27  1  0  0  0
 27 28  2  0  0  0
 28 29  1  0  0  0
 29 30  2  0  0  0
 28 22  1  0  0  0
 22 23  2  0  0  0
 22 21  1  0  0  0
 21 20  1  0  0  0
 20 19  1  0  0  0
 19 18  1  0  0  0
 18  1  1  0  0  0
  1  2  2  0  0  0
  2  3  1  0  0  0
  3  4  1  0  0  0
  4  5  1  0  0  0
  5  6  1  0  0  0
  6  7  2  0  0  0
  7 10  1  0  0  0
 10 11  2  0  0  0
 11 12  1  0  0  0
 12 13  2  0  0  0
 13 14  1  0  0  0
 14 15  2  0  0  0
 13 16  1  0  0  0
 16 17  3  0  0  0
  6  8  1  0  0  0
  8  9  2  0  0  0
 30 25  1  0  0  0
  8  2  1  0  0  0
 15 10  1  0  0  0
M  END
> <minimizedAffinity>
-5.53385

> <CNNscore>
0.3238484859

> <CNNaffinity>
4.8551220894

> <CNN_VS>
1.5723239183

> <CNNaffinity_variance>
0.0243806485

$$$$
[H]C(=C1C(=O)/C(=N/OC([H])([H])C([H])([H])OC(=O)c2c([H])c([H])c(F)c([H])c2[H])OC([H])([H])C1([H])[H])c1c([H])c([H])c(C#N)c([H])c1[H]


 30 32  0  0  0  0  0  0  0  0999 V2000
   33.4050  -14.0396   36.4025 N   0  0  0  0  0  0  0  0  0  0  0  0
   34.5265  -14.5454   36.3946 C   0  0  0  0  0  0  0  0  0  0  0  0
   35.7100  -13.9991   36.7757 O   0  0  0  0  0  0  0  0  0  0  0  0
   36.9889  -14.5755   36.9302 C   0  0  0  0  0  0  0  0  0  0  0  0
   36.7722  -16.1277   37.0458 C   0  0  0  0  0  0  0  0  0  0  0  0
   35.9938  -16.5734   35.8477 C   0  0  0  0  0  0  0  0  0  0  0  0
   36.2489  -17.4896   35.0493 C   0  0  0  0  0  0  0  0  0  0  0  0
   34.5949  -15.9749   35.8996 C   0  0  0  0  0  0  0  0  0  0  0  0
   33.6417  -16.6189   35.5624 O   0  0  0  0  0  0  0  0  0  0  0  0
   37.3488  -18.4594   35.1145 C   0  0  0  0  0  0  0  0  0  0  0  0
   38.3480  -18.4390   34.2093 C   0  0  0  0  0  0  0  0  0  0  0  0
   39.3782  -19.2920   34.1070 C   0  0  0  0  0  0  0  0  0  0  0  0
   39.3848  -20.3295   35.0706 C   0  0  0  0  0  0  0  0  0  0  0  0
   38.3941  -20.3328   35.9973 C   0  0  0  0  0  0  0  0  0  0  0  0
   37.3878  -19.4246   36.0889 C   0  0  0  0  0  0  0  0  0  0  0  0
   40.4513  -21.2825   35.0680 C   0  0  0  0  0  0  0  0  0  0  0  0
   41.2611  -22.0828   35.0394 N   0  0  0  0  0  0  0  0  0  0  0  0
   33.1600  -12.6771   36.9959 O   0  0  0  0  0  0  0  0  0  0  0  0
   32.3883  -12.9605   38.1110 C   0  0  0  0  0  0  0  0  0  0  0  0
   30.9896  -12.0914   38.0714 C   0  0  0  0  0  0  0  0  0  0  0  0
   31.2616  -10.9889   37.4425 O   0  0  0  0  0  0  0  0  0  0  0  0
   31.3019   -9.7720   37.5909 C   0  0  0  0  0  0  0  0  0  0  0  0
   30.2739   -9.1414   38.0843 O   0  0  0  0  0  0  0  0  0  0  0  0
   35.4019   -7.9942   34.6496 F   0  0  0  0  0  0  0  0  0  0  0  0
   34.3820   -8.0954   35.6586 C   0  0  0  0  0  0  0  0  0  0  0  0
   34.7044   -8.9828   36.6617 C   0  0  0  0  0  0  0  0  0  0  0  0
   33.5887   -9.3240   37.4486 C   0  0  0  0  0  0  0  0  0  0  0  0
   32.3816   -8.7579   37.1270 C   0  0  0  0  0  0  0  0  0  0  0  0
   32.0917   -7.8642   36.2083 C   0  0  0  0  0  0  0  0  0  0  0  0
   33.2222   -7.5104   35.3895 C   0  0  0  0  0  0  0  0  0  0  0  0
 24 25  1  0  0  0
 25 26  2  0  0  0
 26 27  1  0  0  0
 27 28  2  0  0  0
 28 29  1  0  0  0
 29 30  2  0  0  0
 28 22  1  0  0  0
 22 23  2  0  0  0
 22 21  1  0  0  0
 21 20  1  0  0  0
 20 19  1  0  0  0
 19 18  1  0  0  0
 18  1  1  0  0  0
  1  2  2  0  0  0
  2  3  1  0  0  0
  3  4  1  0  0  0
  4  5  1  0  0  0
  5  6  1  0  0  0
  6  7  2  0  0  0
  7 10  1  0  0  0
 10 11  2  0  0  0
 11 12  1  0  0  0
 12 13  2  0  0  0
 13 14  1  0  0  0
 14 15  2  0  0  0
 13 16  1  0  0  0
 16 17  3  0  0  0
  6  8  1  0  0  0
  8  9  2  0  0  0
 30 25  1  0  0  0
  8  2  1  0  0  0
 15 10  1  0  0  0
M  END
> <minimizedAffinity>
-8.09410

> <CNNscore>
0.2992623746

> <CNNaffinity>
5.4864740372

> <CNN_VS>
1.6418952942

> <CNNaffinity_variance>
0.1055310369

$$$$
[H]C(=C1C(=O)/C(=N/OC([H])([H])C([H])([H])OC(=O)c2c([H])c([H])c(F)c([H])c2[H])OC([H])([H])C1([H])[H])c1c([H])c([H])c(C#N)c([H])c1[H]


 30 32  0  0  0  0  0  0  0  0999 V2000
   35.9846  -16.6443   36.7685 N   0  0  0  0  0  0  0  0  0  0  0  0
   35.0455  -17.2611   36.2672 C   0  0  0  0  0  0  0  0  0  0  0  0
   34.1609  -16.8465   35.3239 O   0  0  0  0  0  0  0  0  0  0  0  0
   33.1699  -17.5531   34.6096 C   0  0  0  0  0  0  0  0  0  0  0  0
   33.5354  -19.0775   34.7209 C   0  0  0  0  0  0  0  0  0  0  0  0
   33.6610  -19.4149   36.1736 C   0  0  0  0  0  0  0  0  0  0  0  0
   33.1203  -20.3343   36.8096 C   0  0  0  0  0  0  0  0  0  0  0  0
   34.8554  -18.6787   36.7645 C   0  0  0  0  0  0  0  0  0  0  0  0
   35.5690  -19.2149   37.5647 O   0  0  0  0  0  0  0  0  0  0  0  0
   32.2718  -21.4119   36.2870 C   0  0  0  0  0  0  0  0  0  0  0  0
   30.9275  -21.3337   36.3562 C   0  0  0  0  0  0  0  0  0  0  0  0
   30.0326  -22.2591   35.9792 C   0  0  0  0  0  0  0  0  0  0  0  0
   30.5962  -23.4500   35.4605 C   0  0  0  0  0  0  0  0  0  0  0  0
   31.9479  -23.5164   35.3662 C   0  0  0  0  0  0  0  0  0  0  0  0
   32.8191  -22.5377   35.7250 C   0  0  0  0  0  0  0  0  0  0  0  0
   29.7320  -24.4953   35.0064 C   0  0  0  0  0  0  0  0  0  0  0  0
   29.0657  -25.3637   34.6918 N   0  0  0  0  0  0  0  0  0  0  0  0
   36.3815  -15.2775   36.2756 O   0  0  0  0  0  0  0  0  0  0  0  0
   36.1458  -14.4716   37.3775 C   0  0  0  0  0  0  0  0  0  0  0  0
   35.7368  -12.9510   36.8938 C   0  0  0  0  0  0  0  0  0  0  0  0
   34.5851  -12.6926   37.4341 O   0  0  0  0  0  0  0  0  0  0  0  0
   33.3786  -12.8222   37.2551 C   0  0  0  0  0  0  0  0  0  0  0  0
   32.9408  -13.4963   36.2296 O   0  0  0  0  0  0  0  0  0  0  0  0
   28.3499  -11.1262   37.9311 F   0  0  0  0  0  0  0  0  0  0  0  0
   29.7546  -11.3619   38.1302 C   0  0  0  0  0  0  0  0  0  0  0  0
   30.5508  -10.5724   37.3299 C   0  0  0  0  0  0  0  0  0  0  0  0
   31.8801  -11.0322   37.2837 C   0  0  0  0  0  0  0  0  0  0  0  0
   32.1940  -12.1558   38.0048 C   0  0  0  0  0  0  0  0  0  0  0  0
   31.4456  -12.8690   38.8159 C   0  0  0  0  0  0  0  0  0  0  0  0
   30.0800  -12.4152   38.8681 C   0  0  0  0  0  0  0  0  0  0  0  0
 24 25  1  0  0  0
 25 26  2  0  0  0
 26 27  1  0  0  0
 27 28  2  0  0  0
 28 29  1  0  0  0
 29 30  2  0  0  0
 28 22  1  0  0  0
 22 23  2  0  0  0
 22 21  1  0  0  0
 21 20  1  0  0  0
 20 19  1  0  0  0
 19 18  1  0  0  0
 18  1  1  0  0  0
  1  2  2  0  0  0
  2  3  1  0  0  0
  3  4  1  0  0  0
  4  5  1  0  0  0
  5  6  1  0  0  0
  6  7  2  0  0  0
  7 10  1  0  0  0
 10 11  2  0  0  0
 11 12  1  0  0  0
 12 13  2  0  0  0
 13 14  1  0  0  0
 14 15  2  0  0  0
 13 16  1  0  0  0
 16 17  3  0  0  0
  6  8  1  0  0  0
  8  9  2  0  0  0
 30 25  1  0  0  0
  8  2  1  0  0  0
 15 10  1  0  0  0
M  END
> <minimizedAffinity>
-7.05637

> <CNNscore>
0.2914177477

> <CNNaffinity>
5.0359416008

> <CNN_VS>
1.4675627947

> <CNNaffinity_variance>
0.2278176546

$$$$
[H]C(=C1C(=O)/C(=N/OC([H])([H])C([H])([H])OC(=O)c2c([H])c([H])c(F)c([H])c2[H])OC([H])([H])C1([H])[H])c1c([H])c([H])c(C#N)c([H])c1[H]


 30 32  0  0  0  0  0  0  0  0999 V2000
   34.7498  -20.0594   36.5360 N   0  0  0  0  0  0  0  0  0  0  0  0
   35.2245  -20.2621   37.6527 C   0  0  0  0  0  0  0  0  0  0  0  0
   34.6829  -19.9964   38.8694 O   0  0  0  0  0  0  0  0  0  0  0  0
   35.1108  -20.3424   40.1690 C   0  0  0  0  0  0  0  0  0  0  0  0
   36.1211  -21.5353   40.0077 C   0  0  0  0  0  0  0  0  0  0  0  0
   37.1945  -21.1030   39.0586 C   0  0  0  0  0  0  0  0  0  0  0  0
   38.4270  -21.1472   39.2036 C   0  0  0  0  0  0  0  0  0  0  0  0
   36.5966  -20.9024   37.6729 C   0  0  0  0  0  0  0  0  0  0  0  0
   37.1997  -21.2376   36.6927 O   0  0  0  0  0  0  0  0  0  0  0  0
   39.1811  -21.7280   40.3209 C   0  0  0  0  0  0  0  0  0  0  0  0
   39.8759  -20.9459   41.1716 C   0  0  0  0  0  0  0  0  0  0  0  0
   40.6542  -21.3353   42.1924 C   0  0  0  0  0  0  0  0  0  0  0  0
   40.7441  -22.7376   42.3659 C   0  0  0  0  0  0  0  0  0  0  0  0
   40.0230  -23.5223   41.5265 C   0  0  0  0  0  0  0  0  0  0  0  0
   39.2143  -23.0842   40.5266 C   0  0  0  0  0  0  0  0  0  0  0  0
   41.5296  -23.2627   43.4398 C   0  0  0  0  0  0  0  0  0  0  0  0
   42.1178  -23.6495   44.3349 N   0  0  0  0  0  0  0  0  0  0  0  0
   33.3407  -19.5580   36.3585 O   0  0  0  0  0  0  0  0  0  0  0  0
   33.2939  -19.2393   35.0111 C   0  0  0  0  0  0  0  0  0  0  0  0
   34.3287  -18.0006   34.6826 C   0  0  0  0  0  0  0  0  0  0  0  0
   34.4642  -17.3341   35.7883 O   0  0  0  0  0  0  0  0  0  0  0  0
   35.1264  -16.4423   36.3086 C   0  0  0  0  0  0  0  0  0  0  0  0
   35.9381  -16.7211   37.2891 O   0  0  0  0  0  0  0  0  0  0  0  0
   34.1374  -11.3518   37.6238 F   0  0  0  0  0  0  0  0  0  0  0  0
   34.4724  -12.5329   36.8747 C   0  0  0  0  0  0  0  0  0  0  0  0
   33.3706  -13.2921   36.5470 C   0  0  0  0  0  0  0  0  0  0  0  0
   33.7243  -14.5853   36.1192 C   0  0  0  0  0  0  0  0  0  0  0  0
   35.0571  -14.9073   36.0891 C   0  0  0  0  0  0  0  0  0  0  0  0
   36.1073  -14.1594   36.3430 C   0  0  0  0  0  0  0  0  0  0  0  0
   35.7613  -12.8349   36.7895 C   0  0  0  0  0  0  0  0  0  0  0  0
 24 25  1  0  0  0
 25 26  2  0  0  0
 26 27  1  0  0  0
 27 28  2  0  0  0
 28 29  1  0  0  0
 29 30  2  0  0  0
 28 22  1  0  0  0
 22 23  2  0  0  0
 22 21  1  0  0  0
 21 20  1  0  0  0
 20 19  1  0  0  0
 19 18  1  0  0  0
 18  1  1  0  0  0
  1  2  2  0  0  0
  2  3  1  0  0  0
  3  4  1  0  0  0
  4  5  1  0  0  0
  5  6  1  0  0  0
  6  7  2  0  0  0
  7 10  1  0  0  0
 10 11  2  0  0  0
 11 12  1  0  0  0
 12 13  2  0  0  0
 13 14  1  0  0  0
 14 15  2  0  0  0
 13 16  1  0  0  0
 16 17  3  0  0  0
  6  8  1  0  0  0
  8  9  2  0  0  0
 30 25  1  0  0  0
  8  2  1  0  0  0
 15 10  1  0  0  0
M  END
> <minimizedAffinity>
-5.86996

> <CNNscore>
0.2913925648

> <CNNaffinity>
4.5886230469

> <CNN_VS>
1.3370906115

> <CNNaffinity_variance>
0.1782931983

$$$$
[H]C(=C1C(=O)/C(=N/OC([H])([H])C([H])([H])OC(=O)c2c([H])c([H])c(F)c([H])c2[H])OC([H])([H])C1([H])[H])c1c([H])c([H])c(C#N)c([H])c1[H]


 30 32  0  0  0  0  0  0  0  0999 V2000
   37.9134  -18.3891   35.7333 N   0  0  0  0  0  0  0  0  0  0  0  0
   36.8400  -17.7982   35.6217 C   0  0  0  0  0  0  0  0  0  0  0  0
   35.7948  -18.0784   34.8012 O   0  0  0  0  0  0  0  0  0  0  0  0
   34.4944  -17.5336   34.7391 C   0  0  0  0  0  0  0  0  0  0  0  0
   34.2364  -16.8258   36.1182 C   0  0  0  0  0  0  0  0  0  0  0  0
   35.3457  -15.8474   36.3471 C   0  0  0  0  0  0  0  0  0  0  0  0
   35.2742  -14.6427   36.6395 C   0  0  0  0  0  0  0  0  0  0  0  0
   36.6567  -16.5996   36.5289 C   0  0  0  0  0  0  0  0  0  0  0  0
   37.4617  -16.2374   37.3399 O   0  0  0  0  0  0  0  0  0  0  0  0
   34.0691  -13.8589   36.9359 C   0  0  0  0  0  0  0  0  0  0  0  0
   33.1936  -13.5354   35.9628 C   0  0  0  0  0  0  0  0  0  0  0  0
   32.0907  -12.7797   36.0712 C   0  0  0  0  0  0  0  0  0  0  0  0
   31.8493  -12.2687   37.3695 C   0  0  0  0  0  0  0  0  0  0  0  0
   32.7158  -12.6174   38.3533 C   0  0  0  0  0  0  0  0  0  0  0  0
   33.8028  -13.4193   38.2081 C   0  0  0  0  0  0  0  0  0  0  0  0
   30.6870  -11.4686   37.6036 C   0  0  0  0  0  0  0  0  0  0  0  0
   29.7968  -10.7944   37.8269 N   0  0  0  0  0  0  0  0  0  0  0  0
   38.1836  -19.6762   34.9993 O   0  0  0  0  0  0  0  0  0  0  0  0
   37.8154  -20.6411   35.9227 C   0  0  0  0  0  0  0  0  0  0  0  0
   39.1484  -21.4268   36.4876 C   0  0  0  0  0  0  0  0  0  0  0  0
   39.1982  -21.1919   37.7633 O   0  0  0  0  0  0  0  0  0  0  0  0
   39.9252  -20.7314   38.6374 C   0  0  0  0  0  0  0  0  0  0  0  0
   40.9164  -19.9494   38.3151 O   0  0  0  0  0  0  0  0  0  0  0  0
   39.3845  -19.7390   43.8665 F   0  0  0  0  0  0  0  0  0  0  0  0
   39.7040  -20.3809   42.6198 C   0  0  0  0  0  0  0  0  0  0  0  0
   40.8373  -19.8696   42.0268 C   0  0  0  0  0  0  0  0  0  0  0  0
   40.9534  -20.2575   40.6790 C   0  0  0  0  0  0  0  0  0  0  0  0
   39.9673  -21.0538   40.1551 C   0  0  0  0  0  0  0  0  0  0  0  0
   38.9210  -21.5900   40.7419 C   0  0  0  0  0  0  0  0  0  0  0  0
   38.7843  -21.1961   42.1202 C   0  0  0  0  0  0  0  0  0  0  0  0
 24 25  1  0  0  0
 25 26  2  0  0  0
 26 27  1  0  0  0
 27 28  2  0  0  0
 28 29  1  0  0  0
 29 30  2  0  0  0
 28 22  1  0  0  0
 22 23  2  0  0  0
 22 21  1  0  0  0
 21 20  1  0  0  0
 20 19  1  0  0  0
 19 18  1  0  0  0
 18  1  1  0  0  0
  1  2  2  0  0  0
  2  3  1  0  0  0
  3  4  1  0  0  0
  4  5  1  0  0  0
  5  6  1  0  0  0
  6  7  2  0  0  0
  7 10  1  0  0  0
 10 11  2  0  0  0
 11 12  1  0  0  0
 12 13  2  0  0  0
 13 14  1  0  0  0
 14 15  2  0  0  0
 13 16  1  0  0  0
 16 17  3  0  0  0
  6  8  1  0  0  0
  8  9  2  0  0  0
 30 25  1  0  0  0
  8  2  1  0  0  0
 15 10  1  0  0  0
M  END
> <minimizedAffinity>
-5.73425

> <CNNscore>
0.2762307227

> <CNNaffinity>
4.8305816650

> <CNN_VS>
1.3343551159

> <CNNaffinity_variance>
0.0399109349

$$$$
[H]C(=C1C(=O)/C(=N/OC([H])([H])C([H])([H])OC(=O)c2c([H])c([H])c(F)c([H])c2[H])OC([H])([H])C1([H])[H])c1c([H])c([H])c(C#N)c([H])c1[H]


 30 32  0  0  0  0  0  0  0  0999 V2000
   39.3489  -21.3218   36.4184 N   0  0  0  0  0  0  0  0  0  0  0  0
   38.3174  -20.6623   36.5396 C   0  0  0  0  0  0  0  0  0  0  0  0
   37.0355  -21.0979   36.6453 O   0  0  0  0  0  0  0  0  0  0  0  0
   35.8423  -20.4025   36.9359 C   0  0  0  0  0  0  0  0  0  0  0  0
   36.2639  -19.0460   37.6080 C   0  0  0  0  0  0  0  0  0  0  0  0
   37.2171  -18.3530   36.6854 C   0  0  0  0  0  0  0  0  0  0  0  0
   37.1783  -17.1886   36.2558 C   0  0  0  0  0  0  0  0  0  0  0  0
   38.5040  -19.1602   36.5850 C   0  0  0  0  0  0  0  0  0  0  0  0
   39.5686  -18.6106   36.5445 O   0  0  0  0  0  0  0  0  0  0  0  0
   36.2263  -16.1296   36.6118 C   0  0  0  0  0  0  0  0  0  0  0  0
   35.0196  -16.0506   36.0155 C   0  0  0  0  0  0  0  0  0  0  0  0
   34.0784  -15.1113   36.1924 C   0  0  0  0  0  0  0  0  0  0  0  0
   34.4256  -14.0921   37.1119 C   0  0  0  0  0  0  0  0  0  0  0  0
   35.6286  -14.1877   37.7314 C   0  0  0  0  0  0  0  0  0  0  0  0
   36.5392  -15.1797   37.5512 C   0  0  0  0  0  0  0  0  0  0  0  0
   33.4855  -13.0516   37.3938 C   0  0  0  0  0  0  0  0  0  0  0  0
   32.7451  -12.2022   37.5592 N   0  0  0  0  0  0  0  0  0  0  0  0
   39.3356  -22.8258   36.4970 O   0  0  0  0  0  0  0  0  0  0  0  0
   40.6502  -23.1300   36.8108 C   0  0  0  0  0  0  0  0  0  0  0  0
   41.3186  -21.9165   37.7018 C   0  0  0  0  0  0  0  0  0  0  0  0
   41.2223  -22.2793   38.9445 O   0  0  0  0  0  0  0  0  0  0  0  0
   40.4539  -22.2723   39.9005 C   0  0  0  0  0  0  0  0  0  0  0  0
   39.7448  -23.3306   40.1741 O   0  0  0  0  0  0  0  0  0  0  0  0
   39.4061  -19.8235   44.5402 F   0  0  0  0  0  0  0  0  0  0  0  0
   39.5257  -20.1012   43.1341 C   0  0  0  0  0  0  0  0  0  0  0  0
   38.5436  -20.9472   42.6679 C   0  0  0  0  0  0  0  0  0  0  0  0
   38.8527  -21.4725   41.3994 C   0  0  0  0  0  0  0  0  0  0  0  0
   40.0375  -21.0942   40.8214 C   0  0  0  0  0  0  0  0  0  0  0  0
   40.9415  -20.2386   41.2426 C   0  0  0  0  0  0  0  0  0  0  0  0
   40.6429  -19.6979   42.5434 C   0  0  0  0  0  0  0  0  0  0  0  0
 24 25  1  0  0  0
 25 26  2  0  0  0
 26 27  1  0  0  0
 27 28  2  0  0  0
 28 29  1  0  0  0
 29 30  2  0  0  0
 28 22  1  0  0  0
 22 23  2  0  0  0
 22 21  1  0  0  0
 21 20  1  0  0  0
 20 19  1  0  0  0
 19 18  1  0  0  0
 18  1  1  0  0  0
  1  2  2  0  0  0
  2  3  1  0  0  0
  3  4  1  0  0  0
  4  5  1  0  0  0
  5  6  1  0  0  0
  6  7  2  0  0  0
  7 10  1  0  0  0
 10 11  2  0  0  0
 11 12  1  0  0  0
 12 13  2  0  0  0
 13 14  1  0  0  0
 14 15  2  0  0  0
 13 16  1  0  0  0
 16 17  3  0  0  0
  6  8  1  0  0  0
  8  9  2  0  0  0
 30 25  1  0  0  0
  8  2  1  0  0  0
 15 10  1  0  0  0
M  END
> <minimizedAffinity>
-5.89780

> <CNNscore>
0.2725302875

> <CNNaffinity>
4.6762080193

> <CNN_VS>
1.2744083405

> <CNNaffinity_variance>
0.2653512359

$$$$
[H]C(=C1C(=O)/C(=N/OC([H])([H])C([H])([H])OC(=O)c2c([H])c([H])c(F)c([H])c2[H])OC([H])([H])C1([H])[H])c1c([H])c([H])c(C#N)c([H])c1[H]


 30 32  0  0  0  0  0  0  0  0999 V2000
   35.0895  -21.7489   37.5125 N   0  0  0  0  0  0  0  0  0  0  0  0
   35.0746  -20.6956   36.8769 C   0  0  0  0  0  0  0  0  0  0  0  0
   34.8282  -20.5016   35.5555 O   0  0  0  0  0  0  0  0  0  0  0  0
   34.6496  -19.3159   34.8113 C   0  0  0  0  0  0  0  0  0  0  0  0
   34.3038  -18.1835   35.8445 C   0  0  0  0  0  0  0  0  0  0  0  0
   35.3902  -18.1530   36.8734 C   0  0  0  0  0  0  0  0  0  0  0  0
   36.0599  -17.1858   37.2711 C   0  0  0  0  0  0  0  0  0  0  0  0
   35.3627  -19.4443   37.6795 C   0  0  0  0  0  0  0  0  0  0  0  0
   35.5618  -19.4312   38.8615 O   0  0  0  0  0  0  0  0  0  0  0  0
   35.9055  -15.7730   36.9044 C   0  0  0  0  0  0  0  0  0  0  0  0
   36.8564  -14.8675   37.2106 C   0  0  0  0  0  0  0  0  0  0  0  0
   36.8266  -13.5437   36.9958 C   0  0  0  0  0  0  0  0  0  0  0  0
   35.6411  -13.0708   36.3827 C   0  0  0  0  0  0  0  0  0  0  0  0
   34.6970  -13.9865   36.0504 C   0  0  0  0  0  0  0  0  0  0  0  0
   34.7839  -15.3272   36.2517 C   0  0  0  0  0  0  0  0  0  0  0  0
   35.5125  -11.6774   36.0862 C   0  0  0  0  0  0  0  0  0  0  0  0
   35.4700  -10.5605   35.8679 N   0  0  0  0  0  0  0  0  0  0  0  0
   34.6868  -23.0555   36.8807 O   0  0  0  0  0  0  0  0  0  0  0  0
   35.7686  -23.8767   37.1537 C   0  0  0  0  0  0  0  0  0  0  0  0
   36.6476  -23.2636   38.4047 C   0  0  0  0  0  0  0  0  0  0  0  0
   37.8221  -22.9876   37.9258 O   0  0  0  0  0  0  0  0  0  0  0  0
   38.7278  -22.1631   37.9925 C   0  0  0  0  0  0  0  0  0  0  0  0
   39.4153  -22.0380   39.0922 O   0  0  0  0  0  0  0  0  0  0  0  0
   37.9288  -18.1582   34.5365 F   0  0  0  0  0  0  0  0  0  0  0  0
   38.5571  -19.1939   35.3117 C   0  0  0  0  0  0  0  0  0  0  0  0
   38.2905  -20.4586   34.8354 C   0  0  0  0  0  0  0  0  0  0  0  0
   38.6194  -21.4587   35.7693 C   0  0  0  0  0  0  0  0  0  0  0  0
   39.1348  -21.0622   36.9768 C   0  0  0  0  0  0  0  0  0  0  0  0
   39.4454  -19.8584   37.4024 C   0  0  0  0  0  0  0  0  0  0  0  0
   39.1076  -18.8230   36.4603 C   0  0  0  0  0  0  0  0  0  0  0  0
 24 25  1  0  0  0
 25 26  2  0  0  0
 26 27  1  0  0  0
 27 28  2  0  0  0
 28 29  1  0  0  0
 29 30  2  0  0  0
 28 22  1  0  0  0
 22 23  2  0  0  0
 22 21  1  0  0  0
 21 20  1  0  0  0
 20 19  1  0  0  0
 19 18  1  0  0  0
 18  1  1  0  0  0
  1  2  2  0  0  0
  2  3  1  0  0  0
  3  4  1  0  0  0
  4  5  1  0  0  0
  5  6  1  0  0  0
  6  7  2  0  0  0
  7 10  1  0  0  0
 10 11  2  0  0  0
 11 12  1  0  0  0
 12 13  2  0  0  0
 13 14  1  0  0  0
 14 15  2  0  0  0
 13 16  1  0  0  0
 16 17  3  0  0  0
  6  8  1  0  0  0
  8  9  2  0  0  0
 30 25  1  0  0  0
  8  2  1  0  0  0
 15 10  1  0  0  0
M  END
> <minimizedAffinity>
-5.55688

> <CNNscore>
0.2708442807

> <CNNaffinity>
5.0427699089

> <CNN_VS>
1.3658053875

> <CNNaffinity_variance>
0.1539592445

$$$$
[H]c1c([H])c([H])c(C([H])([H])[C@@]([H])(C(=O)N([H])[H])N([H])C(=O)[C@@]([H])(N([H])C(=O)[C@@]([H])(N([H])C(=O)[C@@]([H])(N([H])[H])C([H])([H])C([H])(C([H])([H])[H])C([H])([H])[H])C([H])([H])c2c([H])c([H])c([H])c([H])c2[H])C([H])([H])c2c([H])c([H])c([H])c([H])c2[H])c([H])c1[H]


 49 51  0  0  0  0  0  0  0  0999 V2000
   39.4631  -19.3199   35.4440 C   0  0  0  0  0  0  0  0  0  0  0  0
   37.2739  -18.4826   36.3513 C   0  0  0  0  0  0  0  0  0  0  0  0
   37.2567  -19.3731   37.2676 O   0  0  0  0  0  0  0  0  0  0  0  0
   38.3342  -18.4020   35.4214 N   0  0  0  0  0  0  0  0  0  0  0  0
   38.2756  -17.6372   34.6904 H   0  0  0  0  0  0  0  0  0  0  0  0
   36.1242  -17.5595   36.3321 C   0  0  0  0  0  0  0  0  0  0  0  0
   34.6972  -18.5652   34.5179 C   0  0  0  0  0  0  0  0  0  0  0  0
   35.5969  -18.4084   33.6694 O   0  0  0  0  0  0  0  0  0  0  0  0
   34.9093  -18.1584   35.8489 N   0  0  0  0  0  0  0  0  0  0  0  0
   34.0855  -18.3203   36.5196 H   0  0  0  0  0  0  0  0  0  0  0  0
   33.4104  -19.1794   34.1132 C   0  0  0  0  0  0  0  0  0  0  0  0
   33.6310  -20.3801   33.3807 N   0  0  0  0  0  0  0  0  0  0  0  0
   34.1531  -20.1723   32.5176 H   0  0  0  0  0  0  0  0  0  0  0  0
   34.1165  -21.1279   33.8995 H   0  0  0  0  0  0  0  0  0  0  0  0
   32.4957  -19.2745   35.2875 C   0  0  0  0  0  0  0  0  0  0  0  0
   30.0994  -19.2668   34.9162 C   0  0  0  0  0  0  0  0  0  0  0  0
   31.3351  -20.1777   35.0059 C   0  0  0  0  0  0  0  0  0  0  0  0
   31.1272  -21.1200   36.1722 C   0  0  0  0  0  0  0  0  0  0  0  0
   35.9901  -16.6982   37.5515 C   0  0  0  0  0  0  0  0  0  0  0  0
   35.9230  -15.2510   37.2211 C   0  0  0  0  0  0  0  0  0  0  0  0
   36.9724  -14.3715   37.2979 C   0  0  0  0  0  0  0  0  0  0  0  0
   36.7695  -13.0241   36.9699 C   0  0  0  0  0  0  0  0  0  0  0  0
   35.5487  -12.5297   36.5672 C   0  0  0  0  0  0  0  0  0  0  0  0
   34.4964  -13.4103   36.4898 C   0  0  0  0  0  0  0  0  0  0  0  0
   34.6911  -14.7331   36.8109 C   0  0  0  0  0  0  0  0  0  0  0  0
   40.5484  -18.7641   36.2389 C   0  0  0  0  0  0  0  0  0  0  0  0
   40.5126  -18.9297   37.5049 O   0  0  0  0  0  0  0  0  0  0  0  0
   41.6322  -18.0634   35.6955 N   0  0  0  0  0  0  0  0  0  0  0  0
   41.7082  -17.8729   34.6749 H   0  0  0  0  0  0  0  0  0  0  0  0
   42.6923  -17.5819   36.5946 C   0  0  0  0  0  0  0  0  0  0  0  0
   43.3078  -16.3407   36.1226 C   0  0  0  0  0  0  0  0  0  0  0  0
   43.4378  -16.1136   34.7204 N   0  0  0  0  0  0  0  0  0  0  0  0
   43.7574  -15.4167   36.8543 O   0  0  0  0  0  0  0  0  0  0  0  0
   43.6036  -15.1797   34.2936 H   0  0  0  0  0  0  0  0  0  0  0  0
   43.3686  -16.9276   34.0391 H   0  0  0  0  0  0  0  0  0  0  0  0
   43.6304  -18.7518   36.7160 C   0  0  0  0  0  0  0  0  0  0  0  0
   43.8670  -19.2839   38.0534 C   0  0  0  0  0  0  0  0  0  0  0  0
   43.4874  -18.5674   39.1725 C   0  0  0  0  0  0  0  0  0  0  0  0
   43.6650  -19.0534   40.4649 C   0  0  0  0  0  0  0  0  0  0  0  0
   44.2341  -20.2858   40.6911 C   0  0  0  0  0  0  0  0  0  0  0  0
   44.6211  -21.0178   39.5712 C   0  0  0  0  0  0  0  0  0  0  0  0
   44.4409  -20.5281   38.3007 C   0  0  0  0  0  0  0  0  0  0  0  0
   39.8084  -19.8351   34.1010 C   0  0  0  0  0  0  0  0  0  0  0  0
   40.2746  -21.2139   34.0033 C   0  0  0  0  0  0  0  0  0  0  0  0
   41.5125  -21.4485   33.4631 C   0  0  0  0  0  0  0  0  0  0  0  0
   42.0494  -22.6988   33.2939 C   0  0  0  0  0  0  0  0  0  0  0  0
   41.2667  -23.7772   33.7044 C   0  0  0  0  0  0  0  0  0  0  0  0
   40.0214  -23.5517   34.2481 C   0  0  0  0  0  0  0  0  0  0  0  0
   39.5146  -22.2824   34.4026 C   0  0  0  0  0  0  0  0  0  0  0  0
 16 17  1  0  0  0
 17 18  1  0  0  0
 17 15  1  0  0  0
 15 11  1  0  0  0
 11 12  1  0  0  0
 11  7  1  0  0  0
  7  8  2  0  0  0
  7  9  1  0  0  0
  9  6  1  0  0  0
  6 19  1  0  0  0
 19 20  1  0  0  0
 20 21  2  0  0  0
 21 22  1  0  0  0
 22 23  2  0  0  0
 23 24  1  0  0  0
 24 25  2  0  0  0
  6  2  1  0  0  0
  2  3  2  0  0  0
  2  4  1  0  0  0
  4  1  1  0  0  0
  1 43  1  0  0  0
 43 44  1  0  0  0
 44 45  2  0  0  0
 45 46  1  0  0  0
 46 47  2  0  0  0
 47 48  1  0  0  0
 48 49  2  0  0  0
  1 26  1  0  0  0
 26 27  2  0  0  0
 26 28  1  0  0  0
 28 30  1  0  0  0
 30 36  1  0  0  0
 36 37  1  0  0  0
 37 38  2  0  0  0
 38 39  1  0  0  0
 39 40  2  0  0  0
 40 41  1  0  0  0
 41 42  2  0  0  0
 30 31  1  0  0  0
 31 32  1  0  0  0
 31 33  2  0  0  0
 25 20  1  0  0  0
 49 44  1  0  0  0
 42 37  1  0  0  0
 12 13  1  0  0  0
 12 14  1  0  0  0
  9 10  1  0  0  0
  4  5  1  0  0  0
 28 29  1  0  0  0
 32 34  1  0  0  0
 32 35  1  0  0  0
M  END
> <minimizedAffinity>
-7.90260

> <CNNscore>
0.5731197000

> <CNNaffinity>
6.7965416908

> <CNN_VS>
3.8952319622

> <CNNaffinity_variance>
0.0953822583

$$$$
[H]c1c([H])c([H])c(C([H])([H])[C@@]([H])(C(=O)N([H])[H])N([H])C(=O)[C@@]([H])(N([H])C(=O)[C@@]([H])(N([H])C(=O)[C@@]([H])(N([H])[H])C([H])([H])C([H])(C([H])([H])[H])C([H])([H])[H])C([H])([H])c2c([H])c([H])c([H])c([H])c2[H])C([H])([H])c2c([H])c([H])c([H])c([H])c2[H])c([H])c1[H]


 49 51  0  0  0  0  0  0  0  0999 V2000
   39.6724  -19.4103   35.0261 C   0  0  0  0  0  0  0  0  0  0  0  0
   37.2243  -18.9873   35.4067 C   0  0  0  0  0  0  0  0  0  0  0  0
   37.1154  -20.0092   36.1662 O   0  0  0  0  0  0  0  0  0  0  0  0
   38.4580  -18.6370   34.8145 N   0  0  0  0  0  0  0  0  0  0  0  0
   38.4675  -17.7769   34.1958 H   0  0  0  0  0  0  0  0  0  0  0  0
   35.9884  -18.2119   35.1932 C   0  0  0  0  0  0  0  0  0  0  0  0
   36.2125  -16.2777   36.7893 C   0  0  0  0  0  0  0  0  0  0  0  0
   36.1664  -17.0368   37.7771 O   0  0  0  0  0  0  0  0  0  0  0  0
   36.1256  -16.8113   35.4895 N   0  0  0  0  0  0  0  0  0  0  0  0
   36.1662  -16.0939   34.6906 H   0  0  0  0  0  0  0  0  0  0  0  0
   36.3580  -14.8173   36.9966 C   0  0  0  0  0  0  0  0  0  0  0  0
   37.6959  -14.4878   37.3547 N   0  0  0  0  0  0  0  0  0  0  0  0
   37.9434  -14.9467   38.2429 H   0  0  0  0  0  0  0  0  0  0  0  0
   38.4090  -14.7150   36.6448 H   0  0  0  0  0  0  0  0  0  0  0  0
   35.7759  -14.0748   35.8413 C   0  0  0  0  0  0  0  0  0  0  0  0
   35.2889  -11.7425   36.2921 C   0  0  0  0  0  0  0  0  0  0  0  0
   34.6791  -13.1540   36.2786 C   0  0  0  0  0  0  0  0  0  0  0  0
   34.2661  -13.4894   37.6958 C   0  0  0  0  0  0  0  0  0  0  0  0
   35.2474  -18.5456   33.9337 C   0  0  0  0  0  0  0  0  0  0  0  0
   33.8841  -19.0739   34.1988 C   0  0  0  0  0  0  0  0  0  0  0  0
   33.4024  -20.2799   33.7579 C   0  0  0  0  0  0  0  0  0  0  0  0
   32.0874  -20.6530   34.0677 C   0  0  0  0  0  0  0  0  0  0  0  0
   31.2397  -19.8566   34.8052 C   0  0  0  0  0  0  0  0  0  0  0  0
   31.7216  -18.6479   35.2476 C   0  0  0  0  0  0  0  0  0  0  0  0
   33.0111  -18.2778   34.9458 C   0  0  0  0  0  0  0  0  0  0  0  0
   40.5631  -18.7095   35.9394 C   0  0  0  0  0  0  0  0  0  0  0  0
   40.1915  -18.5702   37.1535 O   0  0  0  0  0  0  0  0  0  0  0  0
   41.8061  -18.1841   35.5654 N   0  0  0  0  0  0  0  0  0  0  0  0
   42.1559  -18.2422   34.5867 H   0  0  0  0  0  0  0  0  0  0  0  0
   42.6395  -17.5301   36.5861 C   0  0  0  0  0  0  0  0  0  0  0  0
   43.3424  -16.3554   36.0684 C   0  0  0  0  0  0  0  0  0  0  0  0
   43.3346  -16.0973   34.6656 N   0  0  0  0  0  0  0  0  0  0  0  0
   43.9838  -15.5170   36.7591 O   0  0  0  0  0  0  0  0  0  0  0  0
   43.5621  -15.1757   34.2407 H   0  0  0  0  0  0  0  0  0  0  0  0
   43.0875  -16.8735   33.9814 H   0  0  0  0  0  0  0  0  0  0  0  0
   43.5291  -18.6316   37.0948 C   0  0  0  0  0  0  0  0  0  0  0  0
   43.2194  -19.1901   38.4063 C   0  0  0  0  0  0  0  0  0  0  0  0
   43.2545  -18.3942   39.5356 C   0  0  0  0  0  0  0  0  0  0  0  0
   42.9340  -18.8796   40.8004 C   0  0  0  0  0  0  0  0  0  0  0  0
   42.5626  -20.1914   40.9874 C   0  0  0  0  0  0  0  0  0  0  0  0
   42.5233  -21.0040   39.8569 C   0  0  0  0  0  0  0  0  0  0  0  0
   42.8416  -20.5140   38.6138 C   0  0  0  0  0  0  0  0  0  0  0  0
   40.2602  -19.9092   33.7636 C   0  0  0  0  0  0  0  0  0  0  0  0
   40.4807  -21.3459   33.6399 C   0  0  0  0  0  0  0  0  0  0  0  0
   39.5589  -22.1985   34.1900 C   0  0  0  0  0  0  0  0  0  0  0  0
   39.6680  -23.5649   34.1626 C   0  0  0  0  0  0  0  0  0  0  0  0
   40.7944  -24.0907   33.5311 C   0  0  0  0  0  0  0  0  0  0  0  0
   41.7265  -23.2422   32.9756 C   0  0  0  0  0  0  0  0  0  0  0  0
   41.5841  -21.8749   33.0223 C   0  0  0  0  0  0  0  0  0  0  0  0
 16 17  1  0  0  0
 17 18  1  0  0  0
 17 15  1  0  0  0
 15 11  1  0  0  0
 11 12  1  0  0  0
 11  7  1  0  0  0
  7  8  2  0  0  0
  7  9  1  0  0  0
  9  6  1  0  0  0
  6 19  1  0  0  0
 19 20  1  0  0  0
 20 21  2  0  0  0
 21 22  1  0  0  0
 22 23  2  0  0  0
 23 24  1  0  0  0
 24 25  2  0  0  0
  6  2  1  0  0  0
  2  3  2  0  0  0
  2  4  1  0  0  0
  4  1  1  0  0  0
  1 43  1  0  0  0
 43 44  1  0  0  0
 44 45  2  0  0  0
 45 46  1  0  0  0
 46 47  2  0  0  0
 47 48  1  0  0  0
 48 49  2  0  0  0
  1 26  1  0  0  0
 26 27  2  0  0  0
 26 28  1  0  0  0
 28 30  1  0  0  0
 30 36  1  0  0  0
 36 37  1  0  0  0
 37 38  2  0  0  0
 38 39  1  0  0  0
 39 40  2  0  0  0
 40 41  1  0  0  0
 41 42  2  0  0  0
 30 31  1  0  0  0
 31 32  1  0  0  0
 31 33  2  0  0  0
 25 20  1  0  0  0
 49 44  1  0  0  0
 42 37  1  0  0  0
 12 13  1  0  0  0
 12 14  1  0  0  0
  9 10  1  0  0  0
  4  5  1  0  0  0
 28 29  1  0  0  0
 32 34  1  0  0  0
 32 35  1  0  0  0
M  END
> <minimizedAffinity>
-7.62316

> <CNNscore>
0.3666912913

> <CNNaffinity>
6.6902666092

> <CNN_VS>
2.4532625675

> <CNNaffinity_variance>
0.2313797027

$$$$
[H]c1c([H])c([H])c(C([H])([H])[C@@]([H])(C(=O)N([H])[H])N([H])C(=O)[C@@]([H])(N([H])C(=O)[C@@]([H])(N([H])C(=O)[C@@]([H])(N([H])[H])C([H])([H])C([H])(C([H])([H])[H])C([H])([H])[H])C([H])([H])c2c([H])c([H])c([H])c([H])c2[H])C([H])([H])c2c([H])c([H])c([H])c([H])c2[H])c([H])c1[H]


 49 51  0  0  0  0  0  0  0  0999 V2000
   35.2993  -18.5536   36.1733 C   0  0  0  0  0  0  0  0  0  0  0  0
   36.4344  -20.3021   37.5773 C   0  0  0  0  0  0  0  0  0  0  0  0
   36.7333  -21.0025   36.5512 O   0  0  0  0  0  0  0  0  0  0  0  0
   35.7293  -19.0838   37.4584 N   0  0  0  0  0  0  0  0  0  0  0  0
   35.5172  -18.5614   38.3554 H   0  0  0  0  0  0  0  0  0  0  0  0
   36.8693  -20.8485   38.8760 C   0  0  0  0  0  0  0  0  0  0  0  0
   34.8168  -20.8630   40.3342 C   0  0  0  0  0  0  0  0  0  0  0  0
   34.7981  -19.6176   40.3873 O   0  0  0  0  0  0  0  0  0  0  0  0
   35.8238  -21.5190   39.6009 N   0  0  0  0  0  0  0  0  0  0  0  0
   35.7769  -22.5925   39.6078 H   0  0  0  0  0  0  0  0  0  0  0  0
   33.7753  -21.6403   41.0469 C   0  0  0  0  0  0  0  0  0  0  0  0
   32.9336  -20.7800   41.8074 N   0  0  0  0  0  0  0  0  0  0  0  0
   33.4893  -20.2897   42.5226 H   0  0  0  0  0  0  0  0  0  0  0  0
   32.4014  -20.0882   41.2577 H   0  0  0  0  0  0  0  0  0  0  0  0
   33.0949  -22.5727   40.1023 C   0  0  0  0  0  0  0  0  0  0  0  0
   33.8588  -24.8730   40.1749 C   0  0  0  0  0  0  0  0  0  0  0  0
   32.8166  -23.8963   40.7447 C   0  0  0  0  0  0  0  0  0  0  0  0
   31.4481  -24.3892   40.3255 C   0  0  0  0  0  0  0  0  0  0  0  0
   38.1983  -21.5412   38.8524 C   0  0  0  0  0  0  0  0  0  0  0  0
   38.6614  -21.9297   40.2098 C   0  0  0  0  0  0  0  0  0  0  0  0
   39.1403  -21.0656   41.1609 C   0  0  0  0  0  0  0  0  0  0  0  0
   39.5593  -21.5668   42.4009 C   0  0  0  0  0  0  0  0  0  0  0  0
   39.5135  -22.9062   42.7185 C   0  0  0  0  0  0  0  0  0  0  0  0
   39.0335  -23.7731   41.7661 C   0  0  0  0  0  0  0  0  0  0  0  0
   38.6216  -23.2855   40.5481 C   0  0  0  0  0  0  0  0  0  0  0  0
   35.9981  -17.3104   35.8820 C   0  0  0  0  0  0  0  0  0  0  0  0
   36.8038  -17.2914   34.8910 O   0  0  0  0  0  0  0  0  0  0  0  0
   35.8341  -16.1328   36.6217 N   0  0  0  0  0  0  0  0  0  0  0  0
   35.2120  -16.0888   37.4552 H   0  0  0  0  0  0  0  0  0  0  0  0
   36.5640  -14.9243   36.2086 C   0  0  0  0  0  0  0  0  0  0  0  0
   37.2874  -14.2991   37.3167 C   0  0  0  0  0  0  0  0  0  0  0  0
   38.2232  -13.2581   37.0424 N   0  0  0  0  0  0  0  0  0  0  0  0
   37.1691  -14.5992   38.5362 O   0  0  0  0  0  0  0  0  0  0  0  0
   38.5730  -12.5856   37.7545 H   0  0  0  0  0  0  0  0  0  0  0  0
   38.6107  -13.1340   36.0595 H   0  0  0  0  0  0  0  0  0  0  0  0
   35.5120  -14.0610   35.5672 C   0  0  0  0  0  0  0  0  0  0  0  0
   34.6324  -13.3077   36.4541 C   0  0  0  0  0  0  0  0  0  0  0  0
   33.6492  -13.9509   37.1818 C   0  0  0  0  0  0  0  0  0  0  0  0
   32.8110  -13.2744   38.0637 C   0  0  0  0  0  0  0  0  0  0  0  0
   32.9239  -11.9161   38.2543 C   0  0  0  0  0  0  0  0  0  0  0  0
   33.9111  -11.2562   37.5265 C   0  0  0  0  0  0  0  0  0  0  0  0
   34.7325  -11.9342   36.6592 C   0  0  0  0  0  0  0  0  0  0  0  0
   33.8281  -18.5502   36.0193 C   0  0  0  0  0  0  0  0  0  0  0  0
   33.1762  -19.8177   35.7087 C   0  0  0  0  0  0  0  0  0  0  0  0
   32.7797  -20.6204   36.7468 C   0  0  0  0  0  0  0  0  0  0  0  0
   32.1821  -21.8436   36.5837 C   0  0  0  0  0  0  0  0  0  0  0  0
   31.9784  -22.2710   35.2723 C   0  0  0  0  0  0  0  0  0  0  0  0
   32.3736  -21.4718   34.2224 C   0  0  0  0  0  0  0  0  0  0  0  0
   32.9710  -20.2494   34.4241 C   0  0  0  0  0  0  0  0  0  0  0  0
 16 17  1  0  0  0
 17 18  1  0  0  0
 17 15  1  0  0  0
 15 11  1  0  0  0
 11 12  1  0  0  0
 11  7  1  0  0  0
  7  8  2  0  0  0
  7  9  1  0  0  0
  9  6  1  0  0  0
  6 19  1  0  0  0
 19 20  1  0  0  0
 20 21  2  0  0  0
 21 22  1  0  0  0
 22 23  2  0  0  0
 23 24  1  0  0  0
 24 25  2  0  0  0
  6  2  1  0  0  0
  2  3  2  0  0  0
  2  4  1  0  0  0
  4  1  1  0  0  0
  1 43  1  0  0  0
 43 44  1  0  0  0
 44 45  2  0  0  0
 45 46  1  0  0  0
 46 47  2  0  0  0
 47 48  1  0  0  0
 48 49  2  0  0  0
  1 26  1  0  0  0
 26 27  2  0  0  0
 26 28  1  0  0  0
 28 30  1  0  0  0
 30 36  1  0  0  0
 36 37  1  0  0  0
 37 38  2  0  0  0
 38 39  1  0  0  0
 39 40  2  0  0  0
 40 41  1  0  0  0
 41 42  2  0  0  0
 30 31  1  0  0  0
 31 32  1  0  0  0
 31 33  2  0  0  0
 25 20  1  0  0  0
 49 44  1  0  0  0
 42 37  1  0  0  0
 12 13  1  0  0  0
 12 14  1  0  0  0
  9 10  1  0  0  0
  4  5  1  0  0  0
 28 29  1  0  0  0
 32 34  1  0  0  0
 32 35  1  0  0  0
M  END
> <minimizedAffinity>
-6.24708

> <CNNscore>
0.3554356396

> <CNNaffinity>
5.8639445305

> <CNN_VS>
2.0842549801

> <CNNaffinity_variance>
0.3370268047

$$$$
[H]c1c([H])c([H])c(C([H])([H])[C@@]([H])(C(=O)N([H])[H])N([H])C(=O)[C@@]([H])(N([H])C(=O)[C@@]([H])(N([H])C(=O)[C@@]([H])(N([H])[H])C([H])([H])C([H])(C([H])([H])[H])C([H])([H])[H])C([H])([H])c2c([H])c([H])c([H])c([H])c2[H])C([H])([H])c2c([H])c([H])c([H])c([H])c2[H])c([H])c1[H]


 49 51  0  0  0  0  0  0  0  0999 V2000
   40.0700  -19.5273   35.1859 C   0  0  0  0  0  0  0  0  0  0  0  0
   37.6824  -18.8745   35.6220 C   0  0  0  0  0  0  0  0  0  0  0  0
   37.4845  -19.9007   36.3573 O   0  0  0  0  0  0  0  0  0  0  0  0
   38.9354  -18.6321   35.0163 N   0  0  0  0  0  0  0  0  0  0  0  0
   39.0206  -17.7608   34.4196 H   0  0  0  0  0  0  0  0  0  0  0  0
   36.5266  -17.9750   35.4511 C   0  0  0  0  0  0  0  0  0  0  0  0
   36.5021  -16.1745   37.2108 C   0  0  0  0  0  0  0  0  0  0  0  0
   36.0233  -16.9542   38.0575 O   0  0  0  0  0  0  0  0  0  0  0  0
   36.7663  -16.6319   35.9058 N   0  0  0  0  0  0  0  0  0  0  0  0
   37.1721  -15.9000   35.2318 H   0  0  0  0  0  0  0  0  0  0  0  0
   36.7875  -14.7703   37.5897 C   0  0  0  0  0  0  0  0  0  0  0  0
   37.7779  -14.2070   36.7360 N   0  0  0  0  0  0  0  0  0  0  0  0
   38.6592  -14.7318   36.8289 H   0  0  0  0  0  0  0  0  0  0  0  0
   37.5186  -14.1525   35.7391 H   0  0  0  0  0  0  0  0  0  0  0  0
   35.5135  -14.0067   37.7258 C   0  0  0  0  0  0  0  0  0  0  0  0
   34.8804  -12.0416   36.4539 C   0  0  0  0  0  0  0  0  0  0  0  0
   34.9891  -13.5743   36.3916 C   0  0  0  0  0  0  0  0  0  0  0  0
   33.5940  -14.1257   36.1887 C   0  0  0  0  0  0  0  0  0  0  0  0
   35.8190  -18.1049   34.1361 C   0  0  0  0  0  0  0  0  0  0  0  0
   34.4074  -18.5428   34.2906 C   0  0  0  0  0  0  0  0  0  0  0  0
   33.4272  -17.8407   34.9440 C   0  0  0  0  0  0  0  0  0  0  0  0
   32.1348  -18.3760   35.0296 C   0  0  0  0  0  0  0  0  0  0  0  0
   31.7930  -19.5923   34.4812 C   0  0  0  0  0  0  0  0  0  0  0  0
   32.7746  -20.2967   33.8260 C   0  0  0  0  0  0  0  0  0  0  0  0
   34.0440  -19.7752   33.7399 C   0  0  0  0  0  0  0  0  0  0  0  0
   41.1108  -18.8785   35.9699 C   0  0  0  0  0  0  0  0  0  0  0  0
   40.9221  -18.7447   37.2262 O   0  0  0  0  0  0  0  0  0  0  0  0
   42.3089  -18.3976   35.4276 N   0  0  0  0  0  0  0  0  0  0  0  0
   42.5129  -18.4534   34.4084 H   0  0  0  0  0  0  0  0  0  0  0  0
   43.3062  -17.7951   36.3256 C   0  0  0  0  0  0  0  0  0  0  0  0
   43.5439  -16.3811   36.0324 C   0  0  0  0  0  0  0  0  0  0  0  0
   43.5527  -15.9398   34.6760 N   0  0  0  0  0  0  0  0  0  0  0  0
   43.7549  -15.4770   36.8864 O   0  0  0  0  0  0  0  0  0  0  0  0
   43.4428  -14.9474   34.3846 H   0  0  0  0  0  0  0  0  0  0  0  0
   43.6799  -16.6419   33.8871 H   0  0  0  0  0  0  0  0  0  0  0  0
   44.5109  -18.6855   36.1866 C   0  0  0  0  0  0  0  0  0  0  0  0
   44.3315  -20.1042   36.4747 C   0  0  0  0  0  0  0  0  0  0  0  0
   44.5906  -21.0564   35.5072 C   0  0  0  0  0  0  0  0  0  0  0  0
   44.4638  -22.4211   35.7511 C   0  0  0  0  0  0  0  0  0  0  0  0
   44.0695  -22.8915   36.9828 C   0  0  0  0  0  0  0  0  0  0  0  0
   43.8052  -21.9417   37.9665 C   0  0  0  0  0  0  0  0  0  0  0  0
   43.9338  -20.5976   37.7145 C   0  0  0  0  0  0  0  0  0  0  0  0
   40.4843  -20.1719   33.9206 C   0  0  0  0  0  0  0  0  0  0  0  0
   40.9431  -21.5551   33.9831 C   0  0  0  0  0  0  0  0  0  0  0  0
   41.7415  -22.0252   32.9727 C   0  0  0  0  0  0  0  0  0  0  0  0
   42.2136  -23.3107   32.9052 C   0  0  0  0  0  0  0  0  0  0  0  0
   41.8432  -24.1690   33.9397 C   0  0  0  0  0  0  0  0  0  0  0  0
   41.0410  -23.7061   34.9592 C   0  0  0  0  0  0  0  0  0  0  0  0
   40.5854  -22.4088   34.9940 C   0  0  0  0  0  0  0  0  0  0  0  0
 16 17  1  0  0  0
 17 18  1  0  0  0
 17 15  1  0  0  0
 15 11  1  0  0  0
 11 12  1  0  0  0
 11  7  1  0  0  0
  7  8  2  0  0  0
  7  9  1  0  0  0
  9  6  1  0  0  0
  6 19  1  0  0  0
 19 20  1  0  0  0
 20 21  2  0  0  0
 21 22  1  0  0  0
 22 23  2  0  0  0
 23 24  1  0  0  0
 24 25  2  0  0  0
  6  2  1  0  0  0
  2  3  2  0  0  0
  2  4  1  0  0  0
  4  1  1  0  0  0
  1 43  1  0  0  0
 43 44  1  0  0  0
 44 45  2  0  0  0
 45 46  1  0  0  0
 46 47  2  0  0  0
 47 48  1  0  0  0
 48 49  2  0  0  0
  1 26  1  0  0  0
 26 27  2  0  0  0
 26 28  1  0  0  0
 28 30  1  0  0  0
 30 36  1  0  0  0
 36 37  1  0  0  0
 37 38  2  0  0  0
 38 39  1  0  0  0
 39 40  2  0  0  0
 40 41  1  0  0  0
 41 42  2  0  0  0
 30 31  1  0  0  0
 31 32  1  0  0  0
 31 33  2  0  0  0
 25 20  1  0  0  0
 49 44  1  0  0  0
 42 37  1  0  0  0
 12 13  1  0  0  0
 12 14  1  0  0  0
  9 10  1  0  0  0
  4  5  1  0  0  0
 28 29  1  0  0  0
 32 34  1  0  0  0
 32 35  1  0  0  0
M  END
> <minimizedAffinity>
-6.93008

> <CNNscore>
0.3451484442

> <CNNaffinity>
6.5340547562

> <CNN_VS>
2.2552187443

> <CNNaffinity_variance>
0.2148195207

$$$$
[H]c1c([H])c([H])c(C([H])([H])[C@@]([H])(C(=O)N([H])[H])N([H])C(=O)[C@@]([H])(N([H])C(=O)[C@@]([H])(N([H])C(=O)[C@@]([H])(N([H])[H])C([H])([H])C([H])(C([H])([H])[H])C([H])([H])[H])C([H])([H])c2c([H])c([H])c([H])c([H])c2[H])C([H])([H])c2c([H])c([H])c([H])c([H])c2[H])c([H])c1[H]


 49 51  0  0  0  0  0  0  0  0999 V2000
   39.2092  -19.5326   35.8681 C   0  0  0  0  0  0  0  0  0  0  0  0
   37.2597  -18.1408   36.6290 C   0  0  0  0  0  0  0  0  0  0  0  0
   36.9533  -18.9805   37.5421 O   0  0  0  0  0  0  0  0  0  0  0  0
   38.3615  -18.3539   35.7711 N   0  0  0  0  0  0  0  0  0  0  0  0
   38.5504  -17.6128   35.0378 H   0  0  0  0  0  0  0  0  0  0  0  0
   36.3930  -16.9516   36.5339 C   0  0  0  0  0  0  0  0  0  0  0  0
   34.6699  -17.8935   34.9584 C   0  0  0  0  0  0  0  0  0  0  0  0
   35.5472  -18.2366   34.1419 O   0  0  0  0  0  0  0  0  0  0  0  0
   35.0383  -17.2516   36.1559 N   0  0  0  0  0  0  0  0  0  0  0  0
   34.2260  -16.9808   36.8052 H   0  0  0  0  0  0  0  0  0  0  0  0
   33.2445  -18.1660   34.6566 C   0  0  0  0  0  0  0  0  0  0  0  0
   32.6765  -17.1051   33.8959 N   0  0  0  0  0  0  0  0  0  0  0  0
   32.7104  -16.2295   34.4371 H   0  0  0  0  0  0  0  0  0  0  0  0
   33.1058  -16.9493   32.9710 H   0  0  0  0  0  0  0  0  0  0  0  0
   33.0921  -19.5409   34.0989 C   0  0  0  0  0  0  0  0  0  0  0  0
   32.2650  -21.8056   34.3584 C   0  0  0  0  0  0  0  0  0  0  0  0
   32.2545  -20.4040   34.9909 C   0  0  0  0  0  0  0  0  0  0  0  0
   30.8244  -19.9080   34.9844 C   0  0  0  0  0  0  0  0  0  0  0  0
   36.5586  -15.9633   37.6486 C   0  0  0  0  0  0  0  0  0  0  0  0
   35.8787  -14.6719   37.3695 C   0  0  0  0  0  0  0  0  0  0  0  0
   34.6345  -14.3170   37.8244 C   0  0  0  0  0  0  0  0  0  0  0  0
   34.1014  -13.0690   37.4745 C   0  0  0  0  0  0  0  0  0  0  0  0
   34.7751  -12.1649   36.6836 C   0  0  0  0  0  0  0  0  0  0  0  0
   36.0221  -12.5194   36.2272 C   0  0  0  0  0  0  0  0  0  0  0  0
   36.5488  -13.7430   36.5680 C   0  0  0  0  0  0  0  0  0  0  0  0
   40.5857  -19.1425   36.1360 C   0  0  0  0  0  0  0  0  0  0  0  0
   40.8346  -18.5256   37.2264 O   0  0  0  0  0  0  0  0  0  0  0  0
   41.6535  -19.4092   35.2702 N   0  0  0  0  0  0  0  0  0  0  0  0
   41.5140  -19.8859   34.3553 H   0  0  0  0  0  0  0  0  0  0  0  0
   43.0105  -19.0019   35.6658 C   0  0  0  0  0  0  0  0  0  0  0  0
   43.4414  -17.7689   35.0056 C   0  0  0  0  0  0  0  0  0  0  0  0
   42.8136  -16.5351   35.3493 N   0  0  0  0  0  0  0  0  0  0  0  0
   44.3417  -17.6799   34.1264 O   0  0  0  0  0  0  0  0  0  0  0  0
   43.2182  -15.5985   35.1474 H   0  0  0  0  0  0  0  0  0  0  0  0
   41.8706  -16.5350   35.8416 H   0  0  0  0  0  0  0  0  0  0  0  0
   43.8569  -20.2107   35.3726 C   0  0  0  0  0  0  0  0  0  0  0  0
   43.2917  -21.5170   35.6918 C   0  0  0  0  0  0  0  0  0  0  0  0
   43.1278  -22.4719   34.7063 C   0  0  0  0  0  0  0  0  0  0  0  0
   42.6233  -23.7414   34.9747 C   0  0  0  0  0  0  0  0  0  0  0  0
   42.2597  -24.1091   36.2499 C   0  0  0  0  0  0  0  0  0  0  0  0
   42.4200  -23.1553   37.2521 C   0  0  0  0  0  0  0  0  0  0  0  0
   42.9189  -21.9059   36.9757 C   0  0  0  0  0  0  0  0  0  0  0  0
   38.9844  -20.4913   34.7642 C   0  0  0  0  0  0  0  0  0  0  0  0
   38.9089  -21.9084   35.1021 C   0  0  0  0  0  0  0  0  0  0  0  0
   39.1091  -22.8293   34.1065 C   0  0  0  0  0  0  0  0  0  0  0  0
   39.0379  -24.1858   34.2928 C   0  0  0  0  0  0  0  0  0  0  0  0
   38.7424  -24.6261   35.5823 C   0  0  0  0  0  0  0  0  0  0  0  0
   38.5393  -23.7086   36.5894 C   0  0  0  0  0  0  0  0  0  0  0  0
   38.6185  -22.3538   36.3654 C   0  0  0  0  0  0  0  0  0  0  0  0
 16 17  1  0  0  0
 17 18  1  0  0  0
 17 15  1  0  0  0
 15 11  1  0  0  0
 11 12  1  0  0  0
 11  7  1  0  0  0
  7  8  2  0  0  0
  7  9  1  0  0  0
  9  6  1  0  0  0
  6 19  1  0  0  0
 19 20  1  0  0  0
 20 21  2  0  0  0
 21 22  1  0  0  0
 22 23  2  0  0  0
 23 24  1  0  0  0
 24 25  2  0  0  0
  6  2  1  0  0  0
  2  3  2  0  0  0
  2  4  1  0  0  0
  4  1  1  0  0  0
  1 43  1  0  0  0
 43 44  1  0  0  0
 44 45  2  0  0  0
 45 46  1  0  0  0
 46 47  2  0  0  0
 47 48  1  0  0  0
 48 49  2  0  0  0
  1 26  1  0  0  0
 26 27  2  0  0  0
 26 28  1  0  0  0
 28 30  1  0  0  0
 30 36  1  0  0  0
 36 37  1  0  0  0
 37 38  2  0  0  0
 38 39  1  0  0  0
 39 40  2  0  0  0
 40 41  1  0  0  0
 41 42  2  0  0  0
 30 31  1  0  0  0
 31 32  1  0  0  0
 31 33  2  0  0  0
 25 20  1  0  0  0
 49 44  1  0  0  0
 42 37  1  0  0  0
 12 13  1  0  0  0
 12 14  1  0  0  0
  9 10  1  0  0  0
  4  5  1  0  0  0
 28 29  1  0  0  0
 32 34  1  0  0  0
 32 35  1  0  0  0
M  END
> <minimizedAffinity>
-6.23862

> <CNNscore>
0.3087565005

> <CNNaffinity>
6.3215646744

> <CNN_VS>
1.9518241882

> <CNNaffinity_variance>
0.1151671261

$$$$
[H]c1c([H])c([H])c(C([H])([H])[C@@]([H])(C(=O)N([H])[H])N([H])C(=O)[C@@]([H])(N([H])C(=O)[C@@]([H])(N([H])C(=O)[C@@]([H])(N([H])[H])C([H])([H])C([H])(C([H])([H])[H])C([H])([H])[H])C([H])([H])c2c([H])c([H])c([H])c([H])c2[H])C([H])([H])c2c([H])c([H])c([H])c([H])c2[H])c([H])c1[H]


 49 51  0  0  0  0  0  0  0  0999 V2000
   39.4843  -19.4486   35.6379 C   0  0  0  0  0  0  0  0  0  0  0  0
   37.4981  -18.1663   36.4910 C   0  0  0  0  0  0  0  0  0  0  0  0
   37.2733  -19.0280   37.4074 O   0  0  0  0  0  0  0  0  0  0  0  0
   38.5734  -18.3149   35.5870 N   0  0  0  0  0  0  0  0  0  0  0  0
   38.6935  -17.5593   34.8541 H   0  0  0  0  0  0  0  0  0  0  0  0
   36.5680  -17.0231   36.4430 C   0  0  0  0  0  0  0  0  0  0  0  0
   34.8271  -18.0116   34.9161 C   0  0  0  0  0  0  0  0  0  0  0  0
   35.6817  -18.2731   34.0469 O   0  0  0  0  0  0  0  0  0  0  0  0
   35.2160  -17.3905   36.1181 N   0  0  0  0  0  0  0  0  0  0  0  0
   34.4223  -17.1915   36.8145 H   0  0  0  0  0  0  0  0  0  0  0  0
   33.4070  -18.3583   34.6717 C   0  0  0  0  0  0  0  0  0  0  0  0
   32.7408  -17.3065   33.9813 N   0  0  0  0  0  0  0  0  0  0  0  0
   32.7502  -16.4508   34.5545 H   0  0  0  0  0  0  0  0  0  0  0  0
   33.1138  -17.0913   33.0439 H   0  0  0  0  0  0  0  0  0  0  0  0
   33.3077  -19.7185   34.0679 C   0  0  0  0  0  0  0  0  0  0  0  0
   32.0169  -20.2436   36.0524 C   0  0  0  0  0  0  0  0  0  0  0  0
   32.0748  -20.4331   34.5275 C   0  0  0  0  0  0  0  0  0  0  0  0
   32.2124  -21.9156   34.2539 C   0  0  0  0  0  0  0  0  0  0  0  0
   36.7283  -16.0359   37.5593 C   0  0  0  0  0  0  0  0  0  0  0  0
   35.9889  -14.7712   37.3108 C   0  0  0  0  0  0  0  0  0  0  0  0
   34.7702  -14.4471   37.8499 C   0  0  0  0  0  0  0  0  0  0  0  0
   34.1733  -13.2224   37.5208 C   0  0  0  0  0  0  0  0  0  0  0  0
   34.7585  -12.3121   36.6690 C   0  0  0  0  0  0  0  0  0  0  0  0
   35.9799  -12.6358   36.1283 C   0  0  0  0  0  0  0  0  0  0  0  0
   36.5689  -13.8364   36.4484 C   0  0  0  0  0  0  0  0  0  0  0  0
   40.8628  -18.9850   35.6960 C   0  0  0  0  0  0  0  0  0  0  0  0
   41.3640  -18.4557   34.6471 O   0  0  0  0  0  0  0  0  0  0  0  0
   41.6693  -19.0806   36.8367 N   0  0  0  0  0  0  0  0  0  0  0  0
   41.3293  -19.5235   37.7153 H   0  0  0  0  0  0  0  0  0  0  0  0
   43.0368  -18.5405   36.7898 C   0  0  0  0  0  0  0  0  0  0  0  0
   44.0172  -19.5324   36.3461 C   0  0  0  0  0  0  0  0  0  0  0  0
   44.4023  -19.5698   34.9732 N   0  0  0  0  0  0  0  0  0  0  0  0
   44.5757  -20.3948   37.0781 O   0  0  0  0  0  0  0  0  0  0  0  0
   45.2625  -20.0365   34.6210 H   0  0  0  0  0  0  0  0  0  0  0  0
   43.7942  -19.1036   34.2353 H   0  0  0  0  0  0  0  0  0  0  0  0
   43.2641  -17.9953   38.1735 C   0  0  0  0  0  0  0  0  0  0  0  0
   43.0045  -18.8896   39.2962 C   0  0  0  0  0  0  0  0  0  0  0  0
   44.0330  -19.2921   40.1269 C   0  0  0  0  0  0  0  0  0  0  0  0
   43.8228  -20.1177   41.2279 C   0  0  0  0  0  0  0  0  0  0  0  0
   42.5649  -20.5774   41.5444 C   0  0  0  0  0  0  0  0  0  0  0  0
   41.5196  -20.1788   40.7147 C   0  0  0  0  0  0  0  0  0  0  0  0
   41.7389  -19.3639   39.6311 C   0  0  0  0  0  0  0  0  0  0  0  0
   39.1649  -20.4846   34.6314 C   0  0  0  0  0  0  0  0  0  0  0  0
   38.9799  -21.8528   35.1023 C   0  0  0  0  0  0  0  0  0  0  0  0
   38.6492  -22.0523   36.4177 C   0  0  0  0  0  0  0  0  0  0  0  0
   38.4749  -23.2886   36.9842 C   0  0  0  0  0  0  0  0  0  0  0  0
   38.6512  -24.3908   36.1486 C   0  0  0  0  0  0  0  0  0  0  0  0
   38.9838  -24.2007   34.8256 C   0  0  0  0  0  0  0  0  0  0  0  0
   39.1510  -22.9444   34.2912 C   0  0  0  0  0  0  0  0  0  0  0  0
 16 17  1  0  0  0
 17 18  1  0  0  0
 17 15  1  0  0  0
 15 11  1  0  0  0
 11 12  1  0  0  0
 11  7  1  0  0  0
  7  8  2  0  0  0
  7  9  1  0  0  0
  9  6  1  0  0  0
  6 19  1  0  0  0
 19 20  1  0  0  0
 20 21  2  0  0  0
 21 22  1  0  0  0
 22 23  2  0  0  0
 23 24  1  0  0  0
 24 25  2  0  0  0
  6  2  1  0  0  0
  2  3  2  0  0  0
  2  4  1  0  0  0
  4  1  1  0  0  0
  1 43  1  0  0  0
 43 44  1  0  0  0
 44 45  2  0  0  0
 45 46  1  0  0  0
 46 47  2  0  0  0
 47 48  1  0  0  0
 48 49  2  0  0  0
  1 26  1  0  0  0
 26 27  2  0  0  0
 26 28  1  0  0  0
 28 30  1  0  0  0
 30 36  1  0  0  0
 36 37  1  0  0  0
 37 38  2  0  0  0
 38 39  1  0  0  0
 39 40  2  0  0  0
 40 41  1  0  0  0
 41 42  2  0  0  0
 30 31  1  0  0  0
 31 32  1  0  0  0
 31 33  2  0  0  0
 25 20  1  0  0  0
 49 44  1  0  0  0
 42 37  1  0  0  0
 12 13  1  0  0  0
 12 14  1  0  0  0
  9 10  1  0  0  0
  4  5  1  0  0  0
 28 29  1  0  0  0
 32 34  1  0  0  0
 32 35  1  0  0  0
M  END
> <minimizedAffinity>
-6.83188

> <CNNscore>
0.2490237951

> <CNNaffinity>
6.0427656174

> <CNN_VS>
1.5047924519

> <CNNaffinity_variance>
0.2169175595

$$$$
[H]c1c([H])c([H])c(C([H])([H])[C@@]([H])(C(=O)N([H])[H])N([H])C(=O)[C@@]([H])(N([H])C(=O)[C@@]([H])(N([H])C(=O)[C@@]([H])(N([H])[H])C([H])([H])C([H])(C([H])([H])[H])C([H])([H])[H])C([H])([H])c2c([H])c([H])c([H])c([H])c2[H])C([H])([H])c2c([H])c([H])c([H])c([H])c2[H])c([H])c1[H]


 49 51  0  0  0  0  0  0  0  0999 V2000
   34.8915  -18.0826   35.6329 C   0  0  0  0  0  0  0  0  0  0  0  0
   36.3008  -19.7755   36.8435 C   0  0  0  0  0  0  0  0  0  0  0  0
   37.0435  -19.9616   35.8204 O   0  0  0  0  0  0  0  0  0  0  0  0
   35.2239  -18.8616   36.8162 N   0  0  0  0  0  0  0  0  0  0  0  0
   34.6533  -18.7642   37.7036 H   0  0  0  0  0  0  0  0  0  0  0  0
   36.6409  -20.5720   38.0368 C   0  0  0  0  0  0  0  0  0  0  0  0
   34.5431  -21.1656   39.2962 C   0  0  0  0  0  0  0  0  0  0  0  0
   34.4579  -20.0171   39.7733 O   0  0  0  0  0  0  0  0  0  0  0  0
   35.6074  -21.4900   38.4336 N   0  0  0  0  0  0  0  0  0  0  0  0
   35.6162  -22.5006   38.0686 H   0  0  0  0  0  0  0  0  0  0  0  0
   33.5196  -22.1793   39.6450 C   0  0  0  0  0  0  0  0  0  0  0  0
   32.8793  -21.8501   40.8732 N   0  0  0  0  0  0  0  0  0  0  0  0
   33.5706  -21.8413   41.6367 H   0  0  0  0  0  0  0  0  0  0  0  0
   32.3621  -20.9576   40.8732 H   0  0  0  0  0  0  0  0  0  0  0  0
   32.6281  -22.4313   38.4761 C   0  0  0  0  0  0  0  0  0  0  0  0
   33.6913  -23.9712   36.9339 C   0  0  0  0  0  0  0  0  0  0  0  0
   32.6559  -23.8712   38.0664 C   0  0  0  0  0  0  0  0  0  0  0  0
   31.3108  -24.2651   37.4948 C   0  0  0  0  0  0  0  0  0  0  0  0
   38.0389  -21.1125   38.0534 C   0  0  0  0  0  0  0  0  0  0  0  0
   38.0827  -22.5832   37.8460 C   0  0  0  0  0  0  0  0  0  0  0  0
   37.8371  -23.2233   36.6583 C   0  0  0  0  0  0  0  0  0  0  0  0
   37.8978  -24.6224   36.6025 C   0  0  0  0  0  0  0  0  0  0  0  0
   38.1970  -25.4007   37.6987 C   0  0  0  0  0  0  0  0  0  0  0  0
   38.4434  -24.7601   38.8895 C   0  0  0  0  0  0  0  0  0  0  0  0
   38.3847  -23.3876   38.9486 C   0  0  0  0  0  0  0  0  0  0  0  0
   35.7247  -16.8910   35.5639 C   0  0  0  0  0  0  0  0  0  0  0  0
   36.7233  -16.9007   34.7675 O   0  0  0  0  0  0  0  0  0  0  0  0
   35.4916  -15.7330   36.3158 N   0  0  0  0  0  0  0  0  0  0  0  0
   34.7101  -15.6697   37.0006 H   0  0  0  0  0  0  0  0  0  0  0  0
   36.3786  -14.5739   36.1325 C   0  0  0  0  0  0  0  0  0  0  0  0
   37.1232  -14.2392   37.3473 C   0  0  0  0  0  0  0  0  0  0  0  0
   36.9012  -14.9973   38.5350 N   0  0  0  0  0  0  0  0  0  0  0  0
   37.9702  -13.3112   37.4600 O   0  0  0  0  0  0  0  0  0  0  0  0
   37.5538  -15.0177   39.3445 H   0  0  0  0  0  0  0  0  0  0  0  0
   36.0226  -15.5886   38.6345 H   0  0  0  0  0  0  0  0  0  0  0  0
   35.4665  -13.4899   35.6258 C   0  0  0  0  0  0  0  0  0  0  0  0
   34.4970  -12.9375   36.5652 C   0  0  0  0  0  0  0  0  0  0  0  0
   33.5405  -13.7482   37.1465 C   0  0  0  0  0  0  0  0  0  0  0  0
   32.6184  -13.2679   38.0723 C   0  0  0  0  0  0  0  0  0  0  0  0
   32.6165  -11.9465   38.4567 C   0  0  0  0  0  0  0  0  0  0  0  0
   33.5757  -11.1190   37.8778 C   0  0  0  0  0  0  0  0  0  0  0  0
   34.4806  -11.6041   36.9655 C   0  0  0  0  0  0  0  0  0  0  0  0
   33.4342  -17.8952   35.4621 C   0  0  0  0  0  0  0  0  0  0  0  0
   32.6129  -19.0885   35.2901 C   0  0  0  0  0  0  0  0  0  0  0  0
   33.2154  -20.2389   34.8509 C   0  0  0  0  0  0  0  0  0  0  0  0
   32.5475  -21.4150   34.6258 C   0  0  0  0  0  0  0  0  0  0  0  0
   31.1741  -21.4111   34.8661 C   0  0  0  0  0  0  0  0  0  0  0  0
   30.5596  -20.2601   35.3073 C   0  0  0  0  0  0  0  0  0  0  0  0
   31.2621  -19.0973   35.5223 C   0  0  0  0  0  0  0  0  0  0  0  0
 16 17  1  0  0  0
 17 18  1  0  0  0
 17 15  1  0  0  0
 15 11  1  0  0  0
 11 12  1  0  0  0
 11  7  1  0  0  0
  7  8  2  0  0  0
  7  9  1  0  0  0
  9  6  1  0  0  0
  6 19  1  0  0  0
 19 20  1  0  0  0
 20 21  2  0  0  0
 21 22  1  0  0  0
 22 23  2  0  0  0
 23 24  1  0  0  0
 24 25  2  0  0  0
  6  2  1  0  0  0
  2  3  2  0  0  0
  2  4  1  0  0  0
  4  1  1  0  0  0
  1 43  1  0  0  0
 43 44  1  0  0  0
 44 45  2  0  0  0
 45 46  1  0  0  0
 46 47  2  0  0  0
 47 48  1  0  0  0
 48 49  2  0  0  0
  1 26  1  0  0  0
 26 27  2  0  0  0
 26 28  1  0  0  0
 28 30  1  0  0  0
 30 36  1  0  0  0
 36 37  1  0  0  0
 37 38  2  0  0  0
 38 39  1  0  0  0
 39 40  2  0  0  0
 40 41  1  0  0  0
 41 42  2  0  0  0
 30 31  1  0  0  0
 31 32  1  0  0  0
 31 33  2  0  0  0
 25 20  1  0  0  0
 49 44  1  0  0  0
 42 37  1  0  0  0
 12 13  1  0  0  0
 12 14  1  0  0  0
  9 10  1  0  0  0
  4  5  1  0  0  0
 28 29  1  0  0  0
 32 34  1  0  0  0
 32 35  1  0  0  0
M  END
> <minimizedAffinity>
-6.18680

> <CNNscore>
0.2219088227

> <CNNaffinity>
5.7204232216

> <CNN_VS>
1.2694123983

> <CNNaffinity_variance>
0.4563372731

$$$$
[H]c1c([H])c([H])c(C([H])([H])[C@@]([H])(C(=O)N([H])[H])N([H])C(=O)[C@@]([H])(N([H])C(=O)[C@@]([H])(N([H])C(=O)[C@@]([H])(N([H])[H])C([H])([H])C([H])(C([H])([H])[H])C([H])([H])[H])C([H])([H])c2c([H])c([H])c([H])c([H])c2[H])C([H])([H])c2c([H])c([H])c([H])c([H])c2[H])c([H])c1[H]


 49 51  0  0  0  0  0  0  0  0999 V2000
   36.4856  -19.6441   34.9102 C   0  0  0  0  0  0  0  0  0  0  0  0
   36.6720  -20.4252   37.2918 C   0  0  0  0  0  0  0  0  0  0  0  0
   37.1077  -19.2890   37.6820 O   0  0  0  0  0  0  0  0  0  0  0  0
   36.3458  -20.6643   35.9383 N   0  0  0  0  0  0  0  0  0  0  0  0
   35.9924  -21.6324   35.6926 H   0  0  0  0  0  0  0  0  0  0  0  0
   36.5378  -21.4550   38.3386 C   0  0  0  0  0  0  0  0  0  0  0  0
   34.0406  -21.6340   38.6042 C   0  0  0  0  0  0  0  0  0  0  0  0
   33.9556  -20.4464   38.9740 O   0  0  0  0  0  0  0  0  0  0  0  0
   35.2973  -22.1801   38.2812 N   0  0  0  0  0  0  0  0  0  0  0  0
   35.2901  -23.2108   37.9775 H   0  0  0  0  0  0  0  0  0  0  0  0
   32.8130  -22.4592   38.5098 C   0  0  0  0  0  0  0  0  0  0  0  0
   32.1528  -22.5302   39.7692 N   0  0  0  0  0  0  0  0  0  0  0  0
   32.7684  -22.9795   40.4620 H   0  0  0  0  0  0  0  0  0  0  0  0
   31.8228  -21.6273   40.1433 H   0  0  0  0  0  0  0  0  0  0  0  0
   31.9868  -22.0185   37.3490 C   0  0  0  0  0  0  0  0  0  0  0  0
   30.6819  -23.6523   36.1208 C   0  0  0  0  0  0  0  0  0  0  0  0
   30.6561  -22.7050   37.3318 C   0  0  0  0  0  0  0  0  0  0  0  0
   29.5603  -21.6877   37.0958 C   0  0  0  0  0  0  0  0  0  0  0  0
   37.7683  -22.2791   38.5700 C   0  0  0  0  0  0  0  0  0  0  0  0
   38.6936  -21.6564   39.5518 C   0  0  0  0  0  0  0  0  0  0  0  0
   39.9274  -21.1351   39.2573 C   0  0  0  0  0  0  0  0  0  0  0  0
   40.7087  -20.5876   40.2840 C   0  0  0  0  0  0  0  0  0  0  0  0
   40.2932  -20.5455   41.5964 C   0  0  0  0  0  0  0  0  0  0  0  0
   39.0568  -21.0675   41.8926 C   0  0  0  0  0  0  0  0  0  0  0  0
   38.2871  -21.6058   40.8883 C   0  0  0  0  0  0  0  0  0  0  0  0
   37.8739  -19.2189   34.8079 C   0  0  0  0  0  0  0  0  0  0  0  0
   38.1098  -17.9824   34.5911 O   0  0  0  0  0  0  0  0  0  0  0  0
   38.9657  -20.0859   34.9389 N   0  0  0  0  0  0  0  0  0  0  0  0
   38.8413  -21.1081   35.0915 H   0  0  0  0  0  0  0  0  0  0  0  0
   40.3271  -19.5347   34.8567 C   0  0  0  0  0  0  0  0  0  0  0  0
   40.7145  -19.1978   33.4861 C   0  0  0  0  0  0  0  0  0  0  0  0
   40.7497  -17.8293   33.0855 N   0  0  0  0  0  0  0  0  0  0  0  0
   41.0281  -20.0232   32.5852 O   0  0  0  0  0  0  0  0  0  0  0  0
   41.2573  -17.4795   32.2478 H   0  0  0  0  0  0  0  0  0  0  0  0
   40.2335  -17.0932   33.6541 H   0  0  0  0  0  0  0  0  0  0  0  0
   41.1854  -20.5749   35.5236 C   0  0  0  0  0  0  0  0  0  0  0  0
   42.0970  -20.1211   36.5681 C   0  0  0  0  0  0  0  0  0  0  0  0
   42.0137  -18.8336   37.0634 C   0  0  0  0  0  0  0  0  0  0  0  0
   42.8421  -18.3715   38.0823 C   0  0  0  0  0  0  0  0  0  0  0  0
   43.7948  -19.1856   38.6510 C   0  0  0  0  0  0  0  0  0  0  0  0
   43.8888  -20.4857   38.1604 C   0  0  0  0  0  0  0  0  0  0  0  0
   43.0659  -20.9308   37.1547 C   0  0  0  0  0  0  0  0  0  0  0  0
   35.4626  -18.5809   35.0164 C   0  0  0  0  0  0  0  0  0  0  0  0
   34.0692  -18.9574   34.8047 C   0  0  0  0  0  0  0  0  0  0  0  0
   33.1150  -18.4231   35.6313 C   0  0  0  0  0  0  0  0  0  0  0  0
   31.7788  -18.7194   35.5498 C   0  0  0  0  0  0  0  0  0  0  0  0
   31.3968  -19.6214   34.5575 C   0  0  0  0  0  0  0  0  0  0  0  0
   32.3482  -20.1638   33.7222 C   0  0  0  0  0  0  0  0  0  0  0  0
   33.6811  -19.8433   33.8335 C   0  0  0  0  0  0  0  0  0  0  0  0
 16 17  1  0  0  0
 17 18  1  0  0  0
 17 15  1  0  0  0
 15 11  1  0  0  0
 11 12  1  0  0  0
 11  7  1  0  0  0
  7  8  2  0  0  0
  7  9  1  0  0  0
  9  6  1  0  0  0
  6 19  1  0  0  0
 19 20  1  0  0  0
 20 21  2  0  0  0
 21 22  1  0  0  0
 22 23  2  0  0  0
 23 24  1  0  0  0
 24 25  2  0  0  0
  6  2  1  0  0  0
  2  3  2  0  0  0
  2  4  1  0  0  0
  4  1  1  0  0  0
  1 43  1  0  0  0
 43 44  1  0  0  0
 44 45  2  0  0  0
 45 46  1  0  0  0
 46 47  2  0  0  0
 47 48  1  0  0  0
 48 49  2  0  0  0
  1 26  1  0  0  0
 26 27  2  0  0  0
 26 28  1  0  0  0
 28 30  1  0  0  0
 30 36  1  0  0  0
 36 37  1  0  0  0
 37 38  2  0  0  0
 38 39  1  0  0  0
 39 40  2  0  0  0
 40 41  1  0  0  0
 41 42  2  0  0  0
 30 31  1  0  0  0
 31 32  1  0  0  0
 31 33  2  0  0  0
 25 20  1  0  0  0
 49 44  1  0  0  0
 42 37  1  0  0  0
 12 13  1  0  0  0
 12 14  1  0  0  0
  9 10  1  0  0  0
  4  5  1  0  0  0
 28 29  1  0  0  0
 32 34  1  0  0  0
 32 35  1  0  0  0
M  END
> <minimizedAffinity>
-5.51955

> <CNNscore>
0.2009041905

> <CNNaffinity>
5.6709947586

> <CNN_VS>
1.1393265724

> <CNNaffinity_variance>
0.3989739120

$$$$
[H]c1c([H])c([H])c(C([H])([H])[C@@]([H])(C(=O)N([H])[H])N([H])C(=O)[C@@]([H])(N([H])C(=O)[C@@]([H])(N([H])C(=O)[C@@]([H])(N([H])[H])C([H])([H])C([H])(C([H])([H])[H])C([H])([H])[H])C([H])([H])c2c([H])c([H])c([H])c([H])c2[H])C([H])([H])c2c([H])c([H])c([H])c([H])c2[H])c([H])c1[H]


 49 51  0  0  0  0  0  0  0  0999 V2000
   35.7695  -18.6496   36.2321 C   0  0  0  0  0  0  0  0  0  0  0  0
   38.1832  -18.8624   35.5645 C   0  0  0  0  0  0  0  0  0  0  0  0
   38.5809  -18.2878   36.6343 O   0  0  0  0  0  0  0  0  0  0  0  0
   36.8102  -19.0721   35.3069 N   0  0  0  0  0  0  0  0  0  0  0  0
   36.5597  -19.5539   34.3972 H   0  0  0  0  0  0  0  0  0  0  0  0
   39.2434  -19.2831   34.6300 C   0  0  0  0  0  0  0  0  0  0  0  0
   41.6842  -18.7897   34.2587 C   0  0  0  0  0  0  0  0  0  0  0  0
   41.5485  -18.8513   33.0210 O   0  0  0  0  0  0  0  0  0  0  0  0
   40.5733  -18.9989   35.0978 N   0  0  0  0  0  0  0  0  0  0  0  0
   40.7709  -18.9361   36.1521 H   0  0  0  0  0  0  0  0  0  0  0  0
   43.0186  -18.4967   34.8336 C   0  0  0  0  0  0  0  0  0  0  0  0
   43.7916  -17.7028   33.9395 N   0  0  0  0  0  0  0  0  0  0  0  0
   43.9458  -18.2162   33.0601 H   0  0  0  0  0  0  0  0  0  0  0  0
   43.3984  -16.7735   33.7257 H   0  0  0  0  0  0  0  0  0  0  0  0
   42.8754  -17.9826   36.2263 C   0  0  0  0  0  0  0  0  0  0  0  0
   43.4649  -20.2151   36.9671 C   0  0  0  0  0  0  0  0  0  0  0  0
   43.7653  -18.7217   37.1771 C   0  0  0  0  0  0  0  0  0  0  0  0
   43.3904  -18.3738   38.6019 C   0  0  0  0  0  0  0  0  0  0  0  0
   39.0397  -20.6357   34.0171 C   0  0  0  0  0  0  0  0  0  0  0  0
   39.5389  -21.7342   34.8842 C   0  0  0  0  0  0  0  0  0  0  0  0
   38.9539  -22.1488   36.0533 C   0  0  0  0  0  0  0  0  0  0  0  0
   39.5376  -23.1915   36.7856 C   0  0  0  0  0  0  0  0  0  0  0  0
   40.6886  -23.8323   36.3839 C   0  0  0  0  0  0  0  0  0  0  0  0
   41.2756  -23.4177   35.2124 C   0  0  0  0  0  0  0  0  0  0  0  0
   40.7064  -22.3949   34.4909 C   0  0  0  0  0  0  0  0  0  0  0  0
   35.3609  -19.7645   37.0740 C   0  0  0  0  0  0  0  0  0  0  0  0
   34.8413  -19.5008   38.2107 O   0  0  0  0  0  0  0  0  0  0  0  0
   35.4994  -21.1089   36.7076 N   0  0  0  0  0  0  0  0  0  0  0  0
   35.9372  -21.3912   35.8064 H   0  0  0  0  0  0  0  0  0  0  0  0
   35.0128  -22.1511   37.6247 C   0  0  0  0  0  0  0  0  0  0  0  0
   36.0810  -22.7145   38.4514 C   0  0  0  0  0  0  0  0  0  0  0  0
   36.3480  -24.1144   38.3908 N   0  0  0  0  0  0  0  0  0  0  0  0
   36.8160  -22.0676   39.2468 O   0  0  0  0  0  0  0  0  0  0  0  0
   37.2316  -24.5545   38.7182 H   0  0  0  0  0  0  0  0  0  0  0  0
   35.6192  -24.7801   37.9942 H   0  0  0  0  0  0  0  0  0  0  0  0
   34.3169  -23.1361   36.7253 C   0  0  0  0  0  0  0  0  0  0  0  0
   32.8761  -22.9850   36.5550 C   0  0  0  0  0  0  0  0  0  0  0  0
   32.1461  -22.1879   37.4163 C   0  0  0  0  0  0  0  0  0  0  0  0
   30.7759  -21.9907   37.2691 C   0  0  0  0  0  0  0  0  0  0  0  0
   30.0755  -22.5881   36.2462 C   0  0  0  0  0  0  0  0  0  0  0  0
   30.8000  -23.3941   35.3713 C   0  0  0  0  0  0  0  0  0  0  0  0
   32.1518  -23.5813   35.5262 C   0  0  0  0  0  0  0  0  0  0  0  0
   34.6953  -17.8772   35.5706 C   0  0  0  0  0  0  0  0  0  0  0  0
   33.5159  -18.6069   35.1182 C   0  0  0  0  0  0  0  0  0  0  0  0
   33.6710  -19.5627   34.1479 C   0  0  0  0  0  0  0  0  0  0  0  0
   32.6378  -20.2953   33.6228 C   0  0  0  0  0  0  0  0  0  0  0  0
   31.3641  -20.0305   34.1245 C   0  0  0  0  0  0  0  0  0  0  0  0
   31.1980  -19.0717   35.0994 C   0  0  0  0  0  0  0  0  0  0  0  0
   32.2587  -18.3554   35.6029 C   0  0  0  0  0  0  0  0  0  0  0  0
 16 17  1  0  0  0
 17 18  1  0  0  0
 17 15  1  0  0  0
 15 11  1  0  0  0
 11 12  1  0  0  0
 11  7  1  0  0  0
  7  8  2  0  0  0
  7  9  1  0  0  0
  9  6  1  0  0  0
  6 19  1  0  0  0
 19 20  1  0  0  0
 20 21  2  0  0  0
 21 22  1  0  0  0
 22 23  2  0  0  0
 23 24  1  0  0  0
 24 25  2  0  0  0
  6  2  1  0  0  0
  2  3  2  0  0  0
  2  4  1  0  0  0
  4  1  1  0  0  0
  1 43  1  0  0  0
 43 44  1  0  0  0
 44 45  2  0  0  0
 45 46  1  0  0  0
 46 47  2  0  0  0
 47 48  1  0  0  0
 48 49  2  0  0  0
  1 26  1  0  0  0
 26 27  2  0  0  0
 26 28  1  0  0  0
 28 30  1  0  0  0
 30 36  1  0  0  0
 36 37  1  0  0  0
 37 38  2  0  0  0
 38 39  1  0  0  0
 39 40  2  0  0  0
 40 41  1  0  0  0
 41 42  2  0  0  0
 30 31  1  0  0  0
 31 32  1  0  0  0
 31 33  2  0  0  0
 25 20  1  0  0  0
 49 44  1  0  0  0
 42 37  1  0  0  0
 12 13  1  0  0  0
 12 14  1  0  0  0
  9 10  1  0  0  0
  4  5  1  0  0  0
 28 29  1  0  0  0
 32 34  1  0  0  0
 32 35  1  0  0  0
M  END
> <minimizedAffinity>
-5.35188

> <CNNscore>
0.1454089582

> <CNNaffinity>
5.5775933266

> <CNN_VS>
0.8110320568

> <CNNaffinity_variance>
0.3041528463

$$$$
[H]c1nc(N([H])c2c([H])c([H])c(N3C([H])([H])C([H])([H])N(C([H])([H])[H])C([H])([H])C3([H])[H])c([H])c2[H])nc([H])c1N([H])C(=O)c1c([H])c(N([H])C(=O)c2c([H])c([H])c([H])c(C(F)(F)F)c2[H])c([H])c([H])c1C([H])([H])[H]


 46 50  0  0  0  0  0  0  0  0999 V2000
   36.6675  -16.0680   35.9010 N   0  0  0  0  0  0  0  0  0  0  0  0
   36.6767  -17.2432   36.6080 C   0  0  0  0  0  0  0  0  0  0  0  0
   36.1188  -17.3160   37.7296 O   0  0  0  0  0  0  0  0  0  0  0  0
   37.3191  -16.0272   35.0408 H   0  0  0  0  0  0  0  0  0  0  0  0
   37.3136  -18.4744   36.0941 C   0  0  0  0  0  0  0  0  0  0  0  0
   38.1504  -19.2497   36.9396 C   0  0  0  0  0  0  0  0  0  0  0  0
   38.7465  -20.3704   36.5243 C   0  0  0  0  0  0  0  0  0  0  0  0
   38.5382  -20.7936   35.1876 C   0  0  0  0  0  0  0  0  0  0  0  0
   37.7388  -20.0548   34.3804 C   0  0  0  0  0  0  0  0  0  0  0  0
   37.0957  -18.8752   34.7988 C   0  0  0  0  0  0  0  0  0  0  0  0
   36.1587  -18.2488   33.8260 C   0  0  0  0  0  0  0  0  0  0  0  0
   39.5264  -21.2967   37.3238 N   0  0  0  0  0  0  0  0  0  0  0  0
   38.7805  -22.1890   38.1349 C   0  0  0  0  0  0  0  0  0  0  0  0
   37.4720  -21.9900   38.0648 O   0  0  0  0  0  0  0  0  0  0  0  0
   40.5285  -21.2744   37.2653 H   0  0  0  0  0  0  0  0  0  0  0  0
   39.1825  -23.2500   38.9938 C   0  0  0  0  0  0  0  0  0  0  0  0
   39.5640  -24.4806   38.5637 C   0  0  0  0  0  0  0  0  0  0  0  0
   39.8783  -25.4860   39.4615 C   0  0  0  0  0  0  0  0  0  0  0  0
   39.8226  -25.3003   40.8203 C   0  0  0  0  0  0  0  0  0  0  0  0
   39.4432  -24.0654   41.2919 C   0  0  0  0  0  0  0  0  0  0  0  0
   39.1367  -23.0800   40.3918 C   0  0  0  0  0  0  0  0  0  0  0  0
   39.3576  -23.8100   42.7414 C   0  0  0  0  0  0  0  0  0  0  0  0
   39.4043  -22.4420   42.9626 F   0  0  0  0  0  0  0  0  0  0  0  0
   38.2425  -24.4022   43.3271 F   0  0  0  0  0  0  0  0  0  0  0  0
   40.4703  -24.3460   43.3798 F   0  0  0  0  0  0  0  0  0  0  0  0
   34.3474  -12.6922   36.8456 C   0  0  0  0  0  0  0  0  0  0  0  0
   35.6458  -12.6967   37.0967 N   0  0  0  0  0  0  0  0  0  0  0  0
   36.4827  -13.7414   36.7896 C   0  0  0  0  0  0  0  0  0  0  0  0
   36.0005  -14.8497   36.1956 C   0  0  0  0  0  0  0  0  0  0  0  0
   34.6042  -14.8534   35.9170 C   0  0  0  0  0  0  0  0  0  0  0  0
   33.8697  -13.8237   36.2385 N   0  0  0  0  0  0  0  0  0  0  0  0
   33.4636  -11.6678   37.1856 N   0  0  0  0  0  0  0  0  0  0  0  0
   33.8149  -10.6624   36.9800 H   0  0  0  0  0  0  0  0  0  0  0  0
   29.5306  -11.8068   38.7777 C   0  0  0  0  0  0  0  0  0  0  0  0
   30.5139  -12.6808   39.1956 C   0  0  0  0  0  0  0  0  0  0  0  0
   31.7994  -12.6557   38.6938 C   0  0  0  0  0  0  0  0  0  0  0  0
   32.1733  -11.7420   37.7370 C   0  0  0  0  0  0  0  0  0  0  0  0
   31.1781  -10.8410   37.2990 C   0  0  0  0  0  0  0  0  0  0  0  0
   29.9025  -10.8673   37.7980 C   0  0  0  0  0  0  0  0  0  0  0  0
   27.1107  -14.3692   41.2154 C   0  0  0  0  0  0  0  0  0  0  0  0
   26.3537  -13.3259   40.5421 N   0  0  0  0  0  0  0  0  0  0  0  0
   26.4440  -13.3805   39.1324 C   0  0  0  0  0  0  0  0  0  0  0  0
   27.0242  -12.1270   38.5071 C   0  0  0  0  0  0  0  0  0  0  0  0
   28.2123  -11.8048   39.2907 N   0  0  0  0  0  0  0  0  0  0  0  0
   27.9243  -11.4572   40.6991 C   0  0  0  0  0  0  0  0  0  0  0  0
   26.6043  -12.0360   41.1188 C   0  0  0  0  0  0  0  0  0  0  0  0
 40 41  1  0  0  0
 41 42  1  0  0  0
 42 43  1  0  0  0
 43 44  1  0  0  0
 44 45  1  0  0  0
 45 46  1  0  0  0
 44 34  1  0  0  0
 34 35  2  0  0  0
 35 36  1  0  0  0
 36 37  2  0  0  0
 37 32  1  0  0  0
 32 26  1  0  0  0
 26 27  2  0  0  0
 27 28  1  0  0  0
 28 29  2  0  0  0
 29  1  1  0  0  0
  1  2  1  0  0  0
  2  3  2  0  0  0
  2  5  1  0  0  0
  5  6  2  0  0  0
  6  7  1  0  0  0
  7 12  1  0  0  0
 12 13  1  0  0  0
 13 14  2  0  0  0
 13 16  1  0  0  0
 16 17  2  0  0  0
 17 18  1  0  0  0
 18 19  2  0  0  0
 19 20  1  0  0  0
 20 21  2  0  0  0
 20 22  1  0  0  0
 22 23  1  0  0  0
 22 24  1  0  0  0
 22 25  1  0  0  0
  7  8  2  0  0  0
  8  9  1  0  0  0
  9 10  2  0  0  0
 10 11  1  0  0  0
 29 30  1  0  0  0
 30 31  2  0  0  0
 37 38  1  0  0  0
 38 39  2  0  0  0
 46 41  1  0  0  0
 39 34  1  0  0  0
 31 26  1  0  0  0
 10  5  1  0  0  0
 21 16  1  0  0  0
 32 33  1  0  0  0
  1  4  1  0  0  0
 12 15  1  0  0  0
M  END
> <minimizedAffinity>
-7.87755

> <CNNscore>
0.2693176866

> <CNNaffinity>
6.2403745651

> <CNN_VS>
1.6806432009

> <CNNaffinity_variance>
0.0935508758

$$$$
[H]c1nc(N([H])c2c([H])c([H])c(N3C([H])([H])C([H])([H])N(C([H])([H])[H])C([H])([H])C3([H])[H])c([H])c2[H])nc([H])c1N([H])C(=O)c1c([H])c(N([H])C(=O)c2c([H])c([H])c([H])c(C(F)(F)F)c2[H])c([H])c([H])c1C([H])([H])[H]


 46 50  0  0  0  0  0  0  0  0999 V2000
   33.5124  -13.1063   36.5621 N   0  0  0  0  0  0  0  0  0  0  0  0
   32.9640  -12.5713   37.6998 C   0  0  0  0  0  0  0  0  0  0  0  0
   33.2534  -13.0399   38.8274 O   0  0  0  0  0  0  0  0  0  0  0  0
   33.0796  -12.7793   35.6284 H   0  0  0  0  0  0  0  0  0  0  0  0
   32.0342  -11.4224   37.6690 C   0  0  0  0  0  0  0  0  0  0  0  0
   30.6364  -11.6336   37.8029 C   0  0  0  0  0  0  0  0  0  0  0  0
   29.7557  -10.6297   37.7841 C   0  0  0  0  0  0  0  0  0  0  0  0
   30.2385   -9.3074   37.6175 C   0  0  0  0  0  0  0  0  0  0  0  0
   31.5725   -9.1050   37.4907 C   0  0  0  0  0  0  0  0  0  0  0  0
   32.5183  -10.1466   37.5145 C   0  0  0  0  0  0  0  0  0  0  0  0
   33.9511   -9.7434   37.4820 C   0  0  0  0  0  0  0  0  0  0  0  0
   28.3267  -10.7126   38.0215 N   0  0  0  0  0  0  0  0  0  0  0  0
   27.8465   -9.9935   39.1452 C   0  0  0  0  0  0  0  0  0  0  0  0
   28.8086   -9.3960   39.8339 O   0  0  0  0  0  0  0  0  0  0  0  0
   27.7543  -11.2507   37.3962 H   0  0  0  0  0  0  0  0  0  0  0  0
   26.5320   -9.7969   39.6534 C   0  0  0  0  0  0  0  0  0  0  0  0
   25.4255  -10.4253   39.1785 C   0  0  0  0  0  0  0  0  0  0  0  0
   24.1680  -10.1341   39.6783 C   0  0  0  0  0  0  0  0  0  0  0  0
   23.9691   -9.2051   40.6689 C   0  0  0  0  0  0  0  0  0  0  0  0
   25.0676   -8.5513   41.1760 C   0  0  0  0  0  0  0  0  0  0  0  0
   26.3054   -8.8509   40.6729 C   0  0  0  0  0  0  0  0  0  0  0  0
   24.9142   -7.5377   42.2355 C   0  0  0  0  0  0  0  0  0  0  0  0
   23.7689   -6.7960   41.9888 F   0  0  0  0  0  0  0  0  0  0  0  0
   24.9211   -8.0897   43.5133 F   0  0  0  0  0  0  0  0  0  0  0  0
   25.9764   -6.6419   42.1868 F   0  0  0  0  0  0  0  0  0  0  0  0
   36.2083  -16.2580   35.8769 C   0  0  0  0  0  0  0  0  0  0  0  0
   36.6521  -15.0830   36.2907 N   0  0  0  0  0  0  0  0  0  0  0  0
   35.8397  -14.0119   36.5714 C   0  0  0  0  0  0  0  0  0  0  0  0
   34.5040  -14.1143   36.4332 C   0  0  0  0  0  0  0  0  0  0  0  0
   34.0153  -15.3768   35.9921 C   0  0  0  0  0  0  0  0  0  0  0  0
   34.8479  -16.3504   35.7434 N   0  0  0  0  0  0  0  0  0  0  0  0
   37.0089  -17.3498   35.5404 N   0  0  0  0  0  0  0  0  0  0  0  0
   37.3402  -17.3836   34.5082 H   0  0  0  0  0  0  0  0  0  0  0  0
   38.2930  -20.5575   38.0070 C   0  0  0  0  0  0  0  0  0  0  0  0
   39.1635  -19.8976   37.1630 C   0  0  0  0  0  0  0  0  0  0  0  0
   38.7707  -18.8523   36.3520 C   0  0  0  0  0  0  0  0  0  0  0  0
   37.4704  -18.4057   36.3443 C   0  0  0  0  0  0  0  0  0  0  0  0
   36.5677  -19.0711   37.2024 C   0  0  0  0  0  0  0  0  0  0  0  0
   36.9591  -20.1087   38.0068 C   0  0  0  0  0  0  0  0  0  0  0  0
   37.6583  -21.6917   42.0905 C   0  0  0  0  0  0  0  0  0  0  0  0
   38.7116  -22.4508   41.4354 N   0  0  0  0  0  0  0  0  0  0  0  0
   39.7764  -21.6503   40.9624 C   0  0  0  0  0  0  0  0  0  0  0  0
   39.9988  -21.7491   39.4658 C   0  0  0  0  0  0  0  0  0  0  0  0
   38.6784  -21.6196   38.8581 N   0  0  0  0  0  0  0  0  0  0  0  0
   37.7509  -22.7191   39.2018 C   0  0  0  0  0  0  0  0  0  0  0  0
   38.1775  -23.3796   40.4807 C   0  0  0  0  0  0  0  0  0  0  0  0
 40 41  1  0  0  0
 41 42  1  0  0  0
 42 43  1  0  0  0
 43 44  1  0  0  0
 44 45  1  0  0  0
 45 46  1  0  0  0
 44 34  1  0  0  0
 34 35  2  0  0  0
 35 36  1  0  0  0
 36 37  2  0  0  0
 37 32  1  0  0  0
 32 26  1  0  0  0
 26 27  2  0  0  0
 27 28  1  0  0  0
 28 29  2  0  0  0
 29  1  1  0  0  0
  1  2  1  0  0  0
  2  3  2  0  0  0
  2  5  1  0  0  0
  5  6  2  0  0  0
  6  7  1  0  0  0
  7 12  1  0  0  0
 12 13  1  0  0  0
 13 14  2  0  0  0
 13 16  1  0  0  0
 16 17  2  0  0  0
 17 18  1  0  0  0
 18 19  2  0  0  0
 19 20  1  0  0  0
 20 21  2  0  0  0
 20 22  1  0  0  0
 22 23  1  0  0  0
 22 24  1  0  0  0
 22 25  1  0  0  0
  7  8  2  0  0  0
  8  9  1  0  0  0
  9 10  2  0  0  0
 10 11  1  0  0  0
 29 30  1  0  0  0
 30 31  2  0  0  0
 37 38  1  0  0  0
 38 39  2  0  0  0
 46 41  1  0  0  0
 39 34  1  0  0  0
 31 26  1  0  0  0
 10  5  1  0  0  0
 21 16  1  0  0  0
 32 33  1  0  0  0
  1  4  1  0  0  0
 12 15  1  0  0  0
M  END
> <minimizedAffinity>
-10.05993

> <CNNscore>
0.2334785461

> <CNNaffinity>
6.4892411232

> <CNN_VS>
1.5150985718

> <CNNaffinity_variance>
0.0952994153

$$$$
[H]c1nc(N([H])c2c([H])c([H])c(N3C([H])([H])C([H])([H])N(C([H])([H])[H])C([H])([H])C3([H])[H])c([H])c2[H])nc([H])c1N([H])C(=O)c1c([H])c(N([H])C(=O)c2c([H])c([H])c([H])c(C(F)(F)F)c2[H])c([H])c([H])c1C([H])([H])[H]


 46 50  0  0  0  0  0  0  0  0999 V2000
   36.4040  -15.6448   35.8164 N   0  0  0  0  0  0  0  0  0  0  0  0
   36.4474  -16.8892   36.3915 C   0  0  0  0  0  0  0  0  0  0  0  0
   35.7897  -17.1332   37.4319 O   0  0  0  0  0  0  0  0  0  0  0  0
   37.1313  -15.4553   35.0411 H   0  0  0  0  0  0  0  0  0  0  0  0
   37.2388  -18.0003   35.8217 C   0  0  0  0  0  0  0  0  0  0  0  0
   38.4682  -18.3802   36.4223 C   0  0  0  0  0  0  0  0  0  0  0  0
   39.2185  -19.3781   35.9478 C   0  0  0  0  0  0  0  0  0  0  0  0
   38.7701  -20.0760   34.7985 C   0  0  0  0  0  0  0  0  0  0  0  0
   37.5964  -19.7147   34.2253 C   0  0  0  0  0  0  0  0  0  0  0  0
   36.7869  -18.6717   34.7122 C   0  0  0  0  0  0  0  0  0  0  0  0
   35.4729  -18.4812   34.0389 C   0  0  0  0  0  0  0  0  0  0  0  0
   40.4263  -19.9241   36.5382 N   0  0  0  0  0  0  0  0  0  0  0  0
   40.2361  -20.7587   37.6686 C   0  0  0  0  0  0  0  0  0  0  0  0
   38.9665  -20.8614   38.0351 O   0  0  0  0  0  0  0  0  0  0  0  0
   41.3168  -19.7029   36.1305 H   0  0  0  0  0  0  0  0  0  0  0  0
   41.1536  -21.5006   38.4639 C   0  0  0  0  0  0  0  0  0  0  0  0
   41.2745  -21.3758   39.8110 C   0  0  0  0  0  0  0  0  0  0  0  0
   42.2367  -22.0828   40.5111 C   0  0  0  0  0  0  0  0  0  0  0  0
   43.1132  -22.9389   39.8925 C   0  0  0  0  0  0  0  0  0  0  0  0
   43.0179  -23.0926   38.5292 C   0  0  0  0  0  0  0  0  0  0  0  0
   42.0601  -22.3879   37.8502 C   0  0  0  0  0  0  0  0  0  0  0  0
   43.9377  -23.9925   37.8097 C   0  0  0  0  0  0  0  0  0  0  0  0
   44.5524  -23.2866   36.7867 F   0  0  0  0  0  0  0  0  0  0  0  0
   44.8575  -24.6084   38.6535 F   0  0  0  0  0  0  0  0  0  0  0  0
   43.2164  -25.0129   37.2001 F   0  0  0  0  0  0  0  0  0  0  0  0
   33.7175  -12.5942   36.8875 C   0  0  0  0  0  0  0  0  0  0  0  0
   34.9988  -12.4893   37.1975 N   0  0  0  0  0  0  0  0  0  0  0  0
   35.9490  -13.4205   36.8568 C   0  0  0  0  0  0  0  0  0  0  0  0
   35.6055  -14.5236   36.1647 C   0  0  0  0  0  0  0  0  0  0  0  0
   34.2288  -14.6442   35.8222 C   0  0  0  0  0  0  0  0  0  0  0  0
   33.3814  -13.7187   36.1810 N   0  0  0  0  0  0  0  0  0  0  0  0
   32.7215  -11.6901   37.2574 N   0  0  0  0  0  0  0  0  0  0  0  0
   32.9118  -10.6548   36.9957 H   0  0  0  0  0  0  0  0  0  0  0  0
   28.9611  -12.3173   39.1252 C   0  0  0  0  0  0  0  0  0  0  0  0
   30.1007  -12.9698   39.5510 C   0  0  0  0  0  0  0  0  0  0  0  0
   31.3342  -12.7828   38.9608 C   0  0  0  0  0  0  0  0  0  0  0  0
   31.4943  -11.9210   37.9017 C   0  0  0  0  0  0  0  0  0  0  0  0
   30.3374  -11.2460   37.4544 C   0  0  0  0  0  0  0  0  0  0  0  0
   29.1137  -11.4328   38.0412 C   0  0  0  0  0  0  0  0  0  0  0  0
   25.2407  -10.1932   39.2263 C   0  0  0  0  0  0  0  0  0  0  0  0
   25.3351  -11.2441   40.2271 N   0  0  0  0  0  0  0  0  0  0  0  0
   26.4050  -11.0682   41.1341 C   0  0  0  0  0  0  0  0  0  0  0  0
   27.4043  -12.2085   41.1308 C   0  0  0  0  0  0  0  0  0  0  0  0
   27.6913  -12.4820   39.7264 N   0  0  0  0  0  0  0  0  0  0  0  0
   26.5229  -12.9669   38.9602 C   0  0  0  0  0  0  0  0  0  0  0  0
   25.2483  -12.5478   39.6335 C   0  0  0  0  0  0  0  0  0  0  0  0
 40 41  1  0  0  0
 41 42  1  0  0  0
 42 43  1  0  0  0
 43 44  1  0  0  0
 44 45  1  0  0  0
 45 46  1  0  0  0
 44 34  1  0  0  0
 34 35  2  0  0  0
 35 36  1  0  0  0
 36 37  2  0  0  0
 37 32  1  0  0  0
 32 26  1  0  0  0
 26 27  2  0  0  0
 27 28  1  0  0  0
 28 29  2  0  0  0
 29  1  1  0  0  0
  1  2  1  0  0  0
  2  3  2  0  0  0
  2  5  1  0  0  0
  5  6  2  0  0  0
  6  7  1  0  0  0
  7 12  1  0  0  0
 12 13  1  0  0  0
 13 14  2  0  0  0
 13 16  1  0  0  0
 16 17  2  0  0  0
 17 18  1  0  0  0
 18 19  2  0  0  0
 19 20  1  0  0  0
 20 21  2  0  0  0
 20 22  1  0  0  0
 22 23  1  0  0  0
 22 24  1  0  0  0
 22 25  1  0  0  0
  7  8  2  0  0  0
  8  9  1  0  0  0
  9 10  2  0  0  0
 10 11  1  0  0  0
 29 30  1  0  0  0
 30 31  2  0  0  0
 37 38  1  0  0  0
 38 39  2  0  0  0
 46 41  1  0  0  0
 39 34  1  0  0  0
 31 26  1  0  0  0
 10  5  1  0  0  0
 21 16  1  0  0  0
 32 33  1  0  0  0
  1  4  1  0  0  0
 12 15  1  0  0  0
M  END
> <minimizedAffinity>
-8.31359

> <CNNscore>
0.2066511214

> <CNNaffinity>
6.1040501595

> <CNN_VS>
1.2614088058

> <CNNaffinity_variance>
0.2966897488

$$$$
[H]c1nc(N([H])c2c([H])c([H])c(N3C([H])([H])C([H])([H])N(C([H])([H])[H])C([H])([H])C3([H])[H])c([H])c2[H])nc([H])c1N([H])C(=O)c1c([H])c(N([H])C(=O)c2c([H])c([H])c([H])c(C(F)(F)F)c2[H])c([H])c([H])c1C([H])([H])[H]


 46 50  0  0  0  0  0  0  0  0999 V2000
   35.6537  -19.7094   35.5679 N   0  0  0  0  0  0  0  0  0  0  0  0
   36.5497  -18.9402   36.2656 C   0  0  0  0  0  0  0  0  0  0  0  0
   36.1790  -17.8795   36.8243 O   0  0  0  0  0  0  0  0  0  0  0  0
   36.0759  -20.4990   34.9644 H   0  0  0  0  0  0  0  0  0  0  0  0
   37.9716  -19.3161   36.4153 C   0  0  0  0  0  0  0  0  0  0  0  0
   38.9435  -18.7979   35.5189 C   0  0  0  0  0  0  0  0  0  0  0  0
   40.2400  -19.1046   35.6132 C   0  0  0  0  0  0  0  0  0  0  0  0
   40.6550  -19.9852   36.6434 C   0  0  0  0  0  0  0  0  0  0  0  0
   39.7283  -20.4793   37.4999 C   0  0  0  0  0  0  0  0  0  0  0  0
   38.3590  -20.1644   37.4234 C   0  0  0  0  0  0  0  0  0  0  0  0
   37.4934  -20.6961   38.5118 C   0  0  0  0  0  0  0  0  0  0  0  0
   41.3304  -18.5531   34.8307 N   0  0  0  0  0  0  0  0  0  0  0  0
   42.3598  -17.9185   35.5710 C   0  0  0  0  0  0  0  0  0  0  0  0
   42.1245  -17.8893   36.8750 O   0  0  0  0  0  0  0  0  0  0  0  0
   41.3161  -18.6481   33.8312 H   0  0  0  0  0  0  0  0  0  0  0  0
   43.5871  -17.3217   35.1677 C   0  0  0  0  0  0  0  0  0  0  0  0
   44.4224  -17.8450   34.2333 C   0  0  0  0  0  0  0  0  0  0  0  0
   45.6336  -17.2428   33.9395 C   0  0  0  0  0  0  0  0  0  0  0  0
   46.0552  -16.0976   34.5678 C   0  0  0  0  0  0  0  0  0  0  0  0
   45.2332  -15.5378   35.5177 C   0  0  0  0  0  0  0  0  0  0  0  0
   44.0374  -16.1438   35.7966 C   0  0  0  0  0  0  0  0  0  0  0  0
   45.6371  -14.3124   36.2309 C   0  0  0  0  0  0  0  0  0  0  0  0
   46.9609  -14.4345   36.6250 F   0  0  0  0  0  0  0  0  0  0  0  0
   45.4116  -13.1578   35.4870 F   0  0  0  0  0  0  0  0  0  0  0  0
   44.8937  -14.1811   37.3985 F   0  0  0  0  0  0  0  0  0  0  0  0
   31.4567  -19.6380   35.3432 C   0  0  0  0  0  0  0  0  0  0  0  0
   32.1297  -18.5177   35.5451 N   0  0  0  0  0  0  0  0  0  0  0  0
   33.5002  -18.4452   35.5975 C   0  0  0  0  0  0  0  0  0  0  0  0
   34.2484  -19.5537   35.4388 C   0  0  0  0  0  0  0  0  0  0  0  0
   33.5335  -20.7648   35.2166 C   0  0  0  0  0  0  0  0  0  0  0  0
   32.2290  -20.7578   35.1801 N   0  0  0  0  0  0  0  0  0  0  0  0
   30.0664  -19.7526   35.3298 N   0  0  0  0  0  0  0  0  0  0  0  0
   29.5382  -18.9535   34.8210 H   0  0  0  0  0  0  0  0  0  0  0  0
   27.5443  -22.7239   37.0129 C   0  0  0  0  0  0  0  0  0  0  0  0
   28.2799  -22.9595   35.8689 C   0  0  0  0  0  0  0  0  0  0  0  0
   29.1068  -22.0106   35.3027 C   0  0  0  0  0  0  0  0  0  0  0  0
   29.2440  -20.7611   35.8597 C   0  0  0  0  0  0  0  0  0  0  0  0
   28.4974  -20.5047   37.0306 C   0  0  0  0  0  0  0  0  0  0  0  0
   27.6770  -21.4477   37.5913 C   0  0  0  0  0  0  0  0  0  0  0  0
   24.4446  -25.4077   35.7668 C   0  0  0  0  0  0  0  0  0  0  0  0
   24.5386  -25.2617   37.2106 N   0  0  0  0  0  0  0  0  0  0  0  0
   24.3438  -23.9355   37.6597 C   0  0  0  0  0  0  0  0  0  0  0  0
   25.5267  -23.3660   38.4183 C   0  0  0  0  0  0  0  0  0  0  0  0
   26.7042  -23.6875   37.6185 N   0  0  0  0  0  0  0  0  0  0  0  0
   26.9652  -25.1379   37.4937 C   0  0  0  0  0  0  0  0  0  0  0  0
   25.7040  -25.9163   37.7327 C   0  0  0  0  0  0  0  0  0  0  0  0
 40 41  1  0  0  0
 41 42  1  0  0  0
 42 43  1  0  0  0
 43 44  1  0  0  0
 44 45  1  0  0  0
 45 46  1  0  0  0
 44 34  1  0  0  0
 34 35  2  0  0  0
 35 36  1  0  0  0
 36 37  2  0  0  0
 37 32  1  0  0  0
 32 26  1  0  0  0
 26 27  2  0  0  0
 27 28  1  0  0  0
 28 29  2  0  0  0
 29  1  1  0  0  0
  1  2  1  0  0  0
  2  3  2  0  0  0
  2  5  1  0  0  0
  5  6  2  0  0  0
  6  7  1  0  0  0
  7 12  1  0  0  0
 12 13  1  0  0  0
 13 14  2  0  0  0
 13 16  1  0  0  0
 16 17  2  0  0  0
 17 18  1  0  0  0
 18 19  2  0  0  0
 19 20  1  0  0  0
 20 21  2  0  0  0
 20 22  1  0  0  0
 22 23  1  0  0  0
 22 24  1  0  0  0
 22 25  1  0  0  0
  7  8  2  0  0  0
  8  9  1  0  0  0
  9 10  2  0  0  0
 10 11  1  0  0  0
 29 30  1  0  0  0
 30 31  2  0  0  0
 37 38  1  0  0  0
 38 39  2  0  0  0
 46 41  1  0  0  0
 39 34  1  0  0  0
 31 26  1  0  0  0
 10  5  1  0  0  0
 21 16  1  0  0  0
 32 33  1  0  0  0
  1  4  1  0  0  0
 12 15  1  0  0  0
M  END
> <minimizedAffinity>
-7.31673

> <CNNscore>
0.2044013441

> <CNNaffinity>
5.1048498154

> <CNN_VS>
1.0434381962

> <CNNaffinity_variance>
0.2699266672

$$$$
[H]c1nc(N([H])c2c([H])c([H])c(N3C([H])([H])C([H])([H])N(C([H])([H])[H])C([H])([H])C3([H])[H])c([H])c2[H])nc([H])c1N([H])C(=O)c1c([H])c(N([H])C(=O)c2c([H])c([H])c([H])c(C(F)(F)F)c2[H])c([H])c([H])c1C([H])([H])[H]


 46 50  0  0  0  0  0  0  0  0999 V2000
   35.3901  -20.0929   35.8334 N   0  0  0  0  0  0  0  0  0  0  0  0
   36.1425  -19.4320   36.7706 C   0  0  0  0  0  0  0  0  0  0  0  0
   35.6229  -18.5525   37.4994 O   0  0  0  0  0  0  0  0  0  0  0  0
   35.9383  -20.6950   35.1242 H   0  0  0  0  0  0  0  0  0  0  0  0
   37.5754  -19.7232   36.9879 C   0  0  0  0  0  0  0  0  0  0  0  0
   38.5653  -19.0115   36.2599 C   0  0  0  0  0  0  0  0  0  0  0  0
   39.8720  -19.2353   36.4216 C   0  0  0  0  0  0  0  0  0  0  0  0
   40.2805  -20.2253   37.3502 C   0  0  0  0  0  0  0  0  0  0  0  0
   39.3364  -20.9042   38.0461 C   0  0  0  0  0  0  0  0  0  0  0  0
   37.9552  -20.6801   37.8969 C   0  0  0  0  0  0  0  0  0  0  0  0
   37.0577  -21.4256   38.8216 C   0  0  0  0  0  0  0  0  0  0  0  0
   40.9685  -18.4989   35.8208 N   0  0  0  0  0  0  0  0  0  0  0  0
   42.0468  -18.1852   36.6863 C   0  0  0  0  0  0  0  0  0  0  0  0
   41.8465  -18.5798   37.9356 O   0  0  0  0  0  0  0  0  0  0  0  0
   40.9241  -18.2574   34.8471 H   0  0  0  0  0  0  0  0  0  0  0  0
   43.2917  -17.5368   36.4526 C   0  0  0  0  0  0  0  0  0  0  0  0
   43.5287  -16.2223   36.6994 C   0  0  0  0  0  0  0  0  0  0  0  0
   44.7460  -15.6438   36.3843 C   0  0  0  0  0  0  0  0  0  0  0  0
   45.7702  -16.3554   35.8112 C   0  0  0  0  0  0  0  0  0  0  0  0
   45.5668  -17.6903   35.5500 C   0  0  0  0  0  0  0  0  0  0  0  0
   44.3580  -18.2491   35.8686 C   0  0  0  0  0  0  0  0  0  0  0  0
   46.6281  -18.5030   34.9281 C   0  0  0  0  0  0  0  0  0  0  0  0
   46.3319  -19.8458   35.1064 F   0  0  0  0  0  0  0  0  0  0  0  0
   46.8379  -18.1813   33.5903 F   0  0  0  0  0  0  0  0  0  0  0  0
   47.8349  -18.2802   35.5815 F   0  0  0  0  0  0  0  0  0  0  0  0
   31.1998  -20.0236   35.5060 C   0  0  0  0  0  0  0  0  0  0  0  0
   31.9318  -19.1414   34.8466 N   0  0  0  0  0  0  0  0  0  0  0  0
   33.3046  -19.1139   34.8693 C   0  0  0  0  0  0  0  0  0  0  0  0
   33.9931  -20.0191   35.5909 C   0  0  0  0  0  0  0  0  0  0  0  0
   33.2144  -20.9762   36.3014 C   0  0  0  0  0  0  0  0  0  0  0  0
   31.9116  -20.9407   36.2334 N   0  0  0  0  0  0  0  0  0  0  0  0
   29.8054  -20.0503   35.5401 N   0  0  0  0  0  0  0  0  0  0  0  0
   29.3119  -19.2021   35.0782 H   0  0  0  0  0  0  0  0  0  0  0  0
   27.1522  -22.9135   37.2091 C   0  0  0  0  0  0  0  0  0  0  0  0
   27.8978  -23.1867   36.0799 C   0  0  0  0  0  0  0  0  0  0  0  0
   28.7670  -22.2733   35.5186 C   0  0  0  0  0  0  0  0  0  0  0  0
   28.9391  -21.0238   36.0657 C   0  0  0  0  0  0  0  0  0  0  0  0
   28.1829  -20.7292   37.2213 C   0  0  0  0  0  0  0  0  0  0  0  0
   27.3204  -21.6369   37.7772 C   0  0  0  0  0  0  0  0  0  0  0  0
   26.0801  -24.1003   41.1848 C   0  0  0  0  0  0  0  0  0  0  0  0
   25.5947  -25.0088   40.1583 N   0  0  0  0  0  0  0  0  0  0  0  0
   26.6239  -25.5855   39.3795 C   0  0  0  0  0  0  0  0  0  0  0  0
   26.5183  -25.2757   37.8990 C   0  0  0  0  0  0  0  0  0  0  0  0
   26.2687  -23.8407   37.8097 N   0  0  0  0  0  0  0  0  0  0  0  0
   24.9814  -23.4190   38.4033 C   0  0  0  0  0  0  0  0  0  0  0  0
   24.5155  -24.4311   39.4093 C   0  0  0  0  0  0  0  0  0  0  0  0
 40 41  1  0  0  0
 41 42  1  0  0  0
 42 43  1  0  0  0
 43 44  1  0  0  0
 44 45  1  0  0  0
 45 46  1  0  0  0
 44 34  1  0  0  0
 34 35  2  0  0  0
 35 36  1  0  0  0
 36 37  2  0  0  0
 37 32  1  0  0  0
 32 26  1  0  0  0
 26 27  2  0  0  0
 27 28  1  0  0  0
 28 29  2  0  0  0
 29  1  1  0  0  0
  1  2  1  0  0  0
  2  3  2  0  0  0
  2  5  1  0  0  0
  5  6  2  0  0  0
  6  7  1  0  0  0
  7 12  1  0  0  0
 12 13  1  0  0  0
 13 14  2  0  0  0
 13 16  1  0  0  0
 16 17  2  0  0  0
 17 18  1  0  0  0
 18 19  2  0  0  0
 19 20  1  0  0  0
 20 21  2  0  0  0
 20 22  1  0  0  0
 22 23  1  0  0  0
 22 24  1  0  0  0
 22 25  1  0  0  0
  7  8  2  0  0  0
  8  9  1  0  0  0
  9 10  2  0  0  0
 10 11  1  0  0  0
 29 30  1  0  0  0
 30 31  2  0  0  0
 37 38  1  0  0  0
 38 39  2  0  0  0
 46 41  1  0  0  0
 39 34  1  0  0  0
 31 26  1  0  0  0
 10  5  1  0  0  0
 21 16  1  0  0  0
 32 33  1  0  0  0
  1  4  1  0  0  0
 12 15  1  0  0  0
M  END
> <minimizedAffinity>
-7.15830

> <CNNscore>
0.2009188980

> <CNNaffinity>
4.9821300507

> <CNN_VS>
1.0010040998

> <CNNaffinity_variance>
0.4545059204

$$$$
[H]c1nc(N([H])c2c([H])c([H])c(N3C([H])([H])C([H])([H])N(C([H])([H])[H])C([H])([H])C3([H])[H])c([H])c2[H])nc([H])c1N([H])C(=O)c1c([H])c(N([H])C(=O)c2c([H])c([H])c([H])c(C(F)(F)F)c2[H])c([H])c([H])c1C([H])([H])[H]


 46 50  0  0  0  0  0  0  0  0999 V2000
   38.7735  -18.3042   36.0469 N   0  0  0  0  0  0  0  0  0  0  0  0
   39.7519  -19.2609   36.1387 C   0  0  0  0  0  0  0  0  0  0  0  0
   39.4987  -20.4591   35.8648 O   0  0  0  0  0  0  0  0  0  0  0  0
   39.0114  -17.3406   36.4722 H   0  0  0  0  0  0  0  0  0  0  0  0
   41.1392  -18.9426   36.5382 C   0  0  0  0  0  0  0  0  0  0  0  0
   41.5091  -18.9676   37.9090 C   0  0  0  0  0  0  0  0  0  0  0  0
   42.7490  -18.6905   38.3209 C   0  0  0  0  0  0  0  0  0  0  0  0
   43.7261  -18.3531   37.3511 C   0  0  0  0  0  0  0  0  0  0  0  0
   43.3740  -18.3301   36.0426 C   0  0  0  0  0  0  0  0  0  0  0  0
   42.0762  -18.6251   35.5858 C   0  0  0  0  0  0  0  0  0  0  0  0
   41.8860  -18.6707   34.1099 C   0  0  0  0  0  0  0  0  0  0  0  0
   43.2670  -18.7922   39.6726 N   0  0  0  0  0  0  0  0  0  0  0  0
   43.2673  -20.0935   40.2354 C   0  0  0  0  0  0  0  0  0  0  0  0
   42.7371  -21.0089   39.4369 O   0  0  0  0  0  0  0  0  0  0  0  0
   43.6008  -17.9659   40.1352 H   0  0  0  0  0  0  0  0  0  0  0  0
   43.7360  -20.5850   41.4859 C   0  0  0  0  0  0  0  0  0  0  0  0
   44.6374  -21.5916   41.6238 C   0  0  0  0  0  0  0  0  0  0  0  0
   44.9971  -22.0628   42.8746 C   0  0  0  0  0  0  0  0  0  0  0  0
   44.4701  -21.5474   44.0324 C   0  0  0  0  0  0  0  0  0  0  0  0
   43.5564  -20.5246   43.9310 C   0  0  0  0  0  0  0  0  0  0  0  0
   43.2114  -20.0678   42.6871 C   0  0  0  0  0  0  0  0  0  0  0  0
   42.9509  -19.9371   45.1401 C   0  0  0  0  0  0  0  0  0  0  0  0
   41.5987  -19.7302   44.9133 F   0  0  0  0  0  0  0  0  0  0  0  0
   43.1849  -20.6970   46.2825 F   0  0  0  0  0  0  0  0  0  0  0  0
   43.5019  -18.6834   45.3803 F   0  0  0  0  0  0  0  0  0  0  0  0
   34.7227  -18.4005   34.9277 C   0  0  0  0  0  0  0  0  0  0  0  0
   35.6675  -18.5447   34.0137 N   0  0  0  0  0  0  0  0  0  0  0  0
   37.0115  -18.5603   34.2957 C   0  0  0  0  0  0  0  0  0  0  0  0
   37.4438  -18.4252   35.5641 C   0  0  0  0  0  0  0  0  0  0  0  0
   36.4342  -18.2734   36.5566 C   0  0  0  0  0  0  0  0  0  0  0  0
   35.1750  -18.2672   36.2140 N   0  0  0  0  0  0  0  0  0  0  0  0
   33.3534  -18.3349   34.6691 N   0  0  0  0  0  0  0  0  0  0  0  0
   33.0395  -17.5197   34.0262 H   0  0  0  0  0  0  0  0  0  0  0  0
   30.1470  -20.8273   35.9060 C   0  0  0  0  0  0  0  0  0  0  0  0
   31.4505  -21.0810   36.2831 C   0  0  0  0  0  0  0  0  0  0  0  0
   32.5096  -20.2860   35.8945 C   0  0  0  0  0  0  0  0  0  0  0  0
   32.3173  -19.1807   35.0999 C   0  0  0  0  0  0  0  0  0  0  0  0
   30.9891  -18.9080   34.7056 C   0  0  0  0  0  0  0  0  0  0  0  0
   29.9388  -19.6982   35.0920 C   0  0  0  0  0  0  0  0  0  0  0  0
   29.1626  -23.3966   39.1914 C   0  0  0  0  0  0  0  0  0  0  0  0
   28.2428  -23.5108   38.0708 N   0  0  0  0  0  0  0  0  0  0  0  0
   28.8632  -23.9186   36.8679 C   0  0  0  0  0  0  0  0  0  0  0  0
   28.7175  -22.9213   35.7351 C   0  0  0  0  0  0  0  0  0  0  0  0
   29.0455  -21.6193   36.3066 N   0  0  0  0  0  0  0  0  0  0  0  0
   28.1072  -21.1742   37.3596 C   0  0  0  0  0  0  0  0  0  0  0  0
   27.3999  -22.3546   37.9596 C   0  0  0  0  0  0  0  0  0  0  0  0
 40 41  1  0  0  0
 41 42  1  0  0  0
 42 43  1  0  0  0
 43 44  1  0  0  0
 44 45  1  0  0  0
 45 46  1  0  0  0
 44 34  1  0  0  0
 34 35  2  0  0  0
 35 36  1  0  0  0
 36 37  2  0  0  0
 37 32  1  0  0  0
 32 26  1  0  0  0
 26 27  2  0  0  0
 27 28  1  0  0  0
 28 29  2  0  0  0
 29  1  1  0  0  0
  1  2  1  0  0  0
  2  3  2  0  0  0
  2  5  1  0  0  0
  5  6  2  0  0  0
  6  7  1  0  0  0
  7 12  1  0  0  0
 12 13  1  0  0  0
 13 14  2  0  0  0
 13 16  1  0  0  0
 16 17  2  0  0  0
 17 18  1  0  0  0
 18 19  2  0  0  0
 19 20  1  0  0  0
 20 21  2  0  0  0
 20 22  1  0  0  0
 22 23  1  0  0  0
 22 24  1  0  0  0
 22 25  1  0  0  0
  7  8  2  0  0  0
  8  9  1  0  0  0
  9 10  2  0  0  0
 10 11  1  0  0  0
 29 30  1  0  0  0
 30 31  2  0  0  0
 37 38  1  0  0  0
 38 39  2  0  0  0
 46 41  1  0  0  0
 39 34  1  0  0  0
 31 26  1  0  0  0
 10  5  1  0  0  0
 21 16  1  0  0  0
 32 33  1  0  0  0
  1  4  1  0  0  0
 12 15  1  0  0  0
M  END
> <minimizedAffinity>
-7.11753

> <CNNscore>
0.1907211840

> <CNNaffinity>
5.3670148849

> <CNN_VS>
1.0236034393

> <CNNaffinity_variance>
0.2309238166

$$$$
[H]c1nc(N([H])c2c([H])c([H])c(N3C([H])([H])C([H])([H])N(C([H])([H])[H])C([H])([H])C3([H])[H])c([H])c2[H])nc([H])c1N([H])C(=O)c1c([H])c(N([H])C(=O)c2c([H])c([H])c([H])c(C(F)(F)F)c2[H])c([H])c([H])c1C([H])([H])[H]


 46 50  0  0  0  0  0  0  0  0999 V2000
   36.2103  -16.6511   36.0210 N   0  0  0  0  0  0  0  0  0  0  0  0
   36.0132  -15.8652   37.1276 C   0  0  0  0  0  0  0  0  0  0  0  0
   36.3595  -16.2679   38.2645 O   0  0  0  0  0  0  0  0  0  0  0  0
   35.7242  -16.3234   35.1142 H   0  0  0  0  0  0  0  0  0  0  0  0
   35.4120  -14.5171   37.0475 C   0  0  0  0  0  0  0  0  0  0  0  0
   34.0003  -14.3645   37.0666 C   0  0  0  0  0  0  0  0  0  0  0  0
   33.4085  -13.1691   36.9994 C   0  0  0  0  0  0  0  0  0  0  0  0
   34.2237  -12.0138   36.8987 C   0  0  0  0  0  0  0  0  0  0  0  0
   35.5710  -12.1586   36.8815 C   0  0  0  0  0  0  0  0  0  0  0  0
   36.2156  -13.4070   36.9581 C   0  0  0  0  0  0  0  0  0  0  0  0
   37.7015  -13.3829   37.0468 C   0  0  0  0  0  0  0  0  0  0  0  0
   31.9910  -12.8845   37.1218 N   0  0  0  0  0  0  0  0  0  0  0  0
   31.5042  -12.7399   38.4456 C   0  0  0  0  0  0  0  0  0  0  0  0
   32.4326  -12.9433   39.3694 O   0  0  0  0  0  0  0  0  0  0  0  0
   31.4332  -12.7960   36.2915 H   0  0  0  0  0  0  0  0  0  0  0  0
   30.2147  -12.4128   38.9507 C   0  0  0  0  0  0  0  0  0  0  0  0
   29.2512  -13.3257   39.2395 C   0  0  0  0  0  0  0  0  0  0  0  0
   27.9952  -12.9292   39.6649 C   0  0  0  0  0  0  0  0  0  0  0  0
   27.6548  -11.6082   39.8166 C   0  0  0  0  0  0  0  0  0  0  0  0
   28.6067  -10.6561   39.5361 C   0  0  0  0  0  0  0  0  0  0  0  0
   29.8453  -11.0633   39.1178 C   0  0  0  0  0  0  0  0  0  0  0  0
   28.2958   -9.2215   39.6733 C   0  0  0  0  0  0  0  0  0  0  0  0
   27.0702   -8.9658   39.0774 F   0  0  0  0  0  0  0  0  0  0  0  0
   28.3425   -8.7848   40.9941 F   0  0  0  0  0  0  0  0  0  0  0  0
   29.2331   -8.4683   38.9752 F   0  0  0  0  0  0  0  0  0  0  0  0
   37.8105  -20.5267   35.7208 C   0  0  0  0  0  0  0  0  0  0  0  0
   38.4326  -19.5061   35.1549 N   0  0  0  0  0  0  0  0  0  0  0  0
   37.9992  -18.2052   35.2326 C   0  0  0  0  0  0  0  0  0  0  0  0
   36.8793  -17.8990   35.9152 C   0  0  0  0  0  0  0  0  0  0  0  0
   36.2041  -18.9903   36.5319 C   0  0  0  0  0  0  0  0  0  0  0  0
   36.6748  -20.2019   36.4147 N   0  0  0  0  0  0  0  0  0  0  0  0
   38.1989  -21.8630   35.6227 N   0  0  0  0  0  0  0  0  0  0  0  0
   37.5505  -22.5743   36.1228 H   0  0  0  0  0  0  0  0  0  0  0  0
   41.4392  -23.6520   33.5435 C   0  0  0  0  0  0  0  0  0  0  0  0
   41.6302  -22.6031   34.4204 C   0  0  0  0  0  0  0  0  0  0  0  0
   40.5938  -22.0052   35.1082 C   0  0  0  0  0  0  0  0  0  0  0  0
   39.2960  -22.4319   34.9540 C   0  0  0  0  0  0  0  0  0  0  0  0
   39.0844  -23.5041   34.0598 C   0  0  0  0  0  0  0  0  0  0  0  0
   40.1142  -24.0966   33.3777 C   0  0  0  0  0  0  0  0  0  0  0  0
   41.8183  -26.7376   30.5940 C   0  0  0  0  0  0  0  0  0  0  0  0
   43.0800  -26.3772   31.2209 N   0  0  0  0  0  0  0  0  0  0  0  0
   43.0938  -26.5743   32.6207 C   0  0  0  0  0  0  0  0  0  0  0  0
   43.3604  -25.3102   33.4144 C   0  0  0  0  0  0  0  0  0  0  0  0
   42.4889  -24.2896   32.8416 N   0  0  0  0  0  0  0  0  0  0  0  0
   42.8013  -23.9564   31.4349 C   0  0  0  0  0  0  0  0  0  0  0  0
   43.5386  -25.0899   30.7828 C   0  0  0  0  0  0  0  0  0  0  0  0
 40 41  1  0  0  0
 41 42  1  0  0  0
 42 43  1  0  0  0
 43 44  1  0  0  0
 44 45  1  0  0  0
 45 46  1  0  0  0
 44 34  1  0  0  0
 34 35  2  0  0  0
 35 36  1  0  0  0
 36 37  2  0  0  0
 37 32  1  0  0  0
 32 26  1  0  0  0
 26 27  2  0  0  0
 27 28  1  0  0  0
 28 29  2  0  0  0
 29  1  1  0  0  0
  1  2  1  0  0  0
  2  3  2  0  0  0
  2  5  1  0  0  0
  5  6  2  0  0  0
  6  7  1  0  0  0
  7 12  1  0  0  0
 12 13  1  0  0  0
 13 14  2  0  0  0
 13 16  1  0  0  0
 16 17  2  0  0  0
 17 18  1  0  0  0
 18 19  2  0  0  0
 19 20  1  0  0  0
 20 21  2  0  0  0
 20 22  1  0  0  0
 22 23  1  0  0  0
 22 24  1  0  0  0
 22 25  1  0  0  0
  7  8  2  0  0  0
  8  9  1  0  0  0
  9 10  2  0  0  0
 10 11  1  0  0  0
 29 30  1  0  0  0
 30 31  2  0  0  0
 37 38  1  0  0  0
 38 39  2  0  0  0
 46 41  1  0  0  0
 39 34  1  0  0  0
 31 26  1  0  0  0
 10  5  1  0  0  0
 21 16  1  0  0  0
 32 33  1  0  0  0
  1  4  1  0  0  0
 12 15  1  0  0  0
M  END
> <minimizedAffinity>
-8.04696

> <CNNscore>
0.1597435027

> <CNNaffinity>
5.8758077621

> <CNN_VS>
0.9386221170

> <CNNaffinity_variance>
0.0652929470

$$$$
[H]c1nc(N([H])c2c([H])c([H])c(N3C([H])([H])C([H])([H])N(C([H])([H])[H])C([H])([H])C3([H])[H])c([H])c2[H])nc([H])c1N([H])C(=O)c1c([H])c(N([H])C(=O)c2c([H])c([H])c([H])c(C(F)(F)F)c2[H])c([H])c([H])c1C([H])([H])[H]


 46 50  0  0  0  0  0  0  0  0999 V2000
   30.3697  -15.8159   43.6820 N   0  0  0  0  0  0  0  0  0  0  0  0
   30.0475  -17.0952   44.0573 C   0  0  0  0  0  0  0  0  0  0  0  0
   28.8482  -17.4608   44.1087 O   0  0  0  0  0  0  0  0  0  0  0  0
   31.3963  -15.5202   43.8390 H   0  0  0  0  0  0  0  0  0  0  0  0
   31.0721  -18.1050   44.3974 C   0  0  0  0  0  0  0  0  0  0  0  0
   31.6113  -18.9417   43.3846 C   0  0  0  0  0  0  0  0  0  0  0  0
   32.5401  -19.8669   43.6397 C   0  0  0  0  0  0  0  0  0  0  0  0
   32.9963  -20.0199   44.9730 C   0  0  0  0  0  0  0  0  0  0  0  0
   32.4830  -19.2211   45.9399 C   0  0  0  0  0  0  0  0  0  0  0  0
   31.5094  -18.2357   45.6927 C   0  0  0  0  0  0  0  0  0  0  0  0
   31.1392  -17.3647   46.8420 C   0  0  0  0  0  0  0  0  0  0  0  0
   33.2396  -20.6960   42.6759 N   0  0  0  0  0  0  0  0  0  0  0  0
   34.3012  -20.0665   41.9780 C   0  0  0  0  0  0  0  0  0  0  0  0
   34.4472  -18.7871   42.2916 O   0  0  0  0  0  0  0  0  0  0  0  0
   32.9581  -21.6520   42.5531 H   0  0  0  0  0  0  0  0  0  0  0  0
   35.2292  -20.5605   41.0190 C   0  0  0  0  0  0  0  0  0  0  0  0
   36.2099  -21.4589   41.2944 C   0  0  0  0  0  0  0  0  0  0  0  0
   37.1196  -21.8440   40.3248 C   0  0  0  0  0  0  0  0  0  0  0  0
   37.0841  -21.3463   39.0462 C   0  0  0  0  0  0  0  0  0  0  0  0
   36.1022  -20.4365   38.7306 C   0  0  0  0  0  0  0  0  0  0  0  0
   35.2084  -20.0662   39.6996 C   0  0  0  0  0  0  0  0  0  0  0  0
   36.0197  -19.8620   37.3754 C   0  0  0  0  0  0  0  0  0  0  0  0
   37.2994  -19.5640   36.9323 F   0  0  0  0  0  0  0  0  0  0  0  0
   35.3295  -20.6797   36.4854 F   0  0  0  0  0  0  0  0  0  0  0  0
   35.3312  -18.6548   37.4174 F   0  0  0  0  0  0  0  0  0  0  0  0
   27.8479  -12.9528   41.9172 C   0  0  0  0  0  0  0  0  0  0  0  0
   27.7766  -13.1894   43.2164 N   0  0  0  0  0  0  0  0  0  0  0  0
   28.5845  -14.0806   43.8791 C   0  0  0  0  0  0  0  0  0  0  0  0
   29.5216  -14.7795   43.2103 C   0  0  0  0  0  0  0  0  0  0  0  0
   29.6094  -14.5291   41.8114 C   0  0  0  0  0  0  0  0  0  0  0  0
   28.8069  -13.6674   41.2489 N   0  0  0  0  0  0  0  0  0  0  0  0
   27.0132  -12.0892   41.2076 N   0  0  0  0  0  0  0  0  0  0  0  0
   26.6251  -12.4799   40.2732 H   0  0  0  0  0  0  0  0  0  0  0  0
   25.8160   -8.1425   42.2143 C   0  0  0  0  0  0  0  0  0  0  0  0
   24.9274   -9.0584   41.6879 C   0  0  0  0  0  0  0  0  0  0  0  0
   25.2919  -10.3467   41.3530 C   0  0  0  0  0  0  0  0  0  0  0  0
   26.5803  -10.7922   41.5312 C   0  0  0  0  0  0  0  0  0  0  0  0
   27.5013   -9.8665   42.0687 C   0  0  0  0  0  0  0  0  0  0  0  0
   27.1380   -8.5880   42.4005 C   0  0  0  0  0  0  0  0  0  0  0  0
   25.6849   -5.8107   45.8073 C   0  0  0  0  0  0  0  0  0  0  0  0
   24.9867   -5.1940   44.6906 N   0  0  0  0  0  0  0  0  0  0  0  0
   23.9261   -5.9785   44.1827 C   0  0  0  0  0  0  0  0  0  0  0  0
   24.0858   -6.3519   42.7218 C   0  0  0  0  0  0  0  0  0  0  0  0
   25.4595   -6.8233   42.5796 N   0  0  0  0  0  0  0  0  0  0  0  0
   26.4790   -5.7851   42.8446 C   0  0  0  0  0  0  0  0  0  0  0  0
   25.9032   -4.6974   43.7043 C   0  0  0  0  0  0  0  0  0  0  0  0
 40 41  1  0  0  0
 41 42  1  0  0  0
 42 43  1  0  0  0
 43 44  1  0  0  0
 44 45  1  0  0  0
 45 46  1  0  0  0
 44 34  1  0  0  0
 34 35  2  0  0  0
 35 36  1  0  0  0
 36 37  2  0  0  0
 37 32  1  0  0  0
 32 26  1  0  0  0
 26 27  2  0  0  0
 27 28  1  0  0  0
 28 29  2  0  0  0
 29  1  1  0  0  0
  1  2  1  0  0  0
  2  3  2  0  0  0
  2  5  1  0  0  0
  5  6  2  0  0  0
  6  7  1  0  0  0
  7 12  1  0  0  0
 12 13  1  0  0  0
 13 14  2  0  0  0
 13 16  1  0  0  0
 16 17  2  0  0  0
 17 18  1  0  0  0
 18 19  2  0  0  0
 19 20  1  0  0  0
 20 21  2  0  0  0
 20 22  1  0  0  0
 22 23  1  0  0  0
 22 24  1  0  0  0
 22 25  1  0  0  0
  7  8  2  0  0  0
  8  9  1  0  0  0
  9 10  2  0  0  0
 10 11  1  0  0  0
 29 30  1  0  0  0
 30 31  2  0  0  0
 37 38  1  0  0  0
 38 39  2  0  0  0
 46 41  1  0  0  0
 39 34  1  0  0  0
 31 26  1  0  0  0
 10  5  1  0  0  0
 21 16  1  0  0  0
 32 33  1  0  0  0
  1  4  1  0  0  0
 12 15  1  0  0  0
M  END
> <minimizedAffinity>
-6.48696

> <CNNscore>
0.1539346278

> <CNNaffinity>
5.3681316376

> <CNN_VS>
0.8263413310

> <CNNaffinity_variance>
0.1920364052

$$$$
[H]c1nc(N([H])c2c([H])c([H])c(N3C([H])([H])C([H])([H])N(C([H])([H])[H])C([H])([H])C3([H])[H])c([H])c2[H])nc([H])c1N([H])C(=O)c1c([H])c(N([H])C(=O)c2c([H])c([H])c([H])c(C(F)(F)F)c2[H])c([H])c([H])c1C([H])([H])[H]


 46 50  0  0  0  0  0  0  0  0999 V2000
   36.5778  -16.6814   35.5228 N   0  0  0  0  0  0  0  0  0  0  0  0
   36.0849  -16.1350   36.6803 C   0  0  0  0  0  0  0  0  0  0  0  0
   36.0401  -16.8123   37.7357 O   0  0  0  0  0  0  0  0  0  0  0  0
   36.4145  -16.1094   34.6216 H   0  0  0  0  0  0  0  0  0  0  0  0
   35.6053  -14.7388   36.7581 C   0  0  0  0  0  0  0  0  0  0  0  0
   34.2245  -14.4500   36.5958 C   0  0  0  0  0  0  0  0  0  0  0  0
   33.7408  -13.2066   36.6599 C   0  0  0  0  0  0  0  0  0  0  0  0
   34.6440  -12.1391   36.8918 C   0  0  0  0  0  0  0  0  0  0  0  0
   35.9618  -12.4140   37.0478 C   0  0  0  0  0  0  0  0  0  0  0  0
   36.4920  -13.7163   36.9911 C   0  0  0  0  0  0  0  0  0  0  0  0
   37.9412  -13.8574   37.3011 C   0  0  0  0  0  0  0  0  0  0  0  0
   32.3470  -12.8051   36.6212 N   0  0  0  0  0  0  0  0  0  0  0  0
   31.7373  -12.5755   37.8805 C   0  0  0  0  0  0  0  0  0  0  0  0
   32.5431  -12.8202   38.9041 O   0  0  0  0  0  0  0  0  0  0  0  0
   31.8892  -12.7013   35.7336 H   0  0  0  0  0  0  0  0  0  0  0  0
   30.4337  -12.1284   38.2348 C   0  0  0  0  0  0  0  0  0  0  0  0
   29.8307  -11.0315   37.7074 C   0  0  0  0  0  0  0  0  0  0  0  0
   28.5858  -10.6181   38.1494 C   0  0  0  0  0  0  0  0  0  0  0  0
   27.8983  -11.2834   39.1335 C   0  0  0  0  0  0  0  0  0  0  0  0
   28.4773  -12.4007   39.6883 C   0  0  0  0  0  0  0  0  0  0  0  0
   29.7084  -12.7986   39.2400 C   0  0  0  0  0  0  0  0  0  0  0  0
   27.7892  -13.1510   40.7547 C   0  0  0  0  0  0  0  0  0  0  0  0
   28.7366  -13.6879   41.6130 F   0  0  0  0  0  0  0  0  0  0  0  0
   26.8417  -12.3841   41.4266 F   0  0  0  0  0  0  0  0  0  0  0  0
   27.1058  -14.2298   40.2048 F   0  0  0  0  0  0  0  0  0  0  0  0
   38.3642  -20.3468   34.5009 C   0  0  0  0  0  0  0  0  0  0  0  0
   38.6515  -19.7671   35.6542 N   0  0  0  0  0  0  0  0  0  0  0  0
   38.0889  -18.5895   36.0819 C   0  0  0  0  0  0  0  0  0  0  0  0
   37.1844  -17.9485   35.3171 C   0  0  0  0  0  0  0  0  0  0  0  0
   36.8648  -18.5666   34.0748 C   0  0  0  0  0  0  0  0  0  0  0  0
   37.4407  -19.6869   33.7337 N   0  0  0  0  0  0  0  0  0  0  0  0
   38.9506  -21.5169   34.0180 N   0  0  0  0  0  0  0  0  0  0  0  0
   38.3699  -22.0582   33.2790 H   0  0  0  0  0  0  0  0  0  0  0  0
   42.7608  -23.1554   34.9243 C   0  0  0  0  0  0  0  0  0  0  0  0
   41.5934  -23.8417   35.1920 C   0  0  0  0  0  0  0  0  0  0  0  0
   40.3433  -23.3310   34.9067 C   0  0  0  0  0  0  0  0  0  0  0  0
   40.1942  -22.0921   34.3296 C   0  0  0  0  0  0  0  0  0  0  0  0
   41.3796  -21.3774   34.0498 C   0  0  0  0  0  0  0  0  0  0  0  0
   42.6196  -21.8857   34.3337 C   0  0  0  0  0  0  0  0  0  0  0  0
   46.7797  -21.6684   34.9554 C   0  0  0  0  0  0  0  0  0  0  0  0
   46.6982  -23.1189   35.0201 N   0  0  0  0  0  0  0  0  0  0  0  0
   46.0471  -23.6998   33.9079 C   0  0  0  0  0  0  0  0  0  0  0  0
   44.8137  -24.5033   34.2714 C   0  0  0  0  0  0  0  0  0  0  0  0
   44.0517  -23.6673   35.1933 N   0  0  0  0  0  0  0  0  0  0  0  0
   44.7475  -23.3960   36.4699 C   0  0  0  0  0  0  0  0  0  0  0  0
   46.2296  -23.5647   36.3011 C   0  0  0  0  0  0  0  0  0  0  0  0
 40 41  1  0  0  0
 41 42  1  0  0  0
 42 43  1  0  0  0
 43 44  1  0  0  0
 44 45  1  0  0  0
 45 46  1  0  0  0
 44 34  1  0  0  0
 34 35  2  0  0  0
 35 36  1  0  0  0
 36 37  2  0  0  0
 37 32  1  0  0  0
 32 26  1  0  0  0
 26 27  2  0  0  0
 27 28  1  0  0  0
 28 29  2  0  0  0
 29  1  1  0  0  0
  1  2  1  0  0  0
  2  3  2  0  0  0
  2  5  1  0  0  0
  5  6  2  0  0  0
  6  7  1  0  0  0
  7 12  1  0  0  0
 12 13  1  0  0  0
 13 14  2  0  0  0
 13 16  1  0  0  0
 16 17  2  0  0  0
 17 18  1  0  0  0
 18 19  2  0  0  0
 19 20  1  0  0  0
 20 21  2  0  0  0
 20 22  1  0  0  0
 22 23  1  0  0  0
 22 24  1  0  0  0
 22 25  1  0  0  0
  7  8  2  0  0  0
  8  9  1  0  0  0
  9 10  2  0  0  0
 10 11  1  0  0  0
 29 30  1  0  0  0
 30 31  2  0  0  0
 37 38  1  0  0  0
 38 39  2  0  0  0
 46 41  1  0  0  0
 39 34  1  0  0  0
 31 26  1  0  0  0
 10  5  1  0  0  0
 21 16  1  0  0  0
 32 33  1  0  0  0
  1  4  1  0  0  0
 12 15  1  0  0  0
M  END
> <minimizedAffinity>
-9.13038

> <CNNscore>
0.1478683501

> <CNNaffinity>
6.0687775612

> <CNN_VS>
0.8973801136

> <CNNaffinity_variance>
0.0559071898

$$$$
[H]c1sc(N([H])C(=O)C([H])([H])c2c([H])c(C([H])([H])[H])c([H])c(C(F)(F)F)c2[H])nc1-c1c([H])c([H])c2c(c1[H])OC([H])([H])O2


 30 33  0  0  0  0  0  0  0  0999 V2000
   35.4996  -21.7330   37.2449 C   0  0  0  0  0  0  0  0  0  0  0  0
   35.5304  -22.9894   37.2814 O   0  0  0  0  0  0  0  0  0  0  0  0
   36.4041  -21.0324   36.4663 N   0  0  0  0  0  0  0  0  0  0  0  0
   37.1501  -21.5898   35.9386 H   0  0  0  0  0  0  0  0  0  0  0  0
   36.3633  -19.6566   36.0190 C   0  0  0  0  0  0  0  0  0  0  0  0
   36.1380  -18.5206   36.6285 N   0  0  0  0  0  0  0  0  0  0  0  0
   36.3200  -17.3994   36.0637 C   0  0  0  0  0  0  0  0  0  0  0  0
   36.7932  -17.4502   34.7353 C   0  0  0  0  0  0  0  0  0  0  0  0
   36.8949  -19.1209   34.4840 S   0  0  0  0  0  0  0  0  0  0  0  0
   35.9078  -16.0564   36.5839 C   0  0  0  0  0  0  0  0  0  0  0  0
   36.7981  -15.2224   37.2061 C   0  0  0  0  0  0  0  0  0  0  0  0
   36.4549  -13.9273   37.5210 C   0  0  0  0  0  0  0  0  0  0  0  0
   35.1674  -13.4326   37.2052 C   0  0  0  0  0  0  0  0  0  0  0  0
   34.5451  -12.2058   37.3787 O   0  0  0  0  0  0  0  0  0  0  0  0
   33.1594  -12.3798   37.1920 C   0  0  0  0  0  0  0  0  0  0  0  0
   33.0561  -13.5189   36.3789 O   0  0  0  0  0  0  0  0  0  0  0  0
   34.2739  -14.2529   36.5931 C   0  0  0  0  0  0  0  0  0  0  0  0
   34.6425  -15.5412   36.2927 C   0  0  0  0  0  0  0  0  0  0  0  0
   34.4495  -21.0713   38.1231 C   0  0  0  0  0  0  0  0  0  0  0  0
   29.9753  -23.0893   37.3105 C   0  0  0  0  0  0  0  0  0  0  0  0
   31.0104  -22.0854   37.0747 C   0  0  0  0  0  0  0  0  0  0  0  0
   32.2361  -22.0618   37.7402 C   0  0  0  0  0  0  0  0  0  0  0  0
   33.1400  -21.1129   37.3854 C   0  0  0  0  0  0  0  0  0  0  0  0
   32.9130  -20.1685   36.3984 C   0  0  0  0  0  0  0  0  0  0  0  0
   31.6866  -20.1813   35.7285 C   0  0  0  0  0  0  0  0  0  0  0  0
   30.7213  -21.1514   36.0653 C   0  0  0  0  0  0  0  0  0  0  0  0
   31.4381  -19.1540   34.6914 C   0  0  0  0  0  0  0  0  0  0  0  0
   30.1300  -18.7645   34.7056 F   0  0  0  0  0  0  0  0  0  0  0  0
   32.3189  -18.0810   34.7372 F   0  0  0  0  0  0  0  0  0  0  0  0
   31.6782  -19.7786   33.4426 F   0  0  0  0  0  0  0  0  0  0  0  0
 20 21  1  0  0  0
 21 22  2  0  0  0
 22 23  1  0  0  0
 23 19  1  0  0  0
 19  1  1  0  0  0
  1  2  2  0  0  0
  1  3  1  0  0  0
  3  5  1  0  0  0
  5  6  2  0  0  0
  6  7  1  0  0  0
  7  8  2  0  0  0
  8  9  1  0  0  0
  7 10  1  0  0  0
 10 11  2  0  0  0
 11 12  1  0  0  0
 12 13  2  0  0  0
 13 14  1  0  0  0
 14 15  1  0  0  0
 15 16  1  0  0  0
 16 17  1  0  0  0
 17 18  2  0  0  0
 23 24  2  0  0  0
 24 25  1  0  0  0
 25 26  2  0  0  0
 25 27  1  0  0  0
 27 28  1  0  0  0
 27 29  1  0  0  0
 27 30  1  0  0  0
 26 21  1  0  0  0
  9  5  1  0  0  0
 18 10  1  0  0  0
 17 13  1  0  0  0
  3  4  1  0  0  0
M  END
> <minimizedAffinity>
-7.84725

> <CNNscore>
0.1942419112

> <CNNaffinity>
5.2472386360

> <CNN_VS>
1.0192337036

> <CNNaffinity_variance>
0.1795273870

$$$$
[H]c1sc(N([H])C(=O)C([H])([H])c2c([H])c(C([H])([H])[H])c([H])c(C(F)(F)F)c2[H])nc1-c1c([H])c([H])c2c(c1[H])OC([H])([H])O2


 30 33  0  0  0  0  0  0  0  0999 V2000
   31.9065  -18.8860   34.6450 C   0  0  0  0  0  0  0  0  0  0  0  0
   30.6657  -19.0490   34.7668 O   0  0  0  0  0  0  0  0  0  0  0  0
   32.5101  -17.7306   35.1097 N   0  0  0  0  0  0  0  0  0  0  0  0
   31.8841  -16.9710   35.5302 H   0  0  0  0  0  0  0  0  0  0  0  0
   33.9079  -17.4627   35.3720 C   0  0  0  0  0  0  0  0  0  0  0  0
   35.0152  -18.0890   35.0649 N   0  0  0  0  0  0  0  0  0  0  0  0
   36.1601  -17.5775   35.2568 C   0  0  0  0  0  0  0  0  0  0  0  0
   36.1683  -16.2810   35.8137 C   0  0  0  0  0  0  0  0  0  0  0  0
   34.5112  -15.9888   35.9961 S   0  0  0  0  0  0  0  0  0  0  0  0
   37.4829  -18.2703   35.1366 C   0  0  0  0  0  0  0  0  0  0  0  0
   38.1015  -18.4332   33.9258 C   0  0  0  0  0  0  0  0  0  0  0  0
   39.3899  -18.9108   33.8468 C   0  0  0  0  0  0  0  0  0  0  0  0
   40.1016  -19.2441   35.0234 C   0  0  0  0  0  0  0  0  0  0  0  0
   41.3798  -19.7241   35.2646 O   0  0  0  0  0  0  0  0  0  0  0  0
   41.4344  -20.1969   36.5907 C   0  0  0  0  0  0  0  0  0  0  0  0
   40.4208  -19.4903   37.2562 O   0  0  0  0  0  0  0  0  0  0  0  0
   39.4956  -19.0922   36.2300 C   0  0  0  0  0  0  0  0  0  0  0  0
   38.2086  -18.6158   36.2790 C   0  0  0  0  0  0  0  0  0  0  0  0
   32.6545  -20.0051   33.9382 C   0  0  0  0  0  0  0  0  0  0  0  0
   31.1552  -24.6518   34.8930 C   0  0  0  0  0  0  0  0  0  0  0  0
   31.9088  -23.4395   35.2048 C   0  0  0  0  0  0  0  0  0  0  0  0
   31.9251  -22.3045   34.3940 C   0  0  0  0  0  0  0  0  0  0  0  0
   32.6146  -21.2178   34.8262 C   0  0  0  0  0  0  0  0  0  0  0  0
   33.3012  -21.1734   36.0280 C   0  0  0  0  0  0  0  0  0  0  0  0
   33.2942  -22.3067   36.8457 C   0  0  0  0  0  0  0  0  0  0  0  0
   32.5885  -23.4554   36.4346 C   0  0  0  0  0  0  0  0  0  0  0  0
   34.0504  -22.2638   38.1180 C   0  0  0  0  0  0  0  0  0  0  0  0
   33.6882  -23.3019   38.9268 F   0  0  0  0  0  0  0  0  0  0  0  0
   35.4262  -22.1650   37.9540 F   0  0  0  0  0  0  0  0  0  0  0  0
   33.6674  -21.0667   38.7720 F   0  0  0  0  0  0  0  0  0  0  0  0
 20 21  1  0  0  0
 21 22  2  0  0  0
 22 23  1  0  0  0
 23 19  1  0  0  0
 19  1  1  0  0  0
  1  2  2  0  0  0
  1  3  1  0  0  0
  3  5  1  0  0  0
  5  6  2  0  0  0
  6  7  1  0  0  0
  7  8  2  0  0  0
  8  9  1  0  0  0
  7 10  1  0  0  0
 10 11  2  0  0  0
 11 12  1  0  0  0
 12 13  2  0  0  0
 13 14  1  0  0  0
 14 15  1  0  0  0
 15 16  1  0  0  0
 16 17  1  0  0  0
 17 18  2  0  0  0
 23 24  2  0  0  0
 24 25  1  0  0  0
 25 26  2  0  0  0
 25 27  1  0  0  0
 27 28  1  0  0  0
 27 29  1  0  0  0
 27 30  1  0  0  0
 26 21  1  0  0  0
  9  5  1  0  0  0
 18 10  1  0  0  0
 17 13  1  0  0  0
  3  4  1  0  0  0
M  END
> <minimizedAffinity>
-6.29978

> <CNNscore>
0.1875367761

> <CNNaffinity>
5.0170216560

> <CNN_VS>
0.9408760667

> <CNNaffinity_variance>
0.3838821650

$$$$
[H]c1sc(N([H])C(=O)C([H])([H])c2c([H])c(C([H])([H])[H])c([H])c(C(F)(F)F)c2[H])nc1-c1c([H])c([H])c2c(c1[H])OC([H])([H])O2


 30 33  0  0  0  0  0  0  0  0999 V2000
   33.7699  -18.3021   34.7708 C   0  0  0  0  0  0  0  0  0  0  0  0
   33.7313  -19.0971   33.7975 O   0  0  0  0  0  0  0  0  0  0  0  0
   34.8628  -17.4734   34.9555 N   0  0  0  0  0  0  0  0  0  0  0  0
   35.6833  -17.5649   34.2742 H   0  0  0  0  0  0  0  0  0  0  0  0
   34.9927  -16.2889   35.7767 C   0  0  0  0  0  0  0  0  0  0  0  0
   34.1729  -15.3172   36.0873 N   0  0  0  0  0  0  0  0  0  0  0  0
   34.4493  -14.4529   36.9737 C   0  0  0  0  0  0  0  0  0  0  0  0
   35.6956  -14.6091   37.6166 C   0  0  0  0  0  0  0  0  0  0  0  0
   36.3016  -15.9822   36.8343 S   0  0  0  0  0  0  0  0  0  0  0  0
   33.6900  -13.1952   37.2668 C   0  0  0  0  0  0  0  0  0  0  0  0
   34.3221  -11.9872   37.3944 C   0  0  0  0  0  0  0  0  0  0  0  0
   33.6029  -10.8174   37.4880 C   0  0  0  0  0  0  0  0  0  0  0  0
   32.1887  -10.8437   37.4537 C   0  0  0  0  0  0  0  0  0  0  0  0
   31.2120   -9.8613   37.5125 O   0  0  0  0  0  0  0  0  0  0  0  0
   29.9748  -10.4797   37.7810 C   0  0  0  0  0  0  0  0  0  0  0  0
   30.1333  -11.7951   37.3182 O   0  0  0  0  0  0  0  0  0  0  0  0
   31.5506  -12.0372   37.3334 C   0  0  0  0  0  0  0  0  0  0  0  0
   32.2934  -13.1889   37.2444 C   0  0  0  0  0  0  0  0  0  0  0  0
   32.5777  -18.3515   35.7130 C   0  0  0  0  0  0  0  0  0  0  0  0
   34.0209  -22.8839   37.1710 C   0  0  0  0  0  0  0  0  0  0  0  0
   33.0134  -21.9153   36.7449 C   0  0  0  0  0  0  0  0  0  0  0  0
   33.2939  -20.5809   36.4503 C   0  0  0  0  0  0  0  0  0  0  0  0
   32.2800  -19.7964   36.0032 C   0  0  0  0  0  0  0  0  0  0  0  0
   30.9835  -20.2481   35.8220 C   0  0  0  0  0  0  0  0  0  0  0  0
   30.6915  -21.5823   36.1180 C   0  0  0  0  0  0  0  0  0  0  0  0
   31.7163  -22.4310   36.5829 C   0  0  0  0  0  0  0  0  0  0  0  0
   29.2986  -22.0547   35.9469 C   0  0  0  0  0  0  0  0  0  0  0  0
   28.6714  -21.3515   34.9594 F   0  0  0  0  0  0  0  0  0  0  0  0
   29.1848  -23.4293   35.7832 F   0  0  0  0  0  0  0  0  0  0  0  0
   28.6260  -21.7682   37.1605 F   0  0  0  0  0  0  0  0  0  0  0  0
 20 21  1  0  0  0
 21 22  2  0  0  0
 22 23  1  0  0  0
 23 19  1  0  0  0
 19  1  1  0  0  0
  1  2  2  0  0  0
  1  3  1  0  0  0
  3  5  1  0  0  0
  5  6  2  0  0  0
  6  7  1  0  0  0
  7  8  2  0  0  0
  8  9  1  0  0  0
  7 10  1  0  0  0
 10 11  2  0  0  0
 11 12  1  0  0  0
 12 13  2  0  0  0
 13 14  1  0  0  0
 14 15  1  0  0  0
 15 16  1  0  0  0
 16 17  1  0  0  0
 17 18  2  0  0  0
 23 24  2  0  0  0
 24 25  1  0  0  0
 25 26  2  0  0  0
 25 27  1  0  0  0
 27 28  1  0  0  0
 27 29  1  0  0  0
 27 30  1  0  0  0
 26 21  1  0  0  0
  9  5  1  0  0  0
 18 10  1  0  0  0
 17 13  1  0  0  0
  3  4  1  0  0  0
M  END
> <minimizedAffinity>
-7.44461

> <CNNscore>
0.1789906621

> <CNNaffinity>
5.4368314743

> <CNN_VS>
0.9731420875

> <CNNaffinity_variance>
0.1952571720

$$$$
[H]c1sc(N([H])C(=O)C([H])([H])c2c([H])c(C([H])([H])[H])c([H])c(C(F)(F)F)c2[H])nc1-c1c([H])c([H])c2c(c1[H])OC([H])([H])O2


 30 33  0  0  0  0  0  0  0  0999 V2000
   39.1329  -19.8245   34.8397 C   0  0  0  0  0  0  0  0  0  0  0  0
   39.8769  -20.7597   34.4486 O   0  0  0  0  0  0  0  0  0  0  0  0
   37.9387  -19.5617   34.1915 N   0  0  0  0  0  0  0  0  0  0  0  0
   37.6963  -20.1466   33.3285 H   0  0  0  0  0  0  0  0  0  0  0  0
   36.8009  -18.7853   34.6353 C   0  0  0  0  0  0  0  0  0  0  0  0
   36.6784  -17.5984   35.1730 N   0  0  0  0  0  0  0  0  0  0  0  0
   35.5515  -17.0378   35.3312 C   0  0  0  0  0  0  0  0  0  0  0  0
   34.4325  -17.7694   34.8799 C   0  0  0  0  0  0  0  0  0  0  0  0
   35.1701  -19.1785   34.3009 S   0  0  0  0  0  0  0  0  0  0  0  0
   35.2736  -15.7879   36.1089 C   0  0  0  0  0  0  0  0  0  0  0  0
   36.2601  -15.1378   36.8011 C   0  0  0  0  0  0  0  0  0  0  0  0
   36.0347  -13.9021   37.3638 C   0  0  0  0  0  0  0  0  0  0  0  0
   34.7709  -13.2787   37.2357 C   0  0  0  0  0  0  0  0  0  0  0  0
   34.2538  -12.0671   37.6680 O   0  0  0  0  0  0  0  0  0  0  0  0
   32.8502  -12.1172   37.5561 C   0  0  0  0  0  0  0  0  0  0  0  0
   32.6125  -13.0817   36.5647 O   0  0  0  0  0  0  0  0  0  0  0  0
   33.7827  -13.9172   36.5561 C   0  0  0  0  0  0  0  0  0  0  0  0
   34.0349  -15.1504   36.0069 C   0  0  0  0  0  0  0  0  0  0  0  0
   39.6525  -19.0137   36.0162 C   0  0  0  0  0  0  0  0  0  0  0  0
   41.7276  -21.5371   39.7682 C   0  0  0  0  0  0  0  0  0  0  0  0
   40.5791  -21.0117   39.0336 C   0  0  0  0  0  0  0  0  0  0  0  0
   40.6837  -20.2421   37.8748 C   0  0  0  0  0  0  0  0  0  0  0  0
   39.5388  -19.8668   37.2491 C   0  0  0  0  0  0  0  0  0  0  0  0
   38.2732  -20.2071   37.6965 C   0  0  0  0  0  0  0  0  0  0  0  0
   38.1577  -20.9747   38.8586 C   0  0  0  0  0  0  0  0  0  0  0  0
   39.3220  -21.3868   39.5376 C   0  0  0  0  0  0  0  0  0  0  0  0
   36.8021  -21.3151   39.3478 C   0  0  0  0  0  0  0  0  0  0  0  0
   36.7705  -21.3157   40.7123 F   0  0  0  0  0  0  0  0  0  0  0  0
   35.7901  -20.5465   38.7871 F   0  0  0  0  0  0  0  0  0  0  0  0
   36.5425  -22.6405   38.9198 F   0  0  0  0  0  0  0  0  0  0  0  0
 20 21  1  0  0  0
 21 22  2  0  0  0
 22 23  1  0  0  0
 23 19  1  0  0  0
 19  1  1  0  0  0
  1  2  2  0  0  0
  1  3  1  0  0  0
  3  5  1  0  0  0
  5  6  2  0  0  0
  6  7  1  0  0  0
  7  8  2  0  0  0
  8  9  1  0  0  0
  7 10  1  0  0  0
 10 11  2  0  0  0
 11 12  1  0  0  0
 12 13  2  0  0  0
 13 14  1  0  0  0
 14 15  1  0  0  0
 15 16  1  0  0  0
 16 17  1  0  0  0
 17 18  2  0  0  0
 23 24  2  0  0  0
 24 25  1  0  0  0
 25 26  2  0  0  0
 25 27  1  0  0  0
 27 28  1  0  0  0
 27 29  1  0  0  0
 27 30  1  0  0  0
 26 21  1  0  0  0
  9  5  1  0  0  0
 18 10  1  0  0  0
 17 13  1  0  0  0
  3  4  1  0  0  0
M  END
> <minimizedAffinity>
-7.10585

> <CNNscore>
0.1756058186

> <CNNaffinity>
5.2419271469

> <CNN_VS>
0.9205129147

> <CNNaffinity_variance>
0.1925851405

$$$$
[H]c1sc(N([H])C(=O)C([H])([H])c2c([H])c(C([H])([H])[H])c([H])c(C(F)(F)F)c2[H])nc1-c1c([H])c([H])c2c(c1[H])OC([H])([H])O2


 30 33  0  0  0  0  0  0  0  0999 V2000
   35.8669  -21.3614   37.2840 C   0  0  0  0  0  0  0  0  0  0  0  0
   35.9799  -22.6004   37.4663 O   0  0  0  0  0  0  0  0  0  0  0  0
   35.2888  -20.8738   36.1251 N   0  0  0  0  0  0  0  0  0  0  0  0
   34.9864  -21.5795   35.3792 H   0  0  0  0  0  0  0  0  0  0  0  0
   34.7685  -19.5539   35.8396 C   0  0  0  0  0  0  0  0  0  0  0  0
   35.1530  -18.3468   36.1680 N   0  0  0  0  0  0  0  0  0  0  0  0
   34.6338  -17.3070   35.6596 C   0  0  0  0  0  0  0  0  0  0  0  0
   33.6190  -17.5309   34.7051 C   0  0  0  0  0  0  0  0  0  0  0  0
   33.5480  -19.2219   34.6881 S   0  0  0  0  0  0  0  0  0  0  0  0
   34.8467  -15.8914   36.1011 C   0  0  0  0  0  0  0  0  0  0  0  0
   36.0843  -15.3063   36.0670 C   0  0  0  0  0  0  0  0  0  0  0  0
   36.2385  -13.9596   36.3061 C   0  0  0  0  0  0  0  0  0  0  0  0
   35.1129  -13.1518   36.5932 C   0  0  0  0  0  0  0  0  0  0  0  0
   34.9478  -11.8010   36.8590 O   0  0  0  0  0  0  0  0  0  0  0  0
   33.6645  -11.6095   37.4083 C   0  0  0  0  0  0  0  0  0  0  0  0
   32.9163  -12.6999   36.9383 O   0  0  0  0  0  0  0  0  0  0  0  0
   33.8806  -13.7226   36.6354 C   0  0  0  0  0  0  0  0  0  0  0  0
   33.7566  -15.0690   36.3952 C   0  0  0  0  0  0  0  0  0  0  0  0
   36.4306  -20.4767   38.3845 C   0  0  0  0  0  0  0  0  0  0  0  0
   40.4481  -18.9923   35.8532 C   0  0  0  0  0  0  0  0  0  0  0  0
   39.7925  -19.6427   36.9854 C   0  0  0  0  0  0  0  0  0  0  0  0
   38.4085  -19.7255   37.1393 C   0  0  0  0  0  0  0  0  0  0  0  0
   37.9220  -20.4123   38.2046 C   0  0  0  0  0  0  0  0  0  0  0  0
   38.7236  -21.0364   39.1457 C   0  0  0  0  0  0  0  0  0  0  0  0
   40.1114  -20.9559   39.0025 C   0  0  0  0  0  0  0  0  0  0  0  0
   40.6574  -20.2539   37.9091 C   0  0  0  0  0  0  0  0  0  0  0  0
   40.9651  -21.6031   40.0248 C   0  0  0  0  0  0  0  0  0  0  0  0
   42.0574  -22.1789   39.4431 F   0  0  0  0  0  0  0  0  0  0  0  0
   41.2970  -20.7752   41.0895 F   0  0  0  0  0  0  0  0  0  0  0  0
   40.1912  -22.6456   40.5920 F   0  0  0  0  0  0  0  0  0  0  0  0
 20 21  1  0  0  0
 21 22  2  0  0  0
 22 23  1  0  0  0
 23 19  1  0  0  0
 19  1  1  0  0  0
  1  2  2  0  0  0
  1  3  1  0  0  0
  3  5  1  0  0  0
  5  6  2  0  0  0
  6  7  1  0  0  0
  7  8  2  0  0  0
  8  9  1  0  0  0
  7 10  1  0  0  0
 10 11  2  0  0  0
 11 12  1  0  0  0
 12 13  2  0  0  0
 13 14  1  0  0  0
 14 15  1  0  0  0
 15 16  1  0  0  0
 16 17  1  0  0  0
 17 18  2  0  0  0
 23 24  2  0  0  0
 24 25  1  0  0  0
 25 26  2  0  0  0
 25 27  1  0  0  0
 27 28  1  0  0  0
 27 29  1  0  0  0
 27 30  1  0  0  0
 26 21  1  0  0  0
  9  5  1  0  0  0
 18 10  1  0  0  0
 17 13  1  0  0  0
  3  4  1  0  0  0
M  END
> <minimizedAffinity>
-6.65631

> <CNNscore>
0.1633446217

> <CNNaffinity>
5.0642910004

> <CNN_VS>
0.8272246718

> <CNNaffinity_variance>
0.2244245261

$$$$
[H]c1sc(N([H])C(=O)C([H])([H])c2c([H])c(C([H])([H])[H])c([H])c(C(F)(F)F)c2[H])nc1-c1c([H])c([H])c2c(c1[H])OC([H])([H])O2


 30 33  0  0  0  0  0  0  0  0999 V2000
   37.5041  -20.7431   36.4513 C   0  0  0  0  0  0  0  0  0  0  0  0
   38.0680  -21.8443   36.2269 O   0  0  0  0  0  0  0  0  0  0  0  0
   36.9171  -20.0334   35.4184 N   0  0  0  0  0  0  0  0  0  0  0  0
   36.9991  -20.4288   34.4271 H   0  0  0  0  0  0  0  0  0  0  0  0
   35.9608  -18.9485   35.4727 C   0  0  0  0  0  0  0  0  0  0  0  0
   36.0402  -17.6999   35.8568 N   0  0  0  0  0  0  0  0  0  0  0  0
   35.1038  -16.8676   35.6581 C   0  0  0  0  0  0  0  0  0  0  0  0
   33.9696  -17.3682   34.9843 C   0  0  0  0  0  0  0  0  0  0  0  0
   34.4132  -18.9840   34.7450 S   0  0  0  0  0  0  0  0  0  0  0  0
   34.9981  -15.4851   36.2252 C   0  0  0  0  0  0  0  0  0  0  0  0
   36.1042  -14.7019   36.4207 C   0  0  0  0  0  0  0  0  0  0  0  0
   35.9814  -13.3775   36.7745 C   0  0  0  0  0  0  0  0  0  0  0  0
   34.7011  -12.7991   36.9436 C   0  0  0  0  0  0  0  0  0  0  0  0
   34.2628  -11.5264   37.2757 O   0  0  0  0  0  0  0  0  0  0  0  0
   32.9029  -11.6042   37.6360 C   0  0  0  0  0  0  0  0  0  0  0  0
   32.4330  -12.7538   36.9823 O   0  0  0  0  0  0  0  0  0  0  0  0
   33.5966  -13.5683   36.7581 C   0  0  0  0  0  0  0  0  0  0  0  0
   33.7489  -14.8873   36.4077 C   0  0  0  0  0  0  0  0  0  0  0  0
   37.5514  -20.2570   37.8911 C   0  0  0  0  0  0  0  0  0  0  0  0
   36.1535  -22.6403   42.0284 C   0  0  0  0  0  0  0  0  0  0  0  0
   35.9155  -22.1253   40.6819 C   0  0  0  0  0  0  0  0  0  0  0  0
   36.8623  -21.4161   39.9426 C   0  0  0  0  0  0  0  0  0  0  0  0
   36.5406  -21.0457   38.6766 C   0  0  0  0  0  0  0  0  0  0  0  0
   35.3256  -21.3345   38.0784 C   0  0  0  0  0  0  0  0  0  0  0  0
   34.3690  -22.0412   38.8121 C   0  0  0  0  0  0  0  0  0  0  0  0
   34.6638  -22.4462   40.1295 C   0  0  0  0  0  0  0  0  0  0  0  0
   33.0616  -22.3260   38.1777 C   0  0  0  0  0  0  0  0  0  0  0  0
   33.2073  -23.2252   37.1612 F   0  0  0  0  0  0  0  0  0  0  0  0
   32.0650  -22.6865   39.0755 F   0  0  0  0  0  0  0  0  0  0  0  0
   32.6210  -21.1082   37.6030 F   0  0  0  0  0  0  0  0  0  0  0  0
 20 21  1  0  0  0
 21 22  2  0  0  0
 22 23  1  0  0  0
 23 19  1  0  0  0
 19  1  1  0  0  0
  1  2  2  0  0  0
  1  3  1  0  0  0
  3  5  1  0  0  0
  5  6  2  0  0  0
  6  7  1  0  0  0
  7  8  2  0  0  0
  8  9  1  0  0  0
  7 10  1  0  0  0
 10 11  2  0  0  0
 11 12  1  0  0  0
 12 13  2  0  0  0
 13 14  1  0  0  0
 14 15  1  0  0  0
 15 16  1  0  0  0
 16 17  1  0  0  0
 17 18  2  0  0  0
 23 24  2  0  0  0
 24 25  1  0  0  0
 25 26  2  0  0  0
 25 27  1  0  0  0
 27 28  1  0  0  0
 27 29  1  0  0  0
 27 30  1  0  0  0
 26 21  1  0  0  0
  9  5  1  0  0  0
 18 10  1  0  0  0
 17 13  1  0  0  0
  3  4  1  0  0  0
M  END
> <minimizedAffinity>
-6.45681

> <CNNscore>
0.1571404338

> <CNNaffinity>
5.1574501991

> <CNN_VS>
0.8104439378

> <CNNaffinity_variance>
0.1747745126

$$$$
[H]c1sc(N([H])C(=O)C([H])([H])c2c([H])c(C([H])([H])[H])c([H])c(C(F)(F)F)c2[H])nc1-c1c([H])c([H])c2c(c1[H])OC([H])([H])O2


 30 33  0  0  0  0  0  0  0  0999 V2000
   39.0742  -20.0676   35.2047 C   0  0  0  0  0  0  0  0  0  0  0  0
   39.8391  -20.8807   34.6260 O   0  0  0  0  0  0  0  0  0  0  0  0
   38.2294  -19.2553   34.4688 N   0  0  0  0  0  0  0  0  0  0  0  0
   38.2828  -19.3113   33.4012 H   0  0  0  0  0  0  0  0  0  0  0  0
   37.0688  -18.5045   34.8971 C   0  0  0  0  0  0  0  0  0  0  0  0
   36.8999  -17.2799   35.3269 N   0  0  0  0  0  0  0  0  0  0  0  0
   35.7498  -16.7705   35.4910 C   0  0  0  0  0  0  0  0  0  0  0  0
   34.6573  -17.6038   35.1699 C   0  0  0  0  0  0  0  0  0  0  0  0
   35.4509  -19.0188   34.6876 S   0  0  0  0  0  0  0  0  0  0  0  0
   35.4335  -15.4688   36.1616 C   0  0  0  0  0  0  0  0  0  0  0  0
   36.4204  -14.6084   36.5626 C   0  0  0  0  0  0  0  0  0  0  0  0
   36.1178  -13.3443   37.0152 C   0  0  0  0  0  0  0  0  0  0  0  0
   34.7725  -12.9097   37.0742 C   0  0  0  0  0  0  0  0  0  0  0  0
   34.1663  -11.7244   37.4613 O   0  0  0  0  0  0  0  0  0  0  0  0
   32.7900  -11.9666   37.6407 C   0  0  0  0  0  0  0  0  0  0  0  0
   32.5231  -13.0832   36.8336 O   0  0  0  0  0  0  0  0  0  0  0  0
   33.7845  -13.7571   36.6844 C   0  0  0  0  0  0  0  0  0  0  0  0
   34.1152  -15.0135   36.2395 C   0  0  0  0  0  0  0  0  0  0  0  0
   39.1775  -20.0267   36.7210 C   0  0  0  0  0  0  0  0  0  0  0  0
   35.0550  -20.4981   39.4659 C   0  0  0  0  0  0  0  0  0  0  0  0
   36.0808  -21.0141   38.5624 C   0  0  0  0  0  0  0  0  0  0  0  0
   37.1338  -20.2473   38.0631 C   0  0  0  0  0  0  0  0  0  0  0  0
   38.0589  -20.8606   37.2813 C   0  0  0  0  0  0  0  0  0  0  0  0
   38.0158  -22.2053   36.9534 C   0  0  0  0  0  0  0  0  0  0  0  0
   36.9627  -22.9812   37.4454 C   0  0  0  0  0  0  0  0  0  0  0  0
   35.9822  -22.3835   38.2626 C   0  0  0  0  0  0  0  0  0  0  0  0
   36.9065  -24.4130   37.0718 C   0  0  0  0  0  0  0  0  0  0  0  0
   37.9211  -25.1046   37.6679 F   0  0  0  0  0  0  0  0  0  0  0  0
   35.6643  -25.0008   37.2737 F   0  0  0  0  0  0  0  0  0  0  0  0
   37.1219  -24.4712   35.6727 F   0  0  0  0  0  0  0  0  0  0  0  0
 20 21  1  0  0  0
 21 22  2  0  0  0
 22 23  1  0  0  0
 23 19  1  0  0  0
 19  1  1  0  0  0
  1  2  2  0  0  0
  1  3  1  0  0  0
  3  5  1  0  0  0
  5  6  2  0  0  0
  6  7  1  0  0  0
  7  8  2  0  0  0
  8  9  1  0  0  0
  7 10  1  0  0  0
 10 11  2  0  0  0
 11 12  1  0  0  0
 12 13  2  0  0  0
 13 14  1  0  0  0
 14 15  1  0  0  0
 15 16  1  0  0  0
 16 17  1  0  0  0
 17 18  2  0  0  0
 23 24  2  0  0  0
 24 25  1  0  0  0
 25 26  2  0  0  0
 25 27  1  0  0  0
 27 28  1  0  0  0
 27 29  1  0  0  0
 27 30  1  0  0  0
 26 21  1  0  0  0
  9  5  1  0  0  0
 18 10  1  0  0  0
 17 13  1  0  0  0
  3  4  1  0  0  0
M  END
> <minimizedAffinity>
-6.59439

> <CNNscore>
0.1546852738

> <CNNaffinity>
5.0739593506

> <CNN_VS>
0.7848668098

> <CNNaffinity_variance>
0.2658606172

$$$$
[H]c1sc(N([H])C(=O)C([H])([H])c2c([H])c(C([H])([H])[H])c([H])c(C(F)(F)F)c2[H])nc1-c1c([H])c([H])c2c(c1[H])OC([H])([H])O2


 30 33  0  0  0  0  0  0  0  0999 V2000
   36.2936  -15.9091   36.9657 C   0  0  0  0  0  0  0  0  0  0  0  0
   37.3344  -16.5678   37.2183 O   0  0  0  0  0  0  0  0  0  0  0  0
   35.8790  -14.9003   37.8176 N   0  0  0  0  0  0  0  0  0  0  0  0
   36.4440  -14.7337   38.7113 H   0  0  0  0  0  0  0  0  0  0  0  0
   34.9379  -13.8260   37.5843 C   0  0  0  0  0  0  0  0  0  0  0  0
   33.7488  -13.5549   38.0590 N   0  0  0  0  0  0  0  0  0  0  0  0
   33.1644  -12.4512   37.8367 C   0  0  0  0  0  0  0  0  0  0  0  0
   33.8817  -11.5233   37.0521 C   0  0  0  0  0  0  0  0  0  0  0  0
   35.3012  -12.3879   36.7323 S   0  0  0  0  0  0  0  0  0  0  0  0
   31.7396  -12.1120   38.1516 C   0  0  0  0  0  0  0  0  0  0  0  0
   31.0514  -11.1668   37.4388 C   0  0  0  0  0  0  0  0  0  0  0  0
   29.6986  -10.9888   37.6195 C   0  0  0  0  0  0  0  0  0  0  0  0
   28.9916  -11.7849   38.5514 C   0  0  0  0  0  0  0  0  0  0  0  0
   27.6621  -11.8501   38.9393 O   0  0  0  0  0  0  0  0  0  0  0  0
   27.5848  -12.5817   40.1410 C   0  0  0  0  0  0  0  0  0  0  0  0
   28.7306  -13.3919   40.1317 O   0  0  0  0  0  0  0  0  0  0  0  0
   29.6653  -12.7219   39.2685 C   0  0  0  0  0  0  0  0  0  0  0  0
   31.0153  -12.8762   39.0694 C   0  0  0  0  0  0  0  0  0  0  0  0
   35.5370  -16.3222   35.7133 C   0  0  0  0  0  0  0  0  0  0  0  0
   35.1732  -20.5934   38.2384 C   0  0  0  0  0  0  0  0  0  0  0  0
   34.6948  -19.6144   37.2650 C   0  0  0  0  0  0  0  0  0  0  0  0
   35.3545  -18.4197   36.9759 C   0  0  0  0  0  0  0  0  0  0  0  0
   34.8407  -17.6227   36.0042 C   0  0  0  0  0  0  0  0  0  0  0  0
   33.6992  -17.9310   35.2833 C   0  0  0  0  0  0  0  0  0  0  0  0
   33.0290  -19.1238   35.5682 C   0  0  0  0  0  0  0  0  0  0  0  0
   33.5305  -19.9806   36.5685 C   0  0  0  0  0  0  0  0  0  0  0  0
   31.7948  -19.4376   34.8126 C   0  0  0  0  0  0  0  0  0  0  0  0
   30.7238  -18.7841   35.3502 F   0  0  0  0  0  0  0  0  0  0  0  0
   31.9081  -19.2462   33.4415 F   0  0  0  0  0  0  0  0  0  0  0  0
   31.5665  -20.8262   34.9762 F   0  0  0  0  0  0  0  0  0  0  0  0
 20 21  1  0  0  0
 21 22  2  0  0  0
 22 23  1  0  0  0
 23 19  1  0  0  0
 19  1  1  0  0  0
  1  2  2  0  0  0
  1  3  1  0  0  0
  3  5  1  0  0  0
  5  6  2  0  0  0
  6  7  1  0  0  0
  7  8  2  0  0  0
  8  9  1  0  0  0
  7 10  1  0  0  0
 10 11  2  0  0  0
 11 12  1  0  0  0
 12 13  2  0  0  0
 13 14  1  0  0  0
 14 15  1  0  0  0
 15 16  1  0  0  0
 16 17  1  0  0  0
 17 18  2  0  0  0
 23 24  2  0  0  0
 24 25  1  0  0  0
 25 26  2  0  0  0
 25 27  1  0  0  0
 27 28  1  0  0  0
 27 29  1  0  0  0
 27 30  1  0  0  0
 26 21  1  0  0  0
  9  5  1  0  0  0
 18 10  1  0  0  0
 17 13  1  0  0  0
  3  4  1  0  0  0
M  END
> <minimizedAffinity>
-8.40786

> <CNNscore>
0.1512522697

> <CNNaffinity>
5.4774899483

> <CNN_VS>
0.8284828067

> <CNNaffinity_variance>
0.4336187840

$$$$
[H]c1sc(N([H])C(=O)C([H])([H])c2c([H])c(C([H])([H])[H])c([H])c(C(F)(F)F)c2[H])nc1-c1c([H])c([H])c2c(c1[H])OC([H])([H])O2


 30 33  0  0  0  0  0  0  0  0999 V2000
   36.6342  -18.1228   35.5767 C   0  0  0  0  0  0  0  0  0  0  0  0
   37.8774  -18.1335   35.3885 O   0  0  0  0  0  0  0  0  0  0  0  0
   35.7664  -18.4203   34.5405 N   0  0  0  0  0  0  0  0  0  0  0  0
   36.1849  -18.6128   33.5743 H   0  0  0  0  0  0  0  0  0  0  0  0
   34.3657  -18.7813   34.5866 C   0  0  0  0  0  0  0  0  0  0  0  0
   33.7312  -19.8763   34.9197 N   0  0  0  0  0  0  0  0  0  0  0  0
   32.4698  -19.9178   35.0478 C   0  0  0  0  0  0  0  0  0  0  0  0
   31.7888  -18.7033   34.8195 C   0  0  0  0  0  0  0  0  0  0  0  0
   33.0736  -17.6706   34.4354 S   0  0  0  0  0  0  0  0  0  0  0  0
   31.6265  -21.1436   35.2225 C   0  0  0  0  0  0  0  0  0  0  0  0
   30.3593  -21.0769   35.7372 C   0  0  0  0  0  0  0  0  0  0  0  0
   29.5325  -22.1772   35.7299 C   0  0  0  0  0  0  0  0  0  0  0  0
   29.9812  -23.4042   35.1867 C   0  0  0  0  0  0  0  0  0  0  0  0
   29.3960  -24.6511   35.0285 O   0  0  0  0  0  0  0  0  0  0  0  0
   30.4111  -25.5861   34.7448 C   0  0  0  0  0  0  0  0  0  0  0  0
   31.4475  -24.8198   34.1897 O   0  0  0  0  0  0  0  0  0  0  0  0
   31.2388  -23.4837   34.6786 C   0  0  0  0  0  0  0  0  0  0  0  0
   32.0429  -22.3708   34.7012 C   0  0  0  0  0  0  0  0  0  0  0  0
   36.1801  -17.7345   36.9747 C   0  0  0  0  0  0  0  0  0  0  0  0
   38.4194  -13.3359   37.5986 C   0  0  0  0  0  0  0  0  0  0  0  0
   37.2587  -14.1731   37.3041 C   0  0  0  0  0  0  0  0  0  0  0  0
   37.2956  -15.5671   37.2662 C   0  0  0  0  0  0  0  0  0  0  0  0
   36.1338  -16.2332   37.0432 C   0  0  0  0  0  0  0  0  0  0  0  0
   34.9142  -15.6055   36.8529 C   0  0  0  0  0  0  0  0  0  0  0  0
   34.8674  -14.2091   36.8852 C   0  0  0  0  0  0  0  0  0  0  0  0
   36.0511  -13.4796   37.1160 C   0  0  0  0  0  0  0  0  0  0  0  0
   33.5660  -13.5410   36.6562 C   0  0  0  0  0  0  0  0  0  0  0  0
   33.0181  -13.9498   35.4747 F   0  0  0  0  0  0  0  0  0  0  0  0
   32.6824  -13.6453   37.7228 F   0  0  0  0  0  0  0  0  0  0  0  0
   33.8415  -12.1565   36.5361 F   0  0  0  0  0  0  0  0  0  0  0  0
 20 21  1  0  0  0
 21 22  2  0  0  0
 22 23  1  0  0  0
 23 19  1  0  0  0
 19  1  1  0  0  0
  1  2  2  0  0  0
  1  3  1  0  0  0
  3  5  1  0  0  0
  5  6  2  0  0  0
  6  7  1  0  0  0
  7  8  2  0  0  0
  8  9  1  0  0  0
  7 10  1  0  0  0
 10 11  2  0  0  0
 11 12  1  0  0  0
 12 13  2  0  0  0
 13 14  1  0  0  0
 14 15  1  0  0  0
 15 16  1  0  0  0
 16 17  1  0  0  0
 17 18  2  0  0  0
 23 24  2  0  0  0
 24 25  1  0  0  0
 25 26  2  0  0  0
 25 27  1  0  0  0
 27 28  1  0  0  0
 27 29  1  0  0  0
 27 30  1  0  0  0
 26 21  1  0  0  0
  9  5  1  0  0  0
 18 10  1  0  0  0
 17 13  1  0  0  0
  3  4  1  0  0  0
M  END
> <minimizedAffinity>
-8.26212

> <CNNscore>
0.1503459364

> <CNNaffinity>
5.1566710472

> <CNN_VS>
0.7752845287

> <CNNaffinity_variance>
0.4060955048

$$$$
[H]OC(=O)[C@@]1([H])N(C(=O)c2c([H])c([H])c(-c3c([H])c([H])c(-c4nnnn4[H])c([H])c3[H])c([H])c2[H])C([H])([H])C([H])([H])C1([H])[H]


 29 32  0  0  0  0  0  0  0  0999 V2000
   39.9850  -22.2285   37.8337 C   0  0  0  0  0  0  0  0  0  0  0  0
   40.6412  -21.3496   36.9471 C   0  0  0  0  0  0  0  0  0  0  0  0
   41.1554  -21.7447   35.7386 C   0  0  0  0  0  0  0  0  0  0  0  0
   41.0617  -23.0427   35.3095 C   0  0  0  0  0  0  0  0  0  0  0  0
   40.4313  -23.9264   36.1408 C   0  0  0  0  0  0  0  0  0  0  0  0
   39.9037  -23.5174   37.3805 C   0  0  0  0  0  0  0  0  0  0  0  0
   39.1466  -23.7544   40.6100 C   0  0  0  0  0  0  0  0  0  0  0  0
   39.6142  -23.6035   42.0904 C   0  0  0  0  0  0  0  0  0  0  0  0
   38.8019  -22.4413   42.5367 C   0  0  0  0  0  0  0  0  0  0  0  0
   38.3388  -21.7173   41.3121 C   0  0  0  0  0  0  0  0  0  0  0  0
   39.0448  -22.4129   40.2147 N   0  0  0  0  0  0  0  0  0  0  0  0
   39.4144  -21.7267   39.0612 C   0  0  0  0  0  0  0  0  0  0  0  0
   39.2245  -20.4154   39.0678 O   0  0  0  0  0  0  0  0  0  0  0  0
   37.9092  -25.8842   40.8738 O   0  0  0  0  0  0  0  0  0  0  0  0
   37.8739  -24.5225   40.6325 C   0  0  0  0  0  0  0  0  0  0  0  0
   36.7596  -23.9891   40.4413 O   0  0  0  0  0  0  0  0  0  0  0  0
   37.8743  -26.2193   41.8303 H   0  0  0  0  0  0  0  0  0  0  0  0
   41.6040  -23.4908   34.0210 C   0  0  0  0  0  0  0  0  0  0  0  0
   42.9057  -23.1899   33.6498 C   0  0  0  0  0  0  0  0  0  0  0  0
   43.4070  -23.6148   32.4381 C   0  0  0  0  0  0  0  0  0  0  0  0
   42.6246  -24.3444   31.5763 C   0  0  0  0  0  0  0  0  0  0  0  0
   41.3408  -24.6434   31.9380 C   0  0  0  0  0  0  0  0  0  0  0  0
   40.8470  -24.2228   33.1356 C   0  0  0  0  0  0  0  0  0  0  0  0
   43.1926  -24.7840   30.2865 C   0  0  0  0  0  0  0  0  0  0  0  0
   44.3050  -24.3456   29.7079 N   0  0  0  0  0  0  0  0  0  0  0  0
   44.4683  -24.9923   28.5569 N   0  0  0  0  0  0  0  0  0  0  0  0
   43.4512  -25.8448   28.4088 N   0  0  0  0  0  0  0  0  0  0  0  0
   42.6669  -25.7122   29.4789 N   0  0  0  0  0  0  0  0  0  0  0  0
   41.7952  -26.2606   29.6250 H   0  0  0  0  0  0  0  0  0  0  0  0
 14 15  1  0  0  0
 15 16  2  0  0  0
 15  7  1  0  0  0
  7  8  1  0  0  0
  8  9  1  0  0  0
  9 10  1  0  0  0
 10 11  1  0  0  0
 11 12  1  0  0  0
 12 13  2  0  0  0
 12  1  1  0  0  0
  1  2  2  0  0  0
  2  3  1  0  0  0
  3  4  2  0  0  0
  4  5  1  0  0  0
  5  6  2  0  0  0
  4 18  1  0  0  0
 18 19  2  0  0  0
 19 20  1  0  0  0
 20 21  2  0  0  0
 21 22  1  0  0  0
 22 23  2  0  0  0
 21 24  1  0  0  0
 24 25  2  0  0  0
 25 26  1  0  0  0
 26 27  2  0  0  0
 27 28  1  0  0  0
 11  7  1  0  0  0
  6  1  1  0  0  0
 23 18  1  0  0  0
 28 24  1  0  0  0
 14 17  1  0  0  0
 28 29  1  0  0  0
M  END
> <minimizedAffinity>
-1.74803

> <CNNscore>
0.5803939700

> <CNNaffinity>
4.3824009895

> <CNN_VS>
2.5435190201

> <CNNaffinity_variance>
0.2385878861

$$$$
[H]OC(=O)[C@@]1([H])N(C(=O)c2c([H])c([H])c(-c3c([H])c([H])c(-c4nnnn4[H])c([H])c3[H])c([H])c2[H])C([H])([H])C([H])([H])C1([H])[H]


 29 32  0  0  0  0  0  0  0  0999 V2000
   34.1994  -19.6474   36.2727 C   0  0  0  0  0  0  0  0  0  0  0  0
   35.2408  -18.9703   36.9407 C   0  0  0  0  0  0  0  0  0  0  0  0
   35.3788  -17.6058   36.9316 C   0  0  0  0  0  0  0  0  0  0  0  0
   34.4967  -16.8005   36.2600 C   0  0  0  0  0  0  0  0  0  0  0  0
   33.4717  -17.4191   35.5997 C   0  0  0  0  0  0  0  0  0  0  0  0
   33.3322  -18.8201   35.6117 C   0  0  0  0  0  0  0  0  0  0  0  0
   31.7840  -21.6899   35.4161 C   0  0  0  0  0  0  0  0  0  0  0  0
   31.7074  -22.8905   34.4232 C   0  0  0  0  0  0  0  0  0  0  0  0
   32.2825  -23.9872   35.2455 C   0  0  0  0  0  0  0  0  0  0  0  0
   33.0597  -23.3575   36.3581 C   0  0  0  0  0  0  0  0  0  0  0  0
   33.0253  -21.9165   36.0278 N   0  0  0  0  0  0  0  0  0  0  0  0
   34.0832  -21.0824   36.3791 C   0  0  0  0  0  0  0  0  0  0  0  0
   35.1552  -21.6712   36.8885 O   0  0  0  0  0  0  0  0  0  0  0  0
   29.4178  -22.3107   35.8061 O   0  0  0  0  0  0  0  0  0  0  0  0
   30.5959  -21.7844   36.3048 C   0  0  0  0  0  0  0  0  0  0  0  0
   30.6118  -21.4059   37.4961 O   0  0  0  0  0  0  0  0  0  0  0  0
   29.2620  -23.3116   35.8552 H   0  0  0  0  0  0  0  0  0  0  0  0
   34.6227  -15.3381   36.2346 C   0  0  0  0  0  0  0  0  0  0  0  0
   35.8590  -14.7297   36.0795 C   0  0  0  0  0  0  0  0  0  0  0  0
   35.9682  -13.3558   36.0565 C   0  0  0  0  0  0  0  0  0  0  0  0
   34.8528  -12.5647   36.1872 C   0  0  0  0  0  0  0  0  0  0  0  0
   33.6319  -13.1600   36.3403 C   0  0  0  0  0  0  0  0  0  0  0  0
   33.5257  -14.5176   36.3629 C   0  0  0  0  0  0  0  0  0  0  0  0
   35.0049  -11.0965   36.1582 C   0  0  0  0  0  0  0  0  0  0  0  0
   34.4055  -10.2114   36.9467 N   0  0  0  0  0  0  0  0  0  0  0  0
   34.8086   -8.9921   36.5998 N   0  0  0  0  0  0  0  0  0  0  0  0
   35.6685   -9.1094   35.5850 N   0  0  0  0  0  0  0  0  0  0  0  0
   35.7861  -10.4101   35.3164 N   0  0  0  0  0  0  0  0  0  0  0  0
   36.3973  -10.7896   34.5652 H   0  0  0  0  0  0  0  0  0  0  0  0
 14 15  1  0  0  0
 15 16  2  0  0  0
 15  7  1  0  0  0
  7  8  1  0  0  0
  8  9  1  0  0  0
  9 10  1  0  0  0
 10 11  1  0  0  0
 11 12  1  0  0  0
 12 13  2  0  0  0
 12  1  1  0  0  0
  1  2  2  0  0  0
  2  3  1  0  0  0
  3  4  2  0  0  0
  4  5  1  0  0  0
  5  6  2  0  0  0
  4 18  1  0  0  0
 18 19  2  0  0  0
 19 20  1  0  0  0
 20 21  2  0  0  0
 21 22  1  0  0  0
 22 23  2  0  0  0
 21 24  1  0  0  0
 24 25  2  0  0  0
 25 26  1  0  0  0
 26 27  2  0  0  0
 27 28  1  0  0  0
 11  7  1  0  0  0
  6  1  1  0  0  0
 23 18  1  0  0  0
 28 24  1  0  0  0
 14 17  1  0  0  0
 28 29  1  0  0  0
M  END
> <minimizedAffinity>
-6.63269

> <CNNscore>
0.5763785839

> <CNNaffinity>
5.0406126976

> <CNN_VS>
2.9053010941

> <CNNaffinity_variance>
0.1649885625

$$$$
[H]OC(=O)[C@@]1([H])N(C(=O)c2c([H])c([H])c(-c3c([H])c([H])c(-c4nnnn4[H])c([H])c3[H])c([H])c2[H])C([H])([H])C([H])([H])C1([H])[H]


 29 32  0  0  0  0  0  0  0  0999 V2000
   40.0659  -20.8473   38.2688 C   0  0  0  0  0  0  0  0  0  0  0  0
   39.6391  -19.8934   37.3217 C   0  0  0  0  0  0  0  0  0  0  0  0
   38.3269  -19.7282   36.9585 C   0  0  0  0  0  0  0  0  0  0  0  0
   37.3303  -20.4947   37.5035 C   0  0  0  0  0  0  0  0  0  0  0  0
   37.7033  -21.4313   38.4271 C   0  0  0  0  0  0  0  0  0  0  0  0
   39.0512  -21.5977   38.7985 C   0  0  0  0  0  0  0  0  0  0  0  0
   42.3632  -23.0959   37.6318 C   0  0  0  0  0  0  0  0  0  0  0  0
   43.7357  -23.0355   36.8931 C   0  0  0  0  0  0  0  0  0  0  0  0
   44.6197  -22.5003   37.9617 C   0  0  0  0  0  0  0  0  0  0  0  0
   43.7453  -21.8540   38.9894 C   0  0  0  0  0  0  0  0  0  0  0  0
   42.3996  -21.9098   38.3790 N   0  0  0  0  0  0  0  0  0  0  0  0
   41.4573  -20.9206   38.6466 C   0  0  0  0  0  0  0  0  0  0  0  0
   41.8774  -19.8801   39.3512 O   0  0  0  0  0  0  0  0  0  0  0  0
   41.4854  -24.4752   39.4929 O   0  0  0  0  0  0  0  0  0  0  0  0
   42.3480  -24.3577   38.4179 C   0  0  0  0  0  0  0  0  0  0  0  0
   43.0874  -25.3294   38.1498 O   0  0  0  0  0  0  0  0  0  0  0  0
   40.5433  -24.8169   39.3376 H   0  0  0  0  0  0  0  0  0  0  0  0
   35.9188  -20.3379   37.1315 C   0  0  0  0  0  0  0  0  0  0  0  0
   35.5434  -19.5098   36.0846 C   0  0  0  0  0  0  0  0  0  0  0  0
   34.2157  -19.3685   35.7417 C   0  0  0  0  0  0  0  0  0  0  0  0
   33.2406  -20.0464   36.4322 C   0  0  0  0  0  0  0  0  0  0  0  0
   33.6060  -20.8639   37.4649 C   0  0  0  0  0  0  0  0  0  0  0  0
   34.9183  -21.0024   37.8025 C   0  0  0  0  0  0  0  0  0  0  0  0
   31.8282  -19.8727   36.0391 C   0  0  0  0  0  0  0  0  0  0  0  0
   31.2835  -18.8152   35.4481 N   0  0  0  0  0  0  0  0  0  0  0  0
   29.9877  -19.0525   35.2633 N   0  0  0  0  0  0  0  0  0  0  0  0
   29.7135  -20.2687   35.7414 N   0  0  0  0  0  0  0  0  0  0  0  0
   30.8527  -20.7705   36.2190 N   0  0  0  0  0  0  0  0  0  0  0  0
   30.9291  -21.7123   36.6538 H   0  0  0  0  0  0  0  0  0  0  0  0
 14 15  1  0  0  0
 15 16  2  0  0  0
 15  7  1  0  0  0
  7  8  1  0  0  0
  8  9  1  0  0  0
  9 10  1  0  0  0
 10 11  1  0  0  0
 11 12  1  0  0  0
 12 13  2  0  0  0
 12  1  1  0  0  0
  1  2  2  0  0  0
  2  3  1  0  0  0
  3  4  2  0  0  0
  4  5  1  0  0  0
  5  6  2  0  0  0
  4 18  1  0  0  0
 18 19  2  0  0  0
 19 20  1  0  0  0
 20 21  2  0  0  0
 21 22  1  0  0  0
 22 23  2  0  0  0
 21 24  1  0  0  0
 24 25  2  0  0  0
 25 26  1  0  0  0
 26 27  2  0  0  0
 27 28  1  0  0  0
 11  7  1  0  0  0
  6  1  1  0  0  0
 23 18  1  0  0  0
 28 24  1  0  0  0
 14 17  1  0  0  0
 28 29  1  0  0  0
M  END
> <minimizedAffinity>
-4.31401

> <CNNscore>
0.5356414914

> <CNNaffinity>
4.2370843887

> <CNN_VS>
2.2695581913

> <CNNaffinity_variance>
0.1225448698

$$$$
[H]OC(=O)[C@@]1([H])N(C(=O)c2c([H])c([H])c(-c3c([H])c([H])c(-c4nnnn4[H])c([H])c3[H])c([H])c2[H])C([H])([H])C([H])([H])C1([H])[H]


 29 32  0  0  0  0  0  0  0  0999 V2000
   35.6076  -19.4746   36.6733 C   0  0  0  0  0  0  0  0  0  0  0  0
   36.3822  -18.6197   37.4846 C   0  0  0  0  0  0  0  0  0  0  0  0
   36.2939  -17.2519   37.4363 C   0  0  0  0  0  0  0  0  0  0  0  0
   35.4312  -16.6191   36.5801 C   0  0  0  0  0  0  0  0  0  0  0  0
   34.6613  -17.4134   35.7765 C   0  0  0  0  0  0  0  0  0  0  0  0
   34.7537  -18.8174   35.8293 C   0  0  0  0  0  0  0  0  0  0  0  0
   33.3091  -21.7784   37.0585 C   0  0  0  0  0  0  0  0  0  0  0  0
   32.9072  -23.0314   36.2209 C   0  0  0  0  0  0  0  0  0  0  0  0
   33.9150  -24.0242   36.6777 C   0  0  0  0  0  0  0  0  0  0  0  0
   35.0491  -23.2661   37.2921 C   0  0  0  0  0  0  0  0  0  0  0  0
   34.7086  -21.8542   37.0142 N   0  0  0  0  0  0  0  0  0  0  0  0
   35.7106  -20.9066   36.8246 C   0  0  0  0  0  0  0  0  0  0  0  0
   36.9530  -21.3637   36.7704 O   0  0  0  0  0  0  0  0  0  0  0  0
   33.3245  -21.3932   39.5055 O   0  0  0  0  0  0  0  0  0  0  0  0
   32.6928  -21.9381   38.4021 C   0  0  0  0  0  0  0  0  0  0  0  0
   31.6175  -22.5492   38.5836 O   0  0  0  0  0  0  0  0  0  0  0  0
   33.1242  -20.4345   39.7683 H   0  0  0  0  0  0  0  0  0  0  0  0
   35.3181  -15.1571   36.5089 C   0  0  0  0  0  0  0  0  0  0  0  0
   34.0800  -14.5397   36.4167 C   0  0  0  0  0  0  0  0  0  0  0  0
   33.9829  -13.1662   36.3504 C   0  0  0  0  0  0  0  0  0  0  0  0
   35.1124  -12.3847   36.3744 C   0  0  0  0  0  0  0  0  0  0  0  0
   36.3351  -12.9890   36.4652 C   0  0  0  0  0  0  0  0  0  0  0  0
   36.4293  -14.3462   36.5306 C   0  0  0  0  0  0  0  0  0  0  0  0
   34.9729  -10.9168   36.3019 C   0  0  0  0  0  0  0  0  0  0  0  0
   35.6509  -10.0835   35.5206 N   0  0  0  0  0  0  0  0  0  0  0  0
   35.2300   -8.8437   35.7558 N   0  0  0  0  0  0  0  0  0  0  0  0
   34.2796   -8.8958   36.6922 N   0  0  0  0  0  0  0  0  0  0  0  0
   34.1248  -10.1774   37.0258 N   0  0  0  0  0  0  0  0  0  0  0  0
   33.4436  -10.5083   37.7388 H   0  0  0  0  0  0  0  0  0  0  0  0
 14 15  1  0  0  0
 15 16  2  0  0  0
 15  7  1  0  0  0
  7  8  1  0  0  0
  8  9  1  0  0  0
  9 10  1  0  0  0
 10 11  1  0  0  0
 11 12  1  0  0  0
 12 13  2  0  0  0
 12  1  1  0  0  0
  1  2  2  0  0  0
  2  3  1  0  0  0
  3  4  2  0  0  0
  4  5  1  0  0  0
  5  6  2  0  0  0
  4 18  1  0  0  0
 18 19  2  0  0  0
 19 20  1  0  0  0
 20 21  2  0  0  0
 21 22  1  0  0  0
 22 23  2  0  0  0
 21 24  1  0  0  0
 24 25  2  0  0  0
 25 26  1  0  0  0
 26 27  2  0  0  0
 27 28  1  0  0  0
 11  7  1  0  0  0
  6  1  1  0  0  0
 23 18  1  0  0  0
 28 24  1  0  0  0
 14 17  1  0  0  0
 28 29  1  0  0  0
M  END
> <minimizedAffinity>
-7.64695

> <CNNscore>
0.5293654203

> <CNNaffinity>
4.9540071487

> <CNN_VS>
2.6224801540

> <CNNaffinity_variance>
0.3005824685

$$$$
[H]OC(=O)[C@@]1([H])N(C(=O)c2c([H])c([H])c(-c3c([H])c([H])c(-c4nnnn4[H])c([H])c3[H])c([H])c2[H])C([H])([H])C([H])([H])C1([H])[H]


 29 32  0  0  0  0  0  0  0  0999 V2000
   34.7297  -17.0713   36.5177 C   0  0  0  0  0  0  0  0  0  0  0  0
   35.6386  -17.0246   37.5951 C   0  0  0  0  0  0  0  0  0  0  0  0
   35.9285  -18.1092   38.3829 C   0  0  0  0  0  0  0  0  0  0  0  0
   35.3417  -19.3287   38.1679 C   0  0  0  0  0  0  0  0  0  0  0  0
   34.4543  -19.4156   37.1314 C   0  0  0  0  0  0  0  0  0  0  0  0
   34.1595  -18.3004   36.3239 C   0  0  0  0  0  0  0  0  0  0  0  0
   34.8355  -13.8748   37.2321 C   0  0  0  0  0  0  0  0  0  0  0  0
   35.7118  -12.6955   36.7082 C   0  0  0  0  0  0  0  0  0  0  0  0
   35.0066  -12.3446   35.4476 C   0  0  0  0  0  0  0  0  0  0  0  0
   34.1629  -13.5180   35.0605 C   0  0  0  0  0  0  0  0  0  0  0  0
   34.5487  -14.5560   36.0405 N   0  0  0  0  0  0  0  0  0  0  0  0
   34.5222  -15.9041   35.6939 C   0  0  0  0  0  0  0  0  0  0  0  0
   34.2721  -16.1821   34.4228 O   0  0  0  0  0  0  0  0  0  0  0  0
   33.4456  -11.9117   37.8250 O   0  0  0  0  0  0  0  0  0  0  0  0
   33.6701  -13.2725   37.9318 C   0  0  0  0  0  0  0  0  0  0  0  0
   32.8738  -13.9465   38.6207 O   0  0  0  0  0  0  0  0  0  0  0  0
   32.8873  -11.5603   37.0548 H   0  0  0  0  0  0  0  0  0  0  0  0
   35.6346  -20.5045   38.9968 C   0  0  0  0  0  0  0  0  0  0  0  0
   36.8092  -21.2221   38.8296 C   0  0  0  0  0  0  0  0  0  0  0  0
   37.0764  -22.3249   39.6123 C   0  0  0  0  0  0  0  0  0  0  0  0
   36.1825  -22.7323   40.5725 C   0  0  0  0  0  0  0  0  0  0  0  0
   35.0233  -22.0280   40.7409 C   0  0  0  0  0  0  0  0  0  0  0  0
   34.7607  -20.9386   39.9667 C   0  0  0  0  0  0  0  0  0  0  0  0
   36.4997  -23.9175   41.3938 C   0  0  0  0  0  0  0  0  0  0  0  0
   35.9773  -24.2415   42.5713 N   0  0  0  0  0  0  0  0  0  0  0  0
   36.5265  -25.3821   42.9800 N   0  0  0  0  0  0  0  0  0  0  0  0
   37.4016  -25.7800   42.0533 N   0  0  0  0  0  0  0  0  0  0  0  0
   37.3811  -24.8727   41.0765 N   0  0  0  0  0  0  0  0  0  0  0  0
   37.9708  -24.9338   40.2219 H   0  0  0  0  0  0  0  0  0  0  0  0
 14 15  1  0  0  0
 15 16  2  0  0  0
 15  7  1  0  0  0
  7  8  1  0  0  0
  8  9  1  0  0  0
  9 10  1  0  0  0
 10 11  1  0  0  0
 11 12  1  0  0  0
 12 13  2  0  0  0
 12  1  1  0  0  0
  1  2  2  0  0  0
  2  3  1  0  0  0
  3  4  2  0  0  0
  4  5  1  0  0  0
  5  6  2  0  0  0
  4 18  1  0  0  0
 18 19  2  0  0  0
 19 20  1  0  0  0
 20 21  2  0  0  0
 21 22  1  0  0  0
 22 23  2  0  0  0
 21 24  1  0  0  0
 24 25  2  0  0  0
 25 26  1  0  0  0
 26 27  2  0  0  0
 27 28  1  0  0  0
 11  7  1  0  0  0
  6  1  1  0  0  0
 23 18  1  0  0  0
 28 24  1  0  0  0
 14 17  1  0  0  0
 28 29  1  0  0  0
M  END
> <minimizedAffinity>
0.19888

> <CNNscore>
0.4486510754

> <CNNaffinity>
4.9278640747

> <CNN_VS>
2.2108914852

> <CNNaffinity_variance>
0.9309738278

$$$$
[H]OC(=O)[C@@]1([H])N(C(=O)c2c([H])c([H])c(-c3c([H])c([H])c(-c4nnnn4[H])c([H])c3[H])c([H])c2[H])C([H])([H])C([H])([H])C1([H])[H]


 29 32  0  0  0  0  0  0  0  0999 V2000
   34.4584  -19.7721   36.3538 C   0  0  0  0  0  0  0  0  0  0  0  0
   35.5205  -19.0596   36.9482 C   0  0  0  0  0  0  0  0  0  0  0  0
   35.6194  -17.6921   36.9183 C   0  0  0  0  0  0  0  0  0  0  0  0
   34.6742  -16.9184   36.2971 C   0  0  0  0  0  0  0  0  0  0  0  0
   33.6272  -17.5718   35.7088 C   0  0  0  0  0  0  0  0  0  0  0  0
   33.5281  -18.9760   35.7420 C   0  0  0  0  0  0  0  0  0  0  0  0
   36.3811  -21.8972   37.9433 C   0  0  0  0  0  0  0  0  0  0  0  0
   36.1175  -22.9154   39.0951 C   0  0  0  0  0  0  0  0  0  0  0  0
   35.5447  -24.0639   38.3449 C   0  0  0  0  0  0  0  0  0  0  0  0
   35.0659  -23.5472   37.0250 C   0  0  0  0  0  0  0  0  0  0  0  0
   35.2441  -22.0840   37.1442 N   0  0  0  0  0  0  0  0  0  0  0  0
   34.3895  -21.2086   36.4800 C   0  0  0  0  0  0  0  0  0  0  0  0
   33.3492  -21.7518   35.8649 O   0  0  0  0  0  0  0  0  0  0  0  0
   37.9448  -21.8795   36.0219 O   0  0  0  0  0  0  0  0  0  0  0  0
   37.6792  -22.2705   37.3220 C   0  0  0  0  0  0  0  0  0  0  0  0
   38.5527  -22.9294   37.9267 O   0  0  0  0  0  0  0  0  0  0  0  0
   38.3733  -20.9758   35.8537 H   0  0  0  0  0  0  0  0  0  0  0  0
   34.7572  -15.4534   36.2509 C   0  0  0  0  0  0  0  0  0  0  0  0
   35.9723  -14.8118   36.0647 C   0  0  0  0  0  0  0  0  0  0  0  0
   36.0411  -13.4358   36.0223 C   0  0  0  0  0  0  0  0  0  0  0  0
   34.9058  -12.6754   36.1641 C   0  0  0  0  0  0  0  0  0  0  0  0
   33.7058  -13.3035   36.3478 C   0  0  0  0  0  0  0  0  0  0  0  0
   33.6394  -14.6633   36.3895 C   0  0  0  0  0  0  0  0  0  0  0  0
   35.0148  -11.2040   36.1137 C   0  0  0  0  0  0  0  0  0  0  0  0
   35.7988  -10.4837   35.3194 N   0  0  0  0  0  0  0  0  0  0  0  0
   35.6016   -9.1949   35.5835 N   0  0  0  0  0  0  0  0  0  0  0  0
   34.6865   -9.1021   36.5514 N   0  0  0  0  0  0  0  0  0  0  0  0
   34.3277  -10.3448   36.8750 N   0  0  0  0  0  0  0  0  0  0  0  0
   33.6234  -10.5682   37.6071 H   0  0  0  0  0  0  0  0  0  0  0  0
 14 15  1  0  0  0
 15 16  2  0  0  0
 15  7  1  0  0  0
  7  8  1  0  0  0
  8  9  1  0  0  0
  9 10  1  0  0  0
 10 11  1  0  0  0
 11 12  1  0  0  0
 12 13  2  0  0  0
 12  1  1  0  0  0
  1  2  2  0  0  0
  2  3  1  0  0  0
  3  4  2  0  0  0
  4  5  1  0  0  0
  5  6  2  0  0  0
  4 18  1  0  0  0
 18 19  2  0  0  0
 19 20  1  0  0  0
 20 21  2  0  0  0
 21 22  1  0  0  0
 22 23  2  0  0  0
 21 24  1  0  0  0
 24 25  2  0  0  0
 25 26  1  0  0  0
 26 27  2  0  0  0
 27 28  1  0  0  0
 11  7  1  0  0  0
  6  1  1  0  0  0
 23 18  1  0  0  0
 28 24  1  0  0  0
 14 17  1  0  0  0
 28 29  1  0  0  0
M  END
> <minimizedAffinity>
-6.47822

> <CNNscore>
0.4460865259

> <CNNaffinity>
4.8514156342

> <CNN_VS>
2.1641511917

> <CNNaffinity_variance>
0.2852998376

$$$$
[H]OC(=O)[C@@]1([H])N(C(=O)c2c([H])c([H])c(-c3c([H])c([H])c(-c4nnnn4[H])c([H])c3[H])c([H])c2[H])C([H])([H])C([H])([H])C1([H])[H]


 29 32  0  0  0  0  0  0  0  0999 V2000
   37.5743  -18.3910   33.3243 C   0  0  0  0  0  0  0  0  0  0  0  0
   37.2137  -19.0589   34.5130 C   0  0  0  0  0  0  0  0  0  0  0  0
   38.0168  -19.9837   35.1301 C   0  0  0  0  0  0  0  0  0  0  0  0
   39.2427  -20.3226   34.6201 C   0  0  0  0  0  0  0  0  0  0  0  0
   39.6296  -19.6961   33.4680 C   0  0  0  0  0  0  0  0  0  0  0  0
   38.8031  -18.7465   32.8374 C   0  0  0  0  0  0  0  0  0  0  0  0
   37.4594  -17.0456   30.3383 C   0  0  0  0  0  0  0  0  0  0  0  0
   36.3574  -16.9947   29.2356 C   0  0  0  0  0  0  0  0  0  0  0  0
   35.5074  -15.8768   29.7229 C   0  0  0  0  0  0  0  0  0  0  0  0
   35.8040  -15.6847   31.1767 C   0  0  0  0  0  0  0  0  0  0  0  0
   36.7023  -16.8151   31.4958 N   0  0  0  0  0  0  0  0  0  0  0  0
   36.7033  -17.3839   32.7665 C   0  0  0  0  0  0  0  0  0  0  0  0
   35.7742  -16.9529   33.6071 O   0  0  0  0  0  0  0  0  0  0  0  0
   38.2984  -15.2551   28.8460 O   0  0  0  0  0  0  0  0  0  0  0  0
   38.4615  -16.0009   29.9997 C   0  0  0  0  0  0  0  0  0  0  0  0
   39.4567  -15.7618   30.7173 O   0  0  0  0  0  0  0  0  0  0  0  0
   37.7462  -14.4052   28.8789 H   0  0  0  0  0  0  0  0  0  0  0  0
   40.1207  -21.3092   35.2611 C   0  0  0  0  0  0  0  0  0  0  0  0
   41.4806  -21.3375   34.9918 C   0  0  0  0  0  0  0  0  0  0  0  0
   42.2979  -22.2673   35.5983 C   0  0  0  0  0  0  0  0  0  0  0  0
   41.7784  -23.1830   36.4808 C   0  0  0  0  0  0  0  0  0  0  0  0
   40.4384  -23.1588   36.7494 C   0  0  0  0  0  0  0  0  0  0  0  0
   39.6323  -22.2395   36.1493 C   0  0  0  0  0  0  0  0  0  0  0  0
   42.6816  -24.1649   37.1130 C   0  0  0  0  0  0  0  0  0  0  0  0
   42.3372  -25.2771   37.7525 N   0  0  0  0  0  0  0  0  0  0  0  0
   43.4432  -25.8843   38.1741 N   0  0  0  0  0  0  0  0  0  0  0  0
   44.4925  -25.1495   37.7975 N   0  0  0  0  0  0  0  0  0  0  0  0
   44.0170  -24.0896   37.1431 N   0  0  0  0  0  0  0  0  0  0  0  0
   44.6202  -23.3461   36.7365 H   0  0  0  0  0  0  0  0  0  0  0  0
 14 15  1  0  0  0
 15 16  2  0  0  0
 15  7  1  0  0  0
  7  8  1  0  0  0
  8  9  1  0  0  0
  9 10  1  0  0  0
 10 11  1  0  0  0
 11 12  1  0  0  0
 12 13  2  0  0  0
 12  1  1  0  0  0
  1  2  2  0  0  0
  2  3  1  0  0  0
  3  4  2  0  0  0
  4  5  1  0  0  0
  5  6  2  0  0  0
  4 18  1  0  0  0
 18 19  2  0  0  0
 19 20  1  0  0  0
 20 21  2  0  0  0
 21 22  1  0  0  0
 22 23  2  0  0  0
 21 24  1  0  0  0
 24 25  2  0  0  0
 25 26  1  0  0  0
 26 27  2  0  0  0
 27 28  1  0  0  0
 11  7  1  0  0  0
  6  1  1  0  0  0
 23 18  1  0  0  0
 28 24  1  0  0  0
 14 17  1  0  0  0
 28 29  1  0  0  0
M  END
> <minimizedAffinity>
16.37823

> <CNNscore>
0.4370951056

> <CNNaffinity>
4.2784566879

> <CNN_VS>
1.8700925112

> <CNNaffinity_variance>
0.5071173906

$$$$
[H]OC(=O)[C@@]1([H])N(C(=O)c2c([H])c([H])c(-c3c([H])c([H])c(-c4nnnn4[H])c([H])c3[H])c([H])c2[H])C([H])([H])C([H])([H])C1([H])[H]


 29 32  0  0  0  0  0  0  0  0999 V2000
   34.1530  -20.2243   36.7839 C   0  0  0  0  0  0  0  0  0  0  0  0
   34.4291  -21.6058   36.8514 C   0  0  0  0  0  0  0  0  0  0  0  0
   35.5406  -22.1221   37.4671 C   0  0  0  0  0  0  0  0  0  0  0  0
   36.4695  -21.3122   38.0662 C   0  0  0  0  0  0  0  0  0  0  0  0
   36.2376  -19.9654   38.0231 C   0  0  0  0  0  0  0  0  0  0  0  0
   35.0951  -19.4386   37.3910 C   0  0  0  0  0  0  0  0  0  0  0  0
   31.3524  -21.7802   36.0944 C   0  0  0  0  0  0  0  0  0  0  0  0
   29.8760  -21.5661   36.5499 C   0  0  0  0  0  0  0  0  0  0  0  0
   29.4431  -20.4762   35.6363 C   0  0  0  0  0  0  0  0  0  0  0  0
   30.6761  -19.8150   35.1063 C   0  0  0  0  0  0  0  0  0  0  0  0
   31.7662  -20.4593   35.8701 N   0  0  0  0  0  0  0  0  0  0  0  0
   32.9306  -19.7589   36.1731 C   0  0  0  0  0  0  0  0  0  0  0  0
   32.9418  -18.4704   35.8647 O   0  0  0  0  0  0  0  0  0  0  0  0
   32.2065  -22.4365   33.8636 O   0  0  0  0  0  0  0  0  0  0  0  0
   31.3144  -22.6604   34.8969 C   0  0  0  0  0  0  0  0  0  0  0  0
   30.5040  -23.6049   34.7784 O   0  0  0  0  0  0  0  0  0  0  0  0
   33.1180  -22.8802   33.8907 H   0  0  0  0  0  0  0  0  0  0  0  0
   37.6673  -21.8398   38.7311 C   0  0  0  0  0  0  0  0  0  0  0  0
   38.2494  -23.0283   38.3175 C   0  0  0  0  0  0  0  0  0  0  0  0
   39.3742  -23.5165   38.9474 C   0  0  0  0  0  0  0  0  0  0  0  0
   39.9383  -22.8331   39.9971 C   0  0  0  0  0  0  0  0  0  0  0  0
   39.3679  -21.6610   40.4083 C   0  0  0  0  0  0  0  0  0  0  0  0
   38.2565  -21.1800   39.7849 C   0  0  0  0  0  0  0  0  0  0  0  0
   41.1428  -23.3837   40.6495 C   0  0  0  0  0  0  0  0  0  0  0  0
   41.9073  -24.3791   40.2147 N   0  0  0  0  0  0  0  0  0  0  0  0
   42.8923  -24.5707   41.0881 N   0  0  0  0  0  0  0  0  0  0  0  0
   42.7476  -23.6895   42.0808 N   0  0  0  0  0  0  0  0  0  0  0  0
   41.6665  -22.9594   41.8052 N   0  0  0  0  0  0  0  0  0  0  0  0
   41.3189  -22.1925   42.4160 H   0  0  0  0  0  0  0  0  0  0  0  0
 14 15  1  0  0  0
 15 16  2  0  0  0
 15  7  1  0  0  0
  7  8  1  0  0  0
  8  9  1  0  0  0
  9 10  1  0  0  0
 10 11  1  0  0  0
 11 12  1  0  0  0
 12 13  2  0  0  0
 12  1  1  0  0  0
  1  2  2  0  0  0
  2  3  1  0  0  0
  3  4  2  0  0  0
  4  5  1  0  0  0
  5  6  2  0  0  0
  4 18  1  0  0  0
 18 19  2  0  0  0
 19 20  1  0  0  0
 20 21  2  0  0  0
 21 22  1  0  0  0
 22 23  2  0  0  0
 21 24  1  0  0  0
 24 25  2  0  0  0
 25 26  1  0  0  0
 26 27  2  0  0  0
 27 28  1  0  0  0
 11  7  1  0  0  0
  6  1  1  0  0  0
 23 18  1  0  0  0
 28 24  1  0  0  0
 14 17  1  0  0  0
 28 29  1  0  0  0
M  END
> <minimizedAffinity>
-4.33798

> <CNNscore>
0.4356381297

> <CNNaffinity>
4.1033864021

> <CNN_VS>
1.7875915766

> <CNNaffinity_variance>
0.0682047531

$$$$
[H]OC(=O)[C@@]1([H])N(C(=O)c2c([H])c([H])c(-c3c([H])c([H])c(-c4nnnn4[H])c([H])c3[H])c([H])c2[H])C([H])([H])C([H])([H])C1([H])[H]


 29 32  0  0  0  0  0  0  0  0999 V2000
   31.9050  -22.0880   34.9633 C   0  0  0  0  0  0  0  0  0  0  0  0
   32.3799  -21.8158   36.2631 C   0  0  0  0  0  0  0  0  0  0  0  0
   33.0961  -20.6907   36.5825 C   0  0  0  0  0  0  0  0  0  0  0  0
   33.4007  -19.7432   35.6405 C   0  0  0  0  0  0  0  0  0  0  0  0
   32.9571  -19.9700   34.3672 C   0  0  0  0  0  0  0  0  0  0  0  0
   32.2212  -21.1257   34.0427 C   0  0  0  0  0  0  0  0  0  0  0  0
   29.2183  -23.2259   36.4553 C   0  0  0  0  0  0  0  0  0  0  0  0
   27.7682  -23.5170   35.9597 C   0  0  0  0  0  0  0  0  0  0  0  0
   27.9352  -24.8565   35.3372 C   0  0  0  0  0  0  0  0  0  0  0  0
   29.3929  -25.0461   35.0583 C   0  0  0  0  0  0  0  0  0  0  0  0
   29.9799  -23.7305   35.3915 N   0  0  0  0  0  0  0  0  0  0  0  0
   31.1040  -23.2633   34.7160 C   0  0  0  0  0  0  0  0  0  0  0  0
   31.5190  -23.9888   33.6880 O   0  0  0  0  0  0  0  0  0  0  0  0
   28.2817  -24.0808   38.5834 O   0  0  0  0  0  0  0  0  0  0  0  0
   29.3806  -23.9239   37.7579 C   0  0  0  0  0  0  0  0  0  0  0  0
   30.4771  -24.3813   38.1470 O   0  0  0  0  0  0  0  0  0  0  0  0
   27.6881  -24.8951   38.4693 H   0  0  0  0  0  0  0  0  0  0  0  0
   34.1659  -18.5309   35.9567 C   0  0  0  0  0  0  0  0  0  0  0  0
   33.7379  -17.2835   35.5285 C   0  0  0  0  0  0  0  0  0  0  0  0
   34.4625  -16.1503   35.8300 C   0  0  0  0  0  0  0  0  0  0  0  0
   35.6225  -16.2374   36.5607 C   0  0  0  0  0  0  0  0  0  0  0  0
   36.0483  -17.4650   36.9849 C   0  0  0  0  0  0  0  0  0  0  0  0
   35.3313  -18.5838   36.6862 C   0  0  0  0  0  0  0  0  0  0  0  0
   36.3744  -15.0042   36.8662 C   0  0  0  0  0  0  0  0  0  0  0  0
   35.9848  -13.7524   36.6522 N   0  0  0  0  0  0  0  0  0  0  0  0
   36.9468  -12.9318   37.0654 N   0  0  0  0  0  0  0  0  0  0  0  0
   37.9503  -13.6716   37.5434 N   0  0  0  0  0  0  0  0  0  0  0  0
   37.5919  -14.9498   37.4181 N   0  0  0  0  0  0  0  0  0  0  0  0
   38.1910  -15.7470   37.7139 H   0  0  0  0  0  0  0  0  0  0  0  0
 14 15  1  0  0  0
 15 16  2  0  0  0
 15  7  1  0  0  0
  7  8  1  0  0  0
  8  9  1  0  0  0
  9 10  1  0  0  0
 10 11  1  0  0  0
 11 12  1  0  0  0
 12 13  2  0  0  0
 12  1  1  0  0  0
  1  2  2  0  0  0
  2  3  1  0  0  0
  3  4  2  0  0  0
  4  5  1  0  0  0
  5  6  2  0  0  0
  4 18  1  0  0  0
 18 19  2  0  0  0
 19 20  1  0  0  0
 20 21  2  0  0  0
 21 22  1  0  0  0
 22 23  2  0  0  0
 21 24  1  0  0  0
 24 25  2  0  0  0
 25 26  1  0  0  0
 26 27  2  0  0  0
 27 28  1  0  0  0
 11  7  1  0  0  0
  6  1  1  0  0  0
 23 18  1  0  0  0
 28 24  1  0  0  0
 14 17  1  0  0  0
 28 29  1  0  0  0
M  END
> <minimizedAffinity>
-6.48806

> <CNNscore>
0.4261592329

> <CNNaffinity>
4.4125404358

> <CNN_VS>
1.8804448843

> <CNNaffinity_variance>
0.5117073059

$$$$
[H]O[C@]1([H])[C@]([H])(C([H])([H])O[Si](O[H])(C([H])([H])[H])C(F)(F)F)O[C@@]([H])(n2c([H])nc3c(N([H])[H])nc([H])nc32)[C@]1([H])O[H]


 31 33  0  0  0  0  0  0  0  0999 V2000
   34.0264  -18.0972   35.7570 C   0  0  0  0  0  0  0  0  0  0  0  0
   34.4483  -19.4043   35.8057 O   0  0  0  0  0  0  0  0  0  0  0  0
   33.5632  -20.1734   35.0979 C   0  0  0  0  0  0  0  0  0  0  0  0
   32.7962  -19.2822   34.1730 C   0  0  0  0  0  0  0  0  0  0  0  0
   31.4681  -19.1121   34.5856 O   0  0  0  0  0  0  0  0  0  0  0  0
   33.5670  -17.9630   34.3199 C   0  0  0  0  0  0  0  0  0  0  0  0
   32.7756  -16.8687   34.1018 O   0  0  0  0  0  0  0  0  0  0  0  0
   31.4084  -18.7188   35.4980 H   0  0  0  0  0  0  0  0  0  0  0  0
   31.8682  -17.0237   34.4609 H   0  0  0  0  0  0  0  0  0  0  0  0
   37.7871  -13.5122   36.9403 N   0  0  0  0  0  0  0  0  0  0  0  0
   36.4802  -13.9815   36.7028 C   0  0  0  0  0  0  0  0  0  0  0  0
   35.3831  -13.2030   36.6845 N   0  0  0  0  0  0  0  0  0  0  0  0
   34.1470  -13.6824   36.4543 C   0  0  0  0  0  0  0  0  0  0  0  0
   33.9692  -14.9966   36.2289 N   0  0  0  0  0  0  0  0  0  0  0  0
   35.0132  -15.8187   36.2336 C   0  0  0  0  0  0  0  0  0  0  0  0
   35.0675  -17.1468   36.0353 N   0  0  0  0  0  0  0  0  0  0  0  0
   36.3665  -17.4772   36.1483 C   0  0  0  0  0  0  0  0  0  0  0  0
   37.1048  -16.3837   36.4105 N   0  0  0  0  0  0  0  0  0  0  0  0
   36.2993  -15.3317   36.4713 C   0  0  0  0  0  0  0  0  0  0  0  0
   38.6377  -13.8692   36.4488 H   0  0  0  0  0  0  0  0  0  0  0  0
   37.9365  -12.7610   37.6480 H   0  0  0  0  0  0  0  0  0  0  0  0
   32.6271  -20.9582   36.0223 C   0  0  0  0  0  0  0  0  0  0  0  0
   32.8501  -20.5683   37.3568 O   0  0  0  0  0  0  0  0  0  0  0  0
   34.0841  -21.4704   38.0831 Si  0  0  0  0  0  0  0  0  0  0  0  0
   33.3426  -22.8923   39.0653 C   0  0  0  0  0  0  0  0  0  0  0  0
   35.1432  -22.1301   36.9200 O   0  0  0  0  0  0  0  0  0  0  0  0
   35.9100  -21.5375   36.7107 H   0  0  0  0  0  0  0  0  0  0  0  0
   35.0985  -20.4453   39.2726 C   0  0  0  0  0  0  0  0  0  0  0  0
   35.3293  -19.1830   38.7789 F   0  0  0  0  0  0  0  0  0  0  0  0
   34.5118  -20.3981   40.5322 F   0  0  0  0  0  0  0  0  0  0  0  0
   36.3455  -21.0416   39.4343 F   0  0  0  0  0  0  0  0  0  0  0  0
 10 11  1  0  0  0
 11 12  2  0  0  0
 12 13  1  0  0  0
 13 14  2  0  0  0
 14 15  1  0  0  0
 15 16  1  0  0  0
 16 17  1  0  0  0
 17 18  2  0  0  0
 18 19  1  0  0  0
 16  1  1  0  0  0
  1  2  1  0  0  0
  2  3  1  0  0  0
  3 22  1  0  0  0
 22 23  1  0  0  0
 23 24  1  0  0  0
 24 25  1  0  0  0
 24 26  1  0  0  0
 24 28  1  0  0  0
 28 29  1  0  0  0
 28 30  1  0  0  0
 28 31  1  0  0  0
  3  4  1  0  0  0
  4  5  1  0  0  0
  4  6  1  0  0  0
  6  7  1  0  0  0
 19 11  1  0  0  0
  6  1  1  0  0  0
 19 15  2  0  0  0
 10 20  1  0  0  0
 10 21  1  0  0  0
 26 27  1  0  0  0
  5  8  1  0  0  0
  7  9  1  0  0  0
M  END
> <minimizedAffinity>
-6.31964

> <CNNscore>
0.5852143764

> <CNNaffinity>
4.3681077957

> <CNN_VS>
2.5562794209

> <CNNaffinity_variance>
0.6377614737

$$$$
[H]O[C@]1([H])[C@]([H])(C([H])([H])O[Si](O[H])(C([H])([H])[H])C(F)(F)F)O[C@@]([H])(n2c([H])nc3c(N([H])[H])nc([H])nc32)[C@]1([H])O[H]


 31 33  0  0  0  0  0  0  0  0999 V2000
   33.9884  -18.0159   35.9090 C   0  0  0  0  0  0  0  0  0  0  0  0
   34.3192  -19.3355   36.1046 O   0  0  0  0  0  0  0  0  0  0  0  0
   33.4503  -20.1126   35.3857 C   0  0  0  0  0  0  0  0  0  0  0  0
   32.8247  -19.2647   34.3238 C   0  0  0  0  0  0  0  0  0  0  0  0
   31.4798  -18.9833   34.5981 O   0  0  0  0  0  0  0  0  0  0  0  0
   33.6636  -17.9837   34.4299 C   0  0  0  0  0  0  0  0  0  0  0  0
   32.9663  -16.8698   34.0502 O   0  0  0  0  0  0  0  0  0  0  0  0
   31.3677  -18.5078   35.4654 H   0  0  0  0  0  0  0  0  0  0  0  0
   32.0233  -16.9403   34.3369 H   0  0  0  0  0  0  0  0  0  0  0  0
   37.9134  -13.5692   37.0863 N   0  0  0  0  0  0  0  0  0  0  0  0
   36.5986  -13.9845   36.7973 C   0  0  0  0  0  0  0  0  0  0  0  0
   35.5463  -13.1545   36.6801 N   0  0  0  0  0  0  0  0  0  0  0  0
   34.3012  -13.5832   36.4030 C   0  0  0  0  0  0  0  0  0  0  0  0
   34.0676  -14.8966   36.2300 N   0  0  0  0  0  0  0  0  0  0  0  0
   35.0655  -15.7680   36.3328 C   0  0  0  0  0  0  0  0  0  0  0  0
   35.0611  -17.1055   36.2007 N   0  0  0  0  0  0  0  0  0  0  0  0
   36.3329  -17.4936   36.4028 C   0  0  0  0  0  0  0  0  0  0  0  0
   37.1120  -16.4262   36.6547 N   0  0  0  0  0  0  0  0  0  0  0  0
   36.3604  -15.3340   36.6199 C   0  0  0  0  0  0  0  0  0  0  0  0
   38.7697  -13.9920   36.6612 H   0  0  0  0  0  0  0  0  0  0  0  0
   38.0632  -12.7918   37.7650 H   0  0  0  0  0  0  0  0  0  0  0  0
   32.3896  -20.7577   36.2831 C   0  0  0  0  0  0  0  0  0  0  0  0
   31.7494  -21.7967   35.5808 O   0  0  0  0  0  0  0  0  0  0  0  0
   30.4514  -22.4450   36.4520 Si  0  0  0  0  0  0  0  0  0  0  0  0
   30.3252  -24.2933   36.1296 C   0  0  0  0  0  0  0  0  0  0  0  0
   30.6490  -22.2158   38.1307 O   0  0  0  0  0  0  0  0  0  0  0  0
   30.2472  -21.3709   38.4586 H   0  0  0  0  0  0  0  0  0  0  0  0
   28.8187  -21.6831   35.9532 C   0  0  0  0  0  0  0  0  0  0  0  0
   29.0003  -20.6038   35.1211 F   0  0  0  0  0  0  0  0  0  0  0  0
   27.9699  -22.6256   35.3839 F   0  0  0  0  0  0  0  0  0  0  0  0
   28.1772  -21.2026   37.0909 F   0  0  0  0  0  0  0  0  0  0  0  0
 10 11  1  0  0  0
 11 12  2  0  0  0
 12 13  1  0  0  0
 13 14  2  0  0  0
 14 15  1  0  0  0
 15 16  1  0  0  0
 16 17  1  0  0  0
 17 18  2  0  0  0
 18 19  1  0  0  0
 16  1  1  0  0  0
  1  2  1  0  0  0
  2  3  1  0  0  0
  3 22  1  0  0  0
 22 23  1  0  0  0
 23 24  1  0  0  0
 24 25  1  0  0  0
 24 26  1  0  0  0
 24 28  1  0  0  0
 28 29  1  0  0  0
 28 30  1  0  0  0
 28 31  1  0  0  0
  3  4  1  0  0  0
  4  5  1  0  0  0
  4  6  1  0  0  0
  6  7  1  0  0  0
 19 11  1  0  0  0
  6  1  1  0  0  0
 19 15  2  0  0  0
 10 20  1  0  0  0
 10 21  1  0  0  0
 26 27  1  0  0  0
  5  8  1  0  0  0
  7  9  1  0  0  0
M  END
> <minimizedAffinity>
-6.82425

> <CNNscore>
0.4532022476

> <CNNaffinity>
4.2027549744

> <CNN_VS>
1.9046980143

> <CNNaffinity_variance>
0.4610474110

$$$$
[H]O[C@]1([H])[C@]([H])(C([H])([H])O[Si](O[H])(C([H])([H])[H])C(F)(F)F)O[C@@]([H])(n2c([H])nc3c(N([H])[H])nc([H])nc32)[C@]1([H])O[H]


 31 33  0  0  0  0  0  0  0  0999 V2000
   36.3100  -18.0310   35.7169 C   0  0  0  0  0  0  0  0  0  0  0  0
   37.2517  -18.1739   36.7077 O   0  0  0  0  0  0  0  0  0  0  0  0
   38.2440  -18.9989   36.2487 C   0  0  0  0  0  0  0  0  0  0  0  0
   38.1840  -19.0249   34.7542 C   0  0  0  0  0  0  0  0  0  0  0  0
   37.7013  -20.2468   34.2671 O   0  0  0  0  0  0  0  0  0  0  0  0
   37.1687  -17.9081   34.4751 C   0  0  0  0  0  0  0  0  0  0  0  0
   36.4763  -18.1102   33.3128 O   0  0  0  0  0  0  0  0  0  0  0  0
   36.7878  -20.4490   34.6068 H   0  0  0  0  0  0  0  0  0  0  0  0
   36.2909  -19.0724   33.1860 H   0  0  0  0  0  0  0  0  0  0  0  0
   33.5604  -12.7254   36.6416 N   0  0  0  0  0  0  0  0  0  0  0  0
   34.7275  -13.5131   36.6859 C   0  0  0  0  0  0  0  0  0  0  0  0
   35.9279  -13.0729   37.1046 N   0  0  0  0  0  0  0  0  0  0  0  0
   37.0251  -13.8515   37.1350 C   0  0  0  0  0  0  0  0  0  0  0  0
   36.9485  -15.1333   36.7342 N   0  0  0  0  0  0  0  0  0  0  0  0
   35.7909  -15.6285   36.3094 C   0  0  0  0  0  0  0  0  0  0  0  0
   35.4888  -16.8619   35.8692 N   0  0  0  0  0  0  0  0  0  0  0  0
   34.1788  -16.8275   35.5659 C   0  0  0  0  0  0  0  0  0  0  0  0
   33.6754  -15.6041   35.8103 N   0  0  0  0  0  0  0  0  0  0  0  0
   34.6471  -14.8297   36.2739 C   0  0  0  0  0  0  0  0  0  0  0  0
   32.6051  -13.0771   36.8790 H   0  0  0  0  0  0  0  0  0  0  0  0
   33.6330  -11.7251   36.3561 H   0  0  0  0  0  0  0  0  0  0  0  0
   38.1283  -20.4083   36.8375 C   0  0  0  0  0  0  0  0  0  0  0  0
   38.4818  -20.3781   38.2002 O   0  0  0  0  0  0  0  0  0  0  0  0
   40.1477  -20.5709   38.4273 Si  0  0  0  0  0  0  0  0  0  0  0  0
   40.7586  -22.0550   37.4473 C   0  0  0  0  0  0  0  0  0  0  0  0
   41.0132  -19.1991   37.8992 O   0  0  0  0  0  0  0  0  0  0  0  0
   41.1495  -18.5255   38.6138 H   0  0  0  0  0  0  0  0  0  0  0  0
   40.5831  -20.8738   40.2200 C   0  0  0  0  0  0  0  0  0  0  0  0
   41.0980  -22.1349   40.4067 F   0  0  0  0  0  0  0  0  0  0  0  0
   41.4444  -19.8968   40.7067 F   0  0  0  0  0  0  0  0  0  0  0  0
   39.4234  -20.8021   40.9858 F   0  0  0  0  0  0  0  0  0  0  0  0
 10 11  1  0  0  0
 11 12  2  0  0  0
 12 13  1  0  0  0
 13 14  2  0  0  0
 14 15  1  0  0  0
 15 16  1  0  0  0
 16 17  1  0  0  0
 17 18  2  0  0  0
 18 19  1  0  0  0
 16  1  1  0  0  0
  1  2  1  0  0  0
  2  3  1  0  0  0
  3 22  1  0  0  0
 22 23  1  0  0  0
 23 24  1  0  0  0
 24 25  1  0  0  0
 24 26  1  0  0  0
 24 28  1  0  0  0
 28 29  1  0  0  0
 28 30  1  0  0  0
 28 31  1  0  0  0
  3  4  1  0  0  0
  4  5  1  0  0  0
  4  6  1  0  0  0
  6  7  1  0  0  0
 19 11  1  0  0  0
  6  1  1  0  0  0
 19 15  2  0  0  0
 10 20  1  0  0  0
 10 21  1  0  0  0
 26 27  1  0  0  0
  5  8  1  0  0  0
  7  9  1  0  0  0
M  END
> <minimizedAffinity>
-6.16777

> <CNNscore>
0.3969744146

> <CNNaffinity>
4.0010771751

> <CNN_VS>
1.5883252621

> <CNNaffinity_variance>
0.6059269905

$$$$
[H]O[C@]1([H])[C@]([H])(C([H])([H])O[Si](O[H])(C([H])([H])[H])C(F)(F)F)O[C@@]([H])(n2c([H])nc3c(N([H])[H])nc([H])nc32)[C@]1([H])O[H]


 31 33  0  0  0  0  0  0  0  0999 V2000
   33.8800  -17.8651   35.9524 C   0  0  0  0  0  0  0  0  0  0  0  0
   34.1565  -19.1989   36.1355 O   0  0  0  0  0  0  0  0  0  0  0  0
   33.2450  -19.9335   35.4246 C   0  0  0  0  0  0  0  0  0  0  0  0
   32.6415  -19.0526   34.3767 C   0  0  0  0  0  0  0  0  0  0  0  0
   31.3139  -18.7156   34.6719 O   0  0  0  0  0  0  0  0  0  0  0  0
   33.5361  -17.8095   34.4782 C   0  0  0  0  0  0  0  0  0  0  0  0
   32.8819  -16.6643   34.1151 O   0  0  0  0  0  0  0  0  0  0  0  0
   31.2345  -18.2414   35.5434 H   0  0  0  0  0  0  0  0  0  0  0  0
   31.9409  -16.6962   34.4149 H   0  0  0  0  0  0  0  0  0  0  0  0
   38.0083  -13.5984   37.1002 N   0  0  0  0  0  0  0  0  0  0  0  0
   36.6728  -13.9552   36.8282 C   0  0  0  0  0  0  0  0  0  0  0  0
   35.6553  -13.0803   36.7322 N   0  0  0  0  0  0  0  0  0  0  0  0
   34.3891  -13.4534   36.4710 C   0  0  0  0  0  0  0  0  0  0  0  0
   34.0971  -14.7544   36.2928 N   0  0  0  0  0  0  0  0  0  0  0  0
   35.0582  -15.6683   36.3749 C   0  0  0  0  0  0  0  0  0  0  0  0
   34.9947  -17.0034   36.2341 N   0  0  0  0  0  0  0  0  0  0  0  0
   36.2516  -17.4469   36.4144 C   0  0  0  0  0  0  0  0  0  0  0  0
   37.0792  -16.4155   36.6617 N   0  0  0  0  0  0  0  0  0  0  0  0
   36.3745  -15.2920   36.6455 C   0  0  0  0  0  0  0  0  0  0  0  0
   38.8394  -14.0542   36.6595 H   0  0  0  0  0  0  0  0  0  0  0  0
   38.2010  -12.8331   37.7817 H   0  0  0  0  0  0  0  0  0  0  0  0
   32.1703  -20.5382   36.3333 C   0  0  0  0  0  0  0  0  0  0  0  0
   32.7063  -20.7486   37.6183 O   0  0  0  0  0  0  0  0  0  0  0  0
   32.4130  -22.3185   38.1782 Si  0  0  0  0  0  0  0  0  0  0  0  0
   33.3499  -22.6100   39.7824 C   0  0  0  0  0  0  0  0  0  0  0  0
   30.7542  -22.5732   38.4838 O   0  0  0  0  0  0  0  0  0  0  0  0
   30.2631  -22.9269   37.6985 H   0  0  0  0  0  0  0  0  0  0  0  0
   32.9821  -23.6178   36.9605 C   0  0  0  0  0  0  0  0  0  0  0  0
   32.0882  -23.7641   35.9261 F   0  0  0  0  0  0  0  0  0  0  0  0
   34.2626  -23.3487   36.4904 F   0  0  0  0  0  0  0  0  0  0  0  0
   33.0440  -24.8483   37.6076 F   0  0  0  0  0  0  0  0  0  0  0  0
 10 11  1  0  0  0
 11 12  2  0  0  0
 12 13  1  0  0  0
 13 14  2  0  0  0
 14 15  1  0  0  0
 15 16  1  0  0  0
 16 17  1  0  0  0
 17 18  2  0  0  0
 18 19  1  0  0  0
 16  1  1  0  0  0
  1  2  1  0  0  0
  2  3  1  0  0  0
  3 22  1  0  0  0
 22 23  1  0  0  0
 23 24  1  0  0  0
 24 25  1  0  0  0
 24 26  1  0  0  0
 24 28  1  0  0  0
 28 29  1  0  0  0
 28 30  1  0  0  0
 28 31  1  0  0  0
  3  4  1  0  0  0
  4  5  1  0  0  0
  4  6  1  0  0  0
  6  7  1  0  0  0
 19 11  1  0  0  0
  6  1  1  0  0  0
 19 15  2  0  0  0
 10 20  1  0  0  0
 10 21  1  0  0  0
 26 27  1  0  0  0
  5  8  1  0  0  0
  7  9  1  0  0  0
M  END
> <minimizedAffinity>
-6.15649

> <CNNscore>
0.3416549265

> <CNNaffinity>
3.9843735695

> <CNN_VS>
1.3612809181

> <CNNaffinity_variance>
0.8902583122

$$$$
[H]O[C@]1([H])[C@]([H])(C([H])([H])O[Si](O[H])(C([H])([H])[H])C(F)(F)F)O[C@@]([H])(n2c([H])nc3c(N([H])[H])nc([H])nc32)[C@]1([H])O[H]


 31 33  0  0  0  0  0  0  0  0999 V2000
   36.2950  -18.0285   35.6948 C   0  0  0  0  0  0  0  0  0  0  0  0
   37.2355  -18.1678   36.6872 O   0  0  0  0  0  0  0  0  0  0  0  0
   38.2308  -18.9905   36.2305 C   0  0  0  0  0  0  0  0  0  0  0  0
   38.1731  -19.0182   34.7360 C   0  0  0  0  0  0  0  0  0  0  0  0
   37.6946  -20.2420   34.2494 O   0  0  0  0  0  0  0  0  0  0  0  0
   37.1552  -17.9045   34.4543 C   0  0  0  0  0  0  0  0  0  0  0  0
   36.4651  -18.1097   33.2911 O   0  0  0  0  0  0  0  0  0  0  0  0
   36.7812  -20.4463   34.5879 H   0  0  0  0  0  0  0  0  0  0  0  0
   36.2826  -19.0725   33.1650 H   0  0  0  0  0  0  0  0  0  0  0  0
   33.5289  -12.7302   36.6117 N   0  0  0  0  0  0  0  0  0  0  0  0
   34.6979  -13.5149   36.6597 C   0  0  0  0  0  0  0  0  0  0  0  0
   35.8957  -13.0718   37.0823 N   0  0  0  0  0  0  0  0  0  0  0  0
   36.9948  -13.8475   37.1161 C   0  0  0  0  0  0  0  0  0  0  0  0
   36.9228  -15.1294   36.7148 N   0  0  0  0  0  0  0  0  0  0  0  0
   35.7678  -15.6275   36.2862 C   0  0  0  0  0  0  0  0  0  0  0  0
   35.4703  -16.8615   35.8447 N   0  0  0  0  0  0  0  0  0  0  0  0
   34.1612  -16.8304   35.5372 C   0  0  0  0  0  0  0  0  0  0  0  0
   33.6539  -15.6084   35.7802 N   0  0  0  0  0  0  0  0  0  0  0  0
   34.6222  -14.8316   36.2471 C   0  0  0  0  0  0  0  0  0  0  0  0
   32.5737  -13.0843   36.8459 H   0  0  0  0  0  0  0  0  0  0  0  0
   33.5999  -11.7296   36.3267 H   0  0  0  0  0  0  0  0  0  0  0  0
   38.1182  -20.3997   36.8206 C   0  0  0  0  0  0  0  0  0  0  0  0
   37.9484  -20.3121   38.2157 O   0  0  0  0  0  0  0  0  0  0  0  0
   36.6836  -21.2942   38.7633 Si  0  0  0  0  0  0  0  0  0  0  0  0
   36.1001  -22.4185   37.3734 C   0  0  0  0  0  0  0  0  0  0  0  0
   37.1765  -22.2796   40.0655 O   0  0  0  0  0  0  0  0  0  0  0  0
   37.0277  -21.8587   40.9507 H   0  0  0  0  0  0  0  0  0  0  0  0
   35.2070  -20.2934   39.3228 C   0  0  0  0  0  0  0  0  0  0  0  0
   34.0299  -20.8294   38.8565 F   0  0  0  0  0  0  0  0  0  0  0  0
   35.1855  -20.1473   40.7053 F   0  0  0  0  0  0  0  0  0  0  0  0
   35.2990  -19.0125   38.7866 F   0  0  0  0  0  0  0  0  0  0  0  0
 10 11  1  0  0  0
 11 12  2  0  0  0
 12 13  1  0  0  0
 13 14  2  0  0  0
 14 15  1  0  0  0
 15 16  1  0  0  0
 16 17  1  0  0  0
 17 18  2  0  0  0
 18 19  1  0  0  0
 16  1  1  0  0  0
  1  2  1  0  0  0
  2  3  1  0  0  0
  3 22  1  0  0  0
 22 23  1  0  0  0
 23 24  1  0  0  0
 24 25  1  0  0  0
 24 26  1  0  0  0
 24 28  1  0  0  0
 28 29  1  0  0  0
 28 30  1  0  0  0
 28 31  1  0  0  0
  3  4  1  0  0  0
  4  5  1  0  0  0
  4  6  1  0  0  0
  6  7  1  0  0  0
 19 11  1  0  0  0
  6  1  1  0  0  0
 19 15  2  0  0  0
 10 20  1  0  0  0
 10 21  1  0  0  0
 26 27  1  0  0  0
  5  8  1  0  0  0
  7  9  1  0  0  0
M  END
> <minimizedAffinity>
-6.42315

> <CNNscore>
0.2729645967

> <CNNaffinity>
4.1230087280

> <CNN_VS>
1.1254354715

> <CNNaffinity_variance>
0.7232971191

$$$$
[H]O[C@]1([H])[C@]([H])(C([H])([H])O[Si](O[H])(C([H])([H])[H])C(F)(F)F)O[C@@]([H])(n2c([H])nc3c(N([H])[H])nc([H])nc32)[C@]1([H])O[H]


 31 33  0  0  0  0  0  0  0  0999 V2000
   35.5947  -17.8224   36.4146 C   0  0  0  0  0  0  0  0  0  0  0  0
   36.0398  -18.1764   37.6658 O   0  0  0  0  0  0  0  0  0  0  0  0
   36.8148  -19.2997   37.5499 C   0  0  0  0  0  0  0  0  0  0  0  0
   37.2696  -19.4161   36.1294 C   0  0  0  0  0  0  0  0  0  0  0  0
   36.6254  -20.4609   35.4536 O   0  0  0  0  0  0  0  0  0  0  0  0
   36.8211  -18.0636   35.5590 C   0  0  0  0  0  0  0  0  0  0  0  0
   36.5466  -18.1265   34.2204 O   0  0  0  0  0  0  0  0  0  0  0  0
   35.6369  -20.3445   35.4427 H   0  0  0  0  0  0  0  0  0  0  0  0
   36.1228  -18.9906   33.9966 H   0  0  0  0  0  0  0  0  0  0  0  0
   34.6256  -11.8539   36.3618 N   0  0  0  0  0  0  0  0  0  0  0  0
   35.4595  -12.9469   36.6697 C   0  0  0  0  0  0  0  0  0  0  0  0
   36.6780  -12.8409   37.2301 N   0  0  0  0  0  0  0  0  0  0  0  0
   37.4510  -13.9057   37.5121 C   0  0  0  0  0  0  0  0  0  0  0  0
   37.0114  -15.1458   37.2319 N   0  0  0  0  0  0  0  0  0  0  0  0
   35.8160  -15.3176   36.6778 C   0  0  0  0  0  0  0  0  0  0  0  0
   35.1853  -16.4486   36.3179 N   0  0  0  0  0  0  0  0  0  0  0  0
   34.0042  -16.0578   35.8067 C   0  0  0  0  0  0  0  0  0  0  0  0
   33.8995  -14.7172   35.8461 N   0  0  0  0  0  0  0  0  0  0  0  0
   35.0065  -14.2201   36.3813 C   0  0  0  0  0  0  0  0  0  0  0  0
   33.5866  -11.8574   36.4764 H   0  0  0  0  0  0  0  0  0  0  0  0
   35.0529  -10.9763   35.9950 H   0  0  0  0  0  0  0  0  0  0  0  0
   36.0644  -20.5565   38.0015 C   0  0  0  0  0  0  0  0  0  0  0  0
   36.9915  -21.5649   38.3276 O   0  0  0  0  0  0  0  0  0  0  0  0
   36.6330  -23.0286   37.5574 Si  0  0  0  0  0  0  0  0  0  0  0  0
   34.7885  -23.1304   37.2058 C   0  0  0  0  0  0  0  0  0  0  0  0
   37.4605  -23.1726   36.0728 O   0  0  0  0  0  0  0  0  0  0  0  0
   38.3446  -23.6127   36.1606 H   0  0  0  0  0  0  0  0  0  0  0  0
   37.0780  -24.5064   38.6125 C   0  0  0  0  0  0  0  0  0  0  0  0
   38.4065  -24.4905   38.9662 F   0  0  0  0  0  0  0  0  0  0  0  0
   36.2564  -24.5997   39.7302 F   0  0  0  0  0  0  0  0  0  0  0  0
   36.8791  -25.6676   37.8718 F   0  0  0  0  0  0  0  0  0  0  0  0
 10 11  1  0  0  0
 11 12  2  0  0  0
 12 13  1  0  0  0
 13 14  2  0  0  0
 14 15  1  0  0  0
 15 16  1  0  0  0
 16 17  1  0  0  0
 17 18  2  0  0  0
 18 19  1  0  0  0
 16  1  1  0  0  0
  1  2  1  0  0  0
  2  3  1  0  0  0
  3 22  1  0  0  0
 22 23  1  0  0  0
 23 24  1  0  0  0
 24 25  1  0  0  0
 24 26  1  0  0  0
 24 28  1  0  0  0
 28 29  1  0  0  0
 28 30  1  0  0  0
 28 31  1  0  0  0
  3  4  1  0  0  0
  4  5  1  0  0  0
  4  6  1  0  0  0
  6  7  1  0  0  0
 19 11  1  0  0  0
  6  1  1  0  0  0
 19 15  2  0  0  0
 10 20  1  0  0  0
 10 21  1  0  0  0
 26 27  1  0  0  0
  5  8  1  0  0  0
  7  9  1  0  0  0
M  END
> <minimizedAffinity>
-5.52150

> <CNNscore>
0.2658792138

> <CNNaffinity>
3.9110946655

> <CNN_VS>
1.0398787260

> <CNNaffinity_variance>
0.6939572096

$$$$
[H]O[C@]1([H])[C@]([H])(C([H])([H])O[Si](O[H])(C([H])([H])[H])C(F)(F)F)O[C@@]([H])(n2c([H])nc3c(N([H])[H])nc([H])nc32)[C@]1([H])O[H]


 31 33  0  0  0  0  0  0  0  0999 V2000
   34.1428  -19.1302   34.9874 C   0  0  0  0  0  0  0  0  0  0  0  0
   33.7283  -20.0354   34.0399 O   0  0  0  0  0  0  0  0  0  0  0  0
   32.3902  -19.8480   33.8156 C   0  0  0  0  0  0  0  0  0  0  0  0
   32.0187  -18.4780   34.2878 C   0  0  0  0  0  0  0  0  0  0  0  0
   31.2543  -18.5142   35.4616 O   0  0  0  0  0  0  0  0  0  0  0  0
   33.4004  -17.8753   34.5768 C   0  0  0  0  0  0  0  0  0  0  0  0
   33.3597  -16.9220   35.5572 O   0  0  0  0  0  0  0  0  0  0  0  0
   31.7354  -18.9670   36.2061 H   0  0  0  0  0  0  0  0  0  0  0  0
   32.7080  -17.1748   36.2555 H   0  0  0  0  0  0  0  0  0  0  0  0
   40.1273  -18.5852   35.6605 N   0  0  0  0  0  0  0  0  0  0  0  0
   38.8917  -19.0752   36.1272 C   0  0  0  0  0  0  0  0  0  0  0  0
   38.7349  -19.8000   37.2497 N   0  0  0  0  0  0  0  0  0  0  0  0
   37.5394  -20.2539   37.6689 C   0  0  0  0  0  0  0  0  0  0  0  0
   36.4325  -19.9862   36.9531 N   0  0  0  0  0  0  0  0  0  0  0  0
   36.5207  -19.2747   35.8343 C   0  0  0  0  0  0  0  0  0  0  0  0
   35.5600  -18.8939   34.9750 N   0  0  0  0  0  0  0  0  0  0  0  0
   36.1898  -18.1939   34.0145 C   0  0  0  0  0  0  0  0  0  0  0  0
   37.5100  -18.1387   34.2672 N   0  0  0  0  0  0  0  0  0  0  0  0
   37.7555  -18.7993   35.3907 C   0  0  0  0  0  0  0  0  0  0  0  0
   40.2565  -17.6502   35.2113 H   0  0  0  0  0  0  0  0  0  0  0  0
   40.9795  -19.1780   35.7603 H   0  0  0  0  0  0  0  0  0  0  0  0
   31.5432  -20.9245   34.5013 C   0  0  0  0  0  0  0  0  0  0  0  0
   31.9765  -21.0861   35.8313 O   0  0  0  0  0  0  0  0  0  0  0  0
   31.0557  -22.2371   36.6626 Si  0  0  0  0  0  0  0  0  0  0  0  0
   31.3759  -23.9475   35.9496 C   0  0  0  0  0  0  0  0  0  0  0  0
   31.4527  -22.2756   38.3211 O   0  0  0  0  0  0  0  0  0  0  0  0
   30.8986  -21.6624   38.8688 H   0  0  0  0  0  0  0  0  0  0  0  0
   29.2209  -21.9104   36.5153 C   0  0  0  0  0  0  0  0  0  0  0  0
   28.7060  -22.4441   35.3575 F   0  0  0  0  0  0  0  0  0  0  0  0
   28.5315  -22.3649   37.6339 F   0  0  0  0  0  0  0  0  0  0  0  0
   29.0099  -20.5366   36.4464 F   0  0  0  0  0  0  0  0  0  0  0  0
 10 11  1  0  0  0
 11 12  2  0  0  0
 12 13  1  0  0  0
 13 14  2  0  0  0
 14 15  1  0  0  0
 15 16  1  0  0  0
 16 17  1  0  0  0
 17 18  2  0  0  0
 18 19  1  0  0  0
 16  1  1  0  0  0
  1  2  1  0  0  0
  2  3  1  0  0  0
  3 22  1  0  0  0
 22 23  1  0  0  0
 23 24  1  0  0  0
 24 25  1  0  0  0
 24 26  1  0  0  0
 24 28  1  0  0  0
 28 29  1  0  0  0
 28 30  1  0  0  0
 28 31  1  0  0  0
  3  4  1  0  0  0
  4  5  1  0  0  0
  4  6  1  0  0  0
  6  7  1  0  0  0
 19 11  1  0  0  0
  6  1  1  0  0  0
 19 15  2  0  0  0
 10 20  1  0  0  0
 10 21  1  0  0  0
 26 27  1  0  0  0
  5  8  1  0  0  0
  7  9  1  0  0  0
M  END
> <minimizedAffinity>
-5.99268

> <CNNscore>
0.2582370639

> <CNNaffinity>
3.9069905281

> <CNN_VS>
1.0089297295

> <CNNaffinity_variance>
0.5382927656

$$$$
[H]O[C@]1([H])[C@]([H])(C([H])([H])O[Si](O[H])(C([H])([H])[H])C(F)(F)F)O[C@@]([H])(n2c([H])nc3c(N([H])[H])nc([H])nc32)[C@]1([H])O[H]


 31 33  0  0  0  0  0  0  0  0999 V2000
   36.5224  -18.2659   36.9295 C   0  0  0  0  0  0  0  0  0  0  0  0
   37.1881  -18.7505   35.8291 O   0  0  0  0  0  0  0  0  0  0  0  0
   37.4796  -20.0714   36.0443 C   0  0  0  0  0  0  0  0  0  0  0  0
   36.5735  -20.5872   37.1170 C   0  0  0  0  0  0  0  0  0  0  0  0
   37.2551  -20.8106   38.3206 O   0  0  0  0  0  0  0  0  0  0  0  0
   35.5964  -19.4140   37.2742 C   0  0  0  0  0  0  0  0  0  0  0  0
   35.0764  -19.3331   38.5369 O   0  0  0  0  0  0  0  0  0  0  0  0
   37.6849  -19.9816   38.6651 H   0  0  0  0  0  0  0  0  0  0  0  0
   35.7600  -19.5789   39.2066 H   0  0  0  0  0  0  0  0  0  0  0  0
   33.9647  -12.8408   36.1603 N   0  0  0  0  0  0  0  0  0  0  0  0
   35.0445  -13.6212   36.6184 C   0  0  0  0  0  0  0  0  0  0  0  0
   36.1499  -13.1238   37.2020 N   0  0  0  0  0  0  0  0  0  0  0  0
   37.1651  -13.8969   37.6293 C   0  0  0  0  0  0  0  0  0  0  0  0
   37.0996  -15.2321   37.4794 N   0  0  0  0  0  0  0  0  0  0  0  0
   36.0338  -15.7852   36.9103 C   0  0  0  0  0  0  0  0  0  0  0  0
   35.7601  -17.0775   36.6625 N   0  0  0  0  0  0  0  0  0  0  0  0
   34.5517  -17.0851   36.0719 C   0  0  0  0  0  0  0  0  0  0  0  0
   34.0825  -15.8299   35.9537 N   0  0  0  0  0  0  0  0  0  0  0  0
   34.9756  -14.9926   36.4637 C   0  0  0  0  0  0  0  0  0  0  0  0
   32.9612  -13.1218   36.2409 H   0  0  0  0  0  0  0  0  0  0  0  0
   34.1581  -11.9208   35.7091 H   0  0  0  0  0  0  0  0  0  0  0  0
   38.9529  -20.2752   36.4111 C   0  0  0  0  0  0  0  0  0  0  0  0
   39.7637  -19.5488   35.5180 O   0  0  0  0  0  0  0  0  0  0  0  0
   40.8163  -20.5551   34.6557 Si  0  0  0  0  0  0  0  0  0  0  0  0
   41.0658  -19.8798   32.9184 C   0  0  0  0  0  0  0  0  0  0  0  0
   42.3445  -20.6515   35.4073 O   0  0  0  0  0  0  0  0  0  0  0  0
   42.4123  -21.3963   36.0582 H   0  0  0  0  0  0  0  0  0  0  0  0
   40.1465  -22.2920   34.4838 C   0  0  0  0  0  0  0  0  0  0  0  0
   40.8843  -23.0296   33.5883 F   0  0  0  0  0  0  0  0  0  0  0  0
   40.0607  -22.9288   35.7167 F   0  0  0  0  0  0  0  0  0  0  0  0
   38.8527  -22.2298   33.9749 F   0  0  0  0  0  0  0  0  0  0  0  0
 10 11  1  0  0  0
 11 12  2  0  0  0
 12 13  1  0  0  0
 13 14  2  0  0  0
 14 15  1  0  0  0
 15 16  1  0  0  0
 16 17  1  0  0  0
 17 18  2  0  0  0
 18 19  1  0  0  0
 16  1  1  0  0  0
  1  2  1  0  0  0
  2  3  1  0  0  0
  3 22  1  0  0  0
 22 23  1  0  0  0
 23 24  1  0  0  0
 24 25  1  0  0  0
 24 26  1  0  0  0
 24 28  1  0  0  0
 28 29  1  0  0  0
 28 30  1  0  0  0
 28 31  1  0  0  0
  3  4  1  0  0  0
  4  5  1  0  0  0
  4  6  1  0  0  0
  6  7  1  0  0  0
 19 11  1  0  0  0
  6  1  1  0  0  0
 19 15  2  0  0  0
 10 20  1  0  0  0
 10 21  1  0  0  0
 26 27  1  0  0  0
  5  8  1  0  0  0
  7  9  1  0  0  0
M  END
> <minimizedAffinity>
-5.64845

> <CNNscore>
0.2461775988

> <CNNaffinity>
3.8385505676

> <CNN_VS>
0.9449651837

> <CNNaffinity_variance>
0.6332224011

$$$$
[H]O[C@]1([H])[C@]([H])(C([H])([H])O[Si](O[H])(C([H])([H])[H])C(F)(F)F)O[C@@]([H])(n2c([H])nc3c(N([H])[H])nc([H])nc32)[C@]1([H])O[H]


 31 33  0  0  0  0  0  0  0  0999 V2000
   33.2021  -19.6835   35.6452 C   0  0  0  0  0  0  0  0  0  0  0  0
   32.6764  -18.5077   36.1249 O   0  0  0  0  0  0  0  0  0  0  0  0
   33.0823  -17.4852   35.3091 C   0  0  0  0  0  0  0  0  0  0  0  0
   33.5025  -18.0659   33.9961 C   0  0  0  0  0  0  0  0  0  0  0  0
   34.8918  -18.0215   33.8204 O   0  0  0  0  0  0  0  0  0  0  0  0
   33.0365  -19.5204   34.1484 C   0  0  0  0  0  0  0  0  0  0  0  0
   33.7978  -20.3918   33.4188 O   0  0  0  0  0  0  0  0  0  0  0  0
   35.3742  -18.5184   34.5354 H   0  0  0  0  0  0  0  0  0  0  0  0
   34.7447  -20.1094   33.4251 H   0  0  0  0  0  0  0  0  0  0  0  0
   29.5353  -24.1640   37.3901 N   0  0  0  0  0  0  0  0  0  0  0  0
   29.7053  -22.8562   36.8945 C   0  0  0  0  0  0  0  0  0  0  0  0
   28.6964  -22.0186   36.5941 N   0  0  0  0  0  0  0  0  0  0  0  0
   28.8922  -20.7738   36.1218 C   0  0  0  0  0  0  0  0  0  0  0  0
   30.1436  -20.3186   35.9311 N   0  0  0  0  0  0  0  0  0  0  0  0
   31.1835  -21.0977   36.2091 C   0  0  0  0  0  0  0  0  0  0  0  0
   32.5003  -20.8531   36.0969 N   0  0  0  0  0  0  0  0  0  0  0  0
   33.1139  -21.9761   36.5109 C   0  0  0  0  0  0  0  0  0  0  0  0
   32.2041  -22.8986   36.8725 N   0  0  0  0  0  0  0  0  0  0  0  0
   30.9914  -22.3902   36.6992 C   0  0  0  0  0  0  0  0  0  0  0  0
   30.1476  -24.6013   38.1157 H   0  0  0  0  0  0  0  0  0  0  0  0
   28.7545  -24.7492   37.0223 H   0  0  0  0  0  0  0  0  0  0  0  0
   34.2097  -16.6653   35.9443 C   0  0  0  0  0  0  0  0  0  0  0  0
   33.9301  -15.2928   35.8009 O   0  0  0  0  0  0  0  0  0  0  0  0
   34.8308  -14.3465   36.8766 Si  0  0  0  0  0  0  0  0  0  0  0  0
   35.3945  -12.7691   36.0221 C   0  0  0  0  0  0  0  0  0  0  0  0
   33.9094  -13.9047   38.2425 O   0  0  0  0  0  0  0  0  0  0  0  0
   33.9852  -14.5520   38.9896 H   0  0  0  0  0  0  0  0  0  0  0  0
   36.3653  -15.2303   37.4762 C   0  0  0  0  0  0  0  0  0  0  0  0
   37.1754  -14.3929   38.2062 F   0  0  0  0  0  0  0  0  0  0  0  0
   36.0446  -16.3778   38.1926 F   0  0  0  0  0  0  0  0  0  0  0  0
   37.1102  -15.6414   36.3750 F   0  0  0  0  0  0  0  0  0  0  0  0
 10 11  1  0  0  0
 11 12  2  0  0  0
 12 13  1  0  0  0
 13 14  2  0  0  0
 14 15  1  0  0  0
 15 16  1  0  0  0
 16 17  1  0  0  0
 17 18  2  0  0  0
 18 19  1  0  0  0
 16  1  1  0  0  0
  1  2  1  0  0  0
  2  3  1  0  0  0
  3 22  1  0  0  0
 22 23  1  0  0  0
 23 24  1  0  0  0
 24 25  1  0  0  0
 24 26  1  0  0  0
 24 28  1  0  0  0
 28 29  1  0  0  0
 28 30  1  0  0  0
 28 31  1  0  0  0
  3  4  1  0  0  0
  4  5  1  0  0  0
  4  6  1  0  0  0
  6  7  1  0  0  0
 19 11  1  0  0  0
  6  1  1  0  0  0
 19 15  2  0  0  0
 10 20  1  0  0  0
 10 21  1  0  0  0
 26 27  1  0  0  0
  5  8  1  0  0  0
  7  9  1  0  0  0
M  END
> <minimizedAffinity>
-6.34310

> <CNNscore>
0.1893811673

> <CNNaffinity>
3.7640800476

> <CNN_VS>
0.7128458619

> <CNNaffinity_variance>
0.4833294749

$$$$
[H]/C(=C1/C(=O)c2c([H])c([N+](=O)[O-])c([H])c([H])c2N([H])C1=O)c1c([H])c([H])c([H])c([H])c1[H]


 23 25  0  0  0  0  0  0  0  0999 V2000
   36.7914  -14.1277   36.9733 C   0  0  0  0  0  0  0  0  0  0  0  0
   35.6964  -13.5312   36.3543 C   0  0  0  0  0  0  0  0  0  0  0  0
   34.6032  -14.2427   35.9121 C   0  0  0  0  0  0  0  0  0  0  0  0
   34.5635  -15.6293   36.0796 C   0  0  0  0  0  0  0  0  0  0  0  0
   35.6414  -16.2152   36.6884 C   0  0  0  0  0  0  0  0  0  0  0  0
   36.7359  -15.4921   37.1293 C   0  0  0  0  0  0  0  0  0  0  0  0
   35.6719  -17.6810   36.8974 C   0  0  0  0  0  0  0  0  0  0  0  0
   36.6503  -18.2245   37.4468 O   0  0  0  0  0  0  0  0  0  0  0  0
   34.5581  -18.4871   36.4558 C   0  0  0  0  0  0  0  0  0  0  0  0
   34.4835  -19.7895   36.6188 C   0  0  0  0  0  0  0  0  0  0  0  0
   33.4297  -17.7674   35.8040 C   0  0  0  0  0  0  0  0  0  0  0  0
   32.4493  -18.4315   35.4101 O   0  0  0  0  0  0  0  0  0  0  0  0
   33.4317  -16.3657   35.6186 N   0  0  0  0  0  0  0  0  0  0  0  0
   32.6379  -15.8506   35.1588 H   0  0  0  0  0  0  0  0  0  0  0  0
   35.5094  -20.5427   37.2631 C   0  0  0  0  0  0  0  0  0  0  0  0
   36.5783  -21.0814   36.5737 C   0  0  0  0  0  0  0  0  0  0  0  0
   37.5281  -21.8734   37.1928 C   0  0  0  0  0  0  0  0  0  0  0  0
   37.4307  -22.1506   38.5399 C   0  0  0  0  0  0  0  0  0  0  0  0
   36.3742  -21.6259   39.2530 C   0  0  0  0  0  0  0  0  0  0  0  0
   35.4246  -20.8274   38.6071 C   0  0  0  0  0  0  0  0  0  0  0  0
   38.4362  -12.3887   36.6015 O   0  0  0  0  0  0  0  0  0  0  0  0
   37.8973  -13.3463   37.4131 N   0  0  0  0  0  0  0  0  0  0  0  0
   38.3725  -13.5373   38.5403 O   0  0  0  0  0  0  0  0  0  0  0  0
 21 22  1  0  0  0
 22 23  2  0  0  0
 22  1  1  0  0  0
  1  2  2  0  0  0
  2  3  1  0  0  0
  3  4  2  0  0  0
  4  5  1  0  0  0
  5  6  2  0  0  0
  5  7  1  0  0  0
  7  8  2  0  0  0
  7  9  1  0  0  0
  9 10  2  0  0  0
 10 15  1  0  0  0
 15 16  2  0  0  0
 16 17  1  0  0  0
 17 18  2  0  0  0
 18 19  1  0  0  0
 19 20  2  0  0  0
  9 11  1  0  0  0
 11 12  2  0  0  0
 11 13  1  0  0  0
  6  1  1  0  0  0
 20 15  1  0  0  0
 13  4  1  0  0  0
 13 14  1  0  0  0
M  CHG 1  21  -1
M  CHG 1  22   1
M  END
> <minimizedAffinity>
-5.40565

> <CNNscore>
0.5310151577

> <CNNaffinity>
4.4979362488

> <CNN_VS>
2.3884723186

> <CNNaffinity_variance>
0.2270583212

$$$$
[H]/C(=C1/C(=O)c2c([H])c([N+](=O)[O-])c([H])c([H])c2N([H])C1=O)c1c([H])c([H])c([H])c([H])c1[H]


 23 25  0  0  0  0  0  0  0  0999 V2000
   30.5640  -21.3405   35.5683 C   0  0  0  0  0  0  0  0  0  0  0  0
   29.9896  -20.1726   35.0742 C   0  0  0  0  0  0  0  0  0  0  0  0
   30.6735  -18.9811   34.9776 C   0  0  0  0  0  0  0  0  0  0  0  0
   32.0077  -18.9116   35.3870 C   0  0  0  0  0  0  0  0  0  0  0  0
   32.5717  -20.0609   35.8734 C   0  0  0  0  0  0  0  0  0  0  0  0
   31.8765  -21.2538   35.9670 C   0  0  0  0  0  0  0  0  0  0  0  0
   33.9807  -20.0630   36.3294 C   0  0  0  0  0  0  0  0  0  0  0  0
   34.5021  -21.1031   36.7775 O   0  0  0  0  0  0  0  0  0  0  0  0
   34.7549  -18.8462   36.2571 C   0  0  0  0  0  0  0  0  0  0  0  0
   36.0168  -18.7559   36.6146 C   0  0  0  0  0  0  0  0  0  0  0  0
   34.0620  -17.6449   35.7158 C   0  0  0  0  0  0  0  0  0  0  0  0
   34.7001  -16.5753   35.6377 O   0  0  0  0  0  0  0  0  0  0  0  0
   32.7144  -17.6759   35.2892 N   0  0  0  0  0  0  0  0  0  0  0  0
   32.2185  -16.8310   34.9058 H   0  0  0  0  0  0  0  0  0  0  0  0
   36.7559  -19.8706   37.1107 C   0  0  0  0  0  0  0  0  0  0  0  0
   36.7575  -20.2246   38.4459 C   0  0  0  0  0  0  0  0  0  0  0  0
   37.5356  -21.2600   38.9306 C   0  0  0  0  0  0  0  0  0  0  0  0
   38.3451  -21.9794   38.0773 C   0  0  0  0  0  0  0  0  0  0  0  0
   38.3632  -21.6481   36.7394 C   0  0  0  0  0  0  0  0  0  0  0  0
   37.5684  -20.5971   36.2701 C   0  0  0  0  0  0  0  0  0  0  0  0
   28.4536  -22.5284   35.5137 O   0  0  0  0  0  0  0  0  0  0  0  0
   29.8131  -22.5476   35.6467 N   0  0  0  0  0  0  0  0  0  0  0  0
   30.3985  -23.6219   35.8363 O   0  0  0  0  0  0  0  0  0  0  0  0
 21 22  1  0  0  0
 22 23  2  0  0  0
 22  1  1  0  0  0
  1  2  2  0  0  0
  2  3  1  0  0  0
  3  4  2  0  0  0
  4  5  1  0  0  0
  5  6  2  0  0  0
  5  7  1  0  0  0
  7  8  2  0  0  0
  7  9  1  0  0  0
  9 10  2  0  0  0
 10 15  1  0  0  0
 15 16  2  0  0  0
 16 17  1  0  0  0
 17 18  2  0  0  0
 18 19  1  0  0  0
 19 20  2  0  0  0
  9 11  1  0  0  0
 11 12  2  0  0  0
 11 13  1  0  0  0
  6  1  1  0  0  0
 20 15  1  0  0  0
 13  4  1  0  0  0
 13 14  1  0  0  0
M  CHG 1  21  -1
M  CHG 1  22   1
M  END
> <minimizedAffinity>
-5.32349

> <CNNscore>
0.5084699392

> <CNNaffinity>
4.1448121071

> <CNN_VS>
2.1075124741

> <CNNaffinity_variance>
0.2822404504

$$$$
[H]/C(=C1/C(=O)c2c([H])c([N+](=O)[O-])c([H])c([H])c2N([H])C1=O)c1c([H])c([H])c([H])c([H])c1[H]


 23 25  0  0  0  0  0  0  0  0999 V2000
   29.4009  -22.9764   36.7816 C   0  0  0  0  0  0  0  0  0  0  0  0
   28.7011  -22.1298   35.9263 C   0  0  0  0  0  0  0  0  0  0  0  0
   29.2333  -20.9646   35.4206 C   0  0  0  0  0  0  0  0  0  0  0  0
   30.5346  -20.5894   35.7648 C   0  0  0  0  0  0  0  0  0  0  0  0
   31.2221  -21.4226   36.6066 C   0  0  0  0  0  0  0  0  0  0  0  0
   30.6789  -22.5916   37.1101 C   0  0  0  0  0  0  0  0  0  0  0  0
   32.6050  -21.0887   37.0180 C   0  0  0  0  0  0  0  0  0  0  0  0
   33.2378  -21.8386   37.7872 O   0  0  0  0  0  0  0  0  0  0  0  0
   33.2229  -19.8801   36.5254 C   0  0  0  0  0  0  0  0  0  0  0  0
   34.4514  -19.5124   36.8147 C   0  0  0  0  0  0  0  0  0  0  0  0
   32.4028  -19.0336   35.6159 C   0  0  0  0  0  0  0  0  0  0  0  0
   32.9043  -17.9816   35.1697 O   0  0  0  0  0  0  0  0  0  0  0  0
   31.0839  -19.3805   35.2426 N   0  0  0  0  0  0  0  0  0  0  0  0
   30.4987  -18.7871   34.6005 H   0  0  0  0  0  0  0  0  0  0  0  0
   35.3080  -20.2875   37.6516 C   0  0  0  0  0  0  0  0  0  0  0  0
   35.3205  -20.1544   39.0264 C   0  0  0  0  0  0  0  0  0  0  0  0
   36.2064  -20.8550   39.8245 C   0  0  0  0  0  0  0  0  0  0  0  0
   37.1171  -21.7211   39.2575 C   0  0  0  0  0  0  0  0  0  0  0  0
   37.1269  -21.8739   37.8876 C   0  0  0  0  0  0  0  0  0  0  0  0
   36.2222  -21.1555   37.0990 C   0  0  0  0  0  0  0  0  0  0  0  0
   27.5146  -24.1676   37.7255 O   0  0  0  0  0  0  0  0  0  0  0  0
   28.8048  -24.1709   37.2763 N   0  0  0  0  0  0  0  0  0  0  0  0
   29.4621  -25.2198   37.2984 O   0  0  0  0  0  0  0  0  0  0  0  0
 21 22  1  0  0  0
 22 23  2  0  0  0
 22  1  1  0  0  0
  1  2  2  0  0  0
  2  3  1  0  0  0
  3  4  2  0  0  0
  4  5  1  0  0  0
  5  6  2  0  0  0
  5  7  1  0  0  0
  7  8  2  0  0  0
  7  9  1  0  0  0
  9 10  2  0  0  0
 10 15  1  0  0  0
 15 16  2  0  0  0
 16 17  1  0  0  0
 17 18  2  0  0  0
 18 19  1  0  0  0
 19 20  2  0  0  0
  9 11  1  0  0  0
 11 12  2  0  0  0
 11 13  1  0  0  0
  6  1  1  0  0  0
 20 15  1  0  0  0
 13  4  1  0  0  0
 13 14  1  0  0  0
M  CHG 1  21  -1
M  CHG 1  22   1
M  END
> <minimizedAffinity>
-4.63361

> <CNNscore>
0.5065565705

> <CNNaffinity>
3.8909926414

> <CNN_VS>
1.9710079432

> <CNNaffinity_variance>
0.1950597912

$$$$
[H]/C(=C1/C(=O)c2c([H])c([N+](=O)[O-])c([H])c([H])c2N([H])C1=O)c1c([H])c([H])c([H])c([H])c1[H]


 23 25  0  0  0  0  0  0  0  0999 V2000
   33.9520  -13.1815   36.9063 C   0  0  0  0  0  0  0  0  0  0  0  0
   35.2804  -12.8065   37.0880 C   0  0  0  0  0  0  0  0  0  0  0  0
   36.3342  -13.6825   36.9506 C   0  0  0  0  0  0  0  0  0  0  0  0
   36.0887  -15.0161   36.6134 C   0  0  0  0  0  0  0  0  0  0  0  0
   34.7816  -15.3841   36.4353 C   0  0  0  0  0  0  0  0  0  0  0  0
   33.7289  -14.4968   36.5758 C   0  0  0  0  0  0  0  0  0  0  0  0
   34.4439  -16.7815   36.0798 C   0  0  0  0  0  0  0  0  0  0  0  0
   33.2569  -17.1274   35.9195 O   0  0  0  0  0  0  0  0  0  0  0  0
   35.5014  -17.7521   35.9218 C   0  0  0  0  0  0  0  0  0  0  0  0
   35.3025  -19.0071   35.5847 C   0  0  0  0  0  0  0  0  0  0  0  0
   36.8921  -17.2651   36.1345 C   0  0  0  0  0  0  0  0  0  0  0  0
   37.8321  -18.0758   36.0057 O   0  0  0  0  0  0  0  0  0  0  0  0
   37.1811  -15.9234   36.4741 N   0  0  0  0  0  0  0  0  0  0  0  0
   38.1612  -15.5724   36.6259 H   0  0  0  0  0  0  0  0  0  0  0  0
   34.0026  -19.5377   35.3326 C   0  0  0  0  0  0  0  0  0  0  0  0
   33.2454  -20.1440   36.3160 C   0  0  0  0  0  0  0  0  0  0  0  0
   32.0185  -20.7226   36.0468 C   0  0  0  0  0  0  0  0  0  0  0  0
   31.5097  -20.7084   34.7654 C   0  0  0  0  0  0  0  0  0  0  0  0
   32.2439  -20.1098   33.7641 C   0  0  0  0  0  0  0  0  0  0  0  0
   33.4827  -19.5307   34.0582 C   0  0  0  0  0  0  0  0  0  0  0  0
   31.6588  -12.4899   36.5448 O   0  0  0  0  0  0  0  0  0  0  0  0
   32.8985  -12.2361   37.0596 N   0  0  0  0  0  0  0  0  0  0  0  0
   33.1094  -11.1768   37.6646 O   0  0  0  0  0  0  0  0  0  0  0  0
 21 22  1  0  0  0
 22 23  2  0  0  0
 22  1  1  0  0  0
  1  2  2  0  0  0
  2  3  1  0  0  0
  3  4  2  0  0  0
  4  5  1  0  0  0
  5  6  2  0  0  0
  5  7  1  0  0  0
  7  8  2  0  0  0
  7  9  1  0  0  0
  9 10  2  0  0  0
 10 15  1  0  0  0
 15 16  2  0  0  0
 16 17  1  0  0  0
 17 18  2  0  0  0
 18 19  1  0  0  0
 19 20  2  0  0  0
  9 11  1  0  0  0
 11 12  2  0  0  0
 11 13  1  0  0  0
  6  1  1  0  0  0
 20 15  1  0  0  0
 13  4  1  0  0  0
 13 14  1  0  0  0
M  CHG 1  21  -1
M  CHG 1  22   1
M  END
> <minimizedAffinity>
-7.65039

> <CNNscore>
0.4718852341

> <CNNaffinity>
4.8028326035

> <CNN_VS>
2.2663857937

> <CNNaffinity_variance>
0.2692650855

$$$$
[H]/C(=C1/C(=O)c2c([H])c([N+](=O)[O-])c([H])c([H])c2N([H])C1=O)c1c([H])c([H])c([H])c([H])c1[H]


 23 25  0  0  0  0  0  0  0  0999 V2000
   31.1655  -19.5005   35.1956 C   0  0  0  0  0  0  0  0  0  0  0  0
   31.5830  -20.5562   34.3898 C   0  0  0  0  0  0  0  0  0  0  0  0
   32.8654  -20.6662   33.8998 C   0  0  0  0  0  0  0  0  0  0  0  0
   33.8131  -19.6874   34.2098 C   0  0  0  0  0  0  0  0  0  0  0  0
   33.4014  -18.6491   35.0022 C   0  0  0  0  0  0  0  0  0  0  0  0
   32.1103  -18.5467   35.4899 C   0  0  0  0  0  0  0  0  0  0  0  0
   34.3494  -17.5725   35.3700 C   0  0  0  0  0  0  0  0  0  0  0  0
   33.9832  -16.6208   36.0875 O   0  0  0  0  0  0  0  0  0  0  0  0
   35.7097  -17.6256   34.8884 C   0  0  0  0  0  0  0  0  0  0  0  0
   36.6280  -16.7314   35.1806 C   0  0  0  0  0  0  0  0  0  0  0  0
   36.0704  -18.7894   34.0329 C   0  0  0  0  0  0  0  0  0  0  0  0
   37.2376  -18.8691   33.5989 O   0  0  0  0  0  0  0  0  0  0  0  0
   35.1406  -19.8010   33.6992 N   0  0  0  0  0  0  0  0  0  0  0  0
   35.3885  -20.6260   33.0953 H   0  0  0  0  0  0  0  0  0  0  0  0
   36.3663  -15.6080   36.0200 C   0  0  0  0  0  0  0  0  0  0  0  0
   35.7588  -14.4588   35.5530 C   0  0  0  0  0  0  0  0  0  0  0  0
   35.5768  -13.3463   36.3542 C   0  0  0  0  0  0  0  0  0  0  0  0
   36.0051  -13.3561   37.6647 C   0  0  0  0  0  0  0  0  0  0  0  0
   36.6146  -14.4900   38.1575 C   0  0  0  0  0  0  0  0  0  0  0  0
   36.7888  -15.6041   37.3299 C   0  0  0  0  0  0  0  0  0  0  0  0
   29.2337  -20.5333   36.2298 O   0  0  0  0  0  0  0  0  0  0  0  0
   29.8273  -19.4339   35.6773 N   0  0  0  0  0  0  0  0  0  0  0  0
   29.1987  -18.3706   35.5944 O   0  0  0  0  0  0  0  0  0  0  0  0
 21 22  1  0  0  0
 22 23  2  0  0  0
 22  1  1  0  0  0
  1  2  2  0  0  0
  2  3  1  0  0  0
  3  4  2  0  0  0
  4  5  1  0  0  0
  5  6  2  0  0  0
  5  7  1  0  0  0
  7  8  2  0  0  0
  7  9  1  0  0  0
  9 10  2  0  0  0
 10 15  1  0  0  0
 15 16  2  0  0  0
 16 17  1  0  0  0
 17 18  2  0  0  0
 18 19  1  0  0  0
 19 20  2  0  0  0
  9 11  1  0  0  0
 11 12  2  0  0  0
 11 13  1  0  0  0
  6  1  1  0  0  0
 20 15  1  0  0  0
 13  4  1  0  0  0
 13 14  1  0  0  0
M  CHG 1  21  -1
M  CHG 1  22   1
M  END
> <minimizedAffinity>
-7.16523

> <CNNscore>
0.4438382089

> <CNNaffinity>
4.4674139023

> <CNN_VS>
1.9828089476

> <CNNaffinity_variance>
0.2756972909

$$$$
[H]/C(=C1/C(=O)c2c([H])c([N+](=O)[O-])c([H])c([H])c2N([H])C1=O)c1c([H])c([H])c([H])c([H])c1[H]


 23 25  0  0  0  0  0  0  0  0999 V2000
   35.5254  -17.7278   36.2298 C   0  0  0  0  0  0  0  0  0  0  0  0
   34.7568  -16.7655   35.5808 C   0  0  0  0  0  0  0  0  0  0  0  0
   33.4573  -16.9856   35.1813 C   0  0  0  0  0  0  0  0  0  0  0  0
   32.8560  -18.2229   35.4261 C   0  0  0  0  0  0  0  0  0  0  0  0
   33.6131  -19.1690   36.0643 C   0  0  0  0  0  0  0  0  0  0  0  0
   34.9186  -18.9390   36.4618 C   0  0  0  0  0  0  0  0  0  0  0  0
   33.0444  -20.5052   36.3547 C   0  0  0  0  0  0  0  0  0  0  0  0
   33.7268  -21.3747   36.9316 O   0  0  0  0  0  0  0  0  0  0  0  0
   31.6873  -20.8029   35.9612 C   0  0  0  0  0  0  0  0  0  0  0  0
   31.0887  -21.9494   36.1967 C   0  0  0  0  0  0  0  0  0  0  0  0
   30.9380  -19.7163   35.2725 C   0  0  0  0  0  0  0  0  0  0  0  0
   29.7619  -19.9372   34.9184 O   0  0  0  0  0  0  0  0  0  0  0  0
   31.5106  -18.4507   35.0092 N   0  0  0  0  0  0  0  0  0  0  0  0
   30.9871  -17.6784   34.5230 H   0  0  0  0  0  0  0  0  0  0  0  0
   31.7306  -23.0246   36.8799 C   0  0  0  0  0  0  0  0  0  0  0  0
   32.3944  -24.0360   36.2133 C   0  0  0  0  0  0  0  0  0  0  0  0
   32.9491  -25.1141   36.8786 C   0  0  0  0  0  0  0  0  0  0  0  0
   32.8522  -25.2086   38.2507 C   0  0  0  0  0  0  0  0  0  0  0  0
   32.1954  -24.2132   38.9419 C   0  0  0  0  0  0  0  0  0  0  0  0
   31.6414  -23.1317   38.2493 C   0  0  0  0  0  0  0  0  0  0  0  0
   37.1644  -16.3028   37.3027 O   0  0  0  0  0  0  0  0  0  0  0  0
   36.8652  -17.4494   36.6230 N   0  0  0  0  0  0  0  0  0  0  0  0
   37.7645  -18.2540   36.3463 O   0  0  0  0  0  0  0  0  0  0  0  0
 21 22  1  0  0  0
 22 23  2  0  0  0
 22  1  1  0  0  0
  1  2  2  0  0  0
  2  3  1  0  0  0
  3  4  2  0  0  0
  4  5  1  0  0  0
  5  6  2  0  0  0
  5  7  1  0  0  0
  7  8  2  0  0  0
  7  9  1  0  0  0
  9 10  2  0  0  0
 10 15  1  0  0  0
 15 16  2  0  0  0
 16 17  1  0  0  0
 17 18  2  0  0  0
 18 19  1  0  0  0
 19 20  2  0  0  0
  9 11  1  0  0  0
 11 12  2  0  0  0
 11 13  1  0  0  0
  6  1  1  0  0  0
 20 15  1  0  0  0
 13  4  1  0  0  0
 13 14  1  0  0  0
M  CHG 1  21  -1
M  CHG 1  22   1
M  END
> <minimizedAffinity>
-5.11539

> <CNNscore>
0.4363658130

> <CNNaffinity>
3.9875454903

> <CNN_VS>
1.7400285006

> <CNNaffinity_variance>
0.2894915044

$$$$
[H]/C(=C1/C(=O)c2c([H])c([N+](=O)[O-])c([H])c([H])c2N([H])C1=O)c1c([H])c([H])c([H])c([H])c1[H]


 23 25  0  0  0  0  0  0  0  0999 V2000
   35.7105  -18.7508   36.1604 C   0  0  0  0  0  0  0  0  0  0  0  0
   36.6474  -18.9946   37.1608 C   0  0  0  0  0  0  0  0  0  0  0  0
   36.4456  -19.9055   38.1738 C   0  0  0  0  0  0  0  0  0  0  0  0
   35.2542  -20.6339   38.2251 C   0  0  0  0  0  0  0  0  0  0  0  0
   34.3330  -20.3931   37.2407 C   0  0  0  0  0  0  0  0  0  0  0  0
   34.5444  -19.4754   36.2266 C   0  0  0  0  0  0  0  0  0  0  0  0
   33.0455  -21.1249   37.2314 C   0  0  0  0  0  0  0  0  0  0  0  0
   32.1987  -20.9100   36.3420 O   0  0  0  0  0  0  0  0  0  0  0  0
   32.7690  -22.0935   38.2661 C   0  0  0  0  0  0  0  0  0  0  0  0
   31.6673  -22.8082   38.3280 C   0  0  0  0  0  0  0  0  0  0  0  0
   33.8260  -22.2911   39.2957 C   0  0  0  0  0  0  0  0  0  0  0  0
   33.6222  -23.1210   40.2052 O   0  0  0  0  0  0  0  0  0  0  0  0
   35.0451  -21.5753   39.2767 N   0  0  0  0  0  0  0  0  0  0  0  0
   35.7963  -21.7098   40.0009 H   0  0  0  0  0  0  0  0  0  0  0  0
   30.6253  -22.6982   37.3601 C   0  0  0  0  0  0  0  0  0  0  0  0
   29.5524  -21.8428   37.5192 C   0  0  0  0  0  0  0  0  0  0  0  0
   28.5086  -21.7968   36.6132 C   0  0  0  0  0  0  0  0  0  0  0  0
   28.5123  -22.6190   35.5064 C   0  0  0  0  0  0  0  0  0  0  0  0
   29.5708  -23.4826   35.3221 C   0  0  0  0  0  0  0  0  0  0  0  0
   30.6161  -23.5132   36.2509 C   0  0  0  0  0  0  0  0  0  0  0  0
   35.8103  -18.1350   33.8198 O   0  0  0  0  0  0  0  0  0  0  0  0
   35.9684  -17.7982   35.1342 N   0  0  0  0  0  0  0  0  0  0  0  0
   36.3384  -16.6563   35.4375 O   0  0  0  0  0  0  0  0  0  0  0  0
 21 22  1  0  0  0
 22 23  2  0  0  0
 22  1  1  0  0  0
  1  2  2  0  0  0
  2  3  1  0  0  0
  3  4  2  0  0  0
  4  5  1  0  0  0
  5  6  2  0  0  0
  5  7  1  0  0  0
  7  8  2  0  0  0
  7  9  1  0  0  0
  9 10  2  0  0  0
 10 15  1  0  0  0
 15 16  2  0  0  0
 16 17  1  0  0  0
 17 18  2  0  0  0
 18 19  1  0  0  0
 19 20  2  0  0  0
  9 11  1  0  0  0
 11 12  2  0  0  0
 11 13  1  0  0  0
  6  1  1  0  0  0
 20 15  1  0  0  0
 13  4  1  0  0  0
 13 14  1  0  0  0
M  CHG 1  21  -1
M  CHG 1  22   1
M  END
> <minimizedAffinity>
-4.46006

> <CNNscore>
0.3475359976

> <CNNaffinity>
3.6306216717

> <CNN_VS>
1.2617716789

> <CNNaffinity_variance>
0.1446714550

$$$$
[H]/C(=C1/C(=O)c2c([H])c([N+](=O)[O-])c([H])c([H])c2N([H])C1=O)c1c([H])c([H])c([H])c([H])c1[H]


 23 25  0  0  0  0  0  0  0  0999 V2000
   34.4793  -17.5268   35.7903 C   0  0  0  0  0  0  0  0  0  0  0  0
   33.7391  -17.3508   34.6245 C   0  0  0  0  0  0  0  0  0  0  0  0
   33.0190  -18.3639   34.0312 C   0  0  0  0  0  0  0  0  0  0  0  0
   33.0125  -19.6383   34.6042 C   0  0  0  0  0  0  0  0  0  0  0  0
   33.7414  -19.8105   35.7508 C   0  0  0  0  0  0  0  0  0  0  0  0
   34.4622  -18.7865   36.3398 C   0  0  0  0  0  0  0  0  0  0  0  0
   33.7845  -21.1343   36.4132 C   0  0  0  0  0  0  0  0  0  0  0  0
   34.4484  -21.3024   37.4550 O   0  0  0  0  0  0  0  0  0  0  0  0
   33.0530  -22.2409   35.8425 C   0  0  0  0  0  0  0  0  0  0  0  0
   33.0111  -23.4442   36.3703 C   0  0  0  0  0  0  0  0  0  0  0  0
   32.2885  -21.9639   34.5954 C   0  0  0  0  0  0  0  0  0  0  0  0
   31.6435  -22.8963   34.0740 O   0  0  0  0  0  0  0  0  0  0  0  0
   32.2684  -20.6877   33.9871 N   0  0  0  0  0  0  0  0  0  0  0  0
   31.7306  -20.4849   33.1059 H   0  0  0  0  0  0  0  0  0  0  0  0
   33.6903  -23.7761   37.5800 C   0  0  0  0  0  0  0  0  0  0  0  0
   34.9755  -24.2821   37.5943 C   0  0  0  0  0  0  0  0  0  0  0  0
   35.5988  -24.6718   38.7657 C   0  0  0  0  0  0  0  0  0  0  0  0
   34.9408  -24.5629   39.9725 C   0  0  0  0  0  0  0  0  0  0  0  0
   33.6572  -24.0609   39.9880 C   0  0  0  0  0  0  0  0  0  0  0  0
   33.0453  -23.6728   38.7916 C   0  0  0  0  0  0  0  0  0  0  0  0
   34.9789  -15.1622   35.9552 O   0  0  0  0  0  0  0  0  0  0  0  0
   35.2065  -16.4456   36.3643 N   0  0  0  0  0  0  0  0  0  0  0  0
   36.0508  -16.6723   37.2409 O   0  0  0  0  0  0  0  0  0  0  0  0
 21 22  1  0  0  0
 22 23  2  0  0  0
 22  1  1  0  0  0
  1  2  2  0  0  0
  2  3  1  0  0  0
  3  4  2  0  0  0
  4  5  1  0  0  0
  5  6  2  0  0  0
  5  7  1  0  0  0
  7  8  2  0  0  0
  7  9  1  0  0  0
  9 10  2  0  0  0
 10 15  1  0  0  0
 15 16  2  0  0  0
 16 17  1  0  0  0
 17 18  2  0  0  0
 18 19  1  0  0  0
 19 20  2  0  0  0
  9 11  1  0  0  0
 11 12  2  0  0  0
 11 13  1  0  0  0
  6  1  1  0  0  0
 20 15  1  0  0  0
 13  4  1  0  0  0
 13 14  1  0  0  0
M  CHG 1  21  -1
M  CHG 1  22   1
M  END
> <minimizedAffinity>
-4.49412

> <CNNscore>
0.3447400033

> <CNNaffinity>
3.8159689903

> <CNN_VS>
1.3155171871

> <CNNaffinity_variance>
0.2178100646

$$$$
[H]/C(=C1/C(=O)c2c([H])c([N+](=O)[O-])c([H])c([H])c2N([H])C1=O)c1c([H])c([H])c([H])c([H])c1[H]


 23 25  0  0  0  0  0  0  0  0999 V2000
   38.5203  -20.9991   38.6289 C   0  0  0  0  0  0  0  0  0  0  0  0
   39.7444  -20.5010   38.1911 C   0  0  0  0  0  0  0  0  0  0  0  0
   39.8836  -19.7492   37.0456 C   0  0  0  0  0  0  0  0  0  0  0  0
   38.7610  -19.4566   36.2668 C   0  0  0  0  0  0  0  0  0  0  0  0
   37.5574  -19.9474   36.6980 C   0  0  0  0  0  0  0  0  0  0  0  0
   37.4271  -20.7024   37.8505 C   0  0  0  0  0  0  0  0  0  0  0  0
   36.3242  -19.6808   35.9225 C   0  0  0  0  0  0  0  0  0  0  0  0
   35.2243  -20.1265   36.3046 O   0  0  0  0  0  0  0  0  0  0  0  0
   36.3997  -18.9000   34.7101 C   0  0  0  0  0  0  0  0  0  0  0  0
   35.3587  -18.5912   33.9691 C   0  0  0  0  0  0  0  0  0  0  0  0
   37.7481  -18.4071   34.3160 C   0  0  0  0  0  0  0  0  0  0  0  0
   37.8517  -17.7282   33.2741 O   0  0  0  0  0  0  0  0  0  0  0  0
   38.9069  -18.6800   35.0787 N   0  0  0  0  0  0  0  0  0  0  0  0
   39.8627  -18.3350   34.8062 H   0  0  0  0  0  0  0  0  0  0  0  0
   34.0324  -18.9992   34.3000 C   0  0  0  0  0  0  0  0  0  0  0  0
   33.4548  -20.1396   33.7768 C   0  0  0  0  0  0  0  0  0  0  0  0
   32.1432  -20.4877   34.0435 C   0  0  0  0  0  0  0  0  0  0  0  0
   31.3637  -19.6902   34.8543 C   0  0  0  0  0  0  0  0  0  0  0  0
   31.9144  -18.5460   35.3905 C   0  0  0  0  0  0  0  0  0  0  0  0
   33.2430  -18.2125   35.1077 C   0  0  0  0  0  0  0  0  0  0  0  0
   39.1594  -22.9179   39.9623 O   0  0  0  0  0  0  0  0  0  0  0  0
   38.4302  -21.7712   39.8217 N   0  0  0  0  0  0  0  0  0  0  0  0
   37.6850  -21.3988   40.7375 O   0  0  0  0  0  0  0  0  0  0  0  0
 21 22  1  0  0  0
 22 23  2  0  0  0
 22  1  1  0  0  0
  1  2  2  0  0  0
  2  3  1  0  0  0
  3  4  2  0  0  0
  4  5  1  0  0  0
  5  6  2  0  0  0
  5  7  1  0  0  0
  7  8  2  0  0  0
  7  9  1  0  0  0
  9 10  2  0  0  0
 10 15  1  0  0  0
 15 16  2  0  0  0
 16 17  1  0  0  0
 17 18  2  0  0  0
 18 19  1  0  0  0
 19 20  2  0  0  0
  9 11  1  0  0  0
 11 12  2  0  0  0
 11 13  1  0  0  0
  6  1  1  0  0  0
 20 15  1  0  0  0
 13  4  1  0  0  0
 13 14  1  0  0  0
M  CHG 1  21  -1
M  CHG 1  22   1
M  END
> <minimizedAffinity>
-5.79157

> <CNNscore>
0.3351604640

> <CNNaffinity>
4.0160603523

> <CNN_VS>
1.3460246325

> <CNNaffinity_variance>
0.3122604191

$$$$
[H]c1c([H])c(N([H])S(=O)(=O)c2c([H])c([H])c3c(c2[H])C([H])([H])C([H])([H])C(C([H])([H])[H])(C([H])([H])[H])O3)c([H])c(Cl)c1Cl


 25 27  0  0  0  0  0  0  0  0999 V2000
   33.6267  -17.8102   35.2176 S   0  0  0  0  0  0  0  0  0  0  0  0
   32.6623  -18.7816   35.8573 O   0  0  0  0  0  0  0  0  0  0  0  0
   33.3057  -17.8206   33.7485 O   0  0  0  0  0  0  0  0  0  0  0  0
   41.0699  -21.0476   35.2216 C   0  0  0  0  0  0  0  0  0  0  0  0
   39.6823  -20.6195   34.7932 C   0  0  0  0  0  0  0  0  0  0  0  0
   39.0033  -21.8366   34.1610 C   0  0  0  0  0  0  0  0  0  0  0  0
   39.7316  -19.5517   33.7574 C   0  0  0  0  0  0  0  0  0  0  0  0
   38.5604  -18.6489   33.6716 C   0  0  0  0  0  0  0  0  0  0  0  0
   37.4931  -18.8804   34.6663 C   0  0  0  0  0  0  0  0  0  0  0  0
   36.2458  -18.3180   34.4953 C   0  0  0  0  0  0  0  0  0  0  0  0
   35.2193  -18.5039   35.3972 C   0  0  0  0  0  0  0  0  0  0  0  0
   35.4570  -19.2816   36.5073 C   0  0  0  0  0  0  0  0  0  0  0  0
   36.6997  -19.8493   36.6895 C   0  0  0  0  0  0  0  0  0  0  0  0
   37.7263  -19.6551   35.7739 C   0  0  0  0  0  0  0  0  0  0  0  0
   38.9827  -20.2300   35.9591 O   0  0  0  0  0  0  0  0  0  0  0  0
   33.4823  -16.2783   35.9316 N   0  0  0  0  0  0  0  0  0  0  0  0
   32.5318  -15.8845   36.1088 H   0  0  0  0  0  0  0  0  0  0  0  0
   34.5737  -15.4582   36.3219 C   0  0  0  0  0  0  0  0  0  0  0  0
   35.6419  -16.0094   36.9962 C   0  0  0  0  0  0  0  0  0  0  0  0
   36.6882  -15.1896   37.3627 C   0  0  0  0  0  0  0  0  0  0  0  0
   36.6878  -13.8370   37.0704 C   0  0  0  0  0  0  0  0  0  0  0  0
   38.0217  -12.8090   37.5415 Cl  0  0  0  0  0  0  0  0  0  0  0  0
   35.5931  -13.3175   36.3893 C   0  0  0  0  0  0  0  0  0  0  0  0
   35.6263  -11.6005   36.0354 Cl  0  0  0  0  0  0  0  0  0  0  0  0
   34.5278  -14.1042   36.0057 C   0  0  0  0  0  0  0  0  0  0  0  0
  4  5  1  0  0  0
  5  6  1  0  0  0
  5  7  1  0  0  0
  7  8  1  0  0  0
  8  9  1  0  0  0
  9 10  2  0  0  0
 10 11  1  0  0  0
 11 12  2  0  0  0
 12 13  1  0  0  0
 13 14  2  0  0  0
 14 15  1  0  0  0
 11  1  1  0  0  0
  1  2  2  0  0  0
  1  3  2  0  0  0
  1 16  1  0  0  0
 16 18  1  0  0  0
 18 19  2  0  0  0
 19 20  1  0  0  0
 20 21  2  0  0  0
 21 22  1  0  0  0
 21 23  1  0  0  0
 23 24  1  0  0  0
 23 25  2  0  0  0
 15  5  1  0  0  0
 25 18  1  0  0  0
 14  9  1  0  0  0
 16 17  1  0  0  0
M  END
> <minimizedAffinity>
-7.14736

> <CNNscore>
0.3637447059

> <CNNaffinity>
5.2168283463

> <CNN_VS>
1.8975937366

> <CNNaffinity_variance>
0.4523686469

$$$$
[H]c1c([H])c(N([H])S(=O)(=O)c2c([H])c([H])c3c(c2[H])C([H])([H])C([H])([H])C(C([H])([H])[H])(C([H])([H])[H])O3)c([H])c(Cl)c1Cl


 25 27  0  0  0  0  0  0  0  0999 V2000
   36.8570  -18.9890   36.1838 S   0  0  0  0  0  0  0  0  0  0  0  0
   36.1376  -20.3143   36.0884 O   0  0  0  0  0  0  0  0  0  0  0  0
   37.0370  -18.5168   34.7675 O   0  0  0  0  0  0  0  0  0  0  0  0
   43.8866  -20.7645   39.8329 C   0  0  0  0  0  0  0  0  0  0  0  0
   42.4436  -20.3748   39.5916 C   0  0  0  0  0  0  0  0  0  0  0  0
   42.1568  -19.1348   40.4414 C   0  0  0  0  0  0  0  0  0  0  0  0
   41.5046  -21.4417   40.0335 C   0  0  0  0  0  0  0  0  0  0  0  0
   40.1840  -21.4893   39.3641 C   0  0  0  0  0  0  0  0  0  0  0  0
   39.9690  -20.4983   38.2899 C   0  0  0  0  0  0  0  0  0  0  0  0
   38.6989  -20.2484   37.8150 C   0  0  0  0  0  0  0  0  0  0  0  0
   38.4491  -19.3347   36.8128 C   0  0  0  0  0  0  0  0  0  0  0  0
   39.5134  -18.6504   36.2716 C   0  0  0  0  0  0  0  0  0  0  0  0
   40.7878  -18.8915   36.7379 C   0  0  0  0  0  0  0  0  0  0  0  0
   41.0274  -19.8145   37.7482 C   0  0  0  0  0  0  0  0  0  0  0  0
   42.3168  -20.0572   38.2192 O   0  0  0  0  0  0  0  0  0  0  0  0
   35.9780  -17.9084   37.1516 N   0  0  0  0  0  0  0  0  0  0  0  0
   35.4821  -18.2670   37.9976 H   0  0  0  0  0  0  0  0  0  0  0  0
   35.8524  -16.5156   36.9057 C   0  0  0  0  0  0  0  0  0  0  0  0
   34.7249  -16.0259   36.2824 C   0  0  0  0  0  0  0  0  0  0  0  0
   34.6294  -14.6691   36.0565 C   0  0  0  0  0  0  0  0  0  0  0  0
   35.6332  -13.7968   36.4390 C   0  0  0  0  0  0  0  0  0  0  0  0
   35.4987  -12.0780   36.1461 Cl  0  0  0  0  0  0  0  0  0  0  0  0
   36.7550  -14.3278   37.0649 C   0  0  0  0  0  0  0  0  0  0  0  0
   38.0066  -13.1940   37.5360 Cl  0  0  0  0  0  0  0  0  0  0  0  0
   36.8878  -15.6784   37.3085 C   0  0  0  0  0  0  0  0  0  0  0  0
  4  5  1  0  0  0
  5  6  1  0  0  0
  5  7  1  0  0  0
  7  8  1  0  0  0
  8  9  1  0  0  0
  9 10  2  0  0  0
 10 11  1  0  0  0
 11 12  2  0  0  0
 12 13  1  0  0  0
 13 14  2  0  0  0
 14 15  1  0  0  0
 11  1  1  0  0  0
  1  2  2  0  0  0
  1  3  2  0  0  0
  1 16  1  0  0  0
 16 18  1  0  0  0
 18 19  2  0  0  0
 19 20  1  0  0  0
 20 21  2  0  0  0
 21 22  1  0  0  0
 21 23  1  0  0  0
 23 24  1  0  0  0
 23 25  2  0  0  0
 15  5  1  0  0  0
 25 18  1  0  0  0
 14  9  1  0  0  0
 16 17  1  0  0  0
M  END
> <minimizedAffinity>
-6.56920

> <CNNscore>
0.3519995809

> <CNNaffinity>
4.8398880959

> <CNN_VS>
1.7036385536

> <CNNaffinity_variance>
0.5184531212

$$$$
[H]c1c([H])c(N([H])S(=O)(=O)c2c([H])c([H])c3c(c2[H])C([H])([H])C([H])([H])C(C([H])([H])[H])(C([H])([H])[H])O3)c([H])c(Cl)c1Cl


 25 27  0  0  0  0  0  0  0  0999 V2000
   32.7764  -20.2952   35.4591 S   0  0  0  0  0  0  0  0  0  0  0  0
   32.4042  -20.4887   34.0076 O   0  0  0  0  0  0  0  0  0  0  0  0
   31.4763  -20.1429   36.1994 O   0  0  0  0  0  0  0  0  0  0  0  0
   36.7169  -13.3132   36.7267 C   0  0  0  0  0  0  0  0  0  0  0  0
   35.9155  -14.5788   36.9464 C   0  0  0  0  0  0  0  0  0  0  0  0
   34.7007  -14.2081   37.8002 C   0  0  0  0  0  0  0  0  0  0  0  0
   36.6936  -15.5982   37.7018 C   0  0  0  0  0  0  0  0  0  0  0  0
   36.3187  -17.0158   37.4920 C   0  0  0  0  0  0  0  0  0  0  0  0
   35.2429  -17.2602   36.5097 C   0  0  0  0  0  0  0  0  0  0  0  0
   34.6101  -18.4842   36.4577 C   0  0  0  0  0  0  0  0  0  0  0  0
   33.6026  -18.7597   35.5574 C   0  0  0  0  0  0  0  0  0  0  0  0
   33.2200  -17.7700   34.6810 C   0  0  0  0  0  0  0  0  0  0  0  0
   33.8450  -16.5423   34.7231 C   0  0  0  0  0  0  0  0  0  0  0  0
   34.8589  -16.2761   35.6348 C   0  0  0  0  0  0  0  0  0  0  0  0
   35.4901  -15.0339   35.6766 O   0  0  0  0  0  0  0  0  0  0  0  0
   33.7186  -21.5955   36.0054 N   0  0  0  0  0  0  0  0  0  0  0  0
   34.4373  -22.0083   35.3704 H   0  0  0  0  0  0  0  0  0  0  0  0
   33.6135  -22.1914   37.2899 C   0  0  0  0  0  0  0  0  0  0  0  0
   33.3478  -23.5390   37.4034 C   0  0  0  0  0  0  0  0  0  0  0  0
   33.2514  -24.0912   38.6632 C   0  0  0  0  0  0  0  0  0  0  0  0
   33.4143  -23.3272   39.8054 C   0  0  0  0  0  0  0  0  0  0  0  0
   33.2892  -24.0410   41.3970 Cl  0  0  0  0  0  0  0  0  0  0  0  0
   33.6811  -21.9719   39.6507 C   0  0  0  0  0  0  0  0  0  0  0  0
   33.8818  -21.0346   41.1189 Cl  0  0  0  0  0  0  0  0  0  0  0  0
   33.7850  -21.3825   38.4086 C   0  0  0  0  0  0  0  0  0  0  0  0
  4  5  1  0  0  0
  5  6  1  0  0  0
  5  7  1  0  0  0
  7  8  1  0  0  0
  8  9  1  0  0  0
  9 10  2  0  0  0
 10 11  1  0  0  0
 11 12  2  0  0  0
 12 13  1  0  0  0
 13 14  2  0  0  0
 14 15  1  0  0  0
 11  1  1  0  0  0
  1  2  2  0  0  0
  1  3  2  0  0  0
  1 16  1  0  0  0
 16 18  1  0  0  0
 18 19  2  0  0  0
 19 20  1  0  0  0
 20 21  2  0  0  0
 21 22  1  0  0  0
 21 23  1  0  0  0
 23 24  1  0  0  0
 23 25  2  0  0  0
 15  5  1  0  0  0
 25 18  1  0  0  0
 14  9  1  0  0  0
 16 17  1  0  0  0
M  END
> <minimizedAffinity>
-5.40343

> <CNNscore>
0.3514111042

> <CNNaffinity>
4.7577919960

> <CNN_VS>
1.6719409227

> <CNNaffinity_variance>
0.2243084610

$$$$
[H]c1c([H])c(N([H])S(=O)(=O)c2c([H])c([H])c3c(c2[H])C([H])([H])C([H])([H])C(C([H])([H])[H])(C([H])([H])[H])O3)c([H])c(Cl)c1Cl


 25 27  0  0  0  0  0  0  0  0999 V2000
   33.5978  -18.3192   34.9460 S   0  0  0  0  0  0  0  0  0  0  0  0
   32.4405  -18.6672   34.0390 O   0  0  0  0  0  0  0  0  0  0  0  0
   34.8402  -18.5326   34.1262 O   0  0  0  0  0  0  0  0  0  0  0  0
   34.4870  -23.8704   40.8005 C   0  0  0  0  0  0  0  0  0  0  0  0
   34.7519  -22.9720   39.6110 C   0  0  0  0  0  0  0  0  0  0  0  0
   35.3469  -23.8440   38.5031 C   0  0  0  0  0  0  0  0  0  0  0  0
   35.7525  -21.9174   39.9305 C   0  0  0  0  0  0  0  0  0  0  0  0
   35.6846  -20.6689   39.1363 C   0  0  0  0  0  0  0  0  0  0  0  0
   34.5901  -20.5920   38.1472 C   0  0  0  0  0  0  0  0  0  0  0  0
   34.6098  -19.6318   37.1578 C   0  0  0  0  0  0  0  0  0  0  0  0
   33.6105  -19.5197   36.2142 C   0  0  0  0  0  0  0  0  0  0  0  0
   32.5571  -20.4037   36.2690 C   0  0  0  0  0  0  0  0  0  0  0  0
   32.5261  -21.3680   37.2534 C   0  0  0  0  0  0  0  0  0  0  0  0
   33.5388  -21.4714   38.1987 C   0  0  0  0  0  0  0  0  0  0  0  0
   33.5065  -22.4474   39.1936 O   0  0  0  0  0  0  0  0  0  0  0  0
   33.4349  -16.7348   35.5293 N   0  0  0  0  0  0  0  0  0  0  0  0
   32.4902  -16.2905   35.5452 H   0  0  0  0  0  0  0  0  0  0  0  0
   34.5028  -15.9338   36.0131 C   0  0  0  0  0  0  0  0  0  0  0  0
   35.6353  -16.5317   36.5225 C   0  0  0  0  0  0  0  0  0  0  0  0
   36.6569  -15.7294   36.9850 C   0  0  0  0  0  0  0  0  0  0  0  0
   36.5693  -14.3489   36.9488 C   0  0  0  0  0  0  0  0  0  0  0  0
   37.8728  -13.3436   37.5390 Cl  0  0  0  0  0  0  0  0  0  0  0  0
   35.4116  -13.7825   36.4281 C   0  0  0  0  0  0  0  0  0  0  0  0
   35.3349  -12.0311   36.3975 Cl  0  0  0  0  0  0  0  0  0  0  0  0
   34.3684  -14.5503   35.9558 C   0  0  0  0  0  0  0  0  0  0  0  0
  4  5  1  0  0  0
  5  6  1  0  0  0
  5  7  1  0  0  0
  7  8  1  0  0  0
  8  9  1  0  0  0
  9 10  2  0  0  0
 10 11  1  0  0  0
 11 12  2  0  0  0
 12 13  1  0  0  0
 13 14  2  0  0  0
 14 15  1  0  0  0
 11  1  1  0  0  0
  1  2  2  0  0  0
  1  3  2  0  0  0
  1 16  1  0  0  0
 16 18  1  0  0  0
 18 19  2  0  0  0
 19 20  1  0  0  0
 20 21  2  0  0  0
 21 22  1  0  0  0
 21 23  1  0  0  0
 23 24  1  0  0  0
 23 25  2  0  0  0
 15  5  1  0  0  0
 25 18  1  0  0  0
 14  9  1  0  0  0
 16 17  1  0  0  0
M  END
> <minimizedAffinity>
-6.82102

> <CNNscore>
0.3419117928

> <CNNaffinity>
5.0329470634

> <CNN_VS>
1.7208240032

> <CNNaffinity_variance>
0.3125240207

$$$$
[H]c1c([H])c(N([H])S(=O)(=O)c2c([H])c([H])c3c(c2[H])C([H])([H])C([H])([H])C(C([H])([H])[H])(C([H])([H])[H])O3)c([H])c(Cl)c1Cl


 25 27  0  0  0  0  0  0  0  0999 V2000
   33.8702  -18.6525   34.5655 S   0  0  0  0  0  0  0  0  0  0  0  0
   33.1928  -17.6014   33.7174 O   0  0  0  0  0  0  0  0  0  0  0  0
   34.9255  -19.2692   33.6895 O   0  0  0  0  0  0  0  0  0  0  0  0
   28.0090  -23.8951   36.5764 C   0  0  0  0  0  0  0  0  0  0  0  0
   29.0110  -22.7612   36.6269 C   0  0  0  0  0  0  0  0  0  0  0  0
   29.7531  -22.8661   37.9612 C   0  0  0  0  0  0  0  0  0  0  0  0
   28.3402  -21.4329   36.5962 C   0  0  0  0  0  0  0  0  0  0  0  0
   29.1278  -20.2984   36.0606 C   0  0  0  0  0  0  0  0  0  0  0  0
   30.4800  -20.6284   35.5656 C   0  0  0  0  0  0  0  0  0  0  0  0
   31.4016  -19.6292   35.3344 C   0  0  0  0  0  0  0  0  0  0  0  0
   32.6742  -19.8880   34.8708 C   0  0  0  0  0  0  0  0  0  0  0  0
   33.0301  -21.1958   34.6325 C   0  0  0  0  0  0  0  0  0  0  0  0
   32.1176  -22.2035   34.8598 C   0  0  0  0  0  0  0  0  0  0  0  0
   30.8381  -21.9308   35.3271 C   0  0  0  0  0  0  0  0  0  0  0  0
   29.9162  -22.9509   35.5569 O   0  0  0  0  0  0  0  0  0  0  0  0
   34.4885  -17.9581   35.9842 N   0  0  0  0  0  0  0  0  0  0  0  0
   34.7385  -18.5751   36.7885 H   0  0  0  0  0  0  0  0  0  0  0  0
   34.7028  -16.5684   36.1815 C   0  0  0  0  0  0  0  0  0  0  0  0
   33.7190  -15.6654   35.8408 C   0  0  0  0  0  0  0  0  0  0  0  0
   33.9540  -14.3219   36.0435 C   0  0  0  0  0  0  0  0  0  0  0  0
   35.1466  -13.8657   36.5769 C   0  0  0  0  0  0  0  0  0  0  0  0
   35.4312  -12.1587   36.8284 Cl  0  0  0  0  0  0  0  0  0  0  0  0
   36.1148  -14.8064   36.9081 C   0  0  0  0  0  0  0  0  0  0  0  0
   37.6130  -14.1932   37.5816 Cl  0  0  0  0  0  0  0  0  0  0  0  0
   35.9178  -16.1581   36.7207 C   0  0  0  0  0  0  0  0  0  0  0  0
  4  5  1  0  0  0
  5  6  1  0  0  0
  5  7  1  0  0  0
  7  8  1  0  0  0
  8  9  1  0  0  0
  9 10  2  0  0  0
 10 11  1  0  0  0
 11 12  2  0  0  0
 12 13  1  0  0  0
 13 14  2  0  0  0
 14 15  1  0  0  0
 11  1  1  0  0  0
  1  2  2  0  0  0
  1  3  2  0  0  0
  1 16  1  0  0  0
 16 18  1  0  0  0
 18 19  2  0  0  0
 19 20  1  0  0  0
 20 21  2  0  0  0
 21 22  1  0  0  0
 21 23  1  0  0  0
 23 24  1  0  0  0
 23 25  2  0  0  0
 15  5  1  0  0  0
 25 18  1  0  0  0
 14  9  1  0  0  0
 16 17  1  0  0  0
M  END
> <minimizedAffinity>
-6.84861

> <CNNscore>
0.3091080785

> <CNNaffinity>
4.7196693420

> <CNN_VS>
1.4588879347

> <CNNaffinity_variance>
0.5339390039

$$$$
[H]c1c([H])c(N([H])S(=O)(=O)c2c([H])c([H])c3c(c2[H])C([H])([H])C([H])([H])C(C([H])([H])[H])(C([H])([H])[H])O3)c([H])c(Cl)c1Cl


 25 27  0  0  0  0  0  0  0  0999 V2000
   36.8540  -18.9683   36.1755 S   0  0  0  0  0  0  0  0  0  0  0  0
   36.1230  -20.2851   36.0539 O   0  0  0  0  0  0  0  0  0  0  0  0
   37.0626  -18.4832   34.7675 O   0  0  0  0  0  0  0  0  0  0  0  0
   44.5010  -20.4051   38.4870 C   0  0  0  0  0  0  0  0  0  0  0  0
   43.2725  -20.1542   37.6384 C   0  0  0  0  0  0  0  0  0  0  0  0
   43.2681  -21.1993   36.5204 C   0  0  0  0  0  0  0  0  0  0  0  0
   43.3151  -18.8141   36.9920 C   0  0  0  0  0  0  0  0  0  0  0  0
   42.0137  -18.1980   36.6441 C   0  0  0  0  0  0  0  0  0  0  0  0
   40.8124  -18.9665   37.0296 C   0  0  0  0  0  0  0  0  0  0  0  0
   39.5808  -18.6501   36.4966 C   0  0  0  0  0  0  0  0  0  0  0  0
   38.4317  -19.3369   36.8275 C   0  0  0  0  0  0  0  0  0  0  0  0
   38.5265  -20.3764   37.7243 C   0  0  0  0  0  0  0  0  0  0  0  0
   39.7521  -20.7023   38.2640 C   0  0  0  0  0  0  0  0  0  0  0  0
   40.9032  -20.0032   37.9231 C   0  0  0  0  0  0  0  0  0  0  0  0
   42.1423  -20.3340   38.4694 O   0  0  0  0  0  0  0  0  0  0  0  0
   35.9697  -17.8890   37.1398 N   0  0  0  0  0  0  0  0  0  0  0  0
   35.4589  -18.2507   37.9755 H   0  0  0  0  0  0  0  0  0  0  0  0
   35.8586  -16.4932   36.9041 C   0  0  0  0  0  0  0  0  0  0  0  0
   34.7329  -15.9863   36.2914 C   0  0  0  0  0  0  0  0  0  0  0  0
   34.6517  -14.6269   36.0753 C   0  0  0  0  0  0  0  0  0  0  0  0
   35.6680  -13.7689   36.4572 C   0  0  0  0  0  0  0  0  0  0  0  0
   35.5515  -12.0467   36.1768 Cl  0  0  0  0  0  0  0  0  0  0  0  0
   36.7875  -14.3171   37.0722 C   0  0  0  0  0  0  0  0  0  0  0  0
   38.0551  -13.2010   37.5429 Cl  0  0  0  0  0  0  0  0  0  0  0  0
   36.9062  -15.6708   37.3059 C   0  0  0  0  0  0  0  0  0  0  0  0
  4  5  1  0  0  0
  5  6  1  0  0  0
  5  7  1  0  0  0
  7  8  1  0  0  0
  8  9  1  0  0  0
  9 10  2  0  0  0
 10 11  1  0  0  0
 11 12  2  0  0  0
 12 13  1  0  0  0
 13 14  2  0  0  0
 14 15  1  0  0  0
 11  1  1  0  0  0
  1  2  2  0  0  0
  1  3  2  0  0  0
  1 16  1  0  0  0
 16 18  1  0  0  0
 18 19  2  0  0  0
 19 20  1  0  0  0
 20 21  2  0  0  0
 21 22  1  0  0  0
 21 23  1  0  0  0
 23 24  1  0  0  0
 23 25  2  0  0  0
 15  5  1  0  0  0
 25 18  1  0  0  0
 14  9  1  0  0  0
 16 17  1  0  0  0
M  END
> <minimizedAffinity>
-6.63714

> <CNNscore>
0.2990221679

> <CNNaffinity>
4.9165945053

> <CNN_VS>
1.4701707363

> <CNNaffinity_variance>
0.3876430392

$$$$
[H]c1c([H])c(N([H])S(=O)(=O)c2c([H])c([H])c3c(c2[H])C([H])([H])C([H])([H])C(C([H])([H])[H])(C([H])([H])[H])O3)c([H])c(Cl)c1Cl


 25 27  0  0  0  0  0  0  0  0999 V2000
   36.1310  -19.0043   35.5937 S   0  0  0  0  0  0  0  0  0  0  0  0
   36.4055  -18.3448   34.2623 O   0  0  0  0  0  0  0  0  0  0  0  0
   37.0739  -20.1730   35.6749 O   0  0  0  0  0  0  0  0  0  0  0  0
   28.8967  -22.6851   35.5981 C   0  0  0  0  0  0  0  0  0  0  0  0
   30.3860  -22.4290   35.6917 C   0  0  0  0  0  0  0  0  0  0  0  0
   31.0881  -23.5066   34.8624 C   0  0  0  0  0  0  0  0  0  0  0  0
   30.8787  -22.5551   37.0906 C   0  0  0  0  0  0  0  0  0  0  0  0
   32.1017  -21.7957   37.4396 C   0  0  0  0  0  0  0  0  0  0  0  0
   32.6659  -20.9523   36.3661 C   0  0  0  0  0  0  0  0  0  0  0  0
   33.9460  -20.4511   36.4723 C   0  0  0  0  0  0  0  0  0  0  0  0
   34.5145  -19.6583   35.4978 C   0  0  0  0  0  0  0  0  0  0  0  0
   33.7693  -19.3608   34.3797 C   0  0  0  0  0  0  0  0  0  0  0  0
   32.4884  -19.8559   34.2619 C   0  0  0  0  0  0  0  0  0  0  0  0
   31.9261  -20.6539   35.2504 C   0  0  0  0  0  0  0  0  0  0  0  0
   30.6305  -21.1543   35.1299 O   0  0  0  0  0  0  0  0  0  0  0  0
   36.3249  -17.8885   36.8564 N   0  0  0  0  0  0  0  0  0  0  0  0
   36.6352  -18.2266   37.7942 H   0  0  0  0  0  0  0  0  0  0  0  0
   36.0955  -16.4914   36.7479 C   0  0  0  0  0  0  0  0  0  0  0  0
   34.9155  -16.0280   36.2073 C   0  0  0  0  0  0  0  0  0  0  0  0
   34.7192  -14.6663   36.1144 C   0  0  0  0  0  0  0  0  0  0  0  0
   35.6740  -13.7638   36.5488 C   0  0  0  0  0  0  0  0  0  0  0  0
   35.4117  -12.0392   36.4249 Cl  0  0  0  0  0  0  0  0  0  0  0  0
   36.8512  -14.2690   37.0883 C   0  0  0  0  0  0  0  0  0  0  0  0
   38.0382  -13.0971   37.6286 Cl  0  0  0  0  0  0  0  0  0  0  0  0
   37.0849  -15.6234   37.1983 C   0  0  0  0  0  0  0  0  0  0  0  0
  4  5  1  0  0  0
  5  6  1  0  0  0
  5  7  1  0  0  0
  7  8  1  0  0  0
  8  9  1  0  0  0
  9 10  2  0  0  0
 10 11  1  0  0  0
 11 12  2  0  0  0
 12 13  1  0  0  0
 13 14  2  0  0  0
 14 15  1  0  0  0
 11  1  1  0  0  0
  1  2  2  0  0  0
  1  3  2  0  0  0
  1 16  1  0  0  0
 16 18  1  0  0  0
 18 19  2  0  0  0
 19 20  1  0  0  0
 20 21  2  0  0  0
 21 22  1  0  0  0
 21 23  1  0  0  0
 23 24  1  0  0  0
 23 25  2  0  0  0
 15  5  1  0  0  0
 25 18  1  0  0  0
 14  9  1  0  0  0
 16 17  1  0  0  0
M  END
> <minimizedAffinity>
-7.12823

> <CNNscore>
0.2933636010

> <CNNaffinity>
4.8356266022

> <CNN_VS>
1.4185968637

> <CNNaffinity_variance>
0.5383917689

$$$$
[H]c1c([H])c(N([H])S(=O)(=O)c2c([H])c([H])c3c(c2[H])C([H])([H])C([H])([H])C(C([H])([H])[H])(C([H])([H])[H])O3)c([H])c(Cl)c1Cl


 25 27  0  0  0  0  0  0  0  0999 V2000
   35.6767  -19.5815   37.1489 S   0  0  0  0  0  0  0  0  0  0  0  0
   35.1327  -19.2163   38.5104 O   0  0  0  0  0  0  0  0  0  0  0  0
   35.0382  -20.8950   36.7907 O   0  0  0  0  0  0  0  0  0  0  0  0
   43.4544  -21.0323   38.9615 C   0  0  0  0  0  0  0  0  0  0  0  0
   41.9983  -20.6309   39.0668 C   0  0  0  0  0  0  0  0  0  0  0  0
   41.9495  -19.2643   39.7541 C   0  0  0  0  0  0  0  0  0  0  0  0
   41.2260  -21.5806   39.9136 C   0  0  0  0  0  0  0  0  0  0  0  0
   39.7721  -21.6819   39.6491 C   0  0  0  0  0  0  0  0  0  0  0  0
   39.2609  -20.8618   38.5317 C   0  0  0  0  0  0  0  0  0  0  0  0
   37.9072  -20.6411   38.3904 C   0  0  0  0  0  0  0  0  0  0  0  0
   37.3831  -19.8849   37.3632 C   0  0  0  0  0  0  0  0  0  0  0  0
   38.2509  -19.3330   36.4488 C   0  0  0  0  0  0  0  0  0  0  0  0
   39.6063  -19.5465   36.5794 C   0  0  0  0  0  0  0  0  0  0  0  0
   40.1229  -20.3102   37.6185 C   0  0  0  0  0  0  0  0  0  0  0  0
   41.4940  -20.5251   37.7497 O   0  0  0  0  0  0  0  0  0  0  0  0
   35.3543  -18.3451   36.0333 N   0  0  0  0  0  0  0  0  0  0  0  0
   35.0987  -18.5954   35.0525 H   0  0  0  0  0  0  0  0  0  0  0  0
   35.4029  -16.9561   36.3240 C   0  0  0  0  0  0  0  0  0  0  0  0
   36.4941  -16.4281   36.9796 C   0  0  0  0  0  0  0  0  0  0  0  0
   36.5148  -15.0759   37.2487 C   0  0  0  0  0  0  0  0  0  0  0  0
   35.4719  -14.2456   36.8776 C   0  0  0  0  0  0  0  0  0  0  0  0
   35.5114  -12.5323   37.2254 Cl  0  0  0  0  0  0  0  0  0  0  0  0
   34.3885  -14.8145   36.2182 C   0  0  0  0  0  0  0  0  0  0  0  0
   33.0856  -13.7333   35.7626 Cl  0  0  0  0  0  0  0  0  0  0  0  0
   34.3305  -16.1618   35.9310 C   0  0  0  0  0  0  0  0  0  0  0  0
  4  5  1  0  0  0
  5  6  1  0  0  0
  5  7  1  0  0  0
  7  8  1  0  0  0
  8  9  1  0  0  0
  9 10  2  0  0  0
 10 11  1  0  0  0
 11 12  2  0  0  0
 12 13  1  0  0  0
 13 14  2  0  0  0
 14 15  1  0  0  0
 11  1  1  0  0  0
  1  2  2  0  0  0
  1  3  2  0  0  0
  1 16  1  0  0  0
 16 18  1  0  0  0
 18 19  2  0  0  0
 19 20  1  0  0  0
 20 21  2  0  0  0
 21 22  1  0  0  0
 21 23  1  0  0  0
 23 24  1  0  0  0
 23 25  2  0  0  0
 15  5  1  0  0  0
 25 18  1  0  0  0
 14  9  1  0  0  0
 16 17  1  0  0  0
M  END
> <minimizedAffinity>
-5.89161

> <CNNscore>
0.2921217084

> <CNNaffinity>
4.8180971146

> <CNN_VS>
1.4074707031

> <CNNaffinity_variance>
0.3181038499

$$$$
[H]c1c([H])c(N([H])S(=O)(=O)c2c([H])c([H])c3c(c2[H])C([H])([H])C([H])([H])C(C([H])([H])[H])(C([H])([H])[H])O3)c([H])c(Cl)c1Cl


 25 27  0  0  0  0  0  0  0  0999 V2000
   33.2128  -12.1770   37.7212 S   0  0  0  0  0  0  0  0  0  0  0  0
   33.9987  -10.9029   37.5163 O   0  0  0  0  0  0  0  0  0  0  0  0
   33.1939  -12.4132   39.2062 O   0  0  0  0  0  0  0  0  0  0  0  0
   37.0205  -18.6700   34.6841 C   0  0  0  0  0  0  0  0  0  0  0  0
   36.1076  -17.7860   35.5070 C   0  0  0  0  0  0  0  0  0  0  0  0
   36.2565  -18.2108   36.9697 C   0  0  0  0  0  0  0  0  0  0  0  0
   34.6787  -17.9731   35.1345 C   0  0  0  0  0  0  0  0  0  0  0  0
   33.7669  -16.8336   35.3879 C   0  0  0  0  0  0  0  0  0  0  0  0
   34.3951  -15.6142   35.9363 C   0  0  0  0  0  0  0  0  0  0  0  0
   33.6191  -14.6178   36.4897 C   0  0  0  0  0  0  0  0  0  0  0  0
   34.1596  -13.4616   37.0119 C   0  0  0  0  0  0  0  0  0  0  0  0
   35.5262  -13.3041   36.9755 C   0  0  0  0  0  0  0  0  0  0  0  0
   36.3127  -14.2930   36.4248 C   0  0  0  0  0  0  0  0  0  0  0  0
   35.7569  -15.4538   35.9018 C   0  0  0  0  0  0  0  0  0  0  0  0
   36.5534  -16.4535   35.3454 O   0  0  0  0  0  0  0  0  0  0  0  0
   31.6667  -12.0332   37.0385 N   0  0  0  0  0  0  0  0  0  0  0  0
   31.4911  -12.4197   36.0846 H   0  0  0  0  0  0  0  0  0  0  0  0
   30.5550  -11.4143   37.6688 C   0  0  0  0  0  0  0  0  0  0  0  0
   30.4968  -10.0408   37.7672 C   0  0  0  0  0  0  0  0  0  0  0  0
   29.4054   -9.4666   38.3840 C   0  0  0  0  0  0  0  0  0  0  0  0
   28.3768  -10.2340   38.9016 C   0  0  0  0  0  0  0  0  0  0  0  0
   26.9984   -9.4923   39.6814 Cl  0  0  0  0  0  0  0  0  0  0  0  0
   28.4710  -11.6158   38.7834 C   0  0  0  0  0  0  0  0  0  0  0  0
   27.1501  -12.5566   39.4500 Cl  0  0  0  0  0  0  0  0  0  0  0  0
   29.5457  -12.2276   38.1738 C   0  0  0  0  0  0  0  0  0  0  0  0
  4  5  1  0  0  0
  5  6  1  0  0  0
  5  7  1  0  0  0
  7  8  1  0  0  0
  8  9  1  0  0  0
  9 10  2  0  0  0
 10 11  1  0  0  0
 11 12  2  0  0  0
 12 13  1  0  0  0
 13 14  2  0  0  0
 14 15  1  0  0  0
 11  1  1  0  0  0
  1  2  2  0  0  0
  1  3  2  0  0  0
  1 16  1  0  0  0
 16 18  1  0  0  0
 18 19  2  0  0  0
 19 20  1  0  0  0
 20 21  2  0  0  0
 21 22  1  0  0  0
 21 23  1  0  0  0
 23 24  1  0  0  0
 23 25  2  0  0  0
 15  5  1  0  0  0
 25 18  1  0  0  0
 14  9  1  0  0  0
 16 17  1  0  0  0
M  END
> <minimizedAffinity>
-8.79982

> <CNNscore>
0.2843143344

> <CNNaffinity>
5.6624374390

> <CNN_VS>
1.6099121571

> <CNNaffinity_variance>
0.1624991000

$$$$
[H]c1c([H])c([H])c(Oc2c([H])c([H])c(-c3c([H])c([H])c([H])c4c3c(N([H])[H])nn4[H])c([H])c2[H])c([H])c1[H]


 26 29  0  0  0  0  0  0  0  0999 V2000
   33.4300  -16.3033   35.6550 N   0  0  0  0  0  0  0  0  0  0  0  0
   33.9267  -15.0237   36.0126 C   0  0  0  0  0  0  0  0  0  0  0  0
   33.2322  -13.8580   35.9238 N   0  0  0  0  0  0  0  0  0  0  0  0
   33.9840  -12.8548   36.3119 N   0  0  0  0  0  0  0  0  0  0  0  0
   35.1896  -13.3281   36.6661 C   0  0  0  0  0  0  0  0  0  0  0  0
   36.3469  -12.7293   37.1265 C   0  0  0  0  0  0  0  0  0  0  0  0
   37.4784  -13.4642   37.4073 C   0  0  0  0  0  0  0  0  0  0  0  0
   37.4144  -14.8047   37.2152 C   0  0  0  0  0  0  0  0  0  0  0  0
   36.2816  -15.4898   36.7528 C   0  0  0  0  0  0  0  0  0  0  0  0
   35.1745  -14.7179   36.4830 C   0  0  0  0  0  0  0  0  0  0  0  0
   33.7358  -16.7594   34.7742 H   0  0  0  0  0  0  0  0  0  0  0  0
   32.7542  -16.8103   36.2607 H   0  0  0  0  0  0  0  0  0  0  0  0
   33.6882  -11.8638   36.3378 H   0  0  0  0  0  0  0  0  0  0  0  0
   36.3364  -16.9385   36.6385 C   0  0  0  0  0  0  0  0  0  0  0  0
   36.7344  -17.5942   35.5020 C   0  0  0  0  0  0  0  0  0  0  0  0
   36.7849  -18.9917   35.4322 C   0  0  0  0  0  0  0  0  0  0  0  0
   36.4327  -19.7687   36.5141 C   0  0  0  0  0  0  0  0  0  0  0  0
   36.0308  -19.1184   37.6615 C   0  0  0  0  0  0  0  0  0  0  0  0
   35.9814  -17.7421   37.7296 C   0  0  0  0  0  0  0  0  0  0  0  0
   36.4818  -21.1545   36.4480 O   0  0  0  0  0  0  0  0  0  0  0  0
   37.5090  -21.9192   36.9505 C   0  0  0  0  0  0  0  0  0  0  0  0
   37.4049  -22.5799   38.1467 C   0  0  0  0  0  0  0  0  0  0  0  0
   38.4487  -23.3364   38.6222 C   0  0  0  0  0  0  0  0  0  0  0  0
   39.6285  -23.4585   37.9218 C   0  0  0  0  0  0  0  0  0  0  0  0
   39.7037  -22.7807   36.7190 C   0  0  0  0  0  0  0  0  0  0  0  0
   38.6682  -22.0181   36.2266 C   0  0  0  0  0  0  0  0  0  0  0  0
  1  2  1  0  0  0
  2  3  2  0  0  0
  3  4  1  0  0  0
  4  5  1  0  0  0
  5  6  2  0  0  0
  6  7  1  0  0  0
  7  8  2  0  0  0
  8  9  1  0  0  0
  9 14  1  0  0  0
 14 15  2  0  0  0
 15 16  1  0  0  0
 16 17  2  0  0  0
 17 20  1  0  0  0
 20 21  1  0  0  0
 21 22  2  0  0  0
 22 23  1  0  0  0
 23 24  2  0  0  0
 24 25  1  0  0  0
 25 26  2  0  0  0
 17 18  1  0  0  0
 18 19  2  0  0  0
  9 10  2  0  0  0
 10  2  1  0  0  0
 10  5  1  0  0  0
 19 14  1  0  0  0
 26 21  1  0  0  0
  1 11  1  0  0  0
  1 12  1  0  0  0
  4 13  1  0  0  0
M  END
> <minimizedAffinity>
-6.55116

> <CNNscore>
0.5395867229

> <CNNaffinity>
4.8911509514

> <CNN_VS>
2.6392002106

> <CNNaffinity_variance>
0.3021728098

$$$$
[H]c1c([H])c([H])c(Oc2c([H])c([H])c(-c3c([H])c([H])c([H])c4c3c(N([H])[H])nn4[H])c([H])c2[H])c([H])c1[H]


 26 29  0  0  0  0  0  0  0  0999 V2000
   33.0728  -16.8338   34.7046 N   0  0  0  0  0  0  0  0  0  0  0  0
   34.0698  -17.8421   34.6676 C   0  0  0  0  0  0  0  0  0  0  0  0
   33.9828  -19.0084   33.9740 N   0  0  0  0  0  0  0  0  0  0  0  0
   35.0623  -19.7293   34.1673 N   0  0  0  0  0  0  0  0  0  0  0  0
   35.8877  -19.0622   34.9898 C   0  0  0  0  0  0  0  0  0  0  0  0
   37.1271  -19.3497   35.5292 C   0  0  0  0  0  0  0  0  0  0  0  0
   37.7652  -18.4743   36.3811 C   0  0  0  0  0  0  0  0  0  0  0  0
   37.1293  -17.3129   36.6720 C   0  0  0  0  0  0  0  0  0  0  0  0
   35.8738  -16.9444   36.1678 C   0  0  0  0  0  0  0  0  0  0  0  0
   35.2711  -17.8479   35.3224 C   0  0  0  0  0  0  0  0  0  0  0  0
   32.4728  -16.7171   35.5435 H   0  0  0  0  0  0  0  0  0  0  0  0
   32.9205  -16.1934   33.9000 H   0  0  0  0  0  0  0  0  0  0  0  0
   35.2403  -20.6591   33.7501 H   0  0  0  0  0  0  0  0  0  0  0  0
   35.3288  -15.6443   36.5248 C   0  0  0  0  0  0  0  0  0  0  0  0
   34.0186  -15.2918   36.3269 C   0  0  0  0  0  0  0  0  0  0  0  0
   33.5264  -14.0333   36.6936 C   0  0  0  0  0  0  0  0  0  0  0  0
   34.3488  -13.0919   37.2729 C   0  0  0  0  0  0  0  0  0  0  0  0
   35.6682  -13.4369   37.4759 C   0  0  0  0  0  0  0  0  0  0  0  0
   36.1521  -14.6766   37.1146 C   0  0  0  0  0  0  0  0  0  0  0  0
   33.8638  -11.8433   37.6376 O   0  0  0  0  0  0  0  0  0  0  0  0
   34.2199  -10.6637   37.0259 C   0  0  0  0  0  0  0  0  0  0  0  0
   33.5689   -9.4857   37.2846 C   0  0  0  0  0  0  0  0  0  0  0  0
   33.9481   -8.3235   36.6575 C   0  0  0  0  0  0  0  0  0  0  0  0
   34.9871   -8.2979   35.7534 C   0  0  0  0  0  0  0  0  0  0  0  0
   35.6243   -9.5012   35.5131 C   0  0  0  0  0  0  0  0  0  0  0  0
   35.2583  -10.6756   36.1320 C   0  0  0  0  0  0  0  0  0  0  0  0
  1  2  1  0  0  0
  2  3  2  0  0  0
  3  4  1  0  0  0
  4  5  1  0  0  0
  5  6  2  0  0  0
  6  7  1  0  0  0
  7  8  2  0  0  0
  8  9  1  0  0  0
  9 14  1  0  0  0
 14 15  2  0  0  0
 15 16  1  0  0  0
 16 17  2  0  0  0
 17 20  1  0  0  0
 20 21  1  0  0  0
 21 22  2  0  0  0
 22 23  1  0  0  0
 23 24  2  0  0  0
 24 25  1  0  0  0
 25 26  2  0  0  0
 17 18  1  0  0  0
 18 19  2  0  0  0
  9 10  2  0  0  0
 10  2  1  0  0  0
 10  5  1  0  0  0
 19 14  1  0  0  0
 26 21  1  0  0  0
  1 11  1  0  0  0
  1 12  1  0  0  0
  4 13  1  0  0  0
M  END
> <minimizedAffinity>
-8.69799

> <CNNscore>
0.5192974210

> <CNNaffinity>
5.3491964340

> <CNN_VS>
2.7778239250

> <CNNaffinity_variance>
0.1800389588

$$$$
[H]c1c([H])c([H])c(Oc2c([H])c([H])c(-c3c([H])c([H])c([H])c4c3c(N([H])[H])nn4[H])c([H])c2[H])c([H])c1[H]


 26 29  0  0  0  0  0  0  0  0999 V2000
   33.3903  -16.2631   35.6706 N   0  0  0  0  0  0  0  0  0  0  0  0
   33.9045  -14.9864   36.0138 C   0  0  0  0  0  0  0  0  0  0  0  0
   33.2268  -13.8122   35.9099 N   0  0  0  0  0  0  0  0  0  0  0  0
   33.9922  -12.8152   36.2873 N   0  0  0  0  0  0  0  0  0  0  0  0
   35.1903  -13.3012   36.6491 C   0  0  0  0  0  0  0  0  0  0  0  0
   36.3553  -12.7134   37.1042 C   0  0  0  0  0  0  0  0  0  0  0  0
   37.4759  -13.4609   37.3956 C   0  0  0  0  0  0  0  0  0  0  0  0
   37.3932  -14.8025   37.2194 C   0  0  0  0  0  0  0  0  0  0  0  0
   36.2514  -15.4770   36.7634 C   0  0  0  0  0  0  0  0  0  0  0  0
   35.1558  -14.6927   36.4825 C   0  0  0  0  0  0  0  0  0  0  0  0
   33.6909  -16.7341   34.7959 H   0  0  0  0  0  0  0  0  0  0  0  0
   32.7064  -16.7532   36.2813 H   0  0  0  0  0  0  0  0  0  0  0  0
   33.7104  -11.8199   36.3008 H   0  0  0  0  0  0  0  0  0  0  0  0
   36.2859  -16.9275   36.6665 C   0  0  0  0  0  0  0  0  0  0  0  0
   36.6476  -17.6024   35.5291 C   0  0  0  0  0  0  0  0  0  0  0  0
   36.6795  -19.0013   35.4761 C   0  0  0  0  0  0  0  0  0  0  0  0
   36.3448  -19.7600   36.5763 C   0  0  0  0  0  0  0  0  0  0  0  0
   35.9795  -19.0905   37.7248 C   0  0  0  0  0  0  0  0  0  0  0  0
   35.9484  -17.7128   37.7763 C   0  0  0  0  0  0  0  0  0  0  0  0
   36.3756  -21.1471   36.5269 O   0  0  0  0  0  0  0  0  0  0  0  0
   35.6054  -21.9688   37.3169 C   0  0  0  0  0  0  0  0  0  0  0  0
   34.2721  -22.1709   37.0719 C   0  0  0  0  0  0  0  0  0  0  0  0
   33.5291  -22.9979   37.8793 C   0  0  0  0  0  0  0  0  0  0  0  0
   34.0903  -23.6493   38.9556 C   0  0  0  0  0  0  0  0  0  0  0  0
   35.4366  -23.4257   39.1773 C   0  0  0  0  0  0  0  0  0  0  0  0
   36.1970  -22.6006   38.3790 C   0  0  0  0  0  0  0  0  0  0  0  0
  1  2  1  0  0  0
  2  3  2  0  0  0
  3  4  1  0  0  0
  4  5  1  0  0  0
  5  6  2  0  0  0
  6  7  1  0  0  0
  7  8  2  0  0  0
  8  9  1  0  0  0
  9 14  1  0  0  0
 14 15  2  0  0  0
 15 16  1  0  0  0
 16 17  2  0  0  0
 17 20  1  0  0  0
 20 21  1  0  0  0
 21 22  2  0  0  0
 22 23  1  0  0  0
 23 24  2  0  0  0
 24 25  1  0  0  0
 25 26  2  0  0  0
 17 18  1  0  0  0
 18 19  2  0  0  0
  9 10  2  0  0  0
 10  2  1  0  0  0
 10  5  1  0  0  0
 19 14  1  0  0  0
 26 21  1  0  0  0
  1 11  1  0  0  0
  1 12  1  0  0  0
  4 13  1  0  0  0
M  END
> <minimizedAffinity>
-6.55328

> <CNNscore>
0.4897297323

> <CNNaffinity>
4.8133740425

> <CNN_VS>
2.3572523594

> <CNNaffinity_variance>
0.3987036645

$$$$
[H]c1c([H])c([H])c(Oc2c([H])c([H])c(-c3c([H])c([H])c([H])c4c3c(N([H])[H])nn4[H])c([H])c2[H])c([H])c1[H]


 26 29  0  0  0  0  0  0  0  0999 V2000
   32.2226  -22.8240   33.8969 N   0  0  0  0  0  0  0  0  0  0  0  0
   30.9943  -23.2330   34.4767 C   0  0  0  0  0  0  0  0  0  0  0  0
   30.4075  -24.4468   34.3003 N   0  0  0  0  0  0  0  0  0  0  0  0
   29.2713  -24.4976   34.9551 N   0  0  0  0  0  0  0  0  0  0  0  0
   29.0776  -23.3245   35.5789 C   0  0  0  0  0  0  0  0  0  0  0  0
   28.0647  -22.8302   36.3785 C   0  0  0  0  0  0  0  0  0  0  0  0
   28.1071  -21.5515   36.8908 C   0  0  0  0  0  0  0  0  0  0  0  0
   29.1859  -20.7914   36.5806 C   0  0  0  0  0  0  0  0  0  0  0  0
   30.2551  -21.2158   35.7786 C   0  0  0  0  0  0  0  0  0  0  0  0
   30.1718  -22.4984   35.2864 C   0  0  0  0  0  0  0  0  0  0  0  0
   32.2328  -22.1641   33.0958 H   0  0  0  0  0  0  0  0  0  0  0  0
   33.1336  -23.1721   34.2570 H   0  0  0  0  0  0  0  0  0  0  0  0
   28.6347  -25.3126   34.9813 H   0  0  0  0  0  0  0  0  0  0  0  0
   31.3741  -20.3118   35.5661 C   0  0  0  0  0  0  0  0  0  0  0  0
   31.4226  -19.3919   34.5504 C   0  0  0  0  0  0  0  0  0  0  0  0
   32.5131  -18.5296   34.3832 C   0  0  0  0  0  0  0  0  0  0  0  0
   33.5897  -18.5737   35.2417 C   0  0  0  0  0  0  0  0  0  0  0  0
   33.5504  -19.4956   36.2661 C   0  0  0  0  0  0  0  0  0  0  0  0
   32.4761  -20.3444   36.4303 C   0  0  0  0  0  0  0  0  0  0  0  0
   34.6723  -17.7201   35.0785 O   0  0  0  0  0  0  0  0  0  0  0  0
   34.9319  -16.6341   35.8819 C   0  0  0  0  0  0  0  0  0  0  0  0
   34.1098  -15.5378   35.9096 C   0  0  0  0  0  0  0  0  0  0  0  0
   34.3960  -14.4681   36.7231 C   0  0  0  0  0  0  0  0  0  0  0  0
   35.5094  -14.4565   37.5341 C   0  0  0  0  0  0  0  0  0  0  0  0
   36.3193  -15.5760   37.4844 C   0  0  0  0  0  0  0  0  0  0  0  0
   36.0486  -16.6571   36.6757 C   0  0  0  0  0  0  0  0  0  0  0  0
  1  2  1  0  0  0
  2  3  2  0  0  0
  3  4  1  0  0  0
  4  5  1  0  0  0
  5  6  2  0  0  0
  6  7  1  0  0  0
  7  8  2  0  0  0
  8  9  1  0  0  0
  9 14  1  0  0  0
 14 15  2  0  0  0
 15 16  1  0  0  0
 16 17  2  0  0  0
 17 20  1  0  0  0
 20 21  1  0  0  0
 21 22  2  0  0  0
 22 23  1  0  0  0
 23 24  2  0  0  0
 24 25  1  0  0  0
 25 26  2  0  0  0
 17 18  1  0  0  0
 18 19  2  0  0  0
  9 10  2  0  0  0
 10  2  1  0  0  0
 10  5  1  0  0  0
 19 14  1  0  0  0
 26 21  1  0  0  0
  1 11  1  0  0  0
  1 12  1  0  0  0
  4 13  1  0  0  0
M  END
> <minimizedAffinity>
-7.18590

> <CNNscore>
0.4612132311

> <CNNaffinity>
4.4220910072

> <CNN_VS>
2.0395269394

> <CNNaffinity_variance>
0.6871641874

$$$$
[H]c1c([H])c([H])c(Oc2c([H])c([H])c(-c3c([H])c([H])c([H])c4c3c(N([H])[H])nn4[H])c([H])c2[H])c([H])c1[H]


 26 29  0  0  0  0  0  0  0  0999 V2000
   33.5093  -16.2878   35.5240 N   0  0  0  0  0  0  0  0  0  0  0  0
   33.8427  -14.9637   35.9081 C   0  0  0  0  0  0  0  0  0  0  0  0
   32.9969  -13.8996   35.8765 N   0  0  0  0  0  0  0  0  0  0  0  0
   33.6208  -12.8159   36.2750 N   0  0  0  0  0  0  0  0  0  0  0  0
   34.8895  -13.1332   36.5793 C   0  0  0  0  0  0  0  0  0  0  0  0
   35.9713  -12.3980   37.0254 C   0  0  0  0  0  0  0  0  0  0  0  0
   37.1990  -12.9823   37.2501 C   0  0  0  0  0  0  0  0  0  0  0  0
   37.3076  -14.3133   37.0171 C   0  0  0  0  0  0  0  0  0  0  0  0
   36.2615  -15.1308   36.5655 C   0  0  0  0  0  0  0  0  0  0  0  0
   35.0534  -14.5068   36.3523 C   0  0  0  0  0  0  0  0  0  0  0  0
   33.8442  -16.6742   34.6207 H   0  0  0  0  0  0  0  0  0  0  0  0
   32.9270  -16.8975   36.1323 H   0  0  0  0  0  0  0  0  0  0  0  0
   33.1969  -11.8746   36.3410 H   0  0  0  0  0  0  0  0  0  0  0  0
   36.5047  -16.5553   36.4034 C   0  0  0  0  0  0  0  0  0  0  0  0
   36.3698  -17.4672   37.4185 C   0  0  0  0  0  0  0  0  0  0  0  0
   36.6023  -18.8340   37.2223 C   0  0  0  0  0  0  0  0  0  0  0  0
   36.9795  -19.3190   35.9892 C   0  0  0  0  0  0  0  0  0  0  0  0
   37.1181  -18.4097   34.9621 C   0  0  0  0  0  0  0  0  0  0  0  0
   36.8888  -17.0638   35.1560 C   0  0  0  0  0  0  0  0  0  0  0  0
   37.2106  -20.6735   35.7916 O   0  0  0  0  0  0  0  0  0  0  0  0
   38.4597  -21.2400   35.6857 C   0  0  0  0  0  0  0  0  0  0  0  0
   38.9933  -21.6015   34.4761 C   0  0  0  0  0  0  0  0  0  0  0  0
   40.2442  -22.1653   34.4028 C   0  0  0  0  0  0  0  0  0  0  0  0
   41.0025  -22.3869   35.5312 C   0  0  0  0  0  0  0  0  0  0  0  0
   40.4377  -22.0121   36.7363 C   0  0  0  0  0  0  0  0  0  0  0  0
   39.1859  -21.4458   36.8292 C   0  0  0  0  0  0  0  0  0  0  0  0
  1  2  1  0  0  0
  2  3  2  0  0  0
  3  4  1  0  0  0
  4  5  1  0  0  0
  5  6  2  0  0  0
  6  7  1  0  0  0
  7  8  2  0  0  0
  8  9  1  0  0  0
  9 14  1  0  0  0
 14 15  2  0  0  0
 15 16  1  0  0  0
 16 17  2  0  0  0
 17 20  1  0  0  0
 20 21  1  0  0  0
 21 22  2  0  0  0
 22 23  1  0  0  0
 23 24  2  0  0  0
 24 25  1  0  0  0
 25 26  2  0  0  0
 17 18  1  0  0  0
 18 19  2  0  0  0
  9 10  2  0  0  0
 10  2  1  0  0  0
 10  5  1  0  0  0
 19 14  1  0  0  0
 26 21  1  0  0  0
  1 11  1  0  0  0
  1 12  1  0  0  0
  4 13  1  0  0  0
M  END
> <minimizedAffinity>
-6.49863

> <CNNscore>
0.4471696913

> <CNNaffinity>
4.7807750702

> <CNN_VS>
2.1378176212

> <CNNaffinity_variance>
0.3627894223

$$$$
[H]c1c([H])c([H])c(Oc2c([H])c([H])c(-c3c([H])c([H])c([H])c4c3c(N([H])[H])nn4[H])c([H])c2[H])c([H])c1[H]


 26 29  0  0  0  0  0  0  0  0999 V2000
   32.4648  -17.5288   35.8474 N   0  0  0  0  0  0  0  0  0  0  0  0
   33.3820  -18.3232   35.1128 C   0  0  0  0  0  0  0  0  0  0  0  0
   33.0882  -19.5030   34.5041 N   0  0  0  0  0  0  0  0  0  0  0  0
   34.1614  -19.9931   33.9292 N   0  0  0  0  0  0  0  0  0  0  0  0
   35.1882  -19.1544   34.1414 C   0  0  0  0  0  0  0  0  0  0  0  0
   36.5231  -19.1785   33.7847 C   0  0  0  0  0  0  0  0  0  0  0  0
   37.3883  -18.1715   34.1544 C   0  0  0  0  0  0  0  0  0  0  0  0
   36.8789  -17.1493   34.8847 C   0  0  0  0  0  0  0  0  0  0  0  0
   35.5393  -17.0479   35.2869 C   0  0  0  0  0  0  0  0  0  0  0  0
   34.7103  -18.0754   34.8980 C   0  0  0  0  0  0  0  0  0  0  0  0
   32.4990  -17.5082   36.8846 H   0  0  0  0  0  0  0  0  0  0  0  0
   31.7429  -16.9535   35.3691 H   0  0  0  0  0  0  0  0  0  0  0  0
   34.2010  -20.8815   33.4006 H   0  0  0  0  0  0  0  0  0  0  0  0
   35.1169  -15.8700   36.0277 C   0  0  0  0  0  0  0  0  0  0  0  0
   34.0052  -15.1332   35.7092 C   0  0  0  0  0  0  0  0  0  0  0  0
   33.6228  -14.0100   36.4528 C   0  0  0  0  0  0  0  0  0  0  0  0
   34.3570  -13.5986   37.5436 C   0  0  0  0  0  0  0  0  0  0  0  0
   35.4768  -14.3330   37.8717 C   0  0  0  0  0  0  0  0  0  0  0  0
   35.8527  -15.4391   37.1390 C   0  0  0  0  0  0  0  0  0  0  0  0
   33.9804  -12.4855   38.2828 O   0  0  0  0  0  0  0  0  0  0  0  0
   32.9655  -11.6267   37.9296 C   0  0  0  0  0  0  0  0  0  0  0  0
   31.6739  -12.0558   37.7684 C   0  0  0  0  0  0  0  0  0  0  0  0
   30.6816  -11.1735   37.4151 C   0  0  0  0  0  0  0  0  0  0  0  0
   30.9444   -9.8367   37.2113 C   0  0  0  0  0  0  0  0  0  0  0  0
   32.2561   -9.4339   37.3812 C   0  0  0  0  0  0  0  0  0  0  0  0
   33.2634  -10.3036   37.7350 C   0  0  0  0  0  0  0  0  0  0  0  0
  1  2  1  0  0  0
  2  3  2  0  0  0
  3  4  1  0  0  0
  4  5  1  0  0  0
  5  6  2  0  0  0
  6  7  1  0  0  0
  7  8  2  0  0  0
  8  9  1  0  0  0
  9 14  1  0  0  0
 14 15  2  0  0  0
 15 16  1  0  0  0
 16 17  2  0  0  0
 17 20  1  0  0  0
 20 21  1  0  0  0
 21 22  2  0  0  0
 22 23  1  0  0  0
 23 24  2  0  0  0
 24 25  1  0  0  0
 25 26  2  0  0  0
 17 18  1  0  0  0
 18 19  2  0  0  0
  9 10  2  0  0  0
 10  2  1  0  0  0
 10  5  1  0  0  0
 19 14  1  0  0  0
 26 21  1  0  0  0
  1 11  1  0  0  0
  1 12  1  0  0  0
  4 13  1  0  0  0
M  END
> <minimizedAffinity>
-8.99147

> <CNNscore>
0.4298718572

> <CNNaffinity>
5.1815710068

> <CNN_VS>
2.2274115086

> <CNNaffinity_variance>
0.3469277024

$$$$
[H]c1c([H])c([H])c(Oc2c([H])c([H])c(-c3c([H])c([H])c([H])c4c3c(N([H])[H])nn4[H])c([H])c2[H])c([H])c1[H]


 26 29  0  0  0  0  0  0  0  0999 V2000
   33.3359  -15.5693   35.8759 N   0  0  0  0  0  0  0  0  0  0  0  0
   34.1641  -14.4705   36.2205 C   0  0  0  0  0  0  0  0  0  0  0  0
   33.8108  -13.1607   36.1285 N   0  0  0  0  0  0  0  0  0  0  0  0
   34.8100  -12.3970   36.5037 N   0  0  0  0  0  0  0  0  0  0  0  0
   35.8453  -13.1776   36.8521 C   0  0  0  0  0  0  0  0  0  0  0  0
   37.1258  -12.9127   37.2992 C   0  0  0  0  0  0  0  0  0  0  0  0
   38.0184  -13.9255   37.5767 C   0  0  0  0  0  0  0  0  0  0  0  0
   37.5917  -15.1993   37.3948 C   0  0  0  0  0  0  0  0  0  0  0  0
   36.3113  -15.5539   36.9461 C   0  0  0  0  0  0  0  0  0  0  0  0
   35.4524  -14.5121   36.6791 C   0  0  0  0  0  0  0  0  0  0  0  0
   33.4984  -16.0956   34.9962 H   0  0  0  0  0  0  0  0  0  0  0  0
   32.5536  -15.8711   36.4905 H   0  0  0  0  0  0  0  0  0  0  0  0
   34.7941  -11.3628   36.5246 H   0  0  0  0  0  0  0  0  0  0  0  0
   35.9703  -16.9637   36.8419 C   0  0  0  0  0  0  0  0  0  0  0  0
   35.8093  -17.7864   37.9270 C   0  0  0  0  0  0  0  0  0  0  0  0
   35.4699  -19.1377   37.7883 C   0  0  0  0  0  0  0  0  0  0  0  0
   35.2833  -19.6975   36.5434 C   0  0  0  0  0  0  0  0  0  0  0  0
   35.4432  -18.8783   35.4459 C   0  0  0  0  0  0  0  0  0  0  0  0
   35.7774  -17.5475   35.5833 C   0  0  0  0  0  0  0  0  0  0  0  0
   34.9467  -21.0370   36.4026 O   0  0  0  0  0  0  0  0  0  0  0  0
   33.6603  -21.5225   36.4473 C   0  0  0  0  0  0  0  0  0  0  0  0
   32.8038  -21.4095   35.3834 C   0  0  0  0  0  0  0  0  0  0  0  0
   31.5243  -21.9048   35.4586 C   0  0  0  0  0  0  0  0  0  0  0  0
   31.0579  -22.5277   36.5952 C   0  0  0  0  0  0  0  0  0  0  0  0
   31.9447  -22.6265   37.6515 C   0  0  0  0  0  0  0  0  0  0  0  0
   33.2302  -22.1363   37.5943 C   0  0  0  0  0  0  0  0  0  0  0  0
  1  2  1  0  0  0
  2  3  2  0  0  0
  3  4  1  0  0  0
  4  5  1  0  0  0
  5  6  2  0  0  0
  6  7  1  0  0  0
  7  8  2  0  0  0
  8  9  1  0  0  0
  9 14  1  0  0  0
 14 15  2  0  0  0
 15 16  1  0  0  0
 16 17  2  0  0  0
 17 20  1  0  0  0
 20 21  1  0  0  0
 21 22  2  0  0  0
 22 23  1  0  0  0
 23 24  2  0  0  0
 24 25  1  0  0  0
 25 26  2  0  0  0
 17 18  1  0  0  0
 18 19  2  0  0  0
  9 10  2  0  0  0
 10  2  1  0  0  0
 10  5  1  0  0  0
 19 14  1  0  0  0
 26 21  1  0  0  0
  1 11  1  0  0  0
  1 12  1  0  0  0
  4 13  1  0  0  0
M  END
> <minimizedAffinity>
-6.35712

> <CNNscore>
0.4047085941

> <CNNaffinity>
4.8719625473

> <CNN_VS>
1.9717251062

> <CNNaffinity_variance>
0.2767548263

$$$$
[H]c1c([H])c([H])c(Oc2c([H])c([H])c(-c3c([H])c([H])c([H])c4c3c(N([H])[H])nn4[H])c([H])c2[H])c([H])c1[H]


 26 29  0  0  0  0  0  0  0  0999 V2000
   31.9028  -23.0973   33.8822 N   0  0  0  0  0  0  0  0  0  0  0  0
   30.7228  -23.6459   34.4465 C   0  0  0  0  0  0  0  0  0  0  0  0
   30.2408  -24.8935   34.2013 N   0  0  0  0  0  0  0  0  0  0  0  0
   29.1225  -25.0824   34.8617 N   0  0  0  0  0  0  0  0  0  0  0  0
   28.8369  -23.9704   35.5578 C   0  0  0  0  0  0  0  0  0  0  0  0
   27.7964  -23.6154   36.3951 C   0  0  0  0  0  0  0  0  0  0  0  0
   27.7352  -22.3711   36.9844 C   0  0  0  0  0  0  0  0  0  0  0  0
   28.7398  -21.5026   36.7119 C   0  0  0  0  0  0  0  0  0  0  0  0
   29.8303  -21.7830   35.8761 C   0  0  0  0  0  0  0  0  0  0  0  0
   29.8513  -23.0360   35.3069 C   0  0  0  0  0  0  0  0  0  0  0  0
   31.8447  -22.3919   33.1230 H   0  0  0  0  0  0  0  0  0  0  0  0
   32.8455  -23.3857   34.2123 H   0  0  0  0  0  0  0  0  0  0  0  0
   28.5592  -25.9499   34.8434 H   0  0  0  0  0  0  0  0  0  0  0  0
   30.8639  -20.7737   35.7096 C   0  0  0  0  0  0  0  0  0  0  0  0
   30.7785  -19.7433   34.8089 C   0  0  0  0  0  0  0  0  0  0  0  0
   31.7897  -18.7828   34.6840 C   0  0  0  0  0  0  0  0  0  0  0  0
   32.9204  -18.8377   35.4692 C   0  0  0  0  0  0  0  0  0  0  0  0
   33.0156  -19.8704   36.3778 C   0  0  0  0  0  0  0  0  0  0  0  0
   32.0193  -20.8159   36.5004 C   0  0  0  0  0  0  0  0  0  0  0  0
   33.9246  -17.8869   35.3477 O   0  0  0  0  0  0  0  0  0  0  0  0
   35.2665  -18.1807   35.2756 C   0  0  0  0  0  0  0  0  0  0  0  0
   35.8078  -18.8480   34.2078 C   0  0  0  0  0  0  0  0  0  0  0  0
   37.1525  -19.1269   34.1647 C   0  0  0  0  0  0  0  0  0  0  0  0
   38.0000  -18.7503   35.1833 C   0  0  0  0  0  0  0  0  0  0  0  0
   37.4251  -18.0791   36.2466 C   0  0  0  0  0  0  0  0  0  0  0  0
   36.0799  -17.7908   36.3070 C   0  0  0  0  0  0  0  0  0  0  0  0
  1  2  1  0  0  0
  2  3  2  0  0  0
  3  4  1  0  0  0
  4  5  1  0  0  0
  5  6  2  0  0  0
  6  7  1  0  0  0
  7  8  2  0  0  0
  8  9  1  0  0  0
  9 14  1  0  0  0
 14 15  2  0  0  0
 15 16  1  0  0  0
 16 17  2  0  0  0
 17 20  1  0  0  0
 20 21  1  0  0  0
 21 22  2  0  0  0
 22 23  1  0  0  0
 23 24  2  0  0  0
 24 25  1  0  0  0
 25 26  2  0  0  0
 17 18  1  0  0  0
 18 19  2  0  0  0
  9 10  2  0  0  0
 10  2  1  0  0  0
 10  5  1  0  0  0
 19 14  1  0  0  0
 26 21  1  0  0  0
  1 11  1  0  0  0
  1 12  1  0  0  0
  4 13  1  0  0  0
M  END
> <minimizedAffinity>
-6.25287

> <CNNscore>
0.3441692889

> <CNNaffinity>
4.3004641533

> <CNN_VS>
1.4800876379

> <CNNaffinity_variance>
0.5862539411

$$$$
[H]c1c([H])c([H])c(Oc2c([H])c([H])c(-c3c([H])c([H])c([H])c4c3c(N([H])[H])nn4[H])c([H])c2[H])c([H])c1[H]


 26 29  0  0  0  0  0  0  0  0999 V2000
   36.9022  -16.0248   37.0606 N   0  0  0  0  0  0  0  0  0  0  0  0
   35.6263  -16.1230   36.4487 C   0  0  0  0  0  0  0  0  0  0  0  0
   34.6942  -15.1337   36.4115 N   0  0  0  0  0  0  0  0  0  0  0  0
   33.6168  -15.5527   35.7902 N   0  0  0  0  0  0  0  0  0  0  0  0
   33.8069  -16.8239   35.4020 C   0  0  0  0  0  0  0  0  0  0  0  0
   33.0166  -17.7418   34.7367 C   0  0  0  0  0  0  0  0  0  0  0  0
   33.4601  -19.0193   34.4711 C   0  0  0  0  0  0  0  0  0  0  0  0
   34.7084  -19.3448   34.8879 C   0  0  0  0  0  0  0  0  0  0  0  0
   35.5735  -18.4747   35.5669 C   0  0  0  0  0  0  0  0  0  0  0  0
   35.0904  -17.2096   35.8133 C   0  0  0  0  0  0  0  0  0  0  0  0
   37.0871  -16.4894   37.9702 H   0  0  0  0  0  0  0  0  0  0  0  0
   37.6756  -15.4902   36.6169 H   0  0  0  0  0  0  0  0  0  0  0  0
   32.7643  -14.9890   35.6300 H   0  0  0  0  0  0  0  0  0  0  0  0
   36.9067  -18.9406   35.9135 C   0  0  0  0  0  0  0  0  0  0  0  0
   38.0121  -18.7234   35.1318 C   0  0  0  0  0  0  0  0  0  0  0  0
   39.2832  -19.1781   35.5034 C   0  0  0  0  0  0  0  0  0  0  0  0
   39.4730  -19.8682   36.6806 C   0  0  0  0  0  0  0  0  0  0  0  0
   38.3674  -20.0917   37.4735 C   0  0  0  0  0  0  0  0  0  0  0  0
   37.1159  -19.6435   37.1070 C   0  0  0  0  0  0  0  0  0  0  0  0
   40.7320  -20.3202   37.0519 O   0  0  0  0  0  0  0  0  0  0  0  0
   41.5111  -19.7352   38.0230 C   0  0  0  0  0  0  0  0  0  0  0  0
   41.3707  -20.0441   39.3509 C   0  0  0  0  0  0  0  0  0  0  0  0
   42.1643  -19.4426   40.2977 C   0  0  0  0  0  0  0  0  0  0  0  0
   43.1221  -18.5150   39.9520 C   0  0  0  0  0  0  0  0  0  0  0  0
   43.2402  -18.2241   38.6054 C   0  0  0  0  0  0  0  0  0  0  0  0
   42.4540  -18.8166   37.6426 C   0  0  0  0  0  0  0  0  0  0  0  0
  1  2  1  0  0  0
  2  3  2  0  0  0
  3  4  1  0  0  0
  4  5  1  0  0  0
  5  6  2  0  0  0
  6  7  1  0  0  0
  7  8  2  0  0  0
  8  9  1  0  0  0
  9 14  1  0  0  0
 14 15  2  0  0  0
 15 16  1  0  0  0
 16 17  2  0  0  0
 17 20  1  0  0  0
 20 21  1  0  0  0
 21 22  2  0  0  0
 22 23  1  0  0  0
 23 24  2  0  0  0
 24 25  1  0  0  0
 25 26  2  0  0  0
 17 18  1  0  0  0
 18 19  2  0  0  0
  9 10  2  0  0  0
 10  2  1  0  0  0
 10  5  1  0  0  0
 19 14  1  0  0  0
 26 21  1  0  0  0
  1 11  1  0  0  0
  1 12  1  0  0  0
  4 13  1  0  0  0
M  END
> <minimizedAffinity>
-6.63814

> <CNNscore>
0.3417247534

> <CNNaffinity>
4.3197035789

> <CNN_VS>
1.4761496782

> <CNNaffinity_variance>
0.6524502635

$$$$
[H]c1c([H])c([H])c(C(=O)N([H])c2nnc(-c3c([H])c([H])c(Oc4c([H])c([H])c([N+](=O)[O-])c([H])c4Cl)c([H])c3[H])s2)c([H])c1[H]


 32 35  0  0  0  0  0  0  0  0999 V2000
   34.6094  -21.4465   36.6681 C   0  0  0  0  0  0  0  0  0  0  0  0
   35.2998  -20.2644   36.8201 C   0  0  0  0  0  0  0  0  0  0  0  0
   36.4486  -20.1930   37.6203 C   0  0  0  0  0  0  0  0  0  0  0  0
   36.8851  -21.3066   38.2537 C   0  0  0  0  0  0  0  0  0  0  0  0
   36.1966  -22.4869   38.1022 C   0  0  0  0  0  0  0  0  0  0  0  0
   35.0657  -22.5620   37.3156 C   0  0  0  0  0  0  0  0  0  0  0  0
   38.0959  -21.2366   39.0990 C   0  0  0  0  0  0  0  0  0  0  0  0
   39.3186  -20.8349   38.7680 N   0  0  0  0  0  0  0  0  0  0  0  0
   40.2331  -20.8472   39.6394 N   0  0  0  0  0  0  0  0  0  0  0  0
   39.9757  -21.2567   40.8722 C   0  0  0  0  0  0  0  0  0  0  0  0
   38.3164  -21.6413   40.7473 S   0  0  0  0  0  0  0  0  0  0  0  0
   40.8789  -21.3384   41.9823 N   0  0  0  0  0  0  0  0  0  0  0  0
   41.8597  -22.3227   42.1104 C   0  0  0  0  0  0  0  0  0  0  0  0
   42.6025  -22.2808   43.1545 O   0  0  0  0  0  0  0  0  0  0  0  0
   40.7663  -20.6014   42.7186 H   0  0  0  0  0  0  0  0  0  0  0  0
   42.0497  -23.3657   41.1099 C   0  0  0  0  0  0  0  0  0  0  0  0
   41.2188  -24.4639   41.0782 C   0  0  0  0  0  0  0  0  0  0  0  0
   41.3836  -25.4638   40.1310 C   0  0  0  0  0  0  0  0  0  0  0  0
   42.4152  -25.3125   39.2212 C   0  0  0  0  0  0  0  0  0  0  0  0
   43.2667  -24.2291   39.2208 C   0  0  0  0  0  0  0  0  0  0  0  0
   43.0667  -23.2500   40.1870 C   0  0  0  0  0  0  0  0  0  0  0  0
   33.5078  -21.4951   35.8931 O   0  0  0  0  0  0  0  0  0  0  0  0
   29.4625  -21.3061   36.8089 C   0  0  0  0  0  0  0  0  0  0  0  0
   30.3169  -22.1339   37.5220 C   0  0  0  0  0  0  0  0  0  0  0  0
   31.6521  -22.1621   37.1808 C   0  0  0  0  0  0  0  0  0  0  0  0
   32.1941  -21.4011   36.1540 C   0  0  0  0  0  0  0  0  0  0  0  0
   31.3284  -20.5926   35.4650 C   0  0  0  0  0  0  0  0  0  0  0  0
   31.9621  -19.6362   34.1507 Cl  0  0  0  0  0  0  0  0  0  0  0  0
   29.9768  -20.5412   35.7847 C   0  0  0  0  0  0  0  0  0  0  0  0
   27.3318  -22.4166   37.2801 O   0  0  0  0  0  0  0  0  0  0  0  0
   28.0866  -21.2793   37.1635 N   0  0  0  0  0  0  0  0  0  0  0  0
   27.5784  -20.1456   37.3704 O   0  0  0  0  0  0  0  0  0  0  0  0
 30 31  1  0  0  0
 31 32  2  0  0  0
 31 23  1  0  0  0
 23 24  2  0  0  0
 24 25  1  0  0  0
 25 26  2  0  0  0
 26 22  1  0  0  0
 22  1  1  0  0  0
  1  2  2  0  0  0
  2  3  1  0  0  0
  3  4  2  0  0  0
  4  5  1  0  0  0
  5  6  2  0  0  0
  4  7  1  0  0  0
  7  8  2  0  0  0
  8  9  1  0  0  0
  9 10  2  0  0  0
 10 12  1  0  0  0
 12 13  1  0  0  0
 13 14  2  0  0  0
 13 16  1  0  0  0
 16 17  2  0  0  0
 17 18  1  0  0  0
 18 19  2  0  0  0
 19 20  1  0  0  0
 20 21  2  0  0  0
 10 11  1  0  0  0
 26 27  1  0  0  0
 27 28  1  0  0  0
 27 29  2  0  0  0
 29 23  1  0  0  0
  6  1  1  0  0  0
 11  7  1  0  0  0
 21 16  1  0  0  0
 12 15  1  0  0  0
M  CHG 1  30  -1
M  CHG 1  31   1
M  END
> <minimizedAffinity>
-3.62165

> <CNNscore>
0.5363412499

> <CNNaffinity>
5.1184425354

> <CNN_VS>
2.7452318668

> <CNNaffinity_variance>
0.0950685740

$$$$
[H]c1c([H])c([H])c(C(=O)N([H])c2nnc(-c3c([H])c([H])c(Oc4c([H])c([H])c([N+](=O)[O-])c([H])c4Cl)c([H])c3[H])s2)c([H])c1[H]


 32 35  0  0  0  0  0  0  0  0999 V2000
   35.3152  -23.5665   38.1666 C   0  0  0  0  0  0  0  0  0  0  0  0
   35.6554  -22.7147   39.1941 C   0  0  0  0  0  0  0  0  0  0  0  0
   36.9896  -22.3499   39.4224 C   0  0  0  0  0  0  0  0  0  0  0  0
   37.9587  -22.8447   38.6175 C   0  0  0  0  0  0  0  0  0  0  0  0
   37.6198  -23.6948   37.5916 C   0  0  0  0  0  0  0  0  0  0  0  0
   36.3082  -24.0565   37.3631 C   0  0  0  0  0  0  0  0  0  0  0  0
   39.3673  -22.4633   38.8541 C   0  0  0  0  0  0  0  0  0  0  0  0
   40.4730  -23.0408   38.3963 N   0  0  0  0  0  0  0  0  0  0  0  0
   41.5991  -22.5635   38.7121 N   0  0  0  0  0  0  0  0  0  0  0  0
   41.6772  -21.4966   39.4927 C   0  0  0  0  0  0  0  0  0  0  0  0
   40.0233  -21.1794   39.7764 S   0  0  0  0  0  0  0  0  0  0  0  0
   42.8561  -20.8224   39.9514 N   0  0  0  0  0  0  0  0  0  0  0  0
   43.5830  -19.9200   39.1737 C   0  0  0  0  0  0  0  0  0  0  0  0
   44.6198  -19.3863   39.7063 O   0  0  0  0  0  0  0  0  0  0  0  0
   43.1584  -21.0445   40.9298 H   0  0  0  0  0  0  0  0  0  0  0  0
   43.1973  -19.5833   37.8089 C   0  0  0  0  0  0  0  0  0  0  0  0
   43.7185  -20.2822   36.7424 C   0  0  0  0  0  0  0  0  0  0  0  0
   43.3597  -19.9771   35.4376 C   0  0  0  0  0  0  0  0  0  0  0  0
   42.4583  -18.9435   35.2524 C   0  0  0  0  0  0  0  0  0  0  0  0
   41.9154  -18.2216   36.2931 C   0  0  0  0  0  0  0  0  0  0  0  0
   42.3018  -18.5600   37.5847 C   0  0  0  0  0  0  0  0  0  0  0  0
   34.0265  -23.9042   37.9626 O   0  0  0  0  0  0  0  0  0  0  0  0
   30.8153  -21.8169   36.3593 C   0  0  0  0  0  0  0  0  0  0  0  0
   31.9626  -22.0426   35.6134 C   0  0  0  0  0  0  0  0  0  0  0  0
   33.0022  -22.7410   36.1893 C   0  0  0  0  0  0  0  0  0  0  0  0
   32.9642  -23.2356   37.4859 C   0  0  0  0  0  0  0  0  0  0  0  0
   31.8197  -22.9983   38.2012 C   0  0  0  0  0  0  0  0  0  0  0  0
   31.7376  -23.5813   39.8434 Cl  0  0  0  0  0  0  0  0  0  0  0  0
   30.7538  -22.2977   37.6492 C   0  0  0  0  0  0  0  0  0  0  0  0
   29.7537  -19.7327   35.6353 O   0  0  0  0  0  0  0  0  0  0  0  0
   29.7454  -21.0967   35.7625 N   0  0  0  0  0  0  0  0  0  0  0  0
   28.7696  -21.7759   35.3467 O   0  0  0  0  0  0  0  0  0  0  0  0
 30 31  1  0  0  0
 31 32  2  0  0  0
 31 23  1  0  0  0
 23 24  2  0  0  0
 24 25  1  0  0  0
 25 26  2  0  0  0
 26 22  1  0  0  0
 22  1  1  0  0  0
  1  2  2  0  0  0
  2  3  1  0  0  0
  3  4  2  0  0  0
  4  5  1  0  0  0
  5  6  2  0  0  0
  4  7  1  0  0  0
  7  8  2  0  0  0
  8  9  1  0  0  0
  9 10  2  0  0  0
 10 12  1  0  0  0
 12 13  1  0  0  0
 13 14  2  0  0  0
 13 16  1  0  0  0
 16 17  2  0  0  0
 17 18  1  0  0  0
 18 19  2  0  0  0
 19 20  1  0  0  0
 20 21  2  0  0  0
 10 11  1  0  0  0
 26 27  1  0  0  0
 27 28  1  0  0  0
 27 29  2  0  0  0
 29 23  1  0  0  0
  6  1  1  0  0  0
 11  7  1  0  0  0
 21 16  1  0  0  0
 12 15  1  0  0  0
M  CHG 1  30  -1
M  CHG 1  31   1
M  END
> <minimizedAffinity>
-3.70490

> <CNNscore>
0.5124934316

> <CNNaffinity>
5.2471823692

> <CNN_VS>
2.6891465187

> <CNNaffinity_variance>
0.1370286494

$$$$
[H]c1c([H])c([H])c(C(=O)N([H])c2nnc(-c3c([H])c([H])c(Oc4c([H])c([H])c([N+](=O)[O-])c([H])c4Cl)c([H])c3[H])s2)c([H])c1[H]


 32 35  0  0  0  0  0  0  0  0999 V2000
   36.2198  -20.8537   37.3995 C   0  0  0  0  0  0  0  0  0  0  0  0
   36.1606  -20.4057   38.7006 C   0  0  0  0  0  0  0  0  0  0  0  0
   36.8495  -21.0663   39.7273 C   0  0  0  0  0  0  0  0  0  0  0  0
   37.5852  -22.1635   39.4324 C   0  0  0  0  0  0  0  0  0  0  0  0
   37.6448  -22.6110   38.1338 C   0  0  0  0  0  0  0  0  0  0  0  0
   36.9687  -21.9641   37.1202 C   0  0  0  0  0  0  0  0  0  0  0  0
   38.3134  -22.8639   40.5115 C   0  0  0  0  0  0  0  0  0  0  0  0
   37.9526  -23.0422   41.7780 N   0  0  0  0  0  0  0  0  0  0  0  0
   38.7182  -23.6752   42.5582 N   0  0  0  0  0  0  0  0  0  0  0  0
   39.8705  -24.1573   42.1181 C   0  0  0  0  0  0  0  0  0  0  0  0
   39.8288  -23.6589   40.4851 S   0  0  0  0  0  0  0  0  0  0  0  0
   40.8574  -24.8939   42.8515 N   0  0  0  0  0  0  0  0  0  0  0  0
   42.0497  -24.3379   43.3171 C   0  0  0  0  0  0  0  0  0  0  0  0
   42.8466  -25.1089   43.9606 O   0  0  0  0  0  0  0  0  0  0  0  0
   40.6367  -25.9028   43.0287 H   0  0  0  0  0  0  0  0  0  0  0  0
   42.3953  -22.9398   43.0923 C   0  0  0  0  0  0  0  0  0  0  0  0
   43.2119  -22.5814   42.0424 C   0  0  0  0  0  0  0  0  0  0  0  0
   43.5481  -21.2555   41.8123 C   0  0  0  0  0  0  0  0  0  0  0  0
   43.0300  -20.3096   42.6795 C   0  0  0  0  0  0  0  0  0  0  0  0
   42.2103  -20.6287   43.7402 C   0  0  0  0  0  0  0  0  0  0  0  0
   41.8984  -21.9691   43.9351 C   0  0  0  0  0  0  0  0  0  0  0  0
   35.5514  -20.2038   36.4261 O   0  0  0  0  0  0  0  0  0  0  0  0
   31.4915  -19.8583   35.6282 C   0  0  0  0  0  0  0  0  0  0  0  0
   32.0168  -21.0273   36.1586 C   0  0  0  0  0  0  0  0  0  0  0  0
   33.3710  -21.0939   36.4066 C   0  0  0  0  0  0  0  0  0  0  0  0
   34.2463  -20.0466   36.1528 C   0  0  0  0  0  0  0  0  0  0  0  0
   33.7018  -18.9037   35.6284 C   0  0  0  0  0  0  0  0  0  0  0  0
   34.7687  -17.5703   35.2716 Cl  0  0  0  0  0  0  0  0  0  0  0  0
   32.3403  -18.8047   35.3673 C   0  0  0  0  0  0  0  0  0  0  0  0
   29.1610  -20.2758   36.2525 O   0  0  0  0  0  0  0  0  0  0  0  0
   30.0948  -19.7929   35.3741 N   0  0  0  0  0  0  0  0  0  0  0  0
   29.7425  -19.2628   34.2872 O   0  0  0  0  0  0  0  0  0  0  0  0
 30 31  1  0  0  0
 31 32  2  0  0  0
 31 23  1  0  0  0
 23 24  2  0  0  0
 24 25  1  0  0  0
 25 26  2  0  0  0
 26 22  1  0  0  0
 22  1  1  0  0  0
  1  2  2  0  0  0
  2  3  1  0  0  0
  3  4  2  0  0  0
  4  5  1  0  0  0
  5  6  2  0  0  0
  4  7  1  0  0  0
  7  8  2  0  0  0
  8  9  1  0  0  0
  9 10  2  0  0  0
 10 12  1  0  0  0
 12 13  1  0  0  0
 13 14  2  0  0  0
 13 16  1  0  0  0
 16 17  2  0  0  0
 17 18  1  0  0  0
 18 19  2  0  0  0
 19 20  1  0  0  0
 20 21  2  0  0  0
 10 11  1  0  0  0
 26 27  1  0  0  0
 27 28  1  0  0  0
 27 29  2  0  0  0
 29 23  1  0  0  0
  6  1  1  0  0  0
 11  7  1  0  0  0
 21 16  1  0  0  0
 12 15  1  0  0  0
M  CHG 1  30  -1
M  CHG 1  31   1
M  END
> <minimizedAffinity>
-3.76024

> <CNNscore>
0.4947359264

> <CNNaffinity>
5.0928740501

> <CNN_VS>
2.5196278095

> <CNNaffinity_variance>
0.1547619402

$$$$
[H]c1c([H])c([H])c(C(=O)N([H])c2nnc(-c3c([H])c([H])c(Oc4c([H])c([H])c([N+](=O)[O-])c([H])c4Cl)c([H])c3[H])s2)c([H])c1[H]


 32 35  0  0  0  0  0  0  0  0999 V2000
   35.4531  -20.3215   36.9653 C   0  0  0  0  0  0  0  0  0  0  0  0
   35.2817  -20.2038   38.3269 C   0  0  0  0  0  0  0  0  0  0  0  0
   36.2817  -20.6093   39.2217 C   0  0  0  0  0  0  0  0  0  0  0  0
   37.4352  -21.1251   38.7368 C   0  0  0  0  0  0  0  0  0  0  0  0
   37.6071  -21.2426   37.3778 C   0  0  0  0  0  0  0  0  0  0  0  0
   36.6258  -20.8449   36.4934 C   0  0  0  0  0  0  0  0  0  0  0  0
   38.4929  -21.5544   39.6762 C   0  0  0  0  0  0  0  0  0  0  0  0
   38.5562  -21.3811   40.9921 N   0  0  0  0  0  0  0  0  0  0  0  0
   39.5527  -21.8246   41.6294 N   0  0  0  0  0  0  0  0  0  0  0  0
   40.5259  -22.4571   40.9916 C   0  0  0  0  0  0  0  0  0  0  0  0
   39.9530  -22.3982   39.3838 S   0  0  0  0  0  0  0  0  0  0  0  0
   41.7216  -23.0230   41.5437 N   0  0  0  0  0  0  0  0  0  0  0  0
   42.9722  -22.4079   41.4734 C   0  0  0  0  0  0  0  0  0  0  0  0
   43.9614  -23.0231   42.0090 O   0  0  0  0  0  0  0  0  0  0  0  0
   41.6115  -23.9505   42.0185 H   0  0  0  0  0  0  0  0  0  0  0  0
   43.1690  -21.1187   40.8223 C   0  0  0  0  0  0  0  0  0  0  0  0
   43.6067  -21.0537   39.5178 C   0  0  0  0  0  0  0  0  0  0  0  0
   43.7960  -19.8354   38.8821 C   0  0  0  0  0  0  0  0  0  0  0  0
   43.5275  -18.6904   39.6115 C   0  0  0  0  0  0  0  0  0  0  0  0
   43.0885  -18.7145   40.9175 C   0  0  0  0  0  0  0  0  0  0  0  0
   42.9120  -19.9563   41.5167 C   0  0  0  0  0  0  0  0  0  0  0  0
   34.4802  -19.9246   36.1212 O   0  0  0  0  0  0  0  0  0  0  0  0
   30.4020  -20.7026   36.0792 C   0  0  0  0  0  0  0  0  0  0  0  0
   31.2712  -21.4946   36.8146 C   0  0  0  0  0  0  0  0  0  0  0  0
   32.6169  -21.1964   36.7973 C   0  0  0  0  0  0  0  0  0  0  0  0
   33.1553  -20.1379   36.0784 C   0  0  0  0  0  0  0  0  0  0  0  0
   32.2751  -19.3717   35.3601 C   0  0  0  0  0  0  0  0  0  0  0  0
   32.9111  -18.0449   34.4227 Cl  0  0  0  0  0  0  0  0  0  0  0  0
   30.9126  -19.6460   35.3570 C   0  0  0  0  0  0  0  0  0  0  0  0
   28.1234  -20.3556   36.9054 O   0  0  0  0  0  0  0  0  0  0  0  0
   29.0153  -21.0127   36.0994 N   0  0  0  0  0  0  0  0  0  0  0  0
   28.6310  -21.9342   35.3316 O   0  0  0  0  0  0  0  0  0  0  0  0
 30 31  1  0  0  0
 31 32  2  0  0  0
 31 23  1  0  0  0
 23 24  2  0  0  0
 24 25  1  0  0  0
 25 26  2  0  0  0
 26 22  1  0  0  0
 22  1  1  0  0  0
  1  2  2  0  0  0
  2  3  1  0  0  0
  3  4  2  0  0  0
  4  5  1  0  0  0
  5  6  2  0  0  0
  4  7  1  0  0  0
  7  8  2  0  0  0
  8  9  1  0  0  0
  9 10  2  0  0  0
 10 12  1  0  0  0
 12 13  1  0  0  0
 13 14  2  0  0  0
 13 16  1  0  0  0
 16 17  2  0  0  0
 17 18  1  0  0  0
 18 19  2  0  0  0
 19 20  1  0  0  0
 20 21  2  0  0  0
 10 11  1  0  0  0
 26 27  1  0  0  0
 27 28  1  0  0  0
 27 29  2  0  0  0
 29 23  1  0  0  0
  6  1  1  0  0  0
 11  7  1  0  0  0
 21 16  1  0  0  0
 12 15  1  0  0  0
M  CHG 1  30  -1
M  CHG 1  31   1
M  END
> <minimizedAffinity>
-4.94623

> <CNNscore>
0.4684758484

> <CNNaffinity>
4.8454027176

> <CNN_VS>
2.2699542046

> <CNNaffinity_variance>
0.1967566460

$$$$
[H]c1c([H])c([H])c(C(=O)N([H])c2nnc(-c3c([H])c([H])c(Oc4c([H])c([H])c([N+](=O)[O-])c([H])c4Cl)c([H])c3[H])s2)c([H])c1[H]


 32 35  0  0  0  0  0  0  0  0999 V2000
   36.6798  -20.2862   36.9443 C   0  0  0  0  0  0  0  0  0  0  0  0
   36.3088  -20.2544   38.2704 C   0  0  0  0  0  0  0  0  0  0  0  0
   37.2004  -20.6364   39.2824 C   0  0  0  0  0  0  0  0  0  0  0  0
   38.4473  -21.0432   38.9481 C   0  0  0  0  0  0  0  0  0  0  0  0
   38.8182  -21.0750   37.6247 C   0  0  0  0  0  0  0  0  0  0  0  0
   37.9443  -20.6999   36.6254 C   0  0  0  0  0  0  0  0  0  0  0  0
   39.3913  -21.4473   40.0116 C   0  0  0  0  0  0  0  0  0  0  0  0
   39.2305  -22.3618   40.9623 N   0  0  0  0  0  0  0  0  0  0  0  0
   40.1626  -22.5673   41.7898 N   0  0  0  0  0  0  0  0  0  0  0  0
   41.2904  -21.8776   41.7106 C   0  0  0  0  0  0  0  0  0  0  0  0
   40.9686  -20.8821   40.3607 S   0  0  0  0  0  0  0  0  0  0  0  0
   42.4456  -21.9741   42.5538 N   0  0  0  0  0  0  0  0  0  0  0  0
   43.6061  -22.6634   42.1998 C   0  0  0  0  0  0  0  0  0  0  0  0
   44.5675  -22.6715   43.0478 O   0  0  0  0  0  0  0  0  0  0  0  0
   42.3780  -21.4874   43.4793 H   0  0  0  0  0  0  0  0  0  0  0  0
   43.7415  -23.3535   40.9229 C   0  0  0  0  0  0  0  0  0  0  0  0
   44.4211  -22.7655   39.8790 C   0  0  0  0  0  0  0  0  0  0  0  0
   44.5621  -23.4095   38.6585 C   0  0  0  0  0  0  0  0  0  0  0  0
   43.9928  -24.6646   38.5337 C   0  0  0  0  0  0  0  0  0  0  0  0
   43.3059  -25.2854   39.5543 C   0  0  0  0  0  0  0  0  0  0  0  0
   43.1879  -24.6051   40.7606 C   0  0  0  0  0  0  0  0  0  0  0  0
   35.8084  -19.9136   35.9859 O   0  0  0  0  0  0  0  0  0  0  0  0
   31.6680  -19.8181   35.6907 C   0  0  0  0  0  0  0  0  0  0  0  0
   32.4294  -18.6956   35.4011 C   0  0  0  0  0  0  0  0  0  0  0  0
   33.8008  -18.7765   35.5134 C   0  0  0  0  0  0  0  0  0  0  0  0
   34.4683  -19.9294   35.9038 C   0  0  0  0  0  0  0  0  0  0  0  0
   33.6927  -21.0236   36.1848 C   0  0  0  0  0  0  0  0  0  0  0  0
   34.4883  -22.4876   36.7021 Cl  0  0  0  0  0  0  0  0  0  0  0  0
   32.3077  -20.9746   36.0807 C   0  0  0  0  0  0  0  0  0  0  0  0
   29.6357  -18.8247   34.7538 O   0  0  0  0  0  0  0  0  0  0  0  0
   30.2544  -19.7313   35.5736 N   0  0  0  0  0  0  0  0  0  0  0  0
   29.5793  -20.5371   36.2674 O   0  0  0  0  0  0  0  0  0  0  0  0
 30 31  1  0  0  0
 31 32  2  0  0  0
 31 23  1  0  0  0
 23 24  2  0  0  0
 24 25  1  0  0  0
 25 26  2  0  0  0
 26 22  1  0  0  0
 22  1  1  0  0  0
  1  2  2  0  0  0
  2  3  1  0  0  0
  3  4  2  0  0  0
  4  5  1  0  0  0
  5  6  2  0  0  0
  4  7  1  0  0  0
  7  8  2  0  0  0
  8  9  1  0  0  0
  9 10  2  0  0  0
 10 12  1  0  0  0
 12 13  1  0  0  0
 13 14  2  0  0  0
 13 16  1  0  0  0
 16 17  2  0  0  0
 17 18  1  0  0  0
 18 19  2  0  0  0
 19 20  1  0  0  0
 20 21  2  0  0  0
 10 11  1  0  0  0
 26 27  1  0  0  0
 27 28  1  0  0  0
 27 29  2  0  0  0
 29 23  1  0  0  0
  6  1  1  0  0  0
 11  7  1  0  0  0
 21 16  1  0  0  0
 12 15  1  0  0  0
M  CHG 1  30  -1
M  CHG 1  31   1
M  END
> <minimizedAffinity>
-3.39978

> <CNNscore>
0.4607494771

> <CNNaffinity>
5.2711882591

> <CNN_VS>
2.4286973476

> <CNNaffinity_variance>
0.3053751886

$$$$
[H]c1c([H])c([H])c(C(=O)N([H])c2nnc(-c3c([H])c([H])c(Oc4c([H])c([H])c([N+](=O)[O-])c([H])c4Cl)c([H])c3[H])s2)c([H])c1[H]


 32 35  0  0  0  0  0  0  0  0999 V2000
   37.6578  -20.0985   36.9075 C   0  0  0  0  0  0  0  0  0  0  0  0
   37.0318  -21.0904   37.6295 C   0  0  0  0  0  0  0  0  0  0  0  0
   37.7687  -22.0100   38.3887 C   0  0  0  0  0  0  0  0  0  0  0  0
   39.1189  -21.9196   38.4111 C   0  0  0  0  0  0  0  0  0  0  0  0
   39.7443  -20.9296   37.6908 C   0  0  0  0  0  0  0  0  0  0  0  0
   39.0234  -20.0224   36.9423 C   0  0  0  0  0  0  0  0  0  0  0  0
   39.9007  -22.8871   39.2100 C   0  0  0  0  0  0  0  0  0  0  0  0
   39.4614  -23.8214   40.0466 N   0  0  0  0  0  0  0  0  0  0  0  0
   40.2935  -24.5605   40.6442 N   0  0  0  0  0  0  0  0  0  0  0  0
   41.5926  -24.4058   40.4387 C   0  0  0  0  0  0  0  0  0  0  0  0
   41.5933  -23.1172   39.3178 S   0  0  0  0  0  0  0  0  0  0  0  0
   42.6732  -25.1448   41.0225 N   0  0  0  0  0  0  0  0  0  0  0  0
   43.5407  -24.6192   41.9810 C   0  0  0  0  0  0  0  0  0  0  0  0
   44.4665  -25.3887   42.4216 O   0  0  0  0  0  0  0  0  0  0  0  0
   42.7870  -26.1307   40.6865 H   0  0  0  0  0  0  0  0  0  0  0  0
   43.4175  -23.2534   42.4753 C   0  0  0  0  0  0  0  0  0  0  0  0
   44.1967  -22.2465   41.9493 C   0  0  0  0  0  0  0  0  0  0  0  0
   44.0900  -20.9410   42.4059 C   0  0  0  0  0  0  0  0  0  0  0  0
   43.1702  -20.6928   43.4095 C   0  0  0  0  0  0  0  0  0  0  0  0
   42.3733  -21.6726   43.9606 C   0  0  0  0  0  0  0  0  0  0  0  0
   42.5122  -22.9674   43.4743 C   0  0  0  0  0  0  0  0  0  0  0  0
   36.9315  -19.2229   36.1847 O   0  0  0  0  0  0  0  0  0  0  0  0
   35.9068  -15.2594   36.8772 C   0  0  0  0  0  0  0  0  0  0  0  0
   36.0270  -16.1584   37.9265 C   0  0  0  0  0  0  0  0  0  0  0  0
   36.3696  -17.4638   37.6464 C   0  0  0  0  0  0  0  0  0  0  0  0
   36.6033  -17.9329   36.3609 C   0  0  0  0  0  0  0  0  0  0  0  0
   36.4772  -17.0247   35.3426 C   0  0  0  0  0  0  0  0  0  0  0  0
   36.7387  -17.5764   33.7083 Cl  0  0  0  0  0  0  0  0  0  0  0  0
   36.1335  -15.7013   35.5919 C   0  0  0  0  0  0  0  0  0  0  0  0
   34.4515  -13.5851   37.9136 O   0  0  0  0  0  0  0  0  0  0  0  0
   35.5538  -13.9143   37.1696 N   0  0  0  0  0  0  0  0  0  0  0  0
   36.3096  -13.0186   36.7082 O   0  0  0  0  0  0  0  0  0  0  0  0
 30 31  1  0  0  0
 31 32  2  0  0  0
 31 23  1  0  0  0
 23 24  2  0  0  0
 24 25  1  0  0  0
 25 26  2  0  0  0
 26 22  1  0  0  0
 22  1  1  0  0  0
  1  2  2  0  0  0
  2  3  1  0  0  0
  3  4  2  0  0  0
  4  5  1  0  0  0
  5  6  2  0  0  0
  4  7  1  0  0  0
  7  8  2  0  0  0
  8  9  1  0  0  0
  9 10  2  0  0  0
 10 12  1  0  0  0
 12 13  1  0  0  0
 13 14  2  0  0  0
 13 16  1  0  0  0
 16 17  2  0  0  0
 17 18  1  0  0  0
 18 19  2  0  0  0
 19 20  1  0  0  0
 20 21  2  0  0  0
 10 11  1  0  0  0
 26 27  1  0  0  0
 27 28  1  0  0  0
 27 29  2  0  0  0
 29 23  1  0  0  0
  6  1  1  0  0  0
 11  7  1  0  0  0
 21 16  1  0  0  0
 12 15  1  0  0  0
M  CHG 1  30  -1
M  CHG 1  31   1
M  END
> <minimizedAffinity>
-4.17453

> <CNNscore>
0.4484325349

> <CNNaffinity>
5.4344892502

> <CNN_VS>
2.4370017052

> <CNNaffinity_variance>
0.4457632601

$$$$
[H]c1c([H])c([H])c(C(=O)N([H])c2nnc(-c3c([H])c([H])c(Oc4c([H])c([H])c([N+](=O)[O-])c([H])c4Cl)c([H])c3[H])s2)c([H])c1[H]


 32 35  0  0  0  0  0  0  0  0999 V2000
   35.8662  -21.1019   37.4035 C   0  0  0  0  0  0  0  0  0  0  0  0
   35.4179  -21.0953   38.7059 C   0  0  0  0  0  0  0  0  0  0  0  0
   36.3052  -21.2550   39.7793 C   0  0  0  0  0  0  0  0  0  0  0  0
   37.6253  -21.4183   39.5291 C   0  0  0  0  0  0  0  0  0  0  0  0
   38.0734  -21.4248   38.2294 C   0  0  0  0  0  0  0  0  0  0  0  0
   37.2040  -21.2680   37.1699 C   0  0  0  0  0  0  0  0  0  0  0  0
   38.5651  -21.5874   40.6576 C   0  0  0  0  0  0  0  0  0  0  0  0
   38.4400  -21.1706   41.9132 N   0  0  0  0  0  0  0  0  0  0  0  0
   39.3612  -21.4137   42.7427 N   0  0  0  0  0  0  0  0  0  0  0  0
   40.4423  -22.0784   42.3645 C   0  0  0  0  0  0  0  0  0  0  0  0
   40.0916  -22.3593   40.7168 S   0  0  0  0  0  0  0  0  0  0  0  0
   41.5784  -22.4423   43.1593 N   0  0  0  0  0  0  0  0  0  0  0  0
   42.8478  -21.8869   42.9940 C   0  0  0  0  0  0  0  0  0  0  0  0
   43.7776  -22.3019   43.7729 O   0  0  0  0  0  0  0  0  0  0  0  0
   41.4078  -23.1686   43.8951 H   0  0  0  0  0  0  0  0  0  0  0  0
   43.1278  -20.8747   41.9831 C   0  0  0  0  0  0  0  0  0  0  0  0
   42.6327  -19.5963   42.1177 C   0  0  0  0  0  0  0  0  0  0  0  0
   42.8924  -18.6202   41.1669 C   0  0  0  0  0  0  0  0  0  0  0  0
   43.6678  -18.9834   40.0798 C   0  0  0  0  0  0  0  0  0  0  0  0
   44.1808  -20.2510   39.9100 C   0  0  0  0  0  0  0  0  0  0  0  0
   43.8966  -21.1989   40.8862 C   0  0  0  0  0  0  0  0  0  0  0  0
   34.9974  -20.9455   36.3851 O   0  0  0  0  0  0  0  0  0  0  0  0
   30.8611  -21.1286   36.0742 C   0  0  0  0  0  0  0  0  0  0  0  0
   31.5288  -19.9154   35.9960 C   0  0  0  0  0  0  0  0  0  0  0  0
   32.9029  -19.9057   36.1046 C   0  0  0  0  0  0  0  0  0  0  0  0
   33.6625  -21.0529   36.2894 C   0  0  0  0  0  0  0  0  0  0  0  0
   32.9783  -22.2379   36.3639 C   0  0  0  0  0  0  0  0  0  0  0  0
   33.8910  -23.7026   36.6195 Cl  0  0  0  0  0  0  0  0  0  0  0  0
   31.5932  -22.2814   36.2578 C   0  0  0  0  0  0  0  0  0  0  0  0
   28.7580  -22.1425   35.3368 O   0  0  0  0  0  0  0  0  0  0  0  0
   29.4445  -21.1350   35.9616 N   0  0  0  0  0  0  0  0  0  0  0  0
   28.8329  -20.1579   36.4692 O   0  0  0  0  0  0  0  0  0  0  0  0
 30 31  1  0  0  0
 31 32  2  0  0  0
 31 23  1  0  0  0
 23 24  2  0  0  0
 24 25  1  0  0  0
 25 26  2  0  0  0
 26 22  1  0  0  0
 22  1  1  0  0  0
  1  2  2  0  0  0
  2  3  1  0  0  0
  3  4  2  0  0  0
  4  5  1  0  0  0
  5  6  2  0  0  0
  4  7  1  0  0  0
  7  8  2  0  0  0
  8  9  1  0  0  0
  9 10  2  0  0  0
 10 12  1  0  0  0
 12 13  1  0  0  0
 13 14  2  0  0  0
 13 16  1  0  0  0
 16 17  2  0  0  0
 17 18  1  0  0  0
 18 19  2  0  0  0
 19 20  1  0  0  0
 20 21  2  0  0  0
 10 11  1  0  0  0
 26 27  1  0  0  0
 27 28  1  0  0  0
 27 29  2  0  0  0
 29 23  1  0  0  0
  6  1  1  0  0  0
 11  7  1  0  0  0
 21 16  1  0  0  0
 12 15  1  0  0  0
M  CHG 1  30  -1
M  CHG 1  31   1
M  END
> <minimizedAffinity>
-4.41997

> <CNNscore>
0.4405520558

> <CNNaffinity>
4.9563150406

> <CNN_VS>
2.1835148335

> <CNNaffinity_variance>
0.0232370645

$$$$
[H]c1c([H])c([H])c(C(=O)N([H])c2nnc(-c3c([H])c([H])c(Oc4c([H])c([H])c([N+](=O)[O-])c([H])c4Cl)c([H])c3[H])s2)c([H])c1[H]


 32 35  0  0  0  0  0  0  0  0999 V2000
   35.3808  -16.9993   36.3107 C   0  0  0  0  0  0  0  0  0  0  0  0
   34.5000  -17.8802   35.7231 C   0  0  0  0  0  0  0  0  0  0  0  0
   34.3871  -19.2026   36.1742 C   0  0  0  0  0  0  0  0  0  0  0  0
   35.1584  -19.6189   37.2055 C   0  0  0  0  0  0  0  0  0  0  0  0
   36.0377  -18.7401   37.7926 C   0  0  0  0  0  0  0  0  0  0  0  0
   36.1521  -17.4378   37.3522 C   0  0  0  0  0  0  0  0  0  0  0  0
   35.0434  -21.0126   37.6849 C   0  0  0  0  0  0  0  0  0  0  0  0
   35.7764  -22.0696   37.3511 N   0  0  0  0  0  0  0  0  0  0  0  0
   35.5225  -23.1912   37.8739 N   0  0  0  0  0  0  0  0  0  0  0  0
   34.5345  -23.3128   38.7473 C   0  0  0  0  0  0  0  0  0  0  0  0
   33.9513  -21.7086   38.8039 S   0  0  0  0  0  0  0  0  0  0  0  0
   34.1050  -24.4943   39.4359 N   0  0  0  0  0  0  0  0  0  0  0  0
   34.4212  -24.7720   40.7664 C   0  0  0  0  0  0  0  0  0  0  0  0
   33.9726  -25.8661   41.2618 O   0  0  0  0  0  0  0  0  0  0  0  0
   33.5232  -25.1631   38.8772 H   0  0  0  0  0  0  0  0  0  0  0  0
   35.2273  -23.8691   41.5787 C   0  0  0  0  0  0  0  0  0  0  0  0
   36.6028  -23.9116   41.5156 C   0  0  0  0  0  0  0  0  0  0  0  0
   37.3848  -23.0575   42.2792 C   0  0  0  0  0  0  0  0  0  0  0  0
   36.7272  -22.1629   43.1051 C   0  0  0  0  0  0  0  0  0  0  0  0
   35.3541  -22.0902   43.1956 C   0  0  0  0  0  0  0  0  0  0  0  0
   34.6081  -22.9641   42.4135 C   0  0  0  0  0  0  0  0  0  0  0  0
   35.4736  -15.7313   35.8634 O   0  0  0  0  0  0  0  0  0  0  0  0
   33.6931  -12.1843   37.0830 C   0  0  0  0  0  0  0  0  0  0  0  0
   32.9460  -13.1879   36.4844 C   0  0  0  0  0  0  0  0  0  0  0  0
   33.5821  -14.3477   36.0968 C   0  0  0  0  0  0  0  0  0  0  0  0
   34.9410  -14.5692   36.2740 C   0  0  0  0  0  0  0  0  0  0  0  0
   35.6560  -13.5617   36.8670 C   0  0  0  0  0  0  0  0  0  0  0  0
   37.3717  -13.7876   37.0881 Cl  0  0  0  0  0  0  0  0  0  0  0  0
   35.0442  -12.3805   37.2695 C   0  0  0  0  0  0  0  0  0  0  0  0
   31.6746  -10.9111   37.6305 O   0  0  0  0  0  0  0  0  0  0  0  0
   33.0341  -10.9900   37.4816 N   0  0  0  0  0  0  0  0  0  0  0  0
   33.7643   -9.9865   37.6969 O   0  0  0  0  0  0  0  0  0  0  0  0
 30 31  1  0  0  0
 31 32  2  0  0  0
 31 23  1  0  0  0
 23 24  2  0  0  0
 24 25  1  0  0  0
 25 26  2  0  0  0
 26 22  1  0  0  0
 22  1  1  0  0  0
  1  2  2  0  0  0
  2  3  1  0  0  0
  3  4  2  0  0  0
  4  5  1  0  0  0
  5  6  2  0  0  0
  4  7  1  0  0  0
  7  8  2  0  0  0
  8  9  1  0  0  0
  9 10  2  0  0  0
 10 12  1  0  0  0
 12 13  1  0  0  0
 13 14  2  0  0  0
 13 16  1  0  0  0
 16 17  2  0  0  0
 17 18  1  0  0  0
 18 19  2  0  0  0
 19 20  1  0  0  0
 20 21  2  0  0  0
 10 11  1  0  0  0
 26 27  1  0  0  0
 27 28  1  0  0  0
 27 29  2  0  0  0
 29 23  1  0  0  0
  6  1  1  0  0  0
 11  7  1  0  0  0
 21 16  1  0  0  0
 12 15  1  0  0  0
M  CHG 1  30  -1
M  CHG 1  31   1
M  END
> <minimizedAffinity>
-6.06229

> <CNNscore>
0.3922626078

> <CNNaffinity>
5.4400291443

> <CNN_VS>
2.1339199543

> <CNNaffinity_variance>
0.0739882663

$$$$
[H]c1c([H])c([H])c(C(=O)N([H])c2nnc(-c3c([H])c([H])c(Oc4c([H])c([H])c([N+](=O)[O-])c([H])c4Cl)c([H])c3[H])s2)c([H])c1[H]


 32 35  0  0  0  0  0  0  0  0999 V2000
   36.6968  -20.6097   38.4492 C   0  0  0  0  0  0  0  0  0  0  0  0
   37.6551  -20.1074   37.5969 C   0  0  0  0  0  0  0  0  0  0  0  0
   37.5207  -18.8355   37.0230 C   0  0  0  0  0  0  0  0  0  0  0  0
   36.4290  -18.0898   37.3130 C   0  0  0  0  0  0  0  0  0  0  0  0
   35.4722  -18.5905   38.1638 C   0  0  0  0  0  0  0  0  0  0  0  0
   35.6003  -19.8415   38.7310 C   0  0  0  0  0  0  0  0  0  0  0  0
   36.2823  -16.7480   36.7102 C   0  0  0  0  0  0  0  0  0  0  0  0
   35.7337  -16.4149   35.5466 N   0  0  0  0  0  0  0  0  0  0  0  0
   35.7017  -15.2005   35.2004 N   0  0  0  0  0  0  0  0  0  0  0  0
   36.2105  -14.2671   35.9901 C   0  0  0  0  0  0  0  0  0  0  0  0
   36.7610  -15.2143   37.3002 S   0  0  0  0  0  0  0  0  0  0  0  0
   36.2633  -12.8524   35.7650 N   0  0  0  0  0  0  0  0  0  0  0  0
   35.3119  -11.9557   36.2530 C   0  0  0  0  0  0  0  0  0  0  0  0
   35.4782  -10.7144   35.9787 O   0  0  0  0  0  0  0  0  0  0  0  0
   37.0754  -12.5096   35.1986 H   0  0  0  0  0  0  0  0  0  0  0  0
   34.1677  -12.3905   37.0445 C   0  0  0  0  0  0  0  0  0  0  0  0
   33.5172  -13.5674   36.7453 C   0  0  0  0  0  0  0  0  0  0  0  0
   32.4289  -13.9975   37.4902 C   0  0  0  0  0  0  0  0  0  0  0  0
   32.0247  -13.1968   38.5440 C   0  0  0  0  0  0  0  0  0  0  0  0
   32.6493  -12.0137   38.8742 C   0  0  0  0  0  0  0  0  0  0  0  0
   33.7357  -11.6195   38.1020 C   0  0  0  0  0  0  0  0  0  0  0  0
   36.8451  -21.8343   38.9920 O   0  0  0  0  0  0  0  0  0  0  0  0
   40.1420  -24.3270   39.3871 C   0  0  0  0  0  0  0  0  0  0  0  0
   39.7509  -23.8541   38.1433 C   0  0  0  0  0  0  0  0  0  0  0  0
   38.6497  -23.0288   38.0630 C   0  0  0  0  0  0  0  0  0  0  0  0
   37.9038  -22.6412   39.1678 C   0  0  0  0  0  0  0  0  0  0  0  0
   38.3110  -23.1230   40.3843 C   0  0  0  0  0  0  0  0  0  0  0  0
   37.3884  -22.6805   41.7973 Cl  0  0  0  0  0  0  0  0  0  0  0  0
   39.4171  -23.9565   40.4988 C   0  0  0  0  0  0  0  0  0  0  0  0
   41.7533  -25.8767   38.3884 O   0  0  0  0  0  0  0  0  0  0  0  0
   41.2778  -25.1774   39.4662 N   0  0  0  0  0  0  0  0  0  0  0  0
   41.8413  -25.2645   40.5893 O   0  0  0  0  0  0  0  0  0  0  0  0
 30 31  1  0  0  0
 31 32  2  0  0  0
 31 23  1  0  0  0
 23 24  2  0  0  0
 24 25  1  0  0  0
 25 26  2  0  0  0
 26 22  1  0  0  0
 22  1  1  0  0  0
  1  2  2  0  0  0
  2  3  1  0  0  0
  3  4  2  0  0  0
  4  5  1  0  0  0
  5  6  2  0  0  0
  4  7  1  0  0  0
  7  8  2  0  0  0
  8  9  1  0  0  0
  9 10  2  0  0  0
 10 12  1  0  0  0
 12 13  1  0  0  0
 13 14  2  0  0  0
 13 16  1  0  0  0
 16 17  2  0  0  0
 17 18  1  0  0  0
 18 19  2  0  0  0
 19 20  1  0  0  0
 20 21  2  0  0  0
 10 11  1  0  0  0
 26 27  1  0  0  0
 27 28  1  0  0  0
 27 29  2  0  0  0
 29 23  1  0  0  0
  6  1  1  0  0  0
 11  7  1  0  0  0
 21 16  1  0  0  0
 12 15  1  0  0  0
M  CHG 1  30  -1
M  CHG 1  31   1
M  END
> <minimizedAffinity>
-3.89271

> <CNNscore>
0.3633882105

> <CNNaffinity>
5.6251802444

> <CNN_VS>
2.0441241264

> <CNNaffinity_variance>
0.3398838341

$$$$
[H][C](C([H])([H])[H])C([H])([H])[C@@]1([H])N([H])C(=O)[C@@]1([H])N([H])C(=O)[C@]1([H])C([H])([H])C([H])([H])C([H])([H])[C@@]1([H])N([H])C(=O)[C@@]([H])(N([H])C(=O)[C@@]([H])(N([H])C(=O)[C@@]([H])(N([H])C(=O)[C@@]([H])(N([H])C(=O)[C@]([H])(N([H])C(=O)c1c([H])c([H])c(F)c([H])c1[H])C([H])([H])[H])C([H])([H])c1c([H])c([H])c([H])c([H])c1[H])C([H])([H])[H])C([H])([H])[H])C([H])([H])[H]


 65 68  0  0  0  0  0  0  0  0999 V2000
   33.6395  -12.5968   37.5272 C   0  0  0  0  0  0  0  0  0  0  0  0
   33.6561  -13.3103   38.5321 O   0  0  0  0  0  0  0  0  0  0  0  0
   34.5132  -12.7007   36.4307 N   0  0  0  0  0  0  0  0  0  0  0  0
   34.3615  -12.0225   35.6171 H   0  0  0  0  0  0  0  0  0  0  0  0
   32.5644  -11.4802   37.4434 C   0  0  0  0  0  0  0  0  0  0  0  0
   33.3364  -10.2174   37.7549 C   0  0  0  0  0  0  0  0  0  0  0  0
   30.1410  -11.4000   38.0892 C   0  0  0  0  0  0  0  0  0  0  0  0
   29.8876  -10.8365   36.9994 O   0  0  0  0  0  0  0  0  0  0  0  0
   31.4880  -11.7564   38.3547 N   0  0  0  0  0  0  0  0  0  0  0  0
   31.7458  -12.2463   39.2508 H   0  0  0  0  0  0  0  0  0  0  0  0
   29.0436  -11.6556   39.0244 C   0  0  0  0  0  0  0  0  0  0  0  0
   29.9144  -12.9903   41.2693 C   0  0  0  0  0  0  0  0  0  0  0  0
   31.0903  -13.1558   41.6562 O   0  0  0  0  0  0  0  0  0  0  0  0
   29.4759  -12.3377   40.1701 N   0  0  0  0  0  0  0  0  0  0  0  0
   30.7538  -12.0679   39.8144 H   0  0  0  0  0  0  0  0  0  0  0  0
   29.6251  -13.9747   43.4946 C   0  0  0  0  0  0  0  0  0  0  0  0
   28.9010  -13.6365   42.2279 C   0  0  0  0  0  0  0  0  0  0  0  0
   27.8285  -12.7077   42.5191 N   0  0  0  0  0  0  0  0  0  0  0  0
   26.5374  -12.9073   41.8970 C   0  0  0  0  0  0  0  0  0  0  0  0
   26.3915  -13.9020   41.1171 O   0  0  0  0  0  0  0  0  0  0  0  0
   27.9415  -11.8998   43.1515 H   0  0  0  0  0  0  0  0  0  0  0  0
   25.4385  -12.0184   42.1343 C   0  0  0  0  0  0  0  0  0  0  0  0
   25.7584  -10.7784   42.6965 C   0  0  0  0  0  0  0  0  0  0  0  0
   24.8178   -9.8376   42.9894 C   0  0  0  0  0  0  0  0  0  0  0  0
   23.4810  -10.1172   42.7191 C   0  0  0  0  0  0  0  0  0  0  0  0
   22.5147   -9.2273   42.9834 F   0  0  0  0  0  0  0  0  0  0  0  0
   23.1846  -11.3459   42.1632 C   0  0  0  0  0  0  0  0  0  0  0  0
   24.1137  -12.3027   41.8620 C   0  0  0  0  0  0  0  0  0  0  0  0
   28.3353  -10.3283   39.3316 C   0  0  0  0  0  0  0  0  0  0  0  0
   26.8926  -10.4431   39.0584 C   0  0  0  0  0  0  0  0  0  0  0  0
   26.0174   -9.4255   39.4211 C   0  0  0  0  0  0  0  0  0  0  0  0
   24.6625   -9.5177   39.1958 C   0  0  0  0  0  0  0  0  0  0  0  0
   24.0971  -10.6231   38.5965 C   0  0  0  0  0  0  0  0  0  0  0  0
   24.9615  -11.6712   38.2161 C   0  0  0  0  0  0  0  0  0  0  0  0
   26.3202  -11.5420   38.4608 C   0  0  0  0  0  0  0  0  0  0  0  0
   35.5826  -13.6221   36.2648 C   0  0  0  0  0  0  0  0  0  0  0  0
   36.3433  -13.6683   37.5916 C   0  0  0  0  0  0  0  0  0  0  0  0
   34.9477  -14.9597   36.0167 C   0  0  0  0  0  0  0  0  0  0  0  0
   33.7117  -14.9504   35.6816 O   0  0  0  0  0  0  0  0  0  0  0  0
   35.6068  -16.1956   36.1288 N   0  0  0  0  0  0  0  0  0  0  0  0
   36.6351  -16.2021   36.4164 H   0  0  0  0  0  0  0  0  0  0  0  0
   34.9508  -17.4400   35.8982 C   0  0  0  0  0  0  0  0  0  0  0  0
   35.0654  -17.9191   34.4522 C   0  0  0  0  0  0  0  0  0  0  0  0
   35.3978  -18.5185   36.7883 C   0  0  0  0  0  0  0  0  0  0  0  0
   36.0576  -18.2293   37.8094 O   0  0  0  0  0  0  0  0  0  0  0  0
   35.1018  -19.8911   36.5277 N   0  0  0  0  0  0  0  0  0  0  0  0
   34.5590  -20.1578   35.6666 H   0  0  0  0  0  0  0  0  0  0  0  0
   35.5326  -20.9335   37.4232 C   0  0  0  0  0  0  0  0  0  0  0  0
   36.8882  -21.5330   36.9773 C   0  0  0  0  0  0  0  0  0  0  0  0
   36.9312  -22.8515   37.7030 C   0  0  0  0  0  0  0  0  0  0  0  0
   35.4863  -23.1658   38.0919 C   0  0  0  0  0  0  0  0  0  0  0  0
   34.6756  -22.1515   37.3492 C   0  0  0  0  0  0  0  0  0  0  0  0
   33.3064  -21.9580   37.8511 C   0  0  0  0  0  0  0  0  0  0  0  0
   33.1370  -21.2395   38.8426 O   0  0  0  0  0  0  0  0  0  0  0  0
   32.2016  -22.5881   37.1940 N   0  0  0  0  0  0  0  0  0  0  0  0
   32.3748  -23.2215   36.3882 H   0  0  0  0  0  0  0  0  0  0  0  0
   30.8322  -22.4064   37.6294 C   0  0  0  0  0  0  0  0  0  0  0  0
   29.9232  -23.5219   37.4626 C   0  0  0  0  0  0  0  0  0  0  0  0
   29.7327  -24.5862   38.0925 O   0  0  0  0  0  0  0  0  0  0  0  0
   29.3483  -22.9335   36.3227 N   0  0  0  0  0  0  0  0  0  0  0  0
   30.0406  -21.6769   36.5310 C   0  0  0  0  0  0  0  0  0  0  0  0
   28.6615  -23.3116   35.6148 H   0  0  0  0  0  0  0  0  0  0  0  0
   30.9089  -21.3507   35.3406 C   0  0  0  0  0  0  0  0  0  0  0  0
   30.9645  -19.8971   34.9837 C   0  0  0  0  0  0  0  0  0  0  0  0
   31.9523  -19.7042   33.8267 C   0  0  0  0  0  0  0  0  0  0  0  0
 16 17  1  0  0  0
 17 18  1  0  0  0
 18 19  1  0  0  0
 19 20  2  0  0  0
 19 22  1  0  0  0
 22 23  2  0  0  0
 23 24  1  0  0  0
 24 25  2  0  0  0
 25 26  1  0  0  0
 25 27  1  0  0  0
 27 28  2  0  0  0
 17 12  1  0  0  0
 12 13  2  0  0  0
 12 14  1  0  0  0
 14 11  1  0  0  0
 11 29  1  0  0  0
 29 30  1  0  0  0
 30 31  2  0  0  0
 31 32  1  0  0  0
 32 33  2  0  0  0
 33 34  1  0  0  0
 34 35  2  0  0  0
 11  7  1  0  0  0
  7  8  2  0  0  0
  7  9  1  0  0  0
  9  5  1  0  0  0
  5  6  1  0  0  0
  5  1  1  0  0  0
  1  2  2  0  0  0
  1  3  1  0  0  0
  3 36  1  0  0  0
 36 37  1  0  0  0
 36 38  1  0  0  0
 38 39  2  0  0  0
 38 40  1  0  0  0
 40 42  1  0  0  0
 42 43  1  0  0  0
 42 44  1  0  0  0
 44 45  2  0  0  0
 44 46  1  0  0  0
 46 48  1  0  0  0
 48 49  1  0  0  0
 49 50  1  0  0  0
 50 51  1  0  0  0
 51 52  1  0  0  0
 52 53  1  0  0  0
 53 54  2  0  0  0
 53 55  1  0  0  0
 55 57  1  0  0  0
 57 58  1  0  0  0
 58 59  2  0  0  0
 58 60  1  0  0  0
 60 61  1  0  0  0
 61 63  1  0  0  0
 63 64  1  0  0  0
 64 65  1  0  0  0
 28 22  1  0  0  0
 35 30  1  0  0  0
 52 48  1  0  0  0
 61 57  1  0  0  0
 18 21  1  0  0  0
 14 15  1  0  0  0
  9 10  1  0  0  0
  3  4  1  0  0  0
 40 41  1  0  0  0
 46 47  1  0  0  0
 55 56  1  0  0  0
 60 62  1  0  0  0
M  END
> <minimizedAffinity>
-8.71122

> <CNNscore>
0.6999529600

> <CNNaffinity>
7.7185068130

> <CNN_VS>
5.4025917053

> <CNNaffinity_variance>
0.0807184950

$$$$
[H][C](C([H])([H])[H])C([H])([H])[C@@]1([H])N([H])C(=O)[C@@]1([H])N([H])C(=O)[C@]1([H])C([H])([H])C([H])([H])C([H])([H])[C@@]1([H])N([H])C(=O)[C@@]([H])(N([H])C(=O)[C@@]([H])(N([H])C(=O)[C@@]([H])(N([H])C(=O)[C@@]([H])(N([H])C(=O)[C@]([H])(N([H])C(=O)c1c([H])c([H])c(F)c([H])c1[H])C([H])([H])[H])C([H])([H])c1c([H])c([H])c([H])c([H])c1[H])C([H])([H])[H])C([H])([H])[H])C([H])([H])[H]


 65 68  0  0  0  0  0  0  0  0999 V2000
   33.7877  -12.4013   37.8144 C   0  0  0  0  0  0  0  0  0  0  0  0
   33.3611  -13.1289   38.7131 O   0  0  0  0  0  0  0  0  0  0  0  0
   33.2526  -11.1561   37.4411 N   0  0  0  0  0  0  0  0  0  0  0  0
   33.7466  -10.6265   36.6534 H   0  0  0  0  0  0  0  0  0  0  0  0
   35.0272  -12.8825   37.0133 C   0  0  0  0  0  0  0  0  0  0  0  0
   35.2776  -11.7577   36.0336 C   0  0  0  0  0  0  0  0  0  0  0  0
   35.4772  -15.3342   36.7244 C   0  0  0  0  0  0  0  0  0  0  0  0
   36.3685  -15.2557   37.6013 O   0  0  0  0  0  0  0  0  0  0  0  0
   34.7601  -14.1542   36.3995 N   0  0  0  0  0  0  0  0  0  0  0  0
   33.9912  -14.1757   35.6800 H   0  0  0  0  0  0  0  0  0  0  0  0
   35.2273  -16.6273   36.0846 C   0  0  0  0  0  0  0  0  0  0  0  0
   35.7617  -18.7282   37.7815 C   0  0  0  0  0  0  0  0  0  0  0  0
   35.2869  -18.9374   38.9176 O   0  0  0  0  0  0  0  0  0  0  0  0
   35.5069  -17.7014   36.9408 N   0  0  0  0  0  0  0  0  0  0  0  0
   34.6663  -17.1575   37.8518 H   0  0  0  0  0  0  0  0  0  0  0  0
   35.9795  -20.8488   36.5730 C   0  0  0  0  0  0  0  0  0  0  0  0
   36.7460  -19.8320   37.3614 C   0  0  0  0  0  0  0  0  0  0  0  0
   37.7971  -19.2742   36.5357 N   0  0  0  0  0  0  0  0  0  0  0  0
   39.1713  -19.6375   36.8065 C   0  0  0  0  0  0  0  0  0  0  0  0
   39.4043  -20.4437   37.7629 O   0  0  0  0  0  0  0  0  0  0  0  0
   37.6133  -18.6205   35.7584 H   0  0  0  0  0  0  0  0  0  0  0  0
   40.2582  -19.1121   36.0343 C   0  0  0  0  0  0  0  0  0  0  0  0
   41.3280  -18.5771   36.7592 C   0  0  0  0  0  0  0  0  0  0  0  0
   42.4234  -18.0311   36.1610 C   0  0  0  0  0  0  0  0  0  0  0  0
   42.4855  -18.0026   34.7705 C   0  0  0  0  0  0  0  0  0  0  0  0
   43.5404  -17.4811   34.1297 F   0  0  0  0  0  0  0  0  0  0  0  0
   41.4206  -18.5363   34.0720 C   0  0  0  0  0  0  0  0  0  0  0  0
   40.3132  -19.0885   34.6534 C   0  0  0  0  0  0  0  0  0  0  0  0
   33.7938  -16.6389   35.5343 C   0  0  0  0  0  0  0  0  0  0  0  0
   33.4233  -17.9968   35.1007 C   0  0  0  0  0  0  0  0  0  0  0  0
   34.1350  -18.6407   34.0947 C   0  0  0  0  0  0  0  0  0  0  0  0
   33.7959  -19.9010   33.6571 C   0  0  0  0  0  0  0  0  0  0  0  0
   32.7328  -20.5966   34.1924 C   0  0  0  0  0  0  0  0  0  0  0  0
   31.9930  -19.9685   35.2164 C   0  0  0  0  0  0  0  0  0  0  0  0
   32.3645  -18.6981   35.6294 C   0  0  0  0  0  0  0  0  0  0  0  0
   32.1239  -10.4996   38.0026 C   0  0  0  0  0  0  0  0  0  0  0  0
   31.7290   -9.3820   37.0348 C   0  0  0  0  0  0  0  0  0  0  0  0
   31.0248  -11.5211   38.0469 C   0  0  0  0  0  0  0  0  0  0  0  0
   30.6220  -11.9740   36.9187 O   0  0  0  0  0  0  0  0  0  0  0  0
   30.4196  -12.0006   39.2209 N   0  0  0  0  0  0  0  0  0  0  0  0
   30.7509  -11.6159   40.1603 H   0  0  0  0  0  0  0  0  0  0  0  0
   29.3658  -12.9604   39.2055 C   0  0  0  0  0  0  0  0  0  0  0  0
   29.6693  -14.1974   40.0488 C   0  0  0  0  0  0  0  0  0  0  0  0
   28.0651  -12.4178   39.6168 C   0  0  0  0  0  0  0  0  0  0  0  0
   27.6577  -12.6315   40.7787 O   0  0  0  0  0  0  0  0  0  0  0  0
   27.2478  -11.6498   38.7327 N   0  0  0  0  0  0  0  0  0  0  0  0
   27.5658  -11.4693   37.7460 H   0  0  0  0  0  0  0  0  0  0  0  0
   25.9834  -11.1095   39.1608 C   0  0  0  0  0  0  0  0  0  0  0  0
   24.8751  -11.3747   38.1134 C   0  0  0  0  0  0  0  0  0  0  0  0
   23.8122  -10.3745   38.4834 C   0  0  0  0  0  0  0  0  0  0  0  0
   24.5114   -9.3104   39.3298 C   0  0  0  0  0  0  0  0  0  0  0  0
   25.9675   -9.6186   39.1807 C   0  0  0  0  0  0  0  0  0  0  0  0
   26.8402   -9.0189   40.2018 C   0  0  0  0  0  0  0  0  0  0  0  0
   28.0470   -8.9107   39.9575 O   0  0  0  0  0  0  0  0  0  0  0  0
   26.2916   -8.5685   41.4451 N   0  0  0  0  0  0  0  0  0  0  0  0
   25.2809   -8.7096   41.6433 H   0  0  0  0  0  0  0  0  0  0  0  0
   27.1014   -7.9446   42.4711 C   0  0  0  0  0  0  0  0  0  0  0  0
   27.2933   -8.6737   43.7080 C   0  0  0  0  0  0  0  0  0  0  0  0
   28.0257   -9.6307   44.0450 O   0  0  0  0  0  0  0  0  0  0  0  0
   26.3378   -7.8822   44.3686 N   0  0  0  0  0  0  0  0  0  0  0  0
   26.2398   -6.9478   43.2644 C   0  0  0  0  0  0  0  0  0  0  0  0
   25.8958   -7.9754   45.3234 H   0  0  0  0  0  0  0  0  0  0  0  0
   24.8246   -6.8953   42.7433 C   0  0  0  0  0  0  0  0  0  0  0  0
   24.1054   -5.6085   43.0083 C   0  0  0  0  0  0  0  0  0  0  0  0
   22.7692   -5.6188   42.2558 C   0  0  0  0  0  0  0  0  0  0  0  0
 16 17  1  0  0  0
 17 18  1  0  0  0
 18 19  1  0  0  0
 19 20  2  0  0  0
 19 22  1  0  0  0
 22 23  2  0  0  0
 23 24  1  0  0  0
 24 25  2  0  0  0
 25 26  1  0  0  0
 25 27  1  0  0  0
 27 28  2  0  0  0
 17 12  1  0  0  0
 12 13  2  0  0  0
 12 14  1  0  0  0
 14 11  1  0  0  0
 11 29  1  0  0  0
 29 30  1  0  0  0
 30 31  2  0  0  0
 31 32  1  0  0  0
 32 33  2  0  0  0
 33 34  1  0  0  0
 34 35  2  0  0  0
 11  7  1  0  0  0
  7  8  2  0  0  0
  7  9  1  0  0  0
  9  5  1  0  0  0
  5  6  1  0  0  0
  5  1  1  0  0  0
  1  2  2  0  0  0
  1  3  1  0  0  0
  3 36  1  0  0  0
 36 37  1  0  0  0
 36 38  1  0  0  0
 38 39  2  0  0  0
 38 40  1  0  0  0
 40 42  1  0  0  0
 42 43  1  0  0  0
 42 44  1  0  0  0
 44 45  2  0  0  0
 44 46  1  0  0  0
 46 48  1  0  0  0
 48 49  1  0  0  0
 49 50  1  0  0  0
 50 51  1  0  0  0
 51 52  1  0  0  0
 52 53  1  0  0  0
 53 54  2  0  0  0
 53 55  1  0  0  0
 55 57  1  0  0  0
 57 58  1  0  0  0
 58 59  2  0  0  0
 58 60  1  0  0  0
 60 61  1  0  0  0
 61 63  1  0  0  0
 63 64  1  0  0  0
 64 65  1  0  0  0
 28 22  1  0  0  0
 35 30  1  0  0  0
 52 48  1  0  0  0
 61 57  1  0  0  0
 18 21  1  0  0  0
 14 15  1  0  0  0
  9 10  1  0  0  0
  3  4  1  0  0  0
 40 41  1  0  0  0
 46 47  1  0  0  0
 55 56  1  0  0  0
 60 62  1  0  0  0
M  END
> <minimizedAffinity>
-9.46243

> <CNNscore>
0.6403504014

> <CNNaffinity>
7.6926331520

> <CNN_VS>
4.9259805679

> <CNNaffinity_variance>
0.0942147821

$$$$
[H][C](C([H])([H])[H])C([H])([H])[C@@]1([H])N([H])C(=O)[C@@]1([H])N([H])C(=O)[C@]1([H])C([H])([H])C([H])([H])C([H])([H])[C@@]1([H])N([H])C(=O)[C@@]([H])(N([H])C(=O)[C@@]([H])(N([H])C(=O)[C@@]([H])(N([H])C(=O)[C@@]([H])(N([H])C(=O)[C@]([H])(N([H])C(=O)c1c([H])c([H])c(F)c([H])c1[H])C([H])([H])[H])C([H])([H])c1c([H])c([H])c([H])c([H])c1[H])C([H])([H])[H])C([H])([H])[H])C([H])([H])[H]


 65 68  0  0  0  0  0  0  0  0999 V2000
   33.4704  -12.5786   37.5481 C   0  0  0  0  0  0  0  0  0  0  0  0
   33.4653  -13.3215   38.5316 O   0  0  0  0  0  0  0  0  0  0  0  0
   34.3039  -12.7091   36.4235 N   0  0  0  0  0  0  0  0  0  0  0  0
   34.1771  -11.9979   35.6342 H   0  0  0  0  0  0  0  0  0  0  0  0
   32.4735  -11.3889   37.5279 C   0  0  0  0  0  0  0  0  0  0  0  0
   33.3407  -10.1912   37.8463 C   0  0  0  0  0  0  0  0  0  0  0  0
   30.0394  -11.4550   38.1339 C   0  0  0  0  0  0  0  0  0  0  0  0
   29.7565  -11.1185   36.9607 O   0  0  0  0  0  0  0  0  0  0  0  0
   31.4089  -11.6155   38.4664 N   0  0  0  0  0  0  0  0  0  0  0  0
   31.6934  -11.9130   39.4359 H   0  0  0  0  0  0  0  0  0  0  0  0
   28.9512  -11.6597   39.0920 C   0  0  0  0  0  0  0  0  0  0  0  0
   29.8104  -13.0168   41.3279 C   0  0  0  0  0  0  0  0  0  0  0  0
   30.9846  -13.1920   41.7156 O   0  0  0  0  0  0  0  0  0  0  0  0
   29.3776  -12.3531   40.2332 N   0  0  0  0  0  0  0  0  0  0  0  0
   30.6576  -12.0879   39.8818 H   0  0  0  0  0  0  0  0  0  0  0  0
   29.5146  -14.0299   43.5394 C   0  0  0  0  0  0  0  0  0  0  0  0
   28.7916  -13.6647   42.2796 C   0  0  0  0  0  0  0  0  0  0  0  0
   27.7310  -12.7275   42.5870 N   0  0  0  0  0  0  0  0  0  0  0  0
   26.4494  -12.8766   41.9320 C   0  0  0  0  0  0  0  0  0  0  0  0
   26.3009  -13.8361   41.1096 O   0  0  0  0  0  0  0  0  0  0  0  0
   27.8462  -11.9481   43.2538 H   0  0  0  0  0  0  0  0  0  0  0  0
   25.3629  -11.9766   42.1833 C   0  0  0  0  0  0  0  0  0  0  0  0
   24.1023  -12.3930   41.7430 C   0  0  0  0  0  0  0  0  0  0  0  0
   22.9801  -11.6371   41.9009 C   0  0  0  0  0  0  0  0  0  0  0  0
   23.0871  -10.3981   42.5267 C   0  0  0  0  0  0  0  0  0  0  0  0
   22.0156   -9.6151   42.7119 F   0  0  0  0  0  0  0  0  0  0  0  0
   24.3392  -10.0046   42.9556 C   0  0  0  0  0  0  0  0  0  0  0  0
   25.4768  -10.7483   42.8066 C   0  0  0  0  0  0  0  0  0  0  0  0
   28.3051  -10.3023   39.4051 C   0  0  0  0  0  0  0  0  0  0  0  0
   26.8567  -10.3527   39.1431 C   0  0  0  0  0  0  0  0  0  0  0  0
   26.2942  -11.4274   38.4636 C   0  0  0  0  0  0  0  0  0  0  0  0
   24.9469  -11.4881   38.1879 C   0  0  0  0  0  0  0  0  0  0  0  0
   24.0790  -10.4879   38.5712 C   0  0  0  0  0  0  0  0  0  0  0  0
   24.6215   -9.3851   39.2641 C   0  0  0  0  0  0  0  0  0  0  0  0
   25.9835   -9.3594   39.5221 C   0  0  0  0  0  0  0  0  0  0  0  0
   35.3016  -13.6964   36.1999 C   0  0  0  0  0  0  0  0  0  0  0  0
   36.0872  -13.8421   37.5049 C   0  0  0  0  0  0  0  0  0  0  0  0
   34.5686  -14.9769   35.9232 C   0  0  0  0  0  0  0  0  0  0  0  0
   33.3454  -14.8663   35.5603 O   0  0  0  0  0  0  0  0  0  0  0  0
   35.1246  -16.2623   36.0370 N   0  0  0  0  0  0  0  0  0  0  0  0
   36.1422  -16.3532   36.3477 H   0  0  0  0  0  0  0  0  0  0  0  0
   34.3776  -17.4485   35.7782 C   0  0  0  0  0  0  0  0  0  0  0  0
   33.8421  -17.5198   34.3494 C   0  0  0  0  0  0  0  0  0  0  0  0
   35.1126  -18.6858   36.0679 C   0  0  0  0  0  0  0  0  0  0  0  0
   34.6790  -19.7690   35.6202 O   0  0  0  0  0  0  0  0  0  0  0  0
   36.3113  -18.6940   36.8442 N   0  0  0  0  0  0  0  0  0  0  0  0
   36.6866  -17.7949   37.2418 H   0  0  0  0  0  0  0  0  0  0  0  0
   37.0290  -19.9159   37.1013 C   0  0  0  0  0  0  0  0  0  0  0  0
   36.8216  -20.3936   38.5588 C   0  0  0  0  0  0  0  0  0  0  0  0
   37.9662  -21.3489   38.7689 C   0  0  0  0  0  0  0  0  0  0  0  0
   38.9987  -21.0126   37.6926 C   0  0  0  0  0  0  0  0  0  0  0  0
   38.5085  -19.7299   37.0993 C   0  0  0  0  0  0  0  0  0  0  0  0
   39.0733  -19.3951   35.7829 C   0  0  0  0  0  0  0  0  0  0  0  0
   38.3902  -19.6096   34.7754 O   0  0  0  0  0  0  0  0  0  0  0  0
   40.3841  -18.8282   35.6836 N   0  0  0  0  0  0  0  0  0  0  0  0
   40.9550  -18.6972   36.5424 H   0  0  0  0  0  0  0  0  0  0  0  0
   40.9745  -18.4534   34.4153 C   0  0  0  0  0  0  0  0  0  0  0  0
   41.6413  -19.4904   33.6548 C   0  0  0  0  0  0  0  0  0  0  0  0
   41.2395  -20.4224   32.9228 O   0  0  0  0  0  0  0  0  0  0  0  0
   42.9056  -19.0328   34.0649 N   0  0  0  0  0  0  0  0  0  0  0  0
   42.3587  -17.8301   34.6618 C   0  0  0  0  0  0  0  0  0  0  0  0
   43.8692  -19.4487   33.9462 H   0  0  0  0  0  0  0  0  0  0  0  0
   42.6917  -17.7742   36.1326 C   0  0  0  0  0  0  0  0  0  0  0  0
   43.1404  -16.4324   36.6242 C   0  0  0  0  0  0  0  0  0  0  0  0
   44.6328  -16.2609   36.3158 C   0  0  0  0  0  0  0  0  0  0  0  0
 16 17  1  0  0  0
 17 18  1  0  0  0
 18 19  1  0  0  0
 19 20  2  0  0  0
 19 22  1  0  0  0
 22 23  2  0  0  0
 23 24  1  0  0  0
 24 25  2  0  0  0
 25 26  1  0  0  0
 25 27  1  0  0  0
 27 28  2  0  0  0
 17 12  1  0  0  0
 12 13  2  0  0  0
 12 14  1  0  0  0
 14 11  1  0  0  0
 11 29  1  0  0  0
 29 30  1  0  0  0
 30 31  2  0  0  0
 31 32  1  0  0  0
 32 33  2  0  0  0
 33 34  1  0  0  0
 34 35  2  0  0  0
 11  7  1  0  0  0
  7  8  2  0  0  0
  7  9  1  0  0  0
  9  5  1  0  0  0
  5  6  1  0  0  0
  5  1  1  0  0  0
  1  2  2  0  0  0
  1  3  1  0  0  0
  3 36  1  0  0  0
 36 37  1  0  0  0
 36 38  1  0  0  0
 38 39  2  0  0  0
 38 40  1  0  0  0
 40 42  1  0  0  0
 42 43  1  0  0  0
 42 44  1  0  0  0
 44 45  2  0  0  0
 44 46  1  0  0  0
 46 48  1  0  0  0
 48 49  1  0  0  0
 49 50  1  0  0  0
 50 51  1  0  0  0
 51 52  1  0  0  0
 52 53  1  0  0  0
 53 54  2  0  0  0
 53 55  1  0  0  0
 55 57  1  0  0  0
 57 58  1  0  0  0
 58 59  2  0  0  0
 58 60  1  0  0  0
 60 61  1  0  0  0
 61 63  1  0  0  0
 63 64  1  0  0  0
 64 65  1  0  0  0
 28 22  1  0  0  0
 35 30  1  0  0  0
 52 48  1  0  0  0
 61 57  1  0  0  0
 18 21  1  0  0  0
 14 15  1  0  0  0
  9 10  1  0  0  0
  3  4  1  0  0  0
 40 41  1  0  0  0
 46 47  1  0  0  0
 55 56  1  0  0  0
 60 62  1  0  0  0
M  END
> <minimizedAffinity>
-9.37978

> <CNNscore>
0.5466724634

> <CNNaffinity>
7.3584465981

> <CNN_VS>
4.0226602554

> <CNNaffinity_variance>
0.0363975279

$$$$
[H][C](C([H])([H])[H])C([H])([H])[C@@]1([H])N([H])C(=O)[C@@]1([H])N([H])C(=O)[C@]1([H])C([H])([H])C([H])([H])C([H])([H])[C@@]1([H])N([H])C(=O)[C@@]([H])(N([H])C(=O)[C@@]([H])(N([H])C(=O)[C@@]([H])(N([H])C(=O)[C@@]([H])(N([H])C(=O)[C@]([H])(N([H])C(=O)c1c([H])c([H])c(F)c([H])c1[H])C([H])([H])[H])C([H])([H])c1c([H])c([H])c([H])c([H])c1[H])C([H])([H])[H])C([H])([H])[H])C([H])([H])[H]


 65 68  0  0  0  0  0  0  0  0999 V2000
   34.8581  -12.9973   36.8479 C   0  0  0  0  0  0  0  0  0  0  0  0
   35.4585  -11.9368   36.6632 O   0  0  0  0  0  0  0  0  0  0  0  0
   35.4351  -14.2792   36.8495 N   0  0  0  0  0  0  0  0  0  0  0  0
   34.7878  -15.1079   37.0477 H   0  0  0  0  0  0  0  0  0  0  0  0
   33.3288  -12.9337   37.1068 C   0  0  0  0  0  0  0  0  0  0  0  0
   32.7311  -13.5699   35.8715 C   0  0  0  0  0  0  0  0  0  0  0  0
   31.5827  -11.1321   37.1498 C   0  0  0  0  0  0  0  0  0  0  0  0
   30.7279  -11.9770   36.7964 O   0  0  0  0  0  0  0  0  0  0  0  0
   32.9180  -11.5749   37.3310 N   0  0  0  0  0  0  0  0  0  0  0  0
   33.6673  -10.9036   37.6430 H   0  0  0  0  0  0  0  0  0  0  0  0
   31.1627   -9.7441   37.3519 C   0  0  0  0  0  0  0  0  0  0  0  0
   28.9415   -9.5387   38.9654 C   0  0  0  0  0  0  0  0  0  0  0  0
   28.5532   -8.5447   39.6142 O   0  0  0  0  0  0  0  0  0  0  0  0
   30.0291   -9.6506   38.1711 N   0  0  0  0  0  0  0  0  0  0  0  0
   30.3742   -8.3729   38.4551 H   0  0  0  0  0  0  0  0  0  0  0  0
   27.8247  -11.3841   37.8027 C   0  0  0  0  0  0  0  0  0  0  0  0
   28.0002  -10.7410   39.1439 C   0  0  0  0  0  0  0  0  0  0  0  0
   28.5814  -11.6964   40.0642 N   0  0  0  0  0  0  0  0  0  0  0  0
   28.0700  -11.7713   41.4157 C   0  0  0  0  0  0  0  0  0  0  0  0
   27.1184  -10.9932   41.7440 O   0  0  0  0  0  0  0  0  0  0  0  0
   29.3529  -12.3302   39.8026 H   0  0  0  0  0  0  0  0  0  0  0  0
   28.6088  -12.6865   42.3780 C   0  0  0  0  0  0  0  0  0  0  0  0
   29.2472  -13.8191   41.8623 C   0  0  0  0  0  0  0  0  0  0  0  0
   29.7951  -14.7812   42.6559 C   0  0  0  0  0  0  0  0  0  0  0  0
   29.7196  -14.6354   44.0383 C   0  0  0  0  0  0  0  0  0  0  0  0
   30.2446  -15.5489   44.8661 F   0  0  0  0  0  0  0  0  0  0  0  0
   29.0867  -13.5104   44.5288 C   0  0  0  0  0  0  0  0  0  0  0  0
   28.5310  -12.5341   43.7495 C   0  0  0  0  0  0  0  0  0  0  0  0
   32.3608   -8.9343   37.8684 C   0  0  0  0  0  0  0  0  0  0  0  0
   33.1327   -8.3867   36.7399 C   0  0  0  0  0  0  0  0  0  0  0  0
   32.5235   -7.5753   35.7893 C   0  0  0  0  0  0  0  0  0  0  0  0
   33.2179   -7.0684   34.7142 C   0  0  0  0  0  0  0  0  0  0  0  0
   34.5564   -7.3350   34.5200 C   0  0  0  0  0  0  0  0  0  0  0  0
   35.2016   -8.1546   35.4700 C   0  0  0  0  0  0  0  0  0  0  0  0
   34.4684   -8.6474   36.5387 C   0  0  0  0  0  0  0  0  0  0  0  0
   36.7996  -14.6107   36.6291 C   0  0  0  0  0  0  0  0  0  0  0  0
   37.5566  -14.2672   37.9138 C   0  0  0  0  0  0  0  0  0  0  0  0
   36.8404  -16.0964   36.4181 C   0  0  0  0  0  0  0  0  0  0  0  0
   36.8934  -16.8206   37.4730 O   0  0  0  0  0  0  0  0  0  0  0  0
   36.8278  -16.7310   35.1645 N   0  0  0  0  0  0  0  0  0  0  0  0
   36.7920  -16.1255   34.2857 H   0  0  0  0  0  0  0  0  0  0  0  0
   36.8857  -18.1480   35.0198 C   0  0  0  0  0  0  0  0  0  0  0  0
   35.7852  -18.7038   34.1179 C   0  0  0  0  0  0  0  0  0  0  0  0
   38.1821  -18.6413   34.5391 C   0  0  0  0  0  0  0  0  0  0  0  0
   38.5691  -18.3181   33.3956 O   0  0  0  0  0  0  0  0  0  0  0  0
   39.0201  -19.4785   35.3368 N   0  0  0  0  0  0  0  0  0  0  0  0
   38.7076  -19.7734   36.2973 H   0  0  0  0  0  0  0  0  0  0  0  0
   40.2977  -19.9366   34.8550 C   0  0  0  0  0  0  0  0  0  0  0  0
   40.1355  -21.1161   33.8660 C   0  0  0  0  0  0  0  0  0  0  0  0
   41.5063  -21.7389   33.8530 C   0  0  0  0  0  0  0  0  0  0  0  0
   42.2017  -21.2534   35.1250 C   0  0  0  0  0  0  0  0  0  0  0  0
   41.1125  -20.5987   35.9140 C   0  0  0  0  0  0  0  0  0  0  0  0
   41.5709  -19.6926   36.9782 C   0  0  0  0  0  0  0  0  0  0  0  0
   41.8533  -18.5267   36.6801 O   0  0  0  0  0  0  0  0  0  0  0  0
   41.6779  -20.1601   38.3271 N   0  0  0  0  0  0  0  0  0  0  0  0
   41.4754  -21.1563   38.5445 H   0  0  0  0  0  0  0  0  0  0  0  0
   42.0953  -19.3015   39.4163 C   0  0  0  0  0  0  0  0  0  0  0  0
   43.4005  -19.5429   39.9966 C   0  0  0  0  0  0  0  0  0  0  0  0
   44.5694  -19.2674   39.6453 O   0  0  0  0  0  0  0  0  0  0  0  0
   42.8313  -20.2024   41.0998 N   0  0  0  0  0  0  0  0  0  0  0  0
   41.4841  -19.8131   40.7316 C   0  0  0  0  0  0  0  0  0  0  0  0
   43.2721  -20.7554   41.8843 H   0  0  0  0  0  0  0  0  0  0  0  0
   40.6254  -21.0341   40.5101 C   0  0  0  0  0  0  0  0  0  0  0  0
   39.3605  -21.0657   41.3116 C   0  0  0  0  0  0  0  0  0  0  0  0
   38.2030  -21.4944   40.4016 C   0  0  0  0  0  0  0  0  0  0  0  0
 16 17  1  0  0  0
 17 18  1  0  0  0
 18 19  1  0  0  0
 19 20  2  0  0  0
 19 22  1  0  0  0
 22 23  2  0  0  0
 23 24  1  0  0  0
 24 25  2  0  0  0
 25 26  1  0  0  0
 25 27  1  0  0  0
 27 28  2  0  0  0
 17 12  1  0  0  0
 12 13  2  0  0  0
 12 14  1  0  0  0
 14 11  1  0  0  0
 11 29  1  0  0  0
 29 30  1  0  0  0
 30 31  2  0  0  0
 31 32  1  0  0  0
 32 33  2  0  0  0
 33 34  1  0  0  0
 34 35  2  0  0  0
 11  7  1  0  0  0
  7  8  2  0  0  0
  7  9  1  0  0  0
  9  5  1  0  0  0
  5  6  1  0  0  0
  5  1  1  0  0  0
  1  2  2  0  0  0
  1  3  1  0  0  0
  3 36  1  0  0  0
 36 37  1  0  0  0
 36 38  1  0  0  0
 38 39  2  0  0  0
 38 40  1  0  0  0
 40 42  1  0  0  0
 42 43  1  0  0  0
 42 44  1  0  0  0
 44 45  2  0  0  0
 44 46  1  0  0  0
 46 48  1  0  0  0
 48 49  1  0  0  0
 49 50  1  0  0  0
 50 51  1  0  0  0
 51 52  1  0  0  0
 52 53  1  0  0  0
 53 54  2  0  0  0
 53 55  1  0  0  0
 55 57  1  0  0  0
 57 58  1  0  0  0
 58 59  2  0  0  0
 58 60  1  0  0  0
 60 61  1  0  0  0
 61 63  1  0  0  0
 63 64  1  0  0  0
 64 65  1  0  0  0
 28 22  1  0  0  0
 35 30  1  0  0  0
 52 48  1  0  0  0
 61 57  1  0  0  0
 18 21  1  0  0  0
 14 15  1  0  0  0
  9 10  1  0  0  0
  3  4  1  0  0  0
 40 41  1  0  0  0
 46 47  1  0  0  0
 55 56  1  0  0  0
 60 62  1  0  0  0
M  END
> <minimizedAffinity>
-9.34653

> <CNNscore>
0.5407043695

> <CNNaffinity>
7.6440229416

> <CNN_VS>
4.1331567764

> <CNNaffinity_variance>
0.1889154017

$$$$
[H][C](C([H])([H])[H])C([H])([H])[C@@]1([H])N([H])C(=O)[C@@]1([H])N([H])C(=O)[C@]1([H])C([H])([H])C([H])([H])C([H])([H])[C@@]1([H])N([H])C(=O)[C@@]([H])(N([H])C(=O)[C@@]([H])(N([H])C(=O)[C@@]([H])(N([H])C(=O)[C@@]([H])(N([H])C(=O)[C@]([H])(N([H])C(=O)c1c([H])c([H])c(F)c([H])c1[H])C([H])([H])[H])C([H])([H])c1c([H])c([H])c([H])c([H])c1[H])C([H])([H])[H])C([H])([H])[H])C([H])([H])[H]


 65 68  0  0  0  0  0  0  0  0999 V2000
   34.1811  -13.2429   37.2493 C   0  0  0  0  0  0  0  0  0  0  0  0
   34.2236  -13.7775   38.3591 O   0  0  0  0  0  0  0  0  0  0  0  0
   34.9941  -13.5669   36.1491 N   0  0  0  0  0  0  0  0  0  0  0  0
   34.8252  -13.0291   35.2396 H   0  0  0  0  0  0  0  0  0  0  0  0
   33.1426  -12.1112   37.0245 C   0  0  0  0  0  0  0  0  0  0  0  0
   33.9023  -10.8534   37.3833 C   0  0  0  0  0  0  0  0  0  0  0  0
   30.7504  -11.6504   37.6255 C   0  0  0  0  0  0  0  0  0  0  0  0
   30.6969  -10.8123   36.6958 O   0  0  0  0  0  0  0  0  0  0  0  0
   31.9715  -12.3443   37.8241 N   0  0  0  0  0  0  0  0  0  0  0  0
   32.0582  -13.0694   38.5831 H   0  0  0  0  0  0  0  0  0  0  0  0
   29.5614  -11.8648   38.4528 C   0  0  0  0  0  0  0  0  0  0  0  0
   30.1974  -13.0387   40.8603 C   0  0  0  0  0  0  0  0  0  0  0  0
   31.2813  -12.9844   41.4783 O   0  0  0  0  0  0  0  0  0  0  0  0
   29.8745  -12.4671   39.6792 N   0  0  0  0  0  0  0  0  0  0  0  0
   31.1243  -11.9570   39.5787 H   0  0  0  0  0  0  0  0  0  0  0  0
   28.4046  -14.6891   40.6017 C   0  0  0  0  0  0  0  0  0  0  0  0
   29.1511  -13.8760   41.6140 C   0  0  0  0  0  0  0  0  0  0  0  0
   29.8055  -14.7610   42.5554 N   0  0  0  0  0  0  0  0  0  0  0  0
   29.2904  -14.8574   43.9041 C   0  0  0  0  0  0  0  0  0  0  0  0
   28.2714  -14.1604   44.2114 O   0  0  0  0  0  0  0  0  0  0  0  0
   30.6318  -15.3290   42.3109 H   0  0  0  0  0  0  0  0  0  0  0  0
   29.8985  -15.7054   44.8866 C   0  0  0  0  0  0  0  0  0  0  0  0
   29.4391  -15.5568   46.1992 C   0  0  0  0  0  0  0  0  0  0  0  0
   29.9328  -16.2848   47.2393 C   0  0  0  0  0  0  0  0  0  0  0  0
   30.9362  -17.2173   46.9904 C   0  0  0  0  0  0  0  0  0  0  0  0
   31.4555  -17.9632   47.9750 F   0  0  0  0  0  0  0  0  0  0  0  0
   31.3761  -17.3507   45.6883 C   0  0  0  0  0  0  0  0  0  0  0  0
   30.8936  -16.6301   44.6314 C   0  0  0  0  0  0  0  0  0  0  0  0
   28.8120  -10.5324   38.5976 C   0  0  0  0  0  0  0  0  0  0  0  0
   27.3737  -10.7741   38.8029 C   0  0  0  0  0  0  0  0  0  0  0  0
   26.5908   -9.8580   39.4964 C   0  0  0  0  0  0  0  0  0  0  0  0
   25.2492  -10.0707   39.7196 C   0  0  0  0  0  0  0  0  0  0  0  0
   24.6058  -11.2028   39.2671 C   0  0  0  0  0  0  0  0  0  0  0  0
   25.3750  -12.1497   38.5585 C   0  0  0  0  0  0  0  0  0  0  0  0
   26.7236  -11.9006   38.3546 C   0  0  0  0  0  0  0  0  0  0  0  0
   36.0209  -14.5481   36.0953 C   0  0  0  0  0  0  0  0  0  0  0  0
   37.0034  -14.2299   37.2243 C   0  0  0  0  0  0  0  0  0  0  0  0
   35.3572  -15.8644   36.3792 C   0  0  0  0  0  0  0  0  0  0  0  0
   35.6399  -16.4150   37.5004 O   0  0  0  0  0  0  0  0  0  0  0  0
   34.4669  -16.5195   35.5117 N   0  0  0  0  0  0  0  0  0  0  0  0
   34.2386  -16.0631   34.5737 H   0  0  0  0  0  0  0  0  0  0  0  0
   33.8768  -17.7791   35.8237 C   0  0  0  0  0  0  0  0  0  0  0  0
   32.7796  -18.1866   34.8420 C   0  0  0  0  0  0  0  0  0  0  0  0
   34.8459  -18.8768   35.9287 C   0  0  0  0  0  0  0  0  0  0  0  0
   35.3247  -19.3666   34.8835 O   0  0  0  0  0  0  0  0  0  0  0  0
   35.2634  -19.4044   37.1884 N   0  0  0  0  0  0  0  0  0  0  0  0
   34.8628  -19.0155   38.0804 H   0  0  0  0  0  0  0  0  0  0  0  0
   36.2300  -20.4687   37.2716 C   0  0  0  0  0  0  0  0  0  0  0  0
   35.9497  -21.3892   38.4840 C   0  0  0  0  0  0  0  0  0  0  0  0
   37.2616  -22.1018   38.6794 C   0  0  0  0  0  0  0  0  0  0  0  0
   38.3128  -21.2531   37.9637 C   0  0  0  0  0  0  0  0  0  0  0  0
   37.5953  -19.9848   37.6259 C   0  0  0  0  0  0  0  0  0  0  0  0
   38.2342  -19.1644   36.5854 C   0  0  0  0  0  0  0  0  0  0  0  0
   38.1678  -17.9337   36.6802 O   0  0  0  0  0  0  0  0  0  0  0  0
   38.9200  -19.7886   35.4948 N   0  0  0  0  0  0  0  0  0  0  0  0
   38.9249  -20.8250   35.4150 H   0  0  0  0  0  0  0  0  0  0  0  0
   39.5905  -19.0274   34.4609 C   0  0  0  0  0  0  0  0  0  0  0  0
   38.8020  -18.6082   33.3203 C   0  0  0  0  0  0  0  0  0  0  0  0
   37.9746  -17.6891   33.1297 O   0  0  0  0  0  0  0  0  0  0  0  0
   39.3352  -19.6367   32.5241 N   0  0  0  0  0  0  0  0  0  0  0  0
   40.3302  -19.9907   33.5174 C   0  0  0  0  0  0  0  0  0  0  0  0
   39.0740  -19.9771   31.5590 H   0  0  0  0  0  0  0  0  0  0  0  0
   40.1607  -21.4286   33.9429 C   0  0  0  0  0  0  0  0  0  0  0  0
   41.4380  -22.2003   34.0704 C   0  0  0  0  0  0  0  0  0  0  0  0
   42.4239  -21.3966   34.9268 C   0  0  0  0  0  0  0  0  0  0  0  0
 16 17  1  0  0  0
 17 18  1  0  0  0
 18 19  1  0  0  0
 19 20  2  0  0  0
 19 22  1  0  0  0
 22 23  2  0  0  0
 23 24  1  0  0  0
 24 25  2  0  0  0
 25 26  1  0  0  0
 25 27  1  0  0  0
 27 28  2  0  0  0
 17 12  1  0  0  0
 12 13  2  0  0  0
 12 14  1  0  0  0
 14 11  1  0  0  0
 11 29  1  0  0  0
 29 30  1  0  0  0
 30 31  2  0  0  0
 31 32  1  0  0  0
 32 33  2  0  0  0
 33 34  1  0  0  0
 34 35  2  0  0  0
 11  7  1  0  0  0
  7  8  2  0  0  0
  7  9  1  0  0  0
  9  5  1  0  0  0
  5  6  1  0  0  0
  5  1  1  0  0  0
  1  2  2  0  0  0
  1  3  1  0  0  0
  3 36  1  0  0  0
 36 37  1  0  0  0
 36 38  1  0  0  0
 38 39  2  0  0  0
 38 40  1  0  0  0
 40 42  1  0  0  0
 42 43  1  0  0  0
 42 44  1  0  0  0
 44 45  2  0  0  0
 44 46  1  0  0  0
 46 48  1  0  0  0
 48 49  1  0  0  0
 49 50  1  0  0  0
 50 51  1  0  0  0
 51 52  1  0  0  0
 52 53  1  0  0  0
 53 54  2  0  0  0
 53 55  1  0  0  0
 55 57  1  0  0  0
 57 58  1  0  0  0
 58 59  2  0  0  0
 58 60  1  0  0  0
 60 61  1  0  0  0
 61 63  1  0  0  0
 63 64  1  0  0  0
 64 65  1  0  0  0
 28 22  1  0  0  0
 35 30  1  0  0  0
 52 48  1  0  0  0
 61 57  1  0  0  0
 18 21  1  0  0  0
 14 15  1  0  0  0
  9 10  1  0  0  0
  3  4  1  0  0  0
 40 41  1  0  0  0
 46 47  1  0  0  0
 55 56  1  0  0  0
 60 62  1  0  0  0
M  END
> <minimizedAffinity>
-8.46382

> <CNNscore>
0.4778293073

> <CNNaffinity>
7.4166593552

> <CNN_VS>
3.5438971519

> <CNNaffinity_variance>
0.0214782506

$$$$
[H][C](C([H])([H])[H])C([H])([H])[C@@]1([H])N([H])C(=O)[C@@]1([H])N([H])C(=O)[C@]1([H])C([H])([H])C([H])([H])C([H])([H])[C@@]1([H])N([H])C(=O)[C@@]([H])(N([H])C(=O)[C@@]([H])(N([H])C(=O)[C@@]([H])(N([H])C(=O)[C@@]([H])(N([H])C(=O)[C@]([H])(N([H])C(=O)c1c([H])c([H])c(F)c([H])c1[H])C([H])([H])[H])C([H])([H])c1c([H])c([H])c([H])c([H])c1[H])C([H])([H])[H])C([H])([H])[H])C([H])([H])[H]


 65 68  0  0  0  0  0  0  0  0999 V2000
   34.5484  -12.8616   37.3874 C   0  0  0  0  0  0  0  0  0  0  0  0
   34.7899  -11.8425   36.7375 O   0  0  0  0  0  0  0  0  0  0  0  0
   35.2152  -14.0930   37.2634 N   0  0  0  0  0  0  0  0  0  0  0  0
   34.9081  -14.8845   37.9148 H   0  0  0  0  0  0  0  0  0  0  0  0
   33.4129  -12.8004   38.4441 C   0  0  0  0  0  0  0  0  0  0  0  0
   32.5507  -13.9977   38.1112 C   0  0  0  0  0  0  0  0  0  0  0  0
   31.6874  -11.2800   37.4404 C   0  0  0  0  0  0  0  0  0  0  0  0
   31.3435  -12.2073   36.6714 O   0  0  0  0  0  0  0  0  0  0  0  0
   32.7293  -11.5386   38.3676 N   0  0  0  0  0  0  0  0  0  0  0  0
   33.0408  -10.7943   39.0445 H   0  0  0  0  0  0  0  0  0  0  0  0
   31.0041   -9.9888   37.3401 C   0  0  0  0  0  0  0  0  0  0  0  0
   28.5400  -10.0334   38.5668 C   0  0  0  0  0  0  0  0  0  0  0  0
   27.5221  -10.6695   38.2218 O   0  0  0  0  0  0  0  0  0  0  0  0
   29.7534  -10.0040   37.9728 N   0  0  0  0  0  0  0  0  0  0  0  0
   29.3063  -10.8404   37.0068 H   0  0  0  0  0  0  0  0  0  0  0  0
   28.1557   -7.7764   39.4404 C   0  0  0  0  0  0  0  0  0  0  0  0
   28.2954   -9.2122   39.8433 C   0  0  0  0  0  0  0  0  0  0  0  0
   27.0774   -9.6513   40.4924 N   0  0  0  0  0  0  0  0  0  0  0  0
   27.1691  -10.5291   41.6390 C   0  0  0  0  0  0  0  0  0  0  0  0
   28.3250  -10.8791   42.0392 O   0  0  0  0  0  0  0  0  0  0  0  0
   26.1375   -9.3698   40.1720 H   0  0  0  0  0  0  0  0  0  0  0  0
   26.0022  -11.0086   42.3190 C   0  0  0  0  0  0  0  0  0  0  0  0
   26.2205  -11.6448   43.5453 C   0  0  0  0  0  0  0  0  0  0  0  0
   25.2092  -12.1621   44.2971 C   0  0  0  0  0  0  0  0  0  0  0  0
   23.9020  -12.0549   43.8301 C   0  0  0  0  0  0  0  0  0  0  0  0
   22.8687  -12.5424   44.5301 F   0  0  0  0  0  0  0  0  0  0  0  0
   23.7061  -11.4227   42.6182 C   0  0  0  0  0  0  0  0  0  0  0  0
   24.7071  -10.8972   41.8494 C   0  0  0  0  0  0  0  0  0  0  0  0
   31.9418   -8.8904   37.8617 C   0  0  0  0  0  0  0  0  0  0  0  0
   32.8361   -8.4281   36.7866 C   0  0  0  0  0  0  0  0  0  0  0  0
   34.1937   -8.7271   36.8136 C   0  0  0  0  0  0  0  0  0  0  0  0
   35.0539   -8.2892   35.8322 C   0  0  0  0  0  0  0  0  0  0  0  0
   34.6179   -7.5310   34.7665 C   0  0  0  0  0  0  0  0  0  0  0  0
   33.2444   -7.2134   34.7119 C   0  0  0  0  0  0  0  0  0  0  0  0
   32.4097   -7.6716   35.7197 C   0  0  0  0  0  0  0  0  0  0  0  0
   36.2743  -14.4138   36.3715 C   0  0  0  0  0  0  0  0  0  0  0  0
   37.5823  -14.0768   37.0905 C   0  0  0  0  0  0  0  0  0  0  0  0
   36.2028  -15.8974   36.1534 C   0  0  0  0  0  0  0  0  0  0  0  0
   35.5596  -16.5721   37.0316 O   0  0  0  0  0  0  0  0  0  0  0  0
   36.7860  -16.5801   35.0726 N   0  0  0  0  0  0  0  0  0  0  0  0
   37.3290  -16.0171   34.3457 H   0  0  0  0  0  0  0  0  0  0  0  0
   36.7023  -17.9952   34.9222 C   0  0  0  0  0  0  0  0  0  0  0  0
   35.6282  -18.4296   33.9267 C   0  0  0  0  0  0  0  0  0  0  0  0
   37.9737  -18.6269   34.5484 C   0  0  0  0  0  0  0  0  0  0  0  0
   38.6147  -18.1732   33.5763 O   0  0  0  0  0  0  0  0  0  0  0  0
   38.5061  -19.7441   35.2611 N   0  0  0  0  0  0  0  0  0  0  0  0
   37.9761  -20.1500   36.0745 H   0  0  0  0  0  0  0  0  0  0  0  0
   39.7648  -20.3380   34.8911 C   0  0  0  0  0  0  0  0  0  0  0  0
   39.5711  -21.4551   33.8374 C   0  0  0  0  0  0  0  0  0  0  0  0
   40.8526  -22.2395   33.9350 C   0  0  0  0  0  0  0  0  0  0  0  0
   41.4611  -21.8852   35.2921 C   0  0  0  0  0  0  0  0  0  0  0  0
   40.3787  -21.1295   35.9957 C   0  0  0  0  0  0  0  0  0  0  0  0
   40.8247  -20.3221   37.1416 C   0  0  0  0  0  0  0  0  0  0  0  0
   40.0550  -19.4697   37.5986 O   0  0  0  0  0  0  0  0  0  0  0  0
   42.1215  -20.5320   37.7106 N   0  0  0  0  0  0  0  0  0  0  0  0
   42.7662  -21.2254   37.2813 H   0  0  0  0  0  0  0  0  0  0  0  0
   42.5972  -19.7854   38.8568 C   0  0  0  0  0  0  0  0  0  0  0  0
   43.5493  -18.7209   38.6142 C   0  0  0  0  0  0  0  0  0  0  0  0
   43.4483  -17.5479   38.1902 O   0  0  0  0  0  0  0  0  0  0  0  0
   44.6186  -19.5266   39.0424 N   0  0  0  0  0  0  0  0  0  0  0  0
   43.7355  -20.5649   39.5363 C   0  0  0  0  0  0  0  0  0  0  0  0
   45.6634  -19.3766   39.0027 H   0  0  0  0  0  0  0  0  0  0  0  0
   44.0142  -21.8711   38.8338 C   0  0  0  0  0  0  0  0  0  0  0  0
   43.9061  -23.0866   39.7024 C   0  0  0  0  0  0  0  0  0  0  0  0
   44.7697  -22.8851   40.9534 C   0  0  0  0  0  0  0  0  0  0  0  0
 16 17  1  0  0  0
 17 18  1  0  0  0
 18 19  1  0  0  0
 19 20  2  0  0  0
 19 22  1  0  0  0
 22 23  2  0  0  0
 23 24  1  0  0  0
 24 25  2  0  0  0
 25 26  1  0  0  0
 25 27  1  0  0  0
 27 28  2  0  0  0
 17 12  1  0  0  0
 12 13  2  0  0  0
 12 14  1  0  0  0
 14 11  1  0  0  0
 11 29  1  0  0  0
 29 30  1  0  0  0
 30 31  2  0  0  0
 31 32  1  0  0  0
 32 33  2  0  0  0
 33 34  1  0  0  0
 34 35  2  0  0  0
 11  7  1  0  0  0
  7  8  2  0  0  0
  7  9  1  0  0  0
  9  5  1  0  0  0
  5  6  1  0  0  0
  5  1  1  0  0  0
  1  2  2  0  0  0
  1  3  1  0  0  0
  3 36  1  0  0  0
 36 37  1  0  0  0
 36 38  1  0  0  0
 38 39  2  0  0  0
 38 40  1  0  0  0
 40 42  1  0  0  0
 42 43  1  0  0  0
 42 44  1  0  0  0
 44 45  2  0  0  0
 44 46  1  0  0  0
 46 48  1  0  0  0
 48 49  1  0  0  0
 49 50  1  0  0  0
 50 51  1  0  0  0
 51 52  1  0  0  0
 52 53  1  0  0  0
 53 54  2  0  0  0
 53 55  1  0  0  0
 55 57  1  0  0  0
 57 58  1  0  0  0
 58 59  2  0  0  0
 58 60  1  0  0  0
 60 61  1  0  0  0
 61 63  1  0  0  0
 63 64  1  0  0  0
 64 65  1  0  0  0
 28 22  1  0  0  0
 35 30  1  0  0  0
 52 48  1  0  0  0
 61 57  1  0  0  0
 18 21  1  0  0  0
 14 15  1  0  0  0
  9 10  1  0  0  0
  3  4  1  0  0  0
 40 41  1  0  0  0
 46 47  1  0  0  0
 55 56  1  0  0  0
 60 62  1  0  0  0
M  END
> <minimizedAffinity>
-8.06681

> <CNNscore>
0.4758995771

> <CNNaffinity>
7.3949241638

> <CNN_VS>
3.5192413330

> <CNNaffinity_variance>
0.3678411841

$$$$
[H][C](C([H])([H])[H])C([H])([H])[C@@]1([H])N([H])C(=O)[C@@]1([H])N([H])C(=O)[C@]1([H])C([H])([H])C([H])([H])C([H])([H])[C@@]1([H])N([H])C(=O)[C@@]([H])(N([H])C(=O)[C@@]([H])(N([H])C(=O)[C@@]([H])(N([H])C(=O)[C@@]([H])(N([H])C(=O)[C@]([H])(N([H])C(=O)c1c([H])c([H])c(F)c([H])c1[H])C([H])([H])[H])C([H])([H])c1c([H])c([H])c([H])c([H])c1[H])C([H])([H])[H])C([H])([H])[H])C([H])([H])[H]


 65 68  0  0  0  0  0  0  0  0999 V2000
   34.6196  -12.9863   37.2706 C   0  0  0  0  0  0  0  0  0  0  0  0
   34.9128  -12.0284   36.5526 O   0  0  0  0  0  0  0  0  0  0  0  0
   35.2308  -14.2521   37.2427 N   0  0  0  0  0  0  0  0  0  0  0  0
   34.8824  -14.9802   37.9452 H   0  0  0  0  0  0  0  0  0  0  0  0
   33.4790  -12.7987   38.3068 C   0  0  0  0  0  0  0  0  0  0  0  0
   32.4887  -13.8841   37.9478 C   0  0  0  0  0  0  0  0  0  0  0  0
   31.7759  -11.1412   37.5015 C   0  0  0  0  0  0  0  0  0  0  0  0
   31.1708  -12.0720   36.9210 O   0  0  0  0  0  0  0  0  0  0  0  0
   32.9500  -11.4648   38.2286 N   0  0  0  0  0  0  0  0  0  0  0  0
   33.4827  -10.7177   38.7458 H   0  0  0  0  0  0  0  0  0  0  0  0
   31.2458   -9.7803   37.3968 C   0  0  0  0  0  0  0  0  0  0  0  0
   28.8656   -9.4715   38.7452 C   0  0  0  0  0  0  0  0  0  0  0  0
   28.4529   -8.4614   39.3528 O   0  0  0  0  0  0  0  0  0  0  0  0
   30.0310   -9.6341   38.0806 N   0  0  0  0  0  0  0  0  0  0  0  0
   30.4016   -8.3752   38.4125 H   0  0  0  0  0  0  0  0  0  0  0  0
   28.5987  -11.8641   39.2021 C   0  0  0  0  0  0  0  0  0  0  0  0
   27.8535  -10.6273   38.8046 C   0  0  0  0  0  0  0  0  0  0  0  0
   26.8304  -10.3434   39.7897 N   0  0  0  0  0  0  0  0  0  0  0  0
   25.4387  -10.4432   39.4066 C   0  0  0  0  0  0  0  0  0  0  0  0
   25.1655  -10.7849   38.2118 O   0  0  0  0  0  0  0  0  0  0  0  0
   27.0469  -10.0666   40.7602 H   0  0  0  0  0  0  0  0  0  0  0  0
   24.3787  -10.1647   40.3300 C   0  0  0  0  0  0  0  0  0  0  0  0
   24.7383   -9.4745   41.4921 C   0  0  0  0  0  0  0  0  0  0  0  0
   23.8409   -9.1519   42.4648 C   0  0  0  0  0  0  0  0  0  0  0  0
   22.5090   -9.5220   42.2997 C   0  0  0  0  0  0  0  0  0  0  0  0
   21.5834   -9.2273   43.2226 F   0  0  0  0  0  0  0  0  0  0  0  0
   22.1728  -10.2017   41.1458 C   0  0  0  0  0  0  0  0  0  0  0  0
   23.0581  -10.5344   40.1584 C   0  0  0  0  0  0  0  0  0  0  0  0
   32.3284   -8.7908   37.8515 C   0  0  0  0  0  0  0  0  0  0  0  0
   33.1146   -8.3262   36.6959 C   0  0  0  0  0  0  0  0  0  0  0  0
   34.4616   -8.6491   36.5767 C   0  0  0  0  0  0  0  0  0  0  0  0
   35.2232   -8.2098   35.5174 C   0  0  0  0  0  0  0  0  0  0  0  0
   34.6933   -7.4264   34.5145 C   0  0  0  0  0  0  0  0  0  0  0  0
   33.3278   -7.0841   34.6082 C   0  0  0  0  0  0  0  0  0  0  0  0
   32.5939   -7.5446   35.6907 C   0  0  0  0  0  0  0  0  0  0  0  0
   36.2818  -14.6832   36.3886 C   0  0  0  0  0  0  0  0  0  0  0  0
   37.5508  -14.7527   37.2407 C   0  0  0  0  0  0  0  0  0  0  0  0
   35.9154  -16.0683   35.9405 C   0  0  0  0  0  0  0  0  0  0  0  0
   34.6680  -16.3579   35.9467 O   0  0  0  0  0  0  0  0  0  0  0  0
   36.8332  -17.0484   35.5263 N   0  0  0  0  0  0  0  0  0  0  0  0
   37.8736  -16.8081   35.5296 H   0  0  0  0  0  0  0  0  0  0  0  0
   36.4323  -18.3565   35.1261 C   0  0  0  0  0  0  0  0  0  0  0  0
   35.7110  -18.3767   33.7798 C   0  0  0  0  0  0  0  0  0  0  0  0
   37.5337  -19.3263   35.0848 C   0  0  0  0  0  0  0  0  0  0  0  0
   37.7617  -20.0300   36.0920 O   0  0  0  0  0  0  0  0  0  0  0  0
   38.3547  -19.4954   33.9285 N   0  0  0  0  0  0  0  0  0  0  0  0
   38.1884  -18.9039   33.0743 H   0  0  0  0  0  0  0  0  0  0  0  0
   39.4184  -20.4659   33.9005 C   0  0  0  0  0  0  0  0  0  0  0  0
   38.8844  -21.8931   34.1718 C   0  0  0  0  0  0  0  0  0  0  0  0
   40.1247  -22.6501   34.5666 C   0  0  0  0  0  0  0  0  0  0  0  0
   41.1498  -21.5934   34.9790 C   0  0  0  0  0  0  0  0  0  0  0  0
   40.3635  -20.3226   35.0450 C   0  0  0  0  0  0  0  0  0  0  0  0
   41.1657  -19.0899   35.0151 C   0  0  0  0  0  0  0  0  0  0  0  0
   41.1729  -18.4151   33.9795 O   0  0  0  0  0  0  0  0  0  0  0  0
   41.9128  -18.6875   36.1680 N   0  0  0  0  0  0  0  0  0  0  0  0
   41.9242  -19.2944   37.0119 H   0  0  0  0  0  0  0  0  0  0  0  0
   42.6943  -17.4686   36.2009 C   0  0  0  0  0  0  0  0  0  0  0  0
   43.9590  -17.4649   35.4946 C   0  0  0  0  0  0  0  0  0  0  0  0
   44.2782  -17.3566   34.2895 O   0  0  0  0  0  0  0  0  0  0  0  0
   44.6739  -17.6292   36.6937 N   0  0  0  0  0  0  0  0  0  0  0  0
   43.4967  -17.4127   37.5117 C   0  0  0  0  0  0  0  0  0  0  0  0
   45.6957  -17.8268   36.8741 H   0  0  0  0  0  0  0  0  0  0  0  0
   43.2307  -18.6176   38.3806 C   0  0  0  0  0  0  0  0  0  0  0  0
   43.2652  -18.3492   39.8537 C   0  0  0  0  0  0  0  0  0  0  0  0
   44.1115  -19.4292   40.5386 C   0  0  0  0  0  0  0  0  0  0  0  0
 16 17  1  0  0  0
 17 18  1  0  0  0
 18 19  1  0  0  0
 19 20  2  0  0  0
 19 22  1  0  0  0
 22 23  2  0  0  0
 23 24  1  0  0  0
 24 25  2  0  0  0
 25 26  1  0  0  0
 25 27  1  0  0  0
 27 28  2  0  0  0
 17 12  1  0  0  0
 12 13  2  0  0  0
 12 14  1  0  0  0
 14 11  1  0  0  0
 11 29  1  0  0  0
 29 30  1  0  0  0
 30 31  2  0  0  0
 31 32  1  0  0  0
 32 33  2  0  0  0
 33 34  1  0  0  0
 34 35  2  0  0  0
 11  7  1  0  0  0
  7  8  2  0  0  0
  7  9  1  0  0  0
  9  5  1  0  0  0
  5  6  1  0  0  0
  5  1  1  0  0  0
  1  2  2  0  0  0
  1  3  1  0  0  0
  3 36  1  0  0  0
 36 37  1  0  0  0
 36 38  1  0  0  0
 38 39  2  0  0  0
 38 40  1  0  0  0
 40 42  1  0  0  0
 42 43  1  0  0  0
 42 44  1  0  0  0
 44 45  2  0  0  0
 44 46  1  0  0  0
 46 48  1  0  0  0
 48 49  1  0  0  0
 49 50  1  0  0  0
 50 51  1  0  0  0
 51 52  1  0  0  0
 52 53  1  0  0  0
 53 54  2  0  0  0
 53 55  1  0  0  0
 55 57  1  0  0  0
 57 58  1  0  0  0
 58 59  2  0  0  0
 58 60  1  0  0  0
 60 61  1  0  0  0
 61 63  1  0  0  0
 63 64  1  0  0  0
 64 65  1  0  0  0
 28 22  1  0  0  0
 35 30  1  0  0  0
 52 48  1  0  0  0
 61 57  1  0  0  0
 18 21  1  0  0  0
 14 15  1  0  0  0
  9 10  1  0  0  0
  3  4  1  0  0  0
 40 41  1  0  0  0
 46 47  1  0  0  0
 55 56  1  0  0  0
 60 62  1  0  0  0
M  END
> <minimizedAffinity>
-9.28343

> <CNNscore>
0.4604688287

> <CNNaffinity>
7.4869894981

> <CNN_VS>
3.4475252628

> <CNNaffinity_variance>
0.1239382029

$$$$
[H][C](C([H])([H])[H])C([H])([H])[C@@]1([H])N([H])C(=O)[C@@]1([H])N([H])C(=O)[C@]1([H])C([H])([H])C([H])([H])C([H])([H])[C@@]1([H])N([H])C(=O)[C@@]([H])(N([H])C(=O)[C@@]([H])(N([H])C(=O)[C@@]([H])(N([H])C(=O)[C@@]([H])(N([H])C(=O)[C@]([H])(N([H])C(=O)c1c([H])c([H])c(F)c([H])c1[H])C([H])([H])[H])C([H])([H])c1c([H])c([H])c([H])c([H])c1[H])C([H])([H])[H])C([H])([H])[H])C([H])([H])[H]


 65 68  0  0  0  0  0  0  0  0999 V2000
   34.5206  -12.7938   37.3780 C   0  0  0  0  0  0  0  0  0  0  0  0
   34.8304  -11.7763   36.7552 O   0  0  0  0  0  0  0  0  0  0  0  0
   35.1714  -14.0373   37.2970 N   0  0  0  0  0  0  0  0  0  0  0  0
   34.8005  -14.8261   37.9177 H   0  0  0  0  0  0  0  0  0  0  0  0
   33.3091  -12.7160   38.3454 C   0  0  0  0  0  0  0  0  0  0  0  0
   32.3799  -13.7978   37.8414 C   0  0  0  0  0  0  0  0  0  0  0  0
   31.6830  -11.0192   37.4662 C   0  0  0  0  0  0  0  0  0  0  0  0
   31.2134  -11.8924   36.7003 O   0  0  0  0  0  0  0  0  0  0  0  0
   32.7437  -11.3949   38.3298 N   0  0  0  0  0  0  0  0  0  0  0  0
   33.1591  -10.6987   39.0022 H   0  0  0  0  0  0  0  0  0  0  0  0
   31.1195   -9.6683   37.4272 C   0  0  0  0  0  0  0  0  0  0  0  0
   28.7825   -9.4608   38.8674 C   0  0  0  0  0  0  0  0  0  0  0  0
   28.3630   -8.4772   39.5126 O   0  0  0  0  0  0  0  0  0  0  0  0
   29.9269   -9.5737   38.1577 N   0  0  0  0  0  0  0  0  0  0  0  0
   30.2725   -8.3118   38.5049 H   0  0  0  0  0  0  0  0  0  0  0  0
   28.2498  -11.6590   37.9245 C   0  0  0  0  0  0  0  0  0  0  0  0
   27.8076  -10.6476   38.9367 C   0  0  0  0  0  0  0  0  0  0  0  0
   27.8391  -11.2417   40.2572 N   0  0  0  0  0  0  0  0  0  0  0  0
   28.9638  -12.0734   40.6272 C   0  0  0  0  0  0  0  0  0  0  0  0
   29.8915  -12.2469   39.7739 O   0  0  0  0  0  0  0  0  0  0  0  0
   27.0895  -11.1035   40.9531 H   0  0  0  0  0  0  0  0  0  0  0  0
   29.0501  -12.6995   41.9135 C   0  0  0  0  0  0  0  0  0  0  0  0
   28.4226  -12.0298   42.9689 C   0  0  0  0  0  0  0  0  0  0  0  0
   28.4325  -12.4981   44.2481 C   0  0  0  0  0  0  0  0  0  0  0  0
   29.0929  -13.6929   44.5212 C   0  0  0  0  0  0  0  0  0  0  0  0
   29.1311  -14.2016   45.7602 F   0  0  0  0  0  0  0  0  0  0  0  0
   29.7055  -14.3402   43.4665 C   0  0  0  0  0  0  0  0  0  0  0  0
   29.7067  -13.8869   42.1766 C   0  0  0  0  0  0  0  0  0  0  0  0
   32.1954   -8.6697   37.8779 C   0  0  0  0  0  0  0  0  0  0  0  0
   33.0268   -8.2619   36.7326 C   0  0  0  0  0  0  0  0  0  0  0  0
   32.4746   -7.5577   35.6685 C   0  0  0  0  0  0  0  0  0  0  0  0
   33.2255   -7.1835   34.5771 C   0  0  0  0  0  0  0  0  0  0  0  0
   34.5672   -7.4842   34.4780 C   0  0  0  0  0  0  0  0  0  0  0  0
   35.1552   -8.1970   35.5441 C   0  0  0  0  0  0  0  0  0  0  0  0
   34.3661   -8.5575   36.6257 C   0  0  0  0  0  0  0  0  0  0  0  0
   36.2892  -14.3741   36.4864 C   0  0  0  0  0  0  0  0  0  0  0  0
   37.5194  -14.3694   37.3963 C   0  0  0  0  0  0  0  0  0  0  0  0
   36.0458  -15.7726   35.9980 C   0  0  0  0  0  0  0  0  0  0  0  0
   34.8236  -16.1507   35.9383 O   0  0  0  0  0  0  0  0  0  0  0  0
   37.0507  -16.6761   35.6131 N   0  0  0  0  0  0  0  0  0  0  0  0
   38.0697  -16.3622   35.6713 H   0  0  0  0  0  0  0  0  0  0  0  0
   36.7650  -18.0013   35.1722 C   0  0  0  0  0  0  0  0  0  0  0  0
   37.4555  -18.3573   33.8569 C   0  0  0  0  0  0  0  0  0  0  0  0
   37.0804  -19.0361   36.1646 C   0  0  0  0  0  0  0  0  0  0  0  0
   37.1847  -18.7127   37.3672 O   0  0  0  0  0  0  0  0  0  0  0  0
   37.2703  -20.4043   35.8022 N   0  0  0  0  0  0  0  0  0  0  0  0
   37.2000  -20.6959   34.7935 H   0  0  0  0  0  0  0  0  0  0  0  0
   37.5600  -21.4085   36.7930 C   0  0  0  0  0  0  0  0  0  0  0  0
   38.7124  -22.3345   36.3347 C   0  0  0  0  0  0  0  0  0  0  0  0
   38.5510  -23.5411   37.2207 C   0  0  0  0  0  0  0  0  0  0  0  0
   37.1167  -23.4880   37.7477 C   0  0  0  0  0  0  0  0  0  0  0  0
   36.4661  -22.4113   36.9383 C   0  0  0  0  0  0  0  0  0  0  0  0
   35.2216  -21.8697   37.5057 C   0  0  0  0  0  0  0  0  0  0  0  0
   35.1931  -21.5934   38.7102 O   0  0  0  0  0  0  0  0  0  0  0  0
   34.0770  -21.6658   36.6705 N   0  0  0  0  0  0  0  0  0  0  0  0
   34.1130  -21.9460   35.6701 H   0  0  0  0  0  0  0  0  0  0  0  0
   32.8382  -21.1081   37.1725 C   0  0  0  0  0  0  0  0  0  0  0  0
   31.8254  -22.0351   37.6343 C   0  0  0  0  0  0  0  0  0  0  0  0
   31.6740  -22.7018   38.6824 O   0  0  0  0  0  0  0  0  0  0  0  0
   31.0901  -21.8848   36.4457 N   0  0  0  0  0  0  0  0  0  0  0  0
   31.9109  -20.7799   35.9903 C   0  0  0  0  0  0  0  0  0  0  0  0
   30.2500  -22.4071   36.0755 H   0  0  0  0  0  0  0  0  0  0  0  0
   32.5548  -21.1131   34.6668 C   0  0  0  0  0  0  0  0  0  0  0  0
   32.5266  -20.0059   33.6585 C   0  0  0  0  0  0  0  0  0  0  0  0
   33.0223  -18.7145   34.3205 C   0  0  0  0  0  0  0  0  0  0  0  0
 16 17  1  0  0  0
 17 18  1  0  0  0
 18 19  1  0  0  0
 19 20  2  0  0  0
 19 22  1  0  0  0
 22 23  2  0  0  0
 23 24  1  0  0  0
 24 25  2  0  0  0
 25 26  1  0  0  0
 25 27  1  0  0  0
 27 28  2  0  0  0
 17 12  1  0  0  0
 12 13  2  0  0  0
 12 14  1  0  0  0
 14 11  1  0  0  0
 11 29  1  0  0  0
 29 30  1  0  0  0
 30 31  2  0  0  0
 31 32  1  0  0  0
 32 33  2  0  0  0
 33 34  1  0  0  0
 34 35  2  0  0  0
 11  7  1  0  0  0
  7  8  2  0  0  0
  7  9  1  0  0  0
  9  5  1  0  0  0
  5  6  1  0  0  0
  5  1  1  0  0  0
  1  2  2  0  0  0
  1  3  1  0  0  0
  3 36  1  0  0  0
 36 37  1  0  0  0
 36 38  1  0  0  0
 38 39  2  0  0  0
 38 40  1  0  0  0
 40 42  1  0  0  0
 42 43  1  0  0  0
 42 44  1  0  0  0
 44 45  2  0  0  0
 44 46  1  0  0  0
 46 48  1  0  0  0
 48 49  1  0  0  0
 49 50  1  0  0  0
 50 51  1  0  0  0
 51 52  1  0  0  0
 52 53  1  0  0  0
 53 54  2  0  0  0
 53 55  1  0  0  0
 55 57  1  0  0  0
 57 58  1  0  0  0
 58 59  2  0  0  0
 58 60  1  0  0  0
 60 61  1  0  0  0
 61 63  1  0  0  0
 63 64  1  0  0  0
 64 65  1  0  0  0
 28 22  1  0  0  0
 35 30  1  0  0  0
 52 48  1  0  0  0
 61 57  1  0  0  0
 18 21  1  0  0  0
 14 15  1  0  0  0
  9 10  1  0  0  0
  3  4  1  0  0  0
 40 41  1  0  0  0
 46 47  1  0  0  0
 55 56  1  0  0  0
 60 62  1  0  0  0
M  END
> <minimizedAffinity>
-9.06756

> <CNNscore>
0.4382633567

> <CNNaffinity>
7.8203544617

> <CNN_VS>
3.4273748398

> <CNNaffinity_variance>
0.2190052271

$$$$
[H][C](C([H])([H])[H])C([H])([H])[C@@]1([H])N([H])C(=O)[C@@]1([H])N([H])C(=O)[C@]1([H])C([H])([H])C([H])([H])C([H])([H])[C@@]1([H])N([H])C(=O)[C@@]([H])(N([H])C(=O)[C@@]([H])(N([H])C(=O)[C@@]([H])(N([H])C(=O)[C@@]([H])(N([H])C(=O)[C@]([H])(N([H])C(=O)c1c([H])c([H])c(F)c([H])c1[H])C([H])([H])[H])C([H])([H])c1c([H])c([H])c([H])c([H])c1[H])C([H])([H])[H])C([H])([H])[H])C([H])([H])[H]


 65 68  0  0  0  0  0  0  0  0999 V2000
   35.0067  -15.5967   36.1741 C   0  0  0  0  0  0  0  0  0  0  0  0
   33.7838  -15.6556   36.0322 O   0  0  0  0  0  0  0  0  0  0  0  0
   35.9286  -16.5813   35.7778 N   0  0  0  0  0  0  0  0  0  0  0  0
   36.9655  -16.3784   35.9471 H   0  0  0  0  0  0  0  0  0  0  0  0
   35.6026  -14.3300   36.8448 C   0  0  0  0  0  0  0  0  0  0  0  0
   36.4993  -14.8879   37.9277 C   0  0  0  0  0  0  0  0  0  0  0  0
   34.4037  -12.1272   36.9269 C   0  0  0  0  0  0  0  0  0  0  0  0
   35.2256  -11.6693   36.0997 O   0  0  0  0  0  0  0  0  0  0  0  0
   34.5492  -13.4801   37.3277 N   0  0  0  0  0  0  0  0  0  0  0  0
   33.8721  -13.9127   38.0087 H   0  0  0  0  0  0  0  0  0  0  0  0
   33.3479  -11.2486   37.4343 C   0  0  0  0  0  0  0  0  0  0  0  0
   31.8339  -12.4787   39.3769 C   0  0  0  0  0  0  0  0  0  0  0  0
   32.1879  -12.8192   40.5252 O   0  0  0  0  0  0  0  0  0  0  0  0
   32.5679  -11.8750   38.4161 N   0  0  0  0  0  0  0  0  0  0  0  0
   33.6506  -11.8875   39.2285 H   0  0  0  0  0  0  0  0  0  0  0  0
   30.0994  -14.1851   39.6674 C   0  0  0  0  0  0  0  0  0  0  0  0
   30.3590  -12.8199   39.1088 C   0  0  0  0  0  0  0  0  0  0  0  0
   29.4979  -11.8585   39.7660 N   0  0  0  0  0  0  0  0  0  0  0  0
   28.3489  -11.3421   39.0540 C   0  0  0  0  0  0  0  0  0  0  0  0
   28.1346  -11.7602   37.8716 O   0  0  0  0  0  0  0  0  0  0  0  0
   29.6670  -11.5168   40.7251 H   0  0  0  0  0  0  0  0  0  0  0  0
   27.4643  -10.3806   39.6431 C   0  0  0  0  0  0  0  0  0  0  0  0
   27.9889   -9.6227   40.6951 C   0  0  0  0  0  0  0  0  0  0  0  0
   27.2618   -8.6811   41.3587 C   0  0  0  0  0  0  0  0  0  0  0  0
   25.9413   -8.4598   40.9772 C   0  0  0  0  0  0  0  0  0  0  0  0
   25.1815   -7.5436   41.5925 F   0  0  0  0  0  0  0  0  0  0  0  0
   25.4413   -9.2166   39.9361 C   0  0  0  0  0  0  0  0  0  0  0  0
   26.1544  -10.1657   39.2579 C   0  0  0  0  0  0  0  0  0  0  0  0
   33.9826   -9.9315   37.9035 C   0  0  0  0  0  0  0  0  0  0  0  0
   33.8586   -8.9026   36.8570 C   0  0  0  0  0  0  0  0  0  0  0  0
   32.6125   -8.4033   36.4951 C   0  0  0  0  0  0  0  0  0  0  0  0
   32.4681   -7.4570   35.5059 C   0  0  0  0  0  0  0  0  0  0  0  0
   33.5506   -6.9498   34.8193 C   0  0  0  0  0  0  0  0  0  0  0  0
   34.8284   -7.4369   35.1663 C   0  0  0  0  0  0  0  0  0  0  0  0
   34.9332   -8.3908   36.1672 C   0  0  0  0  0  0  0  0  0  0  0  0
   35.6449  -17.8281   35.1572 C   0  0  0  0  0  0  0  0  0  0  0  0
   36.8096  -18.1331   34.2128 C   0  0  0  0  0  0  0  0  0  0  0  0
   35.6258  -18.8487   36.2579 C   0  0  0  0  0  0  0  0  0  0  0  0
   35.9973  -18.4455   37.4153 O   0  0  0  0  0  0  0  0  0  0  0  0
   35.2380  -20.1904   36.1036 N   0  0  0  0  0  0  0  0  0  0  0  0
   34.9365  -20.5270   35.1361 H   0  0  0  0  0  0  0  0  0  0  0  0
   35.2548  -21.1240   37.1807 C   0  0  0  0  0  0  0  0  0  0  0  0
   34.2847  -22.2869   36.9811 C   0  0  0  0  0  0  0  0  0  0  0  0
   36.5872  -21.6672   37.4722 C   0  0  0  0  0  0  0  0  0  0  0  0
   36.8783  -22.8127   37.0665 O   0  0  0  0  0  0  0  0  0  0  0  0
   37.5661  -20.9282   38.2038 N   0  0  0  0  0  0  0  0  0  0  0  0
   37.3371  -19.9671   38.5660 H   0  0  0  0  0  0  0  0  0  0  0  0
   38.8747  -21.4706   38.4632 C   0  0  0  0  0  0  0  0  0  0  0  0
   39.0664  -21.7817   39.9672 C   0  0  0  0  0  0  0  0  0  0  0  0
   40.5629  -21.8702   40.1074 C   0  0  0  0  0  0  0  0  0  0  0  0
   41.1434  -21.1499   38.8902 C   0  0  0  0  0  0  0  0  0  0  0  0
   39.9649  -20.4726   38.2656 C   0  0  0  0  0  0  0  0  0  0  0  0
   40.1541  -20.0535   36.8683 C   0  0  0  0  0  0  0  0  0  0  0  0
   39.3783  -20.4900   36.0107 O   0  0  0  0  0  0  0  0  0  0  0  0
   41.2131  -19.1545   36.5221 N   0  0  0  0  0  0  0  0  0  0  0  0
   41.8779  -18.8354   37.2547 H   0  0  0  0  0  0  0  0  0  0  0  0
   41.4244  -18.6878   35.1674 C   0  0  0  0  0  0  0  0  0  0  0  0
   42.0973  -19.5828   34.2483 C   0  0  0  0  0  0  0  0  0  0  0  0
   41.7348  -20.5859   33.5939 O   0  0  0  0  0  0  0  0  0  0  0  0
   43.3060  -18.8784   34.3858 N   0  0  0  0  0  0  0  0  0  0  0  0
   42.6792  -17.7996   35.1241 C   0  0  0  0  0  0  0  0  0  0  0  0
   44.2821  -19.0971   34.0467 H   0  0  0  0  0  0  0  0  0  0  0  0
   43.3103  -17.6587   36.4876 C   0  0  0  0  0  0  0  0  0  0  0  0
   43.5977  -16.2488   36.9036 C   0  0  0  0  0  0  0  0  0  0  0  0
   44.9041  -15.7899   36.2446 C   0  0  0  0  0  0  0  0  0  0  0  0
 16 17  1  0  0  0
 17 18  1  0  0  0
 18 19  1  0  0  0
 19 20  2  0  0  0
 19 22  1  0  0  0
 22 23  2  0  0  0
 23 24  1  0  0  0
 24 25  2  0  0  0
 25 26  1  0  0  0
 25 27  1  0  0  0
 27 28  2  0  0  0
 17 12  1  0  0  0
 12 13  2  0  0  0
 12 14  1  0  0  0
 14 11  1  0  0  0
 11 29  1  0  0  0
 29 30  1  0  0  0
 30 31  2  0  0  0
 31 32  1  0  0  0
 32 33  2  0  0  0
 33 34  1  0  0  0
 34 35  2  0  0  0
 11  7  1  0  0  0
  7  8  2  0  0  0
  7  9  1  0  0  0
  9  5  1  0  0  0
  5  6  1  0  0  0
  5  1  1  0  0  0
  1  2  2  0  0  0
  1  3  1  0  0  0
  3 36  1  0  0  0
 36 37  1  0  0  0
 36 38  1  0  0  0
 38 39  2  0  0  0
 38 40  1  0  0  0
 40 42  1  0  0  0
 42 43  1  0  0  0
 42 44  1  0  0  0
 44 45  2  0  0  0
 44 46  1  0  0  0
 46 48  1  0  0  0
 48 49  1  0  0  0
 49 50  1  0  0  0
 50 51  1  0  0  0
 51 52  1  0  0  0
 52 53  1  0  0  0
 53 54  2  0  0  0
 53 55  1  0  0  0
 55 57  1  0  0  0
 57 58  1  0  0  0
 58 59  2  0  0  0
 58 60  1  0  0  0
 60 61  1  0  0  0
 61 63  1  0  0  0
 63 64  1  0  0  0
 64 65  1  0  0  0
 28 22  1  0  0  0
 35 30  1  0  0  0
 52 48  1  0  0  0
 61 57  1  0  0  0
 18 21  1  0  0  0
 14 15  1  0  0  0
  9 10  1  0  0  0
  3  4  1  0  0  0
 40 41  1  0  0  0
 46 47  1  0  0  0
 55 56  1  0  0  0
 60 62  1  0  0  0
M  END
> <minimizedAffinity>
-9.48725

> <CNNscore>
0.4101550281

> <CNNaffinity>
7.7988204956

> <CNN_VS>
3.1987254620

> <CNNaffinity_variance>
0.1414087564

$$$$
[H]O[C@@]1([H])[C@@]([H])(C([H])([H])OP(=O)(O[H])O[H])O[C@]([H])(C([H])([H])OP(=O)(O[H])OP(=O)(O[H])O[H])[C@]([H])(O[H])[C@]1([H])O[H]


 33 33  0  0  0  0  0  0  0  0999 V2000
   37.0533  -19.9465   37.1467 O   0  0  0  0  0  0  0  0  0  0  0  0
   36.6550  -19.4058   35.9142 C   0  0  0  0  0  0  0  0  0  0  0  0
   37.3853  -18.0740   35.7921 C   0  0  0  0  0  0  0  0  0  0  0  0
   37.1788  -17.4905   34.5485 O   0  0  0  0  0  0  0  0  0  0  0  0
   36.8198  -17.2264   36.9225 C   0  0  0  0  0  0  0  0  0  0  0  0
   37.5713  -16.0924   37.1605 O   0  0  0  0  0  0  0  0  0  0  0  0
   35.3838  -16.9595   36.6036 C   0  0  0  0  0  0  0  0  0  0  0  0
   34.7949  -17.8647   35.7591 O   0  0  0  0  0  0  0  0  0  0  0  0
   35.1700  -19.1746   35.9116 C   0  0  0  0  0  0  0  0  0  0  0  0
   37.9450  -19.6196   37.4202 H   0  0  0  0  0  0  0  0  0  0  0  0
   36.5125  -17.9490   33.9956 H   0  0  0  0  0  0  0  0  0  0  0  0
   38.4424  -16.4103   37.5352 H   0  0  0  0  0  0  0  0  0  0  0  0
   35.3317  -15.6065   35.8986 C   0  0  0  0  0  0  0  0  0  0  0  0
   35.2892  -14.5563   36.8285 O   0  0  0  0  0  0  0  0  0  0  0  0
   33.8741  -13.6469   36.6835 P   0  0  0  0  0  0  0  0  0  0  0  0
   32.7843  -13.9694   37.9340 O   0  0  0  0  0  0  0  0  0  0  0  0
   33.2196  -13.9166   35.3606 O   0  0  0  0  0  0  0  0  0  0  0  0
   32.3450  -14.8425   37.8066 H   0  0  0  0  0  0  0  0  0  0  0  0
   34.3260  -12.0117   36.8055 O   0  0  0  0  0  0  0  0  0  0  0  0
   33.1079  -11.0950   37.5210 P   0  0  0  0  0  0  0  0  0  0  0  0
   31.6496  -11.4359   36.7347 O   0  0  0  0  0  0  0  0  0  0  0  0
   33.4682   -9.4490   37.2887 O   0  0  0  0  0  0  0  0  0  0  0  0
   33.0018  -11.3948   39.0050 O   0  0  0  0  0  0  0  0  0  0  0  0
   31.3048  -12.3121   37.0583 H   0  0  0  0  0  0  0  0  0  0  0  0
   34.4311   -9.2787   37.3810 H   0  0  0  0  0  0  0  0  0  0  0  0
   34.4857  -19.8619   37.0873 C   0  0  0  0  0  0  0  0  0  0  0  0
   34.4084  -21.2309   36.9083 O   0  0  0  0  0  0  0  0  0  0  0  0
   34.3974  -22.1028   38.3374 P   0  0  0  0  0  0  0  0  0  0  0  0
   35.9786  -22.1818   38.9607 O   0  0  0  0  0  0  0  0  0  0  0  0
   33.3957  -21.2971   39.4445 O   0  0  0  0  0  0  0  0  0  0  0  0
   33.9228  -23.5163   38.1800 O   0  0  0  0  0  0  0  0  0  0  0  0
   35.9245  -22.0289   39.9424 H   0  0  0  0  0  0  0  0  0  0  0  0
   33.7699  -20.3852   39.5372 H   0  0  0  0  0  0  0  0  0  0  0  0
  1  2  1  0  0  0
  2  3  1  0  0  0
  3  4  1  0  0  0
  3  5  1  0  0  0
  5  6  1  0  0  0
  5  7  1  0  0  0
  7 13  1  0  0  0
 13 14  1  0  0  0
 14 15  1  0  0  0
 15 16  1  0  0  0
 15 17  2  0  0  0
 15 19  1  0  0  0
 19 20  1  0  0  0
 20 21  1  0  0  0
 20 22  1  0  0  0
 20 23  2  0  0  0
  7  8  1  0  0  0
  8  9  1  0  0  0
  9 26  1  0  0  0
 26 27  1  0  0  0
 27 28  1  0  0  0
 28 29  1  0  0  0
 28 30  1  0  0  0
 28 31  2  0  0  0
  9  2  1  0  0  0
  1 10  1  0  0  0
  4 11  1  0  0  0
  6 12  1  0  0  0
 16 18  1  0  0  0
 21 24  1  0  0  0
 22 25  1  0  0  0
 29 32  1  0  0  0
 30 33  1  0  0  0
M  END
> <minimizedAffinity>
-4.95625

> <CNNscore>
0.2771893144

> <CNNaffinity>
3.6786837578

> <CNN_VS>
1.0196918249

> <CNNaffinity_variance>
0.3568693399

$$$$
[H]O[C@@]1([H])[C@@]([H])(C([H])([H])OP(=O)(O[H])O[H])O[C@]([H])(C([H])([H])OP(=O)(O[H])OP(=O)(O[H])O[H])[C@]([H])(O[H])[C@]1([H])O[H]


 33 33  0  0  0  0  0  0  0  0999 V2000
   32.1855  -20.6128   33.7397 O   0  0  0  0  0  0  0  0  0  0  0  0
   32.1085  -19.5471   34.6498 C   0  0  0  0  0  0  0  0  0  0  0  0
   33.0273  -18.4645   34.0969 C   0  0  0  0  0  0  0  0  0  0  0  0
   32.9428  -17.2941   34.8404 O   0  0  0  0  0  0  0  0  0  0  0  0
   34.4177  -19.0805   34.1561 C   0  0  0  0  0  0  0  0  0  0  0  0
   35.3443  -18.3670   33.4215 O   0  0  0  0  0  0  0  0  0  0  0  0
   34.7701  -19.2467   35.5995 C   0  0  0  0  0  0  0  0  0  0  0  0
   33.7027  -19.3186   36.4569 O   0  0  0  0  0  0  0  0  0  0  0  0
   32.5978  -19.9896   36.0002 C   0  0  0  0  0  0  0  0  0  0  0  0
   32.4203  -20.3034   32.8309 H   0  0  0  0  0  0  0  0  0  0  0  0
   32.4132  -17.3770   35.6605 H   0  0  0  0  0  0  0  0  0  0  0  0
   35.0889  -18.4861   32.4619 H   0  0  0  0  0  0  0  0  0  0  0  0
   35.5725  -18.0126   36.0035 C   0  0  0  0  0  0  0  0  0  0  0  0
   36.9091  -18.1245   35.5907 O   0  0  0  0  0  0  0  0  0  0  0  0
   37.7120  -19.3725   36.3960 P   0  0  0  0  0  0  0  0  0  0  0  0
   37.8205  -20.7685   35.4501 O   0  0  0  0  0  0  0  0  0  0  0  0
   37.0135  -19.6890   37.6856 O   0  0  0  0  0  0  0  0  0  0  0  0
   36.9531  -21.2341   35.4022 H   0  0  0  0  0  0  0  0  0  0  0  0
   39.2960  -18.8280   36.6911 O   0  0  0  0  0  0  0  0  0  0  0  0
   40.3046  -19.1498   35.3813 P   0  0  0  0  0  0  0  0  0  0  0  0
   40.8784  -20.7346   35.5246 O   0  0  0  0  0  0  0  0  0  0  0  0
   41.6340  -18.0915   35.4549 O   0  0  0  0  0  0  0  0  0  0  0  0
   39.5677  -18.9611   34.0680 O   0  0  0  0  0  0  0  0  0  0  0  0
   40.1610  -21.3650   35.2429 H   0  0  0  0  0  0  0  0  0  0  0  0
   41.3601  -17.1955   35.7497 H   0  0  0  0  0  0  0  0  0  0  0  0
   32.7379  -21.5048   36.0854 C   0  0  0  0  0  0  0  0  0  0  0  0
   33.1328  -21.9145   37.3456 O   0  0  0  0  0  0  0  0  0  0  0  0
   34.3208  -23.0941   37.3347 P   0  0  0  0  0  0  0  0  0  0  0  0
   35.7837  -22.4147   36.7932 O   0  0  0  0  0  0  0  0  0  0  0  0
   34.5182  -23.6651   38.9199 O   0  0  0  0  0  0  0  0  0  0  0  0
   34.0179  -24.2492   36.4279 O   0  0  0  0  0  0  0  0  0  0  0  0
   36.5122  -22.7633   37.3744 H   0  0  0  0  0  0  0  0  0  0  0  0
   34.7481  -22.8735   39.4682 H   0  0  0  0  0  0  0  0  0  0  0  0
  1  2  1  0  0  0
  2  3  1  0  0  0
  3  4  1  0  0  0
  3  5  1  0  0  0
  5  6  1  0  0  0
  5  7  1  0  0  0
  7 13  1  0  0  0
 13 14  1  0  0  0
 14 15  1  0  0  0
 15 16  1  0  0  0
 15 17  2  0  0  0
 15 19  1  0  0  0
 19 20  1  0  0  0
 20 21  1  0  0  0
 20 22  1  0  0  0
 20 23  2  0  0  0
  7  8  1  0  0  0
  8  9  1  0  0  0
  9 26  1  0  0  0
 26 27  1  0  0  0
 27 28  1  0  0  0
 28 29  1  0  0  0
 28 30  1  0  0  0
 28 31  2  0  0  0
  9  2  1  0  0  0
  1 10  1  0  0  0
  4 11  1  0  0  0
  6 12  1  0  0  0
 16 18  1  0  0  0
 21 24  1  0  0  0
 22 25  1  0  0  0
 29 32  1  0  0  0
 30 33  1  0  0  0
M  END
> <minimizedAffinity>
-4.90077

> <CNNscore>
0.2235907167

> <CNNaffinity>
3.7190527916

> <CNN_VS>
0.8315456510

> <CNNaffinity_variance>
0.1642607749

$$$$
[H]O[C@@]1([H])[C@@]([H])(C([H])([H])OP(=O)(O[H])O[H])O[C@]([H])(C([H])([H])OP(=O)(O[H])OP(=O)(O[H])O[H])[C@]([H])(O[H])[C@]1([H])O[H]


 33 33  0  0  0  0  0  0  0  0999 V2000
   32.4235  -22.1411   34.4301 O   0  0  0  0  0  0  0  0  0  0  0  0
   31.7408  -20.9863   34.8430 C   0  0  0  0  0  0  0  0  0  0  0  0
   32.2821  -19.8548   33.9779 C   0  0  0  0  0  0  0  0  0  0  0  0
   31.5914  -18.6695   34.1965 O   0  0  0  0  0  0  0  0  0  0  0  0
   33.7478  -19.7438   34.3723 C   0  0  0  0  0  0  0  0  0  0  0  0
   34.4778  -18.9772   33.4852 O   0  0  0  0  0  0  0  0  0  0  0  0
   33.7931  -19.2621   35.7868 C   0  0  0  0  0  0  0  0  0  0  0  0
   32.6656  -19.5122   36.5256 O   0  0  0  0  0  0  0  0  0  0  0  0
   32.0349  -20.7066   36.2901 C   0  0  0  0  0  0  0  0  0  0  0  0
   32.7268  -22.0727   33.4920 H   0  0  0  0  0  0  0  0  0  0  0  0
   30.9587  -18.7056   34.9436 H   0  0  0  0  0  0  0  0  0  0  0  0
   34.5157  -19.4993   32.6331 H   0  0  0  0  0  0  0  0  0  0  0  0
   33.9516  -17.7448   35.7322 C   0  0  0  0  0  0  0  0  0  0  0  0
   35.2913  -17.3867   35.5169 O   0  0  0  0  0  0  0  0  0  0  0  0
   35.7476  -16.0658   36.4644 P   0  0  0  0  0  0  0  0  0  0  0  0
   36.8212  -15.0452   35.6513 O   0  0  0  0  0  0  0  0  0  0  0  0
   36.3714  -16.5388   37.7444 O   0  0  0  0  0  0  0  0  0  0  0  0
   37.7229  -15.4408   35.6059 H   0  0  0  0  0  0  0  0  0  0  0  0
   34.3332  -15.1758   36.7808 O   0  0  0  0  0  0  0  0  0  0  0  0
   34.6985  -13.6384   37.3631 P   0  0  0  0  0  0  0  0  0  0  0  0
   36.1331  -13.7307   38.2546 O   0  0  0  0  0  0  0  0  0  0  0  0
   33.4497  -13.1501   38.4095 O   0  0  0  0  0  0  0  0  0  0  0  0
   34.8355  -12.6439   36.2249 O   0  0  0  0  0  0  0  0  0  0  0  0
   36.9030  -13.7738   37.6248 H   0  0  0  0  0  0  0  0  0  0  0  0
   32.5715  -13.4319   38.0718 H   0  0  0  0  0  0  0  0  0  0  0  0
   32.7145  -21.8888   36.9708 C   0  0  0  0  0  0  0  0  0  0  0  0
   33.8029  -21.4914   37.7253 O   0  0  0  0  0  0  0  0  0  0  0  0
   33.6861  -21.8892   39.3473 P   0  0  0  0  0  0  0  0  0  0  0  0
   32.1886  -22.6437   39.6354 O   0  0  0  0  0  0  0  0  0  0  0  0
   34.9409  -22.9676   39.7223 O   0  0  0  0  0  0  0  0  0  0  0  0
   33.7595  -20.7071   40.2669 O   0  0  0  0  0  0  0  0  0  0  0  0
   32.3509  -23.4165   40.2407 H   0  0  0  0  0  0  0  0  0  0  0  0
   34.8275  -23.7401   39.1137 H   0  0  0  0  0  0  0  0  0  0  0  0
  1  2  1  0  0  0
  2  3  1  0  0  0
  3  4  1  0  0  0
  3  5  1  0  0  0
  5  6  1  0  0  0
  5  7  1  0  0  0
  7 13  1  0  0  0
 13 14  1  0  0  0
 14 15  1  0  0  0
 15 16  1  0  0  0
 15 17  2  0  0  0
 15 19  1  0  0  0
 19 20  1  0  0  0
 20 21  1  0  0  0
 20 22  1  0  0  0
 20 23  2  0  0  0
  7  8  1  0  0  0
  8  9  1  0  0  0
  9 26  1  0  0  0
 26 27  1  0  0  0
 27 28  1  0  0  0
 28 29  1  0  0  0
 28 30  1  0  0  0
 28 31  2  0  0  0
  9  2  1  0  0  0
  1 10  1  0  0  0
  4 11  1  0  0  0
  6 12  1  0  0  0
 16 18  1  0  0  0
 21 24  1  0  0  0
 22 25  1  0  0  0
 29 32  1  0  0  0
 30 33  1  0  0  0
M  END
> <minimizedAffinity>
-5.39387

> <CNNscore>
0.1825798303

> <CNNaffinity>
3.6061801910

> <CNN_VS>
0.6584157944

> <CNNaffinity_variance>
0.2493950874

$$$$
[H]O[C@@]1([H])[C@@]([H])(C([H])([H])OP(=O)(O[H])O[H])O[C@]([H])(C([H])([H])OP(=O)(O[H])OP(=O)(O[H])O[H])[C@]([H])(O[H])[C@]1([H])O[H]


 33 33  0  0  0  0  0  0  0  0999 V2000
   34.0164  -18.0670   35.5838 O   0  0  0  0  0  0  0  0  0  0  0  0
   35.1706  -17.8525   36.3531 C   0  0  0  0  0  0  0  0  0  0  0  0
   36.1844  -17.2181   35.4090 C   0  0  0  0  0  0  0  0  0  0  0  0
   37.3369  -16.8321   36.0816 O   0  0  0  0  0  0  0  0  0  0  0  0
   36.4618  -18.2957   34.3707 C   0  0  0  0  0  0  0  0  0  0  0  0
   37.1263  -17.8053   33.2638 O   0  0  0  0  0  0  0  0  0  0  0  0
   37.1663  -19.4149   35.0678 C   0  0  0  0  0  0  0  0  0  0  0  0
   36.9579  -19.4835   36.4212 O   0  0  0  0  0  0  0  0  0  0  0  0
   35.6992  -19.1644   36.8612 C   0  0  0  0  0  0  0  0  0  0  0  0
   33.9548  -17.4319   34.8291 H   0  0  0  0  0  0  0  0  0  0  0  0
   37.3760  -17.1297   37.0142 H   0  0  0  0  0  0  0  0  0  0  0  0
   36.4783  -17.2055   32.7941 H   0  0  0  0  0  0  0  0  0  0  0  0
   38.6625  -19.1884   34.8673 C   0  0  0  0  0  0  0  0  0  0  0  0
   39.1458  -19.9463   33.7896 O   0  0  0  0  0  0  0  0  0  0  0  0
   40.8169  -19.7867   33.6098 P   0  0  0  0  0  0  0  0  0  0  0  0
   41.2413  -18.2932   32.9426 O   0  0  0  0  0  0  0  0  0  0  0  0
   41.3526  -20.8943   32.7511 O   0  0  0  0  0  0  0  0  0  0  0  0
   41.0426  -18.2654   31.9777 H   0  0  0  0  0  0  0  0  0  0  0  0
   41.4886  -19.8610   35.1707 O   0  0  0  0  0  0  0  0  0  0  0  0
   41.7624  -21.4549   35.6406 P   0  0  0  0  0  0  0  0  0  0  0  0
   43.1316  -22.0250   34.8273 O   0  0  0  0  0  0  0  0  0  0  0  0
   40.4269  -22.3927   35.1609 O   0  0  0  0  0  0  0  0  0  0  0  0
   41.9489  -21.5546   37.1435 O   0  0  0  0  0  0  0  0  0  0  0  0
   43.9456  -21.6597   35.2692 H   0  0  0  0  0  0  0  0  0  0  0  0
   39.5845  -21.9037   35.2872 H   0  0  0  0  0  0  0  0  0  0  0  0
   34.6933  -20.2938   36.6730 C   0  0  0  0  0  0  0  0  0  0  0  0
   33.7430  -20.3085   37.6774 O   0  0  0  0  0  0  0  0  0  0  0  0
   34.2292  -21.1177   39.0601 P   0  0  0  0  0  0  0  0  0  0  0  0
   34.7189  -19.9857   40.2320 O   0  0  0  0  0  0  0  0  0  0  0  0
   32.9081  -22.0033   39.6505 O   0  0  0  0  0  0  0  0  0  0  0  0
   35.3875  -22.0447   38.8427 O   0  0  0  0  0  0  0  0  0  0  0  0
   34.3506  -20.2793   41.1084 H   0  0  0  0  0  0  0  0  0  0  0  0
   32.1864  -21.3441   39.8078 H   0  0  0  0  0  0  0  0  0  0  0  0
  1  2  1  0  0  0
  2  3  1  0  0  0
  3  4  1  0  0  0
  3  5  1  0  0  0
  5  6  1  0  0  0
  5  7  1  0  0  0
  7 13  1  0  0  0
 13 14  1  0  0  0
 14 15  1  0  0  0
 15 16  1  0  0  0
 15 17  2  0  0  0
 15 19  1  0  0  0
 19 20  1  0  0  0
 20 21  1  0  0  0
 20 22  1  0  0  0
 20 23  2  0  0  0
  7  8  1  0  0  0
  8  9  1  0  0  0
  9 26  1  0  0  0
 26 27  1  0  0  0
 27 28  1  0  0  0
 28 29  1  0  0  0
 28 30  1  0  0  0
 28 31  2  0  0  0
  9  2  1  0  0  0
  1 10  1  0  0  0
  4 11  1  0  0  0
  6 12  1  0  0  0
 16 18  1  0  0  0
 21 24  1  0  0  0
 22 25  1  0  0  0
 29 32  1  0  0  0
 30 33  1  0  0  0
M  END
> <minimizedAffinity>
-4.81266

> <CNNscore>
0.1651140004

> <CNNaffinity>
3.6584830284

> <CNN_VS>
0.6040667892

> <CNNaffinity_variance>
0.2253244668

$$$$
[H]O[C@@]1([H])[C@@]([H])(C([H])([H])OP(=O)(O[H])O[H])O[C@]([H])(C([H])([H])OP(=O)(O[H])OP(=O)(O[H])O[H])[C@]([H])(O[H])[C@]1([H])O[H]


 33 33  0  0  0  0  0  0  0  0999 V2000
   37.5457  -17.8295   33.2820 O   0  0  0  0  0  0  0  0  0  0  0  0
   36.9207  -19.0419   33.6124 C   0  0  0  0  0  0  0  0  0  0  0  0
   35.4976  -18.6764   34.0164 C   0  0  0  0  0  0  0  0  0  0  0  0
   34.7249  -19.8081   34.2446 O   0  0  0  0  0  0  0  0  0  0  0  0
   35.6646  -17.8348   35.2733 C   0  0  0  0  0  0  0  0  0  0  0  0
   34.5085  -17.1620   35.6170 O   0  0  0  0  0  0  0  0  0  0  0  0
   36.1974  -18.7328   36.3432 C   0  0  0  0  0  0  0  0  0  0  0  0
   36.8613  -19.8454   35.8949 O   0  0  0  0  0  0  0  0  0  0  0  0
   37.6297  -19.6854   34.7708 C   0  0  0  0  0  0  0  0  0  0  0  0
   36.8941  -17.1508   32.9794 H   0  0  0  0  0  0  0  0  0  0  0  0
   35.2296  -20.6477   34.2333 H   0  0  0  0  0  0  0  0  0  0  0  0
   34.3660  -16.4736   34.9056 H   0  0  0  0  0  0  0  0  0  0  0  0
   34.9950  -19.2331   37.1396 C   0  0  0  0  0  0  0  0  0  0  0  0
   34.8965  -20.6315   37.0761 O   0  0  0  0  0  0  0  0  0  0  0  0
   34.2976  -21.2841   38.5135 P   0  0  0  0  0  0  0  0  0  0  0  0
   32.6567  -21.6704   38.3971 O   0  0  0  0  0  0  0  0  0  0  0  0
   34.5115  -20.3235   39.6459 O   0  0  0  0  0  0  0  0  0  0  0  0
   32.0974  -20.8593   38.4252 H   0  0  0  0  0  0  0  0  0  0  0  0
   35.1475  -22.7317   38.7877 O   0  0  0  0  0  0  0  0  0  0  0  0
   36.7518  -22.5991   38.2928 P   0  0  0  0  0  0  0  0  0  0  0  0
   37.3256  -21.0721   38.7405 O   0  0  0  0  0  0  0  0  0  0  0  0
   36.8011  -22.7122   36.5964 O   0  0  0  0  0  0  0  0  0  0  0  0
   37.6030  -23.6951   38.9072 O   0  0  0  0  0  0  0  0  0  0  0  0
   37.5319  -21.0771   39.7145 H   0  0  0  0  0  0  0  0  0  0  0  0
   36.1615  -23.3799   36.2652 H   0  0  0  0  0  0  0  0  0  0  0  0
   38.9743  -19.0253   35.0518 C   0  0  0  0  0  0  0  0  0  0  0  0
   40.0321  -19.8375   34.6865 O   0  0  0  0  0  0  0  0  0  0  0  0
   40.9828  -19.2045   33.4624 P   0  0  0  0  0  0  0  0  0  0  0  0
   40.9321  -20.2434   32.1160 O   0  0  0  0  0  0  0  0  0  0  0  0
   40.3529  -17.6901   33.0287 O   0  0  0  0  0  0  0  0  0  0  0  0
   42.4266  -19.0501   33.8363 O   0  0  0  0  0  0  0  0  0  0  0  0
   40.8437  -19.6787   31.3016 H   0  0  0  0  0  0  0  0  0  0  0  0
   39.4139  -17.8521   32.7603 H   0  0  0  0  0  0  0  0  0  0  0  0
  1  2  1  0  0  0
  2  3  1  0  0  0
  3  4  1  0  0  0
  3  5  1  0  0  0
  5  6  1  0  0  0
  5  7  1  0  0  0
  7 13  1  0  0  0
 13 14  1  0  0  0
 14 15  1  0  0  0
 15 16  1  0  0  0
 15 17  2  0  0  0
 15 19  1  0  0  0
 19 20  1  0  0  0
 20 21  1  0  0  0
 20 22  1  0  0  0
 20 23  2  0  0  0
  7  8  1  0  0  0
  8  9  1  0  0  0
  9 26  1  0  0  0
 26 27  1  0  0  0
 27 28  1  0  0  0
 28 29  1  0  0  0
 28 30  1  0  0  0
 28 31  2  0  0  0
  9  2  1  0  0  0
  1 10  1  0  0  0
  4 11  1  0  0  0
  6 12  1  0  0  0
 16 18  1  0  0  0
 21 24  1  0  0  0
 22 25  1  0  0  0
 29 32  1  0  0  0
 30 33  1  0  0  0
M  END
> <minimizedAffinity>
-5.14099

> <CNNscore>
0.1412002593

> <CNNaffinity>
3.4455451965

> <CNN_VS>
0.4865118861

> <CNNaffinity_variance>
0.0482663810

$$$$
[H]O[C@@]1([H])[C@@]([H])(C([H])([H])OP(=O)(O[H])O[H])O[C@]([H])(C([H])([H])OP(=O)(O[H])OP(=O)(O[H])O[H])[C@]([H])(O[H])[C@]1([H])O[H]


 33 33  0  0  0  0  0  0  0  0999 V2000
   37.9598  -17.8262   36.0600 O   0  0  0  0  0  0  0  0  0  0  0  0
   36.8730  -17.3051   35.3409 C   0  0  0  0  0  0  0  0  0  0  0  0
   35.6823  -17.3665   36.2898 C   0  0  0  0  0  0  0  0  0  0  0  0
   34.5611  -16.7556   35.7425 O   0  0  0  0  0  0  0  0  0  0  0  0
   35.4641  -18.8535   36.5288 C   0  0  0  0  0  0  0  0  0  0  0  0
   34.6216  -19.1001   37.5949 O   0  0  0  0  0  0  0  0  0  0  0  0
   35.0131  -19.4512   35.2347 C   0  0  0  0  0  0  0  0  0  0  0  0
   35.3692  -18.7498   34.1118 O   0  0  0  0  0  0  0  0  0  0  0  0
   36.6042  -18.1547   34.1307 C   0  0  0  0  0  0  0  0  0  0  0  0
   37.8459  -17.7081   37.0346 H   0  0  0  0  0  0  0  0  0  0  0  0
   34.6646  -16.4935   34.8042 H   0  0  0  0  0  0  0  0  0  0  0  0
   35.1192  -18.8138   38.4139 H   0  0  0  0  0  0  0  0  0  0  0  0
   33.4872  -19.4770   35.2678 C   0  0  0  0  0  0  0  0  0  0  0  0
   32.9965  -20.7271   34.8605 O   0  0  0  0  0  0  0  0  0  0  0  0
   32.5831  -21.6984   36.1782 P   0  0  0  0  0  0  0  0  0  0  0  0
   32.3032  -20.7863   37.5729 O   0  0  0  0  0  0  0  0  0  0  0  0
   33.6667  -22.7026   36.4402 O   0  0  0  0  0  0  0  0  0  0  0  0
   33.1488  -20.4611   37.9610 H   0  0  0  0  0  0  0  0  0  0  0  0
   31.1273  -22.4800   35.7752 O   0  0  0  0  0  0  0  0  0  0  0  0
   29.7959  -21.5211   36.1548 P   0  0  0  0  0  0  0  0  0  0  0  0
   28.4587  -22.0967   35.2934 O   0  0  0  0  0  0  0  0  0  0  0  0
   30.1166  -19.9309   35.6435 O   0  0  0  0  0  0  0  0  0  0  0  0
   29.5218  -21.5371   37.6474 O   0  0  0  0  0  0  0  0  0  0  0  0
   28.1120  -22.9145   35.7431 H   0  0  0  0  0  0  0  0  0  0  0  0
   31.0536  -19.6862   35.8074 H   0  0  0  0  0  0  0  0  0  0  0  0
   37.7440  -19.1283   33.8553 C   0  0  0  0  0  0  0  0  0  0  0  0
   38.7613  -18.5367   33.1293 O   0  0  0  0  0  0  0  0  0  0  0  0
   40.2770  -19.1765   33.4390 P   0  0  0  0  0  0  0  0  0  0  0  0
   40.8086  -20.0489   32.0785 O   0  0  0  0  0  0  0  0  0  0  0  0
   41.3455  -17.8929   33.7372 O   0  0  0  0  0  0  0  0  0  0  0  0
   40.3077  -20.1244   34.6004 O   0  0  0  0  0  0  0  0  0  0  0  0
   41.7685  -19.8297   31.9350 H   0  0  0  0  0  0  0  0  0  0  0  0
   41.3128  -17.3183   32.9317 H   0  0  0  0  0  0  0  0  0  0  0  0
  1  2  1  0  0  0
  2  3  1  0  0  0
  3  4  1  0  0  0
  3  5  1  0  0  0
  5  6  1  0  0  0
  5  7  1  0  0  0
  7 13  1  0  0  0
 13 14  1  0  0  0
 14 15  1  0  0  0
 15 16  1  0  0  0
 15 17  2  0  0  0
 15 19  1  0  0  0
 19 20  1  0  0  0
 20 21  1  0  0  0
 20 22  1  0  0  0
 20 23  2  0  0  0
  7  8  1  0  0  0
  8  9  1  0  0  0
  9 26  1  0  0  0
 26 27  1  0  0  0
 27 28  1  0  0  0
 28 29  1  0  0  0
 28 30  1  0  0  0
 28 31  2  0  0  0
  9  2  1  0  0  0
  1 10  1  0  0  0
  4 11  1  0  0  0
  6 12  1  0  0  0
 16 18  1  0  0  0
 21 24  1  0  0  0
 22 25  1  0  0  0
 29 32  1  0  0  0
 30 33  1  0  0  0
M  END
> <minimizedAffinity>
-5.80585

> <CNNscore>
0.1390986741

> <CNNaffinity>
3.2595927715

> <CNN_VS>
0.4534050226

> <CNNaffinity_variance>
0.2077169865

$$$$
[H]O[C@@]1([H])[C@@]([H])(C([H])([H])OP(=O)(O[H])O[H])O[C@]([H])(C([H])([H])OP(=O)(O[H])OP(=O)(O[H])O[H])[C@]([H])(O[H])[C@]1([H])O[H]


 33 33  0  0  0  0  0  0  0  0999 V2000
   37.1695  -19.1282   33.4493 O   0  0  0  0  0  0  0  0  0  0  0  0
   38.2176  -18.5100   34.1489 C   0  0  0  0  0  0  0  0  0  0  0  0
   39.4116  -18.5252   33.2023 C   0  0  0  0  0  0  0  0  0  0  0  0
   40.4882  -17.8214   33.7269 O   0  0  0  0  0  0  0  0  0  0  0  0
   39.7294  -20.0018   33.0163 C   0  0  0  0  0  0  0  0  0  0  0  0
   40.5886  -20.2291   31.9592 O   0  0  0  0  0  0  0  0  0  0  0  0
   40.2170  -20.5214   34.3306 C   0  0  0  0  0  0  0  0  0  0  0  0
   39.8125  -19.8060   35.4280 O   0  0  0  0  0  0  0  0  0  0  0  0
   38.5405  -19.2961   35.3885 C   0  0  0  0  0  0  0  0  0  0  0  0
   37.2771  -19.0374   32.4711 H   0  0  0  0  0  0  0  0  0  0  0  0
   40.3656  -17.5335   34.6553 H   0  0  0  0  0  0  0  0  0  0  0  0
   40.0745  -20.0062   31.1308 H   0  0  0  0  0  0  0  0  0  0  0  0
   41.7413  -20.4459   34.2977 C   0  0  0  0  0  0  0  0  0  0  0  0
   42.2082  -19.3706   35.0691 O   0  0  0  0  0  0  0  0  0  0  0  0
   43.5863  -19.7841   35.9526 P   0  0  0  0  0  0  0  0  0  0  0  0
   44.6220  -20.7901   35.0745 O   0  0  0  0  0  0  0  0  0  0  0  0
   43.1954  -20.4572   37.2352 O   0  0  0  0  0  0  0  0  0  0  0  0
   44.2674  -21.7083   35.0237 H   0  0  0  0  0  0  0  0  0  0  0  0
   44.4216  -18.3362   36.2667 O   0  0  0  0  0  0  0  0  0  0  0  0
   43.5217  -16.9969   35.7843 P   0  0  0  0  0  0  0  0  0  0  0  0
   41.9559  -17.1524   36.4051 O   0  0  0  0  0  0  0  0  0  0  0  0
   43.4257  -16.9984   34.0861 O   0  0  0  0  0  0  0  0  0  0  0  0
   44.1647  -15.7082   36.2630 O   0  0  0  0  0  0  0  0  0  0  0  0
   41.9656  -16.9112   37.3711 H   0  0  0  0  0  0  0  0  0  0  0  0
   44.2740  -17.2839   33.6817 H   0  0  0  0  0  0  0  0  0  0  0  0
   37.4680  -20.3335   35.6990 C   0  0  0  0  0  0  0  0  0  0  0  0
   36.2338  -19.7484   35.9143 O   0  0  0  0  0  0  0  0  0  0  0  0
   35.9031  -19.4345   37.5252 P   0  0  0  0  0  0  0  0  0  0  0  0
   34.3220  -19.9491   37.8859 O   0  0  0  0  0  0  0  0  0  0  0  0
   37.0082  -20.3039   38.4744 O   0  0  0  0  0  0  0  0  0  0  0  0
   35.9785  -17.9811   37.8860 O   0  0  0  0  0  0  0  0  0  0  0  0
   34.3472  -20.4070   38.7689 H   0  0  0  0  0  0  0  0  0  0  0  0
   36.8950  -21.2546   38.2226 H   0  0  0  0  0  0  0  0  0  0  0  0
  1  2  1  0  0  0
  2  3  1  0  0  0
  3  4  1  0  0  0
  3  5  1  0  0  0
  5  6  1  0  0  0
  5  7  1  0  0  0
  7 13  1  0  0  0
 13 14  1  0  0  0
 14 15  1  0  0  0
 15 16  1  0  0  0
 15 17  2  0  0  0
 15 19  1  0  0  0
 19 20  1  0  0  0
 20 21  1  0  0  0
 20 22  1  0  0  0
 20 23  2  0  0  0
  7  8  1  0  0  0
  8  9  1  0  0  0
  9 26  1  0  0  0
 26 27  1  0  0  0
 27 28  1  0  0  0
 28 29  1  0  0  0
 28 30  1  0  0  0
 28 31  2  0  0  0
  9  2  1  0  0  0
  1 10  1  0  0  0
  4 11  1  0  0  0
  6 12  1  0  0  0
 16 18  1  0  0  0
 21 24  1  0  0  0
 22 25  1  0  0  0
 29 32  1  0  0  0
 30 33  1  0  0  0
M  END
> <minimizedAffinity>
-5.10842

> <CNNscore>
0.1385520250

> <CNNaffinity>
3.6372680664

> <CNN_VS>
0.5039508343

> <CNNaffinity_variance>
0.3269287944

$$$$
[H]O[C@@]1([H])[C@@]([H])(C([H])([H])OP(=O)(O[H])O[H])O[C@]([H])(C([H])([H])OP(=O)(O[H])OP(=O)(O[H])O[H])[C@]([H])(O[H])[C@]1([H])O[H]


 33 33  0  0  0  0  0  0  0  0999 V2000
   33.0848  -16.7809   34.6774 O   0  0  0  0  0  0  0  0  0  0  0  0
   33.5604  -18.0175   34.2141 C   0  0  0  0  0  0  0  0  0  0  0  0
   32.3378  -18.9224   34.1231 C   0  0  0  0  0  0  0  0  0  0  0  0
   32.6512  -20.1479   33.5488 O   0  0  0  0  0  0  0  0  0  0  0  0
   31.8666  -19.0692   35.5627 C   0  0  0  0  0  0  0  0  0  0  0  0
   30.5978  -19.6071   35.6519 O   0  0  0  0  0  0  0  0  0  0  0  0
   32.9163  -19.8383   36.2987 C   0  0  0  0  0  0  0  0  0  0  0  0
   34.1716  -19.7856   35.7501 O   0  0  0  0  0  0  0  0  0  0  0  0
   34.5449  -18.5886   35.1955 C   0  0  0  0  0  0  0  0  0  0  0  0
   32.1363  -16.6393   34.4384 H   0  0  0  0  0  0  0  0  0  0  0  0
   33.6098  -20.2908   33.4058 H   0  0  0  0  0  0  0  0  0  0  0  0
   29.9764  -18.9152   35.2839 H   0  0  0  0  0  0  0  0  0  0  0  0
   32.4898  -21.3038   36.2732 C   0  0  0  0  0  0  0  0  0  0  0  0
   31.9518  -21.6925   37.5097 O   0  0  0  0  0  0  0  0  0  0  0  0
   33.1438  -22.2607   38.5617 P   0  0  0  0  0  0  0  0  0  0  0  0
   32.6657  -23.6741   39.3549 O   0  0  0  0  0  0  0  0  0  0  0  0
   33.4872  -21.2058   39.5720 O   0  0  0  0  0  0  0  0  0  0  0  0
   32.0059  -23.4800   40.0609 H   0  0  0  0  0  0  0  0  0  0  0  0
   34.5002  -22.6408   37.6085 O   0  0  0  0  0  0  0  0  0  0  0  0
   34.5633  -24.2890   37.2689 P   0  0  0  0  0  0  0  0  0  0  0  0
   34.9848  -25.1116   38.6856 O   0  0  0  0  0  0  0  0  0  0  0  0
   35.7844  -24.5528   36.1146 O   0  0  0  0  0  0  0  0  0  0  0  0
   33.2327  -24.7857   36.7341 O   0  0  0  0  0  0  0  0  0  0  0  0
   34.1846  -25.1716   39.2749 H   0  0  0  0  0  0  0  0  0  0  0  0
   35.7995  -23.8369   35.4423 H   0  0  0  0  0  0  0  0  0  0  0  0
   34.9794  -17.5572   36.2301 C   0  0  0  0  0  0  0  0  0  0  0  0
   35.6565  -16.5005   35.6496 O   0  0  0  0  0  0  0  0  0  0  0  0
   35.8979  -15.2018   36.6782 P   0  0  0  0  0  0  0  0  0  0  0  0
   36.9581  -14.0919   35.9442 O   0  0  0  0  0  0  0  0  0  0  0  0
   34.4000  -14.4535   36.9507 O   0  0  0  0  0  0  0  0  0  0  0  0
   36.5086  -15.5784   37.9948 O   0  0  0  0  0  0  0  0  0  0  0  0
   36.6008  -13.1781   36.1093 H   0  0  0  0  0  0  0  0  0  0  0  0
   34.0573  -14.1962   36.0582 H   0  0  0  0  0  0  0  0  0  0  0  0
  1  2  1  0  0  0
  2  3  1  0  0  0
  3  4  1  0  0  0
  3  5  1  0  0  0
  5  6  1  0  0  0
  5  7  1  0  0  0
  7 13  1  0  0  0
 13 14  1  0  0  0
 14 15  1  0  0  0
 15 16  1  0  0  0
 15 17  2  0  0  0
 15 19  1  0  0  0
 19 20  1  0  0  0
 20 21  1  0  0  0
 20 22  1  0  0  0
 20 23  2  0  0  0
  7  8  1  0  0  0
  8  9  1  0  0  0
  9 26  1  0  0  0
 26 27  1  0  0  0
 27 28  1  0  0  0
 28 29  1  0  0  0
 28 30  1  0  0  0
 28 31  2  0  0  0
  9  2  1  0  0  0
  1 10  1  0  0  0
  4 11  1  0  0  0
  6 12  1  0  0  0
 16 18  1  0  0  0
 21 24  1  0  0  0
 22 25  1  0  0  0
 29 32  1  0  0  0
 30 33  1  0  0  0
M  END
> <minimizedAffinity>
-5.46558

> <CNNscore>
0.1325479299

> <CNNaffinity>
3.3701720238

> <CNN_VS>
0.4467093349

> <CNNaffinity_variance>
0.1799885929

$$$$
[H]O[C@@]1([H])[C@@]([H])(C([H])([H])OP(=O)(O[H])O[H])O[C@]([H])(C([H])([H])OP(=O)(O[H])OP(=O)(O[H])O[H])[C@]([H])(O[H])[C@]1([H])O[H]


 33 33  0  0  0  0  0  0  0  0999 V2000
   38.6451  -18.0395   33.8922 O   0  0  0  0  0  0  0  0  0  0  0  0
   37.7802  -19.1447   33.8695 C   0  0  0  0  0  0  0  0  0  0  0  0
   36.3716  -18.5659   33.8167 C   0  0  0  0  0  0  0  0  0  0  0  0
   35.4160  -19.5615   33.6578 O   0  0  0  0  0  0  0  0  0  0  0  0
   36.2149  -17.8284   35.1386 C   0  0  0  0  0  0  0  0  0  0  0  0
   35.1183  -16.9889   35.1494 O   0  0  0  0  0  0  0  0  0  0  0  0
   36.2164  -18.8557   36.2247 C   0  0  0  0  0  0  0  0  0  0  0  0
   36.8296  -20.0402   35.9076 O   0  0  0  0  0  0  0  0  0  0  0  0
   37.9510  -19.9554   35.1233 C   0  0  0  0  0  0  0  0  0  0  0  0
   38.2392  -17.2467   33.4639 H   0  0  0  0  0  0  0  0  0  0  0  0
   35.7701  -20.4724   33.7264 H   0  0  0  0  0  0  0  0  0  0  0  0
   35.3268  -16.2516   34.5067 H   0  0  0  0  0  0  0  0  0  0  0  0
   34.7562  -19.1860   36.5228 C   0  0  0  0  0  0  0  0  0  0  0  0
   34.5675  -20.5719   36.6370 O   0  0  0  0  0  0  0  0  0  0  0  0
   33.1317  -21.0721   35.9029 P   0  0  0  0  0  0  0  0  0  0  0  0
   33.1736  -22.7080   35.4814 O   0  0  0  0  0  0  0  0  0  0  0  0
   32.8588  -20.2428   34.6827 O   0  0  0  0  0  0  0  0  0  0  0  0
   33.7385  -22.8564   34.6876 H   0  0  0  0  0  0  0  0  0  0  0  0
   31.8951  -20.8699   37.0530 O   0  0  0  0  0  0  0  0  0  0  0  0
   30.3777  -21.1170   36.3656 P   0  0  0  0  0  0  0  0  0  0  0  0
   29.9649  -19.7419   35.4711 O   0  0  0  0  0  0  0  0  0  0  0  0
   29.2434  -21.2988   37.6200 O   0  0  0  0  0  0  0  0  0  0  0  0
   30.3743  -22.3529   35.4847 O   0  0  0  0  0  0  0  0  0  0  0  0
   30.4591  -19.7580   34.6069 H   0  0  0  0  0  0  0  0  0  0  0  0
   29.6169  -21.8181   38.3654 H   0  0  0  0  0  0  0  0  0  0  0  0
   39.1969  -19.5456   35.8997 C   0  0  0  0  0  0  0  0  0  0  0  0
   40.1682  -20.5293   35.8694 O   0  0  0  0  0  0  0  0  0  0  0  0
   41.3580  -20.2733   34.7198 P   0  0  0  0  0  0  0  0  0  0  0  0
   41.4397  -18.6136   34.3543 O   0  0  0  0  0  0  0  0  0  0  0  0
   42.8416  -20.7806   35.3676 O   0  0  0  0  0  0  0  0  0  0  0  0
   41.1132  -20.9901   33.4258 O   0  0  0  0  0  0  0  0  0  0  0  0
   42.4011  -18.3630   34.3002 H   0  0  0  0  0  0  0  0  0  0  0  0
   42.9704  -20.2563   36.1974 H   0  0  0  0  0  0  0  0  0  0  0  0
  1  2  1  0  0  0
  2  3  1  0  0  0
  3  4  1  0  0  0
  3  5  1  0  0  0
  5  6  1  0  0  0
  5  7  1  0  0  0
  7 13  1  0  0  0
 13 14  1  0  0  0
 14 15  1  0  0  0
 15 16  1  0  0  0
 15 17  2  0  0  0
 15 19  1  0  0  0
 19 20  1  0  0  0
 20 21  1  0  0  0
 20 22  1  0  0  0
 20 23  2  0  0  0
  7  8  1  0  0  0
  8  9  1  0  0  0
  9 26  1  0  0  0
 26 27  1  0  0  0
 27 28  1  0  0  0
 28 29  1  0  0  0
 28 30  1  0  0  0
 28 31  2  0  0  0
  9  2  1  0  0  0
  1 10  1  0  0  0
  4 11  1  0  0  0
  6 12  1  0  0  0
 16 18  1  0  0  0
 21 24  1  0  0  0
 22 25  1  0  0  0
 29 32  1  0  0  0
 30 33  1  0  0  0
M  END
> <minimizedAffinity>
-4.98430

> <CNNscore>
0.1295828968

> <CNNaffinity>
3.3697361946

> <CNN_VS>
0.4366601706

> <CNNaffinity_variance>
0.0973742977

$$$$
[H]c1c([H])c(N([H])C(=O)C([H])([H])[H])c([H])c([H])c1Sc1nc(N([H])c2c([H])c([H])c(N3C([H])([H])C([H])([H])N(C([H])([H])[H])C([H])([H])C3([H])[H])c([H])c2[H])nc2c([H])c([H])c([H])c([H])c12


 37 41  0  0  0  0  0  0  0  0999 V2000
   33.7521  -17.1836   35.0438 C   0  0  0  0  0  0  0  0  0  0  0  0
   34.8726  -17.8783   35.3648 N   0  0  0  0  0  0  0  0  0  0  0  0
   35.9031  -17.3846   36.0607 C   0  0  0  0  0  0  0  0  0  0  0  0
   35.8563  -16.0892   36.4957 C   0  0  0  0  0  0  0  0  0  0  0  0
   36.9000  -15.5539   37.2127 C   0  0  0  0  0  0  0  0  0  0  0  0
   36.8431  -14.2492   37.6453 C   0  0  0  0  0  0  0  0  0  0  0  0
   35.7211  -13.5092   37.3395 C   0  0  0  0  0  0  0  0  0  0  0  0
   34.6786  -14.0582   36.6183 C   0  0  0  0  0  0  0  0  0  0  0  0
   34.7142  -15.3679   36.1733 C   0  0  0  0  0  0  0  0  0  0  0  0
   33.7199  -15.9231   35.4737 N   0  0  0  0  0  0  0  0  0  0  0  0
   32.7710  -17.8510   34.2942 N   0  0  0  0  0  0  0  0  0  0  0  0
   32.4006  -17.3297   33.4206 H   0  0  0  0  0  0  0  0  0  0  0  0
   30.9771  -21.6034   35.0773 C   0  0  0  0  0  0  0  0  0  0  0  0
   32.1477  -21.5306   34.3829 C   0  0  0  0  0  0  0  0  0  0  0  0
   32.7540  -20.2937   34.1063 C   0  0  0  0  0  0  0  0  0  0  0  0
   32.2035  -19.1137   34.5178 C   0  0  0  0  0  0  0  0  0  0  0  0
   31.0014  -19.2130   35.2289 C   0  0  0  0  0  0  0  0  0  0  0  0
   30.3902  -20.4140   35.5104 C   0  0  0  0  0  0  0  0  0  0  0  0
   27.7976  -25.6055   36.5460 C   0  0  0  0  0  0  0  0  0  0  0  0
   28.2504  -24.7025   35.5079 N   0  0  0  0  0  0  0  0  0  0  0  0
   29.4592  -25.0576   34.8970 C   0  0  0  0  0  0  0  0  0  0  0  0
   30.4954  -24.0321   34.6789 C   0  0  0  0  0  0  0  0  0  0  0  0
   30.2972  -22.7967   35.3970 N   0  0  0  0  0  0  0  0  0  0  0  0
   29.3514  -22.8438   36.4830 C   0  0  0  0  0  0  0  0  0  0  0  0
   28.0490  -23.3267   35.8466 C   0  0  0  0  0  0  0  0  0  0  0  0
   37.3514  -18.3954   36.4348 S   0  0  0  0  0  0  0  0  0  0  0  0
   36.9391  -19.6082   37.6814 C   0  0  0  0  0  0  0  0  0  0  0  0
   35.7149  -19.5847   38.2970 C   0  0  0  0  0  0  0  0  0  0  0  0
   35.3729  -20.5302   39.2802 C   0  0  0  0  0  0  0  0  0  0  0  0
   36.2353  -21.5163   39.6733 C   0  0  0  0  0  0  0  0  0  0  0  0
   37.4863  -21.5146   39.0218 C   0  0  0  0  0  0  0  0  0  0  0  0
   37.8139  -20.5909   38.0642 C   0  0  0  0  0  0  0  0  0  0  0  0
   35.9832  -22.4876   40.6577 N   0  0  0  0  0  0  0  0  0  0  0  0
   36.1114  -22.3322   42.0361 C   0  0  0  0  0  0  0  0  0  0  0  0
   35.7941  -23.4817   42.9820 C   0  0  0  0  0  0  0  0  0  0  0  0
   36.4842  -21.2702   42.5702 O   0  0  0  0  0  0  0  0  0  0  0  0
   35.6544  -23.4534   40.3362 H   0  0  0  0  0  0  0  0  0  0  0  0
 19 20  1  0  0  0
 20 21  1  0  0  0
 21 22  1  0  0  0
 22 23  1  0  0  0
 23 24  1  0  0  0
 24 25  1  0  0  0
 23 13  1  0  0  0
 13 14  2  0  0  0
 14 15  1  0  0  0
 15 16  2  0  0  0
 16 11  1  0  0  0
 11  1  1  0  0  0
  1  2  2  0  0  0
  2  3  1  0  0  0
  3 26  1  0  0  0
 26 27  1  0  0  0
 27 28  2  0  0  0
 28 29  1  0  0  0
 29 30  2  0  0  0
 30 33  1  0  0  0
 33 34  1  0  0  0
 34 35  1  0  0  0
 34 36  2  0  0  0
 30 31  1  0  0  0
 31 32  2  0  0  0
  3  4  2  0  0  0
  4  5  1  0  0  0
  5  6  2  0  0  0
  6  7  1  0  0  0
  7  8  2  0  0  0
  8  9  1  0  0  0
  9 10  2  0  0  0
 16 17  1  0  0  0
 17 18  2  0  0  0
 25 20  1  0  0  0
 18 13  1  0  0  0
 10  1  1  0  0  0
 32 27  1  0  0  0
  9  4  1  0  0  0
 11 12  1  0  0  0
 33 37  1  0  0  0
M  END
> <minimizedAffinity>
-7.99163

> <CNNscore>
0.5728494525

> <CNNaffinity>
6.0240488052

> <CNN_VS>
3.4508731365

> <CNNaffinity_variance>
0.4460041523

$$$$
[H]c1c([H])c(N([H])C(=O)C([H])([H])[H])c([H])c([H])c1Sc1nc(N([H])c2c([H])c([H])c(N3C([H])([H])C([H])([H])N(C([H])([H])[H])C([H])([H])C3([H])[H])c([H])c2[H])nc2c([H])c([H])c([H])c([H])c12


 37 41  0  0  0  0  0  0  0  0999 V2000
   33.7040  -17.2291   35.2196 C   0  0  0  0  0  0  0  0  0  0  0  0
   34.5941  -18.0035   35.8897 N   0  0  0  0  0  0  0  0  0  0  0  0
   35.5886  -17.5365   36.6531 C   0  0  0  0  0  0  0  0  0  0  0  0
   35.7482  -16.1854   36.7898 C   0  0  0  0  0  0  0  0  0  0  0  0
   36.7610  -15.6758   37.5672 C   0  0  0  0  0  0  0  0  0  0  0  0
   36.9131  -14.3147   37.6977 C   0  0  0  0  0  0  0  0  0  0  0  0
   36.0287  -13.4930   37.0323 C   0  0  0  0  0  0  0  0  0  0  0  0
   35.0149  -14.0170   36.2540 C   0  0  0  0  0  0  0  0  0  0  0  0
   34.8431  -15.3822   36.1085 C   0  0  0  0  0  0  0  0  0  0  0  0
   33.8712  -15.9150   35.3615 N   0  0  0  0  0  0  0  0  0  0  0  0
   32.7290  -17.8833   34.4507 N   0  0  0  0  0  0  0  0  0  0  0  0
   32.3140  -17.3192   33.6251 H   0  0  0  0  0  0  0  0  0  0  0  0
   31.1108  -21.7523   35.0200 C   0  0  0  0  0  0  0  0  0  0  0  0
   32.2330  -21.5788   34.2661 C   0  0  0  0  0  0  0  0  0  0  0  0
   32.7801  -20.3013   34.0592 C   0  0  0  0  0  0  0  0  0  0  0  0
   32.2181  -19.1807   34.6004 C   0  0  0  0  0  0  0  0  0  0  0  0
   31.0664  -19.3832   35.3706 C   0  0  0  0  0  0  0  0  0  0  0  0
   30.5135  -20.6255   35.5858 C   0  0  0  0  0  0  0  0  0  0  0  0
   28.1502  -25.9776   36.3105 C   0  0  0  0  0  0  0  0  0  0  0  0
   28.5280  -24.9868   35.3237 N   0  0  0  0  0  0  0  0  0  0  0  0
   29.7268  -25.2473   34.6488 C   0  0  0  0  0  0  0  0  0  0  0  0
   30.7124  -24.1661   34.4684 C   0  0  0  0  0  0  0  0  0  0  0  0
   30.4914  -22.9926   35.2779 N   0  0  0  0  0  0  0  0  0  0  0  0
   29.5887  -23.1545   36.3893 C   0  0  0  0  0  0  0  0  0  0  0  0
   28.2843  -23.6473   35.7649 C   0  0  0  0  0  0  0  0  0  0  0  0
   36.7216  -18.6553   37.5038 S   0  0  0  0  0  0  0  0  0  0  0  0
   37.6826  -19.5711   36.3069 C   0  0  0  0  0  0  0  0  0  0  0  0
   38.0383  -18.9972   35.1144 C   0  0  0  0  0  0  0  0  0  0  0  0
   38.7937  -19.7022   34.1604 C   0  0  0  0  0  0  0  0  0  0  0  0
   39.2109  -20.9881   34.3678 C   0  0  0  0  0  0  0  0  0  0  0  0
   38.8299  -21.5510   35.6036 C   0  0  0  0  0  0  0  0  0  0  0  0
   38.0940  -20.8590   36.5295 C   0  0  0  0  0  0  0  0  0  0  0  0
   39.9509  -21.7704   33.4643 N   0  0  0  0  0  0  0  0  0  0  0  0
   41.3352  -21.9231   33.4312 C   0  0  0  0  0  0  0  0  0  0  0  0
   41.9955  -22.8152   32.3896 C   0  0  0  0  0  0  0  0  0  0  0  0
   42.1025  -21.3544   34.2312 O   0  0  0  0  0  0  0  0  0  0  0  0
   39.4139  -22.3166   32.7175 H   0  0  0  0  0  0  0  0  0  0  0  0
 19 20  1  0  0  0
 20 21  1  0  0  0
 21 22  1  0  0  0
 22 23  1  0  0  0
 23 24  1  0  0  0
 24 25  1  0  0  0
 23 13  1  0  0  0
 13 14  2  0  0  0
 14 15  1  0  0  0
 15 16  2  0  0  0
 16 11  1  0  0  0
 11  1  1  0  0  0
  1  2  2  0  0  0
  2  3  1  0  0  0
  3 26  1  0  0  0
 26 27  1  0  0  0
 27 28  2  0  0  0
 28 29  1  0  0  0
 29 30  2  0  0  0
 30 33  1  0  0  0
 33 34  1  0  0  0
 34 35  1  0  0  0
 34 36  2  0  0  0
 30 31  1  0  0  0
 31 32  2  0  0  0
  3  4  2  0  0  0
  4  5  1  0  0  0
  5  6  2  0  0  0
  6  7  1  0  0  0
  7  8  2  0  0  0
  8  9  1  0  0  0
  9 10  2  0  0  0
 16 17  1  0  0  0
 17 18  2  0  0  0
 25 20  1  0  0  0
 18 13  1  0  0  0
 10  1  1  0  0  0
 32 27  1  0  0  0
  9  4  1  0  0  0
 11 12  1  0  0  0
 33 37  1  0  0  0
M  END
> <minimizedAffinity>
-8.15617

> <CNNscore>
0.5412889719

> <CNNaffinity>
6.4011664391

> <CNN_VS>
3.4648807049

> <CNNaffinity_variance>
0.1289424151

$$$$
[H]c1c([H])c(N([H])C(=O)C([H])([H])[H])c([H])c([H])c1Sc1nc(N([H])c2c([H])c([H])c(N3C([H])([H])C([H])([H])N(C([H])([H])[H])C([H])([H])C3([H])[H])c([H])c2[H])nc2c([H])c([H])c([H])c([H])c12


 37 41  0  0  0  0  0  0  0  0999 V2000
   33.7145  -11.7883   37.5572 C   0  0  0  0  0  0  0  0  0  0  0  0
   32.5271  -11.1683   37.7736 N   0  0  0  0  0  0  0  0  0  0  0  0
   32.2462   -9.9109   37.4130 C   0  0  0  0  0  0  0  0  0  0  0  0
   33.2027   -9.1683   36.7780 C   0  0  0  0  0  0  0  0  0  0  0  0
   32.9435   -7.8735   36.3957 C   0  0  0  0  0  0  0  0  0  0  0  0
   33.9130   -7.1348   35.7577 C   0  0  0  0  0  0  0  0  0  0  0  0
   35.1338   -7.7287   35.5192 C   0  0  0  0  0  0  0  0  0  0  0  0
   35.3824   -9.0307   35.9082 C   0  0  0  0  0  0  0  0  0  0  0  0
   34.4224   -9.7922   36.5509 C   0  0  0  0  0  0  0  0  0  0  0  0
   34.6371  -11.0534   36.9379 N   0  0  0  0  0  0  0  0  0  0  0  0
   33.8463  -13.1089   38.0138 N   0  0  0  0  0  0  0  0  0  0  0  0
   33.3676  -13.3380   38.9574 H   0  0  0  0  0  0  0  0  0  0  0  0
   35.9840  -16.2987   36.2341 C   0  0  0  0  0  0  0  0  0  0  0  0
   34.7079  -16.0216   35.8435 C   0  0  0  0  0  0  0  0  0  0  0  0
   33.9796  -14.9720   36.4284 C   0  0  0  0  0  0  0  0  0  0  0  0
   34.5122  -14.1845   37.4086 C   0  0  0  0  0  0  0  0  0  0  0  0
   35.8238  -14.4877   37.7937 C   0  0  0  0  0  0  0  0  0  0  0  0
   36.5551  -15.5113   37.2344 C   0  0  0  0  0  0  0  0  0  0  0  0
   38.8957  -20.5690   34.9814 C   0  0  0  0  0  0  0  0  0  0  0  0
   37.6079  -19.9061   34.9793 N   0  0  0  0  0  0  0  0  0  0  0  0
   37.4321  -18.9524   33.9693 C   0  0  0  0  0  0  0  0  0  0  0  0
   36.8481  -17.6397   34.2990 C   0  0  0  0  0  0  0  0  0  0  0  0
   36.7869  -17.3312   35.7070 N   0  0  0  0  0  0  0  0  0  0  0  0
   37.6068  -18.1462   36.5670 C   0  0  0  0  0  0  0  0  0  0  0  0
   37.1528  -19.5797   36.2963 C   0  0  0  0  0  0  0  0  0  0  0  0
   30.6309   -9.1783   37.7493 S   0  0  0  0  0  0  0  0  0  0  0  0
   29.5759  -10.3777   38.5511 C   0  0  0  0  0  0  0  0  0  0  0  0
   28.7122   -9.9920   39.5427 C   0  0  0  0  0  0  0  0  0  0  0  0
   27.8749  -10.9214   40.1852 C   0  0  0  0  0  0  0  0  0  0  0  0
   27.8765  -12.2498   39.8594 C   0  0  0  0  0  0  0  0  0  0  0  0
   28.7751  -12.6157   38.8358 C   0  0  0  0  0  0  0  0  0  0  0  0
   29.5884  -11.7056   38.2131 C   0  0  0  0  0  0  0  0  0  0  0  0
   27.0888  -13.2468   40.4606 N   0  0  0  0  0  0  0  0  0  0  0  0
   27.3860  -13.9596   41.6200 C   0  0  0  0  0  0  0  0  0  0  0  0
   26.4249  -15.0117   42.1551 C   0  0  0  0  0  0  0  0  0  0  0  0
   28.4303  -13.7869   42.2770 O   0  0  0  0  0  0  0  0  0  0  0  0
   26.1580  -13.4977   39.9970 H   0  0  0  0  0  0  0  0  0  0  0  0
 19 20  1  0  0  0
 20 21  1  0  0  0
 21 22  1  0  0  0
 22 23  1  0  0  0
 23 24  1  0  0  0
 24 25  1  0  0  0
 23 13  1  0  0  0
 13 14  2  0  0  0
 14 15  1  0  0  0
 15 16  2  0  0  0
 16 11  1  0  0  0
 11  1  1  0  0  0
  1  2  2  0  0  0
  2  3  1  0  0  0
  3 26  1  0  0  0
 26 27  1  0  0  0
 27 28  2  0  0  0
 28 29  1  0  0  0
 29 30  2  0  0  0
 30 33  1  0  0  0
 33 34  1  0  0  0
 34 35  1  0  0  0
 34 36  2  0  0  0
 30 31  1  0  0  0
 31 32  2  0  0  0
  3  4  2  0  0  0
  4  5  1  0  0  0
  5  6  2  0  0  0
  6  7  1  0  0  0
  7  8  2  0  0  0
  8  9  1  0  0  0
  9 10  2  0  0  0
 16 17  1  0  0  0
 17 18  2  0  0  0
 25 20  1  0  0  0
 18 13  1  0  0  0
 10  1  1  0  0  0
 32 27  1  0  0  0
  9  4  1  0  0  0
 11 12  1  0  0  0
 33 37  1  0  0  0
M  END
> <minimizedAffinity>
-9.22830

> <CNNscore>
0.5354385972

> <CNNaffinity>
7.2795372009

> <CNN_VS>
3.8977451324

> <CNNaffinity_variance>
0.0987101048

$$$$
[H]c1c([H])c(N([H])C(=O)C([H])([H])[H])c([H])c([H])c1Sc1nc(N([H])c2c([H])c([H])c(N3C([H])([H])C([H])([H])N(C([H])([H])[H])C([H])([H])C3([H])[H])c([H])c2[H])nc2c([H])c([H])c([H])c([H])c12


 37 41  0  0  0  0  0  0  0  0999 V2000
   33.7375  -17.2548   35.0896 C   0  0  0  0  0  0  0  0  0  0  0  0
   34.8210  -17.9863   35.4531 N   0  0  0  0  0  0  0  0  0  0  0  0
   35.8520  -17.5197   36.1667 C   0  0  0  0  0  0  0  0  0  0  0  0
   35.8454  -16.2150   36.5759 C   0  0  0  0  0  0  0  0  0  0  0  0
   36.8907  -15.7070   37.3101 C   0  0  0  0  0  0  0  0  0  0  0  0
   36.8745  -14.3928   37.7165 C   0  0  0  0  0  0  0  0  0  0  0  0
   35.7910  -13.6156   37.3673 C   0  0  0  0  0  0  0  0  0  0  0  0
   34.7465  -14.1375   36.6291 C   0  0  0  0  0  0  0  0  0  0  0  0
   34.7415  -15.4561   36.2099 C   0  0  0  0  0  0  0  0  0  0  0  0
   33.7443  -15.9857   35.4947 N   0  0  0  0  0  0  0  0  0  0  0  0
   32.7503  -17.8979   34.3269 N   0  0  0  0  0  0  0  0  0  0  0  0
   32.4765  -17.4167   33.3966 H   0  0  0  0  0  0  0  0  0  0  0  0
   30.7776  -21.5701   35.0588 C   0  0  0  0  0  0  0  0  0  0  0  0
   30.1893  -20.3906   35.4060 C   0  0  0  0  0  0  0  0  0  0  0  0
   30.8321  -19.1622   35.1783 C   0  0  0  0  0  0  0  0  0  0  0  0
   32.0680  -19.0918   34.6017 C   0  0  0  0  0  0  0  0  0  0  0  0
   32.6527  -20.3156   34.2538 C   0  0  0  0  0  0  0  0  0  0  0  0
   32.0410  -21.5302   34.4681 C   0  0  0  0  0  0  0  0  0  0  0  0
   29.4155  -26.6313   35.9600 C   0  0  0  0  0  0  0  0  0  0  0  0
   29.5974  -25.2891   36.4734 N   0  0  0  0  0  0  0  0  0  0  0  0
   28.5508  -24.4006   36.1981 C   0  0  0  0  0  0  0  0  0  0  0  0
   28.8551  -23.0451   35.7051 C   0  0  0  0  0  0  0  0  0  0  0  0
   30.2102  -22.8465   35.2519 N   0  0  0  0  0  0  0  0  0  0  0  0
   30.9715  -24.0432   34.9977 C   0  0  0  0  0  0  0  0  0  0  0  0
   30.9385  -24.8149   36.3160 C   0  0  0  0  0  0  0  0  0  0  0  0
   37.2489  -18.5788   36.5979 S   0  0  0  0  0  0  0  0  0  0  0  0
   36.7692  -19.7207   37.8867 C   0  0  0  0  0  0  0  0  0  0  0  0
   37.6341  -20.6960   38.3095 C   0  0  0  0  0  0  0  0  0  0  0  0
   37.2742  -21.6034   39.3218 C   0  0  0  0  0  0  0  0  0  0  0  0
   36.0521  -21.5635   39.9344 C   0  0  0  0  0  0  0  0  0  0  0  0
   35.1846  -20.5492   39.4784 C   0  0  0  0  0  0  0  0  0  0  0  0
   35.5409  -19.6676   38.4917 C   0  0  0  0  0  0  0  0  0  0  0  0
   35.6045  -22.4397   40.9385 N   0  0  0  0  0  0  0  0  0  0  0  0
   34.9056  -23.6309   40.7564 C   0  0  0  0  0  0  0  0  0  0  0  0
   34.4912  -24.4807   41.9493 C   0  0  0  0  0  0  0  0  0  0  0  0
   34.5828  -24.0667   39.6348 O   0  0  0  0  0  0  0  0  0  0  0  0
   35.8149  -22.1853   41.9560 H   0  0  0  0  0  0  0  0  0  0  0  0
 19 20  1  0  0  0
 20 21  1  0  0  0
 21 22  1  0  0  0
 22 23  1  0  0  0
 23 24  1  0  0  0
 24 25  1  0  0  0
 23 13  1  0  0  0
 13 14  2  0  0  0
 14 15  1  0  0  0
 15 16  2  0  0  0
 16 11  1  0  0  0
 11  1  1  0  0  0
  1  2  2  0  0  0
  2  3  1  0  0  0
  3 26  1  0  0  0
 26 27  1  0  0  0
 27 28  2  0  0  0
 28 29  1  0  0  0
 29 30  2  0  0  0
 30 33  1  0  0  0
 33 34  1  0  0  0
 34 35  1  0  0  0
 34 36  2  0  0  0
 30 31  1  0  0  0
 31 32  2  0  0  0
  3  4  2  0  0  0
  4  5  1  0  0  0
  5  6  2  0  0  0
  6  7  1  0  0  0
  7  8  2  0  0  0
  8  9  1  0  0  0
  9 10  2  0  0  0
 16 17  1  0  0  0
 17 18  2  0  0  0
 25 20  1  0  0  0
 18 13  1  0  0  0
 10  1  1  0  0  0
 32 27  1  0  0  0
  9  4  1  0  0  0
 11 12  1  0  0  0
 33 37  1  0  0  0
M  END
> <minimizedAffinity>
-7.69873

> <CNNscore>
0.5314766765

> <CNNaffinity>
5.9696273804

> <CNN_VS>
3.1727178097

> <CNNaffinity_variance>
0.4449402690

$$$$
[H]c1c([H])c(N([H])C(=O)C([H])([H])[H])c([H])c([H])c1Sc1nc(N([H])c2c([H])c([H])c(N3C([H])([H])C([H])([H])N(C([H])([H])[H])C([H])([H])C3([H])[H])c([H])c2[H])nc2c([H])c([H])c([H])c([H])c12


 37 41  0  0  0  0  0  0  0  0999 V2000
   33.7332  -17.4254   35.1500 C   0  0  0  0  0  0  0  0  0  0  0  0
   34.6175  -18.2763   35.7289 N   0  0  0  0  0  0  0  0  0  0  0  0
   35.6527  -17.9001   36.4884 C   0  0  0  0  0  0  0  0  0  0  0  0
   35.8639  -16.5689   36.7185 C   0  0  0  0  0  0  0  0  0  0  0  0
   36.9192  -16.1520   37.4945 C   0  0  0  0  0  0  0  0  0  0  0  0
   37.1230  -14.8101   37.7195 C   0  0  0  0  0  0  0  0  0  0  0  0
   36.2462  -13.9128   37.1486 C   0  0  0  0  0  0  0  0  0  0  0  0
   35.1892  -14.3439   36.3706 C   0  0  0  0  0  0  0  0  0  0  0  0
   34.9650  -15.6881   36.1312 C   0  0  0  0  0  0  0  0  0  0  0  0
   33.9507  -16.1318   35.3823 N   0  0  0  0  0  0  0  0  0  0  0  0
   32.7108  -17.9884   34.3705 N   0  0  0  0  0  0  0  0  0  0  0  0
   32.4251  -17.4345   33.4852 H   0  0  0  0  0  0  0  0  0  0  0  0
   30.4922  -21.5213   35.0836 C   0  0  0  0  0  0  0  0  0  0  0  0
   31.7610  -21.5920   34.5906 C   0  0  0  0  0  0  0  0  0  0  0  0
   32.5099  -20.4300   34.3399 C   0  0  0  0  0  0  0  0  0  0  0  0
   32.0062  -19.1831   34.5772 C   0  0  0  0  0  0  0  0  0  0  0  0
   30.7014  -19.1351   35.0831 C   0  0  0  0  0  0  0  0  0  0  0  0
   29.9500  -20.2606   35.3356 C   0  0  0  0  0  0  0  0  0  0  0  0
   28.0921  -26.1038   36.3177 C   0  0  0  0  0  0  0  0  0  0  0  0
   28.5674  -24.8030   36.7420 N   0  0  0  0  0  0  0  0  0  0  0  0
   27.7311  -23.7288   36.4145 C   0  0  0  0  0  0  0  0  0  0  0  0
   28.3101  -22.5042   35.8332 C   0  0  0  0  0  0  0  0  0  0  0  0
   29.6677  -22.6310   35.3617 N   0  0  0  0  0  0  0  0  0  0  0  0
   30.1494  -23.9770   35.1822 C   0  0  0  0  0  0  0  0  0  0  0  0
   29.9759  -24.6397   36.5479 C   0  0  0  0  0  0  0  0  0  0  0  0
   36.7737  -19.1155   37.2132 S   0  0  0  0  0  0  0  0  0  0  0  0
   38.3870  -18.9802   36.4558 C   0  0  0  0  0  0  0  0  0  0  0  0
   38.5076  -18.8002   35.1027 C   0  0  0  0  0  0  0  0  0  0  0  0
   39.7683  -18.6920   34.4891 C   0  0  0  0  0  0  0  0  0  0  0  0
   40.9334  -18.7602   35.2022 C   0  0  0  0  0  0  0  0  0  0  0  0
   40.7768  -18.9453   36.5917 C   0  0  0  0  0  0  0  0  0  0  0  0
   39.5457  -19.0498   37.1841 C   0  0  0  0  0  0  0  0  0  0  0  0
   42.2317  -18.6803   34.6695 N   0  0  0  0  0  0  0  0  0  0  0  0
   43.1481  -17.6475   34.8547 C   0  0  0  0  0  0  0  0  0  0  0  0
   44.5274  -17.7061   34.2137 C   0  0  0  0  0  0  0  0  0  0  0  0
   42.9045  -16.6353   35.5390 O   0  0  0  0  0  0  0  0  0  0  0  0
   42.5730  -19.4884   34.0573 H   0  0  0  0  0  0  0  0  0  0  0  0
 19 20  1  0  0  0
 20 21  1  0  0  0
 21 22  1  0  0  0
 22 23  1  0  0  0
 23 24  1  0  0  0
 24 25  1  0  0  0
 23 13  1  0  0  0
 13 14  2  0  0  0
 14 15  1  0  0  0
 15 16  2  0  0  0
 16 11  1  0  0  0
 11  1  1  0  0  0
  1  2  2  0  0  0
  2  3  1  0  0  0
  3 26  1  0  0  0
 26 27  1  0  0  0
 27 28  2  0  0  0
 28 29  1  0  0  0
 29 30  2  0  0  0
 30 33  1  0  0  0
 33 34  1  0  0  0
 34 35  1  0  0  0
 34 36  2  0  0  0
 30 31  1  0  0  0
 31 32  2  0  0  0
  3  4  2  0  0  0
  4  5  1  0  0  0
  5  6  2  0  0  0
  6  7  1  0  0  0
  7  8  2  0  0  0
  8  9  1  0  0  0
  9 10  2  0  0  0
 16 17  1  0  0  0
 17 18  2  0  0  0
 25 20  1  0  0  0
 18 13  1  0  0  0
 10  1  1  0  0  0
 32 27  1  0  0  0
  9  4  1  0  0  0
 11 12  1  0  0  0
 33 37  1  0  0  0
M  END
> <minimizedAffinity>
-8.24504

> <CNNscore>
0.5096946955

> <CNNaffinity>
6.1316003799

> <CNN_VS>
3.1252441406

> <CNNaffinity_variance>
0.2546953559

$$$$
[H]c1c([H])c(N([H])C(=O)C([H])([H])[H])c([H])c([H])c1Sc1nc(N([H])c2c([H])c([H])c(N3C([H])([H])C([H])([H])N(C([H])([H])[H])C([H])([H])C3([H])[H])c([H])c2[H])nc2c([H])c([H])c([H])c([H])c12


 37 41  0  0  0  0  0  0  0  0999 V2000
   39.3017  -21.4780   39.3841 C   0  0  0  0  0  0  0  0  0  0  0  0
   39.0276  -21.7341   40.6881 N   0  0  0  0  0  0  0  0  0  0  0  0
   39.7085  -21.2304   41.7238 C   0  0  0  0  0  0  0  0  0  0  0  0
   40.7629  -20.3929   41.4867 C   0  0  0  0  0  0  0  0  0  0  0  0
   41.4815  -19.8600   42.5304 C   0  0  0  0  0  0  0  0  0  0  0  0
   42.5409  -19.0186   42.2809 C   0  0  0  0  0  0  0  0  0  0  0  0
   42.8519  -18.7334   40.9686 C   0  0  0  0  0  0  0  0  0  0  0  0
   42.1224  -19.2750   39.9282 C   0  0  0  0  0  0  0  0  0  0  0  0
   41.0531  -20.1232   40.1556 C   0  0  0  0  0  0  0  0  0  0  0  0
   40.3313  -20.6608   39.1675 N   0  0  0  0  0  0  0  0  0  0  0  0
   38.4948  -22.1019   38.4199 N   0  0  0  0  0  0  0  0  0  0  0  0
   38.8751  -23.0265   38.0047 H   0  0  0  0  0  0  0  0  0  0  0  0
   34.7070  -21.0105   36.8792 C   0  0  0  0  0  0  0  0  0  0  0  0
   35.6864  -20.0743   37.0277 C   0  0  0  0  0  0  0  0  0  0  0  0
   36.9472  -20.4160   37.5450 C   0  0  0  0  0  0  0  0  0  0  0  0
   37.2497  -21.6936   37.9202 C   0  0  0  0  0  0  0  0  0  0  0  0
   36.2285  -22.6380   37.7589 C   0  0  0  0  0  0  0  0  0  0  0  0
   34.9863  -22.3250   37.2547 C   0  0  0  0  0  0  0  0  0  0  0  0
   30.1639  -19.3611   34.6603 C   0  0  0  0  0  0  0  0  0  0  0  0
   31.3861  -20.1307   34.5506 N   0  0  0  0  0  0  0  0  0  0  0  0
   31.3572  -21.3841   35.1740 C   0  0  0  0  0  0  0  0  0  0  0  0
   32.4925  -21.8079   36.0132 C   0  0  0  0  0  0  0  0  0  0  0  0
   33.4149  -20.7587   36.3735 N   0  0  0  0  0  0  0  0  0  0  0  0
   32.9395  -19.4111   36.1898 C   0  0  0  0  0  0  0  0  0  0  0  0
   32.5601  -19.3283   34.7121 C   0  0  0  0  0  0  0  0  0  0  0  0
   39.2614  -21.6359   43.4253 S   0  0  0  0  0  0  0  0  0  0  0  0
   37.5162  -21.3455   43.6796 C   0  0  0  0  0  0  0  0  0  0  0  0
   37.0361  -20.0695   43.8185 C   0  0  0  0  0  0  0  0  0  0  0  0
   35.6666  -19.8216   44.0197 C   0  0  0  0  0  0  0  0  0  0  0  0
   34.7463  -20.8311   44.0876 C   0  0  0  0  0  0  0  0  0  0  0  0
   35.2704  -22.1323   43.9408 C   0  0  0  0  0  0  0  0  0  0  0  0
   36.6060  -22.3677   43.7447 C   0  0  0  0  0  0  0  0  0  0  0  0
   33.3660  -20.6750   44.3035 N   0  0  0  0  0  0  0  0  0  0  0  0
   32.4233  -20.2205   43.3840 C   0  0  0  0  0  0  0  0  0  0  0  0
   30.9539  -20.1103   43.7654 C   0  0  0  0  0  0  0  0  0  0  0  0
   32.7140  -19.8837   42.2204 O   0  0  0  0  0  0  0  0  0  0  0  0
   32.9775  -20.9293   45.2672 H   0  0  0  0  0  0  0  0  0  0  0  0
 19 20  1  0  0  0
 20 21  1  0  0  0
 21 22  1  0  0  0
 22 23  1  0  0  0
 23 24  1  0  0  0
 24 25  1  0  0  0
 23 13  1  0  0  0
 13 14  2  0  0  0
 14 15  1  0  0  0
 15 16  2  0  0  0
 16 11  1  0  0  0
 11  1  1  0  0  0
  1  2  2  0  0  0
  2  3  1  0  0  0
  3 26  1  0  0  0
 26 27  1  0  0  0
 27 28  2  0  0  0
 28 29  1  0  0  0
 29 30  2  0  0  0
 30 33  1  0  0  0
 33 34  1  0  0  0
 34 35  1  0  0  0
 34 36  2  0  0  0
 30 31  1  0  0  0
 31 32  2  0  0  0
  3  4  2  0  0  0
  4  5  1  0  0  0
  5  6  2  0  0  0
  6  7  1  0  0  0
  7  8  2  0  0  0
  8  9  1  0  0  0
  9 10  2  0  0  0
 16 17  1  0  0  0
 17 18  2  0  0  0
 25 20  1  0  0  0
 18 13  1  0  0  0
 10  1  1  0  0  0
 32 27  1  0  0  0
  9  4  1  0  0  0
 11 12  1  0  0  0
 33 37  1  0  0  0
M  END
> <minimizedAffinity>
-5.50596

> <CNNscore>
0.3692761064

> <CNNaffinity>
5.4117279053

> <CNN_VS>
1.9984217882

> <CNNaffinity_variance>
0.3581698537

$$$$
[H]c1c([H])c(N([H])C(=O)C([H])([H])[H])c([H])c([H])c1Sc1nc(N([H])c2c([H])c([H])c(N3C([H])([H])C([H])([H])N(C([H])([H])[H])C([H])([H])C3([H])[H])c([H])c2[H])nc2c([H])c([H])c([H])c([H])c12


 37 41  0  0  0  0  0  0  0  0999 V2000
   34.7006  -18.6505   34.5228 C   0  0  0  0  0  0  0  0  0  0  0  0
   35.0508  -17.6663   35.3887 N   0  0  0  0  0  0  0  0  0  0  0  0
   36.2825  -17.4832   35.8779 C   0  0  0  0  0  0  0  0  0  0  0  0
   37.2853  -18.3316   35.4981 C   0  0  0  0  0  0  0  0  0  0  0  0
   38.5608  -18.1688   35.9842 C   0  0  0  0  0  0  0  0  0  0  0  0
   39.5626  -19.0282   35.5960 C   0  0  0  0  0  0  0  0  0  0  0  0
   39.2475  -20.0421   34.7170 C   0  0  0  0  0  0  0  0  0  0  0  0
   37.9619  -20.1956   34.2354 C   0  0  0  0  0  0  0  0  0  0  0  0
   36.9391  -19.3432   34.6119 C   0  0  0  0  0  0  0  0  0  0  0  0
   35.6871  -19.4697   34.1613 N   0  0  0  0  0  0  0  0  0  0  0  0
   33.3576  -18.7081   34.1191 N   0  0  0  0  0  0  0  0  0  0  0  0
   33.0874  -18.0937   33.2697 H   0  0  0  0  0  0  0  0  0  0  0  0
   30.1053  -20.8690   35.7515 C   0  0  0  0  0  0  0  0  0  0  0  0
   31.3833  -21.3074   35.9308 C   0  0  0  0  0  0  0  0  0  0  0  0
   32.4751  -20.6079   35.3897 C   0  0  0  0  0  0  0  0  0  0  0  0
   32.3090  -19.4631   34.6640 C   0  0  0  0  0  0  0  0  0  0  0  0
   30.9879  -19.0321   34.4927 C   0  0  0  0  0  0  0  0  0  0  0  0
   29.9039  -19.7020   35.0137 C   0  0  0  0  0  0  0  0  0  0  0  0
   26.1255  -23.9821   37.4109 C   0  0  0  0  0  0  0  0  0  0  0  0
   27.3634  -23.2919   37.7101 N   0  0  0  0  0  0  0  0  0  0  0  0
   27.2327  -21.9217   37.9669 C   0  0  0  0  0  0  0  0  0  0  0  0
   28.1640  -20.9691   37.3361 C   0  0  0  0  0  0  0  0  0  0  0  0
   28.9518  -21.5062   36.2535 N   0  0  0  0  0  0  0  0  0  0  0  0
   28.4902  -22.7521   35.6960 C   0  0  0  0  0  0  0  0  0  0  0  0
   28.4478  -23.7180   36.8791 C   0  0  0  0  0  0  0  0  0  0  0  0
   36.6438  -16.1395   37.0281 S   0  0  0  0  0  0  0  0  0  0  0  0
   35.3509  -14.9080   36.9476 C   0  0  0  0  0  0  0  0  0  0  0  0
   35.4071  -13.7876   37.7348 C   0  0  0  0  0  0  0  0  0  0  0  0
   34.3991  -12.8082   37.6855 C   0  0  0  0  0  0  0  0  0  0  0  0
   33.3164  -12.9188   36.8571 C   0  0  0  0  0  0  0  0  0  0  0  0
   33.2870  -14.0817   36.0596 C   0  0  0  0  0  0  0  0  0  0  0  0
   34.2723  -15.0326   36.1117 C   0  0  0  0  0  0  0  0  0  0  0  0
   32.2575  -11.9997   36.7575 N   0  0  0  0  0  0  0  0  0  0  0  0
   31.1793  -11.8705   37.6300 C   0  0  0  0  0  0  0  0  0  0  0  0
   30.1069  -10.8168   37.3919 C   0  0  0  0  0  0  0  0  0  0  0  0
   31.0265  -12.5901   38.6355 O   0  0  0  0  0  0  0  0  0  0  0  0
   32.2626  -11.3165   35.9344 H   0  0  0  0  0  0  0  0  0  0  0  0
 19 20  1  0  0  0
 20 21  1  0  0  0
 21 22  1  0  0  0
 22 23  1  0  0  0
 23 24  1  0  0  0
 24 25  1  0  0  0
 23 13  1  0  0  0
 13 14  2  0  0  0
 14 15  1  0  0  0
 15 16  2  0  0  0
 16 11  1  0  0  0
 11  1  1  0  0  0
  1  2  2  0  0  0
  2  3  1  0  0  0
  3 26  1  0  0  0
 26 27  1  0  0  0
 27 28  2  0  0  0
 28 29  1  0  0  0
 29 30  2  0  0  0
 30 33  1  0  0  0
 33 34  1  0  0  0
 34 35  1  0  0  0
 34 36  2  0  0  0
 30 31  1  0  0  0
 31 32  2  0  0  0
  3  4  2  0  0  0
  4  5  1  0  0  0
  5  6  2  0  0  0
  6  7  1  0  0  0
  7  8  2  0  0  0
  8  9  1  0  0  0
  9 10  2  0  0  0
 16 17  1  0  0  0
 17 18  2  0  0  0
 25 20  1  0  0  0
 18 13  1  0  0  0
 10  1  1  0  0  0
 32 27  1  0  0  0
  9  4  1  0  0  0
 11 12  1  0  0  0
 33 37  1  0  0  0
M  END
> <minimizedAffinity>
-8.61892

> <CNNscore>
0.3596990407

> <CNNaffinity>
6.4117584229

> <CNN_VS>
2.3063032627

> <CNNaffinity_variance>
0.3798434734

$$$$
[H]c1c([H])c(N([H])C(=O)C([H])([H])[H])c([H])c([H])c1Sc1nc(N([H])c2c([H])c([H])c(N3C([H])([H])C([H])([H])N(C([H])([H])[H])C([H])([H])C3([H])[H])c([H])c2[H])nc2c([H])c([H])c([H])c([H])c12


 37 41  0  0  0  0  0  0  0  0999 V2000
   34.5834  -15.7268   35.9630 C   0  0  0  0  0  0  0  0  0  0  0  0
   35.7737  -16.2913   35.6378 N   0  0  0  0  0  0  0  0  0  0  0  0
   35.9155  -17.4651   35.0117 C   0  0  0  0  0  0  0  0  0  0  0  0
   34.8005  -18.1737   34.6594 C   0  0  0  0  0  0  0  0  0  0  0  0
   34.9145  -19.3828   34.0154 C   0  0  0  0  0  0  0  0  0  0  0  0
   33.7862  -20.0880   33.6656 C   0  0  0  0  0  0  0  0  0  0  0  0
   32.5570  -19.5484   33.9786 C   0  0  0  0  0  0  0  0  0  0  0  0
   32.4552  -18.3324   34.6260 C   0  0  0  0  0  0  0  0  0  0  0  0
   33.5761  -17.6060   34.9870 C   0  0  0  0  0  0  0  0  0  0  0  0
   33.5055  -16.4278   35.6141 N   0  0  0  0  0  0  0  0  0  0  0  0
   34.6148  -14.4941   36.6333 N   0  0  0  0  0  0  0  0  0  0  0  0
   35.5956  -14.0706   36.8084 H   0  0  0  0  0  0  0  0  0  0  0  0
   31.3713  -12.1036   37.9282 C   0  0  0  0  0  0  0  0  0  0  0  0
   32.1703  -12.7316   38.8365 C   0  0  0  0  0  0  0  0  0  0  0  0
   33.2466  -13.5357   38.4255 C   0  0  0  0  0  0  0  0  0  0  0  0
   33.5420  -13.7244   37.1057 C   0  0  0  0  0  0  0  0  0  0  0  0
   32.7079  -13.0698   36.1912 C   0  0  0  0  0  0  0  0  0  0  0  0
   31.6481  -12.2780   36.5719 C   0  0  0  0  0  0  0  0  0  0  0  0
   27.0322   -9.5908   39.7007 C   0  0  0  0  0  0  0  0  0  0  0  0
   28.4639   -9.7949   39.7834 N   0  0  0  0  0  0  0  0  0  0  0  0
   29.2164   -9.1287   38.8084 C   0  0  0  0  0  0  0  0  0  0  0  0
   30.2877   -9.8481   38.0959 C   0  0  0  0  0  0  0  0  0  0  0  0
   30.2703  -11.2826   38.2481 N   0  0  0  0  0  0  0  0  0  0  0  0
   29.0443  -11.8482   38.7514 C   0  0  0  0  0  0  0  0  0  0  0  0
   28.8117  -11.1489   40.0898 C   0  0  0  0  0  0  0  0  0  0  0  0
   37.5490  -18.1293   34.6247 S   0  0  0  0  0  0  0  0  0  0  0  0
   38.1532  -19.0947   36.0023 C   0  0  0  0  0  0  0  0  0  0  0  0
   37.2818  -19.6116   36.9251 C   0  0  0  0  0  0  0  0  0  0  0  0
   37.7386  -20.3731   38.0156 C   0  0  0  0  0  0  0  0  0  0  0  0
   39.0658  -20.6372   38.2140 C   0  0  0  0  0  0  0  0  0  0  0  0
   39.9374  -20.0926   37.2481 C   0  0  0  0  0  0  0  0  0  0  0  0
   39.4864  -19.3515   36.1874 C   0  0  0  0  0  0  0  0  0  0  0  0
   39.6093  -21.3712   39.2826 N   0  0  0  0  0  0  0  0  0  0  0  0
   40.5487  -20.9251   40.2096 C   0  0  0  0  0  0  0  0  0  0  0  0
   41.0406  -21.8405   41.3217 C   0  0  0  0  0  0  0  0  0  0  0  0
   41.0344  -19.7780   40.1891 O   0  0  0  0  0  0  0  0  0  0  0  0
   39.2780  -22.3793   39.4181 H   0  0  0  0  0  0  0  0  0  0  0  0
 19 20  1  0  0  0
 20 21  1  0  0  0
 21 22  1  0  0  0
 22 23  1  0  0  0
 23 24  1  0  0  0
 24 25  1  0  0  0
 23 13  1  0  0  0
 13 14  2  0  0  0
 14 15  1  0  0  0
 15 16  2  0  0  0
 16 11  1  0  0  0
 11  1  1  0  0  0
  1  2  2  0  0  0
  2  3  1  0  0  0
  3 26  1  0  0  0
 26 27  1  0  0  0
 27 28  2  0  0  0
 28 29  1  0  0  0
 29 30  2  0  0  0
 30 33  1  0  0  0
 33 34  1  0  0  0
 34 35  1  0  0  0
 34 36  2  0  0  0
 30 31  1  0  0  0
 31 32  2  0  0  0
  3  4  2  0  0  0
  4  5  1  0  0  0
  5  6  2  0  0  0
  6  7  1  0  0  0
  7  8  2  0  0  0
  8  9  1  0  0  0
  9 10  2  0  0  0
 16 17  1  0  0  0
 17 18  2  0  0  0
 25 20  1  0  0  0
 18 13  1  0  0  0
 10  1  1  0  0  0
 32 27  1  0  0  0
  9  4  1  0  0  0
 11 12  1  0  0  0
 33 37  1  0  0  0
M  END
> <minimizedAffinity>
-7.36580

> <CNNscore>
0.3146669567

> <CNNaffinity>
6.2202262878

> <CNN_VS>
1.9572997093

> <CNNaffinity_variance>
0.3176520169

$$$$
[H]c1c([H])c(N([H])C(=O)C([H])([H])[H])c([H])c([H])c1Sc1nc(N([H])c2c([H])c([H])c(N3C([H])([H])C([H])([H])N(C([H])([H])[H])C([H])([H])C3([H])[H])c([H])c2[H])nc2c([H])c([H])c([H])c([H])c12


 37 41  0  0  0  0  0  0  0  0999 V2000
   33.7048  -21.2909   37.6481 C   0  0  0  0  0  0  0  0  0  0  0  0
   33.7355  -20.3898   36.6341 N   0  0  0  0  0  0  0  0  0  0  0  0
   32.6883  -20.0711   35.8648 C   0  0  0  0  0  0  0  0  0  0  0  0
   31.4843  -20.6789   36.0897 C   0  0  0  0  0  0  0  0  0  0  0  0
   30.3905  -20.3723   35.3156 C   0  0  0  0  0  0  0  0  0  0  0  0
   29.1837  -20.9899   35.5499 C   0  0  0  0  0  0  0  0  0  0  0  0
   29.1110  -21.9124   36.5716 C   0  0  0  0  0  0  0  0  0  0  0  0
   30.2171  -22.2122   37.3427 C   0  0  0  0  0  0  0  0  0  0  0  0
   31.4404  -21.6034   37.1251 C   0  0  0  0  0  0  0  0  0  0  0  0
   32.5258  -21.8755   37.8560 N   0  0  0  0  0  0  0  0  0  0  0  0
   34.9005  -21.5175   38.3473 N   0  0  0  0  0  0  0  0  0  0  0  0
   34.8153  -22.0760   39.2707 H   0  0  0  0  0  0  0  0  0  0  0  0
   38.7759  -20.2064   37.2635 C   0  0  0  0  0  0  0  0  0  0  0  0
   38.5555  -21.5118   37.5877 C   0  0  0  0  0  0  0  0  0  0  0  0
   37.2778  -21.9640   37.9577 C   0  0  0  0  0  0  0  0  0  0  0  0
   36.2031  -21.1231   38.0092 C   0  0  0  0  0  0  0  0  0  0  0  0
   36.4532  -19.7872   37.6723 C   0  0  0  0  0  0  0  0  0  0  0  0
   37.6968  -19.3230   37.3074 C   0  0  0  0  0  0  0  0  0  0  0  0
   43.7949  -18.6642   36.4182 C   0  0  0  0  0  0  0  0  0  0  0  0
   42.7007  -19.5524   36.0834 N   0  0  0  0  0  0  0  0  0  0  0  0
   41.7287  -19.0052   35.2371 C   0  0  0  0  0  0  0  0  0  0  0  0
   40.3004  -19.1898   35.5512 C   0  0  0  0  0  0  0  0  0  0  0  0
   40.0214  -19.6643   36.8847 N   0  0  0  0  0  0  0  0  0  0  0  0
   41.1009  -19.5522   37.8323 C   0  0  0  0  0  0  0  0  0  0  0  0
   42.2568  -20.3273   37.2018 C   0  0  0  0  0  0  0  0  0  0  0  0
   32.8357  -18.8561   34.5378 S   0  0  0  0  0  0  0  0  0  0  0  0
   34.0208  -17.5988   34.9954 C   0  0  0  0  0  0  0  0  0  0  0  0
   35.3591  -17.7891   34.7703 C   0  0  0  0  0  0  0  0  0  0  0  0
   36.3062  -16.8115   35.1240 C   0  0  0  0  0  0  0  0  0  0  0  0
   35.9474  -15.6276   35.7074 C   0  0  0  0  0  0  0  0  0  0  0  0
   34.5639  -15.4609   35.9257 C   0  0  0  0  0  0  0  0  0  0  0  0
   33.6457  -16.4170   35.5788 C   0  0  0  0  0  0  0  0  0  0  0  0
   36.8264  -14.6066   36.1083 N   0  0  0  0  0  0  0  0  0  0  0  0
   37.2831  -14.3578   37.4006 C   0  0  0  0  0  0  0  0  0  0  0  0
   38.2438  -13.2105   37.6796 C   0  0  0  0  0  0  0  0  0  0  0  0
   36.9439  -15.0402   38.3862 O   0  0  0  0  0  0  0  0  0  0  0  0
   37.1980  -13.9416   35.3573 H   0  0  0  0  0  0  0  0  0  0  0  0
 19 20  1  0  0  0
 20 21  1  0  0  0
 21 22  1  0  0  0
 22 23  1  0  0  0
 23 24  1  0  0  0
 24 25  1  0  0  0
 23 13  1  0  0  0
 13 14  2  0  0  0
 14 15  1  0  0  0
 15 16  2  0  0  0
 16 11  1  0  0  0
 11  1  1  0  0  0
  1  2  2  0  0  0
  2  3  1  0  0  0
  3 26  1  0  0  0
 26 27  1  0  0  0
 27 28  2  0  0  0
 28 29  1  0  0  0
 29 30  2  0  0  0
 30 33  1  0  0  0
 33 34  1  0  0  0
 34 35  1  0  0  0
 34 36  2  0  0  0
 30 31  1  0  0  0
 31 32  2  0  0  0
  3  4  2  0  0  0
  4  5  1  0  0  0
  5  6  2  0  0  0
  6  7  1  0  0  0
  7  8  2  0  0  0
  8  9  1  0  0  0
  9 10  2  0  0  0
 16 17  1  0  0  0
 17 18  2  0  0  0
 25 20  1  0  0  0
 18 13  1  0  0  0
 10  1  1  0  0  0
 32 27  1  0  0  0
  9  4  1  0  0  0
 11 12  1  0  0  0
 33 37  1  0  0  0
M  END
> <minimizedAffinity>
-7.55459

> <CNNscore>
0.2827153504

> <CNNaffinity>
5.9362587929

> <CNN_VS>
1.6782715321

> <CNNaffinity_variance>
0.6216543913

$$$$
[H]c1c([H])c(C([H])([H])[H])c(C(F)(F)F)c([H])c1-c1nc(C2([H])C([H])([H])C2([H])[H])c2n1C([H])([H])[C@]([H])(C([H])([H])[H])OC([H])([H])C2([H])[H]


 25 28  0  0  0  0  0  0  0  0999 V2000
   36.1503  -19.4954   37.9160 C   0  0  0  0  0  0  0  0  0  0  0  0
   36.5639  -19.9562   36.5232 C   0  0  0  0  0  0  0  0  0  0  0  0
   35.2719  -19.9278   35.6732 C   0  0  0  0  0  0  0  0  0  0  0  0
   34.7426  -18.5848   35.6763 N   0  0  0  0  0  0  0  0  0  0  0  0
   35.4492  -17.4620   35.7263 C   0  0  0  0  0  0  0  0  0  0  0  0
   36.8758  -17.1459   35.6514 C   0  0  0  0  0  0  0  0  0  0  0  0
   37.8401  -18.0582   36.3035 C   0  0  0  0  0  0  0  0  0  0  0  0
   37.6363  -19.3852   36.0056 O   0  0  0  0  0  0  0  0  0  0  0  0
   34.4775  -16.4274   35.8782 C   0  0  0  0  0  0  0  0  0  0  0  0
   33.3225  -17.0229   35.8981 N   0  0  0  0  0  0  0  0  0  0  0  0
   33.4154  -18.3967   35.7640 C   0  0  0  0  0  0  0  0  0  0  0  0
   32.2337  -19.1911   35.6528 C   0  0  0  0  0  0  0  0  0  0  0  0
   31.1048  -18.9250   34.9528 C   0  0  0  0  0  0  0  0  0  0  0  0
   29.9784  -19.7713   34.9318 C   0  0  0  0  0  0  0  0  0  0  0  0
   29.9581  -20.9394   35.6385 C   0  0  0  0  0  0  0  0  0  0  0  0
   28.8259  -21.8556   35.6178 C   0  0  0  0  0  0  0  0  0  0  0  0
   31.0890  -21.2528   36.3727 C   0  0  0  0  0  0  0  0  0  0  0  0
   32.1728  -20.4124   36.3745 C   0  0  0  0  0  0  0  0  0  0  0  0
   31.0748  -22.4818   37.1809 C   0  0  0  0  0  0  0  0  0  0  0  0
   31.0142  -23.5556   36.3006 F   0  0  0  0  0  0  0  0  0  0  0  0
   29.9583  -22.5348   37.9709 F   0  0  0  0  0  0  0  0  0  0  0  0
   32.2489  -22.6792   37.8809 F   0  0  0  0  0  0  0  0  0  0  0  0
   34.9057  -15.0098   35.8646 C   0  0  0  0  0  0  0  0  0  0  0  0
   35.2175  -14.1699   37.0114 C   0  0  0  0  0  0  0  0  0  0  0  0
   33.8155  -14.1542   36.5862 C   0  0  0  0  0  0  0  0  0  0  0  0
  1  2  1  0  0  0
  2  3  1  0  0  0
  3  4  1  0  0  0
  4  5  1  0  0  0
  5  6  1  0  0  0
  6  7  1  0  0  0
  7  8  1  0  0  0
  5  9  2  0  0  0
  9 10  1  0  0  0
 10 11  2  0  0  0
 11 12  1  0  0  0
 12 13  2  0  0  0
 13 14  1  0  0  0
 14 15  2  0  0  0
 15 16  1  0  0  0
 15 17  1  0  0  0
 17 18  2  0  0  0
 17 19  1  0  0  0
 19 20  1  0  0  0
 19 21  1  0  0  0
 19 22  1  0  0  0
  9 23  1  0  0  0
 23 24  1  0  0  0
 24 25  1  0  0  0
  8  2  1  0  0  0
 18 12  1  0  0  0
 25 23  1  0  0  0
 11  4  1  0  0  0
M  END
> <minimizedAffinity>
-6.15846

> <CNNscore>
0.5320653915

> <CNNaffinity>
5.0441222191

> <CNN_VS>
2.6838028431

> <CNNaffinity_variance>
0.4031345248

$$$$
[H]c1c([H])c(C([H])([H])[H])c(C(F)(F)F)c([H])c1-c1nc(C2([H])C([H])([H])C2([H])[H])c2n1C([H])([H])[C@]([H])(C([H])([H])[H])OC([H])([H])C2([H])[H]


 25 28  0  0  0  0  0  0  0  0999 V2000
   31.0839  -19.0760   35.4935 C   0  0  0  0  0  0  0  0  0  0  0  0
   31.7741  -19.0870   34.1346 C   0  0  0  0  0  0  0  0  0  0  0  0
   32.9682  -18.1123   34.2647 C   0  0  0  0  0  0  0  0  0  0  0  0
   33.8310  -18.5730   35.3263 N   0  0  0  0  0  0  0  0  0  0  0  0
   34.0524  -19.8372   35.6660 C   0  0  0  0  0  0  0  0  0  0  0  0
   33.6890  -21.1312   35.0882 C   0  0  0  0  0  0  0  0  0  0  0  0
   32.3515  -21.2847   34.4757 C   0  0  0  0  0  0  0  0  0  0  0  0
   32.0206  -20.2720   33.6062 O   0  0  0  0  0  0  0  0  0  0  0  0
   34.8284  -19.7617   36.8617 C   0  0  0  0  0  0  0  0  0  0  0  0
   34.9894  -18.4949   37.1032 N   0  0  0  0  0  0  0  0  0  0  0  0
   34.3891  -17.6799   36.1602 C   0  0  0  0  0  0  0  0  0  0  0  0
   34.5660  -16.2637   36.2148 C   0  0  0  0  0  0  0  0  0  0  0  0
   33.7171  -15.2938   35.7975 C   0  0  0  0  0  0  0  0  0  0  0  0
   34.0032  -13.9163   35.8745 C   0  0  0  0  0  0  0  0  0  0  0  0
   35.1872  -13.4672   36.3853 C   0  0  0  0  0  0  0  0  0  0  0  0
   35.5072  -12.0518   36.5105 C   0  0  0  0  0  0  0  0  0  0  0  0
   36.0890  -14.4222   36.8220 C   0  0  0  0  0  0  0  0  0  0  0  0
   35.7851  -15.7569   36.7374 C   0  0  0  0  0  0  0  0  0  0  0  0
   37.3914  -13.9669   37.3323 C   0  0  0  0  0  0  0  0  0  0  0  0
   38.2008  -15.0893   37.4613 F   0  0  0  0  0  0  0  0  0  0  0  0
   37.2617  -13.4090   38.5754 F   0  0  0  0  0  0  0  0  0  0  0  0
   38.0669  -13.1588   36.4389 F   0  0  0  0  0  0  0  0  0  0  0  0
   35.3545  -21.0025   37.4755 C   0  0  0  0  0  0  0  0  0  0  0  0
   36.2056  -21.1150   38.6505 C   0  0  0  0  0  0  0  0  0  0  0  0
   36.9136  -20.9849   37.3744 C   0  0  0  0  0  0  0  0  0  0  0  0
  1  2  1  0  0  0
  2  3  1  0  0  0
  3  4  1  0  0  0
  4  5  1  0  0  0
  5  6  1  0  0  0
  6  7  1  0  0  0
  7  8  1  0  0  0
  5  9  2  0  0  0
  9 10  1  0  0  0
 10 11  2  0  0  0
 11 12  1  0  0  0
 12 13  2  0  0  0
 13 14  1  0  0  0
 14 15  2  0  0  0
 15 16  1  0  0  0
 15 17  1  0  0  0
 17 18  2  0  0  0
 17 19  1  0  0  0
 19 20  1  0  0  0
 19 21  1  0  0  0
 19 22  1  0  0  0
  9 23  1  0  0  0
 23 24  1  0  0  0
 24 25  1  0  0  0
  8  2  1  0  0  0
 18 12  1  0  0  0
 25 23  1  0  0  0
 11  4  1  0  0  0
M  END
> <minimizedAffinity>
-5.95488

> <CNNscore>
0.4943101704

> <CNNaffinity>
5.3354058266

> <CNN_VS>
2.6373453140

> <CNNaffinity_variance>
0.0928004459

$$$$
[H]c1c([H])c(C([H])([H])[H])c(C(F)(F)F)c([H])c1-c1nc(C2([H])C([H])([H])C2([H])[H])c2n1C([H])([H])[C@]([H])(C([H])([H])[H])OC([H])([H])C2([H])[H]


 25 28  0  0  0  0  0  0  0  0999 V2000
   32.2460  -21.6384   34.5567 C   0  0  0  0  0  0  0  0  0  0  0  0
   31.3769  -21.2385   35.7431 C   0  0  0  0  0  0  0  0  0  0  0  0
   32.3043  -21.2992   36.9796 C   0  0  0  0  0  0  0  0  0  0  0  0
   33.4109  -20.3950   36.7757 N   0  0  0  0  0  0  0  0  0  0  0  0
   33.3743  -19.2454   36.1127 C   0  0  0  0  0  0  0  0  0  0  0  0
   32.3069  -18.4383   35.5212 C   0  0  0  0  0  0  0  0  0  0  0  0
   31.1816  -19.1286   34.8544 C   0  0  0  0  0  0  0  0  0  0  0  0
   30.6407  -20.1518   35.5971 O   0  0  0  0  0  0  0  0  0  0  0  0
   34.7353  -18.8198   36.0475 C   0  0  0  0  0  0  0  0  0  0  0  0
   35.4244  -19.7322   36.6652 N   0  0  0  0  0  0  0  0  0  0  0  0
   34.6441  -20.7602   37.1635 C   0  0  0  0  0  0  0  0  0  0  0  0
   35.2306  -21.7857   37.9662 C   0  0  0  0  0  0  0  0  0  0  0  0
   35.0747  -22.0066   39.2937 C   0  0  0  0  0  0  0  0  0  0  0  0
   35.7253  -23.0394   39.9976 C   0  0  0  0  0  0  0  0  0  0  0  0
   36.5769  -23.8991   39.3651 C   0  0  0  0  0  0  0  0  0  0  0  0
   37.2437  -24.9976   40.0508 C   0  0  0  0  0  0  0  0  0  0  0  0
   36.7708  -23.7107   38.0075 C   0  0  0  0  0  0  0  0  0  0  0  0
   36.1239  -22.6986   37.3456 C   0  0  0  0  0  0  0  0  0  0  0  0
   37.7201  -24.5931   37.3116 C   0  0  0  0  0  0  0  0  0  0  0  0
   37.7950  -24.1622   35.9924 F   0  0  0  0  0  0  0  0  0  0  0  0
   37.2667  -25.8844   37.2968 F   0  0  0  0  0  0  0  0  0  0  0  0
   39.0122  -24.4734   37.7845 F   0  0  0  0  0  0  0  0  0  0  0  0
   35.0652  -17.5014   35.4593 C   0  0  0  0  0  0  0  0  0  0  0  0
   36.3759  -16.8750   35.3739 C   0  0  0  0  0  0  0  0  0  0  0  0
   35.6169  -16.5761   36.5909 C   0  0  0  0  0  0  0  0  0  0  0  0
  1  2  1  0  0  0
  2  3  1  0  0  0
  3  4  1  0  0  0
  4  5  1  0  0  0
  5  6  1  0  0  0
  6  7  1  0  0  0
  7  8  1  0  0  0
  5  9  2  0  0  0
  9 10  1  0  0  0
 10 11  2  0  0  0
 11 12  1  0  0  0
 12 13  2  0  0  0
 13 14  1  0  0  0
 14 15  2  0  0  0
 15 16  1  0  0  0
 15 17  1  0  0  0
 17 18  2  0  0  0
 17 19  1  0  0  0
 19 20  1  0  0  0
 19 21  1  0  0  0
 19 22  1  0  0  0
  9 23  1  0  0  0
 23 24  1  0  0  0
 24 25  1  0  0  0
  8  2  1  0  0  0
 18 12  1  0  0  0
 25 23  1  0  0  0
 11  4  1  0  0  0
M  END
> <minimizedAffinity>
-4.38552

> <CNNscore>
0.4395769835

> <CNNaffinity>
4.6953229904

> <CNN_VS>
2.0639560223

> <CNNaffinity_variance>
0.0673526675

$$$$
[H]c1c([H])c(C([H])([H])[H])c(C(F)(F)F)c([H])c1-c1nc(C2([H])C([H])([H])C2([H])[H])c2n1C([H])([H])[C@]([H])(C([H])([H])[H])OC([H])([H])C2([H])[H]


 25 28  0  0  0  0  0  0  0  0999 V2000
   34.9805  -19.1738   33.7407 C   0  0  0  0  0  0  0  0  0  0  0  0
   33.9059  -19.4364   34.7893 C   0  0  0  0  0  0  0  0  0  0  0  0
   34.6657  -19.6729   36.1157 C   0  0  0  0  0  0  0  0  0  0  0  0
   35.4549  -18.5018   36.4147 N   0  0  0  0  0  0  0  0  0  0  0  0
   35.1384  -17.2458   36.1237 C   0  0  0  0  0  0  0  0  0  0  0  0
   33.9457  -16.5881   35.5894 C   0  0  0  0  0  0  0  0  0  0  0  0
   33.1682  -17.2752   34.5354 C   0  0  0  0  0  0  0  0  0  0  0  0
   32.8912  -18.5918   34.8204 O   0  0  0  0  0  0  0  0  0  0  0  0
   36.3003  -16.4898   36.4642 C   0  0  0  0  0  0  0  0  0  0  0  0
   37.1652  -17.3487   36.9152 N   0  0  0  0  0  0  0  0  0  0  0  0
   36.6903  -18.6480   36.9216 C   0  0  0  0  0  0  0  0  0  0  0  0
   37.4729  -19.6982   37.4914 C   0  0  0  0  0  0  0  0  0  0  0  0
   38.6754  -20.1680   37.0808 C   0  0  0  0  0  0  0  0  0  0  0  0
   39.3541  -21.2340   37.7042 C   0  0  0  0  0  0  0  0  0  0  0  0
   38.8222  -21.8749   38.7862 C   0  0  0  0  0  0  0  0  0  0  0  0
   39.5065  -22.9594   39.4768 C   0  0  0  0  0  0  0  0  0  0  0  0
   37.5921  -21.4318   39.2406 C   0  0  0  0  0  0  0  0  0  0  0  0
   36.9532  -20.3908   38.6168 C   0  0  0  0  0  0  0  0  0  0  0  0
   36.9749  -22.1362   40.3749 C   0  0  0  0  0  0  0  0  0  0  0  0
   35.7105  -21.5905   40.5627 F   0  0  0  0  0  0  0  0  0  0  0  0
   37.6868  -21.9287   41.5254 F   0  0  0  0  0  0  0  0  0  0  0  0
   36.7360  -23.4712   40.1139 F   0  0  0  0  0  0  0  0  0  0  0  0
   36.2700  -15.0124   36.3670 C   0  0  0  0  0  0  0  0  0  0  0  0
   37.1615  -14.0654   37.0198 C   0  0  0  0  0  0  0  0  0  0  0  0
   35.9642  -14.4271   37.7830 C   0  0  0  0  0  0  0  0  0  0  0  0
  1  2  1  0  0  0
  2  3  1  0  0  0
  3  4  1  0  0  0
  4  5  1  0  0  0
  5  6  1  0  0  0
  6  7  1  0  0  0
  7  8  1  0  0  0
  5  9  2  0  0  0
  9 10  1  0  0  0
 10 11  2  0  0  0
 11 12  1  0  0  0
 12 13  2  0  0  0
 13 14  1  0  0  0
 14 15  2  0  0  0
 15 16  1  0  0  0
 15 17  1  0  0  0
 17 18  2  0  0  0
 17 19  1  0  0  0
 19 20  1  0  0  0
 19 21  1  0  0  0
 19 22  1  0  0  0
  9 23  1  0  0  0
 23 24  1  0  0  0
 24 25  1  0  0  0
  8  2  1  0  0  0
 18 12  1  0  0  0
 25 23  1  0  0  0
 11  4  1  0  0  0
M  END
> <minimizedAffinity>
-5.80626

> <CNNscore>
0.4255873859

> <CNNaffinity>
4.8823442459

> <CNN_VS>
2.0778641701

> <CNNaffinity_variance>
0.2564525902

$$$$
[H]c1c([H])c(C([H])([H])[H])c(C(F)(F)F)c([H])c1-c1nc(C2([H])C([H])([H])C2([H])[H])c2n1C([H])([H])[C@]([H])(C([H])([H])[H])OC([H])([H])C2([H])[H]


 25 28  0  0  0  0  0  0  0  0999 V2000
   32.2489  -22.0439   34.6894 C   0  0  0  0  0  0  0  0  0  0  0  0
   31.4432  -21.1428   35.6179 C   0  0  0  0  0  0  0  0  0  0  0  0
   32.3461  -20.8984   36.8498 C   0  0  0  0  0  0  0  0  0  0  0  0
   33.5751  -20.2816   36.4107 N   0  0  0  0  0  0  0  0  0  0  0  0
   33.7116  -19.4390   35.3938 C   0  0  0  0  0  0  0  0  0  0  0  0
   32.7778  -18.7483   34.5041 C   0  0  0  0  0  0  0  0  0  0  0  0
   31.5657  -19.4654   34.0523 C   0  0  0  0  0  0  0  0  0  0  0  0
   30.8763  -20.0838   35.0689 O   0  0  0  0  0  0  0  0  0  0  0  0
   35.1208  -19.2532   35.2623 C   0  0  0  0  0  0  0  0  0  0  0  0
   35.6648  -19.9808   36.1917 N   0  0  0  0  0  0  0  0  0  0  0  0
   34.7390  -20.6554   36.9674 C   0  0  0  0  0  0  0  0  0  0  0  0
   35.1641  -21.4098   38.1032 C   0  0  0  0  0  0  0  0  0  0  0  0
   34.4372  -22.2602   38.8674 C   0  0  0  0  0  0  0  0  0  0  0  0
   34.9515  -22.9388   39.9901 C   0  0  0  0  0  0  0  0  0  0  0  0
   36.2476  -22.7708   40.3855 C   0  0  0  0  0  0  0  0  0  0  0  0
   36.8249  -23.4775   41.5208 C   0  0  0  0  0  0  0  0  0  0  0  0
   37.0293  -21.9080   39.6368 C   0  0  0  0  0  0  0  0  0  0  0  0
   36.5046  -21.2611   38.5472 C   0  0  0  0  0  0  0  0  0  0  0  0
   38.4153  -21.6724   40.0697 C   0  0  0  0  0  0  0  0  0  0  0  0
   38.9641  -20.7309   39.2072 F   0  0  0  0  0  0  0  0  0  0  0  0
   39.1625  -22.8141   39.9605 F   0  0  0  0  0  0  0  0  0  0  0  0
   38.4972  -21.0833   41.3162 F   0  0  0  0  0  0  0  0  0  0  0  0
   35.6445  -18.2784   34.2782 C   0  0  0  0  0  0  0  0  0  0  0  0
   37.0362  -17.9307   34.0336 C   0  0  0  0  0  0  0  0  0  0  0  0
   36.3591  -17.1249   35.0528 C   0  0  0  0  0  0  0  0  0  0  0  0
  1  2  1  0  0  0
  2  3  1  0  0  0
  3  4  1  0  0  0
  4  5  1  0  0  0
  5  6  1  0  0  0
  6  7  1  0  0  0
  7  8  1  0  0  0
  5  9  2  0  0  0
  9 10  1  0  0  0
 10 11  2  0  0  0
 11 12  1  0  0  0
 12 13  2  0  0  0
 13 14  1  0  0  0
 14 15  2  0  0  0
 15 16  1  0  0  0
 15 17  1  0  0  0
 17 18  2  0  0  0
 17 19  1  0  0  0
 19 20  1  0  0  0
 19 21  1  0  0  0
 19 22  1  0  0  0
  9 23  1  0  0  0
 23 24  1  0  0  0
 24 25  1  0  0  0
  8  2  1  0  0  0
 18 12  1  0  0  0
 25 23  1  0  0  0
 11  4  1  0  0  0
M  END
> <minimizedAffinity>
-4.88152

> <CNNscore>
0.4176078737

> <CNNaffinity>
4.5895490646

> <CNN_VS>
1.9166318178

> <CNNaffinity_variance>
0.2812463641

$$$$
[H]c1c([H])c(C([H])([H])[H])c(C(F)(F)F)c([H])c1-c1nc(C2([H])C([H])([H])C2([H])[H])c2n1C([H])([H])[C@]([H])(C([H])([H])[H])OC([H])([H])C2([H])[H]


 25 28  0  0  0  0  0  0  0  0999 V2000
   30.9172  -24.3296   34.1631 C   0  0  0  0  0  0  0  0  0  0  0  0
   31.6646  -24.7625   35.4190 C   0  0  0  0  0  0  0  0  0  0  0  0
   32.3199  -23.4780   35.9787 C   0  0  0  0  0  0  0  0  0  0  0  0
   31.2847  -22.5113   36.2574 N   0  0  0  0  0  0  0  0  0  0  0  0
   30.0499  -22.7781   36.6655 C   0  0  0  0  0  0  0  0  0  0  0  0
   29.3542  -23.9902   37.0985 C   0  0  0  0  0  0  0  0  0  0  0  0
   29.6534  -25.2647   36.4102 C   0  0  0  0  0  0  0  0  0  0  0  0
   30.9981  -25.5180   36.2729 O   0  0  0  0  0  0  0  0  0  0  0  0
   29.3761  -21.5201   36.6320 C   0  0  0  0  0  0  0  0  0  0  0  0
   30.2557  -20.6552   36.2228 N   0  0  0  0  0  0  0  0  0  0  0  0
   31.4962  -21.2152   35.9750 C   0  0  0  0  0  0  0  0  0  0  0  0
   32.6049  -20.3847   35.6272 C   0  0  0  0  0  0  0  0  0  0  0  0
   32.9290  -19.8806   34.4121 C   0  0  0  0  0  0  0  0  0  0  0  0
   34.0685  -19.0874   34.1719 C   0  0  0  0  0  0  0  0  0  0  0  0
   34.9379  -18.7753   35.1775 C   0  0  0  0  0  0  0  0  0  0  0  0
   36.1090  -17.9330   34.9760 C   0  0  0  0  0  0  0  0  0  0  0  0
   34.6500  -19.2710   36.4374 C   0  0  0  0  0  0  0  0  0  0  0  0
   33.5331  -20.0394   36.6447 C   0  0  0  0  0  0  0  0  0  0  0  0
   35.5959  -18.9895   37.5283 C   0  0  0  0  0  0  0  0  0  0  0  0
   35.6472  -17.6096   37.6858 F   0  0  0  0  0  0  0  0  0  0  0  0
   36.8564  -19.4130   37.2041 F   0  0  0  0  0  0  0  0  0  0  0  0
   35.1605  -19.4576   38.7525 F   0  0  0  0  0  0  0  0  0  0  0  0
   27.9855  -21.4182   37.1307 C   0  0  0  0  0  0  0  0  0  0  0  0
   27.3717  -20.2883   37.8121 C   0  0  0  0  0  0  0  0  0  0  0  0
   28.0245  -21.2671   38.6853 C   0  0  0  0  0  0  0  0  0  0  0  0
  1  2  1  0  0  0
  2  3  1  0  0  0
  3  4  1  0  0  0
  4  5  1  0  0  0
  5  6  1  0  0  0
  6  7  1  0  0  0
  7  8  1  0  0  0
  5  9  2  0  0  0
  9 10  1  0  0  0
 10 11  2  0  0  0
 11 12  1  0  0  0
 12 13  2  0  0  0
 13 14  1  0  0  0
 14 15  2  0  0  0
 15 16  1  0  0  0
 15 17  1  0  0  0
 17 18  2  0  0  0
 17 19  1  0  0  0
 19 20  1  0  0  0
 19 21  1  0  0  0
 19 22  1  0  0  0
  9 23  1  0  0  0
 23 24  1  0  0  0
 24 25  1  0  0  0
  8  2  1  0  0  0
 18 12  1  0  0  0
 25 23  1  0  0  0
 11  4  1  0  0  0
M  END
> <minimizedAffinity>
-5.41681

> <CNNscore>
0.4061586559

> <CNNaffinity>
4.5941576958

> <CNN_VS>
1.8659569025

> <CNNaffinity_variance>
0.2398045957

$$$$
[H]c1c([H])c(C([H])([H])[H])c(C(F)(F)F)c([H])c1-c1nc(C2([H])C([H])([H])C2([H])[H])c2n1C([H])([H])[C@]([H])(C([H])([H])[H])OC([H])([H])C2([H])[H]


 25 28  0  0  0  0  0  0  0  0999 V2000
   37.9463  -19.7595   34.0271 C   0  0  0  0  0  0  0  0  0  0  0  0
   38.8751  -19.5080   35.2091 C   0  0  0  0  0  0  0  0  0  0  0  0
   38.1528  -18.4644   36.0932 C   0  0  0  0  0  0  0  0  0  0  0  0
   36.8761  -19.0022   36.4986 N   0  0  0  0  0  0  0  0  0  0  0  0
   36.6013  -20.2791   36.7367 C   0  0  0  0  0  0  0  0  0  0  0  0
   37.4038  -21.4989   36.8298 C   0  0  0  0  0  0  0  0  0  0  0  0
   38.5397  -21.6739   35.8989 C   0  0  0  0  0  0  0  0  0  0  0  0
   39.3625  -20.5752   35.8157 O   0  0  0  0  0  0  0  0  0  0  0  0
   35.1879  -20.3163   36.9331 C   0  0  0  0  0  0  0  0  0  0  0  0
   34.7768  -19.0906   36.8000 N   0  0  0  0  0  0  0  0  0  0  0  0
   35.8000  -18.1988   36.5322 C   0  0  0  0  0  0  0  0  0  0  0  0
   35.5354  -16.7967   36.4692 C   0  0  0  0  0  0  0  0  0  0  0  0
   34.4474  -16.1686   35.9622 C   0  0  0  0  0  0  0  0  0  0  0  0
   34.2975  -14.7680   35.9259 C   0  0  0  0  0  0  0  0  0  0  0  0
   35.2692  -13.9400   36.4102 C   0  0  0  0  0  0  0  0  0  0  0  0
   35.1384  -12.4893   36.4192 C   0  0  0  0  0  0  0  0  0  0  0  0
   36.4024  -14.5362   36.9360 C   0  0  0  0  0  0  0  0  0  0  0  0
   36.5225  -15.9022   36.9609 C   0  0  0  0  0  0  0  0  0  0  0  0
   37.4849  -13.6660   37.4206 C   0  0  0  0  0  0  0  0  0  0  0  0
   38.6878  -14.2832   37.0985 F   0  0  0  0  0  0  0  0  0  0  0  0
   37.4392  -13.5411   38.7828 F   0  0  0  0  0  0  0  0  0  0  0  0
   37.5358  -12.4529   36.7624 F   0  0  0  0  0  0  0  0  0  0  0  0
   34.5346  -21.5848   37.3296 C   0  0  0  0  0  0  0  0  0  0  0  0
   33.1502  -21.7766   37.7352 C   0  0  0  0  0  0  0  0  0  0  0  0
   34.0839  -21.4670   38.8210 C   0  0  0  0  0  0  0  0  0  0  0  0
  1  2  1  0  0  0
  2  3  1  0  0  0
  3  4  1  0  0  0
  4  5  1  0  0  0
  5  6  1  0  0  0
  6  7  1  0  0  0
  7  8  1  0  0  0
  5  9  2  0  0  0
  9 10  1  0  0  0
 10 11  2  0  0  0
 11 12  1  0  0  0
 12 13  2  0  0  0
 13 14  1  0  0  0
 14 15  2  0  0  0
 15 16  1  0  0  0
 15 17  1  0  0  0
 17 18  2  0  0  0
 17 19  1  0  0  0
 19 20  1  0  0  0
 19 21  1  0  0  0
 19 22  1  0  0  0
  9 23  1  0  0  0
 23 24  1  0  0  0
 24 25  1  0  0  0
  8  2  1  0  0  0
 18 12  1  0  0  0
 25 23  1  0  0  0
 11  4  1  0  0  0
M  END
> <minimizedAffinity>
-6.32766

> <CNNscore>
0.3872172236

> <CNNaffinity>
5.0279188156

> <CNN_VS>
1.9468967915

> <CNNaffinity_variance>
0.2368077487

$$$$
[H]c1c([H])c(C([H])([H])[H])c(C(F)(F)F)c([H])c1-c1nc(C2([H])C([H])([H])C2([H])[H])c2n1C([H])([H])[C@]([H])(C([H])([H])[H])OC([H])([H])C2([H])[H]


 25 28  0  0  0  0  0  0  0  0999 V2000
   31.4676  -18.7934   35.0846 C   0  0  0  0  0  0  0  0  0  0  0  0
   32.4240  -19.2659   33.9959 C   0  0  0  0  0  0  0  0  0  0  0  0
   33.8350  -18.8409   34.4662 C   0  0  0  0  0  0  0  0  0  0  0  0
   34.1044  -19.4568   35.7437 N   0  0  0  0  0  0  0  0  0  0  0  0
   33.6720  -20.6444   36.1502 C   0  0  0  0  0  0  0  0  0  0  0  0
   32.9655  -21.7520   35.5063 C   0  0  0  0  0  0  0  0  0  0  0  0
   31.9057  -21.4416   34.5224 C   0  0  0  0  0  0  0  0  0  0  0  0
   32.2787  -20.5112   33.5809 O   0  0  0  0  0  0  0  0  0  0  0  0
   34.0567  -20.7211   37.5227 C   0  0  0  0  0  0  0  0  0  0  0  0
   34.6662  -19.6037   37.7853 N   0  0  0  0  0  0  0  0  0  0  0  0
   34.7420  -18.7551   36.6953 C   0  0  0  0  0  0  0  0  0  0  0  0
   35.4784  -17.5344   36.7826 C   0  0  0  0  0  0  0  0  0  0  0  0
   36.8021  -17.3661   37.0169 C   0  0  0  0  0  0  0  0  0  0  0  0
   37.4272  -16.1067   37.1098 C   0  0  0  0  0  0  0  0  0  0  0  0
   36.7140  -14.9510   36.9683 C   0  0  0  0  0  0  0  0  0  0  0  0
   37.3284  -13.6316   37.0264 C   0  0  0  0  0  0  0  0  0  0  0  0
   35.3557  -15.0724   36.7306 C   0  0  0  0  0  0  0  0  0  0  0  0
   34.7722  -16.3104   36.6430 C   0  0  0  0  0  0  0  0  0  0  0  0
   34.5561  -13.8425   36.6220 C   0  0  0  0  0  0  0  0  0  0  0  0
   33.2866  -14.2106   36.1925 F   0  0  0  0  0  0  0  0  0  0  0  0
   35.0804  -12.9999   35.6792 F   0  0  0  0  0  0  0  0  0  0  0  0
   34.3408  -13.2310   37.8415 F   0  0  0  0  0  0  0  0  0  0  0  0
   33.8249  -21.9713   38.2817 C   0  0  0  0  0  0  0  0  0  0  0  0
   34.2693  -22.2802   39.6325 C   0  0  0  0  0  0  0  0  0  0  0  0
   35.2063  -22.6436   38.5664 C   0  0  0  0  0  0  0  0  0  0  0  0
  1  2  1  0  0  0
  2  3  1  0  0  0
  3  4  1  0  0  0
  4  5  1  0  0  0
  5  6  1  0  0  0
  6  7  1  0  0  0
  7  8  1  0  0  0
  5  9  2  0  0  0
  9 10  1  0  0  0
 10 11  2  0  0  0
 11 12  1  0  0  0
 12 13  2  0  0  0
 13 14  1  0  0  0
 14 15  2  0  0  0
 15 16  1  0  0  0
 15 17  1  0  0  0
 17 18  2  0  0  0
 17 19  1  0  0  0
 19 20  1  0  0  0
 19 21  1  0  0  0
 19 22  1  0  0  0
  9 23  1  0  0  0
 23 24  1  0  0  0
 24 25  1  0  0  0
  8  2  1  0  0  0
 18 12  1  0  0  0
 25 23  1  0  0  0
 11  4  1  0  0  0
M  END
> <minimizedAffinity>
-6.68944

> <CNNscore>
0.3738019466

> <CNNaffinity>
5.0739674568

> <CNN_VS>
1.8966588974

> <CNNaffinity_variance>
0.2771325111

$$$$
[H]c1c([H])c(C([H])([H])[H])c(C(F)(F)F)c([H])c1-c1nc(C2([H])C([H])([H])C2([H])[H])c2n1C([H])([H])[C@]([H])(C([H])([H])[H])OC([H])([H])C2([H])[H]


 25 28  0  0  0  0  0  0  0  0999 V2000
   37.7624  -18.2005   34.9744 C   0  0  0  0  0  0  0  0  0  0  0  0
   37.7744  -18.3651   36.4897 C   0  0  0  0  0  0  0  0  0  0  0  0
   36.7988  -17.2952   37.0338 C   0  0  0  0  0  0  0  0  0  0  0  0
   35.4926  -17.5240   36.4636 N   0  0  0  0  0  0  0  0  0  0  0  0
   34.9697  -18.7021   36.1451 C   0  0  0  0  0  0  0  0  0  0  0  0
   35.3758  -20.0922   36.3529 C   0  0  0  0  0  0  0  0  0  0  0  0
   36.8102  -20.4364   36.2453 C   0  0  0  0  0  0  0  0  0  0  0  0
   37.6367  -19.5946   36.9520 O   0  0  0  0  0  0  0  0  0  0  0  0
   33.7520  -18.3887   35.4694 C   0  0  0  0  0  0  0  0  0  0  0  0
   33.6737  -17.0914   35.4585 N   0  0  0  0  0  0  0  0  0  0  0  0
   34.7436  -16.4758   36.0834 C   0  0  0  0  0  0  0  0  0  0  0  0
   34.7570  -15.0584   36.2586 C   0  0  0  0  0  0  0  0  0  0  0  0
   35.7047  -14.1721   35.8688 C   0  0  0  0  0  0  0  0  0  0  0  0
   35.6310  -12.7870   36.1166 C   0  0  0  0  0  0  0  0  0  0  0  0
   34.5722  -12.2435   36.7859 C   0  0  0  0  0  0  0  0  0  0  0  0
   34.4443  -10.8140   37.0342 C   0  0  0  0  0  0  0  0  0  0  0  0
   33.5793  -13.1111   37.2074 C   0  0  0  0  0  0  0  0  0  0  0  0
   33.6744  -14.4551   36.9517 C   0  0  0  0  0  0  0  0  0  0  0  0
   32.4512  -12.5578   37.9724 C   0  0  0  0  0  0  0  0  0  0  0  0
   31.8481  -13.6148   38.6437 F   0  0  0  0  0  0  0  0  0  0  0  0
   31.5136  -12.0136   37.1367 F   0  0  0  0  0  0  0  0  0  0  0  0
   32.8518  -11.6986   38.9768 F   0  0  0  0  0  0  0  0  0  0  0  0
   32.8394  -19.4794   35.0563 C   0  0  0  0  0  0  0  0  0  0  0  0
   31.9841  -19.5178   33.8796 C   0  0  0  0  0  0  0  0  0  0  0  0
   31.3743  -18.9370   35.0785 C   0  0  0  0  0  0  0  0  0  0  0  0
  1  2  1  0  0  0
  2  3  1  0  0  0
  3  4  1  0  0  0
  4  5  1  0  0  0
  5  6  1  0  0  0
  6  7  1  0  0  0
  7  8  1  0  0  0
  5  9  2  0  0  0
  9 10  1  0  0  0
 10 11  2  0  0  0
 11 12  1  0  0  0
 12 13  2  0  0  0
 13 14  1  0  0  0
 14 15  2  0  0  0
 15 16  1  0  0  0
 15 17  1  0  0  0
 17 18  2  0  0  0
 17 19  1  0  0  0
 19 20  1  0  0  0
 19 21  1  0  0  0
 19 22  1  0  0  0
  9 23  1  0  0  0
 23 24  1  0  0  0
 24 25  1  0  0  0
  8  2  1  0  0  0
 18 12  1  0  0  0
 25 23  1  0  0  0
 11  4  1  0  0  0
M  END
> <minimizedAffinity>
-7.60313

> <CNNscore>
0.3692857921

> <CNNaffinity>
5.2689085007

> <CNN_VS>
1.9457330704

> <CNNaffinity_variance>
0.2829400003

$$$$
[H]c1c([H])c([H])c2c(c1[H])N=C(N1C([H])([H])C([H])([H])N(C([H])([H])[H])C([H])([H])C1([H])[H])c1c([H])c(Cl)c([H])c([H])c1N2[H]


 24 27  0  0  0  0  0  0  0  0999 V2000
   35.8305  -18.4102   35.4447 C   0  0  0  0  0  0  0  0  0  0  0  0
   35.0379  -19.4131   35.1508 N   0  0  0  0  0  0  0  0  0  0  0  0
   33.6248  -19.5056   35.1077 C   0  0  0  0  0  0  0  0  0  0  0  0
   33.1996  -20.8196   35.0708 C   0  0  0  0  0  0  0  0  0  0  0  0
   31.8544  -21.0843   35.0211 C   0  0  0  0  0  0  0  0  0  0  0  0
   30.9312  -20.0600   35.0078 C   0  0  0  0  0  0  0  0  0  0  0  0
   31.3802  -18.7517   35.0455 C   0  0  0  0  0  0  0  0  0  0  0  0
   32.7132  -18.4525   35.0954 C   0  0  0  0  0  0  0  0  0  0  0  0
   32.9770  -17.0412   35.1326 N   0  0  0  0  0  0  0  0  0  0  0  0
   34.1544  -16.4533   35.6761 C   0  0  0  0  0  0  0  0  0  0  0  0
   33.9012  -15.1763   36.0642 C   0  0  0  0  0  0  0  0  0  0  0  0
   34.9382  -14.4535   36.6251 C   0  0  0  0  0  0  0  0  0  0  0  0
   36.1830  -15.0413   36.7727 C   0  0  0  0  0  0  0  0  0  0  0  0
   37.5211  -14.1643   37.4767 Cl  0  0  0  0  0  0  0  0  0  0  0  0
   36.4310  -16.3490   36.3719 C   0  0  0  0  0  0  0  0  0  0  0  0
   35.4071  -17.0570   35.8196 C   0  0  0  0  0  0  0  0  0  0  0  0
   32.2453  -16.4501   34.7349 H   0  0  0  0  0  0  0  0  0  0  0  0
   40.4747  -20.8825   35.1180 C   0  0  0  0  0  0  0  0  0  0  0  0
   39.8480  -19.5821   35.0197 N   0  0  0  0  0  0  0  0  0  0  0  0
   38.8546  -19.6358   34.0001 C   0  0  0  0  0  0  0  0  0  0  0  0
   37.9540  -18.4037   34.1848 C   0  0  0  0  0  0  0  0  0  0  0  0
   37.2161  -18.6555   35.3912 N   0  0  0  0  0  0  0  0  0  0  0  0
   37.9240  -19.1782   36.5279 C   0  0  0  0  0  0  0  0  0  0  0  0
   39.4185  -19.0551   36.2668 C   0  0  0  0  0  0  0  0  0  0  0  0
 18 19  1  0  0  0
 19 20  1  0  0  0
 20 21  1  0  0  0
 21 22  1  0  0  0
 22 23  1  0  0  0
 23 24  1  0  0  0
 22  1  1  0  0  0
  1  2  2  0  0  0
  2  3  1  0  0  0
  3  4  2  0  0  0
  4  5  1  0  0  0
  5  6  2  0  0  0
  6  7  1  0  0  0
  7  8  2  0  0  0
  8  9  1  0  0  0
  9 10  1  0  0  0
 10 11  2  0  0  0
 11 12  1  0  0  0
 12 13  2  0  0  0
 13 14  1  0  0  0
 13 15  1  0  0  0
 15 16  2  0  0  0
 24 19  1  0  0  0
 16  1  1  0  0  0
  8  3  1  0  0  0
 16 10  1  0  0  0
  9 17  1  0  0  0
M  END
> <minimizedAffinity>
-7.68858

> <CNNscore>
0.8749247789

> <CNNaffinity>
5.6098198891

> <CNN_VS>
4.9081702232

> <CNNaffinity_variance>
0.2664014399

$$$$
[H]c1c([H])c([H])c2c(c1[H])N=C(N1C([H])([H])C([H])([H])N(C([H])([H])[H])C([H])([H])C1([H])[H])c1c([H])c(Cl)c([H])c([H])c1N2[H]


 24 27  0  0  0  0  0  0  0  0999 V2000
   34.3337  -17.7688   35.6806 C   0  0  0  0  0  0  0  0  0  0  0  0
   33.9508  -16.5144   35.6626 N   0  0  0  0  0  0  0  0  0  0  0  0
   34.6147  -15.3292   36.0646 C   0  0  0  0  0  0  0  0  0  0  0  0
   33.7388  -14.2669   36.1799 C   0  0  0  0  0  0  0  0  0  0  0  0
   34.2239  -13.0402   36.5568 C   0  0  0  0  0  0  0  0  0  0  0  0
   35.5655  -12.8595   36.8191 C   0  0  0  0  0  0  0  0  0  0  0  0
   36.4242  -13.9377   36.6971 C   0  0  0  0  0  0  0  0  0  0  0  0
   35.9744  -15.1735   36.3238 C   0  0  0  0  0  0  0  0  0  0  0  0
   37.0158  -16.1604   36.2579 N   0  0  0  0  0  0  0  0  0  0  0  0
   36.8105  -17.5623   36.3982 C   0  0  0  0  0  0  0  0  0  0  0  0
   37.9521  -18.1596   36.8290 C   0  0  0  0  0  0  0  0  0  0  0  0
   37.9303  -19.5279   37.0279 C   0  0  0  0  0  0  0  0  0  0  0  0
   36.7663  -20.2379   36.7868 C   0  0  0  0  0  0  0  0  0  0  0  0
   36.6945  -21.9679   37.0255 Cl  0  0  0  0  0  0  0  0  0  0  0  0
   35.6038  -19.6163   36.3460 C   0  0  0  0  0  0  0  0  0  0  0  0
   35.6298  -18.2687   36.1510 C   0  0  0  0  0  0  0  0  0  0  0  0
   37.9556  -15.7928   36.1010 H   0  0  0  0  0  0  0  0  0  0  0  0
   31.9495  -22.3556   34.6488 C   0  0  0  0  0  0  0  0  0  0  0  0
   31.7497  -20.9225   34.6454 N   0  0  0  0  0  0  0  0  0  0  0  0
   31.9757  -20.4322   35.9637 C   0  0  0  0  0  0  0  0  0  0  0  0
   32.1503  -18.9089   35.8528 C   0  0  0  0  0  0  0  0  0  0  0  0
   33.4161  -18.7226   35.1998 N   0  0  0  0  0  0  0  0  0  0  0  0
   33.7243  -19.5443   34.0612 C   0  0  0  0  0  0  0  0  0  0  0  0
   32.4511  -20.2468   33.6115 C   0  0  0  0  0  0  0  0  0  0  0  0
 18 19  1  0  0  0
 19 20  1  0  0  0
 20 21  1  0  0  0
 21 22  1  0  0  0
 22 23  1  0  0  0
 23 24  1  0  0  0
 22  1  1  0  0  0
  1  2  2  0  0  0
  2  3  1  0  0  0
  3  4  2  0  0  0
  4  5  1  0  0  0
  5  6  2  0  0  0
  6  7  1  0  0  0
  7  8  2  0  0  0
  8  9  1  0  0  0
  9 10  1  0  0  0
 10 11  2  0  0  0
 11 12  1  0  0  0
 12 13  2  0  0  0
 13 14  1  0  0  0
 13 15  1  0  0  0
 15 16  2  0  0  0
 24 19  1  0  0  0
 16  1  1  0  0  0
  8  3  1  0  0  0
 16 10  1  0  0  0
  9 17  1  0  0  0
M  END
> <minimizedAffinity>
-7.79832

> <CNNscore>
0.6775676608

> <CNNaffinity>
5.4072051048

> <CNN_VS>
3.6637473106

> <CNNaffinity_variance>
0.2651512027

$$$$
[H]c1c([H])c([H])c2c(c1[H])N=C(N1C([H])([H])C([H])([H])N(C([H])([H])[H])C([H])([H])C1([H])[H])c1c([H])c(Cl)c([H])c([H])c1N2[H]


 24 27  0  0  0  0  0  0  0  0999 V2000
   36.0235  -17.6233   35.4423 C   0  0  0  0  0  0  0  0  0  0  0  0
   36.4461  -16.4517   35.8535 N   0  0  0  0  0  0  0  0  0  0  0  0
   35.7455  -15.2549   36.1434 C   0  0  0  0  0  0  0  0  0  0  0  0
   36.5988  -14.1718   36.2315 C   0  0  0  0  0  0  0  0  0  0  0  0
   36.0786  -12.9339   36.5128 C   0  0  0  0  0  0  0  0  0  0  0  0
   34.7242  -12.7624   36.7067 C   0  0  0  0  0  0  0  0  0  0  0  0
   33.8886  -13.8615   36.6137 C   0  0  0  0  0  0  0  0  0  0  0  0
   34.3736  -15.1089   36.3349 C   0  0  0  0  0  0  0  0  0  0  0  0
   33.3507  -16.1154   36.2767 N   0  0  0  0  0  0  0  0  0  0  0  0
   33.4551  -17.3322   35.5447 C   0  0  0  0  0  0  0  0  0  0  0  0
   32.2170  -17.7943   35.2299 C   0  0  0  0  0  0  0  0  0  0  0  0
   32.1304  -18.9706   34.5079 C   0  0  0  0  0  0  0  0  0  0  0  0
   33.2873  -19.6322   34.1328 C   0  0  0  0  0  0  0  0  0  0  0  0
   33.2238  -21.1212   33.2195 Cl  0  0  0  0  0  0  0  0  0  0  0  0
   34.5492  -19.1502   34.4604 C   0  0  0  0  0  0  0  0  0  0  0  0
   34.6299  -17.9917   35.1719 C   0  0  0  0  0  0  0  0  0  0  0  0
   32.5035  -15.9074   36.8076 H   0  0  0  0  0  0  0  0  0  0  0  0
   40.6709  -20.0579   34.9300 C   0  0  0  0  0  0  0  0  0  0  0  0
   39.2589  -20.2944   35.1396 N   0  0  0  0  0  0  0  0  0  0  0  0
   38.8566  -19.6072   36.3207 C   0  0  0  0  0  0  0  0  0  0  0  0
   37.3209  -19.5406   36.3009 C   0  0  0  0  0  0  0  0  0  0  0  0
   36.9986  -18.6202   35.2464 N   0  0  0  0  0  0  0  0  0  0  0  0
   37.7075  -18.7336   34.0010 C   0  0  0  0  0  0  0  0  0  0  0  0
   38.4594  -20.0569   33.9898 C   0  0  0  0  0  0  0  0  0  0  0  0
 18 19  1  0  0  0
 19 20  1  0  0  0
 20 21  1  0  0  0
 21 22  1  0  0  0
 22 23  1  0  0  0
 23 24  1  0  0  0
 22  1  1  0  0  0
  1  2  2  0  0  0
  2  3  1  0  0  0
  3  4  2  0  0  0
  4  5  1  0  0  0
  5  6  2  0  0  0
  6  7  1  0  0  0
  7  8  2  0  0  0
  8  9  1  0  0  0
  9 10  1  0  0  0
 10 11  2  0  0  0
 11 12  1  0  0  0
 12 13  2  0  0  0
 13 14  1  0  0  0
 13 15  1  0  0  0
 15 16  2  0  0  0
 24 19  1  0  0  0
 16  1  1  0  0  0
  8  3  1  0  0  0
 16 10  1  0  0  0
  9 17  1  0  0  0
M  END
> <minimizedAffinity>
-6.01297

> <CNNscore>
0.6331083179

> <CNNaffinity>
5.5462293625

> <CNN_VS>
3.5113639832

> <CNNaffinity_variance>
0.0368286371

$$$$
[H]c1c([H])c([H])c2c(c1[H])N=C(N1C([H])([H])C([H])([H])N(C([H])([H])[H])C([H])([H])C1([H])[H])c1c([H])c(Cl)c([H])c([H])c1N2[H]


 24 27  0  0  0  0  0  0  0  0999 V2000
   35.5084  -18.2599   37.0534 C   0  0  0  0  0  0  0  0  0  0  0  0
   36.1679  -17.2117   37.4854 N   0  0  0  0  0  0  0  0  0  0  0  0
   36.0813  -15.8425   37.1317 C   0  0  0  0  0  0  0  0  0  0  0  0
   37.1724  -15.1273   37.5865 C   0  0  0  0  0  0  0  0  0  0  0  0
   37.2409  -13.7810   37.3314 C   0  0  0  0  0  0  0  0  0  0  0  0
   36.2398  -13.1411   36.6316 C   0  0  0  0  0  0  0  0  0  0  0  0
   35.1565  -13.8776   36.1858 C   0  0  0  0  0  0  0  0  0  0  0  0
   35.0566  -15.2204   36.4225 C   0  0  0  0  0  0  0  0  0  0  0  0
   33.8634  -15.8053   35.8775 N   0  0  0  0  0  0  0  0  0  0  0  0
   33.7252  -17.1775   35.5236 C   0  0  0  0  0  0  0  0  0  0  0  0
   32.7603  -17.3199   34.5779 C   0  0  0  0  0  0  0  0  0  0  0  0
   32.4971  -18.5942   34.1097 C   0  0  0  0  0  0  0  0  0  0  0  0
   33.2118  -19.6698   34.6088 C   0  0  0  0  0  0  0  0  0  0  0  0
   32.9120  -21.2968   34.0449 Cl  0  0  0  0  0  0  0  0  0  0  0  0
   34.1972  -19.5125   35.5766 C   0  0  0  0  0  0  0  0  0  0  0  0
   34.4528  -18.2559   36.0353 C   0  0  0  0  0  0  0  0  0  0  0  0
   33.0822  -15.1607   35.7467 H   0  0  0  0  0  0  0  0  0  0  0  0
   37.6582  -21.9321   40.1649 C   0  0  0  0  0  0  0  0  0  0  0  0
   36.6030  -21.7075   39.2006 N   0  0  0  0  0  0  0  0  0  0  0  0
   35.7673  -20.6592   39.6822 C   0  0  0  0  0  0  0  0  0  0  0  0
   34.9202  -20.1777   38.4932 C   0  0  0  0  0  0  0  0  0  0  0  0
   35.8432  -19.5033   37.6233 N   0  0  0  0  0  0  0  0  0  0  0  0
   37.1158  -20.1210   37.3677 C   0  0  0  0  0  0  0  0  0  0  0  0
   37.0660  -21.5583   37.8661 C   0  0  0  0  0  0  0  0  0  0  0  0
 18 19  1  0  0  0
 19 20  1  0  0  0
 20 21  1  0  0  0
 21 22  1  0  0  0
 22 23  1  0  0  0
 23 24  1  0  0  0
 22  1  1  0  0  0
  1  2  2  0  0  0
  2  3  1  0  0  0
  3  4  2  0  0  0
  4  5  1  0  0  0
  5  6  2  0  0  0
  6  7  1  0  0  0
  7  8  2  0  0  0
  8  9  1  0  0  0
  9 10  1  0  0  0
 10 11  2  0  0  0
 11 12  1  0  0  0
 12 13  2  0  0  0
 13 14  1  0  0  0
 13 15  1  0  0  0
 15 16  2  0  0  0
 24 19  1  0  0  0
 16  1  1  0  0  0
  8  3  1  0  0  0
 16 10  1  0  0  0
  9 17  1  0  0  0
M  END
> <minimizedAffinity>
-6.72709

> <CNNscore>
0.5889660716

> <CNNaffinity>
4.9920716286

> <CNN_VS>
2.9401607513

> <CNNaffinity_variance>
0.2811771631

$$$$
[H]c1c([H])c([H])c2c(c1[H])N=C(N1C([H])([H])C([H])([H])N(C([H])([H])[H])C([H])([H])C1([H])[H])c1c([H])c(Cl)c([H])c([H])c1N2[H]


 24 27  0  0  0  0  0  0  0  0999 V2000
   34.9733  -19.1628   37.0216 C   0  0  0  0  0  0  0  0  0  0  0  0
   35.6949  -18.1301   37.3866 N   0  0  0  0  0  0  0  0  0  0  0  0
   35.7048  -16.7891   36.9297 C   0  0  0  0  0  0  0  0  0  0  0  0
   36.8345  -16.1142   37.3506 C   0  0  0  0  0  0  0  0  0  0  0  0
   36.9963  -14.7986   36.9968 C   0  0  0  0  0  0  0  0  0  0  0  0
   36.0502  -14.1497   36.2318 C   0  0  0  0  0  0  0  0  0  0  0  0
   34.9267  -14.8455   35.8216 C   0  0  0  0  0  0  0  0  0  0  0  0
   34.7341  -16.1570   36.1562 C   0  0  0  0  0  0  0  0  0  0  0  0
   33.5126  -16.7025   35.6336 N   0  0  0  0  0  0  0  0  0  0  0  0
   33.2883  -18.0856   35.3808 C   0  0  0  0  0  0  0  0  0  0  0  0
   32.3297  -18.2360   34.4300 C   0  0  0  0  0  0  0  0  0  0  0  0
   31.9890  -19.5223   34.0535 C   0  0  0  0  0  0  0  0  0  0  0  0
   32.6232  -20.6013   34.6456 C   0  0  0  0  0  0  0  0  0  0  0  0
   32.2237  -22.2434   34.1994 Cl  0  0  0  0  0  0  0  0  0  0  0  0
   33.6028  -20.4356   35.6177 C   0  0  0  0  0  0  0  0  0  0  0  0
   33.9350  -19.1672   35.9858 C   0  0  0  0  0  0  0  0  0  0  0  0
   32.7780  -16.0200   35.4398 H   0  0  0  0  0  0  0  0  0  0  0  0
   34.8534  -24.2620   38.3527 C   0  0  0  0  0  0  0  0  0  0  0  0
   35.5840  -23.0303   38.5592 N   0  0  0  0  0  0  0  0  0  0  0  0
   36.0385  -22.5577   37.2946 C   0  0  0  0  0  0  0  0  0  0  0  0
   36.4481  -21.0882   37.4847 C   0  0  0  0  0  0  0  0  0  0  0  0
   35.2162  -20.3785   37.6894 N   0  0  0  0  0  0  0  0  0  0  0  0
   34.2384  -20.9498   38.5749 C   0  0  0  0  0  0  0  0  0  0  0  0
   34.8936  -22.0792   39.3570 C   0  0  0  0  0  0  0  0  0  0  0  0
 18 19  1  0  0  0
 19 20  1  0  0  0
 20 21  1  0  0  0
 21 22  1  0  0  0
 22 23  1  0  0  0
 23 24  1  0  0  0
 22  1  1  0  0  0
  1  2  2  0  0  0
  2  3  1  0  0  0
  3  4  2  0  0  0
  4  5  1  0  0  0
  5  6  2  0  0  0
  6  7  1  0  0  0
  7  8  2  0  0  0
  8  9  1  0  0  0
  9 10  1  0  0  0
 10 11  2  0  0  0
 11 12  1  0  0  0
 12 13  2  0  0  0
 13 14  1  0  0  0
 13 15  1  0  0  0
 15 16  2  0  0  0
 24 19  1  0  0  0
 16  1  1  0  0  0
  8  3  1  0  0  0
 16 10  1  0  0  0
  9 17  1  0  0  0
M  END
> <minimizedAffinity>
-6.42833

> <CNNscore>
0.5851592422

> <CNNaffinity>
4.7319731712

> <CNN_VS>
2.7689578533

> <CNNaffinity_variance>
0.5292612314

$$$$
[H]c1c([H])c([H])c2c(c1[H])N=C(N1C([H])([H])C([H])([H])N(C([H])([H])[H])C([H])([H])C1([H])[H])c1c([H])c(Cl)c([H])c([H])c1N2[H]


 24 27  0  0  0  0  0  0  0  0999 V2000
   33.6155  -21.1312   36.7660 C   0  0  0  0  0  0  0  0  0  0  0  0
   34.8284  -20.6355   36.7091 N   0  0  0  0  0  0  0  0  0  0  0  0
   35.3312  -19.4653   36.0886 C   0  0  0  0  0  0  0  0  0  0  0  0
   36.7095  -19.4882   35.9953 C   0  0  0  0  0  0  0  0  0  0  0  0
   37.3571  -18.4232   35.4222 C   0  0  0  0  0  0  0  0  0  0  0  0
   36.6514  -17.3400   34.9427 C   0  0  0  0  0  0  0  0  0  0  0  0
   35.2716  -17.3388   35.0468 C   0  0  0  0  0  0  0  0  0  0  0  0
   34.5946  -18.3834   35.6121 C   0  0  0  0  0  0  0  0  0  0  0  0
   33.1706  -18.1968   35.6238 N   0  0  0  0  0  0  0  0  0  0  0  0
   32.2174  -19.2537   35.6649 C   0  0  0  0  0  0  0  0  0  0  0  0
   31.0386  -18.8391   35.1322 C   0  0  0  0  0  0  0  0  0  0  0  0
   29.9961  -19.7465   35.0845 C   0  0  0  0  0  0  0  0  0  0  0  0
   30.1801  -21.0291   35.5721 C   0  0  0  0  0  0  0  0  0  0  0  0
   28.8899  -22.2077   35.5310 Cl  0  0  0  0  0  0  0  0  0  0  0  0
   31.3909  -21.4428   36.1153 C   0  0  0  0  0  0  0  0  0  0  0  0
   32.4147  -20.5458   36.1607 C   0  0  0  0  0  0  0  0  0  0  0  0
   32.8578  -17.2249   35.5973 H   0  0  0  0  0  0  0  0  0  0  0  0
   34.6495  -25.5464   39.4539 C   0  0  0  0  0  0  0  0  0  0  0  0
   33.5905  -24.6203   39.1156 N   0  0  0  0  0  0  0  0  0  0  0  0
   33.9678  -23.3210   39.5616 C   0  0  0  0  0  0  0  0  0  0  0  0
   33.0427  -22.3171   38.8547 C   0  0  0  0  0  0  0  0  0  0  0  0
   33.4514  -22.3351   37.4778 N   0  0  0  0  0  0  0  0  0  0  0  0
   33.7036  -23.6071   36.8572 C   0  0  0  0  0  0  0  0  0  0  0  0
   33.1636  -24.7043   37.7635 C   0  0  0  0  0  0  0  0  0  0  0  0
 18 19  1  0  0  0
 19 20  1  0  0  0
 20 21  1  0  0  0
 21 22  1  0  0  0
 22 23  1  0  0  0
 23 24  1  0  0  0
 22  1  1  0  0  0
  1  2  2  0  0  0
  2  3  1  0  0  0
  3  4  2  0  0  0
  4  5  1  0  0  0
  5  6  2  0  0  0
  6  7  1  0  0  0
  7  8  2  0  0  0
  8  9  1  0  0  0
  9 10  1  0  0  0
 10 11  2  0  0  0
 11 12  1  0  0  0
 12 13  2  0  0  0
 13 14  1  0  0  0
 13 15  1  0  0  0
 15 16  2  0  0  0
 24 19  1  0  0  0
 16  1  1  0  0  0
  8  3  1  0  0  0
 16 10  1  0  0  0
  9 17  1  0  0  0
M  END
> <minimizedAffinity>
-5.21655

> <CNNscore>
0.4960112274

> <CNNaffinity>
4.2517461777

> <CNN_VS>
2.1089138985

> <CNNaffinity_variance>
0.6416732669

$$$$
[H]c1c([H])c([H])c2c(c1[H])N=C(N1C([H])([H])C([H])([H])N(C([H])([H])[H])C([H])([H])C1([H])[H])c1c([H])c(Cl)c([H])c([H])c1N2[H]


 24 27  0  0  0  0  0  0  0  0999 V2000
   32.7282  -21.3270   35.7568 C   0  0  0  0  0  0  0  0  0  0  0  0
   32.1677  -22.0531   34.8194 N   0  0  0  0  0  0  0  0  0  0  0  0
   31.5994  -23.3504   34.8569 C   0  0  0  0  0  0  0  0  0  0  0  0
   31.4174  -23.8654   33.5879 C   0  0  0  0  0  0  0  0  0  0  0  0
   30.8699  -25.1155   33.4475 C   0  0  0  0  0  0  0  0  0  0  0  0
   30.5032  -25.8559   34.5515 C   0  0  0  0  0  0  0  0  0  0  0  0
   30.6948  -25.3199   35.8127 C   0  0  0  0  0  0  0  0  0  0  0  0
   31.2376  -24.0775   35.9885 C   0  0  0  0  0  0  0  0  0  0  0  0
   31.3587  -23.7014   37.3693 N   0  0  0  0  0  0  0  0  0  0  0  0
   32.2983  -22.7560   37.8699 C   0  0  0  0  0  0  0  0  0  0  0  0
   32.5523  -23.0013   39.1817 C   0  0  0  0  0  0  0  0  0  0  0  0
   33.4544  -22.1779   39.8304 C   0  0  0  0  0  0  0  0  0  0  0  0
   34.0624  -21.1453   39.1369 C   0  0  0  0  0  0  0  0  0  0  0  0
   35.2086  -20.0813   39.9175 Cl  0  0  0  0  0  0  0  0  0  0  0  0
   33.7949  -20.9034   37.7944 C   0  0  0  0  0  0  0  0  0  0  0  0
   32.9056  -21.7164   37.1596 C   0  0  0  0  0  0  0  0  0  0  0  0
   30.7108  -24.1673   38.0066 H   0  0  0  0  0  0  0  0  0  0  0  0
   34.8743  -16.5163   35.9573 C   0  0  0  0  0  0  0  0  0  0  0  0
   34.4656  -17.5627   35.0453 N   0  0  0  0  0  0  0  0  0  0  0  0
   35.1717  -18.7539   35.3795 C   0  0  0  0  0  0  0  0  0  0  0  0
   34.4467  -19.9166   34.6825 C   0  0  0  0  0  0  0  0  0  0  0  0
   33.1994  -20.0542   35.3815 N   0  0  0  0  0  0  0  0  0  0  0  0
   32.4606  -18.8630   35.7002 C   0  0  0  0  0  0  0  0  0  0  0  0
   33.0572  -17.6994   34.9212 C   0  0  0  0  0  0  0  0  0  0  0  0
 18 19  1  0  0  0
 19 20  1  0  0  0
 20 21  1  0  0  0
 21 22  1  0  0  0
 22 23  1  0  0  0
 23 24  1  0  0  0
 22  1  1  0  0  0
  1  2  2  0  0  0
  2  3  1  0  0  0
  3  4  2  0  0  0
  4  5  1  0  0  0
  5  6  2  0  0  0
  6  7  1  0  0  0
  7  8  2  0  0  0
  8  9  1  0  0  0
  9 10  1  0  0  0
 10 11  2  0  0  0
 11 12  1  0  0  0
 12 13  2  0  0  0
 13 14  1  0  0  0
 13 15  1  0  0  0
 15 16  2  0  0  0
 24 19  1  0  0  0
 16  1  1  0  0  0
  8  3  1  0  0  0
 16 10  1  0  0  0
  9 17  1  0  0  0
M  END
> <minimizedAffinity>
-4.31782

> <CNNscore>
0.4330382645

> <CNNaffinity>
4.4936547279

> <CNN_VS>
1.9459244013

> <CNNaffinity_variance>
0.2086708993

$$$$
[H]c1c([H])c([H])c2c(c1[H])N=C(N1C([H])([H])C([H])([H])N(C([H])([H])[H])C([H])([H])C1([H])[H])c1c([H])c(Cl)c([H])c([H])c1N2[H]


 24 27  0  0  0  0  0  0  0  0999 V2000
   33.9132  -20.8152   37.2195 C   0  0  0  0  0  0  0  0  0  0  0  0
   32.8218  -21.5425   37.2342 N   0  0  0  0  0  0  0  0  0  0  0  0
   31.5347  -21.3067   36.6911 C   0  0  0  0  0  0  0  0  0  0  0  0
   30.5938  -22.1746   37.2110 C   0  0  0  0  0  0  0  0  0  0  0  0
   29.2934  -22.0826   36.7838 C   0  0  0  0  0  0  0  0  0  0  0  0
   28.9202  -21.1403   35.8488 C   0  0  0  0  0  0  0  0  0  0  0  0
   29.8795  -20.2815   35.3419 C   0  0  0  0  0  0  0  0  0  0  0  0
   31.1841  -20.3458   35.7456 C   0  0  0  0  0  0  0  0  0  0  0  0
   32.0238  -19.3701   35.1087 N   0  0  0  0  0  0  0  0  0  0  0  0
   33.2375  -18.8670   35.6575 C   0  0  0  0  0  0  0  0  0  0  0  0
   33.5049  -17.6367   35.1473 C   0  0  0  0  0  0  0  0  0  0  0  0
   34.6497  -16.9925   35.5796 C   0  0  0  0  0  0  0  0  0  0  0  0
   35.4762  -17.6086   36.5037 C   0  0  0  0  0  0  0  0  0  0  0  0
   36.9324  -16.8303   37.0774 Cl  0  0  0  0  0  0  0  0  0  0  0  0
   35.1929  -18.8681   37.0192 C   0  0  0  0  0  0  0  0  0  0  0  0
   34.0647  -19.4991   36.5905 C   0  0  0  0  0  0  0  0  0  0  0  0
   31.6935  -19.0356   34.2021 H   0  0  0  0  0  0  0  0  0  0  0  0
   38.6965  -21.2805   39.3856 C   0  0  0  0  0  0  0  0  0  0  0  0
   37.4015  -21.9195   39.2949 N   0  0  0  0  0  0  0  0  0  0  0  0
   36.4132  -21.0045   39.7589 C   0  0  0  0  0  0  0  0  0  0  0  0
   35.0505  -21.5382   39.2885 C   0  0  0  0  0  0  0  0  0  0  0  0
   35.0448  -21.3503   37.8645 N   0  0  0  0  0  0  0  0  0  0  0  0
   36.2253  -21.7048   37.1246 C   0  0  0  0  0  0  0  0  0  0  0  0
   37.1411  -22.5143   38.0316 C   0  0  0  0  0  0  0  0  0  0  0  0
 18 19  1  0  0  0
 19 20  1  0  0  0
 20 21  1  0  0  0
 21 22  1  0  0  0
 22 23  1  0  0  0
 23 24  1  0  0  0
 22  1  1  0  0  0
  1  2  2  0  0  0
  2  3  1  0  0  0
  3  4  2  0  0  0
  4  5  1  0  0  0
  5  6  2  0  0  0
  6  7  1  0  0  0
  7  8  2  0  0  0
  8  9  1  0  0  0
  9 10  1  0  0  0
 10 11  2  0  0  0
 11 12  1  0  0  0
 12 13  2  0  0  0
 13 14  1  0  0  0
 13 15  1  0  0  0
 15 16  2  0  0  0
 24 19  1  0  0  0
 16  1  1  0  0  0
  8  3  1  0  0  0
 16 10  1  0  0  0
  9 17  1  0  0  0
M  END
> <minimizedAffinity>
-5.60447

> <CNNscore>
0.4152574837

> <CNNaffinity>
4.2347579002

> <CNN_VS>
1.7585148811

> <CNNaffinity_variance>
0.6819789410

$$$$
[H]c1c([H])c([H])c2c(c1[H])N=C(N1C([H])([H])C([H])([H])N(C([H])([H])[H])C([H])([H])C1([H])[H])c1c([H])c(Cl)c([H])c([H])c1N2[H]


 24 27  0  0  0  0  0  0  0  0999 V2000
   32.9425  -21.7137   36.9318 C   0  0  0  0  0  0  0  0  0  0  0  0
   33.9195  -20.9093   36.5874 N   0  0  0  0  0  0  0  0  0  0  0  0
   33.9464  -19.7910   35.7181 C   0  0  0  0  0  0  0  0  0  0  0  0
   35.2388  -19.4316   35.3875 C   0  0  0  0  0  0  0  0  0  0  0  0
   35.4411  -18.3604   34.5546 C   0  0  0  0  0  0  0  0  0  0  0  0
   34.3758  -17.6456   34.0490 C   0  0  0  0  0  0  0  0  0  0  0  0
   33.0901  -18.0237   34.3936 C   0  0  0  0  0  0  0  0  0  0  0  0
   32.8529  -19.0858   35.2209 C   0  0  0  0  0  0  0  0  0  0  0  0
   31.4556  -19.3214   35.4555 N   0  0  0  0  0  0  0  0  0  0  0  0
   30.8989  -20.5791   35.8236 C   0  0  0  0  0  0  0  0  0  0  0  0
   29.5938  -20.6380   35.4509 C   0  0  0  0  0  0  0  0  0  0  0  0
   28.8949  -21.7992   35.7257 C   0  0  0  0  0  0  0  0  0  0  0  0
   29.5335  -22.8502   36.3616 C   0  0  0  0  0  0  0  0  0  0  0  0
   28.6883  -24.3357   36.7277 Cl  0  0  0  0  0  0  0  0  0  0  0  0
   30.8696  -22.7790   36.7387 C   0  0  0  0  0  0  0  0  0  0  0  0
   31.5540  -21.6334   36.4665 C   0  0  0  0  0  0  0  0  0  0  0  0
   30.8503  -18.5073   35.3379 H   0  0  0  0  0  0  0  0  0  0  0  0
   32.5034  -25.8845   40.1255 C   0  0  0  0  0  0  0  0  0  0  0  0
   33.4654  -25.0589   39.4280 N   0  0  0  0  0  0  0  0  0  0  0  0
   33.1694  -25.0998   38.0352 C   0  0  0  0  0  0  0  0  0  0  0  0
   33.9269  -23.9333   37.3804 C   0  0  0  0  0  0  0  0  0  0  0  0
   33.2560  -22.7475   37.8352 N   0  0  0  0  0  0  0  0  0  0  0  0
   32.9003  -22.6550   39.2249 C   0  0  0  0  0  0  0  0  0  0  0  0
   33.6194  -23.7610   39.9841 C   0  0  0  0  0  0  0  0  0  0  0  0
 18 19  1  0  0  0
 19 20  1  0  0  0
 20 21  1  0  0  0
 21 22  1  0  0  0
 22 23  1  0  0  0
 23 24  1  0  0  0
 22  1  1  0  0  0
  1  2  2  0  0  0
  2  3  1  0  0  0
  3  4  2  0  0  0
  4  5  1  0  0  0
  5  6  2  0  0  0
  6  7  1  0  0  0
  7  8  2  0  0  0
  8  9  1  0  0  0
  9 10  1  0  0  0
 10 11  2  0  0  0
 11 12  1  0  0  0
 12 13  2  0  0  0
 13 14  1  0  0  0
 13 15  1  0  0  0
 15 16  2  0  0  0
 24 19  1  0  0  0
 16  1  1  0  0  0
  8  3  1  0  0  0
 16 10  1  0  0  0
  9 17  1  0  0  0
M  END
> <minimizedAffinity>
-4.39042

> <CNNscore>
0.4038889408

> <CNNaffinity>
4.1054711342

> <CNN_VS>
1.6581543684

> <CNNaffinity_variance>
0.6746202111

$$$$
[H]O[C@](C(=O)N1C([H])([H])C([H])([H])N(C(=O)[C@](O[H])(C([H])([H])[H])C(F)(F)F)[C@]([H])(C([H])([H])[H])C1([H])[H])(c1c([H])c([H])c(-c2c([H])c([H])c([H])c([H])c2C(F)(F)F)c([H])c1[H])C([H])([H])[H]


 39 41  0  0  0  0  0  0  0  0999 V2000
   36.3046  -18.4962   34.6516 C   0  0  0  0  0  0  0  0  0  0  0  0
   36.3022  -17.6703   33.3546 C   0  0  0  0  0  0  0  0  0  0  0  0
   37.3390  -19.4239   34.4718 O   0  0  0  0  0  0  0  0  0  0  0  0
   37.3141  -20.1226   35.1674 H   0  0  0  0  0  0  0  0  0  0  0  0
   36.9306  -13.8097   36.4242 C   0  0  0  0  0  0  0  0  0  0  0  0
   36.1297  -14.4665   37.5009 C   0  0  0  0  0  0  0  0  0  0  0  0
   36.3930  -15.9332   37.5745 C   0  0  0  0  0  0  0  0  0  0  0  0
   35.8232  -16.6317   36.3938 N   0  0  0  0  0  0  0  0  0  0  0  0
   34.5390  -16.1742   35.9724 C   0  0  0  0  0  0  0  0  0  0  0  0
   33.9104  -15.3769   37.1307 C   0  0  0  0  0  0  0  0  0  0  0  0
   34.6796  -14.1971   37.3214 N   0  0  0  0  0  0  0  0  0  0  0  0
   34.2515  -12.8612   37.3900 C   0  0  0  0  0  0  0  0  0  0  0  0
   35.1700  -11.9916   37.6394 O   0  0  0  0  0  0  0  0  0  0  0  0
   36.5760  -17.6738   35.8106 C   0  0  0  0  0  0  0  0  0  0  0  0
   37.6860  -17.9157   36.4307 O   0  0  0  0  0  0  0  0  0  0  0  0
   32.9092  -12.3181   37.2218 C   0  0  0  0  0  0  0  0  0  0  0  0
   32.7977  -10.8834   36.8686 C   0  0  0  0  0  0  0  0  0  0  0  0
   32.2689  -13.0427   36.1620 O   0  0  0  0  0  0  0  0  0  0  0  0
   32.2673  -14.0141   36.4288 H   0  0  0  0  0  0  0  0  0  0  0  0
   32.0682  -12.7134   38.4323 C   0  0  0  0  0  0  0  0  0  0  0  0
   31.7401  -14.0370   38.4736 F   0  0  0  0  0  0  0  0  0  0  0  0
   32.6919  -12.3029   39.6184 F   0  0  0  0  0  0  0  0  0  0  0  0
   30.8583  -12.0074   38.4187 F   0  0  0  0  0  0  0  0  0  0  0  0
   35.0417  -19.2751   34.7416 C   0  0  0  0  0  0  0  0  0  0  0  0
   34.6847  -19.8840   35.9393 C   0  0  0  0  0  0  0  0  0  0  0  0
   33.5374  -20.6265   36.0758 C   0  0  0  0  0  0  0  0  0  0  0  0
   32.6541  -20.8183   35.0172 C   0  0  0  0  0  0  0  0  0  0  0  0
   33.0008  -20.2207   33.8367 C   0  0  0  0  0  0  0  0  0  0  0  0
   34.1789  -19.4591   33.6971 C   0  0  0  0  0  0  0  0  0  0  0  0
   31.4397  -21.5794   35.2103 C   0  0  0  0  0  0  0  0  0  0  0  0
   31.5714  -22.9717   35.2879 C   0  0  0  0  0  0  0  0  0  0  0  0
   30.4887  -23.7926   35.4942 C   0  0  0  0  0  0  0  0  0  0  0  0
   29.2272  -23.2427   35.6308 C   0  0  0  0  0  0  0  0  0  0  0  0
   29.1067  -21.8789   35.5534 C   0  0  0  0  0  0  0  0  0  0  0  0
   30.2009  -21.0241   35.3426 C   0  0  0  0  0  0  0  0  0  0  0  0
   30.0121  -19.5728   35.2449 C   0  0  0  0  0  0  0  0  0  0  0  0
   29.7139  -19.1652   33.9530 F   0  0  0  0  0  0  0  0  0  0  0  0
   30.9642  -18.7980   35.8347 F   0  0  0  0  0  0  0  0  0  0  0  0
   28.8235  -19.2789   35.9635 F   0  0  0  0  0  0  0  0  0  0  0  0
  5  6  1  0  0  0
  6  7  1  0  0  0
  7  8  1  0  0  0
  8  9  1  0  0  0
  9 10  1  0  0  0
 10 11  1  0  0  0
 11 12  1  0  0  0
 12 13  2  0  0  0
 12 16  1  0  0  0
 16 17  1  0  0  0
 16 18  1  0  0  0
 16 20  1  0  0  0
 20 21  1  0  0  0
 20 22  1  0  0  0
 20 23  1  0  0  0
  8 14  1  0  0  0
 14 15  2  0  0  0
 14  1  1  0  0  0
  1  2  1  0  0  0
  1  3  1  0  0  0
  1 24  1  0  0  0
 24 25  2  0  0  0
 25 26  1  0  0  0
 26 27  2  0  0  0
 27 28  1  0  0  0
 28 29  2  0  0  0
 27 30  1  0  0  0
 30 31  2  0  0  0
 31 32  1  0  0  0
 32 33  2  0  0  0
 33 34  1  0  0  0
 34 35  2  0  0  0
 35 36  1  0  0  0
 36 37  1  0  0  0
 36 38  1  0  0  0
 36 39  1  0  0  0
 11  6  1  0  0  0
 29 24  1  0  0  0
 35 30  1  0  0  0
 18 19  1  0  0  0
  3  4  1  0  0  0
M  END
> <minimizedAffinity>
-6.39410

> <CNNscore>
0.2765980661

> <CNNaffinity>
5.6017136574

> <CNN_VS>
1.5494232178

> <CNNaffinity_variance>
0.1791169345

$$$$
[H]O[C@](C(=O)N1C([H])([H])C([H])([H])N(C(=O)[C@](O[H])(C([H])([H])[H])C(F)(F)F)[C@]([H])(C([H])([H])[H])C1([H])[H])(c1c([H])c([H])c(-c2c([H])c([H])c([H])c([H])c2C(F)(F)F)c([H])c1[H])C([H])([H])[H]


 39 41  0  0  0  0  0  0  0  0999 V2000
   35.2881  -18.4658   36.0308 C   0  0  0  0  0  0  0  0  0  0  0  0
   35.9457  -17.1929   36.5891 C   0  0  0  0  0  0  0  0  0  0  0  0
   34.0688  -18.0241   35.5007 O   0  0  0  0  0  0  0  0  0  0  0  0
   33.4829  -18.7850   35.2760 H   0  0  0  0  0  0  0  0  0  0  0  0
   39.5231  -18.1920   33.2945 C   0  0  0  0  0  0  0  0  0  0  0  0
   39.4103  -19.6534   33.5843 C   0  0  0  0  0  0  0  0  0  0  0  0
   37.9902  -20.0804   33.7477 C   0  0  0  0  0  0  0  0  0  0  0  0
   37.4189  -19.5424   35.0091 N   0  0  0  0  0  0  0  0  0  0  0  0
   38.2907  -19.5734   36.1383 C   0  0  0  0  0  0  0  0  0  0  0  0
   39.4329  -20.5613   35.8352 C   0  0  0  0  0  0  0  0  0  0  0  0
   40.2145  -20.0198   34.7787 N   0  0  0  0  0  0  0  0  0  0  0  0
   41.6038  -19.8246   34.7141 C   0  0  0  0  0  0  0  0  0  0  0  0
   42.0534  -19.3710   33.5942 O   0  0  0  0  0  0  0  0  0  0  0  0
   36.0889  -19.0700   34.9881 C   0  0  0  0  0  0  0  0  0  0  0  0
   35.5111  -19.2107   33.8386 O   0  0  0  0  0  0  0  0  0  0  0  0
   42.6130  -20.0671   35.7377 C   0  0  0  0  0  0  0  0  0  0  0  0
   42.6654  -21.4244   36.3298 C   0  0  0  0  0  0  0  0  0  0  0  0
   43.9016  -19.8354   35.1514 O   0  0  0  0  0  0  0  0  0  0  0  0
   43.9056  -18.8858   34.8153 H   0  0  0  0  0  0  0  0  0  0  0  0
   42.5303  -18.9529   36.7774 C   0  0  0  0  0  0  0  0  0  0  0  0
   43.7371  -18.5870   37.2979 F   0  0  0  0  0  0  0  0  0  0  0  0
   41.8395  -17.8488   36.2596 F   0  0  0  0  0  0  0  0  0  0  0  0
   41.7452  -19.3726   37.8591 F   0  0  0  0  0  0  0  0  0  0  0  0
   34.9598  -19.3833   37.1534 C   0  0  0  0  0  0  0  0  0  0  0  0
   35.6542  -19.2884   38.3540 C   0  0  0  0  0  0  0  0  0  0  0  0
   35.4024  -20.1184   39.4190 C   0  0  0  0  0  0  0  0  0  0  0  0
   34.4307  -21.1135   39.3634 C   0  0  0  0  0  0  0  0  0  0  0  0
   33.7444  -21.2104   38.1842 C   0  0  0  0  0  0  0  0  0  0  0  0
   34.0037  -20.3585   37.0913 C   0  0  0  0  0  0  0  0  0  0  0  0
   34.1729  -21.9454   40.5179 C   0  0  0  0  0  0  0  0  0  0  0  0
   33.3035  -21.4299   41.4876 C   0  0  0  0  0  0  0  0  0  0  0  0
   32.9677  -22.1428   42.6135 C   0  0  0  0  0  0  0  0  0  0  0  0
   33.4954  -23.4061   42.8083 C   0  0  0  0  0  0  0  0  0  0  0  0
   34.3461  -23.9034   41.8545 C   0  0  0  0  0  0  0  0  0  0  0  0
   34.7012  -23.1900   40.6981 C   0  0  0  0  0  0  0  0  0  0  0  0
   35.6343  -23.7606   39.7207 C   0  0  0  0  0  0  0  0  0  0  0  0
   36.8204  -23.0456   39.6437 F   0  0  0  0  0  0  0  0  0  0  0  0
   35.1193  -24.0593   38.4960 F   0  0  0  0  0  0  0  0  0  0  0  0
   36.0414  -25.0145   40.2474 F   0  0  0  0  0  0  0  0  0  0  0  0
  5  6  1  0  0  0
  6  7  1  0  0  0
  7  8  1  0  0  0
  8  9  1  0  0  0
  9 10  1  0  0  0
 10 11  1  0  0  0
 11 12  1  0  0  0
 12 13  2  0  0  0
 12 16  1  0  0  0
 16 17  1  0  0  0
 16 18  1  0  0  0
 16 20  1  0  0  0
 20 21  1  0  0  0
 20 22  1  0  0  0
 20 23  1  0  0  0
  8 14  1  0  0  0
 14 15  2  0  0  0
 14  1  1  0  0  0
  1  2  1  0  0  0
  1  3  1  0  0  0
  1 24  1  0  0  0
 24 25  2  0  0  0
 25 26  1  0  0  0
 26 27  2  0  0  0
 27 28  1  0  0  0
 28 29  2  0  0  0
 27 30  1  0  0  0
 30 31  2  0  0  0
 31 32  1  0  0  0
 32 33  2  0  0  0
 33 34  1  0  0  0
 34 35  2  0  0  0
 35 36  1  0  0  0
 36 37  1  0  0  0
 36 38  1  0  0  0
 36 39  1  0  0  0
 11  6  1  0  0  0
 29 24  1  0  0  0
 35 30  1  0  0  0
 18 19  1  0  0  0
  3  4  1  0  0  0
M  END
> <minimizedAffinity>
-5.27856

> <CNNscore>
0.2370676100

> <CNNaffinity>
4.9123373032

> <CNN_VS>
1.1645560265

> <CNNaffinity_variance>
0.4879809916

$$$$
[H]O[C@](C(=O)N1C([H])([H])C([H])([H])N(C(=O)[C@](O[H])(C([H])([H])[H])C(F)(F)F)[C@]([H])(C([H])([H])[H])C1([H])[H])(c1c([H])c([H])c(-c2c([H])c([H])c([H])c([H])c2C(F)(F)F)c([H])c1[H])C([H])([H])[H]


 39 41  0  0  0  0  0  0  0  0999 V2000
   38.0889  -20.2387   36.0355 C   0  0  0  0  0  0  0  0  0  0  0  0
   39.5838  -19.9681   35.7975 C   0  0  0  0  0  0  0  0  0  0  0  0
   37.6370  -20.7843   34.8267 O   0  0  0  0  0  0  0  0  0  0  0  0
   36.6521  -20.8298   34.8041 H   0  0  0  0  0  0  0  0  0  0  0  0
   35.3009  -21.4713   40.0611 C   0  0  0  0  0  0  0  0  0  0  0  0
   35.5332  -22.7921   39.4025 C   0  0  0  0  0  0  0  0  0  0  0  0
   36.8226  -22.8209   38.6525 C   0  0  0  0  0  0  0  0  0  0  0  0
   36.7494  -21.9612   37.4433 N   0  0  0  0  0  0  0  0  0  0  0  0
   35.5208  -22.0245   36.7204 C   0  0  0  0  0  0  0  0  0  0  0  0
   34.7750  -23.3007   37.1535 C   0  0  0  0  0  0  0  0  0  0  0  0
   34.3962  -23.1485   38.5150 N   0  0  0  0  0  0  0  0  0  0  0  0
   33.1344  -23.3174   39.1082 C   0  0  0  0  0  0  0  0  0  0  0  0
   33.0952  -23.1769   40.3892 O   0  0  0  0  0  0  0  0  0  0  0  0
   37.8796  -21.1832   37.1114 C   0  0  0  0  0  0  0  0  0  0  0  0
   38.8795  -21.3602   37.9138 O   0  0  0  0  0  0  0  0  0  0  0  0
   31.8589  -23.6339   38.4774 C   0  0  0  0  0  0  0  0  0  0  0  0
   31.7432  -24.9492   37.8048 C   0  0  0  0  0  0  0  0  0  0  0  0
   30.8462  -23.6126   39.4932 O   0  0  0  0  0  0  0  0  0  0  0  0
   30.8615  -22.6933   39.9048 H   0  0  0  0  0  0  0  0  0  0  0  0
   31.4482  -22.4603   37.5924 C   0  0  0  0  0  0  0  0  0  0  0  0
   30.1314  -22.1194   37.6962 F   0  0  0  0  0  0  0  0  0  0  0  0
   32.2826  -21.3577   37.8212 F   0  0  0  0  0  0  0  0  0  0  0  0
   31.6672  -22.7831   36.2469 F   0  0  0  0  0  0  0  0  0  0  0  0
   37.3771  -18.9461   36.2146 C   0  0  0  0  0  0  0  0  0  0  0  0
   37.2813  -18.0529   35.1537 C   0  0  0  0  0  0  0  0  0  0  0  0
   36.6478  -16.8394   35.2663 C   0  0  0  0  0  0  0  0  0  0  0  0
   36.0585  -16.4241   36.4570 C   0  0  0  0  0  0  0  0  0  0  0  0
   36.1498  -17.2999   37.5037 C   0  0  0  0  0  0  0  0  0  0  0  0
   36.8006  -18.5450   37.3876 C   0  0  0  0  0  0  0  0  0  0  0  0
   35.3720  -15.1531   36.5256 C   0  0  0  0  0  0  0  0  0  0  0  0
   34.0636  -15.1132   36.0272 C   0  0  0  0  0  0  0  0  0  0  0  0
   33.3081  -13.9657   36.0634 C   0  0  0  0  0  0  0  0  0  0  0  0
   33.8415  -12.8101   36.6040 C   0  0  0  0  0  0  0  0  0  0  0  0
   35.1232  -12.8574   37.0895 C   0  0  0  0  0  0  0  0  0  0  0  0
   35.9105  -14.0199   37.0609 C   0  0  0  0  0  0  0  0  0  0  0  0
   37.2849  -14.0089   37.5732 C   0  0  0  0  0  0  0  0  0  0  0  0
   37.7433  -12.7245   37.8267 F   0  0  0  0  0  0  0  0  0  0  0  0
   38.1898  -14.7661   36.8934 F   0  0  0  0  0  0  0  0  0  0  0  0
   37.2309  -14.5980   38.8638 F   0  0  0  0  0  0  0  0  0  0  0  0
  5  6  1  0  0  0
  6  7  1  0  0  0
  7  8  1  0  0  0
  8  9  1  0  0  0
  9 10  1  0  0  0
 10 11  1  0  0  0
 11 12  1  0  0  0
 12 13  2  0  0  0
 12 16  1  0  0  0
 16 17  1  0  0  0
 16 18  1  0  0  0
 16 20  1  0  0  0
 20 21  1  0  0  0
 20 22  1  0  0  0
 20 23  1  0  0  0
  8 14  1  0  0  0
 14 15  2  0  0  0
 14  1  1  0  0  0
  1  2  1  0  0  0
  1  3  1  0  0  0
  1 24  1  0  0  0
 24 25  2  0  0  0
 25 26  1  0  0  0
 26 27  2  0  0  0
 27 28  1  0  0  0
 28 29  2  0  0  0
 27 30  1  0  0  0
 30 31  2  0  0  0
 31 32  1  0  0  0
 32 33  2  0  0  0
 33 34  1  0  0  0
 34 35  2  0  0  0
 35 36  1  0  0  0
 36 37  1  0  0  0
 36 38  1  0  0  0
 36 39  1  0  0  0
 11  6  1  0  0  0
 29 24  1  0  0  0
 35 30  1  0  0  0
 18 19  1  0  0  0
  3  4  1  0  0  0
M  END
> <minimizedAffinity>
-6.72210

> <CNNscore>
0.2073978633

> <CNNaffinity>
4.9331812859

> <CNN_VS>
1.0231312513

> <CNNaffinity_variance>
0.3657602072

$$$$
[H]O[C@](C(=O)N1C([H])([H])C([H])([H])N(C(=O)[C@](O[H])(C([H])([H])[H])C(F)(F)F)[C@]([H])(C([H])([H])[H])C1([H])[H])(c1c([H])c([H])c(-c2c([H])c([H])c([H])c([H])c2C(F)(F)F)c([H])c1[H])C([H])([H])[H]


 39 41  0  0  0  0  0  0  0  0999 V2000
   38.8126  -19.2733   35.8122 C   0  0  0  0  0  0  0  0  0  0  0  0
   38.4212  -20.4487   34.9014 C   0  0  0  0  0  0  0  0  0  0  0  0
   39.5654  -18.4284   34.9862 O   0  0  0  0  0  0  0  0  0  0  0  0
   40.0202  -17.7298   35.5132 H   0  0  0  0  0  0  0  0  0  0  0  0
   34.0584  -17.8409   34.8940 C   0  0  0  0  0  0  0  0  0  0  0  0
   34.0127  -18.2358   36.3342 C   0  0  0  0  0  0  0  0  0  0  0  0
   35.3275  -18.0319   37.0092 C   0  0  0  0  0  0  0  0  0  0  0  0
   36.3285  -19.0163   36.5238 N   0  0  0  0  0  0  0  0  0  0  0  0
   35.8402  -20.3436   36.3347 C   0  0  0  0  0  0  0  0  0  0  0  0
   34.5146  -20.4813   37.1068 C   0  0  0  0  0  0  0  0  0  0  0  0
   33.5528  -19.6406   36.4836 N   0  0  0  0  0  0  0  0  0  0  0  0
   32.2587  -19.9539   36.0367 C   0  0  0  0  0  0  0  0  0  0  0  0
   31.5759  -18.9675   35.5646 O   0  0  0  0  0  0  0  0  0  0  0  0
   37.6502  -18.5694   36.3088 C   0  0  0  0  0  0  0  0  0  0  0  0
   37.8279  -17.3239   36.6127 O   0  0  0  0  0  0  0  0  0  0  0  0
   31.5752  -21.2415   36.0349 C   0  0  0  0  0  0  0  0  0  0  0  0
   31.4087  -21.9223   37.3405 C   0  0  0  0  0  0  0  0  0  0  0  0
   30.2529  -21.0391   35.5168 O   0  0  0  0  0  0  0  0  0  0  0  0
   30.3551  -20.6492   34.5936 H   0  0  0  0  0  0  0  0  0  0  0  0
   32.2059  -22.1267   34.9637 C   0  0  0  0  0  0  0  0  0  0  0  0
   32.7495  -21.4360   33.9203 F   0  0  0  0  0  0  0  0  0  0  0  0
   33.1359  -23.0044   35.5372 F   0  0  0  0  0  0  0  0  0  0  0  0
   31.2321  -22.9702   34.4134 F   0  0  0  0  0  0  0  0  0  0  0  0
   39.7293  -19.7595   36.8767 C   0  0  0  0  0  0  0  0  0  0  0  0
   39.2420  -20.5680   37.8973 C   0  0  0  0  0  0  0  0  0  0  0  0
   40.0399  -21.0343   38.9133 C   0  0  0  0  0  0  0  0  0  0  0  0
   41.3950  -20.7247   38.9865 C   0  0  0  0  0  0  0  0  0  0  0  0
   41.8792  -19.9298   37.9842 C   0  0  0  0  0  0  0  0  0  0  0  0
   41.0596  -19.4511   36.9419 C   0  0  0  0  0  0  0  0  0  0  0  0
   42.2086  -21.2627   40.0543 C   0  0  0  0  0  0  0  0  0  0  0  0
   42.7290  -22.5494   39.8663 C   0  0  0  0  0  0  0  0  0  0  0  0
   43.5349  -23.1503   40.8034 C   0  0  0  0  0  0  0  0  0  0  0  0
   43.8493  -22.4778   41.9701 C   0  0  0  0  0  0  0  0  0  0  0  0
   43.3355  -21.2186   42.1468 C   0  0  0  0  0  0  0  0  0  0  0  0
   42.5103  -20.5885   41.2011 C   0  0  0  0  0  0  0  0  0  0  0  0
   41.9687  -19.2485   41.4512 C   0  0  0  0  0  0  0  0  0  0  0  0
   40.6144  -19.2740   41.7498 F   0  0  0  0  0  0  0  0  0  0  0  0
   42.2892  -18.2872   40.5415 F   0  0  0  0  0  0  0  0  0  0  0  0
   42.5623  -18.8013   42.6608 F   0  0  0  0  0  0  0  0  0  0  0  0
  5  6  1  0  0  0
  6  7  1  0  0  0
  7  8  1  0  0  0
  8  9  1  0  0  0
  9 10  1  0  0  0
 10 11  1  0  0  0
 11 12  1  0  0  0
 12 13  2  0  0  0
 12 16  1  0  0  0
 16 17  1  0  0  0
 16 18  1  0  0  0
 16 20  1  0  0  0
 20 21  1  0  0  0
 20 22  1  0  0  0
 20 23  1  0  0  0
  8 14  1  0  0  0
 14 15  2  0  0  0
 14  1  1  0  0  0
  1  2  1  0  0  0
  1  3  1  0  0  0
  1 24  1  0  0  0
 24 25  2  0  0  0
 25 26  1  0  0  0
 26 27  2  0  0  0
 27 28  1  0  0  0
 28 29  2  0  0  0
 27 30  1  0  0  0
 30 31  2  0  0  0
 31 32  1  0  0  0
 32 33  2  0  0  0
 33 34  1  0  0  0
 34 35  2  0  0  0
 35 36  1  0  0  0
 36 37  1  0  0  0
 36 38  1  0  0  0
 36 39  1  0  0  0
 11  6  1  0  0  0
 29 24  1  0  0  0
 35 30  1  0  0  0
 18 19  1  0  0  0
  3  4  1  0  0  0
M  END
> <minimizedAffinity>
-6.37908

> <CNNscore>
0.1773710400

> <CNNaffinity>
4.6228942871

> <CNN_VS>
0.8199675679

> <CNNaffinity_variance>
0.1516905576

$$$$
[H]O[C@](C(=O)N1C([H])([H])C([H])([H])N(C(=O)[C@](O[H])(C([H])([H])[H])C(F)(F)F)[C@]([H])(C([H])([H])[H])C1([H])[H])(c1c([H])c([H])c(-c2c([H])c([H])c([H])c([H])c2C(F)(F)F)c([H])c1[H])C([H])([H])[H]


 39 41  0  0  0  0  0  0  0  0999 V2000
   36.6944  -18.5982   35.6028 C   0  0  0  0  0  0  0  0  0  0  0  0
   38.1695  -18.3525   35.2449 C   0  0  0  0  0  0  0  0  0  0  0  0
   36.0841  -18.8971   34.3775 O   0  0  0  0  0  0  0  0  0  0  0  0
   35.1014  -18.8961   34.4610 H   0  0  0  0  0  0  0  0  0  0  0  0
   33.8817  -20.7044   39.2290 C   0  0  0  0  0  0  0  0  0  0  0  0
   34.2858  -21.8793   38.3993 C   0  0  0  0  0  0  0  0  0  0  0  0
   35.6027  -21.6631   37.7322 C   0  0  0  0  0  0  0  0  0  0  0  0
   35.4898  -20.6414   36.6597 N   0  0  0  0  0  0  0  0  0  0  0  0
   34.3087  -20.7182   35.8628 C   0  0  0  0  0  0  0  0  0  0  0  0
   33.6882  -22.1142   36.0586 C   0  0  0  0  0  0  0  0  0  0  0  0
   33.2350  -22.2100   37.4024 N   0  0  0  0  0  0  0  0  0  0  0  0
   31.9741  -22.5940   37.8873 C   0  0  0  0  0  0  0  0  0  0  0  0
   31.8630  -22.6546   39.1703 O   0  0  0  0  0  0  0  0  0  0  0  0
   36.5418  -19.7115   36.5140 C   0  0  0  0  0  0  0  0  0  0  0  0
   37.5185  -19.9062   37.3406 O   0  0  0  0  0  0  0  0  0  0  0  0
   30.7701  -22.9385   37.1412 C   0  0  0  0  0  0  0  0  0  0  0  0
   30.9117  -23.9228   36.0427 C   0  0  0  0  0  0  0  0  0  0  0  0
   29.8246  -23.4996   38.0628 O   0  0  0  0  0  0  0  0  0  0  0  0
   29.6591  -22.8054   38.7737 H   0  0  0  0  0  0  0  0  0  0  0  0
   30.0744  -21.6485   36.7159 C   0  0  0  0  0  0  0  0  0  0  0  0
   29.4832  -21.7139   35.4881 F   0  0  0  0  0  0  0  0  0  0  0  0
   29.1672  -21.2327   37.7000 F   0  0  0  0  0  0  0  0  0  0  0  0
   31.0089  -20.6070   36.6487 F   0  0  0  0  0  0  0  0  0  0  0  0
   36.0872  -17.3301   36.0856 C   0  0  0  0  0  0  0  0  0  0  0  0
   34.8622  -16.9099   35.5802 C   0  0  0  0  0  0  0  0  0  0  0  0
   34.2616  -15.7410   35.9796 C   0  0  0  0  0  0  0  0  0  0  0  0
   34.8450  -14.8977   36.9209 C   0  0  0  0  0  0  0  0  0  0  0  0
   36.0502  -15.3073   37.4215 C   0  0  0  0  0  0  0  0  0  0  0  0
   36.6664  -16.5069   37.0107 C   0  0  0  0  0  0  0  0  0  0  0  0
   34.1648  -13.6921   37.3397 C   0  0  0  0  0  0  0  0  0  0  0  0
   33.0395  -13.8524   38.1581 C   0  0  0  0  0  0  0  0  0  0  0  0
   32.3302  -12.7765   38.6355 C   0  0  0  0  0  0  0  0  0  0  0  0
   32.7269  -11.4931   38.3068 C   0  0  0  0  0  0  0  0  0  0  0  0
   33.8293  -11.3447   37.5049 C   0  0  0  0  0  0  0  0  0  0  0  0
   34.5664  -12.4316   37.0072 C   0  0  0  0  0  0  0  0  0  0  0  0
   35.7249  -12.2164   36.1337 C   0  0  0  0  0  0  0  0  0  0  0  0
   35.6302  -12.9278   34.9467 F   0  0  0  0  0  0  0  0  0  0  0  0
   36.9506  -12.3261   36.7169 F   0  0  0  0  0  0  0  0  0  0  0  0
   35.6556  -10.8630   35.7107 F   0  0  0  0  0  0  0  0  0  0  0  0
  5  6  1  0  0  0
  6  7  1  0  0  0
  7  8  1  0  0  0
  8  9  1  0  0  0
  9 10  1  0  0  0
 10 11  1  0  0  0
 11 12  1  0  0  0
 12 13  2  0  0  0
 12 16  1  0  0  0
 16 17  1  0  0  0
 16 18  1  0  0  0
 16 20  1  0  0  0
 20 21  1  0  0  0
 20 22  1  0  0  0
 20 23  1  0  0  0
  8 14  1  0  0  0
 14 15  2  0  0  0
 14  1  1  0  0  0
  1  2  1  0  0  0
  1  3  1  0  0  0
  1 24  1  0  0  0
 24 25  2  0  0  0
 25 26  1  0  0  0
 26 27  2  0  0  0
 27 28  1  0  0  0
 28 29  2  0  0  0
 27 30  1  0  0  0
 30 31  2  0  0  0
 31 32  1  0  0  0
 32 33  2  0  0  0
 33 34  1  0  0  0
 34 35  2  0  0  0
 35 36  1  0  0  0
 36 37  1  0  0  0
 36 38  1  0  0  0
 36 39  1  0  0  0
 11  6  1  0  0  0
 29 24  1  0  0  0
 35 30  1  0  0  0
 18 19  1  0  0  0
  3  4  1  0  0  0
M  END
> <minimizedAffinity>
-6.75344

> <CNNscore>
0.1760749817

> <CNNaffinity>
5.1550498009

> <CNN_VS>
0.9076753259

> <CNNaffinity_variance>
0.1664042771

$$$$
[H]O[C@](C(=O)N1C([H])([H])C([H])([H])N(C(=O)[C@](O[H])(C([H])([H])[H])C(F)(F)F)[C@]([H])(C([H])([H])[H])C1([H])[H])(c1c([H])c([H])c(-c2c([H])c([H])c([H])c([H])c2C(F)(F)F)c([H])c1[H])C([H])([H])[H]


 39 41  0  0  0  0  0  0  0  0999 V2000
   34.8469  -18.0865   35.9148 C   0  0  0  0  0  0  0  0  0  0  0  0
   35.0986  -18.3683   34.4243 C   0  0  0  0  0  0  0  0  0  0  0  0
   33.5436  -18.5481   36.1412 O   0  0  0  0  0  0  0  0  0  0  0  0
   33.2109  -18.2542   37.0218 H   0  0  0  0  0  0  0  0  0  0  0  0
   38.0771  -21.9507   36.2775 C   0  0  0  0  0  0  0  0  0  0  0  0
   38.7893  -20.8550   37.0017 C   0  0  0  0  0  0  0  0  0  0  0  0
   37.8378  -19.8895   37.6249 C   0  0  0  0  0  0  0  0  0  0  0  0
   37.1501  -19.0807   36.5857 N   0  0  0  0  0  0  0  0  0  0  0  0
   37.9722  -18.6488   35.5025 C   0  0  0  0  0  0  0  0  0  0  0  0
   39.4442  -18.7737   35.9383 C   0  0  0  0  0  0  0  0  0  0  0  0
   39.7398  -20.1546   36.0997 N   0  0  0  0  0  0  0  0  0  0  0  0
   40.7968  -20.9041   35.5580 C   0  0  0  0  0  0  0  0  0  0  0  0
   40.8569  -22.1368   35.9305 O   0  0  0  0  0  0  0  0  0  0  0  0
   35.7772  -18.8026   36.7604 C   0  0  0  0  0  0  0  0  0  0  0  0
   35.2932  -19.2745   37.8642 O   0  0  0  0  0  0  0  0  0  0  0  0
   41.8415  -20.4816   34.6333 C   0  0  0  0  0  0  0  0  0  0  0  0
   42.6045  -19.2608   34.9844 C   0  0  0  0  0  0  0  0  0  0  0  0
   42.8031  -21.5419   34.5386 O   0  0  0  0  0  0  0  0  0  0  0  0
   42.3084  -22.3604   34.2223 H   0  0  0  0  0  0  0  0  0  0  0  0
   41.2604  -20.4506   33.2225 C   0  0  0  0  0  0  0  0  0  0  0  0
   41.5133  -19.2957   32.5418 F   0  0  0  0  0  0  0  0  0  0  0  0
   41.6755  -21.5750   32.4959 F   0  0  0  0  0  0  0  0  0  0  0  0
   39.8664  -20.5760   33.2822 F   0  0  0  0  0  0  0  0  0  0  0  0
   34.8265  -16.6176   36.1415 C   0  0  0  0  0  0  0  0  0  0  0  0
   33.7738  -15.8534   35.6509 C   0  0  0  0  0  0  0  0  0  0  0  0
   33.7102  -14.4917   35.8188 C   0  0  0  0  0  0  0  0  0  0  0  0
   34.7018  -13.7860   36.4944 C   0  0  0  0  0  0  0  0  0  0  0  0
   35.7394  -14.5337   36.9794 C   0  0  0  0  0  0  0  0  0  0  0  0
   35.8043  -15.9313   36.8063 C   0  0  0  0  0  0  0  0  0  0  0  0
   34.5816  -12.3567   36.6789 C   0  0  0  0  0  0  0  0  0  0  0  0
   35.4622  -11.5484   35.9488 C   0  0  0  0  0  0  0  0  0  0  0  0
   35.4222  -10.1769   36.0269 C   0  0  0  0  0  0  0  0  0  0  0  0
   34.4917   -9.5634   36.8456 C   0  0  0  0  0  0  0  0  0  0  0  0
   33.6335  -10.3618   37.5574 C   0  0  0  0  0  0  0  0  0  0  0  0
   33.6594  -11.7644   37.4909 C   0  0  0  0  0  0  0  0  0  0  0  0
   32.7328  -12.5714   38.2919 C   0  0  0  0  0  0  0  0  0  0  0  0
   33.3503  -13.6761   38.8597 F   0  0  0  0  0  0  0  0  0  0  0  0
   31.5391  -12.8761   37.7115 F   0  0  0  0  0  0  0  0  0  0  0  0
   32.3856  -11.7766   39.4158 F   0  0  0  0  0  0  0  0  0  0  0  0
  5  6  1  0  0  0
  6  7  1  0  0  0
  7  8  1  0  0  0
  8  9  1  0  0  0
  9 10  1  0  0  0
 10 11  1  0  0  0
 11 12  1  0  0  0
 12 13  2  0  0  0
 12 16  1  0  0  0
 16 17  1  0  0  0
 16 18  1  0  0  0
 16 20  1  0  0  0
 20 21  1  0  0  0
 20 22  1  0  0  0
 20 23  1  0  0  0
  8 14  1  0  0  0
 14 15  2  0  0  0
 14  1  1  0  0  0
  1  2  1  0  0  0
  1  3  1  0  0  0
  1 24  1  0  0  0
 24 25  2  0  0  0
 25 26  1  0  0  0
 26 27  2  0  0  0
 27 28  1  0  0  0
 28 29  2  0  0  0
 27 30  1  0  0  0
 30 31  2  0  0  0
 31 32  1  0  0  0
 32 33  2  0  0  0
 33 34  1  0  0  0
 34 35  2  0  0  0
 35 36  1  0  0  0
 36 37  1  0  0  0
 36 38  1  0  0  0
 36 39  1  0  0  0
 11  6  1  0  0  0
 29 24  1  0  0  0
 35 30  1  0  0  0
 18 19  1  0  0  0
  3  4  1  0  0  0
M  END
> <minimizedAffinity>
-8.17636

> <CNNscore>
0.1711460650

> <CNNaffinity>
5.3753862381

> <CNN_VS>
0.9199761748

> <CNNaffinity_variance>
0.5640335083

$$$$
[H]O[C@](C(=O)N1C([H])([H])C([H])([H])N(C(=O)[C@](O[H])(C([H])([H])[H])C(F)(F)F)[C@]([H])(C([H])([H])[H])C1([H])[H])(c1c([H])c([H])c(-c2c([H])c([H])c([H])c([H])c2C(F)(F)F)c([H])c1[H])C([H])([H])[H]


 39 41  0  0  0  0  0  0  0  0999 V2000
   35.7065  -18.3811   34.6942 C   0  0  0  0  0  0  0  0  0  0  0  0
   35.5565  -17.6679   33.3403 C   0  0  0  0  0  0  0  0  0  0  0  0
   36.7004  -19.3434   34.4726 O   0  0  0  0  0  0  0  0  0  0  0  0
   36.7518  -19.9801   35.2241 H   0  0  0  0  0  0  0  0  0  0  0  0
   36.4457  -13.5646   36.0178 C   0  0  0  0  0  0  0  0  0  0  0  0
   35.8418  -14.1571   37.2491 C   0  0  0  0  0  0  0  0  0  0  0  0
   36.1607  -15.6085   37.3824 C   0  0  0  0  0  0  0  0  0  0  0  0
   35.4388  -16.4040   36.3563 N   0  0  0  0  0  0  0  0  0  0  0  0
   34.0910  -16.0061   36.1095 C   0  0  0  0  0  0  0  0  0  0  0  0
   33.6226  -15.1392   37.2934 C   0  0  0  0  0  0  0  0  0  0  0  0
   34.3734  -13.9325   37.2795 N   0  0  0  0  0  0  0  0  0  0  0  0
   33.9179  -12.6046   37.3210 C   0  0  0  0  0  0  0  0  0  0  0  0
   34.8352  -11.6996   37.3632 O   0  0  0  0  0  0  0  0  0  0  0  0
   36.1263  -17.4700   35.7368 C   0  0  0  0  0  0  0  0  0  0  0  0
   37.3257  -17.6419   36.1916 O   0  0  0  0  0  0  0  0  0  0  0  0
   32.5488  -12.1040   37.3267 C   0  0  0  0  0  0  0  0  0  0  0  0
   32.3556  -10.6556   37.0802 C   0  0  0  0  0  0  0  0  0  0  0  0
   31.8245  -12.7865   36.2936 O   0  0  0  0  0  0  0  0  0  0  0  0
   31.8816  -13.7717   36.4958 H   0  0  0  0  0  0  0  0  0  0  0  0
   31.8522  -12.6042   38.5890 C   0  0  0  0  0  0  0  0  0  0  0  0
   31.4354  -13.9013   38.5176 F   0  0  0  0  0  0  0  0  0  0  0  0
   32.6592  -12.3864   39.7140 F   0  0  0  0  0  0  0  0  0  0  0  0
   30.7072  -11.8350   38.8339 F   0  0  0  0  0  0  0  0  0  0  0  0
   34.4547  -19.1214   35.0020 C   0  0  0  0  0  0  0  0  0  0  0  0
   33.4242  -19.1615   34.0697 C   0  0  0  0  0  0  0  0  0  0  0  0
   32.2412  -19.8181   34.3060 C   0  0  0  0  0  0  0  0  0  0  0  0
   31.9973  -20.4887   35.5011 C   0  0  0  0  0  0  0  0  0  0  0  0
   33.0086  -20.4525   36.4214 C   0  0  0  0  0  0  0  0  0  0  0  0
   34.2223  -19.7779   36.1784 C   0  0  0  0  0  0  0  0  0  0  0  0
   30.7515  -21.1963   35.6984 C   0  0  0  0  0  0  0  0  0  0  0  0
   29.7052  -20.4808   36.2945 C   0  0  0  0  0  0  0  0  0  0  0  0
   28.4702  -21.0445   36.5083 C   0  0  0  0  0  0  0  0  0  0  0  0
   28.2392  -22.3543   36.1296 C   0  0  0  0  0  0  0  0  0  0  0  0
   29.2688  -23.0480   35.5470 C   0  0  0  0  0  0  0  0  0  0  0  0
   30.5373  -22.4894   35.3209 C   0  0  0  0  0  0  0  0  0  0  0  0
   31.6106  -23.2843   34.7146 C   0  0  0  0  0  0  0  0  0  0  0  0
   32.6114  -23.5990   35.6221 F   0  0  0  0  0  0  0  0  0  0  0  0
   32.1002  -22.8330   33.5267 F   0  0  0  0  0  0  0  0  0  0  0  0
   31.0410  -24.5471   34.4043 F   0  0  0  0  0  0  0  0  0  0  0  0
  5  6  1  0  0  0
  6  7  1  0  0  0
  7  8  1  0  0  0
  8  9  1  0  0  0
  9 10  1  0  0  0
 10 11  1  0  0  0
 11 12  1  0  0  0
 12 13  2  0  0  0
 12 16  1  0  0  0
 16 17  1  0  0  0
 16 18  1  0  0  0
 16 20  1  0  0  0
 20 21  1  0  0  0
 20 22  1  0  0  0
 20 23  1  0  0  0
  8 14  1  0  0  0
 14 15  2  0  0  0
 14  1  1  0  0  0
  1  2  1  0  0  0
  1  3  1  0  0  0
  1 24  1  0  0  0
 24 25  2  0  0  0
 25 26  1  0  0  0
 26 27  2  0  0  0
 27 28  1  0  0  0
 28 29  2  0  0  0
 27 30  1  0  0  0
 30 31  2  0  0  0
 31 32  1  0  0  0
 32 33  2  0  0  0
 33 34  1  0  0  0
 34 35  2  0  0  0
 35 36  1  0  0  0
 36 37  1  0  0  0
 36 38  1  0  0  0
 36 39  1  0  0  0
 11  6  1  0  0  0
 29 24  1  0  0  0
 35 30  1  0  0  0
 18 19  1  0  0  0
  3  4  1  0  0  0
M  END
> <minimizedAffinity>
-6.36008

> <CNNscore>
0.1595724374

> <CNNaffinity>
5.4259476662

> <CNN_VS>
0.8658316731

> <CNNaffinity_variance>
0.0400768295

$$$$
[H]O[C@](C(=O)N1C([H])([H])C([H])([H])N(C(=O)[C@](O[H])(C([H])([H])[H])C(F)(F)F)[C@]([H])(C([H])([H])[H])C1([H])[H])(c1c([H])c([H])c(-c2c([H])c([H])c([H])c([H])c2C(F)(F)F)c([H])c1[H])C([H])([H])[H]


 39 41  0  0  0  0  0  0  0  0999 V2000
   37.8772  -20.1770   36.0934 C   0  0  0  0  0  0  0  0  0  0  0  0
   39.4029  -19.9854   36.0826 C   0  0  0  0  0  0  0  0  0  0  0  0
   37.5854  -20.7192   34.8349 O   0  0  0  0  0  0  0  0  0  0  0  0
   36.6142  -20.7158   34.6635 H   0  0  0  0  0  0  0  0  0  0  0  0
   39.0611  -24.2532   38.8286 C   0  0  0  0  0  0  0  0  0  0  0  0
   38.4227  -23.3529   39.8356 C   0  0  0  0  0  0  0  0  0  0  0  0
   37.4106  -22.4507   39.2132 C   0  0  0  0  0  0  0  0  0  0  0  0
   38.0688  -21.4268   38.3616 N   0  0  0  0  0  0  0  0  0  0  0  0
   39.2685  -20.8669   38.8938 C   0  0  0  0  0  0  0  0  0  0  0  0
   39.3080  -21.1657   40.4043 C   0  0  0  0  0  0  0  0  0  0  0  0
   39.4488  -22.5701   40.5717 N   0  0  0  0  0  0  0  0  0  0  0  0
   40.3827  -23.2817   41.3423 C   0  0  0  0  0  0  0  0  0  0  0  0
   40.2329  -24.5620   41.3610 O   0  0  0  0  0  0  0  0  0  0  0  0
   37.4591  -21.0921   37.1332 C   0  0  0  0  0  0  0  0  0  0  0  0
   36.3454  -21.7176   36.9245 O   0  0  0  0  0  0  0  0  0  0  0  0
   41.4995  -22.7740   42.1298 C   0  0  0  0  0  0  0  0  0  0  0  0
   41.1836  -21.8151   43.2144 C   0  0  0  0  0  0  0  0  0  0  0  0
   42.1417  -23.8924   42.7581 O   0  0  0  0  0  0  0  0  0  0  0  0
   42.4332  -24.5157   42.0224 H   0  0  0  0  0  0  0  0  0  0  0  0
   42.5829  -22.2781   41.1762 C   0  0  0  0  0  0  0  0  0  0  0  0
   42.5728  -22.8894   39.9566 F   0  0  0  0  0  0  0  0  0  0  0  0
   42.5254  -20.8834   41.0508 F   0  0  0  0  0  0  0  0  0  0  0  0
   43.8470  -22.5213   41.7288 F   0  0  0  0  0  0  0  0  0  0  0  0
   37.2145  -18.8477   36.1512 C   0  0  0  0  0  0  0  0  0  0  0  0
   36.6480  -18.4049   37.3411 C   0  0  0  0  0  0  0  0  0  0  0  0
   36.0115  -17.1926   37.4484 C   0  0  0  0  0  0  0  0  0  0  0  0
   35.8920  -16.3253   36.3663 C   0  0  0  0  0  0  0  0  0  0  0  0
   36.4484  -16.7564   35.1934 C   0  0  0  0  0  0  0  0  0  0  0  0
   37.1011  -18.0011   35.0838 C   0  0  0  0  0  0  0  0  0  0  0  0
   35.2434  -15.0429   36.5285 C   0  0  0  0  0  0  0  0  0  0  0  0
   33.9262  -14.9371   36.0641 C   0  0  0  0  0  0  0  0  0  0  0  0
   33.2044  -13.7742   36.1879 C   0  0  0  0  0  0  0  0  0  0  0  0
   33.7818  -12.6689   36.7856 C   0  0  0  0  0  0  0  0  0  0  0  0
   35.0718  -12.7806   37.2373 C   0  0  0  0  0  0  0  0  0  0  0  0
   35.8252  -13.9599   37.1193 C   0  0  0  0  0  0  0  0  0  0  0  0
   37.2101  -14.0175   37.5993 C   0  0  0  0  0  0  0  0  0  0  0  0
   38.0995  -14.3873   36.6012 F   0  0  0  0  0  0  0  0  0  0  0  0
   37.4185  -14.6892   38.7654 F   0  0  0  0  0  0  0  0  0  0  0  0
   37.5836  -12.6794   37.8915 F   0  0  0  0  0  0  0  0  0  0  0  0
  5  6  1  0  0  0
  6  7  1  0  0  0
  7  8  1  0  0  0
  8  9  1  0  0  0
  9 10  1  0  0  0
 10 11  1  0  0  0
 11 12  1  0  0  0
 12 13  2  0  0  0
 12 16  1  0  0  0
 16 17  1  0  0  0
 16 18  1  0  0  0
 16 20  1  0  0  0
 20 21  1  0  0  0
 20 22  1  0  0  0
 20 23  1  0  0  0
  8 14  1  0  0  0
 14 15  2  0  0  0
 14  1  1  0  0  0
  1  2  1  0  0  0
  1  3  1  0  0  0
  1 24  1  0  0  0
 24 25  2  0  0  0
 25 26  1  0  0  0
 26 27  2  0  0  0
 27 28  1  0  0  0
 28 29  2  0  0  0
 27 30  1  0  0  0
 30 31  2  0  0  0
 31 32  1  0  0  0
 32 33  2  0  0  0
 33 34  1  0  0  0
 34 35  2  0  0  0
 35 36  1  0  0  0
 36 37  1  0  0  0
 36 38  1  0  0  0
 36 39  1  0  0  0
 11  6  1  0  0  0
 29 24  1  0  0  0
 35 30  1  0  0  0
 18 19  1  0  0  0
  3  4  1  0  0  0
M  END
> <minimizedAffinity>
-6.57359

> <CNNscore>
0.1551029533

> <CNNaffinity>
4.7765135765

> <CNN_VS>
0.7408513427

> <CNNaffinity_variance>
0.2530991435

$$$$
[H]O[C@](C(=O)N1C([H])([H])C([H])([H])N(C(=O)[C@](O[H])(C([H])([H])[H])C(F)(F)F)[C@]([H])(C([H])([H])[H])C1([H])[H])(c1c([H])c([H])c(-c2c([H])c([H])c([H])c([H])c2C(F)(F)F)c([H])c1[H])C([H])([H])[H]


 39 41  0  0  0  0  0  0  0  0999 V2000
   37.8820  -20.2063   36.1905 C   0  0  0  0  0  0  0  0  0  0  0  0
   39.4071  -20.0162   36.2389 C   0  0  0  0  0  0  0  0  0  0  0  0
   37.6390  -20.7511   34.9228 O   0  0  0  0  0  0  0  0  0  0  0  0
   36.6753  -20.7472   34.7135 H   0  0  0  0  0  0  0  0  0  0  0  0
   34.4662  -21.0919   39.8024 C   0  0  0  0  0  0  0  0  0  0  0  0
   34.6218  -22.4312   39.1586 C   0  0  0  0  0  0  0  0  0  0  0  0
   35.9850  -22.6160   38.5811 C   0  0  0  0  0  0  0  0  0  0  0  0
   36.1735  -21.7538   37.3862 N   0  0  0  0  0  0  0  0  0  0  0  0
   35.0508  -21.6678   36.5098 C   0  0  0  0  0  0  0  0  0  0  0  0
   34.1071  -22.8441   36.8228 C   0  0  0  0  0  0  0  0  0  0  0  0
   33.5754  -22.6472   38.1262 N   0  0  0  0  0  0  0  0  0  0  0  0
   32.2361  -22.6619   38.5488 C   0  0  0  0  0  0  0  0  0  0  0  0
   32.0477  -22.5177   39.8159 O   0  0  0  0  0  0  0  0  0  0  0  0
   37.4225  -21.1185   37.2153 C   0  0  0  0  0  0  0  0  0  0  0  0
   38.2809  -21.4153   38.1373 O   0  0  0  0  0  0  0  0  0  0  0  0
   31.0248  -22.8216   37.7535 C   0  0  0  0  0  0  0  0  0  0  0  0
   30.7686  -24.1592   37.1697 C   0  0  0  0  0  0  0  0  0  0  0  0
   29.9012  -22.5302   38.5964 O   0  0  0  0  0  0  0  0  0  0  0  0
   30.0247  -21.5901   38.9368 H   0  0  0  0  0  0  0  0  0  0  0  0
   30.9596  -21.6897   36.7320 C   0  0  0  0  0  0  0  0  0  0  0  0
   31.7948  -20.6458   37.0041 F   0  0  0  0  0  0  0  0  0  0  0  0
   31.1637  -22.1851   35.4369 F   0  0  0  0  0  0  0  0  0  0  0  0
   29.6637  -21.1589   36.6960 F   0  0  0  0  0  0  0  0  0  0  0  0
   37.2189  -18.8762   36.2193 C   0  0  0  0  0  0  0  0  0  0  0  0
   36.6628  -18.4025   37.4021 C   0  0  0  0  0  0  0  0  0  0  0  0
   36.0265  -17.1880   37.4832 C   0  0  0  0  0  0  0  0  0  0  0  0
   35.8968  -16.3495   36.3797 C   0  0  0  0  0  0  0  0  0  0  0  0
   36.4430  -16.8111   35.2137 C   0  0  0  0  0  0  0  0  0  0  0  0
   37.0954  -18.0580   35.1310 C   0  0  0  0  0  0  0  0  0  0  0  0
   35.2489  -15.0636   36.5140 C   0  0  0  0  0  0  0  0  0  0  0  0
   33.9387  -14.9618   36.0292 C   0  0  0  0  0  0  0  0  0  0  0  0
   33.2179  -13.7957   36.1258 C   0  0  0  0  0  0  0  0  0  0  0  0
   33.7892  -12.6830   36.7156 C   0  0  0  0  0  0  0  0  0  0  0  0
   35.0723  -12.7908   37.1873 C   0  0  0  0  0  0  0  0  0  0  0  0
   35.8246  -13.9733   37.0973 C   0  0  0  0  0  0  0  0  0  0  0  0
   37.2023  -14.0268   37.5979 C   0  0  0  0  0  0  0  0  0  0  0  0
   38.0970  -14.4689   36.6346 F   0  0  0  0  0  0  0  0  0  0  0  0
   37.3845  -14.6333   38.8035 F   0  0  0  0  0  0  0  0  0  0  0  0
   37.5962  -12.6806   37.8174 F   0  0  0  0  0  0  0  0  0  0  0  0
  5  6  1  0  0  0
  6  7  1  0  0  0
  7  8  1  0  0  0
  8  9  1  0  0  0
  9 10  1  0  0  0
 10 11  1  0  0  0
 11 12  1  0  0  0
 12 13  2  0  0  0
 12 16  1  0  0  0
 16 17  1  0  0  0
 16 18  1  0  0  0
 16 20  1  0  0  0
 20 21  1  0  0  0
 20 22  1  0  0  0
 20 23  1  0  0  0
  8 14  1  0  0  0
 14 15  2  0  0  0
 14  1  1  0  0  0
  1  2  1  0  0  0
  1  3  1  0  0  0
  1 24  1  0  0  0
 24 25  2  0  0  0
 25 26  1  0  0  0
 26 27  2  0  0  0
 27 28  1  0  0  0
 28 29  2  0  0  0
 27 30  1  0  0  0
 30 31  2  0  0  0
 31 32  1  0  0  0
 32 33  2  0  0  0
 33 34  1  0  0  0
 34 35  2  0  0  0
 35 36  1  0  0  0
 36 37  1  0  0  0
 36 38  1  0  0  0
 36 39  1  0  0  0
 11  6  1  0  0  0
 29 24  1  0  0  0
 35 30  1  0  0  0
 18 19  1  0  0  0
  3  4  1  0  0  0
M  END
> <minimizedAffinity>
-7.38159

> <CNNscore>
0.1532858312

> <CNNaffinity>
4.9738974571

> <CNN_VS>
0.7624279857

> <CNNaffinity_variance>
0.3971530795

$$$$
[H]c1nc([H])c(-c2c(OC([H])([H])C(=O)N([H])c3c([H])c([H])c([H])c(C(F)(F)F)c3[H])c([H])c3sc(N([H])C(=O)N([H])C([H])([H])C([H])([H])[H])nc3c2[H])c([H])c1[H]


 39 42  0  0  0  0  0  0  0  0999 V2000
   34.4346  -12.5890   36.8030 C   0  0  0  0  0  0  0  0  0  0  0  0
   33.7694  -13.6368   36.3696 N   0  0  0  0  0  0  0  0  0  0  0  0
   34.3889  -14.7790   36.2124 C   0  0  0  0  0  0  0  0  0  0  0  0
   33.8233  -15.9766   35.7216 C   0  0  0  0  0  0  0  0  0  0  0  0
   34.5361  -17.1402   35.5509 C   0  0  0  0  0  0  0  0  0  0  0  0
   35.8637  -17.1628   35.8676 C   0  0  0  0  0  0  0  0  0  0  0  0
   36.4727  -16.0182   36.3545 C   0  0  0  0  0  0  0  0  0  0  0  0
   35.7110  -14.8527   36.5093 C   0  0  0  0  0  0  0  0  0  0  0  0
   36.0286  -13.2544   37.0076 S   0  0  0  0  0  0  0  0  0  0  0  0
   34.4759   -8.8487   36.5303 N   0  0  0  0  0  0  0  0  0  0  0  0
   34.6719  -10.2411   36.3582 C   0  0  0  0  0  0  0  0  0  0  0  0
   35.4875  -10.5766   35.4348 O   0  0  0  0  0  0  0  0  0  0  0  0
   34.0430  -11.2354   37.1206 N   0  0  0  0  0  0  0  0  0  0  0  0
   33.8486   -8.5111   37.2670 H   0  0  0  0  0  0  0  0  0  0  0  0
   33.3614  -11.0209   37.8331 H   0  0  0  0  0  0  0  0  0  0  0  0
   34.1859   -6.9963   34.9491 C   0  0  0  0  0  0  0  0  0  0  0  0
   35.1495   -7.8951   35.6752 C   0  0  0  0  0  0  0  0  0  0  0  0
   33.8536  -18.3303   35.0116 C   0  0  0  0  0  0  0  0  0  0  0  0
   32.6880  -18.7735   35.6159 C   0  0  0  0  0  0  0  0  0  0  0  0
   32.0151  -19.8955   35.1143 C   0  0  0  0  0  0  0  0  0  0  0  0
   32.5524  -20.5208   34.0315 C   0  0  0  0  0  0  0  0  0  0  0  0
   33.6758  -20.1148   33.4317 N   0  0  0  0  0  0  0  0  0  0  0  0
   34.3215  -19.0203   33.9233 C   0  0  0  0  0  0  0  0  0  0  0  0
   36.6416  -18.2960   35.7097 O   0  0  0  0  0  0  0  0  0  0  0  0
   37.2037  -18.9463   36.8440 C   0  0  0  0  0  0  0  0  0  0  0  0
   36.0807  -19.6671   37.5514 C   0  0  0  0  0  0  0  0  0  0  0  0
   35.5515  -19.0833   38.5482 O   0  0  0  0  0  0  0  0  0  0  0  0
   35.6414  -20.9277   37.1320 N   0  0  0  0  0  0  0  0  0  0  0  0
   36.1588  -21.3420   36.2991 H   0  0  0  0  0  0  0  0  0  0  0  0
   34.6133  -21.6834   37.7466 C   0  0  0  0  0  0  0  0  0  0  0  0
   33.8706  -22.5294   36.9044 C   0  0  0  0  0  0  0  0  0  0  0  0
   32.9033  -23.3434   37.4222 C   0  0  0  0  0  0  0  0  0  0  0  0
   32.6363  -23.3522   38.7687 C   0  0  0  0  0  0  0  0  0  0  0  0
   33.3533  -22.5323   39.5753 C   0  0  0  0  0  0  0  0  0  0  0  0
   34.3332  -21.7051   39.0721 C   0  0  0  0  0  0  0  0  0  0  0  0
   33.0695  -22.5447   41.0563 C   0  0  0  0  0  0  0  0  0  0  0  0
   31.8391  -23.0472   41.3230 F   0  0  0  0  0  0  0  0  0  0  0  0
   34.0887  -23.1761   41.7234 F   0  0  0  0  0  0  0  0  0  0  0  0
   33.0753  -21.2127   41.4970 F   0  0  0  0  0  0  0  0  0  0  0  0
 16 17  1  0  0  0
 17 10  1  0  0  0
 10 11  1  0  0  0
 11 12  2  0  0  0
 11 13  1  0  0  0
 13  1  1  0  0  0
  1  2  2  0  0  0
  2  3  1  0  0  0
  3  4  2  0  0  0
  4  5  1  0  0  0
  5 18  1  0  0  0
 18 19  2  0  0  0
 19 20  1  0  0  0
 20 21  2  0  0  0
 21 22  1  0  0  0
 22 23  2  0  0  0
  5  6  2  0  0  0
  6 24  1  0  0  0
 24 25  1  0  0  0
 25 26  1  0  0  0
 26 27  2  0  0  0
 26 28  1  0  0  0
 28 30  1  0  0  0
 30 31  2  0  0  0
 31 32  1  0  0  0
 32 33  2  0  0  0
 33 34  1  0  0  0
 34 35  2  0  0  0
 34 36  1  0  0  0
 36 37  1  0  0  0
 36 38  1  0  0  0
 36 39  1  0  0  0
  6  7  1  0  0  0
  7  8  2  0  0  0
  8  9  1  0  0  0
  9  1  1  0  0  0
  8  3  1  0  0  0
 23 18  1  0  0  0
 35 30  1  0  0  0
 10 14  1  0  0  0
 13 15  1  0  0  0
 28 29  1  0  0  0
M  END
> <minimizedAffinity>
-7.66357

> <CNNscore>
0.5569975376

> <CNNaffinity>
6.6863288879

> <CNN_VS>
3.7242686749

> <CNNaffinity_variance>
0.2183537483

$$$$
[H]c1nc([H])c(-c2c(OC([H])([H])C(=O)N([H])c3c([H])c([H])c([H])c(C(F)(F)F)c3[H])c([H])c3sc(N([H])C(=O)N([H])C([H])([H])C([H])([H])[H])nc3c2[H])c([H])c1[H]


 39 42  0  0  0  0  0  0  0  0999 V2000
   34.4504  -12.5845   36.8381 C   0  0  0  0  0  0  0  0  0  0  0  0
   33.7586  -13.6093   36.3918 N   0  0  0  0  0  0  0  0  0  0  0  0
   34.3422  -14.7718   36.2458 C   0  0  0  0  0  0  0  0  0  0  0  0
   33.7460  -15.9498   35.7440 C   0  0  0  0  0  0  0  0  0  0  0  0
   34.4223  -17.1368   35.5863 C   0  0  0  0  0  0  0  0  0  0  0  0
   35.7421  -17.2039   35.9277 C   0  0  0  0  0  0  0  0  0  0  0  0
   36.3800  -16.0803   36.4265 C   0  0  0  0  0  0  0  0  0  0  0  0
   35.6552  -14.8899   36.5675 C   0  0  0  0  0  0  0  0  0  0  0  0
   36.0170  -13.3030   37.0722 S   0  0  0  0  0  0  0  0  0  0  0  0
   34.5719   -8.8495   36.5187 N   0  0  0  0  0  0  0  0  0  0  0  0
   34.7310  -10.2481   36.3587 C   0  0  0  0  0  0  0  0  0  0  0  0
   35.5148  -10.6135   35.4193 O   0  0  0  0  0  0  0  0  0  0  0  0
   34.0987  -11.2184   37.1489 N   0  0  0  0  0  0  0  0  0  0  0  0
   33.9716   -8.4887   37.2667 H   0  0  0  0  0  0  0  0  0  0  0  0
   33.4406  -10.9795   37.8756 H   0  0  0  0  0  0  0  0  0  0  0  0
   34.2950   -6.9471   34.9956 C   0  0  0  0  0  0  0  0  0  0  0  0
   35.2457   -7.9222   35.6353 C   0  0  0  0  0  0  0  0  0  0  0  0
   33.7103  -18.3033   35.0338 C   0  0  0  0  0  0  0  0  0  0  0  0
   32.4905  -18.6715   35.5783 C   0  0  0  0  0  0  0  0  0  0  0  0
   31.7895  -19.7697   35.0626 C   0  0  0  0  0  0  0  0  0  0  0  0
   32.3544  -20.4480   34.0267 C   0  0  0  0  0  0  0  0  0  0  0  0
   33.5300  -20.1147   33.4850 N   0  0  0  0  0  0  0  0  0  0  0  0
   34.2030  -19.0428   33.9898 C   0  0  0  0  0  0  0  0  0  0  0  0
   36.4843  -18.3627   35.7840 O   0  0  0  0  0  0  0  0  0  0  0  0
   36.8161  -19.1501   36.9221 C   0  0  0  0  0  0  0  0  0  0  0  0
   38.3073  -19.3874   36.8855 C   0  0  0  0  0  0  0  0  0  0  0  0
   38.7981  -20.1437   37.7809 O   0  0  0  0  0  0  0  0  0  0  0  0
   39.1185  -18.7972   35.9100 N   0  0  0  0  0  0  0  0  0  0  0  0
   38.6173  -18.1661   35.2146 H   0  0  0  0  0  0  0  0  0  0  0  0
   40.5235  -18.9465   35.8128 C   0  0  0  0  0  0  0  0  0  0  0  0
   40.9901  -19.8562   34.8477 C   0  0  0  0  0  0  0  0  0  0  0  0
   42.3310  -20.0152   34.6397 C   0  0  0  0  0  0  0  0  0  0  0  0
   43.2468  -19.2949   35.3654 C   0  0  0  0  0  0  0  0  0  0  0  0
   42.7913  -18.4217   36.2965 C   0  0  0  0  0  0  0  0  0  0  0  0
   41.4433  -18.2468   36.5201 C   0  0  0  0  0  0  0  0  0  0  0  0
   43.7934  -17.6218   37.0902 C   0  0  0  0  0  0  0  0  0  0  0  0
   45.0317  -17.6922   36.5431 F   0  0  0  0  0  0  0  0  0  0  0  0
   43.3334  -16.3420   37.2714 F   0  0  0  0  0  0  0  0  0  0  0  0
   43.8738  -18.1966   38.3676 F   0  0  0  0  0  0  0  0  0  0  0  0
 16 17  1  0  0  0
 17 10  1  0  0  0
 10 11  1  0  0  0
 11 12  2  0  0  0
 11 13  1  0  0  0
 13  1  1  0  0  0
  1  2  2  0  0  0
  2  3  1  0  0  0
  3  4  2  0  0  0
  4  5  1  0  0  0
  5 18  1  0  0  0
 18 19  2  0  0  0
 19 20  1  0  0  0
 20 21  2  0  0  0
 21 22  1  0  0  0
 22 23  2  0  0  0
  5  6  2  0  0  0
  6 24  1  0  0  0
 24 25  1  0  0  0
 25 26  1  0  0  0
 26 27  2  0  0  0
 26 28  1  0  0  0
 28 30  1  0  0  0
 30 31  2  0  0  0
 31 32  1  0  0  0
 32 33  2  0  0  0
 33 34  1  0  0  0
 34 35  2  0  0  0
 34 36  1  0  0  0
 36 37  1  0  0  0
 36 38  1  0  0  0
 36 39  1  0  0  0
  6  7  1  0  0  0
  7  8  2  0  0  0
  8  9  1  0  0  0
  9  1  1  0  0  0
  8  3  1  0  0  0
 23 18  1  0  0  0
 35 30  1  0  0  0
 10 14  1  0  0  0
 13 15  1  0  0  0
 28 29  1  0  0  0
M  END
> <minimizedAffinity>
-8.93043

> <CNNscore>
0.5003762245

> <CNNaffinity>
6.7409849167

> <CNN_VS>
3.3730285168

> <CNNaffinity_variance>
0.2282057554

$$$$
[H]c1nc([H])c(-c2c(OC([H])([H])C(=O)N([H])c3c([H])c([H])c([H])c(C(F)(F)F)c3[H])c([H])c3sc(N([H])C(=O)N([H])C([H])([H])C([H])([H])[H])nc3c2[H])c([H])c1[H]


 39 42  0  0  0  0  0  0  0  0999 V2000
   34.4347  -12.5259   36.9565 C   0  0  0  0  0  0  0  0  0  0  0  0
   33.7325  -13.5247   36.4694 N   0  0  0  0  0  0  0  0  0  0  0  0
   34.2819  -14.7068   36.3504 C   0  0  0  0  0  0  0  0  0  0  0  0
   33.6726  -15.8619   35.8123 C   0  0  0  0  0  0  0  0  0  0  0  0
   34.3143  -17.0717   35.6865 C   0  0  0  0  0  0  0  0  0  0  0  0
   35.6106  -17.1861   36.0987 C   0  0  0  0  0  0  0  0  0  0  0  0
   36.2596  -16.0869   36.6357 C   0  0  0  0  0  0  0  0  0  0  0  0
   35.5706  -14.8719   36.7421 C   0  0  0  0  0  0  0  0  0  0  0  0
   35.9601  -13.2999   37.2721 S   0  0  0  0  0  0  0  0  0  0  0  0
   34.5694   -8.8016   36.5351 N   0  0  0  0  0  0  0  0  0  0  0  0
   34.7059  -10.2053   36.4014 C   0  0  0  0  0  0  0  0  0  0  0  0
   35.4271  -10.6021   35.4254 O   0  0  0  0  0  0  0  0  0  0  0  0
   34.1149  -11.1489   37.2534 N   0  0  0  0  0  0  0  0  0  0  0  0
   34.0195   -8.4159   37.3092 H   0  0  0  0  0  0  0  0  0  0  0  0
   33.5050  -10.8852   38.0128 H   0  0  0  0  0  0  0  0  0  0  0  0
   34.2113   -6.9524   34.9641 C   0  0  0  0  0  0  0  0  0  0  0  0
   35.1957   -7.9035   35.5887 C   0  0  0  0  0  0  0  0  0  0  0  0
   33.5928  -18.2111   35.0917 C   0  0  0  0  0  0  0  0  0  0  0  0
   34.2181  -18.9742   34.1186 C   0  0  0  0  0  0  0  0  0  0  0  0
   33.5568  -20.0692   33.5467 C   0  0  0  0  0  0  0  0  0  0  0  0
   32.2947  -20.3390   33.9784 C   0  0  0  0  0  0  0  0  0  0  0  0
   31.6688  -19.6178   34.9136 N   0  0  0  0  0  0  0  0  0  0  0  0
   32.3207  -18.5573   35.4677 C   0  0  0  0  0  0  0  0  0  0  0  0
   36.3183  -18.3701   35.9906 O   0  0  0  0  0  0  0  0  0  0  0  0
   36.7542  -19.0567   37.1585 C   0  0  0  0  0  0  0  0  0  0  0  0
   35.6756  -20.0479   37.5264 C   0  0  0  0  0  0  0  0  0  0  0  0
   34.8722  -19.7161   38.4532 O   0  0  0  0  0  0  0  0  0  0  0  0
   35.5650  -21.2832   36.8784 N   0  0  0  0  0  0  0  0  0  0  0  0
   36.2951  -21.4766   36.1283 H   0  0  0  0  0  0  0  0  0  0  0  0
   34.6016  -22.2789   37.1718 C   0  0  0  0  0  0  0  0  0  0  0  0
   35.0236  -23.3312   38.0032 C   0  0  0  0  0  0  0  0  0  0  0  0
   34.1426  -24.3006   38.3914 C   0  0  0  0  0  0  0  0  0  0  0  0
   32.8336  -24.2688   37.9795 C   0  0  0  0  0  0  0  0  0  0  0  0
   32.4332  -23.2537   37.1757 C   0  0  0  0  0  0  0  0  0  0  0  0
   33.3064  -22.2667   36.7743 C   0  0  0  0  0  0  0  0  0  0  0  0
   30.9940  -23.2098   36.7276 C   0  0  0  0  0  0  0  0  0  0  0  0
   30.3974  -24.4209   36.8503 F   0  0  0  0  0  0  0  0  0  0  0  0
   30.3340  -22.1930   37.3703 F   0  0  0  0  0  0  0  0  0  0  0  0
   30.9878  -22.8836   35.3630 F   0  0  0  0  0  0  0  0  0  0  0  0
 16 17  1  0  0  0
 17 10  1  0  0  0
 10 11  1  0  0  0
 11 12  2  0  0  0
 11 13  1  0  0  0
 13  1  1  0  0  0
  1  2  2  0  0  0
  2  3  1  0  0  0
  3  4  2  0  0  0
  4  5  1  0  0  0
  5 18  1  0  0  0
 18 19  2  0  0  0
 19 20  1  0  0  0
 20 21  2  0  0  0
 21 22  1  0  0  0
 22 23  2  0  0  0
  5  6  2  0  0  0
  6 24  1  0  0  0
 24 25  1  0  0  0
 25 26  1  0  0  0
 26 27  2  0  0  0
 26 28  1  0  0  0
 28 30  1  0  0  0
 30 31  2  0  0  0
 31 32  1  0  0  0
 32 33  2  0  0  0
 33 34  1  0  0  0
 34 35  2  0  0  0
 34 36  1  0  0  0
 36 37  1  0  0  0
 36 38  1  0  0  0
 36 39  1  0  0  0
  6  7  1  0  0  0
  7  8  2  0  0  0
  8  9  1  0  0  0
  9  1  1  0  0  0
  8  3  1  0  0  0
 23 18  1  0  0  0
 35 30  1  0  0  0
 10 14  1  0  0  0
 13 15  1  0  0  0
 28 29  1  0  0  0
M  END
> <minimizedAffinity>
-7.78802

> <CNNscore>
0.4927837253

> <CNNaffinity>
6.5764837265

> <CNN_VS>
3.2407841682

> <CNNaffinity_variance>
0.0429858789

$$$$
[H]c1nc([H])c(-c2c(OC([H])([H])C(=O)N([H])c3c([H])c([H])c([H])c(C(F)(F)F)c3[H])c([H])c3sc(N([H])C(=O)N([H])C([H])([H])C([H])([H])[H])nc3c2[H])c([H])c1[H]


 39 42  0  0  0  0  0  0  0  0999 V2000
   34.4506  -12.7118   36.8548 C   0  0  0  0  0  0  0  0  0  0  0  0
   33.7743  -13.8030   36.5720 N   0  0  0  0  0  0  0  0  0  0  0  0
   34.4139  -14.9229   36.3483 C   0  0  0  0  0  0  0  0  0  0  0  0
   33.8335  -16.1617   35.9967 C   0  0  0  0  0  0  0  0  0  0  0  0
   34.5637  -17.2994   35.7447 C   0  0  0  0  0  0  0  0  0  0  0  0
   35.9249  -17.2529   35.8343 C   0  0  0  0  0  0  0  0  0  0  0  0
   36.5500  -16.0653   36.1764 C   0  0  0  0  0  0  0  0  0  0  0  0
   35.7690  -14.9284   36.4209 C   0  0  0  0  0  0  0  0  0  0  0  0
   36.0869  -13.2999   36.8090 S   0  0  0  0  0  0  0  0  0  0  0  0
   34.4390   -8.9697   36.6040 N   0  0  0  0  0  0  0  0  0  0  0  0
   34.6468  -10.3586   36.4178 C   0  0  0  0  0  0  0  0  0  0  0  0
   35.4397  -10.6788   35.4696 O   0  0  0  0  0  0  0  0  0  0  0  0
   34.0520  -11.3649   37.1918 N   0  0  0  0  0  0  0  0  0  0  0  0
   33.8290   -8.6440   37.3604 H   0  0  0  0  0  0  0  0  0  0  0  0
   33.3885  -11.1629   37.9247 H   0  0  0  0  0  0  0  0  0  0  0  0
   34.1187   -6.9478   35.2530 C   0  0  0  0  0  0  0  0  0  0  0  0
   35.0764   -8.0030   35.7359 C   0  0  0  0  0  0  0  0  0  0  0  0
   33.8596  -18.5375   35.3648 C   0  0  0  0  0  0  0  0  0  0  0  0
   33.1803  -18.5863   34.1581 C   0  0  0  0  0  0  0  0  0  0  0  0
   32.5133  -19.7559   33.7700 C   0  0  0  0  0  0  0  0  0  0  0  0
   32.5577  -20.8182   34.6195 C   0  0  0  0  0  0  0  0  0  0  0  0
   33.2039  -20.7963   35.7894 N   0  0  0  0  0  0  0  0  0  0  0  0
   33.8535  -19.6564   36.1571 C   0  0  0  0  0  0  0  0  0  0  0  0
   36.7199  -18.3570   35.5830 O   0  0  0  0  0  0  0  0  0  0  0  0
   37.0445  -18.7203   34.2459 C   0  0  0  0  0  0  0  0  0  0  0  0
   38.5070  -19.0967   34.2246 C   0  0  0  0  0  0  0  0  0  0  0  0
   38.8828  -19.9205   33.3331 O   0  0  0  0  0  0  0  0  0  0  0  0
   39.4130  -18.5656   35.1494 N   0  0  0  0  0  0  0  0  0  0  0  0
   38.9993  -17.8979   35.8678 H   0  0  0  0  0  0  0  0  0  0  0  0
   40.7928  -18.8777   35.2167 C   0  0  0  0  0  0  0  0  0  0  0  0
   41.6323  -18.1961   34.3182 C   0  0  0  0  0  0  0  0  0  0  0  0
   42.9847  -18.3861   34.3570 C   0  0  0  0  0  0  0  0  0  0  0  0
   43.5499  -19.2428   35.2685 C   0  0  0  0  0  0  0  0  0  0  0  0
   42.7355  -19.8995   36.1300 C   0  0  0  0  0  0  0  0  0  0  0  0
   41.3697  -19.7205   36.1070 C   0  0  0  0  0  0  0  0  0  0  0  0
   43.3525  -20.8352   37.1388 C   0  0  0  0  0  0  0  0  0  0  0  0
   44.4894  -20.3187   37.6663 F   0  0  0  0  0  0  0  0  0  0  0  0
   42.4168  -21.1994   38.0738 F   0  0  0  0  0  0  0  0  0  0  0  0
   43.7097  -22.0099   36.4599 F   0  0  0  0  0  0  0  0  0  0  0  0
 16 17  1  0  0  0
 17 10  1  0  0  0
 10 11  1  0  0  0
 11 12  2  0  0  0
 11 13  1  0  0  0
 13  1  1  0  0  0
  1  2  2  0  0  0
  2  3  1  0  0  0
  3  4  2  0  0  0
  4  5  1  0  0  0
  5 18  1  0  0  0
 18 19  2  0  0  0
 19 20  1  0  0  0
 20 21  2  0  0  0
 21 22  1  0  0  0
 22 23  2  0  0  0
  5  6  2  0  0  0
  6 24  1  0  0  0
 24 25  1  0  0  0
 25 26  1  0  0  0
 26 27  2  0  0  0
 26 28  1  0  0  0
 28 30  1  0  0  0
 30 31  2  0  0  0
 31 32  1  0  0  0
 32 33  2  0  0  0
 33 34  1  0  0  0
 34 35  2  0  0  0
 34 36  1  0  0  0
 36 37  1  0  0  0
 36 38  1  0  0  0
 36 39  1  0  0  0
  6  7  1  0  0  0
  7  8  2  0  0  0
  8  9  1  0  0  0
  9  1  1  0  0  0
  8  3  1  0  0  0
 23 18  1  0  0  0
 35 30  1  0  0  0
 10 14  1  0  0  0
 13 15  1  0  0  0
 28 29  1  0  0  0
M  END
> <minimizedAffinity>
-8.37370

> <CNNscore>
0.4838836789

> <CNNaffinity>
6.7804007530

> <CNN_VS>
3.2809252739

> <CNNaffinity_variance>
0.1399342716

$$$$
[H]c1nc([H])c(-c2c(OC([H])([H])C(=O)N([H])c3c([H])c([H])c([H])c(C(F)(F)F)c3[H])c([H])c3sc(N([H])C(=O)N([H])C([H])([H])C([H])([H])[H])nc3c2[H])c([H])c1[H]


 39 42  0  0  0  0  0  0  0  0999 V2000
   34.4207  -12.7127   36.8751 C   0  0  0  0  0  0  0  0  0  0  0  0
   33.7172  -13.7713   36.5395 N   0  0  0  0  0  0  0  0  0  0  0  0
   34.3217  -14.9144   36.3366 C   0  0  0  0  0  0  0  0  0  0  0  0
   33.7116  -16.1236   35.9358 C   0  0  0  0  0  0  0  0  0  0  0  0
   34.4074  -17.2880   35.7096 C   0  0  0  0  0  0  0  0  0  0  0  0
   35.7622  -17.2996   35.8763 C   0  0  0  0  0  0  0  0  0  0  0  0
   36.4152  -16.1433   36.2694 C   0  0  0  0  0  0  0  0  0  0  0  0
   35.6691  -14.9776   36.4853 C   0  0  0  0  0  0  0  0  0  0  0  0
   36.0313  -13.3684   36.9133 S   0  0  0  0  0  0  0  0  0  0  0  0
   34.4970   -8.9732   36.5982 N   0  0  0  0  0  0  0  0  0  0  0  0
   34.6684  -10.3680   36.4191 C   0  0  0  0  0  0  0  0  0  0  0  0
   35.4408  -10.7138   35.4630 O   0  0  0  0  0  0  0  0  0  0  0  0
   34.0594  -11.3543   37.2077 N   0  0  0  0  0  0  0  0  0  0  0  0
   33.9050   -8.6277   37.3601 H   0  0  0  0  0  0  0  0  0  0  0  0
   33.4107  -11.1312   37.9477 H   0  0  0  0  0  0  0  0  0  0  0  0
   34.2111   -6.9472   35.2457 C   0  0  0  0  0  0  0  0  0  0  0  0
   35.1464   -8.0282   35.7152 C   0  0  0  0  0  0  0  0  0  0  0  0
   33.6757  -18.4910   35.2735 C   0  0  0  0  0  0  0  0  0  0  0  0
   33.5954  -19.5801   36.1264 C   0  0  0  0  0  0  0  0  0  0  0  0
   32.8955  -20.7305   35.7389 C   0  0  0  0  0  0  0  0  0  0  0  0
   32.3153  -20.7305   34.5078 C   0  0  0  0  0  0  0  0  0  0  0  0
   32.3796  -19.6943   33.6659 N   0  0  0  0  0  0  0  0  0  0  0  0
   33.0586  -18.5779   34.0524 C   0  0  0  0  0  0  0  0  0  0  0  0
   36.5240  -18.4331   35.6549 O   0  0  0  0  0  0  0  0  0  0  0  0
   37.8498  -18.5196   36.1649 C   0  0  0  0  0  0  0  0  0  0  0  0
   37.9219  -19.7616   37.0214 C   0  0  0  0  0  0  0  0  0  0  0  0
   36.8856  -20.4952   37.0707 O   0  0  0  0  0  0  0  0  0  0  0  0
   39.0789  -20.0916   37.7359 N   0  0  0  0  0  0  0  0  0  0  0  0
   39.8878  -19.4056   37.6446 H   0  0  0  0  0  0  0  0  0  0  0  0
   39.2279  -21.2208   38.5776 C   0  0  0  0  0  0  0  0  0  0  0  0
   39.6462  -22.4114   37.9580 C   0  0  0  0  0  0  0  0  0  0  0  0
   39.8790  -23.5328   38.7028 C   0  0  0  0  0  0  0  0  0  0  0  0
   39.7095  -23.5216   40.0650 C   0  0  0  0  0  0  0  0  0  0  0  0
   39.3032  -22.3719   40.6565 C   0  0  0  0  0  0  0  0  0  0  0  0
   39.0643  -21.2308   39.9226 C   0  0  0  0  0  0  0  0  0  0  0  0
   39.1239  -22.3522   42.1536 C   0  0  0  0  0  0  0  0  0  0  0  0
   39.7268  -21.2746   42.7129 F   0  0  0  0  0  0  0  0  0  0  0  0
   37.7941  -22.4755   42.4679 F   0  0  0  0  0  0  0  0  0  0  0  0
   39.7582  -23.4928   42.6685 F   0  0  0  0  0  0  0  0  0  0  0  0
 16 17  1  0  0  0
 17 10  1  0  0  0
 10 11  1  0  0  0
 11 12  2  0  0  0
 11 13  1  0  0  0
 13  1  1  0  0  0
  1  2  2  0  0  0
  2  3  1  0  0  0
  3  4  2  0  0  0
  4  5  1  0  0  0
  5 18  1  0  0  0
 18 19  2  0  0  0
 19 20  1  0  0  0
 20 21  2  0  0  0
 21 22  1  0  0  0
 22 23  2  0  0  0
  5  6  2  0  0  0
  6 24  1  0  0  0
 24 25  1  0  0  0
 25 26  1  0  0  0
 26 27  2  0  0  0
 26 28  1  0  0  0
 28 30  1  0  0  0
 30 31  2  0  0  0
 31 32  1  0  0  0
 32 33  2  0  0  0
 33 34  1  0  0  0
 34 35  2  0  0  0
 34 36  1  0  0  0
 36 37  1  0  0  0
 36 38  1  0  0  0
 36 39  1  0  0  0
  6  7  1  0  0  0
  7  8  2  0  0  0
  8  9  1  0  0  0
  9  1  1  0  0  0
  8  3  1  0  0  0
 23 18  1  0  0  0
 35 30  1  0  0  0
 10 14  1  0  0  0
 13 15  1  0  0  0
 28 29  1  0  0  0
M  END
> <minimizedAffinity>
-7.25464

> <CNNscore>
0.4832810163

> <CNNaffinity>
6.4023199081

> <CNN_VS>
3.0941197872

> <CNNaffinity_variance>
0.0752928257

$$$$
[H]c1nc([H])c(-c2c(OC([H])([H])C(=O)N([H])c3c([H])c([H])c([H])c(C(F)(F)F)c3[H])c([H])c3sc(N([H])C(=O)N([H])C([H])([H])C([H])([H])[H])nc3c2[H])c([H])c1[H]


 39 42  0  0  0  0  0  0  0  0999 V2000
   34.4318  -12.7001   36.8562 C   0  0  0  0  0  0  0  0  0  0  0  0
   33.7611  -13.7783   36.5160 N   0  0  0  0  0  0  0  0  0  0  0  0
   34.3958  -14.9103   36.3458 C   0  0  0  0  0  0  0  0  0  0  0  0
   33.8237  -16.1379   35.9450 C   0  0  0  0  0  0  0  0  0  0  0  0
   34.5508  -17.2895   35.7544 C   0  0  0  0  0  0  0  0  0  0  0  0
   35.9002  -17.2689   35.9588 C   0  0  0  0  0  0  0  0  0  0  0  0
   36.5167  -16.0934   36.3538 C   0  0  0  0  0  0  0  0  0  0  0  0
   35.7395  -14.9417   36.5328 C   0  0  0  0  0  0  0  0  0  0  0  0
   36.0545  -13.3193   36.9483 S   0  0  0  0  0  0  0  0  0  0  0  0
   34.4622   -8.9616   36.5569 N   0  0  0  0  0  0  0  0  0  0  0  0
   34.6652  -10.3545   36.3970 C   0  0  0  0  0  0  0  0  0  0  0  0
   35.4919  -10.6936   35.4850 O   0  0  0  0  0  0  0  0  0  0  0  0
   34.0318  -11.3457   37.1599 N   0  0  0  0  0  0  0  0  0  0  0  0
   33.8258   -8.6211   37.2844 H   0  0  0  0  0  0  0  0  0  0  0  0
   33.3418  -11.1286   37.8634 H   0  0  0  0  0  0  0  0  0  0  0  0
   34.1844   -7.0922   34.9936 C   0  0  0  0  0  0  0  0  0  0  0  0
   35.1415   -8.0117   35.7022 C   0  0  0  0  0  0  0  0  0  0  0  0
   33.8579  -18.5141   35.3149 C   0  0  0  0  0  0  0  0  0  0  0  0
   33.9377  -18.8965   33.9855 C   0  0  0  0  0  0  0  0  0  0  0  0
   33.2972  -20.0628   33.5464 C   0  0  0  0  0  0  0  0  0  0  0  0
   32.6016  -20.7846   34.4669 C   0  0  0  0  0  0  0  0  0  0  0  0
   32.5075  -20.4366   35.7540 N   0  0  0  0  0  0  0  0  0  0  0  0
   33.1370  -19.3033   36.1735 C   0  0  0  0  0  0  0  0  0  0  0  0
   36.6924  -18.3882   35.7743 O   0  0  0  0  0  0  0  0  0  0  0  0
   37.7938  -18.6403   36.6396 C   0  0  0  0  0  0  0  0  0  0  0  0
   37.5029  -19.9273   37.3745 C   0  0  0  0  0  0  0  0  0  0  0  0
   36.3339  -20.4117   37.2590 O   0  0  0  0  0  0  0  0  0  0  0  0
   38.4767  -20.5607   38.1547 N   0  0  0  0  0  0  0  0  0  0  0  0
   39.4193  -20.0686   38.2035 H   0  0  0  0  0  0  0  0  0  0  0  0
   38.2863  -21.7543   38.8928 C   0  0  0  0  0  0  0  0  0  0  0  0
   37.8813  -21.6039   40.2308 C   0  0  0  0  0  0  0  0  0  0  0  0
   37.6109  -22.7014   40.9981 C   0  0  0  0  0  0  0  0  0  0  0  0
   37.7289  -23.9681   40.4823 C   0  0  0  0  0  0  0  0  0  0  0  0
   38.1226  -24.1070   39.1929 C   0  0  0  0  0  0  0  0  0  0  0  0
   38.3989  -23.0126   38.4033 C   0  0  0  0  0  0  0  0  0  0  0  0
   38.2454  -25.4962   38.6193 C   0  0  0  0  0  0  0  0  0  0  0  0
   37.0886  -26.1914   38.7470 F   0  0  0  0  0  0  0  0  0  0  0  0
   38.7209  -25.4321   37.3339 F   0  0  0  0  0  0  0  0  0  0  0  0
   39.2192  -26.1756   39.3667 F   0  0  0  0  0  0  0  0  0  0  0  0
 16 17  1  0  0  0
 17 10  1  0  0  0
 10 11  1  0  0  0
 11 12  2  0  0  0
 11 13  1  0  0  0
 13  1  1  0  0  0
  1  2  2  0  0  0
  2  3  1  0  0  0
  3  4  2  0  0  0
  4  5  1  0  0  0
  5 18  1  0  0  0
 18 19  2  0  0  0
 19 20  1  0  0  0
 20 21  2  0  0  0
 21 22  1  0  0  0
 22 23  2  0  0  0
  5  6  2  0  0  0
  6 24  1  0  0  0
 24 25  1  0  0  0
 25 26  1  0  0  0
 26 27  2  0  0  0
 26 28  1  0  0  0
 28 30  1  0  0  0
 30 31  2  0  0  0
 31 32  1  0  0  0
 32 33  2  0  0  0
 33 34  1  0  0  0
 34 35  2  0  0  0
 34 36  1  0  0  0
 36 37  1  0  0  0
 36 38  1  0  0  0
 36 39  1  0  0  0
  6  7  1  0  0  0
  7  8  2  0  0  0
  8  9  1  0  0  0
  9  1  1  0  0  0
  8  3  1  0  0  0
 23 18  1  0  0  0
 35 30  1  0  0  0
 10 14  1  0  0  0
 13 15  1  0  0  0
 28 29  1  0  0  0
M  END
> <minimizedAffinity>
-7.09025

> <CNNscore>
0.4191088974

> <CNNaffinity>
6.3061060905

> <CNN_VS>
2.6429452896

> <CNNaffinity_variance>
0.0825938731

$$$$
[H]c1nc([H])c(-c2c(OC([H])([H])C(=O)N([H])c3c([H])c([H])c([H])c(C(F)(F)F)c3[H])c([H])c3sc(N([H])C(=O)N([H])C([H])([H])C([H])([H])[H])nc3c2[H])c([H])c1[H]


 39 42  0  0  0  0  0  0  0  0999 V2000
   35.3780  -13.1024   36.3525 C   0  0  0  0  0  0  0  0  0  0  0  0
   34.5783  -14.0667   35.9541 N   0  0  0  0  0  0  0  0  0  0  0  0
   34.9428  -15.3150   36.1032 C   0  0  0  0  0  0  0  0  0  0  0  0
   34.2149  -16.4536   35.6925 C   0  0  0  0  0  0  0  0  0  0  0  0
   34.6664  -17.7429   35.8511 C   0  0  0  0  0  0  0  0  0  0  0  0
   35.8810  -17.9580   36.4357 C   0  0  0  0  0  0  0  0  0  0  0  0
   36.6393  -16.8794   36.8596 C   0  0  0  0  0  0  0  0  0  0  0  0
   36.1440  -15.5821   36.6752 C   0  0  0  0  0  0  0  0  0  0  0  0
   36.7228  -14.0088   36.9811 S   0  0  0  0  0  0  0  0  0  0  0  0
   33.7544   -9.8082   37.1132 N   0  0  0  0  0  0  0  0  0  0  0  0
   34.1043  -11.1775   37.0154 C   0  0  0  0  0  0  0  0  0  0  0  0
   33.2920  -11.9980   37.5605 O   0  0  0  0  0  0  0  0  0  0  0  0
   35.2522  -11.6636   36.3738 N   0  0  0  0  0  0  0  0  0  0  0  0
   34.3536   -9.0984   36.6802 H   0  0  0  0  0  0  0  0  0  0  0  0
   35.9429  -11.0525   35.9643 H   0  0  0  0  0  0  0  0  0  0  0  0
   31.5114   -8.8395   36.8981 C   0  0  0  0  0  0  0  0  0  0  0  0
   32.5605   -9.3981   37.8208 C   0  0  0  0  0  0  0  0  0  0  0  0
   33.8362  -18.8611   35.3683 C   0  0  0  0  0  0  0  0  0  0  0  0
   32.9415  -19.4640   36.2379 C   0  0  0  0  0  0  0  0  0  0  0  0
   32.1333  -20.5211   35.7988 C   0  0  0  0  0  0  0  0  0  0  0  0
   32.2700  -20.9241   34.5061 C   0  0  0  0  0  0  0  0  0  0  0  0
   33.1264  -20.3610   33.6482 N   0  0  0  0  0  0  0  0  0  0  0  0
   33.9054  -19.3307   34.0822 C   0  0  0  0  0  0  0  0  0  0  0  0
   36.3996  -19.2280   36.6156 O   0  0  0  0  0  0  0  0  0  0  0  0
   37.6587  -19.5772   36.0516 C   0  0  0  0  0  0  0  0  0  0  0  0
   38.0380  -20.9315   36.6023 C   0  0  0  0  0  0  0  0  0  0  0  0
   38.1677  -21.0316   37.8623 O   0  0  0  0  0  0  0  0  0  0  0  0
   38.2430  -22.0318   35.7623 N   0  0  0  0  0  0  0  0  0  0  0  0
   38.1282  -21.8437   34.7209 H   0  0  0  0  0  0  0  0  0  0  0  0
   38.6202  -23.3287   36.1883 C   0  0  0  0  0  0  0  0  0  0  0  0
   37.5874  -24.2765   36.2952 C   0  0  0  0  0  0  0  0  0  0  0  0
   37.8689  -25.5693   36.6358 C   0  0  0  0  0  0  0  0  0  0  0  0
   39.1592  -25.9684   36.8807 C   0  0  0  0  0  0  0  0  0  0  0  0
   40.1504  -25.0496   36.7792 C   0  0  0  0  0  0  0  0  0  0  0  0
   39.8866  -23.7418   36.4361 C   0  0  0  0  0  0  0  0  0  0  0  0
   41.5706  -25.4853   37.0389 C   0  0  0  0  0  0  0  0  0  0  0  0
   41.9792  -25.1342   38.2828 F   0  0  0  0  0  0  0  0  0  0  0  0
   41.7090  -26.8217   36.7607 F   0  0  0  0  0  0  0  0  0  0  0  0
   42.3926  -24.8055   36.1276 F   0  0  0  0  0  0  0  0  0  0  0  0
 16 17  1  0  0  0
 17 10  1  0  0  0
 10 11  1  0  0  0
 11 12  2  0  0  0
 11 13  1  0  0  0
 13  1  1  0  0  0
  1  2  2  0  0  0
  2  3  1  0  0  0
  3  4  2  0  0  0
  4  5  1  0  0  0
  5 18  1  0  0  0
 18 19  2  0  0  0
 19 20  1  0  0  0
 20 21  2  0  0  0
 21 22  1  0  0  0
 22 23  2  0  0  0
  5  6  2  0  0  0
  6 24  1  0  0  0
 24 25  1  0  0  0
 25 26  1  0  0  0
 26 27  2  0  0  0
 26 28  1  0  0  0
 28 30  1  0  0  0
 30 31  2  0  0  0
 31 32  1  0  0  0
 32 33  2  0  0  0
 33 34  1  0  0  0
 34 35  2  0  0  0
 34 36  1  0  0  0
 36 37  1  0  0  0
 36 38  1  0  0  0
 36 39  1  0  0  0
  6  7  1  0  0  0
  7  8  2  0  0  0
  8  9  1  0  0  0
  9  1  1  0  0  0
  8  3  1  0  0  0
 23 18  1  0  0  0
 35 30  1  0  0  0
 10 14  1  0  0  0
 13 15  1  0  0  0
 28 29  1  0  0  0
M  END
> <minimizedAffinity>
-6.30493

> <CNNscore>
0.4163754880

> <CNNaffinity>
6.1646389961

> <CNN_VS>
2.5668046474

> <CNNaffinity_variance>
0.0687368661

$$$$
[H]c1nc([H])c(-c2c(OC([H])([H])C(=O)N([H])c3c([H])c([H])c([H])c(C(F)(F)F)c3[H])c([H])c3sc(N([H])C(=O)N([H])C([H])([H])C([H])([H])[H])nc3c2[H])c([H])c1[H]


 39 42  0  0  0  0  0  0  0  0999 V2000
   34.1006  -15.9477   35.8979 C   0  0  0  0  0  0  0  0  0  0  0  0
   35.2306  -16.3899   36.4037 N   0  0  0  0  0  0  0  0  0  0  0  0
   35.4420  -17.6787   36.4907 C   0  0  0  0  0  0  0  0  0  0  0  0
   36.5821  -18.3039   37.0424 C   0  0  0  0  0  0  0  0  0  0  0  0
   36.7328  -19.6678   37.1322 C   0  0  0  0  0  0  0  0  0  0  0  0
   35.7399  -20.4815   36.6685 C   0  0  0  0  0  0  0  0  0  0  0  0
   34.5984  -19.9250   36.1158 C   0  0  0  0  0  0  0  0  0  0  0  0
   34.4832  -18.5305   36.0471 C   0  0  0  0  0  0  0  0  0  0  0  0
   33.2886  -17.4376   35.5158 S   0  0  0  0  0  0  0  0  0  0  0  0
   33.1007  -12.4225   36.6978 N   0  0  0  0  0  0  0  0  0  0  0  0
   33.5945  -13.7501   36.7234 C   0  0  0  0  0  0  0  0  0  0  0  0
   34.0633  -14.1462   37.8430 O   0  0  0  0  0  0  0  0  0  0  0  0
   33.5947  -14.6224   35.6258 N   0  0  0  0  0  0  0  0  0  0  0  0
   32.6929  -12.0486   35.8352 H   0  0  0  0  0  0  0  0  0  0  0  0
   33.2723  -14.3419   34.7117 H   0  0  0  0  0  0  0  0  0  0  0  0
   33.5062  -10.1569   37.5453 C   0  0  0  0  0  0  0  0  0  0  0  0
   33.1677  -11.5851   37.8761 C   0  0  0  0  0  0  0  0  0  0  0  0
   37.9552  -20.2184   37.7452 C   0  0  0  0  0  0  0  0  0  0  0  0
   37.8795  -20.7998   39.0007 C   0  0  0  0  0  0  0  0  0  0  0  0
   39.0255  -21.3402   39.5989 C   0  0  0  0  0  0  0  0  0  0  0  0
   40.1942  -21.2634   38.9058 C   0  0  0  0  0  0  0  0  0  0  0  0
   40.2943  -20.7063   37.6949 N   0  0  0  0  0  0  0  0  0  0  0  0
   39.1741  -20.1870   37.1186 C   0  0  0  0  0  0  0  0  0  0  0  0
   35.8221  -21.8609   36.7383 O   0  0  0  0  0  0  0  0  0  0  0  0
   34.7200  -22.6238   37.2164 C   0  0  0  0  0  0  0  0  0  0  0  0
   34.7113  -22.5065   38.7221 C   0  0  0  0  0  0  0  0  0  0  0  0
   35.5058  -23.2582   39.3688 O   0  0  0  0  0  0  0  0  0  0  0  0
   33.8617  -21.6112   39.3815 N   0  0  0  0  0  0  0  0  0  0  0  0
   33.2209  -21.0377   38.7542 H   0  0  0  0  0  0  0  0  0  0  0  0
   33.7716  -21.4503   40.7857 C   0  0  0  0  0  0  0  0  0  0  0  0
   32.9408  -22.3573   41.4667 C   0  0  0  0  0  0  0  0  0  0  0  0
   32.8453  -22.3176   42.8290 C   0  0  0  0  0  0  0  0  0  0  0  0
   33.5540  -21.3956   43.5583 C   0  0  0  0  0  0  0  0  0  0  0  0
   34.3509  -20.5219   42.8963 C   0  0  0  0  0  0  0  0  0  0  0  0
   34.4610  -20.5468   41.5233 C   0  0  0  0  0  0  0  0  0  0  0  0
   35.1381  -19.5127   43.6939 C   0  0  0  0  0  0  0  0  0  0  0  0
   36.4659  -19.6004   43.4352 F   0  0  0  0  0  0  0  0  0  0  0  0
   34.6136  -18.2583   43.5101 F   0  0  0  0  0  0  0  0  0  0  0  0
   34.9615  -19.8191   45.0515 F   0  0  0  0  0  0  0  0  0  0  0  0
 16 17  1  0  0  0
 17 10  1  0  0  0
 10 11  1  0  0  0
 11 12  2  0  0  0
 11 13  1  0  0  0
 13  1  1  0  0  0
  1  2  2  0  0  0
  2  3  1  0  0  0
  3  4  2  0  0  0
  4  5  1  0  0  0
  5 18  1  0  0  0
 18 19  2  0  0  0
 19 20  1  0  0  0
 20 21  2  0  0  0
 21 22  1  0  0  0
 22 23  2  0  0  0
  5  6  2  0  0  0
  6 24  1  0  0  0
 24 25  1  0  0  0
 25 26  1  0  0  0
 26 27  2  0  0  0
 26 28  1  0  0  0
 28 30  1  0  0  0
 30 31  2  0  0  0
 31 32  1  0  0  0
 32 33  2  0  0  0
 33 34  1  0  0  0
 34 35  2  0  0  0
 34 36  1  0  0  0
 36 37  1  0  0  0
 36 38  1  0  0  0
 36 39  1  0  0  0
  6  7  1  0  0  0
  7  8  2  0  0  0
  8  9  1  0  0  0
  9  1  1  0  0  0
  8  3  1  0  0  0
 23 18  1  0  0  0
 35 30  1  0  0  0
 10 14  1  0  0  0
 13 15  1  0  0  0
 28 29  1  0  0  0
M  END
> <minimizedAffinity>
-6.01970

> <CNNscore>
0.3620637059

> <CNNaffinity>
5.8281774521

> <CNN_VS>
2.1101715565

> <CNNaffinity_variance>
0.1164830923

$$$$
[H]c1nc([H])c(-c2c(OC([H])([H])C(=O)N([H])c3c([H])c([H])c([H])c(C(F)(F)F)c3[H])c([H])c3sc(N([H])C(=O)N([H])C([H])([H])C([H])([H])[H])nc3c2[H])c([H])c1[H]


 39 42  0  0  0  0  0  0  0  0999 V2000
   31.2485  -19.8359   34.9669 C   0  0  0  0  0  0  0  0  0  0  0  0
   31.7525  -18.7527   35.5152 N   0  0  0  0  0  0  0  0  0  0  0  0
   33.0036  -18.4366   35.2961 C   0  0  0  0  0  0  0  0  0  0  0  0
   33.6953  -17.3328   35.8422 C   0  0  0  0  0  0  0  0  0  0  0  0
   35.0226  -17.0699   35.5965 C   0  0  0  0  0  0  0  0  0  0  0  0
   35.7298  -17.9071   34.7827 C   0  0  0  0  0  0  0  0  0  0  0  0
   35.1038  -19.0057   34.2177 C   0  0  0  0  0  0  0  0  0  0  0  0
   33.7512  -19.2394   34.4973 C   0  0  0  0  0  0  0  0  0  0  0  0
   32.6183  -20.4434   34.0838 S   0  0  0  0  0  0  0  0  0  0  0  0
   28.3600  -21.7839   36.3556 N   0  0  0  0  0  0  0  0  0  0  0  0
   29.5822  -21.0979   36.1492 C   0  0  0  0  0  0  0  0  0  0  0  0
   30.4040  -21.1222   37.1261 O   0  0  0  0  0  0  0  0  0  0  0  0
   29.9272  -20.4195   34.9718 N   0  0  0  0  0  0  0  0  0  0  0  0
   27.6641  -21.8196   35.6041 H   0  0  0  0  0  0  0  0  0  0  0  0
   29.2955  -20.3386   34.1890 H   0  0  0  0  0  0  0  0  0  0  0  0
   27.1821  -21.6097   38.4998 C   0  0  0  0  0  0  0  0  0  0  0  0
   28.0801  -22.4340   37.6179 C   0  0  0  0  0  0  0  0  0  0  0  0
   35.6550  -15.9006   36.2335 C   0  0  0  0  0  0  0  0  0  0  0  0
   35.2891  -14.6278   35.8259 C   0  0  0  0  0  0  0  0  0  0  0  0
   35.8678  -13.5009   36.4246 C   0  0  0  0  0  0  0  0  0  0  0  0
   36.7922  -13.7107   37.4012 C   0  0  0  0  0  0  0  0  0  0  0  0
   37.1639  -14.9275   37.8110 N   0  0  0  0  0  0  0  0  0  0  0  0
   36.5930  -16.0179   37.2265 C   0  0  0  0  0  0  0  0  0  0  0  0
   37.0700  -17.7074   34.5029 O   0  0  0  0  0  0  0  0  0  0  0  0
   37.9451  -18.8186   34.3452 C   0  0  0  0  0  0  0  0  0  0  0  0
   38.8935  -18.8144   35.5207 C   0  0  0  0  0  0  0  0  0  0  0  0
   38.3832  -18.9132   36.6801 O   0  0  0  0  0  0  0  0  0  0  0  0
   40.2771  -18.7024   35.3442 N   0  0  0  0  0  0  0  0  0  0  0  0
   40.6066  -18.6068   34.3365 H   0  0  0  0  0  0  0  0  0  0  0  0
   41.2358  -18.6685   36.3861 C   0  0  0  0  0  0  0  0  0  0  0  0
   42.3866  -17.8956   36.1517 C   0  0  0  0  0  0  0  0  0  0  0  0
   43.3332  -17.7530   37.1265 C   0  0  0  0  0  0  0  0  0  0  0  0
   43.1824  -18.3587   38.3490 C   0  0  0  0  0  0  0  0  0  0  0  0
   42.0725  -19.1050   38.5682 C   0  0  0  0  0  0  0  0  0  0  0  0
   41.1067  -19.2600   37.5983 C   0  0  0  0  0  0  0  0  0  0  0  0
   41.8983  -19.7654   39.9127 C   0  0  0  0  0  0  0  0  0  0  0  0
   40.6464  -20.2628   40.0643 F   0  0  0  0  0  0  0  0  0  0  0  0
   42.8949  -20.6866   40.1149 F   0  0  0  0  0  0  0  0  0  0  0  0
   42.0705  -18.7765   40.8928 F   0  0  0  0  0  0  0  0  0  0  0  0
 16 17  1  0  0  0
 17 10  1  0  0  0
 10 11  1  0  0  0
 11 12  2  0  0  0
 11 13  1  0  0  0
 13  1  1  0  0  0
  1  2  2  0  0  0
  2  3  1  0  0  0
  3  4  2  0  0  0
  4  5  1  0  0  0
  5 18  1  0  0  0
 18 19  2  0  0  0
 19 20  1  0  0  0
 20 21  2  0  0  0
 21 22  1  0  0  0
 22 23  2  0  0  0
  5  6  2  0  0  0
  6 24  1  0  0  0
 24 25  1  0  0  0
 25 26  1  0  0  0
 26 27  2  0  0  0
 26 28  1  0  0  0
 28 30  1  0  0  0
 30 31  2  0  0  0
 31 32  1  0  0  0
 32 33  2  0  0  0
 33 34  1  0  0  0
 34 35  2  0  0  0
 34 36  1  0  0  0
 36 37  1  0  0  0
 36 38  1  0  0  0
 36 39  1  0  0  0
  6  7  1  0  0  0
  7  8  2  0  0  0
  8  9  1  0  0  0
  9  1  1  0  0  0
  8  3  1  0  0  0
 23 18  1  0  0  0
 35 30  1  0  0  0
 10 14  1  0  0  0
 13 15  1  0  0  0
 28 29  1  0  0  0
M  END
> <minimizedAffinity>
-8.52477

> <CNNscore>
0.3575565517

> <CNNaffinity>
5.8670692444

> <CNN_VS>
2.0978090763

> <CNNaffinity_variance>
0.3754162192

$$$$
[H]N=C(N([H])[H])N([H])[C@]([H])(C(=O)N1C([H])([H])C([H])([H])C([H])([H])[C@@]1([H])C(=O)N1C([H])([H])C([H])([H])C([H])([H])C1([H])C(=O)c1nc2c([H])c([H])c([H])c([H])c2s1)c1c([H])c(C([H])([H])[H])c(C([H])([H])[H])c(C([H])([H])[H])c1[H]


 43 47  0  0  0  0  0  0  0  0999 V2000
   34.4794  -19.0908   36.2988 C   0  0  0  0  0  0  0  0  0  0  0  0
   33.3840  -19.2044   36.8707 O   0  0  0  0  0  0  0  0  0  0  0  0
   35.5885  -19.8657   36.6585 N   0  0  0  0  0  0  0  0  0  0  0  0
   36.8404  -19.7987   35.8530 C   0  0  0  0  0  0  0  0  0  0  0  0
   37.9418  -19.8798   36.8730 C   0  0  0  0  0  0  0  0  0  0  0  0
   37.3121  -20.3857   38.1318 C   0  0  0  0  0  0  0  0  0  0  0  0
   35.9061  -20.8122   37.6704 C   0  0  0  0  0  0  0  0  0  0  0  0
   35.0355  -20.9235   38.8367 C   0  0  0  0  0  0  0  0  0  0  0  0
   34.6935  -20.0029   39.6238 O   0  0  0  0  0  0  0  0  0  0  0  0
   34.4812  -22.2060   39.1692 N   0  0  0  0  0  0  0  0  0  0  0  0
   34.6968  -23.4258   38.4430 C   0  0  0  0  0  0  0  0  0  0  0  0
   33.3637  -24.1846   38.5760 C   0  0  0  0  0  0  0  0  0  0  0  0
   32.6168  -23.4906   39.6618 C   0  0  0  0  0  0  0  0  0  0  0  0
   33.6215  -22.5468   40.2700 C   0  0  0  0  0  0  0  0  0  0  0  0
   34.3511  -23.2224   41.3641 C   0  0  0  0  0  0  0  0  0  0  0  0
   34.0374  -24.3459   41.7835 O   0  0  0  0  0  0  0  0  0  0  0  0
   35.4908  -22.4610   41.9289 C   0  0  0  0  0  0  0  0  0  0  0  0
   36.7489  -22.4646   41.5489 N   0  0  0  0  0  0  0  0  0  0  0  0
   37.6226  -21.7163   42.1699 C   0  0  0  0  0  0  0  0  0  0  0  0
   38.9991  -21.6266   41.8671 C   0  0  0  0  0  0  0  0  0  0  0  0
   39.7818  -20.8104   42.5980 C   0  0  0  0  0  0  0  0  0  0  0  0
   39.3694  -20.0134   43.6608 C   0  0  0  0  0  0  0  0  0  0  0  0
   38.0123  -20.1114   43.9479 C   0  0  0  0  0  0  0  0  0  0  0  0
   37.1663  -20.9493   43.2104 C   0  0  0  0  0  0  0  0  0  0  0  0
   35.5067  -21.3530   43.2299 S   0  0  0  0  0  0  0  0  0  0  0  0
   34.5533  -18.0979   35.2183 C   0  0  0  0  0  0  0  0  0  0  0  0
   32.8437  -13.4586   35.9897 C   0  0  0  0  0  0  0  0  0  0  0  0
   33.9338  -14.4629   36.1179 C   0  0  0  0  0  0  0  0  0  0  0  0
   33.7921  -15.7511   35.6315 C   0  0  0  0  0  0  0  0  0  0  0  0
   34.7789  -16.7063   35.7329 C   0  0  0  0  0  0  0  0  0  0  0  0
   35.9545  -16.3565   36.3461 C   0  0  0  0  0  0  0  0  0  0  0  0
   36.1208  -15.0690   36.8420 C   0  0  0  0  0  0  0  0  0  0  0  0
   37.3909  -14.6485   37.5115 C   0  0  0  0  0  0  0  0  0  0  0  0
   35.1397  -14.1018   36.7472 C   0  0  0  0  0  0  0  0  0  0  0  0
   35.3177  -12.7212   37.2762 C   0  0  0  0  0  0  0  0  0  0  0  0
   33.3235  -18.0878   34.4187 N   0  0  0  0  0  0  0  0  0  0  0  0
   32.8730  -17.1935   34.1513 H   0  0  0  0  0  0  0  0  0  0  0  0
   32.7562  -19.3345   34.0138 C   0  0  0  0  0  0  0  0  0  0  0  0
   33.5830  -20.2766   33.3749 N   0  0  0  0  0  0  0  0  0  0  0  0
   31.5221  -19.6076   34.2203 N   0  0  0  0  0  0  0  0  0  0  0  0
   33.1624  -21.0461   32.8309 H   0  0  0  0  0  0  0  0  0  0  0  0
   34.6107  -20.2012   33.4475 H   0  0  0  0  0  0  0  0  0  0  0  0
   31.1180  -20.5163   33.9223 H   0  0  0  0  0  0  0  0  0  0  0  0
 27 28  1  0  0  0
 28 29  2  0  0  0
 29 30  1  0  0  0
 30 31  2  0  0  0
 31 32  1  0  0  0
 32 33  1  0  0  0
 32 34  2  0  0  0
 34 35  1  0  0  0
 30 26  1  0  0  0
 26 36  1  0  0  0
 36 38  1  0  0  0
 38 39  1  0  0  0
 38 40  2  0  0  0
 26  1  1  0  0  0
  1  2  2  0  0  0
  1  3  1  0  0  0
  3  4  1  0  0  0
  4  5  1  0  0  0
  5  6  1  0  0  0
  6  7  1  0  0  0
  7  8  1  0  0  0
  8  9  2  0  0  0
  8 10  1  0  0  0
 10 11  1  0  0  0
 11 12  1  0  0  0
 12 13  1  0  0  0
 13 14  1  0  0  0
 14 15  1  0  0  0
 15 16  2  0  0  0
 15 17  1  0  0  0
 17 18  2  0  0  0
 18 19  1  0  0  0
 19 20  2  0  0  0
 20 21  1  0  0  0
 21 22  2  0  0  0
 22 23  1  0  0  0
 23 24  2  0  0  0
 24 25  1  0  0  0
 34 28  1  0  0  0
  7  3  1  0  0  0
 14 10  1  0  0  0
 25 17  1  0  0  0
 24 19  1  0  0  0
 36 37  1  0  0  0
 39 41  1  0  0  0
 39 42  1  0  0  0
 40 43  1  0  0  0
M  END
> <minimizedAffinity>
-7.51034

> <CNNscore>
0.5009750724

> <CNNaffinity>
6.2199110985

> <CNN_VS>
3.1160204411

> <CNNaffinity_variance>
0.1910797358

$$$$
[H]N=C(N([H])[H])N([H])[C@]([H])(C(=O)N1C([H])([H])C([H])([H])C([H])([H])[C@@]1([H])C(=O)N1C([H])([H])C([H])([H])C([H])([H])C1([H])C(=O)c1nc2c([H])c([H])c([H])c([H])c2s1)c1c([H])c(C([H])([H])[H])c(C([H])([H])[H])c(C([H])([H])[H])c1[H]


 43 47  0  0  0  0  0  0  0  0999 V2000
   35.1350  -19.2923   36.9701 C   0  0  0  0  0  0  0  0  0  0  0  0
   35.2677  -19.5616   38.1743 O   0  0  0  0  0  0  0  0  0  0  0  0
   34.0385  -19.7427   36.2253 N   0  0  0  0  0  0  0  0  0  0  0  0
   33.8459  -19.2781   34.8225 C   0  0  0  0  0  0  0  0  0  0  0  0
   33.3296  -20.4903   34.0986 C   0  0  0  0  0  0  0  0  0  0  0  0
   32.8721  -21.4465   35.1538 C   0  0  0  0  0  0  0  0  0  0  0  0
   32.9233  -20.5981   36.4380 C   0  0  0  0  0  0  0  0  0  0  0  0
   32.9207  -21.4865   37.5960 C   0  0  0  0  0  0  0  0  0  0  0  0
   32.1227  -21.4689   38.5691 O   0  0  0  0  0  0  0  0  0  0  0  0
   33.9212  -22.5129   37.6857 N   0  0  0  0  0  0  0  0  0  0  0  0
   34.9505  -22.7668   36.7171 C   0  0  0  0  0  0  0  0  0  0  0  0
   35.1348  -24.2950   36.7542 C   0  0  0  0  0  0  0  0  0  0  0  0
   34.4422  -24.7498   37.9918 C   0  0  0  0  0  0  0  0  0  0  0  0
   34.1152  -23.4792   38.7324 C   0  0  0  0  0  0  0  0  0  0  0  0
   35.2318  -23.1169   39.6311 C   0  0  0  0  0  0  0  0  0  0  0  0
   36.3380  -23.6744   39.5821 O   0  0  0  0  0  0  0  0  0  0  0  0
   34.9378  -22.0347   40.6007 C   0  0  0  0  0  0  0  0  0  0  0  0
   33.7960  -21.7416   41.1819 N   0  0  0  0  0  0  0  0  0  0  0  0
   33.7266  -20.7429   42.0225 C   0  0  0  0  0  0  0  0  0  0  0  0
   32.5688  -20.3208   42.7123 C   0  0  0  0  0  0  0  0  0  0  0  0
   32.6484  -19.2693   43.5496 C   0  0  0  0  0  0  0  0  0  0  0  0
   33.7895  -18.5222   43.8221 C   0  0  0  0  0  0  0  0  0  0  0  0
   34.9218  -18.9486   43.1365 C   0  0  0  0  0  0  0  0  0  0  0  0
   34.8787  -20.0380   42.2573 C   0  0  0  0  0  0  0  0  0  0  0  0
   35.9910  -20.8575   41.2529 S   0  0  0  0  0  0  0  0  0  0  0  0
   36.1915  -18.4714   36.3631 C   0  0  0  0  0  0  0  0  0  0  0  0
   37.7738  -13.9917   37.9350 C   0  0  0  0  0  0  0  0  0  0  0  0
   36.7293  -14.8292   37.2862 C   0  0  0  0  0  0  0  0  0  0  0  0
   36.8899  -16.1954   37.1311 C   0  0  0  0  0  0  0  0  0  0  0  0
   35.9451  -17.0010   36.5354 C   0  0  0  0  0  0  0  0  0  0  0  0
   34.7937  -16.4142   36.0769 C   0  0  0  0  0  0  0  0  0  0  0  0
   34.6091  -15.0444   36.2217 C   0  0  0  0  0  0  0  0  0  0  0  0
   33.3640  -14.3694   35.7398 C   0  0  0  0  0  0  0  0  0  0  0  0
   35.5481  -14.2250   36.8167 C   0  0  0  0  0  0  0  0  0  0  0  0
   35.3504  -12.7576   36.9743 C   0  0  0  0  0  0  0  0  0  0  0  0
   36.3169  -18.7410   34.9266 N   0  0  0  0  0  0  0  0  0  0  0  0
   35.5472  -19.1982   34.4044 H   0  0  0  0  0  0  0  0  0  0  0  0
   37.5207  -18.3615   34.2582 C   0  0  0  0  0  0  0  0  0  0  0  0
   37.4287  -17.7776   32.9814 N   0  0  0  0  0  0  0  0  0  0  0  0
   38.6698  -18.5403   34.7944 N   0  0  0  0  0  0  0  0  0  0  0  0
   38.2567  -17.7510   32.3662 H   0  0  0  0  0  0  0  0  0  0  0  0
   36.5344  -17.3752   32.6563 H   0  0  0  0  0  0  0  0  0  0  0  0
   39.5398  -18.2616   34.3012 H   0  0  0  0  0  0  0  0  0  0  0  0
 27 28  1  0  0  0
 28 29  2  0  0  0
 29 30  1  0  0  0
 30 31  2  0  0  0
 31 32  1  0  0  0
 32 33  1  0  0  0
 32 34  2  0  0  0
 34 35  1  0  0  0
 30 26  1  0  0  0
 26 36  1  0  0  0
 36 38  1  0  0  0
 38 39  1  0  0  0
 38 40  2  0  0  0
 26  1  1  0  0  0
  1  2  2  0  0  0
  1  3  1  0  0  0
  3  4  1  0  0  0
  4  5  1  0  0  0
  5  6  1  0  0  0
  6  7  1  0  0  0
  7  8  1  0  0  0
  8  9  2  0  0  0
  8 10  1  0  0  0
 10 11  1  0  0  0
 11 12  1  0  0  0
 12 13  1  0  0  0
 13 14  1  0  0  0
 14 15  1  0  0  0
 15 16  2  0  0  0
 15 17  1  0  0  0
 17 18  2  0  0  0
 18 19  1  0  0  0
 19 20  2  0  0  0
 20 21  1  0  0  0
 21 22  2  0  0  0
 22 23  1  0  0  0
 23 24  2  0  0  0
 24 25  1  0  0  0
 34 28  1  0  0  0
  7  3  1  0  0  0
 14 10  1  0  0  0
 25 17  1  0  0  0
 24 19  1  0  0  0
 36 37  1  0  0  0
 39 41  1  0  0  0
 39 42  1  0  0  0
 40 43  1  0  0  0
M  END
> <minimizedAffinity>
-7.39491

> <CNNscore>
0.4849156439

> <CNNaffinity>
6.2873802185

> <CNN_VS>
3.0488491058

> <CNNaffinity_variance>
0.3215702474

$$$$
[H]N=C(N([H])[H])N([H])[C@]([H])(C(=O)N1C([H])([H])C([H])([H])C([H])([H])[C@@]1([H])C(=O)N1C([H])([H])C([H])([H])C([H])([H])C1([H])C(=O)c1nc2c([H])c([H])c([H])c([H])c2s1)c1c([H])c(C([H])([H])[H])c(C([H])([H])[H])c(C([H])([H])[H])c1[H]


 43 47  0  0  0  0  0  0  0  0999 V2000
   35.2685  -18.8930   36.8460 C   0  0  0  0  0  0  0  0  0  0  0  0
   35.4431  -19.2393   38.0249 O   0  0  0  0  0  0  0  0  0  0  0  0
   34.1399  -19.2853   36.1165 N   0  0  0  0  0  0  0  0  0  0  0  0
   33.9004  -18.7310   34.7541 C   0  0  0  0  0  0  0  0  0  0  0  0
   33.3436  -19.8901   33.9753 C   0  0  0  0  0  0  0  0  0  0  0  0
   32.9149  -20.9072   34.9848 C   0  0  0  0  0  0  0  0  0  0  0  0
   33.0238  -20.1424   36.3170 C   0  0  0  0  0  0  0  0  0  0  0  0
   33.0544  -21.1024   37.4160 C   0  0  0  0  0  0  0  0  0  0  0  0
   33.2309  -20.8577   38.6379 O   0  0  0  0  0  0  0  0  0  0  0  0
   32.8692  -22.4966   37.1252 N   0  0  0  0  0  0  0  0  0  0  0  0
   32.6415  -23.0580   35.8233 C   0  0  0  0  0  0  0  0  0  0  0  0
   31.6989  -24.2471   36.0848 C   0  0  0  0  0  0  0  0  0  0  0  0
   31.7472  -24.4777   37.5555 C   0  0  0  0  0  0  0  0  0  0  0  0
   32.8769  -23.6062   38.0394 C   0  0  0  0  0  0  0  0  0  0  0  0
   34.1488  -24.3589   37.9980 C   0  0  0  0  0  0  0  0  0  0  0  0
   34.1947  -25.5861   37.8283 O   0  0  0  0  0  0  0  0  0  0  0  0
   35.3732  -23.5420   38.1738 C   0  0  0  0  0  0  0  0  0  0  0  0
   36.1406  -23.0048   37.2520 N   0  0  0  0  0  0  0  0  0  0  0  0
   37.1886  -22.3045   37.5989 C   0  0  0  0  0  0  0  0  0  0  0  0
   38.0941  -21.6770   36.7153 C   0  0  0  0  0  0  0  0  0  0  0  0
   39.1345  -20.9871   37.2198 C   0  0  0  0  0  0  0  0  0  0  0  0
   39.4291  -20.8165   38.5684 C   0  0  0  0  0  0  0  0  0  0  0  0
   38.5297  -21.4394   39.4270 C   0  0  0  0  0  0  0  0  0  0  0  0
   37.4357  -22.1658   38.9402 C   0  0  0  0  0  0  0  0  0  0  0  0
   36.1430  -23.0523   39.6189 S   0  0  0  0  0  0  0  0  0  0  0  0
   36.3109  -18.0447   36.2522 C   0  0  0  0  0  0  0  0  0  0  0  0
   37.9381  -13.5498   37.7320 C   0  0  0  0  0  0  0  0  0  0  0  0
   36.8557  -14.4026   37.1711 C   0  0  0  0  0  0  0  0  0  0  0  0
   37.0297  -15.7629   36.9833 C   0  0  0  0  0  0  0  0  0  0  0  0
   36.0508  -16.5822   36.4666 C   0  0  0  0  0  0  0  0  0  0  0  0
   34.8498  -16.0157   36.1246 C   0  0  0  0  0  0  0  0  0  0  0  0
   34.6508  -14.6521   36.3044 C   0  0  0  0  0  0  0  0  0  0  0  0
   33.3525  -13.9993   35.9490 C   0  0  0  0  0  0  0  0  0  0  0  0
   35.6237  -13.8192   36.8212 C   0  0  0  0  0  0  0  0  0  0  0  0
   35.4107  -12.3584   37.0164 C   0  0  0  0  0  0  0  0  0  0  0  0
   36.4260  -18.2740   34.8079 N   0  0  0  0  0  0  0  0  0  0  0  0
   35.6674  -17.9849   34.1637 H   0  0  0  0  0  0  0  0  0  0  0  0
   37.6045  -18.9037   34.3033 C   0  0  0  0  0  0  0  0  0  0  0  0
   38.8560  -18.3391   34.6108 N   0  0  0  0  0  0  0  0  0  0  0  0
   37.5434  -19.9618   33.5846 N   0  0  0  0  0  0  0  0  0  0  0  0
   39.6857  -18.5895   34.0506 H   0  0  0  0  0  0  0  0  0  0  0  0
   38.9481  -17.6736   35.3955 H   0  0  0  0  0  0  0  0  0  0  0  0
   38.4052  -20.4128   33.2217 H   0  0  0  0  0  0  0  0  0  0  0  0
 27 28  1  0  0  0
 28 29  2  0  0  0
 29 30  1  0  0  0
 30 31  2  0  0  0
 31 32  1  0  0  0
 32 33  1  0  0  0
 32 34  2  0  0  0
 34 35  1  0  0  0
 30 26  1  0  0  0
 26 36  1  0  0  0
 36 38  1  0  0  0
 38 39  1  0  0  0
 38 40  2  0  0  0
 26  1  1  0  0  0
  1  2  2  0  0  0
  1  3  1  0  0  0
  3  4  1  0  0  0
  4  5  1  0  0  0
  5  6  1  0  0  0
  6  7  1  0  0  0
  7  8  1  0  0  0
  8  9  2  0  0  0
  8 10  1  0  0  0
 10 11  1  0  0  0
 11 12  1  0  0  0
 12 13  1  0  0  0
 13 14  1  0  0  0
 14 15  1  0  0  0
 15 16  2  0  0  0
 15 17  1  0  0  0
 17 18  2  0  0  0
 18 19  1  0  0  0
 19 20  2  0  0  0
 20 21  1  0  0  0
 21 22  2  0  0  0
 22 23  1  0  0  0
 23 24  2  0  0  0
 24 25  1  0  0  0
 34 28  1  0  0  0
  7  3  1  0  0  0
 14 10  1  0  0  0
 25 17  1  0  0  0
 24 19  1  0  0  0
 36 37  1  0  0  0
 39 41  1  0  0  0
 39 42  1  0  0  0
 40 43  1  0  0  0
M  END
> <minimizedAffinity>
-8.18589

> <CNNscore>
0.4208870828

> <CNNaffinity>
6.2326617241

> <CNN_VS>
2.6232469082

> <CNNaffinity_variance>
0.4667016566

$$$$
[H]N=C(N([H])[H])N([H])[C@]([H])(C(=O)N1C([H])([H])C([H])([H])C([H])([H])[C@@]1([H])C(=O)N1C([H])([H])C([H])([H])C([H])([H])C1([H])C(=O)c1nc2c([H])c([H])c([H])c([H])c2s1)c1c([H])c(C([H])([H])[H])c(C([H])([H])[H])c(C([H])([H])[H])c1[H]


 43 47  0  0  0  0  0  0  0  0999 V2000
   35.4767  -19.2517   35.8443 C   0  0  0  0  0  0  0  0  0  0  0  0
   34.9290  -19.7254   36.8522 O   0  0  0  0  0  0  0  0  0  0  0  0
   36.7536  -19.6541   35.4351 N   0  0  0  0  0  0  0  0  0  0  0  0
   37.3130  -19.1663   34.1430 C   0  0  0  0  0  0  0  0  0  0  0  0
   38.7706  -18.9391   34.4326 C   0  0  0  0  0  0  0  0  0  0  0  0
   39.0641  -19.6665   35.7061 C   0  0  0  0  0  0  0  0  0  0  0  0
   37.7854  -20.4931   35.9373 C   0  0  0  0  0  0  0  0  0  0  0  0
   37.7388  -20.9179   37.3329 C   0  0  0  0  0  0  0  0  0  0  0  0
   37.6687  -20.1827   38.3520 O   0  0  0  0  0  0  0  0  0  0  0  0
   37.7759  -22.3219   37.6327 N   0  0  0  0  0  0  0  0  0  0  0  0
   37.8481  -23.3831   36.6681 C   0  0  0  0  0  0  0  0  0  0  0  0
   37.0240  -24.5215   37.2973 C   0  0  0  0  0  0  0  0  0  0  0  0
   36.8422  -24.1394   38.7253 C   0  0  0  0  0  0  0  0  0  0  0  0
   37.7572  -22.9586   38.9216 C   0  0  0  0  0  0  0  0  0  0  0  0
   39.0978  -23.4224   39.3383 C   0  0  0  0  0  0  0  0  0  0  0  0
   39.3392  -24.6056   39.6183 O   0  0  0  0  0  0  0  0  0  0  0  0
   40.1405  -22.3704   39.3986 C   0  0  0  0  0  0  0  0  0  0  0  0
   40.3392  -21.4644   40.3298 N   0  0  0  0  0  0  0  0  0  0  0  0
   41.3232  -20.6116   40.2143 C   0  0  0  0  0  0  0  0  0  0  0  0
   41.6465  -19.5913   41.1357 C   0  0  0  0  0  0  0  0  0  0  0  0
   42.6927  -18.7827   40.8817 C   0  0  0  0  0  0  0  0  0  0  0  0
   43.5243  -18.8423   39.7683 C   0  0  0  0  0  0  0  0  0  0  0  0
   43.1947  -19.8512   38.8696 C   0  0  0  0  0  0  0  0  0  0  0  0
   42.1139  -20.7119   39.0989 C   0  0  0  0  0  0  0  0  0  0  0  0
   41.3914  -22.0287   38.2856 S   0  0  0  0  0  0  0  0  0  0  0  0
   34.7124  -18.2434   35.0975 C   0  0  0  0  0  0  0  0  0  0  0  0
   37.4189  -14.8788   37.6264 C   0  0  0  0  0  0  0  0  0  0  0  0
   36.1696  -15.2401   36.9039 C   0  0  0  0  0  0  0  0  0  0  0  0
   35.9837  -16.5018   36.3657 C   0  0  0  0  0  0  0  0  0  0  0  0
   34.8415  -16.8709   35.6907 C   0  0  0  0  0  0  0  0  0  0  0  0
   33.8460  -15.9385   35.5495 C   0  0  0  0  0  0  0  0  0  0  0  0
   34.0090  -14.6651   36.0818 C   0  0  0  0  0  0  0  0  0  0  0  0
   32.9431  -13.6232   35.9534 C   0  0  0  0  0  0  0  0  0  0  0  0
   35.1490  -14.2818   36.7605 C   0  0  0  0  0  0  0  0  0  0  0  0
   35.3237  -12.9184   37.3332 C   0  0  0  0  0  0  0  0  0  0  0  0
   33.2856  -18.5815   35.0526 N   0  0  0  0  0  0  0  0  0  0  0  0
   32.6150  -18.1357   35.7051 H   0  0  0  0  0  0  0  0  0  0  0  0
   32.8353  -19.5376   34.0919 C   0  0  0  0  0  0  0  0  0  0  0  0
   31.4511  -19.7262   33.9248 N   0  0  0  0  0  0  0  0  0  0  0  0
   33.6597  -20.2183   33.3868 N   0  0  0  0  0  0  0  0  0  0  0  0
   31.0995  -20.5790   33.4622 H   0  0  0  0  0  0  0  0  0  0  0  0
   30.7841  -19.0140   34.2640 H   0  0  0  0  0  0  0  0  0  0  0  0
   33.3235  -20.9114   32.6908 H   0  0  0  0  0  0  0  0  0  0  0  0
 27 28  1  0  0  0
 28 29  2  0  0  0
 29 30  1  0  0  0
 30 31  2  0  0  0
 31 32  1  0  0  0
 32 33  1  0  0  0
 32 34  2  0  0  0
 34 35  1  0  0  0
 30 26  1  0  0  0
 26 36  1  0  0  0
 36 38  1  0  0  0
 38 39  1  0  0  0
 38 40  2  0  0  0
 26  1  1  0  0  0
  1  2  2  0  0  0
  1  3  1  0  0  0
  3  4  1  0  0  0
  4  5  1  0  0  0
  5  6  1  0  0  0
  6  7  1  0  0  0
  7  8  1  0  0  0
  8  9  2  0  0  0
  8 10  1  0  0  0
 10 11  1  0  0  0
 11 12  1  0  0  0
 12 13  1  0  0  0
 13 14  1  0  0  0
 14 15  1  0  0  0
 15 16  2  0  0  0
 15 17  1  0  0  0
 17 18  2  0  0  0
 18 19  1  0  0  0
 19 20  2  0  0  0
 20 21  1  0  0  0
 21 22  2  0  0  0
 22 23  1  0  0  0
 23 24  2  0  0  0
 24 25  1  0  0  0
 34 28  1  0  0  0
  7  3  1  0  0  0
 14 10  1  0  0  0
 25 17  1  0  0  0
 24 19  1  0  0  0
 36 37  1  0  0  0
 39 41  1  0  0  0
 39 42  1  0  0  0
 40 43  1  0  0  0
M  END
> <minimizedAffinity>
-7.69312

> <CNNscore>
0.3584050238

> <CNNaffinity>
6.3724012375

> <CNN_VS>
2.2839004993

> <CNNaffinity_variance>
0.1012068838

$$$$
[H]N=C(N([H])[H])N([H])[C@]([H])(C(=O)N1C([H])([H])C([H])([H])C([H])([H])[C@@]1([H])C(=O)N1C([H])([H])C([H])([H])C([H])([H])C1([H])C(=O)c1nc2c([H])c([H])c([H])c([H])c2s1)c1c([H])c(C([H])([H])[H])c(C([H])([H])[H])c(C([H])([H])[H])c1[H]


 43 47  0  0  0  0  0  0  0  0999 V2000
   35.6029  -19.0819   37.1739 C   0  0  0  0  0  0  0  0  0  0  0  0
   36.0641  -19.3056   38.3041 O   0  0  0  0  0  0  0  0  0  0  0  0
   34.3735  -19.6058   36.7568 N   0  0  0  0  0  0  0  0  0  0  0  0
   33.7917  -19.1963   35.4475 C   0  0  0  0  0  0  0  0  0  0  0  0
   33.1666  -20.4537   34.9105 C   0  0  0  0  0  0  0  0  0  0  0  0
   33.0562  -21.3951   36.0675 C   0  0  0  0  0  0  0  0  0  0  0  0
   33.4013  -20.5041   37.2752 C   0  0  0  0  0  0  0  0  0  0  0  0
   33.7527  -21.3536   38.4088 C   0  0  0  0  0  0  0  0  0  0  0  0
   33.5970  -21.0974   39.6312 O   0  0  0  0  0  0  0  0  0  0  0  0
   34.3478  -22.6362   38.1569 N   0  0  0  0  0  0  0  0  0  0  0  0
   34.6331  -23.1878   36.8622 C   0  0  0  0  0  0  0  0  0  0  0  0
   34.3997  -24.6998   37.0365 C   0  0  0  0  0  0  0  0  0  0  0  0
   34.3400  -24.9266   38.5074 C   0  0  0  0  0  0  0  0  0  0  0  0
   34.7833  -23.6194   39.1112 C   0  0  0  0  0  0  0  0  0  0  0  0
   36.2510  -23.6173   39.2894 C   0  0  0  0  0  0  0  0  0  0  0  0
   37.0134  -24.2768   38.5679 O   0  0  0  0  0  0  0  0  0  0  0  0
   36.7526  -22.7677   40.3957 C   0  0  0  0  0  0  0  0  0  0  0  0
   37.9447  -22.2349   40.5456 N   0  0  0  0  0  0  0  0  0  0  0  0
   38.2070  -21.5019   41.5958 C   0  0  0  0  0  0  0  0  0  0  0  0
   39.4399  -20.8746   41.8800 C   0  0  0  0  0  0  0  0  0  0  0  0
   39.5642  -20.1483   43.0070 C   0  0  0  0  0  0  0  0  0  0  0  0
   38.5741  -19.9384   43.9611 C   0  0  0  0  0  0  0  0  0  0  0  0
   37.3657  -20.5615   43.6686 C   0  0  0  0  0  0  0  0  0  0  0  0
   37.1978  -21.3251   42.5066 C   0  0  0  0  0  0  0  0  0  0  0  0
   35.9332  -22.2253   41.7939 S   0  0  0  0  0  0  0  0  0  0  0  0
   36.4158  -18.2335   36.2918 C   0  0  0  0  0  0  0  0  0  0  0  0
   37.9140  -13.6985   37.7855 C   0  0  0  0  0  0  0  0  0  0  0  0
   36.8694  -14.5732   37.1878 C   0  0  0  0  0  0  0  0  0  0  0  0
   37.0702  -15.9331   37.0252 C   0  0  0  0  0  0  0  0  0  0  0  0
   36.1266  -16.7723   36.4757 C   0  0  0  0  0  0  0  0  0  0  0  0
   34.9346  -16.2270   36.0733 C   0  0  0  0  0  0  0  0  0  0  0  0
   34.7092  -14.8643   36.2267 C   0  0  0  0  0  0  0  0  0  0  0  0
   33.4195  -14.2342   35.8054 C   0  0  0  0  0  0  0  0  0  0  0  0
   35.6466  -14.0115   36.7758 C   0  0  0  0  0  0  0  0  0  0  0  0
   35.4053  -12.5517   36.9427 C   0  0  0  0  0  0  0  0  0  0  0  0
   36.1904  -18.5623   34.8801 N   0  0  0  0  0  0  0  0  0  0  0  0
   35.2801  -18.3593   34.4279 H   0  0  0  0  0  0  0  0  0  0  0  0
   37.2494  -19.1679   34.1374 C   0  0  0  0  0  0  0  0  0  0  0  0
   37.8752  -18.4212   33.1224 N   0  0  0  0  0  0  0  0  0  0  0  0
   37.6360  -20.3652   34.3766 N   0  0  0  0  0  0  0  0  0  0  0  0
   38.4318  -18.9013   32.3982 H   0  0  0  0  0  0  0  0  0  0  0  0
   37.7795  -17.3928   33.0986 H   0  0  0  0  0  0  0  0  0  0  0  0
   38.4066  -20.7977   33.8315 H   0  0  0  0  0  0  0  0  0  0  0  0
 27 28  1  0  0  0
 28 29  2  0  0  0
 29 30  1  0  0  0
 30 31  2  0  0  0
 31 32  1  0  0  0
 32 33  1  0  0  0
 32 34  2  0  0  0
 34 35  1  0  0  0
 30 26  1  0  0  0
 26 36  1  0  0  0
 36 38  1  0  0  0
 38 39  1  0  0  0
 38 40  2  0  0  0
 26  1  1  0  0  0
  1  2  2  0  0  0
  1  3  1  0  0  0
  3  4  1  0  0  0
  4  5  1  0  0  0
  5  6  1  0  0  0
  6  7  1  0  0  0
  7  8  1  0  0  0
  8  9  2  0  0  0
  8 10  1  0  0  0
 10 11  1  0  0  0
 11 12  1  0  0  0
 12 13  1  0  0  0
 13 14  1  0  0  0
 14 15  1  0  0  0
 15 16  2  0  0  0
 15 17  1  0  0  0
 17 18  2  0  0  0
 18 19  1  0  0  0
 19 20  2  0  0  0
 20 21  1  0  0  0
 21 22  2  0  0  0
 22 23  1  0  0  0
 23 24  2  0  0  0
 24 25  1  0  0  0
 34 28  1  0  0  0
  7  3  1  0  0  0
 14 10  1  0  0  0
 25 17  1  0  0  0
 24 19  1  0  0  0
 36 37  1  0  0  0
 39 41  1  0  0  0
 39 42  1  0  0  0
 40 43  1  0  0  0
M  END
> <minimizedAffinity>
-8.14049

> <CNNscore>
0.3086510897

> <CNNaffinity>
6.0448350906

> <CNN_VS>
1.8657449484

> <CNNaffinity_variance>
0.6206535101

$$$$
[H]N=C(N([H])[H])N([H])[C@]([H])(C(=O)N1C([H])([H])C([H])([H])C([H])([H])[C@@]1([H])C(=O)N1C([H])([H])C([H])([H])C([H])([H])C1([H])C(=O)c1nc2c([H])c([H])c([H])c([H])c2s1)c1c([H])c(C([H])([H])[H])c(C([H])([H])[H])c(C([H])([H])[H])c1[H]


 43 47  0  0  0  0  0  0  0  0999 V2000
   34.8789  -18.9062   36.7718 C   0  0  0  0  0  0  0  0  0  0  0  0
   34.8511  -19.1645   37.9854 O   0  0  0  0  0  0  0  0  0  0  0  0
   33.8647  -19.3221   35.9010 N   0  0  0  0  0  0  0  0  0  0  0  0
   33.8657  -18.8690   34.4814 C   0  0  0  0  0  0  0  0  0  0  0  0
   33.3926  -20.0690   33.7093 C   0  0  0  0  0  0  0  0  0  0  0  0
   32.7693  -20.9919   34.7078 C   0  0  0  0  0  0  0  0  0  0  0  0
   32.6973  -20.1291   35.9814 C   0  0  0  0  0  0  0  0  0  0  0  0
   32.5153  -21.0011   37.1376 C   0  0  0  0  0  0  0  0  0  0  0  0
   33.2071  -21.0285   38.1887 O   0  0  0  0  0  0  0  0  0  0  0  0
   31.4418  -21.9551   37.1255 N   0  0  0  0  0  0  0  0  0  0  0  0
   30.4949  -22.1375   36.0615 C   0  0  0  0  0  0  0  0  0  0  0  0
   29.1874  -22.5164   36.7810 C   0  0  0  0  0  0  0  0  0  0  0  0
   29.5848  -22.8607   38.1745 C   0  0  0  0  0  0  0  0  0  0  0  0
   31.0901  -22.9137   38.1377 C   0  0  0  0  0  0  0  0  0  0  0  0
   31.5391  -24.2804   37.7968 C   0  0  0  0  0  0  0  0  0  0  0  0
   30.7605  -25.1626   37.4068 O   0  0  0  0  0  0  0  0  0  0  0  0
   32.9926  -24.5261   37.9534 C   0  0  0  0  0  0  0  0  0  0  0  0
   33.6547  -24.8711   39.0351 N   0  0  0  0  0  0  0  0  0  0  0  0
   34.9485  -25.0503   38.9817 C   0  0  0  0  0  0  0  0  0  0  0  0
   35.7783  -25.4186   40.0635 C   0  0  0  0  0  0  0  0  0  0  0  0
   37.1008  -25.5655   39.8579 C   0  0  0  0  0  0  0  0  0  0  0  0
   37.7681  -25.3881   38.6505 C   0  0  0  0  0  0  0  0  0  0  0  0
   36.9393  -25.0258   37.5942 C   0  0  0  0  0  0  0  0  0  0  0  0
   35.5591  -24.8633   37.7686 C   0  0  0  0  0  0  0  0  0  0  0  0
   34.2319  -24.4412   36.7798 S   0  0  0  0  0  0  0  0  0  0  0  0
   36.0352  -18.1365   36.2932 C   0  0  0  0  0  0  0  0  0  0  0  0
   37.8866  -13.7218   37.7505 C   0  0  0  0  0  0  0  0  0  0  0  0
   36.7704  -14.5184   37.1735 C   0  0  0  0  0  0  0  0  0  0  0  0
   36.8686  -15.8894   37.0100 C   0  0  0  0  0  0  0  0  0  0  0  0
   35.8566  -16.6581   36.4794 C   0  0  0  0  0  0  0  0  0  0  0  0
   34.7003  -16.0276   36.0976 C   0  0  0  0  0  0  0  0  0  0  0  0
   34.5776  -14.6520   36.2524 C   0  0  0  0  0  0  0  0  0  0  0  0
   33.3297  -13.9299   35.8533 C   0  0  0  0  0  0  0  0  0  0  0  0
   35.5844  -13.8694   36.7826 C   0  0  0  0  0  0  0  0  0  0  0  0
   35.4531  -12.3958   36.9510 C   0  0  0  0  0  0  0  0  0  0  0  0
   36.2872  -18.3831   34.8692 N   0  0  0  0  0  0  0  0  0  0  0  0
   35.5674  -18.1600   34.1577 H   0  0  0  0  0  0  0  0  0  0  0  0
   37.5446  -18.9370   34.4792 C   0  0  0  0  0  0  0  0  0  0  0  0
   38.7176  -18.4284   35.0662 N   0  0  0  0  0  0  0  0  0  0  0  0
   37.6227  -19.8787   33.6147 N   0  0  0  0  0  0  0  0  0  0  0  0
   39.6324  -18.5975   34.6197 H   0  0  0  0  0  0  0  0  0  0  0  0
   38.6673  -17.8850   35.9434 H   0  0  0  0  0  0  0  0  0  0  0  0
   38.5410  -20.2752   33.3368 H   0  0  0  0  0  0  0  0  0  0  0  0
 27 28  1  0  0  0
 28 29  2  0  0  0
 29 30  1  0  0  0
 30 31  2  0  0  0
 31 32  1  0  0  0
 32 33  1  0  0  0
 32 34  2  0  0  0
 34 35  1  0  0  0
 30 26  1  0  0  0
 26 36  1  0  0  0
 36 38  1  0  0  0
 38 39  1  0  0  0
 38 40  2  0  0  0
 26  1  1  0  0  0
  1  2  2  0  0  0
  1  3  1  0  0  0
  3  4  1  0  0  0
  4  5  1  0  0  0
  5  6  1  0  0  0
  6  7  1  0  0  0
  7  8  1  0  0  0
  8  9  2  0  0  0
  8 10  1  0  0  0
 10 11  1  0  0  0
 11 12  1  0  0  0
 12 13  1  0  0  0
 13 14  1  0  0  0
 14 15  1  0  0  0
 15 16  2  0  0  0
 15 17  1  0  0  0
 17 18  2  0  0  0
 18 19  1  0  0  0
 19 20  2  0  0  0
 20 21  1  0  0  0
 21 22  2  0  0  0
 22 23  1  0  0  0
 23 24  2  0  0  0
 24 25  1  0  0  0
 34 28  1  0  0  0
  7  3  1  0  0  0
 14 10  1  0  0  0
 25 17  1  0  0  0
 24 19  1  0  0  0
 36 37  1  0  0  0
 39 41  1  0  0  0
 39 42  1  0  0  0
 40 43  1  0  0  0
M  END
> <minimizedAffinity>
-7.78422

> <CNNscore>
0.3042609990

> <CNNaffinity>
6.2058668137

> <CNN_VS>
1.8882032633

> <CNNaffinity_variance>
0.1526337266

$$$$
[H]N=C(N([H])[H])N([H])[C@]([H])(C(=O)N1C([H])([H])C([H])([H])C([H])([H])[C@@]1([H])C(=O)N1C([H])([H])C([H])([H])C([H])([H])C1([H])C(=O)c1nc2c([H])c([H])c([H])c([H])c2s1)c1c([H])c(C([H])([H])[H])c(C([H])([H])[H])c(C([H])([H])[H])c1[H]


 43 47  0  0  0  0  0  0  0  0999 V2000
   35.6075  -18.8769   35.9194 C   0  0  0  0  0  0  0  0  0  0  0  0
   35.4048  -19.3558   37.0463 O   0  0  0  0  0  0  0  0  0  0  0  0
   36.7416  -19.2043   35.1668 N   0  0  0  0  0  0  0  0  0  0  0  0
   36.8737  -18.7191   33.7640 C   0  0  0  0  0  0  0  0  0  0  0  0
   38.3328  -18.3853   33.6235 C   0  0  0  0  0  0  0  0  0  0  0  0
   39.0283  -19.0525   34.7673 C   0  0  0  0  0  0  0  0  0  0  0  0
   37.9322  -19.9561   35.3618 C   0  0  0  0  0  0  0  0  0  0  0  0
   38.3150  -20.3407   36.7167 C   0  0  0  0  0  0  0  0  0  0  0  0
   38.4822  -19.5816   37.7066 O   0  0  0  0  0  0  0  0  0  0  0  0
   38.5401  -21.7292   37.0068 N   0  0  0  0  0  0  0  0  0  0  0  0
   38.4146  -22.8116   36.0716 C   0  0  0  0  0  0  0  0  0  0  0  0
   37.8900  -23.9844   36.9203 C   0  0  0  0  0  0  0  0  0  0  0  0
   38.0927  -23.5726   38.3373 C   0  0  0  0  0  0  0  0  0  0  0  0
   38.9352  -22.3264   38.2535 C   0  0  0  0  0  0  0  0  0  0  0  0
   40.3696  -22.6841   38.2751 C   0  0  0  0  0  0  0  0  0  0  0  0
   40.7831  -23.7641   38.7215 O   0  0  0  0  0  0  0  0  0  0  0  0
   41.2857  -21.6577   37.7230 C   0  0  0  0  0  0  0  0  0  0  0  0
   41.6827  -20.5315   38.2721 N   0  0  0  0  0  0  0  0  0  0  0  0
   42.5063  -19.7448   37.6304 C   0  0  0  0  0  0  0  0  0  0  0  0
   43.0085  -18.5116   38.1010 C   0  0  0  0  0  0  0  0  0  0  0  0
   43.8523  -17.8056   37.3247 C   0  0  0  0  0  0  0  0  0  0  0  0
   44.3027  -18.1696   36.0601 C   0  0  0  0  0  0  0  0  0  0  0  0
   43.8006  -19.3856   35.6093 C   0  0  0  0  0  0  0  0  0  0  0  0
   42.9209  -20.1485   36.3876 C   0  0  0  0  0  0  0  0  0  0  0  0
   42.0992  -21.6366   36.2203 S   0  0  0  0  0  0  0  0  0  0  0  0
   34.5908  -17.9455   35.4120 C   0  0  0  0  0  0  0  0  0  0  0  0
   32.8629  -13.3087   36.1573 C   0  0  0  0  0  0  0  0  0  0  0  0
   33.9763  -14.2922   36.2378 C   0  0  0  0  0  0  0  0  0  0  0  0
   33.8216  -15.5977   35.8044 C   0  0  0  0  0  0  0  0  0  0  0  0
   34.8293  -16.5344   35.8642 C   0  0  0  0  0  0  0  0  0  0  0  0
   36.0400  -16.1474   36.3786 C   0  0  0  0  0  0  0  0  0  0  0  0
   36.2199  -14.8419   36.8197 C   0  0  0  0  0  0  0  0  0  0  0  0
   37.5277  -14.3810   37.3812 C   0  0  0  0  0  0  0  0  0  0  0  0
   35.2182  -13.8928   36.7658 C   0  0  0  0  0  0  0  0  0  0  0  0
   35.4105  -12.4931   37.2361 C   0  0  0  0  0  0  0  0  0  0  0  0
   33.2455  -18.3360   35.8476 N   0  0  0  0  0  0  0  0  0  0  0  0
   32.9401  -18.1817   36.8259 H   0  0  0  0  0  0  0  0  0  0  0  0
   32.3616  -18.9335   34.8981 C   0  0  0  0  0  0  0  0  0  0  0  0
   30.9802  -18.6960   35.0192 N   0  0  0  0  0  0  0  0  0  0  0  0
   32.7990  -19.6728   33.9483 N   0  0  0  0  0  0  0  0  0  0  0  0
   30.3070  -19.3162   34.5426 H   0  0  0  0  0  0  0  0  0  0  0  0
   30.6360  -17.9027   35.5843 H   0  0  0  0  0  0  0  0  0  0  0  0
   32.1492  -20.1035   33.2626 H   0  0  0  0  0  0  0  0  0  0  0  0
 27 28  1  0  0  0
 28 29  2  0  0  0
 29 30  1  0  0  0
 30 31  2  0  0  0
 31 32  1  0  0  0
 32 33  1  0  0  0
 32 34  2  0  0  0
 34 35  1  0  0  0
 30 26  1  0  0  0
 26 36  1  0  0  0
 36 38  1  0  0  0
 38 39  1  0  0  0
 38 40  2  0  0  0
 26  1  1  0  0  0
  1  2  2  0  0  0
  1  3  1  0  0  0
  3  4  1  0  0  0
  4  5  1  0  0  0
  5  6  1  0  0  0
  6  7  1  0  0  0
  7  8  1  0  0  0
  8  9  2  0  0  0
  8 10  1  0  0  0
 10 11  1  0  0  0
 11 12  1  0  0  0
 12 13  1  0  0  0
 13 14  1  0  0  0
 14 15  1  0  0  0
 15 16  2  0  0  0
 15 17  1  0  0  0
 17 18  2  0  0  0
 18 19  1  0  0  0
 19 20  2  0  0  0
 20 21  1  0  0  0
 21 22  2  0  0  0
 22 23  1  0  0  0
 23 24  2  0  0  0
 24 25  1  0  0  0
 34 28  1  0  0  0
  7  3  1  0  0  0
 14 10  1  0  0  0
 25 17  1  0  0  0
 24 19  1  0  0  0
 36 37  1  0  0  0
 39 41  1  0  0  0
 39 42  1  0  0  0
 40 43  1  0  0  0
M  END
> <minimizedAffinity>
-7.43924

> <CNNscore>
0.2989633679

> <CNNaffinity>
6.4930601120

> <CNN_VS>
1.9411871433

> <CNNaffinity_variance>
0.1505051553

$$$$
[H]N=C(N([H])[H])N([H])[C@]([H])(C(=O)N1C([H])([H])C([H])([H])C([H])([H])[C@@]1([H])C(=O)N1C([H])([H])C([H])([H])C([H])([H])C1([H])C(=O)c1nc2c([H])c([H])c([H])c([H])c2s1)c1c([H])c(C([H])([H])[H])c(C([H])([H])[H])c(C([H])([H])[H])c1[H]


 43 47  0  0  0  0  0  0  0  0999 V2000
   39.1301  -20.1625   36.9242 C   0  0  0  0  0  0  0  0  0  0  0  0
   38.8155  -18.9622   36.9473 O   0  0  0  0  0  0  0  0  0  0  0  0
   38.1929  -21.1707   36.6692 N   0  0  0  0  0  0  0  0  0  0  0  0
   38.6393  -22.5834   36.5096 C   0  0  0  0  0  0  0  0  0  0  0  0
   37.5626  -23.3901   37.1805 C   0  0  0  0  0  0  0  0  0  0  0  0
   36.3858  -22.4788   37.3285 C   0  0  0  0  0  0  0  0  0  0  0  0
   36.7859  -21.2540   36.4851 C   0  0  0  0  0  0  0  0  0  0  0  0
   35.9514  -20.1192   36.8678 C   0  0  0  0  0  0  0  0  0  0  0  0
   35.3194  -19.9663   37.9454 O   0  0  0  0  0  0  0  0  0  0  0  0
   35.7993  -19.0278   35.9468 N   0  0  0  0  0  0  0  0  0  0  0  0
   36.4107  -18.9333   34.6510 C   0  0  0  0  0  0  0  0  0  0  0  0
   36.6972  -17.4304   34.4777 C   0  0  0  0  0  0  0  0  0  0  0  0
   35.9070  -16.7491   35.5407 C   0  0  0  0  0  0  0  0  0  0  0  0
   35.0217  -17.8290   36.1065 C   0  0  0  0  0  0  0  0  0  0  0  0
   33.7481  -17.8819   35.3574 C   0  0  0  0  0  0  0  0  0  0  0  0
   33.2649  -16.8921   34.7887 O   0  0  0  0  0  0  0  0  0  0  0  0
   33.0841  -19.2071   35.3318 C   0  0  0  0  0  0  0  0  0  0  0  0
   32.4028  -19.8021   36.2853 N   0  0  0  0  0  0  0  0  0  0  0  0
   31.8792  -20.9818   36.0775 C   0  0  0  0  0  0  0  0  0  0  0  0
   31.1290  -21.7302   37.0111 C   0  0  0  0  0  0  0  0  0  0  0  0
   30.6518  -22.9378   36.6548 C   0  0  0  0  0  0  0  0  0  0  0  0
   30.8219  -23.5555   35.4202 C   0  0  0  0  0  0  0  0  0  0  0  0
   31.5622  -22.8077   34.5109 C   0  0  0  0  0  0  0  0  0  0  0  0
   32.0752  -21.5479   34.8445 C   0  0  0  0  0  0  0  0  0  0  0  0
   33.0012  -20.3458   34.0602 S   0  0  0  0  0  0  0  0  0  0  0  0
   40.5436  -20.4731   37.1777 C   0  0  0  0  0  0  0  0  0  0  0  0
   43.6133  -18.3454   40.5080 C   0  0  0  0  0  0  0  0  0  0  0  0
   42.4206  -19.1849   40.2148 C   0  0  0  0  0  0  0  0  0  0  0  0
   42.0331  -19.4634   38.9153 C   0  0  0  0  0  0  0  0  0  0  0  0
   40.9354  -20.2356   38.6069 C   0  0  0  0  0  0  0  0  0  0  0  0
   40.1967  -20.7492   39.6417 C   0  0  0  0  0  0  0  0  0  0  0  0
   40.5661  -20.4841   40.9549 C   0  0  0  0  0  0  0  0  0  0  0  0
   39.7890  -21.0317   42.1100 C   0  0  0  0  0  0  0  0  0  0  0  0
   41.6641  -19.7114   41.2783 C   0  0  0  0  0  0  0  0  0  0  0  0
   42.0621  -19.4286   42.6851 C   0  0  0  0  0  0  0  0  0  0  0  0
   41.4271  -19.6661   36.3292 N   0  0  0  0  0  0  0  0  0  0  0  0
   42.2064  -19.1221   36.7425 H   0  0  0  0  0  0  0  0  0  0  0  0
   41.1947  -19.6432   34.9201 C   0  0  0  0  0  0  0  0  0  0  0  0
   40.6000  -18.5014   34.3525 N   0  0  0  0  0  0  0  0  0  0  0  0
   41.5151  -20.6319   34.1720 N   0  0  0  0  0  0  0  0  0  0  0  0
   40.1698  -18.5561   33.4162 H   0  0  0  0  0  0  0  0  0  0  0  0
   40.5915  -17.6073   34.8699 H   0  0  0  0  0  0  0  0  0  0  0  0
   41.3422  -20.6068   33.1486 H   0  0  0  0  0  0  0  0  0  0  0  0
 27 28  1  0  0  0
 28 29  2  0  0  0
 29 30  1  0  0  0
 30 31  2  0  0  0
 31 32  1  0  0  0
 32 33  1  0  0  0
 32 34  2  0  0  0
 34 35  1  0  0  0
 30 26  1  0  0  0
 26 36  1  0  0  0
 36 38  1  0  0  0
 38 39  1  0  0  0
 38 40  2  0  0  0
 26  1  1  0  0  0
  1  2  2  0  0  0
  1  3  1  0  0  0
  3  4  1  0  0  0
  4  5  1  0  0  0
  5  6  1  0  0  0
  6  7  1  0  0  0
  7  8  1  0  0  0
  8  9  2  0  0  0
  8 10  1  0  0  0
 10 11  1  0  0  0
 11 12  1  0  0  0
 12 13  1  0  0  0
 13 14  1  0  0  0
 14 15  1  0  0  0
 15 16  2  0  0  0
 15 17  1  0  0  0
 17 18  2  0  0  0
 18 19  1  0  0  0
 19 20  2  0  0  0
 20 21  1  0  0  0
 21 22  2  0  0  0
 22 23  1  0  0  0
 23 24  2  0  0  0
 24 25  1  0  0  0
 34 28  1  0  0  0
  7  3  1  0  0  0
 14 10  1  0  0  0
 25 17  1  0  0  0
 24 19  1  0  0  0
 36 37  1  0  0  0
 39 41  1  0  0  0
 39 42  1  0  0  0
 40 43  1  0  0  0
M  END
> <minimizedAffinity>
-6.77781

> <CNNscore>
0.2762647569

> <CNNaffinity>
5.8627409935

> <CNN_VS>
1.6196687222

> <CNNaffinity_variance>
0.1602955908

$$$$
[H]N=C(N([H])[H])N([H])[C@]([H])(C(=O)N1C([H])([H])C([H])([H])C([H])([H])[C@@]1([H])C(=O)N1C([H])([H])C([H])([H])C([H])([H])C1([H])C(=O)c1nc2c([H])c([H])c([H])c([H])c2s1)c1c([H])c(C([H])([H])[H])c(C([H])([H])[H])c(C([H])([H])[H])c1[H]


 43 47  0  0  0  0  0  0  0  0999 V2000
   37.4520  -19.9639   36.1950 C   0  0  0  0  0  0  0  0  0  0  0  0
   37.9569  -20.3158   37.2727 O   0  0  0  0  0  0  0  0  0  0  0  0
   36.1302  -19.5113   36.1073 N   0  0  0  0  0  0  0  0  0  0  0  0
   35.6107  -18.9650   34.8219 C   0  0  0  0  0  0  0  0  0  0  0  0
   34.1948  -19.4655   34.7520 C   0  0  0  0  0  0  0  0  0  0  0  0
   33.8390  -19.9134   36.1340 C   0  0  0  0  0  0  0  0  0  0  0  0
   35.0155  -19.3946   36.9816 C   0  0  0  0  0  0  0  0  0  0  0  0
   35.0349  -20.1065   38.2556 C   0  0  0  0  0  0  0  0  0  0  0  0
   35.1408  -19.6080   39.4064 O   0  0  0  0  0  0  0  0  0  0  0  0
   34.9258  -21.5385   38.2523 N   0  0  0  0  0  0  0  0  0  0  0  0
   34.7868  -22.3656   37.0868 C   0  0  0  0  0  0  0  0  0  0  0  0
   33.8861  -23.5246   37.5519 C   0  0  0  0  0  0  0  0  0  0  0  0
   33.8729  -23.4466   39.0392 C   0  0  0  0  0  0  0  0  0  0  0  0
   34.9381  -22.4357   39.3757 C   0  0  0  0  0  0  0  0  0  0  0  0
   36.2425  -23.1121   39.5398 C   0  0  0  0  0  0  0  0  0  0  0  0
   36.4733  -24.2404   39.0811 O   0  0  0  0  0  0  0  0  0  0  0  0
   37.2622  -22.3451   40.2942 C   0  0  0  0  0  0  0  0  0  0  0  0
   38.4530  -21.9536   39.8990 N   0  0  0  0  0  0  0  0  0  0  0  0
   39.2214  -21.2743   40.7096 C   0  0  0  0  0  0  0  0  0  0  0  0
   40.5171  -20.7960   40.4150 C   0  0  0  0  0  0  0  0  0  0  0  0
   41.1943  -20.1091   41.3545 C   0  0  0  0  0  0  0  0  0  0  0  0
   40.7421  -19.8058   42.6345 C   0  0  0  0  0  0  0  0  0  0  0  0
   39.4653  -20.2826   42.9110 C   0  0  0  0  0  0  0  0  0  0  0  0
   38.7299  -21.0010   41.9598 C   0  0  0  0  0  0  0  0  0  0  0  0
   37.1911  -21.7390   41.8905 S   0  0  0  0  0  0  0  0  0  0  0  0
   38.3170  -20.0451   35.0101 C   0  0  0  0  0  0  0  0  0  0  0  0
   39.1010  -24.8364   33.7978 C   0  0  0  0  0  0  0  0  0  0  0  0
   39.5824  -23.5749   34.4226 C   0  0  0  0  0  0  0  0  0  0  0  0
   38.7923  -22.4389   34.4613 C   0  0  0  0  0  0  0  0  0  0  0  0
   39.2051  -21.2548   35.0304 C   0  0  0  0  0  0  0  0  0  0  0  0
   40.4593  -21.2072   35.5826 C   0  0  0  0  0  0  0  0  0  0  0  0
   41.2710  -22.3349   35.5565 C   0  0  0  0  0  0  0  0  0  0  0  0
   42.6424  -22.3234   36.1540 C   0  0  0  0  0  0  0  0  0  0  0  0
   40.8698  -23.5283   34.9891 C   0  0  0  0  0  0  0  0  0  0  0  0
   41.7378  -24.7380   34.9626 C   0  0  0  0  0  0  0  0  0  0  0  0
   39.1738  -18.8601   34.8935 N   0  0  0  0  0  0  0  0  0  0  0  0
   39.5249  -18.3751   35.7395 H   0  0  0  0  0  0  0  0  0  0  0  0
   39.5172  -18.3851   33.5910 C   0  0  0  0  0  0  0  0  0  0  0  0
   38.5207  -18.3573   32.5982 N   0  0  0  0  0  0  0  0  0  0  0  0
   40.7026  -17.9877   33.3137 N   0  0  0  0  0  0  0  0  0  0  0  0
   38.7864  -18.2922   31.6032 H   0  0  0  0  0  0  0  0  0  0  0  0
   37.5226  -18.4023   32.8611 H   0  0  0  0  0  0  0  0  0  0  0  0
   40.9434  -17.6443   32.3640 H   0  0  0  0  0  0  0  0  0  0  0  0
 27 28  1  0  0  0
 28 29  2  0  0  0
 29 30  1  0  0  0
 30 31  2  0  0  0
 31 32  1  0  0  0
 32 33  1  0  0  0
 32 34  2  0  0  0
 34 35  1  0  0  0
 30 26  1  0  0  0
 26 36  1  0  0  0
 36 38  1  0  0  0
 38 39  1  0  0  0
 38 40  2  0  0  0
 26  1  1  0  0  0
  1  2  2  0  0  0
  1  3  1  0  0  0
  3  4  1  0  0  0
  4  5  1  0  0  0
  5  6  1  0  0  0
  6  7  1  0  0  0
  7  8  1  0  0  0
  8  9  2  0  0  0
  8 10  1  0  0  0
 10 11  1  0  0  0
 11 12  1  0  0  0
 12 13  1  0  0  0
 13 14  1  0  0  0
 14 15  1  0  0  0
 15 16  2  0  0  0
 15 17  1  0  0  0
 17 18  2  0  0  0
 18 19  1  0  0  0
 19 20  2  0  0  0
 20 21  1  0  0  0
 21 22  2  0  0  0
 22 23  1  0  0  0
 23 24  2  0  0  0
 24 25  1  0  0  0
 34 28  1  0  0  0
  7  3  1  0  0  0
 14 10  1  0  0  0
 25 17  1  0  0  0
 24 19  1  0  0  0
 36 37  1  0  0  0
 39 41  1  0  0  0
 39 42  1  0  0  0
 40 43  1  0  0  0
M  END
> <minimizedAffinity>
-5.76473

> <CNNscore>
0.2723038197

> <CNNaffinity>
5.9085736275

> <CNN_VS>
1.6089271307

> <CNNaffinity_variance>
0.3290705085

$$$$
[H]c1nc2c([H])c(-c3c([H])c([H])c(S(=O)(=O)N([H])C([H])([H])c4c([H])c([H])c(C(=O)N5C([H])([H])C([H])([H])C([H])(N6C([H])([H])C([H])([H])S(=O)(=O)C([H])([H])C6([H])[H])C([H])([H])C5([H])[H])c([H])c4OC([H])([H])[H])c([H])c3[H])c([H])c([H])c2c([H])c1[H]


 46 51  0  0  0  0  0  0  0  0999 V2000
   35.8062  -14.9673   37.0504 C   0  0  0  0  0  0  0  0  0  0  0  0
   36.2771  -16.1656   37.4807 C   0  0  0  0  0  0  0  0  0  0  0  0
   35.8272  -17.4046   37.0893 C   0  0  0  0  0  0  0  0  0  0  0  0
   34.7750  -17.3229   36.1421 C   0  0  0  0  0  0  0  0  0  0  0  0
   34.2695  -16.1563   35.6686 C   0  0  0  0  0  0  0  0  0  0  0  0
   34.7695  -14.9939   36.1097 C   0  0  0  0  0  0  0  0  0  0  0  0
   36.2647  -18.6680   37.5513 C   0  0  0  0  0  0  0  0  0  0  0  0
   35.5034  -19.2550   38.4202 O   0  0  0  0  0  0  0  0  0  0  0  0
   37.4358  -19.3816   37.1854 N   0  0  0  0  0  0  0  0  0  0  0  0
   38.4521  -18.8546   36.3296 C   0  0  0  0  0  0  0  0  0  0  0  0
   39.8413  -19.4023   36.5292 C   0  0  0  0  0  0  0  0  0  0  0  0
   39.6935  -20.8953   36.5546 C   0  0  0  0  0  0  0  0  0  0  0  0
   38.9058  -21.2166   37.8359 C   0  0  0  0  0  0  0  0  0  0  0  0
   37.5094  -20.7707   37.6806 C   0  0  0  0  0  0  0  0  0  0  0  0
   40.8875  -21.6147   36.5136 N   0  0  0  0  0  0  0  0  0  0  0  0
   42.0436  -21.0443   37.1277 C   0  0  0  0  0  0  0  0  0  0  0  0
   42.7683  -22.2295   37.7952 C   0  0  0  0  0  0  0  0  0  0  0  0
   42.1829  -23.7439   37.0771 S   0  0  0  0  0  0  0  0  0  0  0  0
   40.8800  -24.0797   37.8017 O   0  0  0  0  0  0  0  0  0  0  0  0
   43.1725  -24.8344   37.1715 O   0  0  0  0  0  0  0  0  0  0  0  0
   41.6878  -23.5263   35.3673 C   0  0  0  0  0  0  0  0  0  0  0  0
   41.2814  -22.0704   35.1815 C   0  0  0  0  0  0  0  0  0  0  0  0
   37.6437  -13.3949   37.4770 C   0  0  0  0  0  0  0  0  0  0  0  0
   36.2844  -13.7605   37.4815 O   0  0  0  0  0  0  0  0  0  0  0  0
   34.3181  -13.5763   35.7256 C   0  0  0  0  0  0  0  0  0  0  0  0
   33.0245  -13.5266   36.4014 N   0  0  0  0  0  0  0  0  0  0  0  0
   32.7373  -14.4893   36.6040 H   0  0  0  0  0  0  0  0  0  0  0  0
   32.7650  -12.4971   37.6390 S   0  0  0  0  0  0  0  0  0  0  0  0
   33.3743  -13.0774   38.9744 O   0  0  0  0  0  0  0  0  0  0  0  0
   33.5702  -11.2003   37.4423 O   0  0  0  0  0  0  0  0  0  0  0  0
   31.1308  -12.1388   38.0685 C   0  0  0  0  0  0  0  0  0  0  0  0
   30.5522  -11.0011   37.4307 C   0  0  0  0  0  0  0  0  0  0  0  0
   29.2875  -10.6293   37.7857 C   0  0  0  0  0  0  0  0  0  0  0  0
   28.5479  -11.3112   38.7253 C   0  0  0  0  0  0  0  0  0  0  0  0
   29.1255  -12.4023   39.3153 C   0  0  0  0  0  0  0  0  0  0  0  0
   30.4142  -12.8147   38.9895 C   0  0  0  0  0  0  0  0  0  0  0  0
   27.2633  -10.7055   39.1494 C   0  0  0  0  0  0  0  0  0  0  0  0
   27.1328   -9.4997   39.7068 C   0  0  0  0  0  0  0  0  0  0  0  0
   25.8708   -8.9142   39.9295 C   0  0  0  0  0  0  0  0  0  0  0  0
   24.7289   -9.5788   39.5709 C   0  0  0  0  0  0  0  0  0  0  0  0
   23.4675   -9.0105   39.7500 C   0  0  0  0  0  0  0  0  0  0  0  0
   22.3162   -9.6658   39.3490 C   0  0  0  0  0  0  0  0  0  0  0  0
   22.4676  -10.9018   38.7663 C   0  0  0  0  0  0  0  0  0  0  0  0
   23.6936  -11.4501   38.6004 N   0  0  0  0  0  0  0  0  0  0  0  0
   24.8389  -10.8146   38.9939 C   0  0  0  0  0  0  0  0  0  0  0  0
   26.0885  -11.3975   38.7732 C   0  0  0  0  0  0  0  0  0  0  0  0
 23 24  1  0  0  0
 24  1  1  0  0  0
  1  2  2  0  0  0
  2  3  1  0  0  0
  3  4  2  0  0  0
  4  5  1  0  0  0
  5  6  2  0  0  0
  6 25  1  0  0  0
 25 26  1  0  0  0
 26 28  1  0  0  0
 28 29  2  0  0  0
 28 30  2  0  0  0
 28 31  1  0  0  0
 31 32  2  0  0  0
 32 33  1  0  0  0
 33 34  2  0  0  0
 34 35  1  0  0  0
 35 36  2  0  0  0
 34 37  1  0  0  0
 37 38  2  0  0  0
 38 39  1  0  0  0
 39 40  2  0  0  0
 40 41  1  0  0  0
 41 42  2  0  0  0
 42 43  1  0  0  0
 43 44  2  0  0  0
 44 45  1  0  0  0
 45 46  2  0  0  0
  3  7  1  0  0  0
  7  8  2  0  0  0
  7  9  1  0  0  0
  9 10  1  0  0  0
 10 11  1  0  0  0
 11 12  1  0  0  0
 12 13  1  0  0  0
 13 14  1  0  0  0
 12 15  1  0  0  0
 15 16  1  0  0  0
 16 17  1  0  0  0
 17 18  1  0  0  0
 18 19  2  0  0  0
 18 20  2  0  0  0
 18 21  1  0  0  0
 21 22  1  0  0  0
  6  1  1  0  0  0
 36 31  1  0  0  0
 46 37  1  0  0  0
 14  9  1  0  0  0
 22 15  1  0  0  0
 45 40  1  0  0  0
 26 27  1  0  0  0
M  END
> <minimizedAffinity>
-9.90774

> <CNNscore>
0.4511338472

> <CNNaffinity>
6.2371168137

> <CNN_VS>
2.8137745857

> <CNNaffinity_variance>
0.2183216512

$$$$
[H]c1nc2c([H])c(-c3c([H])c([H])c(S(=O)(=O)N([H])C([H])([H])c4c([H])c([H])c(C(=O)N5C([H])([H])C([H])([H])C([H])(N6C([H])([H])C([H])([H])S(=O)(=O)C([H])([H])C6([H])[H])C([H])([H])C5([H])[H])c([H])c4OC([H])([H])[H])c([H])c3[H])c([H])c([H])c2c([H])c1[H]


 46 51  0  0  0  0  0  0  0  0999 V2000
   36.0292  -14.6979   37.0976 C   0  0  0  0  0  0  0  0  0  0  0  0
   36.4246  -15.9633   37.3893 C   0  0  0  0  0  0  0  0  0  0  0  0
   35.8160  -17.1229   36.9701 C   0  0  0  0  0  0  0  0  0  0  0  0
   34.6804  -16.8740   36.1582 C   0  0  0  0  0  0  0  0  0  0  0  0
   34.2428  -15.6335   35.8255 C   0  0  0  0  0  0  0  0  0  0  0  0
   34.8989  -14.5584   36.2830 C   0  0  0  0  0  0  0  0  0  0  0  0
   36.1756  -18.4525   37.2926 C   0  0  0  0  0  0  0  0  0  0  0  0
   35.5840  -18.9720   38.3218 O   0  0  0  0  0  0  0  0  0  0  0  0
   37.1054  -19.2975   36.6324 N   0  0  0  0  0  0  0  0  0  0  0  0
   37.9362  -18.8717   35.5500 C   0  0  0  0  0  0  0  0  0  0  0  0
   39.2406  -19.6066   35.3822 C   0  0  0  0  0  0  0  0  0  0  0  0
   38.8976  -21.0666   35.4303 C   0  0  0  0  0  0  0  0  0  0  0  0
   38.4217  -21.3379   36.8675 C   0  0  0  0  0  0  0  0  0  0  0  0
   37.1074  -20.7049   37.0790 C   0  0  0  0  0  0  0  0  0  0  0  0
   39.9305  -21.9349   35.0782 N   0  0  0  0  0  0  0  0  0  0  0  0
   39.5974  -23.2806   34.7359 C   0  0  0  0  0  0  0  0  0  0  0  0
   40.5333  -23.6393   33.5652 C   0  0  0  0  0  0  0  0  0  0  0  0
   41.8916  -22.4966   33.5395 S   0  0  0  0  0  0  0  0  0  0  0  0
   41.3854  -21.2542   32.8077 O   0  0  0  0  0  0  0  0  0  0  0  0
   43.0976  -23.0654   32.9076 O   0  0  0  0  0  0  0  0  0  0  0  0
   42.2962  -21.9011   35.1820 C   0  0  0  0  0  0  0  0  0  0  0  0
   41.0363  -21.9888   36.0329 C   0  0  0  0  0  0  0  0  0  0  0  0
   38.0650  -13.4223   37.6067 C   0  0  0  0  0  0  0  0  0  0  0  0
   36.6669  -13.5759   37.5507 O   0  0  0  0  0  0  0  0  0  0  0  0
   34.5491  -13.0806   36.0496 C   0  0  0  0  0  0  0  0  0  0  0  0
   33.1545  -13.0750   36.4827 N   0  0  0  0  0  0  0  0  0  0  0  0
   32.8188  -14.0433   36.4774 H   0  0  0  0  0  0  0  0  0  0  0  0
   32.6897  -12.2335   37.7998 S   0  0  0  0  0  0  0  0  0  0  0  0
   33.1744  -12.9586   39.1153 O   0  0  0  0  0  0  0  0  0  0  0  0
   33.4306  -10.8863   37.8707 O   0  0  0  0  0  0  0  0  0  0  0  0
   30.9977  -12.0116   38.0666 C   0  0  0  0  0  0  0  0  0  0  0  0
   30.3902  -10.9312   37.3598 C   0  0  0  0  0  0  0  0  0  0  0  0
   29.0706  -10.6651   37.5874 C   0  0  0  0  0  0  0  0  0  0  0  0
   28.3036  -11.4007   38.4623 C   0  0  0  0  0  0  0  0  0  0  0  0
   28.9109  -12.4350   39.1207 C   0  0  0  0  0  0  0  0  0  0  0  0
   30.2549  -12.7394   38.9251 C   0  0  0  0  0  0  0  0  0  0  0  0
   26.9382  -10.9027   38.7534 C   0  0  0  0  0  0  0  0  0  0  0  0
   25.8101  -11.4506   38.2963 C   0  0  0  0  0  0  0  0  0  0  0  0
   24.5425  -11.0325   38.7472 C   0  0  0  0  0  0  0  0  0  0  0  0
   24.4363  -10.0389   39.6831 C   0  0  0  0  0  0  0  0  0  0  0  0
   23.1963   -9.6266   40.1715 C   0  0  0  0  0  0  0  0  0  0  0  0
   23.0922   -8.6510   41.1478 C   0  0  0  0  0  0  0  0  0  0  0  0
   24.2634   -8.1043   41.6166 C   0  0  0  0  0  0  0  0  0  0  0  0
   25.4629   -8.5047   41.1348 N   0  0  0  0  0  0  0  0  0  0  0  0
   25.5799   -9.4658   40.1689 C   0  0  0  0  0  0  0  0  0  0  0  0
   26.8373   -9.8776   39.7227 C   0  0  0  0  0  0  0  0  0  0  0  0
 23 24  1  0  0  0
 24  1  1  0  0  0
  1  2  2  0  0  0
  2  3  1  0  0  0
  3  4  2  0  0  0
  4  5  1  0  0  0
  5  6  2  0  0  0
  6 25  1  0  0  0
 25 26  1  0  0  0
 26 28  1  0  0  0
 28 29  2  0  0  0
 28 30  2  0  0  0
 28 31  1  0  0  0
 31 32  2  0  0  0
 32 33  1  0  0  0
 33 34  2  0  0  0
 34 35  1  0  0  0
 35 36  2  0  0  0
 34 37  1  0  0  0
 37 38  2  0  0  0
 38 39  1  0  0  0
 39 40  2  0  0  0
 40 41  1  0  0  0
 41 42  2  0  0  0
 42 43  1  0  0  0
 43 44  2  0  0  0
 44 45  1  0  0  0
 45 46  2  0  0  0
  3  7  1  0  0  0
  7  8  2  0  0  0
  7  9  1  0  0  0
  9 10  1  0  0  0
 10 11  1  0  0  0
 11 12  1  0  0  0
 12 13  1  0  0  0
 13 14  1  0  0  0
 12 15  1  0  0  0
 15 16  1  0  0  0
 16 17  1  0  0  0
 17 18  1  0  0  0
 18 19  2  0  0  0
 18 20  2  0  0  0
 18 21  1  0  0  0
 21 22  1  0  0  0
  6  1  1  0  0  0
 36 31  1  0  0  0
 46 37  1  0  0  0
 14  9  1  0  0  0
 22 15  1  0  0  0
 45 40  1  0  0  0
 26 27  1  0  0  0
M  END
> <minimizedAffinity>
-10.87016

> <CNNscore>
0.4297533333

> <CNNaffinity>
6.3492536545

> <CNN_VS>
2.7286128998

> <CNNaffinity_variance>
0.1981169134

$$$$
[H]c1nc2c([H])c(-c3c([H])c([H])c(S(=O)(=O)N([H])C([H])([H])c4c([H])c([H])c(C(=O)N5C([H])([H])C([H])([H])C([H])(N6C([H])([H])C([H])([H])S(=O)(=O)C([H])([H])C6([H])[H])C([H])([H])C5([H])[H])c([H])c4OC([H])([H])[H])c([H])c3[H])c([H])c([H])c2c([H])c1[H]


 46 51  0  0  0  0  0  0  0  0999 V2000
   31.5755  -21.7173   34.6444 C   0  0  0  0  0  0  0  0  0  0  0  0
   30.4118  -21.6716   35.3420 C   0  0  0  0  0  0  0  0  0  0  0  0
   29.9051  -20.5810   36.0087 C   0  0  0  0  0  0  0  0  0  0  0  0
   30.7429  -19.4424   35.8971 C   0  0  0  0  0  0  0  0  0  0  0  0
   31.9110  -19.4247   35.2071 C   0  0  0  0  0  0  0  0  0  0  0  0
   32.3283  -20.5380   34.5890 C   0  0  0  0  0  0  0  0  0  0  0  0
   28.7214  -20.5136   36.7803 C   0  0  0  0  0  0  0  0  0  0  0  0
   27.9919  -19.4549   36.6185 O   0  0  0  0  0  0  0  0  0  0  0  0
   28.2247  -21.4597   37.7145 N   0  0  0  0  0  0  0  0  0  0  0  0
   28.9375  -22.6333   38.1116 C   0  0  0  0  0  0  0  0  0  0  0  0
   28.6260  -23.1694   39.4845 C   0  0  0  0  0  0  0  0  0  0  0  0
   27.1292  -23.2327   39.5700 C   0  0  0  0  0  0  0  0  0  0  0  0
   26.6463  -21.7727   39.5480 C   0  0  0  0  0  0  0  0  0  0  0  0
   26.8551  -21.2049   38.2038 C   0  0  0  0  0  0  0  0  0  0  0  0
   26.6221  -23.9057   40.6812 N   0  0  0  0  0  0  0  0  0  0  0  0
   26.8732  -25.3065   40.7977 C   0  0  0  0  0  0  0  0  0  0  0  0
   27.1388  -25.5422   42.2975 C   0  0  0  0  0  0  0  0  0  0  0  0
   26.5055  -24.1645   43.2206 S   0  0  0  0  0  0  0  0  0  0  0  0
   27.5827  -23.0824   43.1581 O   0  0  0  0  0  0  0  0  0  0  0  0
   26.1555  -24.5258   44.6078 O   0  0  0  0  0  0  0  0  0  0  0  0
   25.0877  -23.4158   42.4173 C   0  0  0  0  0  0  0  0  0  0  0  0
   25.1958  -23.6965   40.9244 C   0  0  0  0  0  0  0  0  0  0  0  0
   31.3074  -24.0281   33.8576 C   0  0  0  0  0  0  0  0  0  0  0  0
   32.0392  -22.8348   34.0066 O   0  0  0  0  0  0  0  0  0  0  0  0
   33.6262  -20.7329   33.7898 C   0  0  0  0  0  0  0  0  0  0  0  0
   34.0504  -19.3430   33.6457 N   0  0  0  0  0  0  0  0  0  0  0  0
   33.2136  -18.7526   33.6814 H   0  0  0  0  0  0  0  0  0  0  0  0
   35.2987  -18.7540   34.5138 S   0  0  0  0  0  0  0  0  0  0  0  0
   35.6485  -19.7281   35.7054 O   0  0  0  0  0  0  0  0  0  0  0  0
   36.5928  -18.7701   33.6806 O   0  0  0  0  0  0  0  0  0  0  0  0
   35.0966  -17.2260   35.2934 C   0  0  0  0  0  0  0  0  0  0  0  0
   33.7529  -16.7641   35.4239 C   0  0  0  0  0  0  0  0  0  0  0  0
   33.5390  -15.5303   35.9679 C   0  0  0  0  0  0  0  0  0  0  0  0
   34.5643  -14.7208   36.4017 C   0  0  0  0  0  0  0  0  0  0  0  0
   35.8420  -15.1926   36.2705 C   0  0  0  0  0  0  0  0  0  0  0  0
   36.1084  -16.4412   35.7164 C   0  0  0  0  0  0  0  0  0  0  0  0
   34.2142  -13.3386   36.8068 C   0  0  0  0  0  0  0  0  0  0  0  0
   35.0767  -12.3233   36.8886 C   0  0  0  0  0  0  0  0  0  0  0  0
   34.6504  -10.9995   37.1140 C   0  0  0  0  0  0  0  0  0  0  0  0
   33.3179  -10.7182   37.2543 C   0  0  0  0  0  0  0  0  0  0  0  0
   32.8644   -9.4130   37.4462 C   0  0  0  0  0  0  0  0  0  0  0  0
   31.5143   -9.1245   37.5464 C   0  0  0  0  0  0  0  0  0  0  0  0
   30.6378  -10.1793   37.4487 C   0  0  0  0  0  0  0  0  0  0  0  0
   31.0843  -11.4439   37.2680 N   0  0  0  0  0  0  0  0  0  0  0  0
   32.4153  -11.7431   37.1697 C   0  0  0  0  0  0  0  0  0  0  0  0
   32.8354  -13.0561   36.9475 C   0  0  0  0  0  0  0  0  0  0  0  0
 23 24  1  0  0  0
 24  1  1  0  0  0
  1  2  2  0  0  0
  2  3  1  0  0  0
  3  4  2  0  0  0
  4  5  1  0  0  0
  5  6  2  0  0  0
  6 25  1  0  0  0
 25 26  1  0  0  0
 26 28  1  0  0  0
 28 29  2  0  0  0
 28 30  2  0  0  0
 28 31  1  0  0  0
 31 32  2  0  0  0
 32 33  1  0  0  0
 33 34  2  0  0  0
 34 35  1  0  0  0
 35 36  2  0  0  0
 34 37  1  0  0  0
 37 38  2  0  0  0
 38 39  1  0  0  0
 39 40  2  0  0  0
 40 41  1  0  0  0
 41 42  2  0  0  0
 42 43  1  0  0  0
 43 44  2  0  0  0
 44 45  1  0  0  0
 45 46  2  0  0  0
  3  7  1  0  0  0
  7  8  2  0  0  0
  7  9  1  0  0  0
  9 10  1  0  0  0
 10 11  1  0  0  0
 11 12  1  0  0  0
 12 13  1  0  0  0
 13 14  1  0  0  0
 12 15  1  0  0  0
 15 16  1  0  0  0
 16 17  1  0  0  0
 17 18  1  0  0  0
 18 19  2  0  0  0
 18 20  2  0  0  0
 18 21  1  0  0  0
 21 22  1  0  0  0
  6  1  1  0  0  0
 36 31  1  0  0  0
 46 37  1  0  0  0
 14  9  1  0  0  0
 22 15  1  0  0  0
 45 40  1  0  0  0
 26 27  1  0  0  0
M  END
> <minimizedAffinity>
-7.21657

> <CNNscore>
0.3126007915

> <CNNaffinity>
5.9831676483

> <CNN_VS>
1.8703429699

> <CNNaffinity_variance>
0.0973001868

$$$$
[H]c1nc2c([H])c(-c3c([H])c([H])c(S(=O)(=O)N([H])C([H])([H])c4c([H])c([H])c(C(=O)N5C([H])([H])C([H])([H])C([H])(N6C([H])([H])C([H])([H])S(=O)(=O)C([H])([H])C6([H])[H])C([H])([H])C5([H])[H])c([H])c4OC([H])([H])[H])c([H])c3[H])c([H])c([H])c2c([H])c1[H]


 46 51  0  0  0  0  0  0  0  0999 V2000
   32.6052  -10.2933   37.4109 C   0  0  0  0  0  0  0  0  0  0  0  0
   33.7712  -10.9729   37.2646 C   0  0  0  0  0  0  0  0  0  0  0  0
   33.9165  -12.3395   37.2203 C   0  0  0  0  0  0  0  0  0  0  0  0
   32.6776  -13.0186   37.3418 C   0  0  0  0  0  0  0  0  0  0  0  0
   31.4808  -12.3947   37.4810 C   0  0  0  0  0  0  0  0  0  0  0  0
   31.4357  -11.0559   37.5166 C   0  0  0  0  0  0  0  0  0  0  0  0
   35.1187  -13.0774   37.1144 C   0  0  0  0  0  0  0  0  0  0  0  0
   36.2168  -12.4096   37.2794 O   0  0  0  0  0  0  0  0  0  0  0  0
   35.2808  -14.4623   36.8494 N   0  0  0  0  0  0  0  0  0  0  0  0
   34.2001  -15.3418   36.5304 C   0  0  0  0  0  0  0  0  0  0  0  0
   34.5455  -16.5451   35.6924 C   0  0  0  0  0  0  0  0  0  0  0  0
   35.7463  -17.1667   36.3430 C   0  0  0  0  0  0  0  0  0  0  0  0
   36.8924  -16.1579   36.1575 C   0  0  0  0  0  0  0  0  0  0  0  0
   36.6544  -14.9795   37.0104 C   0  0  0  0  0  0  0  0  0  0  0  0
   36.1075  -18.4222   35.8551 N   0  0  0  0  0  0  0  0  0  0  0  0
   36.1053  -18.6261   34.4418 C   0  0  0  0  0  0  0  0  0  0  0  0
   37.3368  -19.5100   34.1630 C   0  0  0  0  0  0  0  0  0  0  0  0
   37.8463  -20.2859   35.6761 S   0  0  0  0  0  0  0  0  0  0  0  0
   38.7017  -19.2557   36.4126 O   0  0  0  0  0  0  0  0  0  0  0  0
   38.5689  -21.5519   35.4473 O   0  0  0  0  0  0  0  0  0  0  0  0
   36.4624  -20.5733   36.7799 C   0  0  0  0  0  0  0  0  0  0  0  0
   35.3882  -19.5428   36.4584 C   0  0  0  0  0  0  0  0  0  0  0  0
   33.1840   -8.0570   36.5776 C   0  0  0  0  0  0  0  0  0  0  0  0
   32.5181   -8.9292   37.4593 O   0  0  0  0  0  0  0  0  0  0  0  0
   30.1956  -10.1670   37.6987 C   0  0  0  0  0  0  0  0  0  0  0  0
   29.1396  -11.1623   37.5349 N   0  0  0  0  0  0  0  0  0  0  0  0
   29.5329  -11.9579   37.0224 H   0  0  0  0  0  0  0  0  0  0  0  0
   28.1993  -11.6006   38.7929 S   0  0  0  0  0  0  0  0  0  0  0  0
   27.0637  -12.5865   38.3137 O   0  0  0  0  0  0  0  0  0  0  0  0
   28.9938  -12.4666   39.7867 O   0  0  0  0  0  0  0  0  0  0  0  0
   27.3283  -10.3632   39.6259 C   0  0  0  0  0  0  0  0  0  0  0  0
   28.0240   -9.7194   40.6924 C   0  0  0  0  0  0  0  0  0  0  0  0
   27.3593   -8.7834   41.4313 C   0  0  0  0  0  0  0  0  0  0  0  0
   26.0518   -8.4315   41.1836 C   0  0  0  0  0  0  0  0  0  0  0  0
   25.4120   -9.0603   40.1503 C   0  0  0  0  0  0  0  0  0  0  0  0
   26.0475  -10.0249   39.3739 C   0  0  0  0  0  0  0  0  0  0  0  0
   25.3913   -7.5370   42.1637 C   0  0  0  0  0  0  0  0  0  0  0  0
   24.2438   -7.8035   42.7912 C   0  0  0  0  0  0  0  0  0  0  0  0
   23.7588   -6.9907   43.8348 C   0  0  0  0  0  0  0  0  0  0  0  0
   24.4668   -5.8907   44.2386 C   0  0  0  0  0  0  0  0  0  0  0  0
   24.0272   -5.0862   45.2901 C   0  0  0  0  0  0  0  0  0  0  0  0
   24.7647   -3.9985   45.7248 C   0  0  0  0  0  0  0  0  0  0  0  0
   25.9498   -3.7436   45.0761 C   0  0  0  0  0  0  0  0  0  0  0  0
   26.3680   -4.5245   44.0531 N   0  0  0  0  0  0  0  0  0  0  0  0
   25.6482   -5.6007   43.6123 C   0  0  0  0  0  0  0  0  0  0  0  0
   26.1305   -6.4040   42.5769 C   0  0  0  0  0  0  0  0  0  0  0  0
 23 24  1  0  0  0
 24  1  1  0  0  0
  1  2  2  0  0  0
  2  3  1  0  0  0
  3  4  2  0  0  0
  4  5  1  0  0  0
  5  6  2  0  0  0
  6 25  1  0  0  0
 25 26  1  0  0  0
 26 28  1  0  0  0
 28 29  2  0  0  0
 28 30  2  0  0  0
 28 31  1  0  0  0
 31 32  2  0  0  0
 32 33  1  0  0  0
 33 34  2  0  0  0
 34 35  1  0  0  0
 35 36  2  0  0  0
 34 37  1  0  0  0
 37 38  2  0  0  0
 38 39  1  0  0  0
 39 40  2  0  0  0
 40 41  1  0  0  0
 41 42  2  0  0  0
 42 43  1  0  0  0
 43 44  2  0  0  0
 44 45  1  0  0  0
 45 46  2  0  0  0
  3  7  1  0  0  0
  7  8  2  0  0  0
  7  9  1  0  0  0
  9 10  1  0  0  0
 10 11  1  0  0  0
 11 12  1  0  0  0
 12 13  1  0  0  0
 13 14  1  0  0  0
 12 15  1  0  0  0
 15 16  1  0  0  0
 16 17  1  0  0  0
 17 18  1  0  0  0
 18 19  2  0  0  0
 18 20  2  0  0  0
 18 21  1  0  0  0
 21 22  1  0  0  0
  6  1  1  0  0  0
 36 31  1  0  0  0
 46 37  1  0  0  0
 14  9  1  0  0  0
 22 15  1  0  0  0
 45 40  1  0  0  0
 26 27  1  0  0  0
M  END
> <minimizedAffinity>
-10.31684

> <CNNscore>
0.2831784785

> <CNNaffinity>
6.3493146896

> <CNN_VS>
1.7979892492

> <CNNaffinity_variance>
0.2108100951

$$$$
[H]c1nc2c([H])c(-c3c([H])c([H])c(S(=O)(=O)N([H])C([H])([H])c4c([H])c([H])c(C(=O)N5C([H])([H])C([H])([H])C([H])(N6C([H])([H])C([H])([H])S(=O)(=O)C([H])([H])C6([H])[H])C([H])([H])C5([H])[H])c([H])c4OC([H])([H])[H])c([H])c3[H])c([H])c([H])c2c([H])c1[H]


 46 51  0  0  0  0  0  0  0  0999 V2000
   35.6703  -15.2074   36.5528 C   0  0  0  0  0  0  0  0  0  0  0  0
   36.3229  -16.3757   36.7805 C   0  0  0  0  0  0  0  0  0  0  0  0
   35.8679  -17.6357   36.4705 C   0  0  0  0  0  0  0  0  0  0  0  0
   34.5911  -17.6124   35.8539 C   0  0  0  0  0  0  0  0  0  0  0  0
   33.8953  -16.4773   35.5927 C   0  0  0  0  0  0  0  0  0  0  0  0
   34.4175  -15.2911   35.9332 C   0  0  0  0  0  0  0  0  0  0  0  0
   36.5018  -18.8723   36.7347 C   0  0  0  0  0  0  0  0  0  0  0  0
   37.3364  -19.2915   35.8365 O   0  0  0  0  0  0  0  0  0  0  0  0
   36.3425  -19.7198   37.8621 N   0  0  0  0  0  0  0  0  0  0  0  0
   35.3899  -19.4873   38.9022 C   0  0  0  0  0  0  0  0  0  0  0  0
   34.9016  -20.7049   39.6428 C   0  0  0  0  0  0  0  0  0  0  0  0
   36.1323  -21.4759   40.0205 C   0  0  0  0  0  0  0  0  0  0  0  0
   36.7345  -21.9781   38.6974 C   0  0  0  0  0  0  0  0  0  0  0  0
   37.3001  -20.8402   37.9503 C   0  0  0  0  0  0  0  0  0  0  0  0
   35.9263  -22.5346   40.9045 N   0  0  0  0  0  0  0  0  0  0  0  0
   34.9210  -23.4974   40.5860 C   0  0  0  0  0  0  0  0  0  0  0  0
   35.5160  -24.8536   41.0127 C   0  0  0  0  0  0  0  0  0  0  0  0
   36.8555  -24.5678   42.1421 S   0  0  0  0  0  0  0  0  0  0  0  0
   38.0776  -24.2571   41.2789 O   0  0  0  0  0  0  0  0  0  0  0  0
   37.0859  -25.7102   43.0472 O   0  0  0  0  0  0  0  0  0  0  0  0
   36.6112  -23.0754   43.1061 C   0  0  0  0  0  0  0  0  0  0  0  0
   35.7246  -22.1381   42.2971 C   0  0  0  0  0  0  0  0  0  0  0  0
   37.3628  -13.7705   37.6023 C   0  0  0  0  0  0  0  0  0  0  0  0
   36.1656  -13.9783   36.8917 O   0  0  0  0  0  0  0  0  0  0  0  0
   33.7812  -13.9039   35.7547 C   0  0  0  0  0  0  0  0  0  0  0  0
   32.8094  -13.9247   36.8445 N   0  0  0  0  0  0  0  0  0  0  0  0
   32.9244  -14.8072   37.3527 H   0  0  0  0  0  0  0  0  0  0  0  0
   32.6179  -12.6329   37.8209 S   0  0  0  0  0  0  0  0  0  0  0  0
   33.1057  -12.9714   39.2833 O   0  0  0  0  0  0  0  0  0  0  0  0
   33.5700  -11.4963   37.4078 O   0  0  0  0  0  0  0  0  0  0  0  0
   31.0183  -12.0281   38.0636 C   0  0  0  0  0  0  0  0  0  0  0  0
   30.2047  -12.7623   38.9773 C   0  0  0  0  0  0  0  0  0  0  0  0
   28.9086  -12.3711   39.1534 C   0  0  0  0  0  0  0  0  0  0  0  0
   28.3601  -11.2952   38.4930 C   0  0  0  0  0  0  0  0  0  0  0  0
   29.1657  -10.6056   37.6282 C   0  0  0  0  0  0  0  0  0  0  0  0
   30.4911  -10.9715   37.4123 C   0  0  0  0  0  0  0  0  0  0  0  0
   26.9001  -11.0826   38.6352 C   0  0  0  0  0  0  0  0  0  0  0  0
   25.9582  -11.9153   38.1869 C   0  0  0  0  0  0  0  0  0  0  0  0
   24.5965  -11.7402   38.5036 C   0  0  0  0  0  0  0  0  0  0  0  0
   24.2010  -10.6950   39.2945 C   0  0  0  0  0  0  0  0  0  0  0  0
   22.8642  -10.5152   39.6507 C   0  0  0  0  0  0  0  0  0  0  0  0
   22.4711   -9.4824   40.4841 C   0  0  0  0  0  0  0  0  0  0  0  0
   23.4542   -8.6400   40.9468 C   0  0  0  0  0  0  0  0  0  0  0  0
   24.7484   -8.8165   40.5932 N   0  0  0  0  0  0  0  0  0  0  0  0
   25.1502   -9.8312   39.7689 C   0  0  0  0  0  0  0  0  0  0  0  0
   26.5001  -10.0019   39.4555 C   0  0  0  0  0  0  0  0  0  0  0  0
 23 24  1  0  0  0
 24  1  1  0  0  0
  1  2  2  0  0  0
  2  3  1  0  0  0
  3  4  2  0  0  0
  4  5  1  0  0  0
  5  6  2  0  0  0
  6 25  1  0  0  0
 25 26  1  0  0  0
 26 28  1  0  0  0
 28 29  2  0  0  0
 28 30  2  0  0  0
 28 31  1  0  0  0
 31 32  2  0  0  0
 32 33  1  0  0  0
 33 34  2  0  0  0
 34 35  1  0  0  0
 35 36  2  0  0  0
 34 37  1  0  0  0
 37 38  2  0  0  0
 38 39  1  0  0  0
 39 40  2  0  0  0
 40 41  1  0  0  0
 41 42  2  0  0  0
 42 43  1  0  0  0
 43 44  2  0  0  0
 44 45  1  0  0  0
 45 46  2  0  0  0
  3  7  1  0  0  0
  7  8  2  0  0  0
  7  9  1  0  0  0
  9 10  1  0  0  0
 10 11  1  0  0  0
 11 12  1  0  0  0
 12 13  1  0  0  0
 13 14  1  0  0  0
 12 15  1  0  0  0
 15 16  1  0  0  0
 16 17  1  0  0  0
 17 18  1  0  0  0
 18 19  2  0  0  0
 18 20  2  0  0  0
 18 21  1  0  0  0
 21 22  1  0  0  0
  6  1  1  0  0  0
 36 31  1  0  0  0
 46 37  1  0  0  0
 14  9  1  0  0  0
 22 15  1  0  0  0
 45 40  1  0  0  0
 26 27  1  0  0  0
M  END
> <minimizedAffinity>
-9.32950

> <CNNscore>
0.2729001939

> <CNNaffinity>
6.0661854744

> <CNN_VS>
1.6554632187

> <CNNaffinity_variance>
0.1165861934

$$$$
[H]c1nc2c([H])c(-c3c([H])c([H])c(S(=O)(=O)N([H])C([H])([H])c4c([H])c([H])c(C(=O)N5C([H])([H])C([H])([H])C([H])(N6C([H])([H])C([H])([H])S(=O)(=O)C([H])([H])C6([H])[H])C([H])([H])C5([H])[H])c([H])c4OC([H])([H])[H])c([H])c3[H])c([H])c([H])c2c([H])c1[H]


 46 51  0  0  0  0  0  0  0  0999 V2000
   31.0775  -22.5613   34.8885 C   0  0  0  0  0  0  0  0  0  0  0  0
   29.9120  -22.7740   35.5511 C   0  0  0  0  0  0  0  0  0  0  0  0
   29.1635  -21.8245   36.2062 C   0  0  0  0  0  0  0  0  0  0  0  0
   29.7394  -20.5313   36.1237 C   0  0  0  0  0  0  0  0  0  0  0  0
   30.8954  -20.2560   35.4690 C   0  0  0  0  0  0  0  0  0  0  0  0
   31.5601  -21.2473   34.8598 C   0  0  0  0  0  0  0  0  0  0  0  0
   27.9716  -22.0210   36.9422 C   0  0  0  0  0  0  0  0  0  0  0  0
   27.6120  -21.0488   37.7198 O   0  0  0  0  0  0  0  0  0  0  0  0
   27.1123  -23.1507   36.9406 N   0  0  0  0  0  0  0  0  0  0  0  0
   27.3948  -24.3625   36.2371 C   0  0  0  0  0  0  0  0  0  0  0  0
   26.7815  -25.6181   36.7998 C   0  0  0  0  0  0  0  0  0  0  0  0
   25.3336  -25.2989   37.0313 C   0  0  0  0  0  0  0  0  0  0  0  0
   25.3103  -24.2541   38.1598 C   0  0  0  0  0  0  0  0  0  0  0  0
   25.8324  -22.9715   37.6545 C   0  0  0  0  0  0  0  0  0  0  0  0
   24.5247  -26.3895   37.3491 N   0  0  0  0  0  0  0  0  0  0  0  0
   23.1244  -26.1678   37.5189 C   0  0  0  0  0  0  0  0  0  0  0  0
   22.4447  -27.3980   36.8864 C   0  0  0  0  0  0  0  0  0  0  0  0
   23.6352  -28.7072   36.7441 S   0  0  0  0  0  0  0  0  0  0  0  0
   24.4182  -28.4295   35.4616 O   0  0  0  0  0  0  0  0  0  0  0  0
   23.0089  -30.0433   36.7388 O   0  0  0  0  0  0  0  0  0  0  0  0
   24.8745  -28.6283   38.0378 C   0  0  0  0  0  0  0  0  0  0  0  0
   24.9830  -27.1785   38.4913 C   0  0  0  0  0  0  0  0  0  0  0  0
   31.2141  -24.5864   33.5060 C   0  0  0  0  0  0  0  0  0  0  0  0
   31.7890  -23.5466   34.2610 O   0  0  0  0  0  0  0  0  0  0  0  0
   32.8917  -21.1505   34.0991 C   0  0  0  0  0  0  0  0  0  0  0  0
   33.1599  -19.7211   34.2313 N   0  0  0  0  0  0  0  0  0  0  0  0
   32.3302  -19.2812   34.6414 H   0  0  0  0  0  0  0  0  0  0  0  0
   34.5615  -19.1876   34.8713 S   0  0  0  0  0  0  0  0  0  0  0  0
   34.9955  -20.1002   36.0838 O   0  0  0  0  0  0  0  0  0  0  0  0
   35.7199  -19.3832   33.8768 O   0  0  0  0  0  0  0  0  0  0  0  0
   34.5955  -17.5947   35.5385 C   0  0  0  0  0  0  0  0  0  0  0  0
   33.4357  -16.7961   35.3083 C   0  0  0  0  0  0  0  0  0  0  0  0
   33.4367  -15.5047   35.7514 C   0  0  0  0  0  0  0  0  0  0  0  0
   34.5052  -14.9473   36.4165 C   0  0  0  0  0  0  0  0  0  0  0  0
   35.6009  -15.7388   36.6292 C   0  0  0  0  0  0  0  0  0  0  0  0
   35.6474  -17.0587   36.1902 C   0  0  0  0  0  0  0  0  0  0  0  0
   34.4527  -13.4910   36.6870 C   0  0  0  0  0  0  0  0  0  0  0  0
   35.4425  -12.6304   36.4393 C   0  0  0  0  0  0  0  0  0  0  0  0
   35.2669  -11.2377   36.5605 C   0  0  0  0  0  0  0  0  0  0  0  0
   34.0551  -10.7254   36.9392 C   0  0  0  0  0  0  0  0  0  0  0  0
   33.8431   -9.3500   37.0365 C   0  0  0  0  0  0  0  0  0  0  0  0
   32.6061   -8.8320   37.3792 C   0  0  0  0  0  0  0  0  0  0  0  0
   31.5938   -9.7306   37.6202 C   0  0  0  0  0  0  0  0  0  0  0  0
   31.8074  -11.0638   37.5295 N   0  0  0  0  0  0  0  0  0  0  0  0
   33.0248  -11.5890   37.1941 C   0  0  0  0  0  0  0  0  0  0  0  0
   33.1966  -12.9697   37.0759 C   0  0  0  0  0  0  0  0  0  0  0  0
 23 24  1  0  0  0
 24  1  1  0  0  0
  1  2  2  0  0  0
  2  3  1  0  0  0
  3  4  2  0  0  0
  4  5  1  0  0  0
  5  6  2  0  0  0
  6 25  1  0  0  0
 25 26  1  0  0  0
 26 28  1  0  0  0
 28 29  2  0  0  0
 28 30  2  0  0  0
 28 31  1  0  0  0
 31 32  2  0  0  0
 32 33  1  0  0  0
 33 34  2  0  0  0
 34 35  1  0  0  0
 35 36  2  0  0  0
 34 37  1  0  0  0
 37 38  2  0  0  0
 38 39  1  0  0  0
 39 40  2  0  0  0
 40 41  1  0  0  0
 41 42  2  0  0  0
 42 43  1  0  0  0
 43 44  2  0  0  0
 44 45  1  0  0  0
 45 46  2  0  0  0
  3  7  1  0  0  0
  7  8  2  0  0  0
  7  9  1  0  0  0
  9 10  1  0  0  0
 10 11  1  0  0  0
 11 12  1  0  0  0
 12 13  1  0  0  0
 13 14  1  0  0  0
 12 15  1  0  0  0
 15 16  1  0  0  0
 16 17  1  0  0  0
 17 18  1  0  0  0
 18 19  2  0  0  0
 18 20  2  0  0  0
 18 21  1  0  0  0
 21 22  1  0  0  0
  6  1  1  0  0  0
 36 31  1  0  0  0
 46 37  1  0  0  0
 14  9  1  0  0  0
 22 15  1  0  0  0
 45 40  1  0  0  0
 26 27  1  0  0  0
M  END
> <minimizedAffinity>
-7.70841

> <CNNscore>
0.2640222311

> <CNNaffinity>
5.7614154816

> <CNN_VS>
1.5211417675

> <CNNaffinity_variance>
0.1059182733

$$$$
[H]c1nc2c([H])c(-c3c([H])c([H])c(S(=O)(=O)N([H])C([H])([H])c4c([H])c([H])c(C(=O)N5C([H])([H])C([H])([H])C([H])(N6C([H])([H])C([H])([H])S(=O)(=O)C([H])([H])C6([H])[H])C([H])([H])C5([H])[H])c([H])c4OC([H])([H])[H])c([H])c3[H])c([H])c([H])c2c([H])c1[H]


 46 51  0  0  0  0  0  0  0  0999 V2000
   36.0417  -14.0321   37.5423 C   0  0  0  0  0  0  0  0  0  0  0  0
   35.1884  -12.9830   37.6610 C   0  0  0  0  0  0  0  0  0  0  0  0
   33.8943  -12.9306   37.1990 C   0  0  0  0  0  0  0  0  0  0  0  0
   33.5008  -14.1321   36.5569 C   0  0  0  0  0  0  0  0  0  0  0  0
   34.3051  -15.2157   36.4162 C   0  0  0  0  0  0  0  0  0  0  0  0
   35.5553  -15.1754   36.8967 C   0  0  0  0  0  0  0  0  0  0  0  0
   32.9966  -11.8395   37.2666 C   0  0  0  0  0  0  0  0  0  0  0  0
   33.4375  -10.7066   36.8179 O   0  0  0  0  0  0  0  0  0  0  0  0
   31.6676  -11.8228   37.7646 N   0  0  0  0  0  0  0  0  0  0  0  0
   31.0436  -12.9405   38.4007 C   0  0  0  0  0  0  0  0  0  0  0  0
   29.9564  -12.6208   39.3933 C   0  0  0  0  0  0  0  0  0  0  0  0
   29.0461  -11.6469   38.7045 C   0  0  0  0  0  0  0  0  0  0  0  0
   29.8689  -10.3601   38.5239 C   0  0  0  0  0  0  0  0  0  0  0  0
   30.9118  -10.5810   37.5059 C   0  0  0  0  0  0  0  0  0  0  0  0
   27.8472  -11.3798   39.3651 N   0  0  0  0  0  0  0  0  0  0  0  0
   27.7440  -11.7234   40.7471 C   0  0  0  0  0  0  0  0  0  0  0  0
   26.9429  -10.5728   41.3871 C   0  0  0  0  0  0  0  0  0  0  0  0
   26.0874   -9.6838   40.1106 S   0  0  0  0  0  0  0  0  0  0  0  0
   27.1031   -8.7046   39.5235 O   0  0  0  0  0  0  0  0  0  0  0  0
   24.8773   -9.0025   40.6093 O   0  0  0  0  0  0  0  0  0  0  0  0
   25.6558  -10.7445   38.7305 C   0  0  0  0  0  0  0  0  0  0  0  0
   26.6532  -11.8949   38.6973 C   0  0  0  0  0  0  0  0  0  0  0  0
   38.3499  -13.1938   37.5239 C   0  0  0  0  0  0  0  0  0  0  0  0
   37.3262  -14.0275   38.0123 O   0  0  0  0  0  0  0  0  0  0  0  0
   36.6253  -16.2750   36.8118 C   0  0  0  0  0  0  0  0  0  0  0  0
   36.5730  -16.5746   35.3835 N   0  0  0  0  0  0  0  0  0  0  0  0
   37.3183  -16.0434   34.9224 H   0  0  0  0  0  0  0  0  0  0  0  0
   36.4480  -18.1119   34.8542 S   0  0  0  0  0  0  0  0  0  0  0  0
   36.8649  -18.2063   33.3348 O   0  0  0  0  0  0  0  0  0  0  0  0
   37.4935  -19.0079   35.5420 O   0  0  0  0  0  0  0  0  0  0  0  0
   34.8909  -18.8585   34.8880 C   0  0  0  0  0  0  0  0  0  0  0  0
   34.2338  -18.8762   36.1545 C   0  0  0  0  0  0  0  0  0  0  0  0
   33.0322  -19.5164   36.2551 C   0  0  0  0  0  0  0  0  0  0  0  0
   32.4276  -20.1360   35.1849 C   0  0  0  0  0  0  0  0  0  0  0  0
   33.0773  -20.0971   33.9813 C   0  0  0  0  0  0  0  0  0  0  0  0
   34.3066  -19.4616   33.8328 C   0  0  0  0  0  0  0  0  0  0  0  0
   31.2169  -20.9446   35.4629 C   0  0  0  0  0  0  0  0  0  0  0  0
   29.9984  -20.4469   35.6845 C   0  0  0  0  0  0  0  0  0  0  0  0
   28.8606  -21.2731   35.7731 C   0  0  0  0  0  0  0  0  0  0  0  0
   28.9798  -22.6294   35.6288 C   0  0  0  0  0  0  0  0  0  0  0  0
   27.8668  -23.4688   35.6798 C   0  0  0  0  0  0  0  0  0  0  0  0
   27.9832  -24.8353   35.4924 C   0  0  0  0  0  0  0  0  0  0  0  0
   29.2430  -25.3314   35.2538 C   0  0  0  0  0  0  0  0  0  0  0  0
   30.3194  -24.5125   35.2110 N   0  0  0  0  0  0  0  0  0  0  0  0
   30.2190  -23.1612   35.3966 C   0  0  0  0  0  0  0  0  0  0  0  0
   31.3483  -22.3446   35.3096 C   0  0  0  0  0  0  0  0  0  0  0  0
 23 24  1  0  0  0
 24  1  1  0  0  0
  1  2  2  0  0  0
  2  3  1  0  0  0
  3  4  2  0  0  0
  4  5  1  0  0  0
  5  6  2  0  0  0
  6 25  1  0  0  0
 25 26  1  0  0  0
 26 28  1  0  0  0
 28 29  2  0  0  0
 28 30  2  0  0  0
 28 31  1  0  0  0
 31 32  2  0  0  0
 32 33  1  0  0  0
 33 34  2  0  0  0
 34 35  1  0  0  0
 35 36  2  0  0  0
 34 37  1  0  0  0
 37 38  2  0  0  0
 38 39  1  0  0  0
 39 40  2  0  0  0
 40 41  1  0  0  0
 41 42  2  0  0  0
 42 43  1  0  0  0
 43 44  2  0  0  0
 44 45  1  0  0  0
 45 46  2  0  0  0
  3  7  1  0  0  0
  7  8  2  0  0  0
  7  9  1  0  0  0
  9 10  1  0  0  0
 10 11  1  0  0  0
 11 12  1  0  0  0
 12 13  1  0  0  0
 13 14  1  0  0  0
 12 15  1  0  0  0
 15 16  1  0  0  0
 16 17  1  0  0  0
 17 18  1  0  0  0
 18 19  2  0  0  0
 18 20  2  0  0  0
 18 21  1  0  0  0
 21 22  1  0  0  0
  6  1  1  0  0  0
 36 31  1  0  0  0
 46 37  1  0  0  0
 14  9  1  0  0  0
 22 15  1  0  0  0
 45 40  1  0  0  0
 26 27  1  0  0  0
M  END
> <minimizedAffinity>
-9.71629

> <CNNscore>
0.2636920512

> <CNNaffinity>
6.6750016212

> <CNN_VS>
1.7601448298

> <CNNaffinity_variance>
0.1065174341

$$$$
[H]c1nc2c([H])c(-c3c([H])c([H])c(S(=O)(=O)N([H])C([H])([H])c4c([H])c([H])c(C(=O)N5C([H])([H])C([H])([H])C([H])(N6C([H])([H])C([H])([H])S(=O)(=O)C([H])([H])C6([H])[H])C([H])([H])C5([H])[H])c([H])c4OC([H])([H])[H])c([H])c3[H])c([H])c([H])c2c([H])c1[H]


 46 51  0  0  0  0  0  0  0  0999 V2000
   27.4807  -23.0260   37.3855 C   0  0  0  0  0  0  0  0  0  0  0  0
   26.6559  -22.4062   38.2677 C   0  0  0  0  0  0  0  0  0  0  0  0
   26.5614  -21.0507   38.4790 C   0  0  0  0  0  0  0  0  0  0  0  0
   27.4425  -20.3119   37.6491 C   0  0  0  0  0  0  0  0  0  0  0  0
   28.2820  -20.8741   36.7436 C   0  0  0  0  0  0  0  0  0  0  0  0
   28.3081  -22.2070   36.6076 C   0  0  0  0  0  0  0  0  0  0  0  0
   25.7471  -20.3779   39.4198 C   0  0  0  0  0  0  0  0  0  0  0  0
   24.4733  -20.3833   39.1821 O   0  0  0  0  0  0  0  0  0  0  0  0
   26.1450  -19.6931   40.5977 N   0  0  0  0  0  0  0  0  0  0  0  0
   27.5084  -19.4820   40.9715 C   0  0  0  0  0  0  0  0  0  0  0  0
   27.7854  -18.2724   41.8256 C   0  0  0  0  0  0  0  0  0  0  0  0
   26.7837  -18.3206   42.9418 C   0  0  0  0  0  0  0  0  0  0  0  0
   25.4126  -18.0900   42.2843 C   0  0  0  0  0  0  0  0  0  0  0  0
   25.0434  -19.2734   41.4867 C   0  0  0  0  0  0  0  0  0  0  0  0
   26.9969  -17.4094   43.9758 N   0  0  0  0  0  0  0  0  0  0  0  0
   26.8681  -17.8693   45.3215 C   0  0  0  0  0  0  0  0  0  0  0  0
   27.9939  -17.1578   46.0972 C   0  0  0  0  0  0  0  0  0  0  0  0
   28.5503  -15.7592   45.1560 S   0  0  0  0  0  0  0  0  0  0  0  0
   29.5452  -16.3064   44.1333 O   0  0  0  0  0  0  0  0  0  0  0  0
   29.1417  -14.7060   46.0035 O   0  0  0  0  0  0  0  0  0  0  0  0
   27.2363  -15.0602   44.1557 C   0  0  0  0  0  0  0  0  0  0  0  0
   26.2329  -16.1681   43.8642 C   0  0  0  0  0  0  0  0  0  0  0  0
   26.8366  -25.3122   38.0095 C   0  0  0  0  0  0  0  0  0  0  0  0
   27.5422  -24.3826   37.2223 O   0  0  0  0  0  0  0  0  0  0  0  0
   29.2021  -23.0337   35.6705 C   0  0  0  0  0  0  0  0  0  0  0  0
   30.4827  -22.9097   36.3614 N   0  0  0  0  0  0  0  0  0  0  0  0
   30.5024  -23.6032   37.1157 H   0  0  0  0  0  0  0  0  0  0  0  0
   31.8800  -22.8189   35.5258 S   0  0  0  0  0  0  0  0  0  0  0  0
   32.8962  -23.9154   36.0321 O   0  0  0  0  0  0  0  0  0  0  0  0
   31.6596  -23.2229   34.0571 O   0  0  0  0  0  0  0  0  0  0  0  0
   32.7911  -21.3548   35.6235 C   0  0  0  0  0  0  0  0  0  0  0  0
   33.7576  -21.2890   36.6712 C   0  0  0  0  0  0  0  0  0  0  0  0
   34.4564  -20.1284   36.8397 C   0  0  0  0  0  0  0  0  0  0  0  0
   34.2722  -19.0259   36.0364 C   0  0  0  0  0  0  0  0  0  0  0  0
   33.3439  -19.1201   35.0355 C   0  0  0  0  0  0  0  0  0  0  0  0
   32.6037  -20.2807   34.8299 C   0  0  0  0  0  0  0  0  0  0  0  0
   34.9605  -17.7741   36.4318 C   0  0  0  0  0  0  0  0  0  0  0  0
   36.2256  -17.6956   36.8499 C   0  0  0  0  0  0  0  0  0  0  0  0
   36.8700  -16.4583   37.0470 C   0  0  0  0  0  0  0  0  0  0  0  0
   36.2027  -15.2870   36.8075 C   0  0  0  0  0  0  0  0  0  0  0  0
   36.8251  -14.0482   36.9632 C   0  0  0  0  0  0  0  0  0  0  0  0
   36.1626  -12.8662   36.6809 C   0  0  0  0  0  0  0  0  0  0  0  0
   34.8638  -12.9639   36.2404 C   0  0  0  0  0  0  0  0  0  0  0  0
   34.2640  -14.1684   36.0967 N   0  0  0  0  0  0  0  0  0  0  0  0
   34.9062  -15.3436   36.3741 C   0  0  0  0  0  0  0  0  0  0  0  0
   34.2649  -16.5686   36.1792 C   0  0  0  0  0  0  0  0  0  0  0  0
 23 24  1  0  0  0
 24  1  1  0  0  0
  1  2  2  0  0  0
  2  3  1  0  0  0
  3  4  2  0  0  0
  4  5  1  0  0  0
  5  6  2  0  0  0
  6 25  1  0  0  0
 25 26  1  0  0  0
 26 28  1  0  0  0
 28 29  2  0  0  0
 28 30  2  0  0  0
 28 31  1  0  0  0
 31 32  2  0  0  0
 32 33  1  0  0  0
 33 34  2  0  0  0
 34 35  1  0  0  0
 35 36  2  0  0  0
 34 37  1  0  0  0
 37 38  2  0  0  0
 38 39  1  0  0  0
 39 40  2  0  0  0
 40 41  1  0  0  0
 41 42  2  0  0  0
 42 43  1  0  0  0
 43 44  2  0  0  0
 44 45  1  0  0  0
 45 46  2  0  0  0
  3  7  1  0  0  0
  7  8  2  0  0  0
  7  9  1  0  0  0
  9 10  1  0  0  0
 10 11  1  0  0  0
 11 12  1  0  0  0
 12 13  1  0  0  0
 13 14  1  0  0  0
 12 15  1  0  0  0
 15 16  1  0  0  0
 16 17  1  0  0  0
 17 18  1  0  0  0
 18 19  2  0  0  0
 18 20  2  0  0  0
 18 21  1  0  0  0
 21 22  1  0  0  0
  6  1  1  0  0  0
 36 31  1  0  0  0
 46 37  1  0  0  0
 14  9  1  0  0  0
 22 15  1  0  0  0
 45 40  1  0  0  0
 26 27  1  0  0  0
M  END
> <minimizedAffinity>
-7.22719

> <CNNscore>
0.2497636229

> <CNNaffinity>
5.6110682487

> <CNN_VS>
1.4014407396

> <CNNaffinity_variance>
0.5937517285

$$$$
[H]c1nc2c([H])c(-c3c([H])c([H])c(S(=O)(=O)N([H])C([H])([H])c4c([H])c([H])c(C(=O)N5C([H])([H])C([H])([H])C([H])(N6C([H])([H])C([H])([H])S(=O)(=O)C([H])([H])C6([H])[H])C([H])([H])C5([H])[H])c([H])c4OC([H])([H])[H])c([H])c3[H])c([H])c([H])c2c([H])c1[H]


 46 51  0  0  0  0  0  0  0  0999 V2000
   29.3495  -15.5079   43.3641 C   0  0  0  0  0  0  0  0  0  0  0  0
   29.1553  -14.2201   42.9811 C   0  0  0  0  0  0  0  0  0  0  0  0
   28.9191  -13.7789   41.7004 C   0  0  0  0  0  0  0  0  0  0  0  0
   28.8883  -14.8402   40.7604 C   0  0  0  0  0  0  0  0  0  0  0  0
   29.0662  -16.1458   41.0842 C   0  0  0  0  0  0  0  0  0  0  0  0
   29.2940  -16.4831   42.3609 C   0  0  0  0  0  0  0  0  0  0  0  0
   28.7579  -12.4434   41.2627 C   0  0  0  0  0  0  0  0  0  0  0  0
   29.4227  -12.1037   40.2036 O   0  0  0  0  0  0  0  0  0  0  0  0
   27.9583  -11.4200   41.8354 N   0  0  0  0  0  0  0  0  0  0  0  0
   27.2415  -11.5658   43.0635 C   0  0  0  0  0  0  0  0  0  0  0  0
   26.9850  -10.3003   43.8394 C   0  0  0  0  0  0  0  0  0  0  0  0
   26.4283   -9.3187   42.8503 C   0  0  0  0  0  0  0  0  0  0  0  0
   27.5763   -9.0110   41.8742 C   0  0  0  0  0  0  0  0  0  0  0  0
   27.8329  -10.1903   41.0279 C   0  0  0  0  0  0  0  0  0  0  0  0
   25.9157   -8.1434   43.3987 N   0  0  0  0  0  0  0  0  0  0  0  0
   26.0859   -7.9184   44.7984 C   0  0  0  0  0  0  0  0  0  0  0  0
   26.3822   -6.4115   44.9285 C   0  0  0  0  0  0  0  0  0  0  0  0
   25.8606   -5.5892   43.4442 S   0  0  0  0  0  0  0  0  0  0  0  0
   26.9982   -5.7678   42.4395 O   0  0  0  0  0  0  0  0  0  0  0  0
   25.5317   -4.1686   43.6701 O   0  0  0  0  0  0  0  0  0  0  0  0
   24.4665   -6.4153   42.6761 C   0  0  0  0  0  0  0  0  0  0  0  0
   24.5125   -7.8823   43.0825 C   0  0  0  0  0  0  0  0  0  0  0  0
   29.1964  -15.1605   45.7903 C   0  0  0  0  0  0  0  0  0  0  0  0
   29.5918  -15.8918   44.6543 O   0  0  0  0  0  0  0  0  0  0  0  0
   29.5508  -17.8893   42.9247 C   0  0  0  0  0  0  0  0  0  0  0  0
   30.9881  -18.0010   42.6918 N   0  0  0  0  0  0  0  0  0  0  0  0
   31.2840  -17.1837   42.1489 H   0  0  0  0  0  0  0  0  0  0  0  0
   32.0070  -18.3764   43.9083 S   0  0  0  0  0  0  0  0  0  0  0  0
   32.4874  -17.0672   44.6476 O   0  0  0  0  0  0  0  0  0  0  0  0
   31.2634  -19.1337   45.0230 O   0  0  0  0  0  0  0  0  0  0  0  0
   33.4856  -19.1763   43.5118 C   0  0  0  0  0  0  0  0  0  0  0  0
   34.2884  -19.5892   44.6167 C   0  0  0  0  0  0  0  0  0  0  0  0
   35.5009  -20.1624   44.3617 C   0  0  0  0  0  0  0  0  0  0  0  0
   35.9742  -20.3647   43.0850 C   0  0  0  0  0  0  0  0  0  0  0  0
   35.1799  -19.9653   42.0449 C   0  0  0  0  0  0  0  0  0  0  0  0
   33.9394  -19.3711   42.2569 C   0  0  0  0  0  0  0  0  0  0  0  0
   37.3743  -20.8308   42.9451 C   0  0  0  0  0  0  0  0  0  0  0  0
   37.8678  -21.4616   41.8773 C   0  0  0  0  0  0  0  0  0  0  0  0
   39.2448  -21.7253   41.7379 C   0  0  0  0  0  0  0  0  0  0  0  0
   40.1246  -21.3315   42.7102 C   0  0  0  0  0  0  0  0  0  0  0  0
   41.4966  -21.5506   42.5843 C   0  0  0  0  0  0  0  0  0  0  0  0
   42.3893  -21.1152   43.5484 C   0  0  0  0  0  0  0  0  0  0  0  0
   41.8668  -20.4572   44.6366 C   0  0  0  0  0  0  0  0  0  0  0  0
   40.5345  -20.2526   44.7555 N   0  0  0  0  0  0  0  0  0  0  0  0
   39.6413  -20.6794   43.8117 C   0  0  0  0  0  0  0  0  0  0  0  0
   38.2770  -20.4179   43.9528 C   0  0  0  0  0  0  0  0  0  0  0  0
 23 24  1  0  0  0
 24  1  1  0  0  0
  1  2  2  0  0  0
  2  3  1  0  0  0
  3  4  2  0  0  0
  4  5  1  0  0  0
  5  6  2  0  0  0
  6 25  1  0  0  0
 25 26  1  0  0  0
 26 28  1  0  0  0
 28 29  2  0  0  0
 28 30  2  0  0  0
 28 31  1  0  0  0
 31 32  2  0  0  0
 32 33  1  0  0  0
 33 34  2  0  0  0
 34 35  1  0  0  0
 35 36  2  0  0  0
 34 37  1  0  0  0
 37 38  2  0  0  0
 38 39  1  0  0  0
 39 40  2  0  0  0
 40 41  1  0  0  0
 41 42  2  0  0  0
 42 43  1  0  0  0
 43 44  2  0  0  0
 44 45  1  0  0  0
 45 46  2  0  0  0
  3  7  1  0  0  0
  7  8  2  0  0  0
  7  9  1  0  0  0
  9 10  1  0  0  0
 10 11  1  0  0  0
 11 12  1  0  0  0
 12 13  1  0  0  0
 13 14  1  0  0  0
 12 15  1  0  0  0
 15 16  1  0  0  0
 16 17  1  0  0  0
 17 18  1  0  0  0
 18 19  2  0  0  0
 18 20  2  0  0  0
 18 21  1  0  0  0
 21 22  1  0  0  0
  6  1  1  0  0  0
 36 31  1  0  0  0
 46 37  1  0  0  0
 14  9  1  0  0  0
 22 15  1  0  0  0
 45 40  1  0  0  0
 26 27  1  0  0  0
M  END
> <minimizedAffinity>
-7.00854

> <CNNscore>
0.2219589055

> <CNNaffinity>
5.1530857086

> <CNN_VS>
1.1437733173

> <CNNaffinity_variance>
0.1963303536

$$$$
[H]c1nn(C([H])([H])[H])c([H])c1S(=O)(=O)N1C([H])([H])C(=O)c2c([H])c([H])c(Oc3c([H])c([H])c(C([H])([H])[H])c([H])c3[H])c([H])c2C1([H])[H]


 28 31  0  0  0  0  0  0  0  0999 V2000
   34.6958  -17.5060   35.2464 C   0  0  0  0  0  0  0  0  0  0  0  0
   35.9354  -17.5492   35.8472 C   0  0  0  0  0  0  0  0  0  0  0  0
   36.4290  -16.4898   36.5492 C   0  0  0  0  0  0  0  0  0  0  0  0
   35.6705  -15.3402   36.6644 C   0  0  0  0  0  0  0  0  0  0  0  0
   34.4250  -15.3142   36.0532 C   0  0  0  0  0  0  0  0  0  0  0  0
   33.9237  -16.3722   35.3480 C   0  0  0  0  0  0  0  0  0  0  0  0
   33.5956  -14.0607   36.1786 C   0  0  0  0  0  0  0  0  0  0  0  0
   33.8888  -13.5114   37.4585 N   0  0  0  0  0  0  0  0  0  0  0  0
   35.2219  -13.0483   37.6417 C   0  0  0  0  0  0  0  0  0  0  0  0
   36.1551  -14.1786   37.4064 C   0  0  0  0  0  0  0  0  0  0  0  0
   37.3210  -14.1173   37.8405 O   0  0  0  0  0  0  0  0  0  0  0  0
   32.6654  -12.5144   38.0988 S   0  0  0  0  0  0  0  0  0  0  0  0
   31.2989  -12.9033   37.7061 O   0  0  0  0  0  0  0  0  0  0  0  0
   32.8154  -12.5197   39.6125 O   0  0  0  0  0  0  0  0  0  0  0  0
   33.0014  -10.8646   37.5882 C   0  0  0  0  0  0  0  0  0  0  0  0
   34.1669  -10.4845   36.9896 C   0  0  0  0  0  0  0  0  0  0  0  0
   34.0950   -9.1863   36.7367 N   0  0  0  0  0  0  0  0  0  0  0  0
   35.0784   -8.3063   36.1097 C   0  0  0  0  0  0  0  0  0  0  0  0
   32.9365   -8.7491   37.1530 N   0  0  0  0  0  0  0  0  0  0  0  0
   32.2244   -9.7493   37.6872 C   0  0  0  0  0  0  0  0  0  0  0  0
   34.1851  -18.5779   34.5307 O   0  0  0  0  0  0  0  0  0  0  0  0
   30.7330  -19.7136   34.7707 C   0  0  0  0  0  0  0  0  0  0  0  0
   31.8612  -19.0317   34.3141 C   0  0  0  0  0  0  0  0  0  0  0  0
   33.0499  -19.2353   34.9550 C   0  0  0  0  0  0  0  0  0  0  0  0
   33.1466  -20.0914   36.0287 C   0  0  0  0  0  0  0  0  0  0  0  0
   32.0313  -20.7843   36.5030 C   0  0  0  0  0  0  0  0  0  0  0  0
   30.8386  -20.5717   35.8498 C   0  0  0  0  0  0  0  0  0  0  0  0
   29.6272  -21.2905   36.3239 C   0  0  0  0  0  0  0  0  0  0  0  0
 22 23  2  0  0  0
 23 24  1  0  0  0
 24 21  1  0  0  0
 21  1  1  0  0  0
  1  2  2  0  0  0
  2  3  1  0  0  0
  3  4  2  0  0  0
  4  5  1  0  0  0
  5  6  2  0  0  0
  5  7  1  0  0  0
  7  8  1  0  0  0
  8 12  1  0  0  0
 12 15  1  0  0  0
 15 16  2  0  0  0
 16 17  1  0  0  0
 17 18  1  0  0  0
 17 19  1  0  0  0
 19 20  2  0  0  0
 12 13  2  0  0  0
 12 14  2  0  0  0
  8  9  1  0  0  0
  9 10  1  0  0  0
 10 11  2  0  0  0
 24 25  2  0  0  0
 25 26  1  0  0  0
 26 27  2  0  0  0
 27 28  1  0  0  0
 27 22  1  0  0  0
  6  1  1  0  0  0
 20 15  1  0  0  0
 10  4  1  0  0  0
M  END
> <minimizedAffinity>
-8.05057

> <CNNscore>
0.5386791229

> <CNNaffinity>
6.1423788071

> <CNN_VS>
3.3087711334

> <CNNaffinity_variance>
0.2129827738

$$$$
[H]c1nn(C([H])([H])[H])c([H])c1S(=O)(=O)N1C([H])([H])C(=O)c2c([H])c([H])c(Oc3c([H])c([H])c(C([H])([H])[H])c([H])c3[H])c([H])c2C1([H])[H]


 28 31  0  0  0  0  0  0  0  0999 V2000
   33.4517  -17.5251   35.3508 C   0  0  0  0  0  0  0  0  0  0  0  0
   32.6869  -18.2260   34.4436 C   0  0  0  0  0  0  0  0  0  0  0  0
   32.5299  -19.5775   34.5312 C   0  0  0  0  0  0  0  0  0  0  0  0
   33.1518  -20.2674   35.5546 C   0  0  0  0  0  0  0  0  0  0  0  0
   33.9179  -19.5458   36.4589 C   0  0  0  0  0  0  0  0  0  0  0  0
   34.0798  -18.1912   36.3775 C   0  0  0  0  0  0  0  0  0  0  0  0
   34.5966  -20.2970   37.5769 C   0  0  0  0  0  0  0  0  0  0  0  0
   33.7344  -21.3774   37.9164 N   0  0  0  0  0  0  0  0  0  0  0  0
   33.5579  -22.3671   36.9092 C   0  0  0  0  0  0  0  0  0  0  0  0
   33.0139  -21.7154   35.6914 C   0  0  0  0  0  0  0  0  0  0  0  0
   32.4562  -22.4066   34.8181 O   0  0  0  0  0  0  0  0  0  0  0  0
   33.9247  -21.9639   39.5039 S   0  0  0  0  0  0  0  0  0  0  0  0
   33.3929  -21.0700   40.5484 O   0  0  0  0  0  0  0  0  0  0  0  0
   33.2590  -23.3300   39.5706 O   0  0  0  0  0  0  0  0  0  0  0  0
   35.6409  -22.2524   39.7629 C   0  0  0  0  0  0  0  0  0  0  0  0
   36.2954  -23.3591   39.3069 C   0  0  0  0  0  0  0  0  0  0  0  0
   37.5656  -23.2647   39.6702 N   0  0  0  0  0  0  0  0  0  0  0  0
   38.6721  -24.1874   39.4278 C   0  0  0  0  0  0  0  0  0  0  0  0
   37.7233  -22.1483   40.3302 N   0  0  0  0  0  0  0  0  0  0  0  0
   36.5618  -21.4874   40.4141 C   0  0  0  0  0  0  0  0  0  0  0  0
   33.6173  -16.1510   35.2705 O   0  0  0  0  0  0  0  0  0  0  0  0
   35.5057  -13.7357   37.2363 C   0  0  0  0  0  0  0  0  0  0  0  0
   34.4346  -14.3425   36.5800 C   0  0  0  0  0  0  0  0  0  0  0  0
   34.6529  -15.5235   35.9297 C   0  0  0  0  0  0  0  0  0  0  0  0
   35.8970  -16.1126   35.9144 C   0  0  0  0  0  0  0  0  0  0  0  0
   36.9834  -15.5238   36.5640 C   0  0  0  0  0  0  0  0  0  0  0  0
   36.7522  -14.3340   37.2161 C   0  0  0  0  0  0  0  0  0  0  0  0
   37.8828  -13.6746   37.9202 C   0  0  0  0  0  0  0  0  0  0  0  0
 22 23  2  0  0  0
 23 24  1  0  0  0
 24 21  1  0  0  0
 21  1  1  0  0  0
  1  2  2  0  0  0
  2  3  1  0  0  0
  3  4  2  0  0  0
  4  5  1  0  0  0
  5  6  2  0  0  0
  5  7  1  0  0  0
  7  8  1  0  0  0
  8 12  1  0  0  0
 12 15  1  0  0  0
 15 16  2  0  0  0
 16 17  1  0  0  0
 17 18  1  0  0  0
 17 19  1  0  0  0
 19 20  2  0  0  0
 12 13  2  0  0  0
 12 14  2  0  0  0
  8  9  1  0  0  0
  9 10  1  0  0  0
 10 11  2  0  0  0
 24 25  2  0  0  0
 25 26  1  0  0  0
 26 27  2  0  0  0
 27 28  1  0  0  0
 27 22  1  0  0  0
  6  1  1  0  0  0
 20 15  1  0  0  0
 10  4  1  0  0  0
M  END
> <minimizedAffinity>
-6.36452

> <CNNscore>
0.2641942799

> <CNNaffinity>
4.7463264465

> <CNN_VS>
1.2539522648

> <CNNaffinity_variance>
0.2766574621

$$$$
[H]c1nn(C([H])([H])[H])c([H])c1S(=O)(=O)N1C([H])([H])C(=O)c2c([H])c([H])c(Oc3c([H])c([H])c(C([H])([H])[H])c([H])c3[H])c([H])c2C1([H])[H]


 28 31  0  0  0  0  0  0  0  0999 V2000
   34.6698  -14.2157   36.8687 C   0  0  0  0  0  0  0  0  0  0  0  0
   35.9451  -14.1682   36.3484 C   0  0  0  0  0  0  0  0  0  0  0  0
   36.5168  -15.2529   35.7522 C   0  0  0  0  0  0  0  0  0  0  0  0
   35.8032  -16.4332   35.6646 C   0  0  0  0  0  0  0  0  0  0  0  0
   34.5208  -16.4631   36.1937 C   0  0  0  0  0  0  0  0  0  0  0  0
   33.9411  -15.3799   36.7927 C   0  0  0  0  0  0  0  0  0  0  0  0
   33.7402  -17.7501   36.0982 C   0  0  0  0  0  0  0  0  0  0  0  0
   34.1354  -18.3702   34.8796 N   0  0  0  0  0  0  0  0  0  0  0  0
   35.4914  -18.7974   34.8150 C   0  0  0  0  0  0  0  0  0  0  0  0
   36.3717  -17.6226   35.0349 C   0  0  0  0  0  0  0  0  0  0  0  0
   37.5655  -17.6712   34.6827 O   0  0  0  0  0  0  0  0  0  0  0  0
   32.9889  -19.4483   34.2287 S   0  0  0  0  0  0  0  0  0  0  0  0
   31.7955  -18.7946   33.6618 O   0  0  0  0  0  0  0  0  0  0  0  0
   33.6961  -20.2893   33.1769 O   0  0  0  0  0  0  0  0  0  0  0  0
   32.5243  -20.5662   35.5055 C   0  0  0  0  0  0  0  0  0  0  0  0
   31.2284  -20.8682   35.8067 C   0  0  0  0  0  0  0  0  0  0  0  0
   31.2303  -21.7339   36.8092 N   0  0  0  0  0  0  0  0  0  0  0  0
   30.1042  -22.3624   37.4958 C   0  0  0  0  0  0  0  0  0  0  0  0
   32.4703  -21.9790   37.1394 N   0  0  0  0  0  0  0  0  0  0  0  0
   33.3074  -21.2806   36.3620 C   0  0  0  0  0  0  0  0  0  0  0  0
   34.0797  -13.1183   37.4766 O   0  0  0  0  0  0  0  0  0  0  0  0
   35.5604  -10.3176   35.6799 C   0  0  0  0  0  0  0  0  0  0  0  0
   35.3111  -11.6262   36.0942 C   0  0  0  0  0  0  0  0  0  0  0  0
   34.3524  -11.8381   37.0436 C   0  0  0  0  0  0  0  0  0  0  0  0
   33.6407  -10.7928   37.5877 C   0  0  0  0  0  0  0  0  0  0  0  0
   33.8731   -9.4753   37.1886 C   0  0  0  0  0  0  0  0  0  0  0  0
   34.8413   -9.2733   36.2315 C   0  0  0  0  0  0  0  0  0  0  0  0
   35.1191   -7.8850   35.7792 C   0  0  0  0  0  0  0  0  0  0  0  0
 22 23  2  0  0  0
 23 24  1  0  0  0
 24 21  1  0  0  0
 21  1  1  0  0  0
  1  2  2  0  0  0
  2  3  1  0  0  0
  3  4  2  0  0  0
  4  5  1  0  0  0
  5  6  2  0  0  0
  5  7  1  0  0  0
  7  8  1  0  0  0
  8 12  1  0  0  0
 12 15  1  0  0  0
 15 16  2  0  0  0
 16 17  1  0  0  0
 17 18  1  0  0  0
 17 19  1  0  0  0
 19 20  2  0  0  0
 12 13  2  0  0  0
 12 14  2  0  0  0
  8  9  1  0  0  0
  9 10  1  0  0  0
 10 11  2  0  0  0
 24 25  2  0  0  0
 25 26  1  0  0  0
 26 27  2  0  0  0
 27 28  1  0  0  0
 27 22  1  0  0  0
  6  1  1  0  0  0
 20 15  1  0  0  0
 10  4  1  0  0  0
M  END
> <minimizedAffinity>
-7.11243

> <CNNscore>
0.2534762323

> <CNNaffinity>
5.1324300766

> <CNN_VS>
1.3009490967

> <CNNaffinity_variance>
0.1499874741

$$$$
[H]c1nn(C([H])([H])[H])c([H])c1S(=O)(=O)N1C([H])([H])C(=O)c2c([H])c([H])c(Oc3c([H])c([H])c(C([H])([H])[H])c([H])c3[H])c([H])c2C1([H])[H]


 28 31  0  0  0  0  0  0  0  0999 V2000
   35.8522  -16.4970   36.2144 C   0  0  0  0  0  0  0  0  0  0  0  0
   36.6641  -17.3348   36.9481 C   0  0  0  0  0  0  0  0  0  0  0  0
   36.2666  -18.5905   37.3004 C   0  0  0  0  0  0  0  0  0  0  0  0
   35.0180  -19.0398   36.9142 C   0  0  0  0  0  0  0  0  0  0  0  0
   34.2139  -18.1830   36.1761 C   0  0  0  0  0  0  0  0  0  0  0  0
   34.6055  -16.9232   35.8192 C   0  0  0  0  0  0  0  0  0  0  0  0
   32.8512  -18.6720   35.7531 C   0  0  0  0  0  0  0  0  0  0  0  0
   32.9795  -20.0710   35.5246 N   0  0  0  0  0  0  0  0  0  0  0  0
   33.2753  -20.8600   36.6715 C   0  0  0  0  0  0  0  0  0  0  0  0
   34.5466  -20.3771   37.2666 C   0  0  0  0  0  0  0  0  0  0  0  0
   35.1814  -21.1119   38.0468 O   0  0  0  0  0  0  0  0  0  0  0  0
   31.8246  -20.7234   34.4564 S   0  0  0  0  0  0  0  0  0  0  0  0
   31.4612  -19.8333   33.3390 O   0  0  0  0  0  0  0  0  0  0  0  0
   32.3733  -22.0445   33.9393 O   0  0  0  0  0  0  0  0  0  0  0  0
   30.3972  -21.1322   35.4004 C   0  0  0  0  0  0  0  0  0  0  0  0
   30.0049  -22.4138   35.6551 C   0  0  0  0  0  0  0  0  0  0  0  0
   28.9013  -22.3685   36.3862 N   0  0  0  0  0  0  0  0  0  0  0  0
   28.0928  -23.4638   36.9165 C   0  0  0  0  0  0  0  0  0  0  0  0
   28.5958  -21.1153   36.5935 N   0  0  0  0  0  0  0  0  0  0  0  0
   29.4908  -20.3127   36.0039 C   0  0  0  0  0  0  0  0  0  0  0  0
   36.2473  -15.2188   35.8511 O   0  0  0  0  0  0  0  0  0  0  0  0
   35.1743  -11.7705   36.3230 C   0  0  0  0  0  0  0  0  0  0  0  0
   35.8853  -12.8688   35.8388 C   0  0  0  0  0  0  0  0  0  0  0  0
   35.5652  -14.1109   36.3077 C   0  0  0  0  0  0  0  0  0  0  0  0
   34.5656  -14.2893   37.2371 C   0  0  0  0  0  0  0  0  0  0  0  0
   33.8408  -13.2053   37.7359 C   0  0  0  0  0  0  0  0  0  0  0  0
   34.1717  -11.9582   37.2566 C   0  0  0  0  0  0  0  0  0  0  0  0
   33.4237  -10.7777   37.7624 C   0  0  0  0  0  0  0  0  0  0  0  0
 22 23  2  0  0  0
 23 24  1  0  0  0
 24 21  1  0  0  0
 21  1  1  0  0  0
  1  2  2  0  0  0
  2  3  1  0  0  0
  3  4  2  0  0  0
  4  5  1  0  0  0
  5  6  2  0  0  0
  5  7  1  0  0  0
  7  8  1  0  0  0
  8 12  1  0  0  0
 12 15  1  0  0  0
 15 16  2  0  0  0
 16 17  1  0  0  0
 17 18  1  0  0  0
 17 19  1  0  0  0
 19 20  2  0  0  0
 12 13  2  0  0  0
 12 14  2  0  0  0
  8  9  1  0  0  0
  9 10  1  0  0  0
 10 11  2  0  0  0
 24 25  2  0  0  0
 25 26  1  0  0  0
 26 27  2  0  0  0
 27 28  1  0  0  0
 27 22  1  0  0  0
  6  1  1  0  0  0
 20 15  1  0  0  0
 10  4  1  0  0  0
M  END
> <minimizedAffinity>
-7.34436

> <CNNscore>
0.2442264855

> <CNNaffinity>
4.8266477585

> <CNN_VS>
1.1787952185

> <CNNaffinity_variance>
0.3608070016

$$$$
[H]c1nn(C([H])([H])[H])c([H])c1S(=O)(=O)N1C([H])([H])C(=O)c2c([H])c([H])c(Oc3c([H])c([H])c(C([H])([H])[H])c([H])c3[H])c([H])c2C1([H])[H]


 28 31  0  0  0  0  0  0  0  0999 V2000
   32.1774  -19.6836   35.7283 C   0  0  0  0  0  0  0  0  0  0  0  0
   32.7668  -20.5727   36.6009 C   0  0  0  0  0  0  0  0  0  0  0  0
   33.9916  -20.3329   37.1499 C   0  0  0  0  0  0  0  0  0  0  0  0
   34.6637  -19.1695   36.8261 C   0  0  0  0  0  0  0  0  0  0  0  0
   34.0555  -18.2858   35.9460 C   0  0  0  0  0  0  0  0  0  0  0  0
   32.8281  -18.5193   35.3920 C   0  0  0  0  0  0  0  0  0  0  0  0
   34.7872  -17.0153   35.5923 C   0  0  0  0  0  0  0  0  0  0  0  0
   35.5202  -16.6376   36.7524 N   0  0  0  0  0  0  0  0  0  0  0  0
   36.5626  -17.5251   37.1409 C   0  0  0  0  0  0  0  0  0  0  0  0
   35.9779  -18.8670   37.3882 C   0  0  0  0  0  0  0  0  0  0  0  0
   36.6107  -19.7014   38.0627 O   0  0  0  0  0  0  0  0  0  0  0  0
   35.8886  -14.9776   36.8485 S   0  0  0  0  0  0  0  0  0  0  0  0
   36.7156  -14.6064   38.0109 O   0  0  0  0  0  0  0  0  0  0  0  0
   36.5744  -14.5843   35.5490 O   0  0  0  0  0  0  0  0  0  0  0  0
   34.3667  -14.0951   36.8752 C   0  0  0  0  0  0  0  0  0  0  0  0
   33.7615  -13.6728   38.0226 C   0  0  0  0  0  0  0  0  0  0  0  0
   32.6426  -13.0463   37.6908 N   0  0  0  0  0  0  0  0  0  0  0  0
   31.6426  -12.4146   38.5483 C   0  0  0  0  0  0  0  0  0  0  0  0
   32.5313  -13.0637   36.3893 N   0  0  0  0  0  0  0  0  0  0  0  0
   33.5729  -13.7009   35.8399 C   0  0  0  0  0  0  0  0  0  0  0  0
   30.9325  -19.9182   35.1651 O   0  0  0  0  0  0  0  0  0  0  0  0
   28.4255  -22.4141   36.0312 C   0  0  0  0  0  0  0  0  0  0  0  0
   29.0398  -21.1717   35.8724 C   0  0  0  0  0  0  0  0  0  0  0  0
   30.2952  -21.1288   35.3364 C   0  0  0  0  0  0  0  0  0  0  0  0
   30.9511  -22.2782   34.9571 C   0  0  0  0  0  0  0  0  0  0  0  0
   30.3563  -23.5323   35.1066 C   0  0  0  0  0  0  0  0  0  0  0  0
   29.0912  -23.5639   35.6477 C   0  0  0  0  0  0  0  0  0  0  0  0
   28.4227  -24.8797   35.8236 C   0  0  0  0  0  0  0  0  0  0  0  0
 22 23  2  0  0  0
 23 24  1  0  0  0
 24 21  1  0  0  0
 21  1  1  0  0  0
  1  2  2  0  0  0
  2  3  1  0  0  0
  3  4  2  0  0  0
  4  5  1  0  0  0
  5  6  2  0  0  0
  5  7  1  0  0  0
  7  8  1  0  0  0
  8 12  1  0  0  0
 12 15  1  0  0  0
 15 16  2  0  0  0
 16 17  1  0  0  0
 17 18  1  0  0  0
 17 19  1  0  0  0
 19 20  2  0  0  0
 12 13  2  0  0  0
 12 14  2  0  0  0
  8  9  1  0  0  0
  9 10  1  0  0  0
 10 11  2  0  0  0
 24 25  2  0  0  0
 25 26  1  0  0  0
 26 27  2  0  0  0
 27 28  1  0  0  0
 27 22  1  0  0  0
  6  1  1  0  0  0
 20 15  1  0  0  0
 10  4  1  0  0  0
M  END
> <minimizedAffinity>
-7.02278

> <CNNscore>
0.2330847532

> <CNNaffinity>
5.0415482521

> <CNN_VS>
1.1751080751

> <CNNaffinity_variance>
0.2760891020

$$$$
[H]c1nn(C([H])([H])[H])c([H])c1S(=O)(=O)N1C([H])([H])C(=O)c2c([H])c([H])c(Oc3c([H])c([H])c(C([H])([H])[H])c([H])c3[H])c([H])c2C1([H])[H]


 28 31  0  0  0  0  0  0  0  0999 V2000
   36.3927  -18.2495   36.4337 C   0  0  0  0  0  0  0  0  0  0  0  0
   35.5057  -18.8363   37.3102 C   0  0  0  0  0  0  0  0  0  0  0  0
   35.8863  -19.8407   38.1500 C   0  0  0  0  0  0  0  0  0  0  0  0
   37.1946  -20.2856   38.1258 C   0  0  0  0  0  0  0  0  0  0  0  0
   38.0739  -19.6835   37.2371 C   0  0  0  0  0  0  0  0  0  0  0  0
   37.6997  -18.6764   36.3924 C   0  0  0  0  0  0  0  0  0  0  0  0
   39.5023  -20.1672   37.2099 C   0  0  0  0  0  0  0  0  0  0  0  0
   39.8225  -20.5493   38.5430 N   0  0  0  0  0  0  0  0  0  0  0  0
   39.1028  -21.6646   39.0561 C   0  0  0  0  0  0  0  0  0  0  0  0
   37.6512  -21.3585   39.0061 C   0  0  0  0  0  0  0  0  0  0  0  0
   36.8574  -22.0140   39.7074 O   0  0  0  0  0  0  0  0  0  0  0  0
   41.4847  -20.5090   38.9118 S   0  0  0  0  0  0  0  0  0  0  0  0
   42.1026  -19.1770   38.7814 O   0  0  0  0  0  0  0  0  0  0  0  0
   41.6540  -21.0480   40.3241 O   0  0  0  0  0  0  0  0  0  0  0  0
   42.2923  -21.6626   37.8570 C   0  0  0  0  0  0  0  0  0  0  0  0
   42.9795  -21.3032   36.7345 C   0  0  0  0  0  0  0  0  0  0  0  0
   43.4598  -22.4042   36.1763 N   0  0  0  0  0  0  0  0  0  0  0  0
   44.2601  -22.5575   34.9636 C   0  0  0  0  0  0  0  0  0  0  0  0
   43.0991  -23.4266   36.9051 N   0  0  0  0  0  0  0  0  0  0  0  0
   42.3755  -23.0193   37.9555 C   0  0  0  0  0  0  0  0  0  0  0  0
   36.0155  -17.2277   35.5760 O   0  0  0  0  0  0  0  0  0  0  0  0
   33.7152  -14.5105   36.3446 C   0  0  0  0  0  0  0  0  0  0  0  0
   34.1992  -15.7150   35.8332 C   0  0  0  0  0  0  0  0  0  0  0  0
   35.5036  -16.0452   36.0665 C   0  0  0  0  0  0  0  0  0  0  0  0
   36.3332  -15.2173   36.7886 C   0  0  0  0  0  0  0  0  0  0  0  0
   35.8711  -14.0074   37.3099 C   0  0  0  0  0  0  0  0  0  0  0  0
   34.5551  -13.6846   37.0688 C   0  0  0  0  0  0  0  0  0  0  0  0
   34.0240  -12.4049   37.6067 C   0  0  0  0  0  0  0  0  0  0  0  0
 22 23  2  0  0  0
 23 24  1  0  0  0
 24 21  1  0  0  0
 21  1  1  0  0  0
  1  2  2  0  0  0
  2  3  1  0  0  0
  3  4  2  0  0  0
  4  5  1  0  0  0
  5  6  2  0  0  0
  5  7  1  0  0  0
  7  8  1  0  0  0
  8 12  1  0  0  0
 12 15  1  0  0  0
 15 16  2  0  0  0
 16 17  1  0  0  0
 17 18  1  0  0  0
 17 19  1  0  0  0
 19 20  2  0  0  0
 12 13  2  0  0  0
 12 14  2  0  0  0
  8  9  1  0  0  0
  9 10  1  0  0  0
 10 11  2  0  0  0
 24 25  2  0  0  0
 25 26  1  0  0  0
 26 27  2  0  0  0
 27 28  1  0  0  0
 27 22  1  0  0  0
  6  1  1  0  0  0
 20 15  1  0  0  0
 10  4  1  0  0  0
M  END
> <minimizedAffinity>
-6.12612

> <CNNscore>
0.2141959667

> <CNNaffinity>
4.7987756729

> <CNN_VS>
1.0278784037

> <CNNaffinity_variance>
0.2518755794

$$$$
[H]c1nn(C([H])([H])[H])c([H])c1S(=O)(=O)N1C([H])([H])C(=O)c2c([H])c([H])c(Oc3c([H])c([H])c(C([H])([H])[H])c([H])c3[H])c([H])c2C1([H])[H]


 28 31  0  0  0  0  0  0  0  0999 V2000
   33.0999  -19.1472   34.5823 C   0  0  0  0  0  0  0  0  0  0  0  0
   31.7828  -18.7458   34.5235 C   0  0  0  0  0  0  0  0  0  0  0  0
   30.7645  -19.5713   34.8987 C   0  0  0  0  0  0  0  0  0  0  0  0
   31.0553  -20.8446   35.3504 C   0  0  0  0  0  0  0  0  0  0  0  0
   32.3867  -21.2320   35.4030 C   0  0  0  0  0  0  0  0  0  0  0  0
   33.4126  -20.4101   35.0288 C   0  0  0  0  0  0  0  0  0  0  0  0
   32.7059  -22.6210   35.8965 C   0  0  0  0  0  0  0  0  0  0  0  0
   31.7251  -22.9333   36.8796 N   0  0  0  0  0  0  0  0  0  0  0  0
   30.3885  -23.0475   36.4046 C   0  0  0  0  0  0  0  0  0  0  0  0
   29.9996  -21.7661   35.7641 C   0  0  0  0  0  0  0  0  0  0  0  0
   28.7944  -21.5023   35.5926 O   0  0  0  0  0  0  0  0  0  0  0  0
   32.2088  -24.1065   38.0154 S   0  0  0  0  0  0  0  0  0  0  0  0
   31.7437  -25.4720   37.7121 O   0  0  0  0  0  0  0  0  0  0  0  0
   33.7266  -24.0594   38.1049 O   0  0  0  0  0  0  0  0  0  0  0  0
   31.6182  -23.5964   39.5923 C   0  0  0  0  0  0  0  0  0  0  0  0
   30.3211  -23.7357   39.9913 C   0  0  0  0  0  0  0  0  0  0  0  0
   30.2151  -23.2548   41.2210 N   0  0  0  0  0  0  0  0  0  0  0  0
   29.0422  -23.1719   42.0880 C   0  0  0  0  0  0  0  0  0  0  0  0
   31.3899  -22.8251   41.5977 N   0  0  0  0  0  0  0  0  0  0  0  0
   32.2904  -23.0144   40.6250 C   0  0  0  0  0  0  0  0  0  0  0  0
   34.1422  -18.3153   34.2035 O   0  0  0  0  0  0  0  0  0  0  0  0
   34.7952  -15.5255   36.4519 C   0  0  0  0  0  0  0  0  0  0  0  0
   34.1437  -16.3374   35.5230 C   0  0  0  0  0  0  0  0  0  0  0  0
   34.7571  -17.4892   35.1202 C   0  0  0  0  0  0  0  0  0  0  0  0
   35.9904  -17.8528   35.6118 C   0  0  0  0  0  0  0  0  0  0  0  0
   36.6611  -17.0564   36.5418 C   0  0  0  0  0  0  0  0  0  0  0  0
   36.0339  -15.8980   36.9407 C   0  0  0  0  0  0  0  0  0  0  0  0
   36.7147  -15.0220   37.9297 C   0  0  0  0  0  0  0  0  0  0  0  0
 22 23  2  0  0  0
 23 24  1  0  0  0
 24 21  1  0  0  0
 21  1  1  0  0  0
  1  2  2  0  0  0
  2  3  1  0  0  0
  3  4  2  0  0  0
  4  5  1  0  0  0
  5  6  2  0  0  0
  5  7  1  0  0  0
  7  8  1  0  0  0
  8 12  1  0  0  0
 12 15  1  0  0  0
 15 16  2  0  0  0
 16 17  1  0  0  0
 17 18  1  0  0  0
 17 19  1  0  0  0
 19 20  2  0  0  0
 12 13  2  0  0  0
 12 14  2  0  0  0
  8  9  1  0  0  0
  9 10  1  0  0  0
 10 11  2  0  0  0
 24 25  2  0  0  0
 25 26  1  0  0  0
 26 27  2  0  0  0
 27 28  1  0  0  0
 27 22  1  0  0  0
  6  1  1  0  0  0
 20 15  1  0  0  0
 10  4  1  0  0  0
M  END
> <minimizedAffinity>
-5.80021

> <CNNscore>
0.2036499530

> <CNNaffinity>
4.4279394150

> <CNN_VS>
0.9017496705

> <CNNaffinity_variance>
0.5283957124

$$$$
[H]c1nn(C([H])([H])[H])c([H])c1S(=O)(=O)N1C([H])([H])C(=O)c2c([H])c([H])c(Oc3c([H])c([H])c(C([H])([H])[H])c([H])c3[H])c([H])c2C1([H])[H]


 28 31  0  0  0  0  0  0  0  0999 V2000
   34.4964  -17.5169   35.5232 C   0  0  0  0  0  0  0  0  0  0  0  0
   35.6180  -17.5436   36.3236 C   0  0  0  0  0  0  0  0  0  0  0  0
   36.0483  -16.4356   36.9916 C   0  0  0  0  0  0  0  0  0  0  0  0
   35.3451  -15.2525   36.8661 C   0  0  0  0  0  0  0  0  0  0  0  0
   34.2184  -15.2438   36.0562 C   0  0  0  0  0  0  0  0  0  0  0  0
   33.7810  -16.3503   35.3837 C   0  0  0  0  0  0  0  0  0  0  0  0
   33.4493  -13.9537   35.9188 C   0  0  0  0  0  0  0  0  0  0  0  0
   33.5607  -13.2844   37.1700 N   0  0  0  0  0  0  0  0  0  0  0  0
   34.8698  -12.8553   37.5269 C   0  0  0  0  0  0  0  0  0  0  0  0
   35.7656  -14.0385   37.5618 C   0  0  0  0  0  0  0  0  0  0  0  0
   36.8474  -13.9759   38.1762 O   0  0  0  0  0  0  0  0  0  0  0  0
   32.3060  -12.1802   37.4971 S   0  0  0  0  0  0  0  0  0  0  0  0
   32.7460  -10.7777   37.6073 O   0  0  0  0  0  0  0  0  0  0  0  0
   31.2620  -12.3352   36.4018 O   0  0  0  0  0  0  0  0  0  0  0  0
   31.5206  -12.6925   38.9859 C   0  0  0  0  0  0  0  0  0  0  0  0
   30.2129  -13.0755   39.0538 C   0  0  0  0  0  0  0  0  0  0  0  0
   29.9431  -13.3965   40.3102 N   0  0  0  0  0  0  0  0  0  0  0  0
   28.6917  -13.8648   40.9010 C   0  0  0  0  0  0  0  0  0  0  0  0
   31.0268  -13.2282   41.0201 N   0  0  0  0  0  0  0  0  0  0  0  0
   32.0294  -12.7939   40.2460 C   0  0  0  0  0  0  0  0  0  0  0  0
   34.0507  -18.6380   34.8402 O   0  0  0  0  0  0  0  0  0  0  0  0
   31.6617  -20.8417   36.4837 C   0  0  0  0  0  0  0  0  0  0  0  0
   32.8727  -20.2341   36.1510 C   0  0  0  0  0  0  0  0  0  0  0  0
   32.8721  -19.2598   35.1940 C   0  0  0  0  0  0  0  0  0  0  0  0
   31.7097  -18.8764   34.5639 C   0  0  0  0  0  0  0  0  0  0  0  0
   30.4865  -19.4702   34.8804 C   0  0  0  0  0  0  0  0  0  0  0  0
   30.4987  -20.4508   35.8461 C   0  0  0  0  0  0  0  0  0  0  0  0
   29.2169  -21.1081   36.2121 C   0  0  0  0  0  0  0  0  0  0  0  0
 22 23  2  0  0  0
 23 24  1  0  0  0
 24 21  1  0  0  0
 21  1  1  0  0  0
  1  2  2  0  0  0
  2  3  1  0  0  0
  3  4  2  0  0  0
  4  5  1  0  0  0
  5  6  2  0  0  0
  5  7  1  0  0  0
  7  8  1  0  0  0
  8 12  1  0  0  0
 12 15  1  0  0  0
 15 16  2  0  0  0
 16 17  1  0  0  0
 17 18  1  0  0  0
 17 19  1  0  0  0
 19 20  2  0  0  0
 12 13  2  0  0  0
 12 14  2  0  0  0
  8  9  1  0  0  0
  9 10  1  0  0  0
 10 11  2  0  0  0
 24 25  2  0  0  0
 25 26  1  0  0  0
 26 27  2  0  0  0
 27 28  1  0  0  0
 27 22  1  0  0  0
  6  1  1  0  0  0
 20 15  1  0  0  0
 10  4  1  0  0  0
M  END
> <minimizedAffinity>
-7.67367

> <CNNscore>
0.1831042022

> <CNNaffinity>
5.1986112595

> <CNN_VS>
0.9518875480

> <CNNaffinity_variance>
0.3453109264

$$$$
[H]c1nn(C([H])([H])[H])c([H])c1S(=O)(=O)N1C([H])([H])C(=O)c2c([H])c([H])c(Oc3c([H])c([H])c(C([H])([H])[H])c([H])c3[H])c([H])c2C1([H])[H]


 28 31  0  0  0  0  0  0  0  0999 V2000
   35.4265  -16.6975   36.1265 C   0  0  0  0  0  0  0  0  0  0  0  0
   34.4076  -17.1014   35.2910 C   0  0  0  0  0  0  0  0  0  0  0  0
   33.8029  -18.3151   35.4329 C   0  0  0  0  0  0  0  0  0  0  0  0
   34.2187  -19.1663   36.4392 C   0  0  0  0  0  0  0  0  0  0  0  0
   35.2457  -18.7435   37.2710 C   0  0  0  0  0  0  0  0  0  0  0  0
   35.8565  -17.5284   37.1349 C   0  0  0  0  0  0  0  0  0  0  0  0
   35.7002  -19.6708   38.3703 C   0  0  0  0  0  0  0  0  0  0  0  0
   34.5450  -20.3844   38.7971 N   0  0  0  0  0  0  0  0  0  0  0  0
   33.9713  -21.2632   37.8359 C   0  0  0  0  0  0  0  0  0  0  0  0
   33.6021  -20.4767   36.6323 C   0  0  0  0  0  0  0  0  0  0  0  0
   32.7829  -20.9425   35.8178 O   0  0  0  0  0  0  0  0  0  0  0  0
   34.6304  -20.9840   40.3888 S   0  0  0  0  0  0  0  0  0  0  0  0
   35.9830  -20.9590   40.9744 O   0  0  0  0  0  0  0  0  0  0  0  0
   33.6592  -20.1758   41.2358 O   0  0  0  0  0  0  0  0  0  0  0  0
   34.0021  -22.6274   40.3732 C   0  0  0  0  0  0  0  0  0  0  0  0
   32.6821  -22.9301   40.5380 C   0  0  0  0  0  0  0  0  0  0  0  0
   32.5510  -24.2466   40.4739 N   0  0  0  0  0  0  0  0  0  0  0  0
   31.3478  -25.0670   40.5907 C   0  0  0  0  0  0  0  0  0  0  0  0
   33.7321  -24.7690   40.2768 N   0  0  0  0  0  0  0  0  0  0  0  0
   34.6621  -23.8081   40.2075 C   0  0  0  0  0  0  0  0  0  0  0  0
   36.0475  -15.4655   35.9906 O   0  0  0  0  0  0  0  0  0  0  0  0
   35.2266  -11.9442   36.4284 C   0  0  0  0  0  0  0  0  0  0  0  0
   35.8825  -13.0935   35.9864 C   0  0  0  0  0  0  0  0  0  0  0  0
   35.4235  -14.3089   36.4075 C   0  0  0  0  0  0  0  0  0  0  0  0
   34.3391  -14.4118   37.2493 C   0  0  0  0  0  0  0  0  0  0  0  0
   33.6673  -13.2758   37.7044 C   0  0  0  0  0  0  0  0  0  0  0  0
   34.1382  -12.0563   37.2739 C   0  0  0  0  0  0  0  0  0  0  0  0
   33.4506  -10.8222   37.7357 C   0  0  0  0  0  0  0  0  0  0  0  0
 22 23  2  0  0  0
 23 24  1  0  0  0
 24 21  1  0  0  0
 21  1  1  0  0  0
  1  2  2  0  0  0
  2  3  1  0  0  0
  3  4  2  0  0  0
  4  5  1  0  0  0
  5  6  2  0  0  0
  5  7  1  0  0  0
  7  8  1  0  0  0
  8 12  1  0  0  0
 12 15  1  0  0  0
 15 16  2  0  0  0
 16 17  1  0  0  0
 17 18  1  0  0  0
 17 19  1  0  0  0
 19 20  2  0  0  0
 12 13  2  0  0  0
 12 14  2  0  0  0
  8  9  1  0  0  0
  9 10  1  0  0  0
 10 11  2  0  0  0
 24 25  2  0  0  0
 25 26  1  0  0  0
 26 27  2  0  0  0
 27 28  1  0  0  0
 27 22  1  0  0  0
  6  1  1  0  0  0
 20 15  1  0  0  0
 10  4  1  0  0  0
M  END
> <minimizedAffinity>
-6.86973

> <CNNscore>
0.1823463589

> <CNNaffinity>
4.6298279762

> <CNN_VS>
0.8442322612

> <CNNaffinity_variance>
0.3057067692

$$$$
[H]c1nc(N([H])c2c([H])c([H])c(N3C([H])([H])C([H])([H])C([H])(N4C([H])([H])C([H])([H])N(C([H])([H])[H])C([H])([H])C4([H])[H])C([H])([H])C3([H])[H])c([H])c2OC([H])([H])[H])nc(N([H])c2c([H])c([H])c([H])c([H])c2S(=O)(=O)C([H])(C([H])([H])[H])C([H])([H])[H])c1Cl


 44 48  0  0  0  0  0  0  0  0999 V2000
   33.1694  -17.9044   34.8973 N   0  0  0  0  0  0  0  0  0  0  0  0
   32.8791  -16.8732   34.7435 H   0  0  0  0  0  0  0  0  0  0  0  0
   32.1152  -18.8181   35.1621 C   0  0  0  0  0  0  0  0  0  0  0  0
   30.8768  -18.7594   34.6659 N   0  0  0  0  0  0  0  0  0  0  0  0
   29.9283  -19.6582   34.9570 C   0  0  0  0  0  0  0  0  0  0  0  0
   30.2121  -20.7035   35.8045 C   0  0  0  0  0  0  0  0  0  0  0  0
   28.9773  -21.8953   36.1987 Cl  0  0  0  0  0  0  0  0  0  0  0  0
   31.5129  -20.7884   36.3423 C   0  0  0  0  0  0  0  0  0  0  0  0
   32.3878  -19.8437   35.9915 N   0  0  0  0  0  0  0  0  0  0  0  0
   31.7770  -21.8653   37.2025 N   0  0  0  0  0  0  0  0  0  0  0  0
   31.3685  -21.7555   38.1884 H   0  0  0  0  0  0  0  0  0  0  0  0
   32.4800  -23.0636   37.0065 C   0  0  0  0  0  0  0  0  0  0  0  0
   31.9433  -24.0568   36.2148 C   0  0  0  0  0  0  0  0  0  0  0  0
   32.6319  -25.2596   36.0107 C   0  0  0  0  0  0  0  0  0  0  0  0
   33.8442  -25.4376   36.6068 C   0  0  0  0  0  0  0  0  0  0  0  0
   34.3775  -24.4441   37.3964 C   0  0  0  0  0  0  0  0  0  0  0  0
   33.7259  -23.2582   37.6129 C   0  0  0  0  0  0  0  0  0  0  0  0
   34.4044  -22.0300   38.5985 S   0  0  0  0  0  0  0  0  0  0  0  0
   35.3905  -22.6347   39.5661 O   0  0  0  0  0  0  0  0  0  0  0  0
   33.4040  -21.2399   39.3950 O   0  0  0  0  0  0  0  0  0  0  0  0
   35.3270  -20.8299   37.6568 C   0  0  0  0  0  0  0  0  0  0  0  0
   35.4383  -19.5399   38.4027 C   0  0  0  0  0  0  0  0  0  0  0  0
   36.6068  -21.3632   37.1051 C   0  0  0  0  0  0  0  0  0  0  0  0
   35.4062  -17.3585   35.5835 C   0  0  0  0  0  0  0  0  0  0  0  0
   36.7766  -17.5409   35.5524 C   0  0  0  0  0  0  0  0  0  0  0  0
   37.3634  -18.5061   34.7647 C   0  0  0  0  0  0  0  0  0  0  0  0
   36.5114  -19.2773   34.0120 C   0  0  0  0  0  0  0  0  0  0  0  0
   35.1220  -19.1193   34.0197 C   0  0  0  0  0  0  0  0  0  0  0  0
   34.5431  -18.1557   34.8067 C   0  0  0  0  0  0  0  0  0  0  0  0
   38.7819  -18.6878   34.7488 N   0  0  0  0  0  0  0  0  0  0  0  0
   39.4557  -18.6418   33.4965 C   0  0  0  0  0  0  0  0  0  0  0  0
   40.9490  -18.4837   33.5575 C   0  0  0  0  0  0  0  0  0  0  0  0
   41.6154  -19.3158   34.6009 C   0  0  0  0  0  0  0  0  0  0  0  0
   40.6471  -19.8591   35.6326 C   0  0  0  0  0  0  0  0  0  0  0  0
   39.5360  -18.9194   35.9575 C   0  0  0  0  0  0  0  0  0  0  0  0
   42.7296  -18.7627   35.2614 N   0  0  0  0  0  0  0  0  0  0  0  0
   43.6995  -18.0709   34.5197 C   0  0  0  0  0  0  0  0  0  0  0  0
   44.9692  -17.9087   35.3603 C   0  0  0  0  0  0  0  0  0  0  0  0
   44.5683  -17.4970   36.6916 N   0  0  0  0  0  0  0  0  0  0  0  0
   44.0771  -16.1583   36.7686 C   0  0  0  0  0  0  0  0  0  0  0  0
   43.7941  -18.4802   37.3780 C   0  0  0  0  0  0  0  0  0  0  0  0
   43.2657  -19.4933   36.3647 C   0  0  0  0  0  0  0  0  0  0  0  0
   35.7124  -15.2999   36.7943 C   0  0  0  0  0  0  0  0  0  0  0  0
   34.8820  -16.3678   36.3993 O   0  0  0  0  0  0  0  0  0  0  0  0
 43 44  1  0  0  0
 44 24  1  0  0  0
 24 25  2  0  0  0
 25 26  1  0  0  0
 26 27  2  0  0  0
 27 28  1  0  0  0
 28 29  2  0  0  0
 29  1  1  0  0  0
  1  3  1  0  0  0
  3  4  2  0  0  0
  4  5  1  0  0  0
  5  6  2  0  0  0
  6  7  1  0  0  0
  6  8  1  0  0  0
  8 10  1  0  0  0
 10 12  1  0  0  0
 12 13  2  0  0  0
 13 14  1  0  0  0
 14 15  2  0  0  0
 15 16  1  0  0  0
 16 17  2  0  0  0
 17 18  1  0  0  0
 18 19  2  0  0  0
 18 20  2  0  0  0
 18 21  1  0  0  0
 21 22  1  0  0  0
 21 23  1  0  0  0
  8  9  2  0  0  0
 26 30  1  0  0  0
 30 31  1  0  0  0
 31 32  1  0  0  0
 32 33  1  0  0  0
 33 34  1  0  0  0
 34 35  1  0  0  0
 33 36  1  0  0  0
 36 37  1  0  0  0
 37 38  1  0  0  0
 38 39  1  0  0  0
 39 40  1  0  0  0
 39 41  1  0  0  0
 41 42  1  0  0  0
 29 24  1  0  0  0
  9  3  1  0  0  0
 35 30  1  0  0  0
 42 36  1  0  0  0
 17 12  1  0  0  0
  1  2  1  0  0  0
 10 11  1  0  0  0
M  END
> <minimizedAffinity>
-7.06424

> <CNNscore>
0.4944551885

> <CNNaffinity>
6.9734830856

> <CNN_VS>
3.4480748177

> <CNNaffinity_variance>
0.4852293134

$$$$
[H]c1nc(N([H])c2c([H])c([H])c(N3C([H])([H])C([H])([H])C([H])(N4C([H])([H])C([H])([H])N(C([H])([H])[H])C([H])([H])C4([H])[H])C([H])([H])C3([H])[H])c([H])c2OC([H])([H])[H])nc(N([H])c2c([H])c([H])c([H])c([H])c2S(=O)(=O)C([H])(C([H])([H])[H])C([H])([H])[H])c1Cl


 44 48  0  0  0  0  0  0  0  0999 V2000
   32.9242  -17.9296   34.8016 N   0  0  0  0  0  0  0  0  0  0  0  0
   32.6444  -16.9056   34.5911 H   0  0  0  0  0  0  0  0  0  0  0  0
   31.8591  -18.8205   35.0988 C   0  0  0  0  0  0  0  0  0  0  0  0
   30.6095  -18.7388   34.6352 N   0  0  0  0  0  0  0  0  0  0  0  0
   29.6510  -19.6169   34.9558 C   0  0  0  0  0  0  0  0  0  0  0  0
   29.9360  -20.6639   35.8007 C   0  0  0  0  0  0  0  0  0  0  0  0
   28.6882  -21.8286   36.2335 Cl  0  0  0  0  0  0  0  0  0  0  0  0
   31.2487  -20.7728   36.3044 C   0  0  0  0  0  0  0  0  0  0  0  0
   32.1329  -19.8477   35.9259 N   0  0  0  0  0  0  0  0  0  0  0  0
   31.5136  -21.8510   37.1628 N   0  0  0  0  0  0  0  0  0  0  0  0
   31.7035  -21.5707   38.1808 H   0  0  0  0  0  0  0  0  0  0  0  0
   31.5751  -23.2333   36.9307 C   0  0  0  0  0  0  0  0  0  0  0  0
   31.9208  -23.7089   35.6835 C   0  0  0  0  0  0  0  0  0  0  0  0
   31.9848  -25.0860   35.4353 C   0  0  0  0  0  0  0  0  0  0  0  0
   31.7000  -25.9547   36.4457 C   0  0  0  0  0  0  0  0  0  0  0  0
   31.3553  -25.4769   37.6898 C   0  0  0  0  0  0  0  0  0  0  0  0
   31.2851  -24.1353   37.9603 C   0  0  0  0  0  0  0  0  0  0  0  0
   30.8553  -23.5563   39.5160 S   0  0  0  0  0  0  0  0  0  0  0  0
   29.5864  -22.7460   39.4296 O   0  0  0  0  0  0  0  0  0  0  0  0
   31.9007  -22.7044   40.1798 O   0  0  0  0  0  0  0  0  0  0  0  0
   30.5079  -24.8752   40.6641 C   0  0  0  0  0  0  0  0  0  0  0  0
   31.5153  -24.8993   41.7674 C   0  0  0  0  0  0  0  0  0  0  0  0
   29.0811  -24.9251   41.0985 C   0  0  0  0  0  0  0  0  0  0  0  0
   35.1535  -17.3865   35.5139 C   0  0  0  0  0  0  0  0  0  0  0  0
   36.5224  -17.5821   35.5124 C   0  0  0  0  0  0  0  0  0  0  0  0
   37.1139  -18.5727   34.7605 C   0  0  0  0  0  0  0  0  0  0  0  0
   36.2683  -19.3554   34.0127 C   0  0  0  0  0  0  0  0  0  0  0  0
   34.8805  -19.1845   33.9911 C   0  0  0  0  0  0  0  0  0  0  0  0
   34.2968  -18.1956   34.7424 C   0  0  0  0  0  0  0  0  0  0  0  0
   38.5307  -18.7675   34.7751 N   0  0  0  0  0  0  0  0  0  0  0  0
   39.2628  -18.4977   33.5853 C   0  0  0  0  0  0  0  0  0  0  0  0
   40.7524  -18.3742   33.7422 C   0  0  0  0  0  0  0  0  0  0  0  0
   41.3648  -19.3956   34.6404 C   0  0  0  0  0  0  0  0  0  0  0  0
   40.3465  -20.1087   35.5073 C   0  0  0  0  0  0  0  0  0  0  0  0
   39.2260  -19.2311   35.9518 C   0  0  0  0  0  0  0  0  0  0  0  0
   42.4495  -18.9909   35.4424 N   0  0  0  0  0  0  0  0  0  0  0  0
   42.6861  -17.6227   35.6458 C   0  0  0  0  0  0  0  0  0  0  0  0
   44.0984  -17.4232   36.2030 C   0  0  0  0  0  0  0  0  0  0  0  0
   44.3068  -18.4116   37.2434 N   0  0  0  0  0  0  0  0  0  0  0  0
   43.5602  -18.1731   38.4371 C   0  0  0  0  0  0  0  0  0  0  0  0
   44.2869  -19.7542   36.7595 C   0  0  0  0  0  0  0  0  0  0  0  0
   43.6413  -19.7744   35.3755 C   0  0  0  0  0  0  0  0  0  0  0  0
   35.4636  -15.3120   36.6963 C   0  0  0  0  0  0  0  0  0  0  0  0
   34.6242  -16.3703   36.2943 O   0  0  0  0  0  0  0  0  0  0  0  0
 43 44  1  0  0  0
 44 24  1  0  0  0
 24 25  2  0  0  0
 25 26  1  0  0  0
 26 27  2  0  0  0
 27 28  1  0  0  0
 28 29  2  0  0  0
 29  1  1  0  0  0
  1  3  1  0  0  0
  3  4  2  0  0  0
  4  5  1  0  0  0
  5  6  2  0  0  0
  6  7  1  0  0  0
  6  8  1  0  0  0
  8 10  1  0  0  0
 10 12  1  0  0  0
 12 13  2  0  0  0
 13 14  1  0  0  0
 14 15  2  0  0  0
 15 16  1  0  0  0
 16 17  2  0  0  0
 17 18  1  0  0  0
 18 19  2  0  0  0
 18 20  2  0  0  0
 18 21  1  0  0  0
 21 22  1  0  0  0
 21 23  1  0  0  0
  8  9  2  0  0  0
 26 30  1  0  0  0
 30 31  1  0  0  0
 31 32  1  0  0  0
 32 33  1  0  0  0
 33 34  1  0  0  0
 34 35  1  0  0  0
 33 36  1  0  0  0
 36 37  1  0  0  0
 37 38  1  0  0  0
 38 39  1  0  0  0
 39 40  1  0  0  0
 39 41  1  0  0  0
 41 42  1  0  0  0
 29 24  1  0  0  0
  9  3  1  0  0  0
 35 30  1  0  0  0
 42 36  1  0  0  0
 17 12  1  0  0  0
  1  2  1  0  0  0
 10 11  1  0  0  0
M  END
> <minimizedAffinity>
-6.52341

> <CNNscore>
0.4157199562

> <CNNaffinity>
6.6047606468

> <CNN_VS>
2.7457308769

> <CNNaffinity_variance>
0.7431661487

$$$$
[H]c1nc(N([H])c2c([H])c([H])c(N3C([H])([H])C([H])([H])C([H])(N4C([H])([H])C([H])([H])N(C([H])([H])[H])C([H])([H])C4([H])[H])C([H])([H])C3([H])[H])c([H])c2OC([H])([H])[H])nc(N([H])c2c([H])c([H])c([H])c([H])c2S(=O)(=O)C([H])(C([H])([H])[H])C([H])([H])[H])c1Cl


 44 48  0  0  0  0  0  0  0  0999 V2000
   34.2157  -12.8386   37.8251 N   0  0  0  0  0  0  0  0  0  0  0  0
   34.9257  -12.2074   38.3433 H   0  0  0  0  0  0  0  0  0  0  0  0
   32.8722  -12.3792   37.8002 C   0  0  0  0  0  0  0  0  0  0  0  0
   32.4111  -11.3255   37.1216 N   0  0  0  0  0  0  0  0  0  0  0  0
   31.1270  -10.9472   37.1414 C   0  0  0  0  0  0  0  0  0  0  0  0
   30.2151  -11.6573   37.8866 C   0  0  0  0  0  0  0  0  0  0  0  0
   28.5221  -11.1747   37.9246 Cl  0  0  0  0  0  0  0  0  0  0  0  0
   30.6765  -12.7747   38.6127 C   0  0  0  0  0  0  0  0  0  0  0  0
   31.9750  -13.0712   38.5284 N   0  0  0  0  0  0  0  0  0  0  0  0
   29.7256  -13.4831   39.3632 N   0  0  0  0  0  0  0  0  0  0  0  0
   29.4048  -14.4041   38.9162 H   0  0  0  0  0  0  0  0  0  0  0  0
   29.1166  -13.2049   40.5962 C   0  0  0  0  0  0  0  0  0  0  0  0
   29.0880  -11.9124   41.0756 C   0  0  0  0  0  0  0  0  0  0  0  0
   28.4854  -11.6186   42.3056 C   0  0  0  0  0  0  0  0  0  0  0  0
   27.9250  -12.6300   43.0265 C   0  0  0  0  0  0  0  0  0  0  0  0
   27.9549  -13.9193   42.5451 C   0  0  0  0  0  0  0  0  0  0  0  0
   28.5374  -14.2349   41.3456 C   0  0  0  0  0  0  0  0  0  0  0  0
   28.5653  -15.8460   40.7595 S   0  0  0  0  0  0  0  0  0  0  0  0
   29.9759  -16.3784   40.7883 O   0  0  0  0  0  0  0  0  0  0  0  0
   28.0384  -16.0149   39.3618 O   0  0  0  0  0  0  0  0  0  0  0  0
   27.6093  -16.9585   41.7728 C   0  0  0  0  0  0  0  0  0  0  0  0
   26.9663  -18.0184   40.9386 C   0  0  0  0  0  0  0  0  0  0  0  0
   28.3448  -17.4482   42.9753 C   0  0  0  0  0  0  0  0  0  0  0  0
   36.1304  -14.2378   37.4404 C   0  0  0  0  0  0  0  0  0  0  0  0
   36.7401  -15.3649   36.9207 C   0  0  0  0  0  0  0  0  0  0  0  0
   36.0343  -16.3110   36.2113 C   0  0  0  0  0  0  0  0  0  0  0  0
   34.6912  -16.0723   36.0490 C   0  0  0  0  0  0  0  0  0  0  0  0
   34.0436  -14.9435   36.5608 C   0  0  0  0  0  0  0  0  0  0  0  0
   34.7523  -14.0042   37.2669 C   0  0  0  0  0  0  0  0  0  0  0  0
   36.6774  -17.4755   35.6863 N   0  0  0  0  0  0  0  0  0  0  0  0
   36.3142  -17.9198   34.3844 C   0  0  0  0  0  0  0  0  0  0  0  0
   37.2453  -18.9099   33.7427 C   0  0  0  0  0  0  0  0  0  0  0  0
   37.7350  -19.9799   34.6594 C   0  0  0  0  0  0  0  0  0  0  0  0
   37.5127  -19.6535   36.1227 C   0  0  0  0  0  0  0  0  0  0  0  0
   37.6698  -18.2049   36.4389 C   0  0  0  0  0  0  0  0  0  0  0  0
   39.0571  -20.4327   34.4842 N   0  0  0  0  0  0  0  0  0  0  0  0
   39.6654  -21.1965   35.4921 C   0  0  0  0  0  0  0  0  0  0  0  0
   41.1789  -21.2371   35.2625 C   0  0  0  0  0  0  0  0  0  0  0  0
   41.4054  -21.4884   33.8525 N   0  0  0  0  0  0  0  0  0  0  0  0
   41.0805  -22.8142   33.4332 C   0  0  0  0  0  0  0  0  0  0  0  0
   40.9319  -20.4394   33.0083 C   0  0  0  0  0  0  0  0  0  0  0  0
   39.9606  -19.5652   33.7989 C   0  0  0  0  0  0  0  0  0  0  0  0
   38.2283  -13.0926   37.7324 C   0  0  0  0  0  0  0  0  0  0  0  0
   36.9009  -13.3256   38.1446 O   0  0  0  0  0  0  0  0  0  0  0  0
 43 44  1  0  0  0
 44 24  1  0  0  0
 24 25  2  0  0  0
 25 26  1  0  0  0
 26 27  2  0  0  0
 27 28  1  0  0  0
 28 29  2  0  0  0
 29  1  1  0  0  0
  1  3  1  0  0  0
  3  4  2  0  0  0
  4  5  1  0  0  0
  5  6  2  0  0  0
  6  7  1  0  0  0
  6  8  1  0  0  0
  8 10  1  0  0  0
 10 12  1  0  0  0
 12 13  2  0  0  0
 13 14  1  0  0  0
 14 15  2  0  0  0
 15 16  1  0  0  0
 16 17  2  0  0  0
 17 18  1  0  0  0
 18 19  2  0  0  0
 18 20  2  0  0  0
 18 21  1  0  0  0
 21 22  1  0  0  0
 21 23  1  0  0  0
  8  9  2  0  0  0
 26 30  1  0  0  0
 30 31  1  0  0  0
 31 32  1  0  0  0
 32 33  1  0  0  0
 33 34  1  0  0  0
 34 35  1  0  0  0
 33 36  1  0  0  0
 36 37  1  0  0  0
 37 38  1  0  0  0
 38 39  1  0  0  0
 39 40  1  0  0  0
 39 41  1  0  0  0
 41 42  1  0  0  0
 29 24  1  0  0  0
  9  3  1  0  0  0
 35 30  1  0  0  0
 42 36  1  0  0  0
 17 12  1  0  0  0
  1  2  1  0  0  0
 10 11  1  0  0  0
M  END
> <minimizedAffinity>
-8.08309

> <CNNscore>
0.4054548442

> <CNNaffinity>
7.0661339760

> <CNN_VS>
2.8649983406

> <CNNaffinity_variance>
0.1326353848

$$$$
[H]c1nc(N([H])c2c([H])c([H])c(N3C([H])([H])C([H])([H])C([H])(N4C([H])([H])C([H])([H])N(C([H])([H])[H])C([H])([H])C4([H])[H])C([H])([H])C3([H])[H])c([H])c2OC([H])([H])[H])nc(N([H])c2c([H])c([H])c([H])c([H])c2S(=O)(=O)C([H])(C([H])([H])[H])C([H])([H])[H])c1Cl


 44 48  0  0  0  0  0  0  0  0999 V2000
   34.4482  -12.0210   36.6756 N   0  0  0  0  0  0  0  0  0  0  0  0
   35.2527  -11.3757   36.3475 H   0  0  0  0  0  0  0  0  0  0  0  0
   33.2691  -11.3708   37.1266 C   0  0  0  0  0  0  0  0  0  0  0  0
   33.0883  -10.0524   37.2374 N   0  0  0  0  0  0  0  0  0  0  0  0
   31.9460   -9.5041   37.6700 C   0  0  0  0  0  0  0  0  0  0  0  0
   30.8903  -10.3107   38.0247 C   0  0  0  0  0  0  0  0  0  0  0  0
   29.3803   -9.6075   38.5956 Cl  0  0  0  0  0  0  0  0  0  0  0  0
   31.0555  -11.7071   37.9169 C   0  0  0  0  0  0  0  0  0  0  0  0
   32.2320  -12.1563   37.4753 N   0  0  0  0  0  0  0  0  0  0  0  0
   29.9626  -12.5075   38.2831 N   0  0  0  0  0  0  0  0  0  0  0  0
   30.1277  -13.5616   38.1704 H   0  0  0  0  0  0  0  0  0  0  0  0
   28.6892  -12.1786   38.7719 C   0  0  0  0  0  0  0  0  0  0  0  0
   27.7573  -11.6009   37.9359 C   0  0  0  0  0  0  0  0  0  0  0  0
   26.4823  -11.2650   38.4092 C   0  0  0  0  0  0  0  0  0  0  0  0
   26.1722  -11.5169   39.7119 C   0  0  0  0  0  0  0  0  0  0  0  0
   27.1047  -12.0940   40.5440 C   0  0  0  0  0  0  0  0  0  0  0  0
   28.3588  -12.4327   40.1077 C   0  0  0  0  0  0  0  0  0  0  0  0
   29.5086  -13.1520   41.1568 S   0  0  0  0  0  0  0  0  0  0  0  0
   29.1851  -12.8048   42.5882 O   0  0  0  0  0  0  0  0  0  0  0  0
   30.9335  -12.7503   40.8968 O   0  0  0  0  0  0  0  0  0  0  0  0
   29.4873  -14.9328   41.0760 C   0  0  0  0  0  0  0  0  0  0  0  0
   29.4481  -15.5271   42.4464 C   0  0  0  0  0  0  0  0  0  0  0  0
   28.4816  -15.4726   40.1147 C   0  0  0  0  0  0  0  0  0  0  0  0
   35.9942  -13.8333   36.9880 C   0  0  0  0  0  0  0  0  0  0  0  0
   36.3400  -15.1713   36.9397 C   0  0  0  0  0  0  0  0  0  0  0  0
   35.4560  -16.1351   36.5083 C   0  0  0  0  0  0  0  0  0  0  0  0
   34.2119  -15.6929   36.1289 C   0  0  0  0  0  0  0  0  0  0  0  0
   33.8300  -14.3482   36.1650 C   0  0  0  0  0  0  0  0  0  0  0  0
   34.7153  -13.3924   36.5958 C   0  0  0  0  0  0  0  0  0  0  0  0
   35.8257  -17.5161   36.4711 N   0  0  0  0  0  0  0  0  0  0  0  0
   36.0338  -18.1267   35.2029 C   0  0  0  0  0  0  0  0  0  0  0  0
   36.7508  -19.4474   35.2174 C   0  0  0  0  0  0  0  0  0  0  0  0
   36.3113  -20.3761   36.2988 C   0  0  0  0  0  0  0  0  0  0  0  0
   35.5169  -19.6832   37.3878 C   0  0  0  0  0  0  0  0  0  0  0  0
   35.9853  -18.2969   37.6744 C   0  0  0  0  0  0  0  0  0  0  0  0
   37.2920  -21.1937   36.8934 N   0  0  0  0  0  0  0  0  0  0  0  0
   38.6356  -21.0476   36.5157 C   0  0  0  0  0  0  0  0  0  0  0  0
   39.4359  -22.2662   36.9839 C   0  0  0  0  0  0  0  0  0  0  0  0
   39.0388  -22.5585   38.3475 N   0  0  0  0  0  0  0  0  0  0  0  0
   39.4977  -21.6074   39.3088 C   0  0  0  0  0  0  0  0  0  0  0  0
   37.6706  -22.9472   38.4667 C   0  0  0  0  0  0  0  0  0  0  0  0
   36.9256  -22.5398   37.1972 C   0  0  0  0  0  0  0  0  0  0  0  0
   38.2795  -13.3177   37.5443 C   0  0  0  0  0  0  0  0  0  0  0  0
   36.9333  -12.9157   37.4329 O   0  0  0  0  0  0  0  0  0  0  0  0
 43 44  1  0  0  0
 44 24  1  0  0  0
 24 25  2  0  0  0
 25 26  1  0  0  0
 26 27  2  0  0  0
 27 28  1  0  0  0
 28 29  2  0  0  0
 29  1  1  0  0  0
  1  3  1  0  0  0
  3  4  2  0  0  0
  4  5  1  0  0  0
  5  6  2  0  0  0
  6  7  1  0  0  0
  6  8  1  0  0  0
  8 10  1  0  0  0
 10 12  1  0  0  0
 12 13  2  0  0  0
 13 14  1  0  0  0
 14 15  2  0  0  0
 15 16  1  0  0  0
 16 17  2  0  0  0
 17 18  1  0  0  0
 18 19  2  0  0  0
 18 20  2  0  0  0
 18 21  1  0  0  0
 21 22  1  0  0  0
 21 23  1  0  0  0
  8  9  2  0  0  0
 26 30  1  0  0  0
 30 31  1  0  0  0
 31 32  1  0  0  0
 32 33  1  0  0  0
 33 34  1  0  0  0
 34 35  1  0  0  0
 33 36  1  0  0  0
 36 37  1  0  0  0
 37 38  1  0  0  0
 38 39  1  0  0  0
 39 40  1  0  0  0
 39 41  1  0  0  0
 41 42  1  0  0  0
 29 24  1  0  0  0
  9  3  1  0  0  0
 35 30  1  0  0  0
 42 36  1  0  0  0
 17 12  1  0  0  0
  1  2  1  0  0  0
 10 11  1  0  0  0
M  END
> <minimizedAffinity>
-8.31958

> <CNNscore>
0.3771167397

> <CNNaffinity>
7.4956107140

> <CNN_VS>
2.8267202377

> <CNNaffinity_variance>
0.2686157823

$$$$
[H]c1nc(N([H])c2c([H])c([H])c(N3C([H])([H])C([H])([H])C([H])(N4C([H])([H])C([H])([H])N(C([H])([H])[H])C([H])([H])C4([H])[H])C([H])([H])C3([H])[H])c([H])c2OC([H])([H])[H])nc(N([H])c2c([H])c([H])c([H])c([H])c2S(=O)(=O)C([H])(C([H])([H])[H])C([H])([H])[H])c1Cl


 44 48  0  0  0  0  0  0  0  0999 V2000
   32.7781  -17.9371   34.9291 N   0  0  0  0  0  0  0  0  0  0  0  0
   32.4856  -16.9066   34.7754 H   0  0  0  0  0  0  0  0  0  0  0  0
   31.7267  -18.8518   35.2016 C   0  0  0  0  0  0  0  0  0  0  0  0
   30.4484  -18.7148   34.8404 N   0  0  0  0  0  0  0  0  0  0  0  0
   29.5050  -19.6197   35.1299 C   0  0  0  0  0  0  0  0  0  0  0  0
   29.8372  -20.7550   35.8313 C   0  0  0  0  0  0  0  0  0  0  0  0
   28.6100  -21.9562   36.2209 Cl  0  0  0  0  0  0  0  0  0  0  0  0
   31.1809  -20.9238   36.2247 C   0  0  0  0  0  0  0  0  0  0  0  0
   32.0466  -19.9654   35.8883 N   0  0  0  0  0  0  0  0  0  0  0  0
   31.4936  -22.0915   36.9374 N   0  0  0  0  0  0  0  0  0  0  0  0
   30.7257  -22.4181   37.6117 H   0  0  0  0  0  0  0  0  0  0  0  0
   32.6315  -22.9121   36.9280 C   0  0  0  0  0  0  0  0  0  0  0  0
   33.8828  -22.3587   37.0988 C   0  0  0  0  0  0  0  0  0  0  0  0
   35.0288  -23.1643   37.0901 C   0  0  0  0  0  0  0  0  0  0  0  0
   34.8920  -24.5079   36.9097 C   0  0  0  0  0  0  0  0  0  0  0  0
   33.6415  -25.0576   36.7395 C   0  0  0  0  0  0  0  0  0  0  0  0
   32.5040  -24.2934   36.7439 C   0  0  0  0  0  0  0  0  0  0  0  0
   30.9533  -24.9937   36.5317 S   0  0  0  0  0  0  0  0  0  0  0  0
   29.9902  -24.4243   37.5429 O   0  0  0  0  0  0  0  0  0  0  0  0
   30.9184  -26.4913   36.6558 O   0  0  0  0  0  0  0  0  0  0  0  0
   30.2498  -24.6257   34.9354 C   0  0  0  0  0  0  0  0  0  0  0  0
   31.3124  -24.2198   33.9665 C   0  0  0  0  0  0  0  0  0  0  0  0
   29.3034  -25.6711   34.4473 C   0  0  0  0  0  0  0  0  0  0  0  0
   35.0190  -17.3795   35.5923 C   0  0  0  0  0  0  0  0  0  0  0  0
   36.3895  -17.5597   35.5528 C   0  0  0  0  0  0  0  0  0  0  0  0
   36.9722  -18.5323   34.7712 C   0  0  0  0  0  0  0  0  0  0  0  0
   36.1161  -19.3133   34.0335 C   0  0  0  0  0  0  0  0  0  0  0  0
   34.7264  -19.1578   34.0500 C   0  0  0  0  0  0  0  0  0  0  0  0
   34.1516  -18.1868   34.8308 C   0  0  0  0  0  0  0  0  0  0  0  0
   38.3909  -18.7114   34.7465 N   0  0  0  0  0  0  0  0  0  0  0  0
   39.0602  -18.6374   33.4932 C   0  0  0  0  0  0  0  0  0  0  0  0
   40.5536  -18.4784   33.5524 C   0  0  0  0  0  0  0  0  0  0  0  0
   41.2247  -19.3319   34.5753 C   0  0  0  0  0  0  0  0  0  0  0  0
   40.2608  -19.8988   35.5983 C   0  0  0  0  0  0  0  0  0  0  0  0
   39.1495  -18.9680   35.9473 C   0  0  0  0  0  0  0  0  0  0  0  0
   42.3404  -18.7915   35.2437 N   0  0  0  0  0  0  0  0  0  0  0  0
   43.3154  -18.0970   34.5113 C   0  0  0  0  0  0  0  0  0  0  0  0
   44.5842  -17.9502   35.3560 C   0  0  0  0  0  0  0  0  0  0  0  0
   44.1827  -17.5504   36.6908 N   0  0  0  0  0  0  0  0  0  0  0  0
   43.6983  -16.2100   36.7809 C   0  0  0  0  0  0  0  0  0  0  0  0
   43.4021  -18.5367   37.3653 C   0  0  0  0  0  0  0  0  0  0  0  0
   42.8705  -19.5364   36.3404 C   0  0  0  0  0  0  0  0  0  0  0  0
   34.9015  -15.0482   36.1828 C   0  0  0  0  0  0  0  0  0  0  0  0
   34.4990  -16.3810   36.4012 O   0  0  0  0  0  0  0  0  0  0  0  0
 43 44  1  0  0  0
 44 24  1  0  0  0
 24 25  2  0  0  0
 25 26  1  0  0  0
 26 27  2  0  0  0
 27 28  1  0  0  0
 28 29  2  0  0  0
 29  1  1  0  0  0
  1  3  1  0  0  0
  3  4  2  0  0  0
  4  5  1  0  0  0
  5  6  2  0  0  0
  6  7  1  0  0  0
  6  8  1  0  0  0
  8 10  1  0  0  0
 10 12  1  0  0  0
 12 13  2  0  0  0
 13 14  1  0  0  0
 14 15  2  0  0  0
 15 16  1  0  0  0
 16 17  2  0  0  0
 17 18  1  0  0  0
 18 19  2  0  0  0
 18 20  2  0  0  0
 18 21  1  0  0  0
 21 22  1  0  0  0
 21 23  1  0  0  0
  8  9  2  0  0  0
 26 30  1  0  0  0
 30 31  1  0  0  0
 31 32  1  0  0  0
 32 33  1  0  0  0
 33 34  1  0  0  0
 34 35  1  0  0  0
 33 36  1  0  0  0
 36 37  1  0  0  0
 37 38  1  0  0  0
 38 39  1  0  0  0
 39 40  1  0  0  0
 39 41  1  0  0  0
 41 42  1  0  0  0
 29 24  1  0  0  0
  9  3  1  0  0  0
 35 30  1  0  0  0
 42 36  1  0  0  0
 17 12  1  0  0  0
  1  2  1  0  0  0
 10 11  1  0  0  0
M  END
> <minimizedAffinity>
-6.85045

> <CNNscore>
0.3680161536

> <CNNaffinity>
6.8426589966

> <CNN_VS>
2.5182089806

> <CNNaffinity_variance>
0.3294836581

$$$$
[H]c1nc(N([H])c2c([H])c([H])c(N3C([H])([H])C([H])([H])C([H])(N4C([H])([H])C([H])([H])N(C([H])([H])[H])C([H])([H])C4([H])[H])C([H])([H])C3([H])[H])c([H])c2OC([H])([H])[H])nc(N([H])c2c([H])c([H])c([H])c([H])c2S(=O)(=O)C([H])(C([H])([H])[H])C([H])([H])[H])c1Cl


 44 48  0  0  0  0  0  0  0  0999 V2000
   34.1063  -12.9798   37.7801 N   0  0  0  0  0  0  0  0  0  0  0  0
   34.8192  -12.2330   38.1045 H   0  0  0  0  0  0  0  0  0  0  0  0
   32.7364  -12.6690   37.9885 C   0  0  0  0  0  0  0  0  0  0  0  0
   31.9424  -12.0005   37.1484 N   0  0  0  0  0  0  0  0  0  0  0  0
   30.6545  -11.7423   37.4078 C   0  0  0  0  0  0  0  0  0  0  0  0
   30.0936  -12.1730   38.5872 C   0  0  0  0  0  0  0  0  0  0  0  0
   28.4015  -11.8428   38.9454 Cl  0  0  0  0  0  0  0  0  0  0  0  0
   30.9110  -12.8815   39.4920 C   0  0  0  0  0  0  0  0  0  0  0  0
   32.1821  -13.0886   39.1421 N   0  0  0  0  0  0  0  0  0  0  0  0
   30.3138  -13.3115   40.6869 N   0  0  0  0  0  0  0  0  0  0  0  0
   30.6655  -12.8055   41.5651 H   0  0  0  0  0  0  0  0  0  0  0  0
   29.3370  -14.2856   40.9423 C   0  0  0  0  0  0  0  0  0  0  0  0
   29.2754  -15.4218   40.1635 C   0  0  0  0  0  0  0  0  0  0  0  0
   28.3049  -16.4028   40.4046 C   0  0  0  0  0  0  0  0  0  0  0  0
   27.4179  -16.2203   41.4228 C   0  0  0  0  0  0  0  0  0  0  0  0
   27.4820  -15.0851   42.1986 C   0  0  0  0  0  0  0  0  0  0  0  0
   28.4207  -14.1098   41.9851 C   0  0  0  0  0  0  0  0  0  0  0  0
   28.4879  -12.7018   42.9615 S   0  0  0  0  0  0  0  0  0  0  0  0
   28.6817  -11.4840   42.0934 O   0  0  0  0  0  0  0  0  0  0  0  0
   29.5779  -12.7070   43.9965 O   0  0  0  0  0  0  0  0  0  0  0  0
   26.9731  -12.4189   43.8579 C   0  0  0  0  0  0  0  0  0  0  0  0
   27.1127  -12.8399   45.2847 C   0  0  0  0  0  0  0  0  0  0  0  0
   26.4016  -11.0569   43.6450 C   0  0  0  0  0  0  0  0  0  0  0  0
   36.0567  -14.3105   37.3359 C   0  0  0  0  0  0  0  0  0  0  0  0
   36.6891  -15.4173   36.7998 C   0  0  0  0  0  0  0  0  0  0  0  0
   35.9947  -16.3915   36.1177 C   0  0  0  0  0  0  0  0  0  0  0  0
   34.6392  -16.2024   36.0000 C   0  0  0  0  0  0  0  0  0  0  0  0
   33.9685  -15.0954   36.5295 C   0  0  0  0  0  0  0  0  0  0  0  0
   34.6659  -14.1278   37.2081 C   0  0  0  0  0  0  0  0  0  0  0  0
   36.6618  -17.5344   35.5753 N   0  0  0  0  0  0  0  0  0  0  0  0
   36.2500  -18.0165   34.3016 C   0  0  0  0  0  0  0  0  0  0  0  0
   37.1899  -18.9740   33.6245 C   0  0  0  0  0  0  0  0  0  0  0  0
   37.7770  -20.0052   34.5284 C   0  0  0  0  0  0  0  0  0  0  0  0
   37.6188  -19.6647   35.9968 C   0  0  0  0  0  0  0  0  0  0  0  0
   37.7257  -18.2053   36.2831 C   0  0  0  0  0  0  0  0  0  0  0  0
   39.1073  -20.4005   34.2881 N   0  0  0  0  0  0  0  0  0  0  0  0
   39.8630  -19.7285   33.3152 C   0  0  0  0  0  0  0  0  0  0  0  0
   41.1012  -20.5580   32.9635 C   0  0  0  0  0  0  0  0  0  0  0  0
   41.6796  -21.0364   34.2041 N   0  0  0  0  0  0  0  0  0  0  0  0
   42.3066  -20.0214   34.9889 C   0  0  0  0  0  0  0  0  0  0  0  0
   40.8263  -21.9309   34.9176 C   0  0  0  0  0  0  0  0  0  0  0  0
   39.4029  -21.7943   34.3810 C   0  0  0  0  0  0  0  0  0  0  0  0
   38.2029  -13.3067   37.7643 C   0  0  0  0  0  0  0  0  0  0  0  0
   36.8167  -13.3678   38.0107 O   0  0  0  0  0  0  0  0  0  0  0  0
 43 44  1  0  0  0
 44 24  1  0  0  0
 24 25  2  0  0  0
 25 26  1  0  0  0
 26 27  2  0  0  0
 27 28  1  0  0  0
 28 29  2  0  0  0
 29  1  1  0  0  0
  1  3  1  0  0  0
  3  4  2  0  0  0
  4  5  1  0  0  0
  5  6  2  0  0  0
  6  7  1  0  0  0
  6  8  1  0  0  0
  8 10  1  0  0  0
 10 12  1  0  0  0
 12 13  2  0  0  0
 13 14  1  0  0  0
 14 15  2  0  0  0
 15 16  1  0  0  0
 16 17  2  0  0  0
 17 18  1  0  0  0
 18 19  2  0  0  0
 18 20  2  0  0  0
 18 21  1  0  0  0
 21 22  1  0  0  0
 21 23  1  0  0  0
  8  9  2  0  0  0
 26 30  1  0  0  0
 30 31  1  0  0  0
 31 32  1  0  0  0
 32 33  1  0  0  0
 33 34  1  0  0  0
 34 35  1  0  0  0
 33 36  1  0  0  0
 36 37  1  0  0  0
 37 38  1  0  0  0
 38 39  1  0  0  0
 39 40  1  0  0  0
 39 41  1  0  0  0
 41 42  1  0  0  0
 29 24  1  0  0  0
  9  3  1  0  0  0
 35 30  1  0  0  0
 42 36  1  0  0  0
 17 12  1  0  0  0
  1  2  1  0  0  0
 10 11  1  0  0  0
M  END
> <minimizedAffinity>
-8.20929

> <CNNscore>
0.3500086665

> <CNNaffinity>
6.8984842300

> <CNN_VS>
2.4145293236

> <CNNaffinity_variance>
0.1408117115

$$$$
[H]c1nc(N([H])c2c([H])c([H])c(N3C([H])([H])C([H])([H])C([H])(N4C([H])([H])C([H])([H])N(C([H])([H])[H])C([H])([H])C4([H])[H])C([H])([H])C3([H])[H])c([H])c2OC([H])([H])[H])nc(N([H])c2c([H])c([H])c([H])c([H])c2S(=O)(=O)C([H])(C([H])([H])[H])C([H])([H])[H])c1Cl


 44 48  0  0  0  0  0  0  0  0999 V2000
   33.8259  -15.6090   36.2503 N   0  0  0  0  0  0  0  0  0  0  0  0
   32.8685  -16.0730   36.0519 H   0  0  0  0  0  0  0  0  0  0  0  0
   33.7898  -14.2477   36.6527 C   0  0  0  0  0  0  0  0  0  0  0  0
   34.6135  -13.2809   36.2401 N   0  0  0  0  0  0  0  0  0  0  0  0
   34.5223  -12.0130   36.6603 C   0  0  0  0  0  0  0  0  0  0  0  0
   33.5443  -11.6580   37.5595 C   0  0  0  0  0  0  0  0  0  0  0  0
   33.4090   -9.9953   38.1232 Cl  0  0  0  0  0  0  0  0  0  0  0  0
   32.6613  -12.6606   38.0110 C   0  0  0  0  0  0  0  0  0  0  0  0
   32.8338  -13.8947   37.5333 N   0  0  0  0  0  0  0  0  0  0  0  0
   31.6714  -12.2717   38.9266 N   0  0  0  0  0  0  0  0  0  0  0  0
   32.0148  -12.1817   39.9390 H   0  0  0  0  0  0  0  0  0  0  0  0
   30.3099  -11.9780   38.7578 C   0  0  0  0  0  0  0  0  0  0  0  0
   29.8812  -11.3205   37.6242 C   0  0  0  0  0  0  0  0  0  0  0  0
   28.5256  -11.0183   37.4417 C   0  0  0  0  0  0  0  0  0  0  0  0
   27.6309  -11.3835   38.4023 C   0  0  0  0  0  0  0  0  0  0  0  0
   28.0618  -12.0400   39.5329 C   0  0  0  0  0  0  0  0  0  0  0  0
   29.3814  -12.3481   39.7371 C   0  0  0  0  0  0  0  0  0  0  0  0
   29.9019  -13.1674   41.1506 S   0  0  0  0  0  0  0  0  0  0  0  0
   29.0854  -12.7160   42.3354 O   0  0  0  0  0  0  0  0  0  0  0  0
   31.3529  -12.9725   41.4909 O   0  0  0  0  0  0  0  0  0  0  0  0
   29.6641  -14.9310   41.0448 C   0  0  0  0  0  0  0  0  0  0  0  0
   29.5713  -15.5380   42.4071 C   0  0  0  0  0  0  0  0  0  0  0  0
   28.5879  -15.3299   40.0912 C   0  0  0  0  0  0  0  0  0  0  0  0
   34.8597  -17.4344   35.0792 C   0  0  0  0  0  0  0  0  0  0  0  0
   35.9135  -18.2974   34.8404 C   0  0  0  0  0  0  0  0  0  0  0  0
   37.0862  -18.2285   35.5590 C   0  0  0  0  0  0  0  0  0  0  0  0
   37.1506  -17.2547   36.5258 C   0  0  0  0  0  0  0  0  0  0  0  0
   36.1041  -16.3666   36.7932 C   0  0  0  0  0  0  0  0  0  0  0  0
   34.9378  -16.4401   36.0739 C   0  0  0  0  0  0  0  0  0  0  0  0
   38.1703  -19.1233   35.2953 N   0  0  0  0  0  0  0  0  0  0  0  0
   39.2666  -19.1433   36.2019 C   0  0  0  0  0  0  0  0  0  0  0  0
   40.1939  -20.3206   36.0883 C   0  0  0  0  0  0  0  0  0  0  0  0
   40.5280  -20.7098   34.6876 C   0  0  0  0  0  0  0  0  0  0  0  0
   39.5889  -20.1029   33.6644 C   0  0  0  0  0  0  0  0  0  0  0  0
   38.1809  -19.9916   34.1425 C   0  0  0  0  0  0  0  0  0  0  0  0
   40.6838  -22.0823   34.4127 N   0  0  0  0  0  0  0  0  0  0  0  0
   40.3129  -23.0277   35.3812 C   0  0  0  0  0  0  0  0  0  0  0  0
   40.9195  -24.3888   35.0287 C   0  0  0  0  0  0  0  0  0  0  0  0
   40.7174  -24.6087   33.6097 N   0  0  0  0  0  0  0  0  0  0  0  0
   39.3616  -24.8671   33.2434 C   0  0  0  0  0  0  0  0  0  0  0  0
   41.4120  -23.6708   32.7880 C   0  0  0  0  0  0  0  0  0  0  0  0
   41.8196  -22.4701   33.6393 C   0  0  0  0  0  0  0  0  0  0  0  0
   32.8676  -18.6708   34.5312 C   0  0  0  0  0  0  0  0  0  0  0  0
   33.7076  -17.5594   34.3185 O   0  0  0  0  0  0  0  0  0  0  0  0
 43 44  1  0  0  0
 44 24  1  0  0  0
 24 25  2  0  0  0
 25 26  1  0  0  0
 26 27  2  0  0  0
 27 28  1  0  0  0
 28 29  2  0  0  0
 29  1  1  0  0  0
  1  3  1  0  0  0
  3  4  2  0  0  0
  4  5  1  0  0  0
  5  6  2  0  0  0
  6  7  1  0  0  0
  6  8  1  0  0  0
  8 10  1  0  0  0
 10 12  1  0  0  0
 12 13  2  0  0  0
 13 14  1  0  0  0
 14 15  2  0  0  0
 15 16  1  0  0  0
 16 17  2  0  0  0
 17 18  1  0  0  0
 18 19  2  0  0  0
 18 20  2  0  0  0
 18 21  1  0  0  0
 21 22  1  0  0  0
 21 23  1  0  0  0
  8  9  2  0  0  0
 26 30  1  0  0  0
 30 31  1  0  0  0
 31 32  1  0  0  0
 32 33  1  0  0  0
 33 34  1  0  0  0
 34 35  1  0  0  0
 33 36  1  0  0  0
 36 37  1  0  0  0
 37 38  1  0  0  0
 38 39  1  0  0  0
 39 40  1  0  0  0
 39 41  1  0  0  0
 41 42  1  0  0  0
 29 24  1  0  0  0
  9  3  1  0  0  0
 35 30  1  0  0  0
 42 36  1  0  0  0
 17 12  1  0  0  0
  1  2  1  0  0  0
 10 11  1  0  0  0
M  END
> <minimizedAffinity>
-8.66615

> <CNNscore>
0.3032037616

> <CNNaffinity>
6.9069337845

> <CNN_VS>
2.0942082405

> <CNNaffinity_variance>
0.0996862724

$$$$
[H]c1nc(N([H])c2c([H])c([H])c(N3C([H])([H])C([H])([H])C([H])(N4C([H])([H])C([H])([H])N(C([H])([H])[H])C([H])([H])C4([H])[H])C([H])([H])C3([H])[H])c([H])c2OC([H])([H])[H])nc(N([H])c2c([H])c([H])c([H])c([H])c2S(=O)(=O)C([H])(C([H])([H])[H])C([H])([H])[H])c1Cl


 44 48  0  0  0  0  0  0  0  0999 V2000
   33.9327  -15.7913   36.3119 N   0  0  0  0  0  0  0  0  0  0  0  0
   32.9817  -16.3067   36.2784 H   0  0  0  0  0  0  0  0  0  0  0  0
   33.8874  -14.4176   36.6689 C   0  0  0  0  0  0  0  0  0  0  0  0
   34.7067  -13.4601   36.2272 N   0  0  0  0  0  0  0  0  0  0  0  0
   34.6067  -12.1795   36.6050 C   0  0  0  0  0  0  0  0  0  0  0  0
   33.6236  -11.8009   37.4890 C   0  0  0  0  0  0  0  0  0  0  0  0
   33.4767  -10.1214   37.9970 Cl  0  0  0  0  0  0  0  0  0  0  0  0
   32.7450  -12.7933   37.9706 C   0  0  0  0  0  0  0  0  0  0  0  0
   32.9263  -14.0415   37.5345 N   0  0  0  0  0  0  0  0  0  0  0  0
   31.7498  -12.3804   38.8698 N   0  0  0  0  0  0  0  0  0  0  0  0
   32.0806  -12.2906   39.8864 H   0  0  0  0  0  0  0  0  0  0  0  0
   30.3966  -12.0622   38.6800 C   0  0  0  0  0  0  0  0  0  0  0  0
   30.0211  -11.2361   37.6418 C   0  0  0  0  0  0  0  0  0  0  0  0
   28.6743  -10.9075   37.4401 C   0  0  0  0  0  0  0  0  0  0  0  0
   27.7350  -11.4162   38.2860 C   0  0  0  0  0  0  0  0  0  0  0  0
   28.1129  -12.2408   39.3214 C   0  0  0  0  0  0  0  0  0  0  0  0
   29.4226  -12.5785   39.5418 C   0  0  0  0  0  0  0  0  0  0  0  0
   29.8769  -13.6080   40.8356 S   0  0  0  0  0  0  0  0  0  0  0  0
   31.0920  -13.0501   41.5331 O   0  0  0  0  0  0  0  0  0  0  0  0
   30.1865  -15.0228   40.4333 O   0  0  0  0  0  0  0  0  0  0  0  0
   28.6145  -13.7284   42.0887 C   0  0  0  0  0  0  0  0  0  0  0  0
   28.2702  -15.1566   42.3615 C   0  0  0  0  0  0  0  0  0  0  0  0
   28.8925  -12.8949   43.2949 C   0  0  0  0  0  0  0  0  0  0  0  0
   34.9235  -17.4853   34.9259 C   0  0  0  0  0  0  0  0  0  0  0  0
   35.9761  -18.2986   34.5480 C   0  0  0  0  0  0  0  0  0  0  0  0
   37.1914  -18.2613   35.1945 C   0  0  0  0  0  0  0  0  0  0  0  0
   37.2996  -17.3712   36.2352 C   0  0  0  0  0  0  0  0  0  0  0  0
   36.2556  -16.5350   36.6431 C   0  0  0  0  0  0  0  0  0  0  0  0
   35.0467  -16.5767   35.9951 C   0  0  0  0  0  0  0  0  0  0  0  0
   38.2733  -19.1035   34.7873 N   0  0  0  0  0  0  0  0  0  0  0  0
   39.0594  -18.7026   33.6713 C   0  0  0  0  0  0  0  0  0  0  0  0
   40.3725  -19.4136   33.5012 C   0  0  0  0  0  0  0  0  0  0  0  0
   40.3111  -20.8861   33.7316 C   0  0  0  0  0  0  0  0  0  0  0  0
   39.0505  -21.3206   34.4520 C   0  0  0  0  0  0  0  0  0  0  0  0
   38.5790  -20.3380   35.4696 C   0  0  0  0  0  0  0  0  0  0  0  0
   41.4240  -21.4966   34.3419 N   0  0  0  0  0  0  0  0  0  0  0  0
   42.3222  -20.7134   35.0829 C   0  0  0  0  0  0  0  0  0  0  0  0
   43.6185  -21.4959   35.3109 C   0  0  0  0  0  0  0  0  0  0  0  0
   43.2576  -22.8449   35.7015 N   0  0  0  0  0  0  0  0  0  0  0  0
   42.7018  -22.9471   37.0129 C   0  0  0  0  0  0  0  0  0  0  0  0
   42.5674  -23.5635   34.6795 C   0  0  0  0  0  0  0  0  0  0  0  0
   42.0467  -22.5729   33.6402 C   0  0  0  0  0  0  0  0  0  0  0  0
   32.9557  -18.7478   34.3503 C   0  0  0  0  0  0  0  0  0  0  0  0
   33.7270  -17.5743   34.2314 O   0  0  0  0  0  0  0  0  0  0  0  0
 43 44  1  0  0  0
 44 24  1  0  0  0
 24 25  2  0  0  0
 25 26  1  0  0  0
 26 27  2  0  0  0
 27 28  1  0  0  0
 28 29  2  0  0  0
 29  1  1  0  0  0
  1  3  1  0  0  0
  3  4  2  0  0  0
  4  5  1  0  0  0
  5  6  2  0  0  0
  6  7  1  0  0  0
  6  8  1  0  0  0
  8 10  1  0  0  0
 10 12  1  0  0  0
 12 13  2  0  0  0
 13 14  1  0  0  0
 14 15  2  0  0  0
 15 16  1  0  0  0
 16 17  2  0  0  0
 17 18  1  0  0  0
 18 19  2  0  0  0
 18 20  2  0  0  0
 18 21  1  0  0  0
 21 22  1  0  0  0
 21 23  1  0  0  0
  8  9  2  0  0  0
 26 30  1  0  0  0
 30 31  1  0  0  0
 31 32  1  0  0  0
 32 33  1  0  0  0
 33 34  1  0  0  0
 34 35  1  0  0  0
 33 36  1  0  0  0
 36 37  1  0  0  0
 37 38  1  0  0  0
 38 39  1  0  0  0
 39 40  1  0  0  0
 39 41  1  0  0  0
 41 42  1  0  0  0
 29 24  1  0  0  0
  9  3  1  0  0  0
 35 30  1  0  0  0
 42 36  1  0  0  0
 17 12  1  0  0  0
  1  2  1  0  0  0
 10 11  1  0  0  0
M  END
> <minimizedAffinity>
-8.44793

> <CNNscore>
0.3022707105

> <CNNaffinity>
6.8202042580

> <CNN_VS>
2.0615479946

> <CNNaffinity_variance>
0.1485442668

$$$$
[H]c1nc(N([H])c2c([H])c([H])c(N3C([H])([H])C([H])([H])C([H])(N4C([H])([H])C([H])([H])N(C([H])([H])[H])C([H])([H])C4([H])[H])C([H])([H])C3([H])[H])c([H])c2OC([H])([H])[H])nc(N([H])c2c([H])c([H])c([H])c([H])c2S(=O)(=O)C([H])(C([H])([H])[H])C([H])([H])[H])c1Cl


 44 48  0  0  0  0  0  0  0  0999 V2000
   33.7878  -17.9425   35.4421 N   0  0  0  0  0  0  0  0  0  0  0  0
   33.5724  -16.8961   35.6146 H   0  0  0  0  0  0  0  0  0  0  0  0
   32.6731  -18.8220   35.4609 C   0  0  0  0  0  0  0  0  0  0  0  0
   31.4655  -18.5763   34.9466 N   0  0  0  0  0  0  0  0  0  0  0  0
   30.4557  -19.4539   34.9979 C   0  0  0  0  0  0  0  0  0  0  0  0
   30.6398  -20.6753   35.6025 C   0  0  0  0  0  0  0  0  0  0  0  0
   29.3233  -21.8422   35.6794 Cl  0  0  0  0  0  0  0  0  0  0  0  0
   31.9063  -20.9596   36.1538 C   0  0  0  0  0  0  0  0  0  0  0  0
   32.8480  -20.0196   36.0518 N   0  0  0  0  0  0  0  0  0  0  0  0
   32.0683  -22.2134   36.7631 N   0  0  0  0  0  0  0  0  0  0  0  0
   32.4849  -22.9667   36.1229 H   0  0  0  0  0  0  0  0  0  0  0  0
   31.7839  -22.6618   38.0617 C   0  0  0  0  0  0  0  0  0  0  0  0
   30.5311  -23.1524   38.3634 C   0  0  0  0  0  0  0  0  0  0  0  0
   30.2309  -23.6023   39.6556 C   0  0  0  0  0  0  0  0  0  0  0  0
   31.1961  -23.5491   40.6159 C   0  0  0  0  0  0  0  0  0  0  0  0
   32.4460  -23.0590   40.3117 C   0  0  0  0  0  0  0  0  0  0  0  0
   32.7668  -22.6125   39.0564 C   0  0  0  0  0  0  0  0  0  0  0  0
   34.3289  -22.0059   38.6933 S   0  0  0  0  0  0  0  0  0  0  0  0
   34.3048  -20.4981   38.6850 O   0  0  0  0  0  0  0  0  0  0  0  0
   34.8900  -22.4642   37.3763 O   0  0  0  0  0  0  0  0  0  0  0  0
   35.5410  -22.4620   39.9186 C   0  0  0  0  0  0  0  0  0  0  0  0
   36.0775  -23.8309   39.6524 C   0  0  0  0  0  0  0  0  0  0  0  0
   36.5685  -21.4071   40.1601 C   0  0  0  0  0  0  0  0  0  0  0  0
   36.0724  -17.7536   36.1613 C   0  0  0  0  0  0  0  0  0  0  0  0
   37.4251  -18.0065   36.0248 C   0  0  0  0  0  0  0  0  0  0  0  0
   37.9236  -18.7476   34.9766 C   0  0  0  0  0  0  0  0  0  0  0  0
   37.0022  -19.2214   34.0746 C   0  0  0  0  0  0  0  0  0  0  0  0
   35.6283  -18.9841   34.1826 C   0  0  0  0  0  0  0  0  0  0  0  0
   35.1375  -18.2449   35.2293 C   0  0  0  0  0  0  0  0  0  0  0  0
   39.3246  -19.0070   34.8530 N   0  0  0  0  0  0  0  0  0  0  0  0
   39.9727  -18.6558   33.6361 C   0  0  0  0  0  0  0  0  0  0  0  0
   41.4745  -18.6160   33.6774 C   0  0  0  0  0  0  0  0  0  0  0  0
   42.1014  -19.7469   34.4211 C   0  0  0  0  0  0  0  0  0  0  0  0
   41.1189  -20.4943   35.3003 C   0  0  0  0  0  0  0  0  0  0  0  0
   40.0859  -19.6144   35.9182 C   0  0  0  0  0  0  0  0  0  0  0  0
   43.2667  -19.4721   35.1629 N   0  0  0  0  0  0  0  0  0  0  0  0
   43.7832  -20.4503   36.0264 C   0  0  0  0  0  0  0  0  0  0  0  0
   44.7870  -19.8079   36.9879 C   0  0  0  0  0  0  0  0  0  0  0  0
   45.6387  -18.9261   36.2135 N   0  0  0  0  0  0  0  0  0  0  0  0
   46.5556  -19.6029   35.3530 C   0  0  0  0  0  0  0  0  0  0  0  0
   44.9349  -17.8309   35.6284 C   0  0  0  0  0  0  0  0  0  0  0  0
   43.4389  -18.1377   35.6408 C   0  0  0  0  0  0  0  0  0  0  0  0
   36.3267  -15.8132   37.5640 C   0  0  0  0  0  0  0  0  0  0  0  0
   35.6388  -17.0001   37.2410 O   0  0  0  0  0  0  0  0  0  0  0  0
 43 44  1  0  0  0
 44 24  1  0  0  0
 24 25  2  0  0  0
 25 26  1  0  0  0
 26 27  2  0  0  0
 27 28  1  0  0  0
 28 29  2  0  0  0
 29  1  1  0  0  0
  1  3  1  0  0  0
  3  4  2  0  0  0
  4  5  1  0  0  0
  5  6  2  0  0  0
  6  7  1  0  0  0
  6  8  1  0  0  0
  8 10  1  0  0  0
 10 12  1  0  0  0
 12 13  2  0  0  0
 13 14  1  0  0  0
 14 15  2  0  0  0
 15 16  1  0  0  0
 16 17  2  0  0  0
 17 18  1  0  0  0
 18 19  2  0  0  0
 18 20  2  0  0  0
 18 21  1  0  0  0
 21 22  1  0  0  0
 21 23  1  0  0  0
  8  9  2  0  0  0
 26 30  1  0  0  0
 30 31  1  0  0  0
 31 32  1  0  0  0
 32 33  1  0  0  0
 33 34  1  0  0  0
 34 35  1  0  0  0
 33 36  1  0  0  0
 36 37  1  0  0  0
 37 38  1  0  0  0
 38 39  1  0  0  0
 39 40  1  0  0  0
 39 41  1  0  0  0
 41 42  1  0  0  0
 29 24  1  0  0  0
  9  3  1  0  0  0
 35 30  1  0  0  0
 42 36  1  0  0  0
 17 12  1  0  0  0
  1  2  1  0  0  0
 10 11  1  0  0  0
M  END
> <minimizedAffinity>
-6.41624

> <CNNscore>
0.2986498773

> <CNNaffinity>
6.3859930038

> <CNN_VS>
1.9071760178

> <CNNaffinity_variance>
0.6931516528

$$$$
[H]c1c([H])c([H])c(-c2nn(-c3c([H])c([H])c([H])c([H])c3[H])c(-c3c([H])c([H])c([H])c([H])c3[H])c2OC([H])([H])OC([H])([H])[H])c([H])c1[H]


 27 30  0  0  0  0  0  0  0  0999 V2000
   35.6466  -16.8372   35.7618 C   0  0  0  0  0  0  0  0  0  0  0  0
   35.7402  -15.5419   36.2354 C   0  0  0  0  0  0  0  0  0  0  0  0
   34.4484  -15.0120   36.4049 C   0  0  0  0  0  0  0  0  0  0  0  0
   33.6380  -15.9877   36.0324 N   0  0  0  0  0  0  0  0  0  0  0  0
   34.3311  -17.0864   35.6448 N   0  0  0  0  0  0  0  0  0  0  0  0
   36.7912  -17.7371   35.5614 C   0  0  0  0  0  0  0  0  0  0  0  0
   37.5235  -18.3003   36.5807 C   0  0  0  0  0  0  0  0  0  0  0  0
   38.6673  -19.0804   36.3226 C   0  0  0  0  0  0  0  0  0  0  0  0
   39.0926  -19.3088   35.0481 C   0  0  0  0  0  0  0  0  0  0  0  0
   38.3863  -18.7640   34.0100 C   0  0  0  0  0  0  0  0  0  0  0  0
   37.2721  -18.0039   34.2840 C   0  0  0  0  0  0  0  0  0  0  0  0
   34.1088  -13.6605   36.8930 C   0  0  0  0  0  0  0  0  0  0  0  0
   34.7373  -12.5330   36.4381 C   0  0  0  0  0  0  0  0  0  0  0  0
   34.3736  -11.2991   36.9343 C   0  0  0  0  0  0  0  0  0  0  0  0
   33.3828  -11.1609   37.8878 C   0  0  0  0  0  0  0  0  0  0  0  0
   32.7374  -12.2976   38.3576 C   0  0  0  0  0  0  0  0  0  0  0  0
   33.1213  -13.5092   37.8450 C   0  0  0  0  0  0  0  0  0  0  0  0
   33.6488  -18.2723   35.2327 C   0  0  0  0  0  0  0  0  0  0  0  0
   32.8651  -18.3290   34.0845 C   0  0  0  0  0  0  0  0  0  0  0  0
   32.2621  -19.5136   33.7181 C   0  0  0  0  0  0  0  0  0  0  0  0
   32.4038  -20.6750   34.4566 C   0  0  0  0  0  0  0  0  0  0  0  0
   33.1754  -20.6199   35.5875 C   0  0  0  0  0  0  0  0  0  0  0  0
   33.7981  -19.4370   35.9840 C   0  0  0  0  0  0  0  0  0  0  0  0
   36.8533  -14.7504   36.5359 O   0  0  0  0  0  0  0  0  0  0  0  0
   37.4770  -14.6928   37.7828 C   0  0  0  0  0  0  0  0  0  0  0  0
   37.9220  -13.4313   38.1199 O   0  0  0  0  0  0  0  0  0  0  0  0
   38.4758  -12.7996   37.0086 C   0  0  0  0  0  0  0  0  0  0  0  0
  6  1  1  0  0  0
  1  2  2  0  0  0
  2 24  1  0  0  0
 24 25  1  0  0  0
 25 26  1  0  0  0
 26 27  1  0  0  0
  2  3  1  0  0  0
  3 12  1  0  0  0
 12 13  2  0  0  0
 13 14  1  0  0  0
 14 15  2  0  0  0
 15 16  1  0  0  0
 16 17  2  0  0  0
  3  4  2  0  0  0
  4  5  1  0  0  0
  5 18  1  0  0  0
 18 19  2  0  0  0
 19 20  1  0  0  0
 20 21  2  0  0  0
 21 22  1  0  0  0
 22 23  2  0  0  0
  6  7  2  0  0  0
  7  8  1  0  0  0
  8  9  2  0  0  0
  9 10  1  0  0  0
 10 11  2  0  0  0
 11  6  1  0  0  0
  5  1  1  0  0  0
 23 18  1  0  0  0
 17 12  1  0  0  0
M  END
> <minimizedAffinity>
-7.82115

> <CNNscore>
0.5525757074

> <CNNaffinity>
5.3416619301

> <CNN_VS>
2.9516725540

> <CNNaffinity_variance>
0.6066226959

$$$$
[H]c1c([H])c([H])c(-c2nn(-c3c([H])c([H])c([H])c([H])c3[H])c(-c3c([H])c([H])c([H])c([H])c3[H])c2OC([H])([H])OC([H])([H])[H])c([H])c1[H]


 27 30  0  0  0  0  0  0  0  0999 V2000
   34.7503  -19.7257   36.7503 C   0  0  0  0  0  0  0  0  0  0  0  0
   35.1636  -20.7843   37.5375 C   0  0  0  0  0  0  0  0  0  0  0  0
   36.1608  -20.3441   38.4264 C   0  0  0  0  0  0  0  0  0  0  0  0
   36.3114  -19.0608   38.1469 N   0  0  0  0  0  0  0  0  0  0  0  0
   35.4799  -18.6701   37.1501 N   0  0  0  0  0  0  0  0  0  0  0  0
   33.6512  -19.7892   35.7767 C   0  0  0  0  0  0  0  0  0  0  0  0
   33.8209  -19.7625   34.4118 C   0  0  0  0  0  0  0  0  0  0  0  0
   32.7209  -19.7327   33.5329 C   0  0  0  0  0  0  0  0  0  0  0  0
   31.4418  -19.7305   34.0033 C   0  0  0  0  0  0  0  0  0  0  0  0
   31.2372  -19.7576   35.3563 C   0  0  0  0  0  0  0  0  0  0  0  0
   32.3258  -19.7855   36.1979 C   0  0  0  0  0  0  0  0  0  0  0  0
   36.8631  -21.1615   39.4356 C   0  0  0  0  0  0  0  0  0  0  0  0
   36.2872  -21.5203   40.6243 C   0  0  0  0  0  0  0  0  0  0  0  0
   36.9966  -22.2857   41.5253 C   0  0  0  0  0  0  0  0  0  0  0  0
   38.2864  -22.7082   41.2650 C   0  0  0  0  0  0  0  0  0  0  0  0
   38.8821  -22.3506   40.0622 C   0  0  0  0  0  0  0  0  0  0  0  0
   38.1514  -21.5896   39.1877 C   0  0  0  0  0  0  0  0  0  0  0  0
   35.4551  -17.3108   36.7106 C   0  0  0  0  0  0  0  0  0  0  0  0
   34.3192  -16.7147   36.1717 C   0  0  0  0  0  0  0  0  0  0  0  0
   34.3465  -15.3871   35.8005 C   0  0  0  0  0  0  0  0  0  0  0  0
   35.4771  -14.6024   35.9425 C   0  0  0  0  0  0  0  0  0  0  0  0
   36.5961  -15.1887   36.4730 C   0  0  0  0  0  0  0  0  0  0  0  0
   36.5999  -16.5289   36.8579 C   0  0  0  0  0  0  0  0  0  0  0  0
   34.7631  -22.1240   37.5617 O   0  0  0  0  0  0  0  0  0  0  0  0
   35.4088  -23.1611   36.8875 C   0  0  0  0  0  0  0  0  0  0  0  0
   35.6762  -24.2553   37.6839 O   0  0  0  0  0  0  0  0  0  0  0  0
   37.0003  -24.6584   37.5252 C   0  0  0  0  0  0  0  0  0  0  0  0
  6  1  1  0  0  0
  1  2  2  0  0  0
  2 24  1  0  0  0
 24 25  1  0  0  0
 25 26  1  0  0  0
 26 27  1  0  0  0
  2  3  1  0  0  0
  3 12  1  0  0  0
 12 13  2  0  0  0
 13 14  1  0  0  0
 14 15  2  0  0  0
 15 16  1  0  0  0
 16 17  2  0  0  0
  3  4  2  0  0  0
  4  5  1  0  0  0
  5 18  1  0  0  0
 18 19  2  0  0  0
 19 20  1  0  0  0
 20 21  2  0  0  0
 21 22  1  0  0  0
 22 23  2  0  0  0
  6  7  2  0  0  0
  7  8  1  0  0  0
  8  9  2  0  0  0
  9 10  1  0  0  0
 10 11  2  0  0  0
 11  6  1  0  0  0
  5  1  1  0  0  0
 23 18  1  0  0  0
 17 12  1  0  0  0
M  END
> <minimizedAffinity>
-4.65965

> <CNNscore>
0.4610880911

> <CNNaffinity>
4.4950251579

> <CNN_VS>
2.0726025105

> <CNNaffinity_variance>
0.3935137391

$$$$
[H]c1c([H])c([H])c(-c2nn(-c3c([H])c([H])c([H])c([H])c3[H])c(-c3c([H])c([H])c([H])c([H])c3[H])c2OC([H])([H])OC([H])([H])[H])c([H])c1[H]


 27 30  0  0  0  0  0  0  0  0999 V2000
   33.8530  -21.4307   36.6080 C   0  0  0  0  0  0  0  0  0  0  0  0
   35.1071  -20.9002   36.8462 C   0  0  0  0  0  0  0  0  0  0  0  0
   35.8971  -21.8512   37.5168 C   0  0  0  0  0  0  0  0  0  0  0  0
   35.1050  -22.9002   37.6580 N   0  0  0  0  0  0  0  0  0  0  0  0
   33.8805  -22.6719   37.1230 N   0  0  0  0  0  0  0  0  0  0  0  0
   32.7951  -20.7593   35.8399 C   0  0  0  0  0  0  0  0  0  0  0  0
   31.4770  -20.6929   36.2281 C   0  0  0  0  0  0  0  0  0  0  0  0
   30.4936  -20.1151   35.4020 C   0  0  0  0  0  0  0  0  0  0  0  0
   30.8122  -19.5967   34.1826 C   0  0  0  0  0  0  0  0  0  0  0  0
   32.1149  -19.6454   33.7657 C   0  0  0  0  0  0  0  0  0  0  0  0
   33.0603  -20.2153   34.5877 C   0  0  0  0  0  0  0  0  0  0  0  0
   37.2977  -21.6821   37.9523 C   0  0  0  0  0  0  0  0  0  0  0  0
   37.6345  -21.3306   39.2315 C   0  0  0  0  0  0  0  0  0  0  0  0
   38.9622  -21.1886   39.5754 C   0  0  0  0  0  0  0  0  0  0  0  0
   39.9772  -21.3921   38.6598 C   0  0  0  0  0  0  0  0  0  0  0  0
   39.6484  -21.7492   37.3584 C   0  0  0  0  0  0  0  0  0  0  0  0
   38.3204  -21.8824   37.0477 C   0  0  0  0  0  0  0  0  0  0  0  0
   32.8764  -23.6883   37.1373 C   0  0  0  0  0  0  0  0  0  0  0  0
   32.5939  -24.4826   36.0304 C   0  0  0  0  0  0  0  0  0  0  0  0
   31.6391  -25.4734   36.1175 C   0  0  0  0  0  0  0  0  0  0  0  0
   30.9329  -25.7198   37.2815 C   0  0  0  0  0  0  0  0  0  0  0  0
   31.2106  -24.9380   38.3719 C   0  0  0  0  0  0  0  0  0  0  0  0
   32.1705  -23.9283   38.3152 C   0  0  0  0  0  0  0  0  0  0  0  0
   35.6485  -19.6469   36.5429 O   0  0  0  0  0  0  0  0  0  0  0  0
   35.6425  -18.5472   37.4018 C   0  0  0  0  0  0  0  0  0  0  0  0
   36.7050  -17.6890   37.2074 O   0  0  0  0  0  0  0  0  0  0  0  0
   37.6685  -18.2859   36.3974 C   0  0  0  0  0  0  0  0  0  0  0  0
  6  1  1  0  0  0
  1  2  2  0  0  0
  2 24  1  0  0  0
 24 25  1  0  0  0
 25 26  1  0  0  0
 26 27  1  0  0  0
  2  3  1  0  0  0
  3 12  1  0  0  0
 12 13  2  0  0  0
 13 14  1  0  0  0
 14 15  2  0  0  0
 15 16  1  0  0  0
 16 17  2  0  0  0
  3  4  2  0  0  0
  4  5  1  0  0  0
  5 18  1  0  0  0
 18 19  2  0  0  0
 19 20  1  0  0  0
 20 21  2  0  0  0
 21 22  1  0  0  0
 22 23  2  0  0  0
  6  7  2  0  0  0
  7  8  1  0  0  0
  8  9  2  0  0  0
  9 10  1  0  0  0
 10 11  2  0  0  0
 11  6  1  0  0  0
  5  1  1  0  0  0
 23 18  1  0  0  0
 17 12  1  0  0  0
M  END
> <minimizedAffinity>
-3.86687

> <CNNscore>
0.3881818056

> <CNNaffinity>
4.5356898308

> <CNN_VS>
1.7606722116

> <CNNaffinity_variance>
0.2046351433

$$$$
[H]c1c([H])c([H])c(-c2nn(-c3c([H])c([H])c([H])c([H])c3[H])c(-c3c([H])c([H])c([H])c([H])c3[H])c2OC([H])([H])OC([H])([H])[H])c([H])c1[H]


 27 30  0  0  0  0  0  0  0  0999 V2000
   35.2445  -19.1066   36.2088 C   0  0  0  0  0  0  0  0  0  0  0  0
   36.0410  -20.1289   36.6899 C   0  0  0  0  0  0  0  0  0  0  0  0
   37.1636  -19.5816   37.3368 C   0  0  0  0  0  0  0  0  0  0  0  0
   37.0075  -18.2738   37.2227 N   0  0  0  0  0  0  0  0  0  0  0  0
   35.8691  -17.9674   36.5534 N   0  0  0  0  0  0  0  0  0  0  0  0
   33.9376  -19.2996   35.5647 C   0  0  0  0  0  0  0  0  0  0  0  0
   32.7719  -19.5749   36.2414 C   0  0  0  0  0  0  0  0  0  0  0  0
   31.5691  -19.8414   35.5591 C   0  0  0  0  0  0  0  0  0  0  0  0
   31.5141  -19.8351   34.1973 C   0  0  0  0  0  0  0  0  0  0  0  0
   32.6558  -19.5639   33.4929 C   0  0  0  0  0  0  0  0  0  0  0  0
   33.8210  -19.3072   34.1789 C   0  0  0  0  0  0  0  0  0  0  0  0
   38.2560  -20.3312   37.9885 C   0  0  0  0  0  0  0  0  0  0  0  0
   38.0696  -21.0618   39.1308 C   0  0  0  0  0  0  0  0  0  0  0  0
   39.1314  -21.7402   39.6905 C   0  0  0  0  0  0  0  0  0  0  0  0
   40.3939  -21.7067   39.1295 C   0  0  0  0  0  0  0  0  0  0  0  0
   40.5961  -20.9689   37.9702 C   0  0  0  0  0  0  0  0  0  0  0  0
   39.5212  -20.3059   37.4381 C   0  0  0  0  0  0  0  0  0  0  0  0
   35.4885  -16.6061   36.3451 C   0  0  0  0  0  0  0  0  0  0  0  0
   34.1814  -16.2258   36.0575 C   0  0  0  0  0  0  0  0  0  0  0  0
   33.8685  -14.8917   35.9044 C   0  0  0  0  0  0  0  0  0  0  0  0
   34.8161  -13.8910   36.0264 C   0  0  0  0  0  0  0  0  0  0  0  0
   36.1035  -14.2648   36.3095 C   0  0  0  0  0  0  0  0  0  0  0  0
   36.4511  -15.6055   36.4701 C   0  0  0  0  0  0  0  0  0  0  0  0
   35.8973  -21.5182   36.6188 O   0  0  0  0  0  0  0  0  0  0  0  0
   35.0410  -22.2729   37.4214 C   0  0  0  0  0  0  0  0  0  0  0  0
   34.6555  -21.6268   38.5777 O   0  0  0  0  0  0  0  0  0  0  0  0
   33.3917  -22.0576   38.9754 C   0  0  0  0  0  0  0  0  0  0  0  0
  6  1  1  0  0  0
  1  2  2  0  0  0
  2 24  1  0  0  0
 24 25  1  0  0  0
 25 26  1  0  0  0
 26 27  1  0  0  0
  2  3  1  0  0  0
  3 12  1  0  0  0
 12 13  2  0  0  0
 13 14  1  0  0  0
 14 15  2  0  0  0
 15 16  1  0  0  0
 16 17  2  0  0  0
  3  4  2  0  0  0
  4  5  1  0  0  0
  5 18  1  0  0  0
 18 19  2  0  0  0
 19 20  1  0  0  0
 20 21  2  0  0  0
 21 22  1  0  0  0
 22 23  2  0  0  0
  6  7  2  0  0  0
  7  8  1  0  0  0
  8  9  2  0  0  0
  9 10  1  0  0  0
 10 11  2  0  0  0
 11  6  1  0  0  0
  5  1  1  0  0  0
 23 18  1  0  0  0
 17 12  1  0  0  0
M  END
> <minimizedAffinity>
-5.44118

> <CNNscore>
0.3669275939

> <CNNaffinity>
4.3899812698

> <CNN_VS>
1.6108052731

> <CNNaffinity_variance>
0.8421384692

$$$$
[H]c1c([H])c([H])c(-c2nn(-c3c([H])c([H])c([H])c([H])c3[H])c(-c3c([H])c([H])c([H])c([H])c3[H])c2OC([H])([H])OC([H])([H])[H])c([H])c1[H]


 27 30  0  0  0  0  0  0  0  0999 V2000
   37.5721  -21.1179   37.7020 C   0  0  0  0  0  0  0  0  0  0  0  0
   37.1607  -20.0230   36.9652 C   0  0  0  0  0  0  0  0  0  0  0  0
   35.7874  -20.1383   36.6841 C   0  0  0  0  0  0  0  0  0  0  0  0
   35.4277  -21.2781   37.2489 N   0  0  0  0  0  0  0  0  0  0  0  0
   36.4765  -21.8797   37.8622 N   0  0  0  0  0  0  0  0  0  0  0  0
   38.9208  -21.2887   38.2606 C   0  0  0  0  0  0  0  0  0  0  0  0
   39.2472  -21.0754   39.5798 C   0  0  0  0  0  0  0  0  0  0  0  0
   40.5772  -21.1662   40.0339 C   0  0  0  0  0  0  0  0  0  0  0  0
   41.5949  -21.4713   39.1803 C   0  0  0  0  0  0  0  0  0  0  0  0
   41.3049  -21.6907   37.8609 C   0  0  0  0  0  0  0  0  0  0  0  0
   39.9988  -21.5961   37.4374 C   0  0  0  0  0  0  0  0  0  0  0  0
   34.9615  -19.1797   35.9232 C   0  0  0  0  0  0  0  0  0  0  0  0
   34.1724  -19.5592   34.8713 C   0  0  0  0  0  0  0  0  0  0  0  0
   33.4240  -18.6148   34.2012 C   0  0  0  0  0  0  0  0  0  0  0  0
   33.4443  -17.2806   34.5609 C   0  0  0  0  0  0  0  0  0  0  0  0
   34.2410  -16.8827   35.6268 C   0  0  0  0  0  0  0  0  0  0  0  0
   34.9729  -17.8447   36.2725 C   0  0  0  0  0  0  0  0  0  0  0  0
   36.3026  -23.1111   38.5655 C   0  0  0  0  0  0  0  0  0  0  0  0
   36.0163  -23.1668   39.9260 C   0  0  0  0  0  0  0  0  0  0  0  0
   35.8217  -24.3853   40.5411 C   0  0  0  0  0  0  0  0  0  0  0  0
   35.8998  -25.5826   39.8521 C   0  0  0  0  0  0  0  0  0  0  0  0
   36.1817  -25.5285   38.5124 C   0  0  0  0  0  0  0  0  0  0  0  0
   36.3835  -24.3119   37.8619 C   0  0  0  0  0  0  0  0  0  0  0  0
   37.8685  -18.9127   36.4940 O   0  0  0  0  0  0  0  0  0  0  0  0
   38.6612  -18.9016   35.3457 C   0  0  0  0  0  0  0  0  0  0  0  0
   38.2242  -19.7673   34.3645 O   0  0  0  0  0  0  0  0  0  0  0  0
   39.0157  -19.6472   33.2244 C   0  0  0  0  0  0  0  0  0  0  0  0
  6  1  1  0  0  0
  1  2  2  0  0  0
  2 24  1  0  0  0
 24 25  1  0  0  0
 25 26  1  0  0  0
 26 27  1  0  0  0
  2  3  1  0  0  0
  3 12  1  0  0  0
 12 13  2  0  0  0
 13 14  1  0  0  0
 14 15  2  0  0  0
 15 16  1  0  0  0
 16 17  2  0  0  0
  3  4  2  0  0  0
  4  5  1  0  0  0
  5 18  1  0  0  0
 18 19  2  0  0  0
 19 20  1  0  0  0
 20 21  2  0  0  0
 21 22  1  0  0  0
 22 23  2  0  0  0
  6  7  2  0  0  0
  7  8  1  0  0  0
  8  9  2  0  0  0
  9 10  1  0  0  0
 10 11  2  0  0  0
 11  6  1  0  0  0
  5  1  1  0  0  0
 23 18  1  0  0  0
 17 12  1  0  0  0
M  END
> <minimizedAffinity>
-3.74601

> <CNNscore>
0.3366626501

> <CNNaffinity>
4.5227065086

> <CNN_VS>
1.5226264000

> <CNNaffinity_variance>
0.1467099786

$$$$
[H]c1c([H])c([H])c(-c2nn(-c3c([H])c([H])c([H])c([H])c3[H])c(-c3c([H])c([H])c([H])c([H])c3[H])c2OC([H])([H])OC([H])([H])[H])c([H])c1[H]


 27 30  0  0  0  0  0  0  0  0999 V2000
   35.7181  -20.6221   37.3392 C   0  0  0  0  0  0  0  0  0  0  0  0
   34.7901  -21.6415   37.2358 C   0  0  0  0  0  0  0  0  0  0  0  0
   33.6347  -21.1582   36.5957 C   0  0  0  0  0  0  0  0  0  0  0  0
   33.9019  -19.8884   36.3431 N   0  0  0  0  0  0  0  0  0  0  0  0
   35.1396  -19.5466   36.7778 N   0  0  0  0  0  0  0  0  0  0  0  0
   37.0817  -20.7850   37.8628 C   0  0  0  0  0  0  0  0  0  0  0  0
   37.3781  -21.1730   39.1489 C   0  0  0  0  0  0  0  0  0  0  0  0
   38.7056  -21.2207   39.6169 C   0  0  0  0  0  0  0  0  0  0  0  0
   39.7508  -20.8843   38.8096 C   0  0  0  0  0  0  0  0  0  0  0  0
   39.4913  -20.4946   37.5235 C   0  0  0  0  0  0  0  0  0  0  0  0
   38.1869  -20.4538   37.0863 C   0  0  0  0  0  0  0  0  0  0  0  0
   32.4117  -21.9267   36.2896 C   0  0  0  0  0  0  0  0  0  0  0  0
   32.2364  -22.5928   35.1069 C   0  0  0  0  0  0  0  0  0  0  0  0
   31.0702  -23.2931   34.8819 C   0  0  0  0  0  0  0  0  0  0  0  0
   30.0594  -23.3457   35.8229 C   0  0  0  0  0  0  0  0  0  0  0  0
   30.2252  -22.6739   37.0273 C   0  0  0  0  0  0  0  0  0  0  0  0
   31.3952  -21.9870   37.2209 C   0  0  0  0  0  0  0  0  0  0  0  0
   35.6452  -18.2256   36.5766 C   0  0  0  0  0  0  0  0  0  0  0  0
   35.7595  -17.6475   35.3162 C   0  0  0  0  0  0  0  0  0  0  0  0
   36.2193  -16.3538   35.1892 C   0  0  0  0  0  0  0  0  0  0  0  0
   36.5804  -15.5866   36.2825 C   0  0  0  0  0  0  0  0  0  0  0  0
   36.4681  -16.1552   37.5239 C   0  0  0  0  0  0  0  0  0  0  0  0
   36.0065  -17.4610   37.6849 C   0  0  0  0  0  0  0  0  0  0  0  0
   34.8381  -22.9750   37.6542 O   0  0  0  0  0  0  0  0  0  0  0  0
   35.4219  -24.0164   36.9318 C   0  0  0  0  0  0  0  0  0  0  0  0
   36.5215  -24.5710   37.5533 O   0  0  0  0  0  0  0  0  0  0  0  0
   37.6873  -24.2299   36.8711 C   0  0  0  0  0  0  0  0  0  0  0  0
  6  1  1  0  0  0
  1  2  2  0  0  0
  2 24  1  0  0  0
 24 25  1  0  0  0
 25 26  1  0  0  0
 26 27  1  0  0  0
  2  3  1  0  0  0
  3 12  1  0  0  0
 12 13  2  0  0  0
 13 14  1  0  0  0
 14 15  2  0  0  0
 15 16  1  0  0  0
 16 17  2  0  0  0
  3  4  2  0  0  0
  4  5  1  0  0  0
  5 18  1  0  0  0
 18 19  2  0  0  0
 19 20  1  0  0  0
 20 21  2  0  0  0
 21 22  1  0  0  0
 22 23  2  0  0  0
  6  7  2  0  0  0
  7  8  1  0  0  0
  8  9  2  0  0  0
  9 10  1  0  0  0
 10 11  2  0  0  0
 11  6  1  0  0  0
  5  1  1  0  0  0
 23 18  1  0  0  0
 17 12  1  0  0  0
M  END
> <minimizedAffinity>
-4.55649

> <CNNscore>
0.3125732541

> <CNNaffinity>
4.3911309242

> <CNN_VS>
1.3725501299

> <CNNaffinity_variance>
0.1936432719

$$$$
[H]c1c([H])c([H])c(-c2nn(-c3c([H])c([H])c([H])c([H])c3[H])c(-c3c([H])c([H])c([H])c([H])c3[H])c2OC([H])([H])OC([H])([H])[H])c([H])c1[H]


 27 30  0  0  0  0  0  0  0  0999 V2000
   36.6237  -20.4474   37.2996 C   0  0  0  0  0  0  0  0  0  0  0  0
   37.9518  -20.7537   37.5306 C   0  0  0  0  0  0  0  0  0  0  0  0
   38.7675  -19.9123   36.7528 C   0  0  0  0  0  0  0  0  0  0  0  0
   37.9177  -19.1451   36.0918 N   0  0  0  0  0  0  0  0  0  0  0  0
   36.6331  -19.4466   36.4026 N   0  0  0  0  0  0  0  0  0  0  0  0
   35.4912  -21.0546   38.0128 C   0  0  0  0  0  0  0  0  0  0  0  0
   35.0081  -20.6117   39.2223 C   0  0  0  0  0  0  0  0  0  0  0  0
   33.9790  -21.2942   39.8995 C   0  0  0  0  0  0  0  0  0  0  0  0
   33.4198  -22.4229   39.3793 C   0  0  0  0  0  0  0  0  0  0  0  0
   33.8763  -22.8906   38.1767 C   0  0  0  0  0  0  0  0  0  0  0  0
   34.8834  -22.2093   37.5318 C   0  0  0  0  0  0  0  0  0  0  0  0
   40.2433  -19.9130   36.7084 C   0  0  0  0  0  0  0  0  0  0  0  0
   41.0041  -19.0705   37.4729 C   0  0  0  0  0  0  0  0  0  0  0  0
   42.3792  -19.1208   37.3854 C   0  0  0  0  0  0  0  0  0  0  0  0
   43.0232  -20.0048   36.5407 C   0  0  0  0  0  0  0  0  0  0  0  0
   42.2623  -20.8651   35.7595 C   0  0  0  0  0  0  0  0  0  0  0  0
   40.8983  -20.7910   35.8691 C   0  0  0  0  0  0  0  0  0  0  0  0
   35.5509  -18.7146   35.8242 C   0  0  0  0  0  0  0  0  0  0  0  0
   35.2325  -17.4149   36.2057 C   0  0  0  0  0  0  0  0  0  0  0  0
   34.1997  -16.7463   35.5834 C   0  0  0  0  0  0  0  0  0  0  0  0
   33.4481  -17.3214   34.5741 C   0  0  0  0  0  0  0  0  0  0  0  0
   33.7610  -18.6012   34.1980 C   0  0  0  0  0  0  0  0  0  0  0  0
   34.7997  -19.3034   34.8081 C   0  0  0  0  0  0  0  0  0  0  0  0
   38.5442  -21.7129   38.3581 O   0  0  0  0  0  0  0  0  0  0  0  0
   38.6630  -23.0683   38.0489 C   0  0  0  0  0  0  0  0  0  0  0  0
   39.1860  -23.8255   39.0766 O   0  0  0  0  0  0  0  0  0  0  0  0
   40.4037  -24.3847   38.6956 C   0  0  0  0  0  0  0  0  0  0  0  0
  6  1  1  0  0  0
  1  2  2  0  0  0
  2 24  1  0  0  0
 24 25  1  0  0  0
 25 26  1  0  0  0
 26 27  1  0  0  0
  2  3  1  0  0  0
  3 12  1  0  0  0
 12 13  2  0  0  0
 13 14  1  0  0  0
 14 15  2  0  0  0
 15 16  1  0  0  0
 16 17  2  0  0  0
  3  4  2  0  0  0
  4  5  1  0  0  0
  5 18  1  0  0  0
 18 19  2  0  0  0
 19 20  1  0  0  0
 20 21  2  0  0  0
 21 22  1  0  0  0
 22 23  2  0  0  0
  6  7  2  0  0  0
  7  8  1  0  0  0
  8  9  2  0  0  0
  9 10  1  0  0  0
 10 11  2  0  0  0
 11  6  1  0  0  0
  5  1  1  0  0  0
 23 18  1  0  0  0
 17 12  1  0  0  0
M  END
> <minimizedAffinity>
-3.95720

> <CNNscore>
0.2991058528

> <CNNaffinity>
4.4052324295

> <CNN_VS>
1.3176307678

> <CNNaffinity_variance>
0.3328011632

$$$$
[H]c1c([H])c([H])c(-c2nn(-c3c([H])c([H])c([H])c([H])c3[H])c(-c3c([H])c([H])c([H])c([H])c3[H])c2OC([H])([H])OC([H])([H])[H])c([H])c1[H]


 27 30  0  0  0  0  0  0  0  0999 V2000
   39.8908  -20.0427   36.5124 C   0  0  0  0  0  0  0  0  0  0  0  0
   38.5698  -19.7444   36.7899 C   0  0  0  0  0  0  0  0  0  0  0  0
   37.9672  -20.8428   37.4291 C   0  0  0  0  0  0  0  0  0  0  0  0
   38.9277  -21.7474   37.5103 N   0  0  0  0  0  0  0  0  0  0  0  0
   40.0844  -21.2916   36.9697 N   0  0  0  0  0  0  0  0  0  0  0  0
   40.8572  -19.0958   35.9383 C   0  0  0  0  0  0  0  0  0  0  0  0
   41.1184  -18.9732   34.5933 C   0  0  0  0  0  0  0  0  0  0  0  0
   42.1238  -18.1116   34.1133 C   0  0  0  0  0  0  0  0  0  0  0  0
   42.8780  -17.3630   34.9667 C   0  0  0  0  0  0  0  0  0  0  0  0
   42.6436  -17.4603   36.3116 C   0  0  0  0  0  0  0  0  0  0  0  0
   41.6571  -18.3089   36.7599 C   0  0  0  0  0  0  0  0  0  0  0  0
   36.5684  -20.9321   37.8931 C   0  0  0  0  0  0  0  0  0  0  0  0
   36.2018  -20.6656   39.1846 C   0  0  0  0  0  0  0  0  0  0  0  0
   34.8776  -20.7669   39.5552 C   0  0  0  0  0  0  0  0  0  0  0  0
   33.8955  -21.1333   38.6546 C   0  0  0  0  0  0  0  0  0  0  0  0
   34.2546  -21.4063   37.3409 C   0  0  0  0  0  0  0  0  0  0  0  0
   35.5784  -21.2967   37.0036 C   0  0  0  0  0  0  0  0  0  0  0  0
   41.2633  -22.0987   36.9807 C   0  0  0  0  0  0  0  0  0  0  0  0
   42.0891  -22.2096   38.0951 C   0  0  0  0  0  0  0  0  0  0  0  0
   43.1930  -23.0348   38.0568 C   0  0  0  0  0  0  0  0  0  0  0  0
   43.5249  -23.7746   36.9358 C   0  0  0  0  0  0  0  0  0  0  0  0
   42.7123  -23.6659   35.8380 C   0  0  0  0  0  0  0  0  0  0  0  0
   41.5889  -22.8400   35.8458 C   0  0  0  0  0  0  0  0  0  0  0  0
   37.8128  -18.5965   36.5349 O   0  0  0  0  0  0  0  0  0  0  0  0
   37.3114  -18.2342   35.2842 C   0  0  0  0  0  0  0  0  0  0  0  0
   35.9341  -18.2644   35.2115 O   0  0  0  0  0  0  0  0  0  0  0  0
   35.5239  -18.9348   34.0613 C   0  0  0  0  0  0  0  0  0  0  0  0
  6  1  1  0  0  0
  1  2  2  0  0  0
  2 24  1  0  0  0
 24 25  1  0  0  0
 25 26  1  0  0  0
 26 27  1  0  0  0
  2  3  1  0  0  0
  3 12  1  0  0  0
 12 13  2  0  0  0
 13 14  1  0  0  0
 14 15  2  0  0  0
 15 16  1  0  0  0
 16 17  2  0  0  0
  3  4  2  0  0  0
  4  5  1  0  0  0
  5 18  1  0  0  0
 18 19  2  0  0  0
 19 20  1  0  0  0
 20 21  2  0  0  0
 21 22  1  0  0  0
 22 23  2  0  0  0
  6  7  2  0  0  0
  7  8  1  0  0  0
  8  9  2  0  0  0
  9 10  1  0  0  0
 10 11  2  0  0  0
 11  6  1  0  0  0
  5  1  1  0  0  0
 23 18  1  0  0  0
 17 12  1  0  0  0
M  END
> <minimizedAffinity>
-3.87647

> <CNNscore>
0.2829936147

> <CNNaffinity>
4.3564920425

> <CNN_VS>
1.2328593731

> <CNNaffinity_variance>
0.1653383970

$$$$
[H]c1c([H])c([H])c(-c2nn(-c3c([H])c([H])c([H])c([H])c3[H])c(-c3c([H])c([H])c([H])c([H])c3[H])c2OC([H])([H])OC([H])([H])[H])c([H])c1[H]


 27 30  0  0  0  0  0  0  0  0999 V2000
   37.0561  -20.3868   37.2733 C   0  0  0  0  0  0  0  0  0  0  0  0
   37.2564  -19.0578   36.9500 C   0  0  0  0  0  0  0  0  0  0  0  0
   36.0849  -18.3288   37.2228 C   0  0  0  0  0  0  0  0  0  0  0  0
   35.2359  -19.2280   37.6899 N   0  0  0  0  0  0  0  0  0  0  0  0
   35.7939  -20.4629   37.7290 N   0  0  0  0  0  0  0  0  0  0  0  0
   38.0941  -21.4256   37.2142 C   0  0  0  0  0  0  0  0  0  0  0  0
   39.0662  -21.6068   38.1706 C   0  0  0  0  0  0  0  0  0  0  0  0
   40.0894  -22.5611   38.0099 C   0  0  0  0  0  0  0  0  0  0  0  0
   40.1544  -23.3451   36.8970 C   0  0  0  0  0  0  0  0  0  0  0  0
   39.2022  -23.1915   35.9260 C   0  0  0  0  0  0  0  0  0  0  0  0
   38.2115  -22.2525   36.1021 C   0  0  0  0  0  0  0  0  0  0  0  0
   35.8826  -16.8804   37.0202 C   0  0  0  0  0  0  0  0  0  0  0  0
   34.9820  -16.3810   36.1186 C   0  0  0  0  0  0  0  0  0  0  0  0
   34.8401  -15.0169   35.9767 C   0  0  0  0  0  0  0  0  0  0  0  0
   35.5864  -14.1256   36.7240 C   0  0  0  0  0  0  0  0  0  0  0  0
   36.5038  -14.6199   37.6423 C   0  0  0  0  0  0  0  0  0  0  0  0
   36.6216  -15.9801   37.7602 C   0  0  0  0  0  0  0  0  0  0  0  0
   35.0596  -21.5804   38.2324 C   0  0  0  0  0  0  0  0  0  0  0  0
   35.1939  -22.0427   39.5378 C   0  0  0  0  0  0  0  0  0  0  0  0
   34.4292  -23.1027   39.9768 C   0  0  0  0  0  0  0  0  0  0  0  0
   33.5136  -23.7424   39.1603 C   0  0  0  0  0  0  0  0  0  0  0  0
   33.3808  -23.2877   37.8747 C   0  0  0  0  0  0  0  0  0  0  0  0
   34.1396  -22.2180   37.4014 C   0  0  0  0  0  0  0  0  0  0  0  0
   38.3712  -18.3969   36.4243 O   0  0  0  0  0  0  0  0  0  0  0  0
   38.9928  -18.7190   35.2173 C   0  0  0  0  0  0  0  0  0  0  0  0
   40.2413  -19.2849   35.3729 O   0  0  0  0  0  0  0  0  0  0  0  0
   40.9989  -19.1131   34.2165 C   0  0  0  0  0  0  0  0  0  0  0  0
  6  1  1  0  0  0
  1  2  2  0  0  0
  2 24  1  0  0  0
 24 25  1  0  0  0
 25 26  1  0  0  0
 26 27  1  0  0  0
  2  3  1  0  0  0
  3 12  1  0  0  0
 12 13  2  0  0  0
 13 14  1  0  0  0
 14 15  2  0  0  0
 15 16  1  0  0  0
 16 17  2  0  0  0
  3  4  2  0  0  0
  4  5  1  0  0  0
  5 18  1  0  0  0
 18 19  2  0  0  0
 19 20  1  0  0  0
 20 21  2  0  0  0
 21 22  1  0  0  0
 22 23  2  0  0  0
  6  7  2  0  0  0
  7  8  1  0  0  0
  8  9  2  0  0  0
  9 10  1  0  0  0
 10 11  2  0  0  0
 11  6  1  0  0  0
  5  1  1  0  0  0
 23 18  1  0  0  0
 17 12  1  0  0  0
M  END
> <minimizedAffinity>
-4.60205

> <CNNscore>
0.2746871412

> <CNNaffinity>
4.5829553604

> <CNN_VS>
1.2588789463

> <CNNaffinity_variance>
0.2857485712

$$$$
[H]c1c([H])c([H])c(C2=NC([H])([H])C(=O)N(C([H])([H])[H])c3c([H])c([H])c(Cl)c([H])c32)c(F)c1[H]


 21 23  0  0  0  0  0  0  0  0999 V2000
   29.9628  -25.4146   34.3581 C   0  0  0  0  0  0  0  0  0  0  0  0
   30.7482  -24.5180   35.1412 N   0  0  0  0  0  0  0  0  0  0  0  0
   30.0818  -23.3180   35.5457 C   0  0  0  0  0  0  0  0  0  0  0  0
   28.7180  -23.4771   35.7107 C   0  0  0  0  0  0  0  0  0  0  0  0
   27.9916  -22.4266   36.2086 C   0  0  0  0  0  0  0  0  0  0  0  0
   28.6351  -21.2437   36.5329 C   0  0  0  0  0  0  0  0  0  0  0  0
   27.7262  -19.8926   37.1639 Cl  0  0  0  0  0  0  0  0  0  0  0  0
   29.9791  -21.0712   36.3757 C   0  0  0  0  0  0  0  0  0  0  0  0
   30.7149  -22.1436   35.8615 C   0  0  0  0  0  0  0  0  0  0  0  0
   32.0963  -21.7735   35.7044 C   0  0  0  0  0  0  0  0  0  0  0  0
   33.0661  -22.6450   35.9558 N   0  0  0  0  0  0  0  0  0  0  0  0
   33.0028  -24.0226   36.3878 C   0  0  0  0  0  0  0  0  0  0  0  0
   32.0951  -24.8255   35.5111 C   0  0  0  0  0  0  0  0  0  0  0  0
   32.5497  -25.8845   35.0432 O   0  0  0  0  0  0  0  0  0  0  0  0
   32.5123  -20.4635   35.2894 C   0  0  0  0  0  0  0  0  0  0  0  0
   32.2930  -19.8441   34.1141 C   0  0  0  0  0  0  0  0  0  0  0  0
   32.6486  -18.5239   33.8374 C   0  0  0  0  0  0  0  0  0  0  0  0
   33.2700  -17.7642   34.7970 C   0  0  0  0  0  0  0  0  0  0  0  0
   33.5166  -18.3560   36.0103 C   0  0  0  0  0  0  0  0  0  0  0  0
   33.1545  -19.6642   36.2626 C   0  0  0  0  0  0  0  0  0  0  0  0
   33.3990  -20.2471   37.4632 F   0  0  0  0  0  0  0  0  0  0  0  0
  1  2  1  0  0  0
  2  3  1  0  0  0
  3  4  2  0  0  0
  4  5  1  0  0  0
  5  6  2  0  0  0
  6  7  1  0  0  0
  6  8  1  0  0  0
  8  9  2  0  0  0
  9 10  1  0  0  0
 10 11  2  0  0  0
 11 12  1  0  0  0
 12 13  1  0  0  0
 13 14  2  0  0  0
 10 15  1  0  0  0
 15 16  2  0  0  0
 16 17  1  0  0  0
 17 18  2  0  0  0
 18 19  1  0  0  0
 19 20  2  0  0  0
 20 21  1  0  0  0
 13  2  1  0  0  0
 20 15  1  0  0  0
  9  3  1  0  0  0
M  END
> <minimizedAffinity>
-4.67871

> <CNNscore>
0.6206789613

> <CNNaffinity>
4.1468462944

> <CNN_VS>
2.5738601685

> <CNNaffinity_variance>
0.3188086152

$$$$
[H]c1c([H])c([H])c(C2=NC([H])([H])C(=O)N(C([H])([H])[H])c3c([H])c([H])c(Cl)c([H])c32)c(F)c1[H]


 21 23  0  0  0  0  0  0  0  0999 V2000
   33.6229  -20.9693   37.6651 C   0  0  0  0  0  0  0  0  0  0  0  0
   33.9880  -19.8876   36.8105 N   0  0  0  0  0  0  0  0  0  0  0  0
   35.3786  -19.5500   36.8146 C   0  0  0  0  0  0  0  0  0  0  0  0
   36.2041  -20.6298   37.0696 C   0  0  0  0  0  0  0  0  0  0  0  0
   37.5606  -20.4516   36.9838 C   0  0  0  0  0  0  0  0  0  0  0  0
   38.0664  -19.2074   36.6453 C   0  0  0  0  0  0  0  0  0  0  0  0
   39.7915  -18.9595   36.5357 Cl  0  0  0  0  0  0  0  0  0  0  0  0
   37.2653  -18.1328   36.3912 C   0  0  0  0  0  0  0  0  0  0  0  0
   35.8824  -18.3179   36.4862 C   0  0  0  0  0  0  0  0  0  0  0  0
   35.1937  -17.0774   36.2485 C   0  0  0  0  0  0  0  0  0  0  0  0
   34.0463  -17.0542   35.5803 N   0  0  0  0  0  0  0  0  0  0  0  0
   33.2763  -18.1295   34.9979 C   0  0  0  0  0  0  0  0  0  0  0  0
   33.0246  -19.2179   35.9925 C   0  0  0  0  0  0  0  0  0  0  0  0
   31.8478  -19.5945   36.1351 O   0  0  0  0  0  0  0  0  0  0  0  0
   35.6944  -15.8075   36.6935 C   0  0  0  0  0  0  0  0  0  0  0  0
   36.7671  -15.5497   37.4655 C   0  0  0  0  0  0  0  0  0  0  0  0
   37.2392  -14.2710   37.7622 C   0  0  0  0  0  0  0  0  0  0  0  0
   36.5974  -13.1675   37.2576 C   0  0  0  0  0  0  0  0  0  0  0  0
   35.4963  -13.3827   36.4673 C   0  0  0  0  0  0  0  0  0  0  0  0
   35.0475  -14.6576   36.1857 C   0  0  0  0  0  0  0  0  0  0  0  0
   33.9588  -14.8678   35.4037 F   0  0  0  0  0  0  0  0  0  0  0  0
  1  2  1  0  0  0
  2  3  1  0  0  0
  3  4  2  0  0  0
  4  5  1  0  0  0
  5  6  2  0  0  0
  6  7  1  0  0  0
  6  8  1  0  0  0
  8  9  2  0  0  0
  9 10  1  0  0  0
 10 11  2  0  0  0
 11 12  1  0  0  0
 12 13  1  0  0  0
 13 14  2  0  0  0
 10 15  1  0  0  0
 15 16  2  0  0  0
 16 17  1  0  0  0
 17 18  2  0  0  0
 18 19  1  0  0  0
 19 20  2  0  0  0
 20 21  1  0  0  0
 13  2  1  0  0  0
 20 15  1  0  0  0
  9  3  1  0  0  0
M  END
> <minimizedAffinity>
-7.72764

> <CNNscore>
0.4919762015

> <CNNaffinity>
4.3840322495

> <CNN_VS>
2.1568396091

> <CNNaffinity_variance>
0.6262780428

$$$$
[H]c1c([H])c([H])c(C2=NC([H])([H])C(=O)N(C([H])([H])[H])c3c([H])c([H])c(Cl)c([H])c32)c(F)c1[H]


 21 23  0  0  0  0  0  0  0  0999 V2000
   44.0461  -18.6561   35.2812 C   0  0  0  0  0  0  0  0  0  0  0  0
   42.6978  -18.8868   35.6848 N   0  0  0  0  0  0  0  0  0  0  0  0
   42.5065  -19.0787   37.0899 C   0  0  0  0  0  0  0  0  0  0  0  0
   43.4272  -18.3991   37.8664 C   0  0  0  0  0  0  0  0  0  0  0  0
   43.2727  -18.4137   39.2284 C   0  0  0  0  0  0  0  0  0  0  0  0
   42.2079  -19.1003   39.7881 C   0  0  0  0  0  0  0  0  0  0  0  0
   41.9971  -19.1345   41.5214 Cl  0  0  0  0  0  0  0  0  0  0  0  0
   41.2919  -19.7755   39.0358 C   0  0  0  0  0  0  0  0  0  0  0  0
   41.4572  -19.7629   37.6472 C   0  0  0  0  0  0  0  0  0  0  0  0
   40.4464  -20.5683   37.0152 C   0  0  0  0  0  0  0  0  0  0  0  0
   39.9058  -20.1976   35.8604 N   0  0  0  0  0  0  0  0  0  0  0  0
   40.1618  -19.0423   35.0309 C   0  0  0  0  0  0  0  0  0  0  0  0
   41.6220  -18.8937   34.7424 C   0  0  0  0  0  0  0  0  0  0  0  0
   41.9536  -18.7595   33.5512 O   0  0  0  0  0  0  0  0  0  0  0  0
   39.9531  -21.7913   37.5830 C   0  0  0  0  0  0  0  0  0  0  0  0
   40.5464  -22.9994   37.6235 C   0  0  0  0  0  0  0  0  0  0  0  0
   40.0323  -24.1110   38.2914 C   0  0  0  0  0  0  0  0  0  0  0  0
   38.8406  -24.0167   38.9661 C   0  0  0  0  0  0  0  0  0  0  0  0
   38.1987  -22.8039   38.9491 C   0  0  0  0  0  0  0  0  0  0  0  0
   38.7268  -21.7165   38.2824 C   0  0  0  0  0  0  0  0  0  0  0  0
   38.0904  -20.5182   38.2674 F   0  0  0  0  0  0  0  0  0  0  0  0
  1  2  1  0  0  0
  2  3  1  0  0  0
  3  4  2  0  0  0
  4  5  1  0  0  0
  5  6  2  0  0  0
  6  7  1  0  0  0
  6  8  1  0  0  0
  8  9  2  0  0  0
  9 10  1  0  0  0
 10 11  2  0  0  0
 11 12  1  0  0  0
 12 13  1  0  0  0
 13 14  2  0  0  0
 10 15  1  0  0  0
 15 16  2  0  0  0
 16 17  1  0  0  0
 17 18  2  0  0  0
 18 19  1  0  0  0
 19 20  2  0  0  0
 20 21  1  0  0  0
 13  2  1  0  0  0
 20 15  1  0  0  0
  9  3  1  0  0  0
M  END
> <minimizedAffinity>
-4.15904

> <CNNscore>
0.4857792258

> <CNNaffinity>
4.1341857910

> <CNN_VS>
2.0083014965

> <CNNaffinity_variance>
0.1247906089

$$$$
[H]c1c([H])c([H])c(C2=NC([H])([H])C(=O)N(C([H])([H])[H])c3c([H])c([H])c(Cl)c([H])c32)c(F)c1[H]


 21 23  0  0  0  0  0  0  0  0999 V2000
   41.4015  -18.6286   33.6309 C   0  0  0  0  0  0  0  0  0  0  0  0
   42.4788  -18.8204   34.5457 N   0  0  0  0  0  0  0  0  0  0  0  0
   42.5712  -20.1311   35.1125 C   0  0  0  0  0  0  0  0  0  0  0  0
   42.0983  -21.1251   34.2752 C   0  0  0  0  0  0  0  0  0  0  0  0
   42.2428  -22.4318   34.6633 C   0  0  0  0  0  0  0  0  0  0  0  0
   42.8546  -22.7222   35.8716 C   0  0  0  0  0  0  0  0  0  0  0  0
   43.0435  -24.3805   36.3855 Cl  0  0  0  0  0  0  0  0  0  0  0  0
   43.3257  -21.7532   36.7083 C   0  0  0  0  0  0  0  0  0  0  0  0
   43.1703  -20.4214   36.3110 C   0  0  0  0  0  0  0  0  0  0  0  0
   43.6638  -19.5340   37.3301 C   0  0  0  0  0  0  0  0  0  0  0  0
   44.3023  -18.4155   37.0065 N   0  0  0  0  0  0  0  0  0  0  0  0
   44.6218  -17.8568   35.7126 C   0  0  0  0  0  0  0  0  0  0  0  0
   43.4084  -17.7746   34.8418 C   0  0  0  0  0  0  0  0  0  0  0  0
   43.1677  -16.6778   34.3069 O   0  0  0  0  0  0  0  0  0  0  0  0
   43.5168  -19.7970   38.7339 C   0  0  0  0  0  0  0  0  0  0  0  0
   44.4430  -20.2297   39.6103 C   0  0  0  0  0  0  0  0  0  0  0  0
   44.2335  -20.3584   40.9834 C   0  0  0  0  0  0  0  0  0  0  0  0
   43.0141  -20.0368   41.5254 C   0  0  0  0  0  0  0  0  0  0  0  0
   42.0381  -19.5940   40.6684 C   0  0  0  0  0  0  0  0  0  0  0  0
   42.2683  -19.4730   39.3125 C   0  0  0  0  0  0  0  0  0  0  0  0
   41.3018  -19.0345   38.4670 F   0  0  0  0  0  0  0  0  0  0  0  0
  1  2  1  0  0  0
  2  3  1  0  0  0
  3  4  2  0  0  0
  4  5  1  0  0  0
  5  6  2  0  0  0
  6  7  1  0  0  0
  6  8  1  0  0  0
  8  9  2  0  0  0
  9 10  1  0  0  0
 10 11  2  0  0  0
 11 12  1  0  0  0
 12 13  1  0  0  0
 13 14  2  0  0  0
 10 15  1  0  0  0
 15 16  2  0  0  0
 16 17  1  0  0  0
 17 18  2  0  0  0
 18 19  1  0  0  0
 19 20  2  0  0  0
 20 21  1  0  0  0
 13  2  1  0  0  0
 20 15  1  0  0  0
  9  3  1  0  0  0
M  END
> <minimizedAffinity>
-3.87009

> <CNNscore>
0.4501044154

> <CNNaffinity>
4.1943149567

> <CNN_VS>
1.8878797293

> <CNNaffinity_variance>
0.0305300355

$$$$
[H]c1c([H])c([H])c(C2=NC([H])([H])C(=O)N(C([H])([H])[H])c3c([H])c([H])c(Cl)c([H])c32)c(F)c1[H]


 21 23  0  0  0  0  0  0  0  0999 V2000
   31.4970  -23.5294   34.0291 C   0  0  0  0  0  0  0  0  0  0  0  0
   31.5705  -22.8460   35.2787 N   0  0  0  0  0  0  0  0  0  0  0  0
   32.3342  -21.6359   35.2677 C   0  0  0  0  0  0  0  0  0  0  0  0
   32.3168  -20.9876   34.0462 C   0  0  0  0  0  0  0  0  0  0  0  0
   32.9169  -19.7591   33.9483 C   0  0  0  0  0  0  0  0  0  0  0  0
   33.5185  -19.2015   35.0644 C   0  0  0  0  0  0  0  0  0  0  0  0
   34.2924  -17.6396   34.9582 Cl  0  0  0  0  0  0  0  0  0  0  0  0
   33.5443  -19.8284   36.2757 C   0  0  0  0  0  0  0  0  0  0  0  0
   32.9363  -21.0843   36.3690 C   0  0  0  0  0  0  0  0  0  0  0  0
   33.1072  -21.6263   37.6907 C   0  0  0  0  0  0  0  0  0  0  0  0
   32.1364  -22.3227   38.2704 N   0  0  0  0  0  0  0  0  0  0  0  0
   30.8231  -22.6850   37.7884 C   0  0  0  0  0  0  0  0  0  0  0  0
   30.8985  -23.3343   36.4430 C   0  0  0  0  0  0  0  0  0  0  0  0
   30.3144  -24.4238   36.3058 O   0  0  0  0  0  0  0  0  0  0  0  0
   34.3045  -21.4438   38.4618 C   0  0  0  0  0  0  0  0  0  0  0  0
   34.4970  -20.6688   39.5459 C   0  0  0  0  0  0  0  0  0  0  0  0
   35.6734  -20.6344   40.2948 C   0  0  0  0  0  0  0  0  0  0  0  0
   36.7375  -21.4254   39.9393 C   0  0  0  0  0  0  0  0  0  0  0  0
   36.5871  -22.2300   38.8378 C   0  0  0  0  0  0  0  0  0  0  0  0
   35.4127  -22.2488   38.1122 C   0  0  0  0  0  0  0  0  0  0  0  0
   35.2663  -23.0455   37.0236 F   0  0  0  0  0  0  0  0  0  0  0  0
  1  2  1  0  0  0
  2  3  1  0  0  0
  3  4  2  0  0  0
  4  5  1  0  0  0
  5  6  2  0  0  0
  6  7  1  0  0  0
  6  8  1  0  0  0
  8  9  2  0  0  0
  9 10  1  0  0  0
 10 11  2  0  0  0
 11 12  1  0  0  0
 12 13  1  0  0  0
 13 14  2  0  0  0
 10 15  1  0  0  0
 15 16  2  0  0  0
 16 17  1  0  0  0
 17 18  2  0  0  0
 18 19  1  0  0  0
 19 20  2  0  0  0
 20 21  1  0  0  0
 13  2  1  0  0  0
 20 15  1  0  0  0
  9  3  1  0  0  0
M  END
> <minimizedAffinity>
-4.28181

> <CNNscore>
0.4376077354

> <CNNaffinity>
3.8627936840

> <CNN_VS>
1.6903884411

> <CNNaffinity_variance>
0.3456268311

$$$$
[H]c1c([H])c([H])c(C2=NC([H])([H])C(=O)N(C([H])([H])[H])c3c([H])c([H])c(Cl)c([H])c32)c(F)c1[H]


 21 23  0  0  0  0  0  0  0  0999 V2000
   39.2218  -20.8728   35.0081 C   0  0  0  0  0  0  0  0  0  0  0  0
   38.1549  -19.9265   35.0249 N   0  0  0  0  0  0  0  0  0  0  0  0
   37.2458  -20.0523   36.1228 C   0  0  0  0  0  0  0  0  0  0  0  0
   37.8360  -20.5535   37.2687 C   0  0  0  0  0  0  0  0  0  0  0  0
   37.0913  -20.6088   38.4183 C   0  0  0  0  0  0  0  0  0  0  0  0
   35.7796  -20.1643   38.4049 C   0  0  0  0  0  0  0  0  0  0  0  0
   34.8134  -20.2314   39.8581 Cl  0  0  0  0  0  0  0  0  0  0  0  0
   35.1833  -19.6678   37.2828 C   0  0  0  0  0  0  0  0  0  0  0  0
   35.9451  -19.6191   36.1111 C   0  0  0  0  0  0  0  0  0  0  0  0
   35.1498  -19.1293   35.0168 C   0  0  0  0  0  0  0  0  0  0  0  0
   35.6779  -18.3302   34.0971 N   0  0  0  0  0  0  0  0  0  0  0  0
   37.0207  -17.8140   33.9601 C   0  0  0  0  0  0  0  0  0  0  0  0
   38.0339  -18.9125   34.0235 C   0  0  0  0  0  0  0  0  0  0  0  0
   38.8741  -18.9624   33.1078 O   0  0  0  0  0  0  0  0  0  0  0  0
   33.7598  -19.4505   34.8554 C   0  0  0  0  0  0  0  0  0  0  0  0
   33.2059  -20.6058   34.4409 C   0  0  0  0  0  0  0  0  0  0  0  0
   31.8346  -20.8606   34.4141 C   0  0  0  0  0  0  0  0  0  0  0  0
   30.9485  -19.8967   34.8263 C   0  0  0  0  0  0  0  0  0  0  0  0
   31.4687  -18.7012   35.2545 C   0  0  0  0  0  0  0  0  0  0  0  0
   32.8299  -18.4713   35.2738 C   0  0  0  0  0  0  0  0  0  0  0  0
   33.3419  -17.2885   35.6979 F   0  0  0  0  0  0  0  0  0  0  0  0
  1  2  1  0  0  0
  2  3  1  0  0  0
  3  4  2  0  0  0
  4  5  1  0  0  0
  5  6  2  0  0  0
  6  7  1  0  0  0
  6  8  1  0  0  0
  8  9  2  0  0  0
  9 10  1  0  0  0
 10 11  2  0  0  0
 11 12  1  0  0  0
 12 13  1  0  0  0
 13 14  2  0  0  0
 10 15  1  0  0  0
 15 16  2  0  0  0
 16 17  1  0  0  0
 17 18  2  0  0  0
 18 19  1  0  0  0
 19 20  2  0  0  0
 20 21  1  0  0  0
 13  2  1  0  0  0
 20 15  1  0  0  0
  9  3  1  0  0  0
M  END
> <minimizedAffinity>
-5.74201

> <CNNscore>
0.4043006897

> <CNNaffinity>
4.3390603065

> <CNN_VS>
1.7542850971

> <CNNaffinity_variance>
0.2871626616

$$$$
[H]c1c([H])c([H])c(C2=NC([H])([H])C(=O)N(C([H])([H])[H])c3c([H])c([H])c(Cl)c([H])c32)c(F)c1[H]


 21 23  0  0  0  0  0  0  0  0999 V2000
   28.9396  -11.0089   37.5544 C   0  0  0  0  0  0  0  0  0  0  0  0
   30.1567  -11.4203   38.1736 N   0  0  0  0  0  0  0  0  0  0  0  0
   31.3340  -10.7551   37.7054 C   0  0  0  0  0  0  0  0  0  0  0  0
   31.0987   -9.4620   37.2752 C   0  0  0  0  0  0  0  0  0  0  0  0
   32.1701   -8.6870   36.9137 C   0  0  0  0  0  0  0  0  0  0  0  0
   33.4497   -9.2121   36.9890 C   0  0  0  0  0  0  0  0  0  0  0  0
   34.8267   -8.2420   36.5282 Cl  0  0  0  0  0  0  0  0  0  0  0  0
   33.6979  -10.4854   37.4108 C   0  0  0  0  0  0  0  0  0  0  0  0
   32.6012  -11.2742   37.7726 C   0  0  0  0  0  0  0  0  0  0  0  0
   33.0336  -12.5984   38.1320 C   0  0  0  0  0  0  0  0  0  0  0  0
   32.4506  -13.2572   39.1266 N   0  0  0  0  0  0  0  0  0  0  0  0
   31.3603  -12.8754   39.9948 C   0  0  0  0  0  0  0  0  0  0  0  0
   30.1773  -12.4081   39.2077 C   0  0  0  0  0  0  0  0  0  0  0  0
   29.0791  -12.9287   39.4720 O   0  0  0  0  0  0  0  0  0  0  0  0
   34.1094  -13.2772   37.4661 C   0  0  0  0  0  0  0  0  0  0  0  0
   35.3479  -13.5423   37.9231 C   0  0  0  0  0  0  0  0  0  0  0  0
   36.2972  -14.3024   37.2398 C   0  0  0  0  0  0  0  0  0  0  0  0
   35.9956  -14.8357   36.0114 C   0  0  0  0  0  0  0  0  0  0  0  0
   34.7447  -14.5882   35.5046 C   0  0  0  0  0  0  0  0  0  0  0  0
   33.8202  -13.8341   36.1993 C   0  0  0  0  0  0  0  0  0  0  0  0
   32.5837  -13.5911   35.6962 F   0  0  0  0  0  0  0  0  0  0  0  0
  1  2  1  0  0  0
  2  3  1  0  0  0
  3  4  2  0  0  0
  4  5  1  0  0  0
  5  6  2  0  0  0
  6  7  1  0  0  0
  6  8  1  0  0  0
  8  9  2  0  0  0
  9 10  1  0  0  0
 10 11  2  0  0  0
 11 12  1  0  0  0
 12 13  1  0  0  0
 13 14  2  0  0  0
 10 15  1  0  0  0
 15 16  2  0  0  0
 16 17  1  0  0  0
 17 18  2  0  0  0
 18 19  1  0  0  0
 19 20  2  0  0  0
 20 21  1  0  0  0
 13  2  1  0  0  0
 20 15  1  0  0  0
  9  3  1  0  0  0
M  END
> <minimizedAffinity>
-8.41749

> <CNNscore>
0.3861453533

> <CNNaffinity>
5.3789777756

> <CNN_VS>
2.0770673752

> <CNNaffinity_variance>
0.3430847228

$$$$
[H]c1c([H])c([H])c(C2=NC([H])([H])C(=O)N(C([H])([H])[H])c3c([H])c([H])c(Cl)c([H])c32)c(F)c1[H]


 21 23  0  0  0  0  0  0  0  0999 V2000
   36.7517  -16.5214   36.5688 C   0  0  0  0  0  0  0  0  0  0  0  0
   36.4871  -17.9157   36.4280 N   0  0  0  0  0  0  0  0  0  0  0  0
   35.1107  -18.2591   36.2401 C   0  0  0  0  0  0  0  0  0  0  0  0
   34.3846  -17.2777   35.5902 C   0  0  0  0  0  0  0  0  0  0  0  0
   33.0831  -17.5425   35.2511 C   0  0  0  0  0  0  0  0  0  0  0  0
   32.5328  -18.7749   35.5628 C   0  0  0  0  0  0  0  0  0  0  0  0
   30.8751  -19.1292   35.1433 Cl  0  0  0  0  0  0  0  0  0  0  0  0
   33.2358  -19.7527   36.2037 C   0  0  0  0  0  0  0  0  0  0  0  0
   34.5612  -19.4755   36.5532 C   0  0  0  0  0  0  0  0  0  0  0  0
   35.1321  -20.5841   37.2707 C   0  0  0  0  0  0  0  0  0  0  0  0
   36.3999  -20.9331   37.0855 N   0  0  0  0  0  0  0  0  0  0  0  0
   37.4170  -20.3612   36.2330 C   0  0  0  0  0  0  0  0  0  0  0  0
   37.5380  -18.8857   36.4467 C   0  0  0  0  0  0  0  0  0  0  0  0
   38.6768  -18.4362   36.6663 O   0  0  0  0  0  0  0  0  0  0  0  0
   34.3847  -21.3801   38.2031 C   0  0  0  0  0  0  0  0  0  0  0  0
   33.7489  -22.5481   37.9919 C   0  0  0  0  0  0  0  0  0  0  0  0
   33.1326  -23.3046   38.9888 C   0  0  0  0  0  0  0  0  0  0  0  0
   33.1462  -22.8679   40.2900 C   0  0  0  0  0  0  0  0  0  0  0  0
   33.7808  -21.6796   40.5516 C   0  0  0  0  0  0  0  0  0  0  0  0
   34.3855  -20.9479   39.5491 C   0  0  0  0  0  0  0  0  0  0  0  0
   35.0127  -19.7734   39.8102 F   0  0  0  0  0  0  0  0  0  0  0  0
  1  2  1  0  0  0
  2  3  1  0  0  0
  3  4  2  0  0  0
  4  5  1  0  0  0
  5  6  2  0  0  0
  6  7  1  0  0  0
  6  8  1  0  0  0
  8  9  2  0  0  0
  9 10  1  0  0  0
 10 11  2  0  0  0
 11 12  1  0  0  0
 12 13  1  0  0  0
 13 14  2  0  0  0
 10 15  1  0  0  0
 15 16  2  0  0  0
 16 17  1  0  0  0
 17 18  2  0  0  0
 18 19  1  0  0  0
 19 20  2  0  0  0
 20 21  1  0  0  0
 13  2  1  0  0  0
 20 15  1  0  0  0
  9  3  1  0  0  0
M  END
> <minimizedAffinity>
-4.69153

> <CNNscore>
0.3850249648

> <CNNaffinity>
3.9731521606

> <CNN_VS>
1.5297627449

> <CNNaffinity_variance>
0.4130142629

$$$$
[H]c1c([H])c([H])c(C2=NC([H])([H])C(=O)N(C([H])([H])[H])c3c([H])c([H])c(Cl)c([H])c32)c(F)c1[H]


 21 23  0  0  0  0  0  0  0  0999 V2000
   32.9970  -17.6345   34.4005 C   0  0  0  0  0  0  0  0  0  0  0  0
   33.9771  -18.1540   35.2970 N   0  0  0  0  0  0  0  0  0  0  0  0
   34.9133  -17.1953   35.7989 C   0  0  0  0  0  0  0  0  0  0  0  0
   34.3900  -15.9191   35.9005 C   0  0  0  0  0  0  0  0  0  0  0  0
   35.1573  -14.9409   36.4780 C   0  0  0  0  0  0  0  0  0  0  0  0
   36.4246  -15.2516   36.9427 C   0  0  0  0  0  0  0  0  0  0  0  0
   37.4189  -14.0179   37.6769 Cl  0  0  0  0  0  0  0  0  0  0  0  0
   36.9548  -16.5050   36.8493 C   0  0  0  0  0  0  0  0  0  0  0  0
   36.1707  -17.4982   36.2538 C   0  0  0  0  0  0  0  0  0  0  0  0
   36.9002  -18.7361   36.1820 C   0  0  0  0  0  0  0  0  0  0  0  0
   36.2875  -19.8982   36.3759 N   0  0  0  0  0  0  0  0  0  0  0  0
   34.9024  -20.1937   36.6630 C   0  0  0  0  0  0  0  0  0  0  0  0
   33.9907  -19.5323   35.6789 C   0  0  0  0  0  0  0  0  0  0  0  0
   33.1417  -20.2501   35.1213 O   0  0  0  0  0  0  0  0  0  0  0  0
   38.3098  -18.7986   35.9168 C   0  0  0  0  0  0  0  0  0  0  0  0
   39.3219  -18.9842   36.7854 C   0  0  0  0  0  0  0  0  0  0  0  0
   40.6598  -19.1349   36.4203 C   0  0  0  0  0  0  0  0  0  0  0  0
   41.0193  -19.0955   35.0962 C   0  0  0  0  0  0  0  0  0  0  0  0
   40.0201  -18.9049   34.1751 C   0  0  0  0  0  0  0  0  0  0  0  0
   38.7020  -18.7595   34.5592 C   0  0  0  0  0  0  0  0  0  0  0  0
   37.7157  -18.5716   33.6465 F   0  0  0  0  0  0  0  0  0  0  0  0
  1  2  1  0  0  0
  2  3  1  0  0  0
  3  4  2  0  0  0
  4  5  1  0  0  0
  5  6  2  0  0  0
  6  7  1  0  0  0
  6  8  1  0  0  0
  8  9  2  0  0  0
  9 10  1  0  0  0
 10 11  2  0  0  0
 11 12  1  0  0  0
 12 13  1  0  0  0
 13 14  2  0  0  0
 10 15  1  0  0  0
 15 16  2  0  0  0
 16 17  1  0  0  0
 17 18  2  0  0  0
 18 19  1  0  0  0
 19 20  2  0  0  0
 20 21  1  0  0  0
 13  2  1  0  0  0
 20 15  1  0  0  0
  9  3  1  0  0  0
M  END
> <minimizedAffinity>
-6.82516

> <CNNscore>
0.3743158281

> <CNNaffinity>
4.3538613319

> <CNN_VS>
1.6297192574

> <CNNaffinity_variance>
0.6477726102

$$$$
[H]Oc1c(F)c(N([H])c2nc([H])c(-c3c([H])nn(C([H])([H])[H])c3[H])c(N([H])C(=O)C([H])([H])[H])n2)c([H])c([H])c1Cl


 29 31  0  0  0  0  0  0  0  0999 V2000
   35.6687  -17.7857   35.2454 C   0  0  0  0  0  0  0  0  0  0  0  0
   34.8152  -18.5942   34.6123 N   0  0  0  0  0  0  0  0  0  0  0  0
   33.4632  -18.3663   34.5615 C   0  0  0  0  0  0  0  0  0  0  0  0
   33.0438  -17.2744   35.1903 N   0  0  0  0  0  0  0  0  0  0  0  0
   33.8382  -16.4254   35.8401 C   0  0  0  0  0  0  0  0  0  0  0  0
   35.2305  -16.6572   35.8935 C   0  0  0  0  0  0  0  0  0  0  0  0
   36.0799  -15.7166   36.5794 C   0  0  0  0  0  0  0  0  0  0  0  0
   36.4361  -15.7520   37.9031 C   0  0  0  0  0  0  0  0  0  0  0  0
   37.2240  -14.6792   38.1912 N   0  0  0  0  0  0  0  0  0  0  0  0
   37.3709  -13.9648   37.0645 N   0  0  0  0  0  0  0  0  0  0  0  0
   38.1567  -12.7538   37.0269 C   0  0  0  0  0  0  0  0  0  0  0  0
   36.6753  -14.5907   36.0740 C   0  0  0  0  0  0  0  0  0  0  0  0
   38.9859  -19.2731   36.4335 C   0  0  0  0  0  0  0  0  0  0  0  0
   37.5506  -18.9087   36.3323 C   0  0  0  0  0  0  0  0  0  0  0  0
   36.7798  -19.3336   37.2154 O   0  0  0  0  0  0  0  0  0  0  0  0
   37.0655  -18.1085   35.2750 N   0  0  0  0  0  0  0  0  0  0  0  0
   37.7473  -17.7831   34.5698 H   0  0  0  0  0  0  0  0  0  0  0  0
   32.6447  -19.2637   33.8772 N   0  0  0  0  0  0  0  0  0  0  0  0
   32.5782  -19.0657   32.8041 H   0  0  0  0  0  0  0  0  0  0  0  0
   31.9257  -20.3474   34.3866 C   0  0  0  0  0  0  0  0  0  0  0  0
   32.3176  -21.6511   34.3385 C   0  0  0  0  0  0  0  0  0  0  0  0
   31.5380  -22.6916   34.8738 C   0  0  0  0  0  0  0  0  0  0  0  0
   30.3347  -22.4133   35.4722 C   0  0  0  0  0  0  0  0  0  0  0  0
   29.3383  -23.6795   36.1485 Cl  0  0  0  0  0  0  0  0  0  0  0  0
   29.9498  -21.0930   35.5148 C   0  0  0  0  0  0  0  0  0  0  0  0
   28.7213  -20.8269   36.1281 O   0  0  0  0  0  0  0  0  0  0  0  0
   30.6841  -20.0758   35.0061 C   0  0  0  0  0  0  0  0  0  0  0  0
   30.2281  -18.7958   35.0909 F   0  0  0  0  0  0  0  0  0  0  0  0
   28.3428  -19.8941   36.2141 H   0  0  0  0  0  0  0  0  0  0  0  0
 13 14  1  0  0  0
 14 15  2  0  0  0
 14 16  1  0  0  0
 16  1  1  0  0  0
  1  2  2  0  0  0
  2  3  1  0  0  0
  3 18  1  0  0  0
 18 20  1  0  0  0
 20 21  2  0  0  0
 21 22  1  0  0  0
 22 23  2  0  0  0
 23 24  1  0  0  0
 23 25  1  0  0  0
 25 26  1  0  0  0
 25 27  2  0  0  0
 27 28  1  0  0  0
  3  4  2  0  0  0
  4  5  1  0  0  0
  5  6  2  0  0  0
  6  7  1  0  0  0
  7  8  1  0  0  0
  8  9  2  0  0  0
  9 10  1  0  0  0
 10 11  1  0  0  0
 10 12  1  0  0  0
  6  1  1  0  0  0
 12  7  2  0  0  0
 27 20  1  0  0  0
 16 17  1  0  0  0
 18 19  1  0  0  0
 26 29  1  0  0  0
M  END
> <minimizedAffinity>
-6.58281

> <CNNscore>
0.6070847511

> <CNNaffinity>
5.9300432205

> <CNN_VS>
3.6000387669

> <CNNaffinity_variance>
0.0900190100

$$$$
[H]Oc1c(F)c(N([H])c2nc([H])c(-c3c([H])nn(C([H])([H])[H])c3[H])c(N([H])C(=O)C([H])([H])[H])n2)c([H])c([H])c1Cl


 29 31  0  0  0  0  0  0  0  0999 V2000
   33.5329  -20.2165   36.0337 C   0  0  0  0  0  0  0  0  0  0  0  0
   33.8572  -18.9303   35.8808 N   0  0  0  0  0  0  0  0  0  0  0  0
   32.9675  -17.9781   35.4517 C   0  0  0  0  0  0  0  0  0  0  0  0
   31.7415  -18.4175   35.1919 N   0  0  0  0  0  0  0  0  0  0  0  0
   31.3500  -19.6838   35.3227 C   0  0  0  0  0  0  0  0  0  0  0  0
   32.2636  -20.6660   35.7648 C   0  0  0  0  0  0  0  0  0  0  0  0
   31.8186  -22.0274   35.9248 C   0  0  0  0  0  0  0  0  0  0  0  0
   31.3081  -22.5911   37.0658 C   0  0  0  0  0  0  0  0  0  0  0  0
   31.0281  -23.9044   36.8386 N   0  0  0  0  0  0  0  0  0  0  0  0
   31.3557  -24.1786   35.5661 N   0  0  0  0  0  0  0  0  0  0  0  0
   31.1808  -25.4960   35.0010 C   0  0  0  0  0  0  0  0  0  0  0  0
   31.8398  -23.0378   34.9995 C   0  0  0  0  0  0  0  0  0  0  0  0
   35.7920  -22.2445   38.3600 C   0  0  0  0  0  0  0  0  0  0  0  0
   34.7688  -21.3005   37.8453 C   0  0  0  0  0  0  0  0  0  0  0  0
   34.1222  -20.6343   38.6776 O   0  0  0  0  0  0  0  0  0  0  0  0
   34.5288  -21.1554   36.4615 N   0  0  0  0  0  0  0  0  0  0  0  0
   35.0927  -21.7318   35.8153 H   0  0  0  0  0  0  0  0  0  0  0  0
   33.3920  -16.6567   35.3202 N   0  0  0  0  0  0  0  0  0  0  0  0
   32.7772  -16.0647   34.6370 H   0  0  0  0  0  0  0  0  0  0  0  0
   34.4736  -16.0252   35.9385 C   0  0  0  0  0  0  0  0  0  0  0  0
   35.6452  -16.6241   36.2905 C   0  0  0  0  0  0  0  0  0  0  0  0
   36.6925  -15.9217   36.9124 C   0  0  0  0  0  0  0  0  0  0  0  0
   36.5573  -14.5839   37.1868 C   0  0  0  0  0  0  0  0  0  0  0  0
   37.8366  -13.6776   37.9587 Cl  0  0  0  0  0  0  0  0  0  0  0  0
   35.3696  -13.9901   36.8265 C   0  0  0  0  0  0  0  0  0  0  0  0
   35.2484  -12.6265   37.1130 O   0  0  0  0  0  0  0  0  0  0  0  0
   34.3486  -14.6467   36.2271 C   0  0  0  0  0  0  0  0  0  0  0  0
   33.2056  -13.9816   35.9037 F   0  0  0  0  0  0  0  0  0  0  0  0
   34.4202  -12.0919   36.8918 H   0  0  0  0  0  0  0  0  0  0  0  0
 13 14  1  0  0  0
 14 15  2  0  0  0
 14 16  1  0  0  0
 16  1  1  0  0  0
  1  2  2  0  0  0
  2  3  1  0  0  0
  3 18  1  0  0  0
 18 20  1  0  0  0
 20 21  2  0  0  0
 21 22  1  0  0  0
 22 23  2  0  0  0
 23 24  1  0  0  0
 23 25  1  0  0  0
 25 26  1  0  0  0
 25 27  2  0  0  0
 27 28  1  0  0  0
  3  4  2  0  0  0
  4  5  1  0  0  0
  5  6  2  0  0  0
  6  7  1  0  0  0
  7  8  1  0  0  0
  8  9  2  0  0  0
  9 10  1  0  0  0
 10 11  1  0  0  0
 10 12  1  0  0  0
  6  1  1  0  0  0
 12  7  2  0  0  0
 27 20  1  0  0  0
 16 17  1  0  0  0
 18 19  1  0  0  0
 26 29  1  0  0  0
M  END
> <minimizedAffinity>
-6.94085

> <CNNscore>
0.5047853589

> <CNNaffinity>
5.5206336975

> <CNN_VS>
2.7867350578

> <CNNaffinity_variance>
0.2249395847

$$$$
[H]Oc1c(F)c(N([H])c2nc([H])c(-c3c([H])nn(C([H])([H])[H])c3[H])c(N([H])C(=O)C([H])([H])[H])n2)c([H])c([H])c1Cl


 29 31  0  0  0  0  0  0  0  0999 V2000
   33.9116  -13.5833   36.6900 C   0  0  0  0  0  0  0  0  0  0  0  0
   34.1006  -14.9041   36.7421 N   0  0  0  0  0  0  0  0  0  0  0  0
   35.3412  -15.4873   36.6859 C   0  0  0  0  0  0  0  0  0  0  0  0
   36.3632  -14.6467   36.5745 N   0  0  0  0  0  0  0  0  0  0  0  0
   36.2475  -13.3210   36.5175 C   0  0  0  0  0  0  0  0  0  0  0  0
   34.9716  -12.7179   36.5758 C   0  0  0  0  0  0  0  0  0  0  0  0
   34.8642  -11.2812   36.5377 C   0  0  0  0  0  0  0  0  0  0  0  0
   34.0960  -10.4975   37.3598 C   0  0  0  0  0  0  0  0  0  0  0  0
   34.2316   -9.1910   37.0000 N   0  0  0  0  0  0  0  0  0  0  0  0
   35.0772   -9.1387   35.9590 N   0  0  0  0  0  0  0  0  0  0  0  0
   35.4384   -7.8888   35.3324 C   0  0  0  0  0  0  0  0  0  0  0  0
   35.4692  -10.4112   35.6691 C   0  0  0  0  0  0  0  0  0  0  0  0
   30.6291  -12.2180   38.1004 C   0  0  0  0  0  0  0  0  0  0  0  0
   32.0067  -12.7583   37.9842 C   0  0  0  0  0  0  0  0  0  0  0  0
   32.6479  -12.9456   39.0370 O   0  0  0  0  0  0  0  0  0  0  0  0
   32.5798  -13.0531   36.7279 N   0  0  0  0  0  0  0  0  0  0  0  0
   32.0047  -12.8789   35.8872 H   0  0  0  0  0  0  0  0  0  0  0  0
   35.4463  -16.8761   36.7471 N   0  0  0  0  0  0  0  0  0  0  0  0
   36.2435  -17.2266   37.4080 H   0  0  0  0  0  0  0  0  0  0  0  0
   34.6779  -17.8364   36.0850 C   0  0  0  0  0  0  0  0  0  0  0  0
   33.8002  -17.5889   35.0733 C   0  0  0  0  0  0  0  0  0  0  0  0
   33.0588  -18.6100   34.4533 C   0  0  0  0  0  0  0  0  0  0  0  0
   33.2043  -19.9122   34.8615 C   0  0  0  0  0  0  0  0  0  0  0  0
   32.3001  -21.2081   34.1154 Cl  0  0  0  0  0  0  0  0  0  0  0  0
   34.0938  -20.1497   35.8841 C   0  0  0  0  0  0  0  0  0  0  0  0
   34.2301  -21.4818   36.2878 O   0  0  0  0  0  0  0  0  0  0  0  0
   34.8176  -19.1824   36.4949 C   0  0  0  0  0  0  0  0  0  0  0  0
   35.6768  -19.5050   37.5005 F   0  0  0  0  0  0  0  0  0  0  0  0
   34.8545  -21.7684   37.0285 H   0  0  0  0  0  0  0  0  0  0  0  0
 13 14  1  0  0  0
 14 15  2  0  0  0
 14 16  1  0  0  0
 16  1  1  0  0  0
  1  2  2  0  0  0
  2  3  1  0  0  0
  3 18  1  0  0  0
 18 20  1  0  0  0
 20 21  2  0  0  0
 21 22  1  0  0  0
 22 23  2  0  0  0
 23 24  1  0  0  0
 23 25  1  0  0  0
 25 26  1  0  0  0
 25 27  2  0  0  0
 27 28  1  0  0  0
  3  4  2  0  0  0
  4  5  1  0  0  0
  5  6  2  0  0  0
  6  7  1  0  0  0
  7  8  1  0  0  0
  8  9  2  0  0  0
  9 10  1  0  0  0
 10 11  1  0  0  0
 10 12  1  0  0  0
  6  1  1  0  0  0
 12  7  2  0  0  0
 27 20  1  0  0  0
 16 17  1  0  0  0
 18 19  1  0  0  0
 26 29  1  0  0  0
M  END
> <minimizedAffinity>
-7.40717

> <CNNscore>
0.4452065229

> <CNNaffinity>
6.3438282013

> <CNN_VS>
2.8243136406

> <CNNaffinity_variance>
0.2066089213

$$$$
[H]Oc1c(F)c(N([H])c2nc([H])c(-c3c([H])nn(C([H])([H])[H])c3[H])c(N([H])C(=O)C([H])([H])[H])n2)c([H])c([H])c1Cl


 29 31  0  0  0  0  0  0  0  0999 V2000
   35.4614  -18.2282   35.8826 C   0  0  0  0  0  0  0  0  0  0  0  0
   34.6231  -19.0792   35.2859 N   0  0  0  0  0  0  0  0  0  0  0  0
   33.3913  -18.7085   34.8087 C   0  0  0  0  0  0  0  0  0  0  0  0
   33.0742  -17.4301   34.9776 N   0  0  0  0  0  0  0  0  0  0  0  0
   33.8606  -16.5282   35.5624 C   0  0  0  0  0  0  0  0  0  0  0  0
   35.1294  -16.9068   36.0541 C   0  0  0  0  0  0  0  0  0  0  0  0
   35.9790  -15.9143   36.6624 C   0  0  0  0  0  0  0  0  0  0  0  0
   36.3979  -15.8869   37.9679 C   0  0  0  0  0  0  0  0  0  0  0  0
   37.1630  -14.7799   38.1771 N   0  0  0  0  0  0  0  0  0  0  0  0
   37.2335  -14.1060   37.0185 N   0  0  0  0  0  0  0  0  0  0  0  0
   37.9769  -12.8738   36.8975 C   0  0  0  0  0  0  0  0  0  0  0  0
   36.5130  -14.7914   36.0869 C   0  0  0  0  0  0  0  0  0  0  0  0
   39.1769  -19.1313   35.9651 C   0  0  0  0  0  0  0  0  0  0  0  0
   37.8442  -18.6495   35.5237 C   0  0  0  0  0  0  0  0  0  0  0  0
   37.7447  -18.1949   34.3670 O   0  0  0  0  0  0  0  0  0  0  0  0
   36.7213  -18.7004   36.3782 N   0  0  0  0  0  0  0  0  0  0  0  0
   36.8593  -19.0864   37.3268 H   0  0  0  0  0  0  0  0  0  0  0  0
   32.5797  -19.6638   34.1985 N   0  0  0  0  0  0  0  0  0  0  0  0
   32.8833  -19.9091   33.1773 H   0  0  0  0  0  0  0  0  0  0  0  0
   31.4634  -20.3196   34.7229 C   0  0  0  0  0  0  0  0  0  0  0  0
   30.2755  -19.7326   35.0385 C   0  0  0  0  0  0  0  0  0  0  0  0
   29.1932  -20.4595   35.5648 C   0  0  0  0  0  0  0  0  0  0  0  0
   29.3092  -21.8101   35.7788 C   0  0  0  0  0  0  0  0  0  0  0  0
   27.9863  -22.7469   36.4314 Cl  0  0  0  0  0  0  0  0  0  0  0  0
   30.5137  -22.3916   35.4560 C   0  0  0  0  0  0  0  0  0  0  0  0
   30.6151  -23.7685   35.6800 O   0  0  0  0  0  0  0  0  0  0  0  0
   31.5684  -21.7114   34.9484 C   0  0  0  0  0  0  0  0  0  0  0  0
   32.7260  -22.3657   34.6564 F   0  0  0  0  0  0  0  0  0  0  0  0
   31.4530  -24.2958   35.4788 H   0  0  0  0  0  0  0  0  0  0  0  0
 13 14  1  0  0  0
 14 15  2  0  0  0
 14 16  1  0  0  0
 16  1  1  0  0  0
  1  2  2  0  0  0
  2  3  1  0  0  0
  3 18  1  0  0  0
 18 20  1  0  0  0
 20 21  2  0  0  0
 21 22  1  0  0  0
 22 23  2  0  0  0
 23 24  1  0  0  0
 23 25  1  0  0  0
 25 26  1  0  0  0
 25 27  2  0  0  0
 27 28  1  0  0  0
  3  4  2  0  0  0
  4  5  1  0  0  0
  5  6  2  0  0  0
  6  7  1  0  0  0
  7  8  1  0  0  0
  8  9  2  0  0  0
  9 10  1  0  0  0
 10 11  1  0  0  0
 10 12  1  0  0  0
  6  1  1  0  0  0
 12  7  2  0  0  0
 27 20  1  0  0  0
 16 17  1  0  0  0
 18 19  1  0  0  0
 26 29  1  0  0  0
M  END
> <minimizedAffinity>
-6.34320

> <CNNscore>
0.3796696663

> <CNNaffinity>
5.6649065018

> <CNN_VS>
2.1507930756

> <CNNaffinity_variance>
0.0435189866

$$$$
[H]Oc1c(F)c(N([H])c2nc([H])c(-c3c([H])nn(C([H])([H])[H])c3[H])c(N([H])C(=O)C([H])([H])[H])n2)c([H])c([H])c1Cl


 29 31  0  0  0  0  0  0  0  0999 V2000
   31.6136  -20.7077   36.1918 C   0  0  0  0  0  0  0  0  0  0  0  0
   32.5528  -19.8709   35.7438 N   0  0  0  0  0  0  0  0  0  0  0  0
   32.2940  -18.8599   34.8531 C   0  0  0  0  0  0  0  0  0  0  0  0
   31.0313  -18.7594   34.4541 N   0  0  0  0  0  0  0  0  0  0  0  0
   30.0456  -19.5580   34.8597 C   0  0  0  0  0  0  0  0  0  0  0  0
   30.3091  -20.5992   35.7771 C   0  0  0  0  0  0  0  0  0  0  0  0
   29.2276  -21.4396   36.2254 C   0  0  0  0  0  0  0  0  0  0  0  0
   28.4197  -21.2212   37.3117 C   0  0  0  0  0  0  0  0  0  0  0  0
   27.5331  -22.2477   37.4331 N   0  0  0  0  0  0  0  0  0  0  0  0
   27.7705  -23.1139   36.4356 N   0  0  0  0  0  0  0  0  0  0  0  0
   26.9970  -24.3229   36.2758 C   0  0  0  0  0  0  0  0  0  0  0  0
   28.8043  -22.6287   35.6922 C   0  0  0  0  0  0  0  0  0  0  0  0
   32.8043  -24.1158   37.4548 C   0  0  0  0  0  0  0  0  0  0  0  0
   32.4280  -22.9827   36.5730 C   0  0  0  0  0  0  0  0  0  0  0  0
   32.5285  -23.1471   35.3411 O   0  0  0  0  0  0  0  0  0  0  0  0
   31.9707  -21.7563   37.1024 N   0  0  0  0  0  0  0  0  0  0  0  0
   31.9065  -21.6735   38.1305 H   0  0  0  0  0  0  0  0  0  0  0  0
   33.3360  -18.0320   34.4382 N   0  0  0  0  0  0  0  0  0  0  0  0
   33.5205  -18.0659   33.3612 H   0  0  0  0  0  0  0  0  0  0  0  0
   34.1423  -17.1944   35.2124 C   0  0  0  0  0  0  0  0  0  0  0  0
   33.7677  -15.9917   35.7306 C   0  0  0  0  0  0  0  0  0  0  0  0
   34.6372  -15.2011   36.5025 C   0  0  0  0  0  0  0  0  0  0  0  0
   35.9147  -15.6315   36.7593 C   0  0  0  0  0  0  0  0  0  0  0  0
   37.0239  -14.6767   37.7143 Cl  0  0  0  0  0  0  0  0  0  0  0  0
   36.2813  -16.8478   36.2308 C   0  0  0  0  0  0  0  0  0  0  0  0
   37.5864  -17.2715   36.5020 O   0  0  0  0  0  0  0  0  0  0  0  0
   35.4611  -17.6250   35.4852 C   0  0  0  0  0  0  0  0  0  0  0  0
   35.9050  -18.8170   34.9999 F   0  0  0  0  0  0  0  0  0  0  0  0
   37.9592  -18.1473   36.1635 H   0  0  0  0  0  0  0  0  0  0  0  0
 13 14  1  0  0  0
 14 15  2  0  0  0
 14 16  1  0  0  0
 16  1  1  0  0  0
  1  2  2  0  0  0
  2  3  1  0  0  0
  3 18  1  0  0  0
 18 20  1  0  0  0
 20 21  2  0  0  0
 21 22  1  0  0  0
 22 23  2  0  0  0
 23 24  1  0  0  0
 23 25  1  0  0  0
 25 26  1  0  0  0
 25 27  2  0  0  0
 27 28  1  0  0  0
  3  4  2  0  0  0
  4  5  1  0  0  0
  5  6  2  0  0  0
  6  7  1  0  0  0
  7  8  1  0  0  0
  8  9  2  0  0  0
  9 10  1  0  0  0
 10 11  1  0  0  0
 10 12  1  0  0  0
  6  1  1  0  0  0
 12  7  2  0  0  0
 27 20  1  0  0  0
 16 17  1  0  0  0
 18 19  1  0  0  0
 26 29  1  0  0  0
M  END
> <minimizedAffinity>
-6.52164

> <CNNscore>
0.3727448881

> <CNNaffinity>
5.3931717873

> <CNN_VS>
2.0102772713

> <CNNaffinity_variance>
0.5569416881

$$$$
[H]Oc1c(F)c(N([H])c2nc([H])c(-c3c([H])nn(C([H])([H])[H])c3[H])c(N([H])C(=O)C([H])([H])[H])n2)c([H])c([H])c1Cl


 29 31  0  0  0  0  0  0  0  0999 V2000
   31.3493  -20.7961   36.4626 C   0  0  0  0  0  0  0  0  0  0  0  0
   32.2497  -19.8625   36.1453 N   0  0  0  0  0  0  0  0  0  0  0  0
   31.9752  -18.8080   35.3116 C   0  0  0  0  0  0  0  0  0  0  0  0
   30.7387  -18.7682   34.8288 N   0  0  0  0  0  0  0  0  0  0  0  0
   29.7920  -19.6639   35.1033 C   0  0  0  0  0  0  0  0  0  0  0  0
   30.0716  -20.7502   35.9617 C   0  0  0  0  0  0  0  0  0  0  0  0
   29.0299  -21.6975   36.2687 C   0  0  0  0  0  0  0  0  0  0  0  0
   28.1552  -21.6367   37.3230 C   0  0  0  0  0  0  0  0  0  0  0  0
   27.3370  -22.7251   37.2988 N   0  0  0  0  0  0  0  0  0  0  0  0
   27.6838  -23.4746   36.2408 N   0  0  0  0  0  0  0  0  0  0  0  0
   27.0052  -24.7100   35.9266 C   0  0  0  0  0  0  0  0  0  0  0  0
   28.7175  -22.8549   35.6050 C   0  0  0  0  0  0  0  0  0  0  0  0
   32.7355  -24.1845   37.5692 C   0  0  0  0  0  0  0  0  0  0  0  0
   32.3326  -23.0182   36.7443 C   0  0  0  0  0  0  0  0  0  0  0  0
   32.5501  -23.0713   35.5177 O   0  0  0  0  0  0  0  0  0  0  0  0
   31.7230  -21.8825   37.3206 N   0  0  0  0  0  0  0  0  0  0  0  0
   31.5661  -21.8905   38.3420 H   0  0  0  0  0  0  0  0  0  0  0  0
   32.9763  -17.8783   35.0341 N   0  0  0  0  0  0  0  0  0  0  0  0
   32.6050  -16.8571   34.9136 H   0  0  0  0  0  0  0  0  0  0  0  0
   34.3496  -18.0938   34.8972 C   0  0  0  0  0  0  0  0  0  0  0  0
   34.9313  -18.9746   34.0364 C   0  0  0  0  0  0  0  0  0  0  0  0
   36.3254  -19.1380   33.9547 C   0  0  0  0  0  0  0  0  0  0  0  0
   37.1543  -18.3968   34.7590 C   0  0  0  0  0  0  0  0  0  0  0  0
   38.8914  -18.5721   34.6862 Cl  0  0  0  0  0  0  0  0  0  0  0  0
   36.5550  -17.5105   35.6242 C   0  0  0  0  0  0  0  0  0  0  0  0
   37.4140  -16.7630   36.4364 O   0  0  0  0  0  0  0  0  0  0  0  0
   35.2158  -17.3370   35.7194 C   0  0  0  0  0  0  0  0  0  0  0  0
   34.7052  -16.4369   36.6041 F   0  0  0  0  0  0  0  0  0  0  0  0
   37.0812  -16.0843   37.1067 H   0  0  0  0  0  0  0  0  0  0  0  0
 13 14  1  0  0  0
 14 15  2  0  0  0
 14 16  1  0  0  0
 16  1  1  0  0  0
  1  2  2  0  0  0
  2  3  1  0  0  0
  3 18  1  0  0  0
 18 20  1  0  0  0
 20 21  2  0  0  0
 21 22  1  0  0  0
 22 23  2  0  0  0
 23 24  1  0  0  0
 23 25  1  0  0  0
 25 26  1  0  0  0
 25 27  2  0  0  0
 27 28  1  0  0  0
  3  4  2  0  0  0
  4  5  1  0  0  0
  5  6  2  0  0  0
  6  7  1  0  0  0
  7  8  1  0  0  0
  8  9  2  0  0  0
  9 10  1  0  0  0
 10 11  1  0  0  0
 10 12  1  0  0  0
  6  1  1  0  0  0
 12  7  2  0  0  0
 27 20  1  0  0  0
 16 17  1  0  0  0
 18 19  1  0  0  0
 26 29  1  0  0  0
M  END
> <minimizedAffinity>
-6.26076

> <CNNscore>
0.3718945682

> <CNNaffinity>
5.2849588394

> <CNN_VS>
1.9654475451

> <CNNaffinity_variance>
0.5909568071

$$$$
[H]Oc1c(F)c(N([H])c2nc([H])c(-c3c([H])nn(C([H])([H])[H])c3[H])c(N([H])C(=O)C([H])([H])[H])n2)c([H])c([H])c1Cl


 29 31  0  0  0  0  0  0  0  0999 V2000
   35.9096  -14.7343   36.0799 C   0  0  0  0  0  0  0  0  0  0  0  0
   36.0326  -16.0138   35.7185 N   0  0  0  0  0  0  0  0  0  0  0  0
   34.9589  -16.8481   35.5347 C   0  0  0  0  0  0  0  0  0  0  0  0
   33.7673  -16.2996   35.7409 N   0  0  0  0  0  0  0  0  0  0  0  0
   33.5717  -15.0325   36.1017 C   0  0  0  0  0  0  0  0  0  0  0  0
   34.6752  -14.1712   36.2911 C   0  0  0  0  0  0  0  0  0  0  0  0
   34.4465  -12.7963   36.6576 C   0  0  0  0  0  0  0  0  0  0  0  0
   33.5911  -12.3410   37.6277 C   0  0  0  0  0  0  0  0  0  0  0  0
   33.6247  -10.9799   37.6617 N   0  0  0  0  0  0  0  0  0  0  0  0
   34.4922  -10.5683   36.7239 N   0  0  0  0  0  0  0  0  0  0  0  0
   34.7629   -9.1678   36.4982 C   0  0  0  0  0  0  0  0  0  0  0  0
   34.9995  -11.6711   36.1048 C   0  0  0  0  0  0  0  0  0  0  0  0
   38.8825  -13.0945   37.8407 C   0  0  0  0  0  0  0  0  0  0  0  0
   37.6733  -13.9082   37.5601 C   0  0  0  0  0  0  0  0  0  0  0  0
   37.1899  -14.5728   38.4978 O   0  0  0  0  0  0  0  0  0  0  0  0
   37.0835  -13.9348   36.2775 N   0  0  0  0  0  0  0  0  0  0  0  0
   37.5246  -13.3656   35.5364 H   0  0  0  0  0  0  0  0  0  0  0  0
   35.1796  -18.1717   35.1566 N   0  0  0  0  0  0  0  0  0  0  0  0
   36.2158  -18.3810   34.8778 H   0  0  0  0  0  0  0  0  0  0  0  0
   34.2621  -19.2231   35.0950 C   0  0  0  0  0  0  0  0  0  0  0  0
   33.6171  -19.6470   33.9727 C   0  0  0  0  0  0  0  0  0  0  0  0
   32.7033  -20.7155   33.9879 C   0  0  0  0  0  0  0  0  0  0  0  0
   32.4321  -21.3734   35.1613 C   0  0  0  0  0  0  0  0  0  0  0  0
   31.3025  -22.7055   35.2198 Cl  0  0  0  0  0  0  0  0  0  0  0  0
   33.0897  -20.9362   36.2881 C   0  0  0  0  0  0  0  0  0  0  0  0
   32.8020  -21.6176   37.4752 O   0  0  0  0  0  0  0  0  0  0  0  0
   33.9729  -19.9103   36.2963 C   0  0  0  0  0  0  0  0  0  0  0  0
   34.5802  -19.5417   37.4578 F   0  0  0  0  0  0  0  0  0  0  0  0
   33.2277  -21.3799   38.3600 H   0  0  0  0  0  0  0  0  0  0  0  0
 13 14  1  0  0  0
 14 15  2  0  0  0
 14 16  1  0  0  0
 16  1  1  0  0  0
  1  2  2  0  0  0
  2  3  1  0  0  0
  3 18  1  0  0  0
 18 20  1  0  0  0
 20 21  2  0  0  0
 21 22  1  0  0  0
 22 23  2  0  0  0
 23 24  1  0  0  0
 23 25  1  0  0  0
 25 26  1  0  0  0
 25 27  2  0  0  0
 27 28  1  0  0  0
  3  4  2  0  0  0
  4  5  1  0  0  0
  5  6  2  0  0  0
  6  7  1  0  0  0
  7  8  1  0  0  0
  8  9  2  0  0  0
  9 10  1  0  0  0
 10 11  1  0  0  0
 10 12  1  0  0  0
  6  1  1  0  0  0
 12  7  2  0  0  0
 27 20  1  0  0  0
 16 17  1  0  0  0
 18 19  1  0  0  0
 26 29  1  0  0  0
M  END
> <minimizedAffinity>
-6.91114

> <CNNscore>
0.3654636145

> <CNNaffinity>
5.9774475098

> <CNN_VS>
2.1845395565

> <CNNaffinity_variance>
0.1031353027

$$$$
[H]Oc1c(F)c(N([H])c2nc([H])c(-c3c([H])nn(C([H])([H])[H])c3[H])c(N([H])C(=O)C([H])([H])[H])n2)c([H])c([H])c1Cl


 29 31  0  0  0  0  0  0  0  0999 V2000
   31.3941  -20.8395   36.5056 C   0  0  0  0  0  0  0  0  0  0  0  0
   32.3150  -19.9133   36.2279 N   0  0  0  0  0  0  0  0  0  0  0  0
   32.0791  -18.8452   35.3996 C   0  0  0  0  0  0  0  0  0  0  0  0
   30.8587  -18.7841   34.8797 N   0  0  0  0  0  0  0  0  0  0  0  0
   29.8932  -19.6713   35.1136 C   0  0  0  0  0  0  0  0  0  0  0  0
   30.1331  -20.7715   35.9663 C   0  0  0  0  0  0  0  0  0  0  0  0
   29.0710  -21.7095   36.2291 C   0  0  0  0  0  0  0  0  0  0  0  0
   28.1629  -21.6489   37.2548 C   0  0  0  0  0  0  0  0  0  0  0  0
   27.3335  -22.7273   37.1925 N   0  0  0  0  0  0  0  0  0  0  0  0
   27.7063  -23.4702   36.1386 N   0  0  0  0  0  0  0  0  0  0  0  0
   27.0243  -24.6943   35.7895 C   0  0  0  0  0  0  0  0  0  0  0  0
   28.7674  -22.8564   35.5436 C   0  0  0  0  0  0  0  0  0  0  0  0
   32.6956  -24.2622   37.6094 C   0  0  0  0  0  0  0  0  0  0  0  0
   32.3330  -23.0807   36.7874 C   0  0  0  0  0  0  0  0  0  0  0  0
   32.5804  -23.1246   35.5662 O   0  0  0  0  0  0  0  0  0  0  0  0
   31.7281  -21.9410   37.3607 N   0  0  0  0  0  0  0  0  0  0  0  0
   31.5453  -21.9571   38.3777 H   0  0  0  0  0  0  0  0  0  0  0  0
   33.0995  -17.9248   35.1649 N   0  0  0  0  0  0  0  0  0  0  0  0
   32.7448  -16.9679   34.7727 H   0  0  0  0  0  0  0  0  0  0  0  0
   34.4731  -18.0790   35.3657 C   0  0  0  0  0  0  0  0  0  0  0  0
   35.1939  -17.5182   36.3763 C   0  0  0  0  0  0  0  0  0  0  0  0
   36.5787  -17.7186   36.5143 C   0  0  0  0  0  0  0  0  0  0  0  0
   37.2546  -18.5026   35.6133 C   0  0  0  0  0  0  0  0  0  0  0  0
   38.9752  -18.7747   35.7519 Cl  0  0  0  0  0  0  0  0  0  0  0  0
   36.5158  -19.0637   34.5971 C   0  0  0  0  0  0  0  0  0  0  0  0
   37.2198  -19.8597   33.6878 O   0  0  0  0  0  0  0  0  0  0  0  0
   35.1826  -18.8843   34.4452 C   0  0  0  0  0  0  0  0  0  0  0  0
   34.5277  -19.4773   33.4093 F   0  0  0  0  0  0  0  0  0  0  0  0
   36.7768  -20.3192   32.9047 H   0  0  0  0  0  0  0  0  0  0  0  0
 13 14  1  0  0  0
 14 15  2  0  0  0
 14 16  1  0  0  0
 16  1  1  0  0  0
  1  2  2  0  0  0
  2  3  1  0  0  0
  3 18  1  0  0  0
 18 20  1  0  0  0
 20 21  2  0  0  0
 21 22  1  0  0  0
 22 23  2  0  0  0
 23 24  1  0  0  0
 23 25  1  0  0  0
 25 26  1  0  0  0
 25 27  2  0  0  0
 27 28  1  0  0  0
  3  4  2  0  0  0
  4  5  1  0  0  0
  5  6  2  0  0  0
  6  7  1  0  0  0
  7  8  1  0  0  0
  8  9  2  0  0  0
  9 10  1  0  0  0
 10 11  1  0  0  0
 10 12  1  0  0  0
  6  1  1  0  0  0
 12  7  2  0  0  0
 27 20  1  0  0  0
 16 17  1  0  0  0
 18 19  1  0  0  0
 26 29  1  0  0  0
M  END
> <minimizedAffinity>
-6.33258

> <CNNscore>
0.2805067003

> <CNNaffinity>
5.2711954117

> <CNN_VS>
1.4786056280

> <CNNaffinity_variance>
0.5837308764

$$$$
[H]Oc1c(F)c(N([H])c2nc([H])c(-c3c([H])nn(C([H])([H])[H])c3[H])c(N([H])C(=O)C([H])([H])[H])n2)c([H])c([H])c1Cl


 29 31  0  0  0  0  0  0  0  0999 V2000
   35.9109  -14.6609   36.0919 C   0  0  0  0  0  0  0  0  0  0  0  0
   36.0656  -15.9284   35.7012 N   0  0  0  0  0  0  0  0  0  0  0  0
   35.0128  -16.7829   35.4919 C   0  0  0  0  0  0  0  0  0  0  0  0
   33.8076  -16.2673   35.7043 N   0  0  0  0  0  0  0  0  0  0  0  0
   33.5806  -15.0140   36.0937 C   0  0  0  0  0  0  0  0  0  0  0  0
   34.6626  -14.1319   36.3094 C   0  0  0  0  0  0  0  0  0  0  0  0
   34.4000  -12.7718   36.7068 C   0  0  0  0  0  0  0  0  0  0  0  0
   33.5336  -12.3598   37.6866 C   0  0  0  0  0  0  0  0  0  0  0  0
   33.5335  -10.9995   37.7514 N   0  0  0  0  0  0  0  0  0  0  0  0
   34.3903  -10.5453   36.8234 N   0  0  0  0  0  0  0  0  0  0  0  0
   34.6262   -9.1339   36.6296 C   0  0  0  0  0  0  0  0  0  0  0  0
   34.9248  -11.6209   36.1798 C   0  0  0  0  0  0  0  0  0  0  0  0
   38.8798  -13.0506   37.8864 C   0  0  0  0  0  0  0  0  0  0  0  0
   37.6888  -13.8820   37.5806 C   0  0  0  0  0  0  0  0  0  0  0  0
   37.2523  -14.6251   38.4817 O   0  0  0  0  0  0  0  0  0  0  0  0
   37.0647  -13.8392   36.3148 N   0  0  0  0  0  0  0  0  0  0  0  0
   37.4674  -13.2062   35.6043 H   0  0  0  0  0  0  0  0  0  0  0  0
   35.2663  -18.0917   35.0841 N   0  0  0  0  0  0  0  0  0  0  0  0
   35.3949  -18.1969   34.0035 H   0  0  0  0  0  0  0  0  0  0  0  0
   35.3709  -19.2424   35.8689 C   0  0  0  0  0  0  0  0  0  0  0  0
   34.3709  -20.1382   36.0986 C   0  0  0  0  0  0  0  0  0  0  0  0
   34.5509  -21.2772   36.9031 C   0  0  0  0  0  0  0  0  0  0  0  0
   35.7669  -21.5205   37.4908 C   0  0  0  0  0  0  0  0  0  0  0  0
   36.0286  -22.9249   38.4972 Cl  0  0  0  0  0  0  0  0  0  0  0  0
   36.7691  -20.6087   37.2513 C   0  0  0  0  0  0  0  0  0  0  0  0
   38.0019  -20.8717   37.8574 O   0  0  0  0  0  0  0  0  0  0  0  0
   36.6181  -19.5060   36.4805 C   0  0  0  0  0  0  0  0  0  0  0  0
   37.6638  -18.6541   36.2954 F   0  0  0  0  0  0  0  0  0  0  0  0
   38.8052  -20.2688   37.7487 H   0  0  0  0  0  0  0  0  0  0  0  0
 13 14  1  0  0  0
 14 15  2  0  0  0
 14 16  1  0  0  0
 16  1  1  0  0  0
  1  2  2  0  0  0
  2  3  1  0  0  0
  3 18  1  0  0  0
 18 20  1  0  0  0
 20 21  2  0  0  0
 21 22  1  0  0  0
 22 23  2  0  0  0
 23 24  1  0  0  0
 23 25  1  0  0  0
 25 26  1  0  0  0
 25 27  2  0  0  0
 27 28  1  0  0  0
  3  4  2  0  0  0
  4  5  1  0  0  0
  5  6  2  0  0  0
  6  7  1  0  0  0
  7  8  1  0  0  0
  8  9  2  0  0  0
  9 10  1  0  0  0
 10 11  1  0  0  0
 10 12  1  0  0  0
  6  1  1  0  0  0
 12  7  2  0  0  0
 27 20  1  0  0  0
 16 17  1  0  0  0
 18 19  1  0  0  0
 26 29  1  0  0  0
M  END
> <minimizedAffinity>
-6.15139

> <CNNscore>
0.2422631681

> <CNNaffinity>
5.8704643250

> <CNN_VS>
1.4221973419

> <CNNaffinity_variance>
0.1800246090

$$$$
[H]c1c([H])c(C(=O)N2C([H])([H])C([H])([H])C([H])(N([H])C(=O)N([H])c3c([H])c([H])c(OC(F)(F)F)c([H])c3[H])C([H])([H])C2([H])[H])c([H])c([H])c1OC(F)(F)F


 36 38  0  0  0  0  0  0  0  0999 V2000
   35.4341  -22.5669   39.0292 C   0  0  0  0  0  0  0  0  0  0  0  0
   36.8994  -22.4508   38.5917 C   0  0  0  0  0  0  0  0  0  0  0  0
   36.9143  -23.1184   37.1972 C   0  0  0  0  0  0  0  0  0  0  0  0
   36.7965  -24.5367   37.4192 N   0  0  0  0  0  0  0  0  0  0  0  0
   36.1310  -24.8916   38.7086 C   0  0  0  0  0  0  0  0  0  0  0  0
   34.9249  -23.9405   38.7746 C   0  0  0  0  0  0  0  0  0  0  0  0
   37.1614  -25.5810   36.6009 C   0  0  0  0  0  0  0  0  0  0  0  0
   37.0322  -26.7729   37.1183 O   0  0  0  0  0  0  0  0  0  0  0  0
   34.3631  -21.0995   42.3688 N   0  0  0  0  0  0  0  0  0  0  0  0
   34.4278  -21.3493   41.0163 C   0  0  0  0  0  0  0  0  0  0  0  0
   33.6928  -20.8103   40.1701 O   0  0  0  0  0  0  0  0  0  0  0  0
   35.3789  -22.2806   40.4360 N   0  0  0  0  0  0  0  0  0  0  0  0
   35.0117  -21.6984   42.9974 H   0  0  0  0  0  0  0  0  0  0  0  0
   36.0478  -22.7502   41.0735 H   0  0  0  0  0  0  0  0  0  0  0  0
   31.8321  -18.4115   44.3632 C   0  0  0  0  0  0  0  0  0  0  0  0
   33.0937  -17.9924   44.0116 C   0  0  0  0  0  0  0  0  0  0  0  0
   33.9352  -18.8906   43.3433 C   0  0  0  0  0  0  0  0  0  0  0  0
   33.5694  -20.1699   43.0140 C   0  0  0  0  0  0  0  0  0  0  0  0
   32.2765  -20.5328   43.3986 C   0  0  0  0  0  0  0  0  0  0  0  0
   31.4081  -19.7113   44.0521 C   0  0  0  0  0  0  0  0  0  0  0  0
   30.9332  -17.6012   45.0345 O   0  0  0  0  0  0  0  0  0  0  0  0
   30.3899  -16.4373   43.1345 F   0  0  0  0  0  0  0  0  0  0  0  0
   29.9282  -16.8776   44.3594 C   0  0  0  0  0  0  0  0  0  0  0  0
   29.6269  -15.7870   45.1290 F   0  0  0  0  0  0  0  0  0  0  0  0
   28.7860  -17.6164   44.1225 F   0  0  0  0  0  0  0  0  0  0  0  0
   37.6678  -25.5484   35.2499 C   0  0  0  0  0  0  0  0  0  0  0  0
   37.1765  -26.4940   34.3189 C   0  0  0  0  0  0  0  0  0  0  0  0
   37.5549  -26.4801   33.0106 C   0  0  0  0  0  0  0  0  0  0  0  0
   38.4521  -25.5163   32.5406 C   0  0  0  0  0  0  0  0  0  0  0  0
   38.9295  -24.5977   33.4387 C   0  0  0  0  0  0  0  0  0  0  0  0
   38.5368  -24.6183   34.7808 C   0  0  0  0  0  0  0  0  0  0  0  0
   38.8591  -25.4734   31.1962 O   0  0  0  0  0  0  0  0  0  0  0  0
   40.2350  -25.7967   30.9972 C   0  0  0  0  0  0  0  0  0  0  0  0
   40.5162  -26.8619   31.8484 F   0  0  0  0  0  0  0  0  0  0  0  0
   40.3745  -26.2545   29.7072 F   0  0  0  0  0  0  0  0  0  0  0  0
   41.0620  -24.7266   31.1852 F   0  0  0  0  0  0  0  0  0  0  0  0
 22 23  1  0  0  0
 23 24  1  0  0  0
 23 25  1  0  0  0
 23 21  1  0  0  0
 21 15  1  0  0  0
 15 16  2  0  0  0
 16 17  1  0  0  0
 17 18  2  0  0  0
 18  9  1  0  0  0
  9 10  1  0  0  0
 10 11  2  0  0  0
 10 12  1  0  0  0
 12  1  1  0  0  0
  1  2  1  0  0  0
  2  3  1  0  0  0
  3  4  1  0  0  0
  4  5  1  0  0  0
  5  6  1  0  0  0
  4  7  1  0  0  0
  7  8  2  0  0  0
  7 26  1  0  0  0
 26 27  2  0  0  0
 27 28  1  0  0  0
 28 29  2  0  0  0
 29 32  1  0  0  0
 32 33  1  0  0  0
 33 34  1  0  0  0
 33 35  1  0  0  0
 33 36  1  0  0  0
 29 30  1  0  0  0
 30 31  2  0  0  0
 18 19  1  0  0  0
 19 20  2  0  0  0
 20 15  1  0  0  0
  6  1  1  0  0  0
 31 26  1  0  0  0
  9 13  1  0  0  0
 12 14  1  0  0  0
M  END
> <minimizedAffinity>
-3.68198

> <CNNscore>
0.6567775011

> <CNNaffinity>
4.9488077164

> <CNN_VS>
3.2502655983

> <CNNaffinity_variance>
0.7011299133

$$$$
[H]c1c([H])c(C(=O)N2C([H])([H])C([H])([H])C([H])(N([H])C(=O)N([H])c3c([H])c([H])c(OC(F)(F)F)c([H])c3[H])C([H])([H])C2([H])[H])c([H])c([H])c1OC(F)(F)F


 36 38  0  0  0  0  0  0  0  0999 V2000
   37.7986  -22.1486   38.9084 C   0  0  0  0  0  0  0  0  0  0  0  0
   39.1021  -21.4466   38.5086 C   0  0  0  0  0  0  0  0  0  0  0  0
   39.4322  -22.0568   37.1269 C   0  0  0  0  0  0  0  0  0  0  0  0
   39.8962  -23.3985   37.3703 N   0  0  0  0  0  0  0  0  0  0  0  0
   39.3928  -23.9878   38.6472 C   0  0  0  0  0  0  0  0  0  0  0  0
   37.9022  -23.6116   38.6642 C   0  0  0  0  0  0  0  0  0  0  0  0
   40.6810  -24.2069   36.5803 C   0  0  0  0  0  0  0  0  0  0  0  0
   41.0328  -25.3452   37.1147 O   0  0  0  0  0  0  0  0  0  0  0  0
   36.1688  -21.0854   42.1744 N   0  0  0  0  0  0  0  0  0  0  0  0
   36.3761  -21.2938   40.8293 C   0  0  0  0  0  0  0  0  0  0  0  0
   35.5625  -20.9849   39.9407 O   0  0  0  0  0  0  0  0  0  0  0  0
   37.5869  -21.9029   40.3080 N   0  0  0  0  0  0  0  0  0  0  0  0
   36.9289  -21.4749   42.8415 H   0  0  0  0  0  0  0  0  0  0  0  0
   38.3282  -22.1629   40.9842 H   0  0  0  0  0  0  0  0  0  0  0  0
   32.8720  -19.2681   44.0286 C   0  0  0  0  0  0  0  0  0  0  0  0
   33.9142  -18.4742   43.6107 C   0  0  0  0  0  0  0  0  0  0  0  0
   35.0118  -19.0830   42.9893 C   0  0  0  0  0  0  0  0  0  0  0  0
   35.1053  -20.4327   42.7690 C   0  0  0  0  0  0  0  0  0  0  0  0
   34.0146  -21.1819   43.2164 C   0  0  0  0  0  0  0  0  0  0  0  0
   32.9180  -20.6553   43.8295 C   0  0  0  0  0  0  0  0  0  0  0  0
   31.7506  -18.7609   44.6611 O   0  0  0  0  0  0  0  0  0  0  0  0
   30.9530  -17.8955   42.6927 F   0  0  0  0  0  0  0  0  0  0  0  0
   30.9395  -17.7710   44.0681 C   0  0  0  0  0  0  0  0  0  0  0  0
   31.4735  -16.5558   44.4007 F   0  0  0  0  0  0  0  0  0  0  0  0
   29.6197  -17.8307   44.4695 F   0  0  0  0  0  0  0  0  0  0  0  0
   41.1726  -23.9770   35.2431 C   0  0  0  0  0  0  0  0  0  0  0  0
   40.5137  -24.6074   34.1611 C   0  0  0  0  0  0  0  0  0  0  0  0
   40.8764  -24.3826   32.8676 C   0  0  0  0  0  0  0  0  0  0  0  0
   41.9250  -23.5088   32.5652 C   0  0  0  0  0  0  0  0  0  0  0  0
   42.5652  -22.8952   33.6102 C   0  0  0  0  0  0  0  0  0  0  0  0
   42.1875  -23.1309   34.9360 C   0  0  0  0  0  0  0  0  0  0  0  0
   42.3207  -23.2535   31.2411 O   0  0  0  0  0  0  0  0  0  0  0  0
   43.1216  -24.2860   30.6669 C   0  0  0  0  0  0  0  0  0  0  0  0
   43.7495  -24.9330   31.7277 F   0  0  0  0  0  0  0  0  0  0  0  0
   42.2728  -25.1941   30.0769 F   0  0  0  0  0  0  0  0  0  0  0  0
   43.9974  -23.8165   29.7304 F   0  0  0  0  0  0  0  0  0  0  0  0
 22 23  1  0  0  0
 23 24  1  0  0  0
 23 25  1  0  0  0
 23 21  1  0  0  0
 21 15  1  0  0  0
 15 16  2  0  0  0
 16 17  1  0  0  0
 17 18  2  0  0  0
 18  9  1  0  0  0
  9 10  1  0  0  0
 10 11  2  0  0  0
 10 12  1  0  0  0
 12  1  1  0  0  0
  1  2  1  0  0  0
  2  3  1  0  0  0
  3  4  1  0  0  0
  4  5  1  0  0  0
  5  6  1  0  0  0
  4  7  1  0  0  0
  7  8  2  0  0  0
  7 26  1  0  0  0
 26 27  2  0  0  0
 27 28  1  0  0  0
 28 29  2  0  0  0
 29 32  1  0  0  0
 32 33  1  0  0  0
 33 34  1  0  0  0
 33 35  1  0  0  0
 33 36  1  0  0  0
 29 30  1  0  0  0
 30 31  2  0  0  0
 18 19  1  0  0  0
 19 20  2  0  0  0
 20 15  1  0  0  0
  6  1  1  0  0  0
 31 26  1  0  0  0
  9 13  1  0  0  0
 12 14  1  0  0  0
M  END
> <minimizedAffinity>
-3.34542

> <CNNscore>
0.6511372328

> <CNNaffinity>
4.8717799187

> <CNN_VS>
3.1721973419

> <CNNaffinity_variance>
0.4561185837

$$$$
[H]c1c([H])c(C(=O)N2C([H])([H])C([H])([H])C([H])(N([H])C(=O)N([H])c3c([H])c([H])c(OC(F)(F)F)c([H])c3[H])C([H])([H])C2([H])[H])c([H])c([H])c1OC(F)(F)F


 36 38  0  0  0  0  0  0  0  0999 V2000
   36.7582  -21.8012   39.0192 C   0  0  0  0  0  0  0  0  0  0  0  0
   38.2830  -21.8333   38.8581 C   0  0  0  0  0  0  0  0  0  0  0  0
   38.4839  -22.3823   37.4267 C   0  0  0  0  0  0  0  0  0  0  0  0
   38.1749  -23.7882   37.4786 N   0  0  0  0  0  0  0  0  0  0  0  0
   37.2478  -24.1608   38.5890 C   0  0  0  0  0  0  0  0  0  0  0  0
   36.1600  -23.0755   38.5406 C   0  0  0  0  0  0  0  0  0  0  0  0
   38.5703  -24.7999   36.6340 C   0  0  0  0  0  0  0  0  0  0  0  0
   38.2198  -26.0045   36.9963 O   0  0  0  0  0  0  0  0  0  0  0  0
   35.0569  -20.7217   42.2430 N   0  0  0  0  0  0  0  0  0  0  0  0
   35.3376  -20.8642   40.9027 C   0  0  0  0  0  0  0  0  0  0  0  0
   34.6587  -20.3623   39.9893 O   0  0  0  0  0  0  0  0  0  0  0  0
   36.4747  -21.6253   40.4166 N   0  0  0  0  0  0  0  0  0  0  0  0
   35.6885  -21.2781   42.9258 H   0  0  0  0  0  0  0  0  0  0  0  0
   37.1077  -22.0518   41.1179 H   0  0  0  0  0  0  0  0  0  0  0  0
   31.9350  -18.5163   43.9747 C   0  0  0  0  0  0  0  0  0  0  0  0
   33.1952  -17.9668   43.9487 C   0  0  0  0  0  0  0  0  0  0  0  0
   34.2347  -18.7037   43.3673 C   0  0  0  0  0  0  0  0  0  0  0  0
   34.0657  -19.9472   42.8158 C   0  0  0  0  0  0  0  0  0  0  0  0
   32.7630  -20.4479   42.8742 C   0  0  0  0  0  0  0  0  0  0  0  0
   31.7076  -19.7865   43.4262 C   0  0  0  0  0  0  0  0  0  0  0  0
   30.8474  -17.8705   44.5362 O   0  0  0  0  0  0  0  0  0  0  0  0
   30.6122  -15.6217   44.1526 F   0  0  0  0  0  0  0  0  0  0  0  0
   30.1262  -16.8766   43.8423 C   0  0  0  0  0  0  0  0  0  0  0  0
   28.8247  -16.9548   44.2579 F   0  0  0  0  0  0  0  0  0  0  0  0
   30.1906  -17.0103   42.4695 F   0  0  0  0  0  0  0  0  0  0  0  0
   39.3185  -24.7211   35.4024 C   0  0  0  0  0  0  0  0  0  0  0  0
   40.7320  -24.7348   35.4661 C   0  0  0  0  0  0  0  0  0  0  0  0
   41.5033  -24.7344   34.3436 C   0  0  0  0  0  0  0  0  0  0  0  0
   40.9135  -24.7215   33.0760 C   0  0  0  0  0  0  0  0  0  0  0  0
   39.5447  -24.7094   33.0097 C   0  0  0  0  0  0  0  0  0  0  0  0
   38.7589  -24.7096   34.1667 C   0  0  0  0  0  0  0  0  0  0  0  0
   41.6818  -24.7241   31.8993 O   0  0  0  0  0  0  0  0  0  0  0  0
   42.0993  -23.4260   31.4775 C   0  0  0  0  0  0  0  0  0  0  0  0
   41.5716  -22.5244   32.3978 F   0  0  0  0  0  0  0  0  0  0  0  0
   43.4696  -23.3710   31.5887 F   0  0  0  0  0  0  0  0  0  0  0  0
   41.7424  -23.1485   30.1891 F   0  0  0  0  0  0  0  0  0  0  0  0
 22 23  1  0  0  0
 23 24  1  0  0  0
 23 25  1  0  0  0
 23 21  1  0  0  0
 21 15  1  0  0  0
 15 16  2  0  0  0
 16 17  1  0  0  0
 17 18  2  0  0  0
 18  9  1  0  0  0
  9 10  1  0  0  0
 10 11  2  0  0  0
 10 12  1  0  0  0
 12  1  1  0  0  0
  1  2  1  0  0  0
  2  3  1  0  0  0
  3  4  1  0  0  0
  4  5  1  0  0  0
  5  6  1  0  0  0
  4  7  1  0  0  0
  7  8  2  0  0  0
  7 26  1  0  0  0
 26 27  2  0  0  0
 27 28  1  0  0  0
 28 29  2  0  0  0
 29 32  1  0  0  0
 32 33  1  0  0  0
 33 34  1  0  0  0
 33 35  1  0  0  0
 33 36  1  0  0  0
 29 30  1  0  0  0
 30 31  2  0  0  0
 18 19  1  0  0  0
 19 20  2  0  0  0
 20 15  1  0  0  0
  6  1  1  0  0  0
 31 26  1  0  0  0
  9 13  1  0  0  0
 12 14  1  0  0  0
M  END
> <minimizedAffinity>
-3.76467

> <CNNscore>
0.6381368637

> <CNNaffinity>
4.8495249748

> <CNN_VS>
3.0946607590

> <CNNaffinity_variance>
0.4904144704

$$$$
[H]c1c([H])c(C(=O)N2C([H])([H])C([H])([H])C([H])(N([H])C(=O)N([H])c3c([H])c([H])c(OC(F)(F)F)c([H])c3[H])C([H])([H])C2([H])[H])c([H])c([H])c1OC(F)(F)F


 36 38  0  0  0  0  0  0  0  0999 V2000
   38.0682  -22.1437   38.7822 C   0  0  0  0  0  0  0  0  0  0  0  0
   36.9016  -22.8811   39.4508 C   0  0  0  0  0  0  0  0  0  0  0  0
   36.2007  -21.7768   40.2752 C   0  0  0  0  0  0  0  0  0  0  0  0
   37.0505  -21.5065   41.4064 N   0  0  0  0  0  0  0  0  0  0  0  0
   38.4869  -21.8451   41.1755 C   0  0  0  0  0  0  0  0  0  0  0  0
   38.7756  -21.2886   39.7717 C   0  0  0  0  0  0  0  0  0  0  0  0
   36.7323  -20.9466   42.6224 C   0  0  0  0  0  0  0  0  0  0  0  0
   37.6974  -20.9250   43.5016 O   0  0  0  0  0  0  0  0  0  0  0  0
   40.0338  -24.3136   36.3571 N   0  0  0  0  0  0  0  0  0  0  0  0
   39.1496  -23.3781   36.8454 C   0  0  0  0  0  0  0  0  0  0  0  0
   38.4277  -22.6593   36.1318 O   0  0  0  0  0  0  0  0  0  0  0  0
   38.9687  -23.1370   38.2660 N   0  0  0  0  0  0  0  0  0  0  0  0
   40.6549  -24.8137   37.0912 H   0  0  0  0  0  0  0  0  0  0  0  0
   39.5142  -23.7175   38.9292 H   0  0  0  0  0  0  0  0  0  0  0  0
   40.4708  -25.5982   32.3862 C   0  0  0  0  0  0  0  0  0  0  0  0
   40.9840  -24.3735   32.7435 C   0  0  0  0  0  0  0  0  0  0  0  0
   40.8394  -23.9487   34.0702 C   0  0  0  0  0  0  0  0  0  0  0  0
   40.2155  -24.6902   35.0397 C   0  0  0  0  0  0  0  0  0  0  0  0
   39.7173  -25.9231   34.6122 C   0  0  0  0  0  0  0  0  0  0  0  0
   39.8209  -26.3961   33.3387 C   0  0  0  0  0  0  0  0  0  0  0  0
   40.5546  -26.0992   31.0990 O   0  0  0  0  0  0  0  0  0  0  0  0
   39.5291  -26.6369   29.1194 F   0  0  0  0  0  0  0  0  0  0  0  0
   39.7134  -25.6446   30.0621 C   0  0  0  0  0  0  0  0  0  0  0  0
   40.3419  -24.5866   29.4638 F   0  0  0  0  0  0  0  0  0  0  0  0
   38.4612  -25.2615   30.5002 F   0  0  0  0  0  0  0  0  0  0  0  0
   35.4823  -20.3787   43.0670 C   0  0  0  0  0  0  0  0  0  0  0  0
   34.8542  -20.9318   44.2079 C   0  0  0  0  0  0  0  0  0  0  0  0
   33.7107  -20.4047   44.7271 C   0  0  0  0  0  0  0  0  0  0  0  0
   33.1147  -19.2841   44.1407 C   0  0  0  0  0  0  0  0  0  0  0  0
   33.7203  -18.7444   43.0360 C   0  0  0  0  0  0  0  0  0  0  0  0
   34.8944  -19.2913   42.5082 C   0  0  0  0  0  0  0  0  0  0  0  0
   31.9370  -18.7150   44.6545 O   0  0  0  0  0  0  0  0  0  0  0  0
   30.7706  -19.0037   43.8843 C   0  0  0  0  0  0  0  0  0  0  0  0
   29.6856  -18.8643   44.7455 F   0  0  0  0  0  0  0  0  0  0  0  0
   30.6556  -18.0302   42.9187 F   0  0  0  0  0  0  0  0  0  0  0  0
   30.8243  -20.2282   43.2824 F   0  0  0  0  0  0  0  0  0  0  0  0
 22 23  1  0  0  0
 23 24  1  0  0  0
 23 25  1  0  0  0
 23 21  1  0  0  0
 21 15  1  0  0  0
 15 16  2  0  0  0
 16 17  1  0  0  0
 17 18  2  0  0  0
 18  9  1  0  0  0
  9 10  1  0  0  0
 10 11  2  0  0  0
 10 12  1  0  0  0
 12  1  1  0  0  0
  1  2  1  0  0  0
  2  3  1  0  0  0
  3  4  1  0  0  0
  4  5  1  0  0  0
  5  6  1  0  0  0
  4  7  1  0  0  0
  7  8  2  0  0  0
  7 26  1  0  0  0
 26 27  2  0  0  0
 27 28  1  0  0  0
 28 29  2  0  0  0
 29 32  1  0  0  0
 32 33  1  0  0  0
 33 34  1  0  0  0
 33 35  1  0  0  0
 33 36  1  0  0  0
 29 30  1  0  0  0
 30 31  2  0  0  0
 18 19  1  0  0  0
 19 20  2  0  0  0
 20 15  1  0  0  0
  6  1  1  0  0  0
 31 26  1  0  0  0
  9 13  1  0  0  0
 12 14  1  0  0  0
M  END
> <minimizedAffinity>
-3.62952

> <CNNscore>
0.6071007252

> <CNNaffinity>
4.7699604034

> <CNN_VS>
2.8958463669

> <CNNaffinity_variance>
0.3347369432

$$$$
[H]c1c([H])c(C(=O)N2C([H])([H])C([H])([H])C([H])(N([H])C(=O)N([H])c3c([H])c([H])c(OC(F)(F)F)c([H])c3[H])C([H])([H])C2([H])[H])c([H])c([H])c1OC(F)(F)F


 36 38  0  0  0  0  0  0  0  0999 V2000
   36.2515  -21.1527   38.6238 C   0  0  0  0  0  0  0  0  0  0  0  0
   35.4290  -20.3650   37.5966 C   0  0  0  0  0  0  0  0  0  0  0  0
   33.9888  -20.8844   37.8117 C   0  0  0  0  0  0  0  0  0  0  0  0
   33.9428  -22.2116   37.2537 N   0  0  0  0  0  0  0  0  0  0  0  0
   35.2719  -22.8918   37.2066 C   0  0  0  0  0  0  0  0  0  0  0  0
   35.8873  -22.5937   38.5836 C   0  0  0  0  0  0  0  0  0  0  0  0
   32.8586  -22.9363   36.8150 C   0  0  0  0  0  0  0  0  0  0  0  0
   33.1375  -24.0815   36.2530 O   0  0  0  0  0  0  0  0  0  0  0  0
   40.0327  -20.9049   38.9307 N   0  0  0  0  0  0  0  0  0  0  0  0
   38.7040  -21.0337   39.2679 C   0  0  0  0  0  0  0  0  0  0  0  0
   38.2902  -21.1941   40.4298 O   0  0  0  0  0  0  0  0  0  0  0  0
   37.6378  -20.9916   38.2829 N   0  0  0  0  0  0  0  0  0  0  0  0
   40.2541  -20.8489   37.8712 H   0  0  0  0  0  0  0  0  0  0  0  0
   37.8991  -20.8315   37.2927 H   0  0  0  0  0  0  0  0  0  0  0  0
   43.3504  -20.8682   41.4999 C   0  0  0  0  0  0  0  0  0  0  0  0
   42.7443  -19.6739   41.1883 C   0  0  0  0  0  0  0  0  0  0  0  0
   41.6353  -19.6894   40.3330 C   0  0  0  0  0  0  0  0  0  0  0  0
   41.1139  -20.8344   39.7889 C   0  0  0  0  0  0  0  0  0  0  0  0
   41.7747  -22.0124   40.1450 C   0  0  0  0  0  0  0  0  0  0  0  0
   42.8585  -22.0689   40.9685 C   0  0  0  0  0  0  0  0  0  0  0  0
   44.4569  -20.9536   42.3265 O   0  0  0  0  0  0  0  0  0  0  0  0
   45.2545  -20.5864   44.4452 F   0  0  0  0  0  0  0  0  0  0  0  0
   44.3492  -21.3041   43.6885 C   0  0  0  0  0  0  0  0  0  0  0  0
   44.6539  -22.6343   43.7906 F   0  0  0  0  0  0  0  0  0  0  0  0
   43.0965  -21.0664   44.2184 F   0  0  0  0  0  0  0  0  0  0  0  0
   31.4541  -22.6121   36.8867 C   0  0  0  0  0  0  0  0  0  0  0  0
   30.6591  -23.2550   37.8649 C   0  0  0  0  0  0  0  0  0  0  0  0
   29.3434  -22.9489   38.0384 C   0  0  0  0  0  0  0  0  0  0  0  0
   28.7297  -21.9751   37.2446 C   0  0  0  0  0  0  0  0  0  0  0  0
   29.4963  -21.3490   36.2967 C   0  0  0  0  0  0  0  0  0  0  0  0
   30.8469  -21.6688   36.1240 C   0  0  0  0  0  0  0  0  0  0  0  0
   27.3753  -21.6345   37.4014 O   0  0  0  0  0  0  0  0  0  0  0  0
   27.1537  -20.5314   38.2796 C   0  0  0  0  0  0  0  0  0  0  0  0
   27.3841  -19.3802   37.5315 F   0  0  0  0  0  0  0  0  0  0  0  0
   25.8224  -20.5351   38.6276 F   0  0  0  0  0  0  0  0  0  0  0  0
   27.9134  -20.5966   39.4123 F   0  0  0  0  0  0  0  0  0  0  0  0
 22 23  1  0  0  0
 23 24  1  0  0  0
 23 25  1  0  0  0
 23 21  1  0  0  0
 21 15  1  0  0  0
 15 16  2  0  0  0
 16 17  1  0  0  0
 17 18  2  0  0  0
 18  9  1  0  0  0
  9 10  1  0  0  0
 10 11  2  0  0  0
 10 12  1  0  0  0
 12  1  1  0  0  0
  1  2  1  0  0  0
  2  3  1  0  0  0
  3  4  1  0  0  0
  4  5  1  0  0  0
  5  6  1  0  0  0
  4  7  1  0  0  0
  7  8  2  0  0  0
  7 26  1  0  0  0
 26 27  2  0  0  0
 27 28  1  0  0  0
 28 29  2  0  0  0
 29 32  1  0  0  0
 32 33  1  0  0  0
 33 34  1  0  0  0
 33 35  1  0  0  0
 33 36  1  0  0  0
 29 30  1  0  0  0
 30 31  2  0  0  0
 18 19  1  0  0  0
 19 20  2  0  0  0
 20 15  1  0  0  0
  6  1  1  0  0  0
 31 26  1  0  0  0
  9 13  1  0  0  0
 12 14  1  0  0  0
M  END
> <minimizedAffinity>
-4.16278

> <CNNscore>
0.5907294154

> <CNNaffinity>
4.6497812271

> <CNN_VS>
2.7467625141

> <CNNaffinity_variance>
0.0644693598

$$$$
[H]c1c([H])c(C(=O)N2C([H])([H])C([H])([H])C([H])(N([H])C(=O)N([H])c3c([H])c([H])c(OC(F)(F)F)c([H])c3[H])C([H])([H])C2([H])[H])c([H])c([H])c1OC(F)(F)F


 36 38  0  0  0  0  0  0  0  0999 V2000
   36.3286  -22.3609   38.9809 C   0  0  0  0  0  0  0  0  0  0  0  0
   35.2437  -23.0430   39.8234 C   0  0  0  0  0  0  0  0  0  0  0  0
   34.5528  -21.8638   40.5463 C   0  0  0  0  0  0  0  0  0  0  0  0
   35.4648  -21.4164   41.5674 N   0  0  0  0  0  0  0  0  0  0  0  0
   36.8957  -21.7327   41.2779 C   0  0  0  0  0  0  0  0  0  0  0  0
   37.0634  -21.3580   39.7963 C   0  0  0  0  0  0  0  0  0  0  0  0
   35.2058  -20.7113   42.7203 C   0  0  0  0  0  0  0  0  0  0  0  0
   36.2267  -20.5396   43.5161 O   0  0  0  0  0  0  0  0  0  0  0  0
   38.8306  -24.2809   36.8580 N   0  0  0  0  0  0  0  0  0  0  0  0
   37.9436  -23.3112   37.2684 C   0  0  0  0  0  0  0  0  0  0  0  0
   37.6634  -22.2955   36.6074 O   0  0  0  0  0  0  0  0  0  0  0  0
   37.2346  -23.3823   38.5337 N   0  0  0  0  0  0  0  0  0  0  0  0
   39.0374  -25.0719   37.5695 H   0  0  0  0  0  0  0  0  0  0  0  0
   37.3918  -24.2147   39.1310 H   0  0  0  0  0  0  0  0  0  0  0  0
   40.9702  -24.5239   33.2563 C   0  0  0  0  0  0  0  0  0  0  0  0
   39.6099  -24.7230   33.2301 C   0  0  0  0  0  0  0  0  0  0  0  0
   38.8978  -24.6383   34.4331 C   0  0  0  0  0  0  0  0  0  0  0  0
   39.4824  -24.3625   35.6419 C   0  0  0  0  0  0  0  0  0  0  0  0
   40.8654  -24.1705   35.5999 C   0  0  0  0  0  0  0  0  0  0  0  0
   41.6187  -24.2408   34.4669 C   0  0  0  0  0  0  0  0  0  0  0  0
   41.7604  -24.5977   32.1226 O   0  0  0  0  0  0  0  0  0  0  0  0
   43.6485  -23.3620   31.7128 F   0  0  0  0  0  0  0  0  0  0  0  0
   42.2865  -23.4466   31.5001 C   0  0  0  0  0  0  0  0  0  0  0  0
   41.6869  -22.3616   32.0798 F   0  0  0  0  0  0  0  0  0  0  0  0
   42.0853  -23.4214   30.1343 F   0  0  0  0  0  0  0  0  0  0  0  0
   33.9652  -20.1330   43.1776 C   0  0  0  0  0  0  0  0  0  0  0  0
   33.9429  -18.7603   43.5202 C   0  0  0  0  0  0  0  0  0  0  0  0
   32.7945  -18.1295   43.8921 C   0  0  0  0  0  0  0  0  0  0  0  0
   31.5851  -18.8289   43.9464 C   0  0  0  0  0  0  0  0  0  0  0  0
   31.6019  -20.1585   43.6142 C   0  0  0  0  0  0  0  0  0  0  0  0
   32.7851  -20.7998   43.2335 C   0  0  0  0  0  0  0  0  0  0  0  0
   30.3831  -18.2059   44.3229 O   0  0  0  0  0  0  0  0  0  0  0  0
   29.5510  -17.8403   43.2224 C   0  0  0  0  0  0  0  0  0  0  0  0
   28.7918  -16.7533   43.6470 F   0  0  0  0  0  0  0  0  0  0  0  0
   30.3693  -17.3982   42.2084 F   0  0  0  0  0  0  0  0  0  0  0  0
   28.7920  -18.8793   42.7655 F   0  0  0  0  0  0  0  0  0  0  0  0
 22 23  1  0  0  0
 23 24  1  0  0  0
 23 25  1  0  0  0
 23 21  1  0  0  0
 21 15  1  0  0  0
 15 16  2  0  0  0
 16 17  1  0  0  0
 17 18  2  0  0  0
 18  9  1  0  0  0
  9 10  1  0  0  0
 10 11  2  0  0  0
 10 12  1  0  0  0
 12  1  1  0  0  0
  1  2  1  0  0  0
  2  3  1  0  0  0
  3  4  1  0  0  0
  4  5  1  0  0  0
  5  6  1  0  0  0
  4  7  1  0  0  0
  7  8  2  0  0  0
  7 26  1  0  0  0
 26 27  2  0  0  0
 27 28  1  0  0  0
 28 29  2  0  0  0
 29 32  1  0  0  0
 32 33  1  0  0  0
 33 34  1  0  0  0
 33 35  1  0  0  0
 33 36  1  0  0  0
 29 30  1  0  0  0
 30 31  2  0  0  0
 18 19  1  0  0  0
 19 20  2  0  0  0
 20 15  1  0  0  0
  6  1  1  0  0  0
 31 26  1  0  0  0
  9 13  1  0  0  0
 12 14  1  0  0  0
M  END
> <minimizedAffinity>
-3.51224

> <CNNscore>
0.5882062912

> <CNNaffinity>
4.7746281624

> <CNN_VS>
2.8084664345

> <CNNaffinity_variance>
0.4895516932

$$$$
[H]c1c([H])c(C(=O)N2C([H])([H])C([H])([H])C([H])(N([H])C(=O)N([H])c3c([H])c([H])c(OC(F)(F)F)c([H])c3[H])C([H])([H])C2([H])[H])c([H])c([H])c1OC(F)(F)F


 36 38  0  0  0  0  0  0  0  0999 V2000
   38.1362  -21.7901   38.8111 C   0  0  0  0  0  0  0  0  0  0  0  0
   36.8490  -22.4702   39.2934 C   0  0  0  0  0  0  0  0  0  0  0  0
   36.2463  -21.4444   40.2808 C   0  0  0  0  0  0  0  0  0  0  0  0
   37.0561  -21.4945   41.4708 N   0  0  0  0  0  0  0  0  0  0  0  0
   38.4494  -21.9771   41.2317 C   0  0  0  0  0  0  0  0  0  0  0  0
   38.8870  -21.2259   39.9637 C   0  0  0  0  0  0  0  0  0  0  0  0
   36.7408  -21.1202   42.7569 C   0  0  0  0  0  0  0  0  0  0  0  0
   37.6483  -21.3838   43.6580 O   0  0  0  0  0  0  0  0  0  0  0  0
   40.3177  -23.5383   36.2347 N   0  0  0  0  0  0  0  0  0  0  0  0
   39.5336  -22.5867   36.8473 C   0  0  0  0  0  0  0  0  0  0  0  0
   39.2638  -21.4785   36.3512 O   0  0  0  0  0  0  0  0  0  0  0  0
   38.9327  -22.7889   38.1537 N   0  0  0  0  0  0  0  0  0  0  0  0
   40.5334  -24.4271   36.8163 H   0  0  0  0  0  0  0  0  0  0  0  0
   39.0866  -23.7007   38.6219 H   0  0  0  0  0  0  0  0  0  0  0  0
   41.8207  -23.5104   32.3169 C   0  0  0  0  0  0  0  0  0  0  0  0
   42.3214  -22.6042   33.2219 C   0  0  0  0  0  0  0  0  0  0  0  0
   41.8202  -22.6178   34.5296 C   0  0  0  0  0  0  0  0  0  0  0  0
   40.8561  -23.4908   34.9626 C   0  0  0  0  0  0  0  0  0  0  0  0
   40.3904  -24.3846   33.9955 C   0  0  0  0  0  0  0  0  0  0  0  0
   40.8316  -24.4244   32.7072 C   0  0  0  0  0  0  0  0  0  0  0  0
   42.2446  -23.5673   31.0008 O   0  0  0  0  0  0  0  0  0  0  0  0
   43.6605  -24.0738   29.2693 F   0  0  0  0  0  0  0  0  0  0  0  0
   43.5030  -24.0932   30.6412 C   0  0  0  0  0  0  0  0  0  0  0  0
   43.5355  -25.3939   31.0652 F   0  0  0  0  0  0  0  0  0  0  0  0
   44.5640  -23.3951   31.1829 F   0  0  0  0  0  0  0  0  0  0  0  0
   35.5487  -20.4767   43.2542 C   0  0  0  0  0  0  0  0  0  0  0  0
   34.7320  -21.1788   44.1719 C   0  0  0  0  0  0  0  0  0  0  0  0
   33.6310  -20.6105   44.7373 C   0  0  0  0  0  0  0  0  0  0  0  0
   33.2696  -19.2966   44.4245 C   0  0  0  0  0  0  0  0  0  0  0  0
   34.0585  -18.6123   43.5369 C   0  0  0  0  0  0  0  0  0  0  0  0
   35.1876  -19.2025   42.9600 C   0  0  0  0  0  0  0  0  0  0  0  0
   32.1416  -18.6810   44.9934 O   0  0  0  0  0  0  0  0  0  0  0  0
   31.0156  -18.6143   44.1188 C   0  0  0  0  0  0  0  0  0  0  0  0
   29.8910  -18.5074   44.9324 F   0  0  0  0  0  0  0  0  0  0  0  0
   31.1139  -17.4456   43.3992 F   0  0  0  0  0  0  0  0  0  0  0  0
   30.9544  -19.6694   43.2544 F   0  0  0  0  0  0  0  0  0  0  0  0
 22 23  1  0  0  0
 23 24  1  0  0  0
 23 25  1  0  0  0
 23 21  1  0  0  0
 21 15  1  0  0  0
 15 16  2  0  0  0
 16 17  1  0  0  0
 17 18  2  0  0  0
 18  9  1  0  0  0
  9 10  1  0  0  0
 10 11  2  0  0  0
 10 12  1  0  0  0
 12  1  1  0  0  0
  1  2  1  0  0  0
  2  3  1  0  0  0
  3  4  1  0  0  0
  4  5  1  0  0  0
  5  6  1  0  0  0
  4  7  1  0  0  0
  7  8  2  0  0  0
  7 26  1  0  0  0
 26 27  2  0  0  0
 27 28  1  0  0  0
 28 29  2  0  0  0
 29 32  1  0  0  0
 32 33  1  0  0  0
 33 34  1  0  0  0
 33 35  1  0  0  0
 33 36  1  0  0  0
 29 30  1  0  0  0
 30 31  2  0  0  0
 18 19  1  0  0  0
 19 20  2  0  0  0
 20 15  1  0  0  0
  6  1  1  0  0  0
 31 26  1  0  0  0
  9 13  1  0  0  0
 12 14  1  0  0  0
M  END
> <minimizedAffinity>
-3.54522

> <CNNscore>
0.5799223185

> <CNNaffinity>
4.6716308594

> <CNN_VS>
2.7091829777

> <CNNaffinity_variance>
0.2862493396

$$$$
[H]c1c([H])c(C(=O)N2C([H])([H])C([H])([H])C([H])(N([H])C(=O)N([H])c3c([H])c([H])c(OC(F)(F)F)c([H])c3[H])C([H])([H])C2([H])[H])c([H])c([H])c1OC(F)(F)F


 36 38  0  0  0  0  0  0  0  0999 V2000
   41.1737  -21.2862   37.8328 C   0  0  0  0  0  0  0  0  0  0  0  0
   40.0808  -22.2815   38.2412 C   0  0  0  0  0  0  0  0  0  0  0  0
   39.2939  -21.5252   39.3363 C   0  0  0  0  0  0  0  0  0  0  0  0
   40.1265  -21.5206   40.5116 N   0  0  0  0  0  0  0  0  0  0  0  0
   41.5849  -21.6548   40.2176 C   0  0  0  0  0  0  0  0  0  0  0  0
   41.8127  -20.6952   39.0382 C   0  0  0  0  0  0  0  0  0  0  0  0
   39.7711  -21.3639   41.8317 C   0  0  0  0  0  0  0  0  0  0  0  0
   40.7380  -21.5141   42.6963 O   0  0  0  0  0  0  0  0  0  0  0  0
   42.9685  -22.9316   34.9131 N   0  0  0  0  0  0  0  0  0  0  0  0
   42.0140  -22.2616   35.6450 C   0  0  0  0  0  0  0  0  0  0  0  0
   40.9547  -21.8155   35.1698 O   0  0  0  0  0  0  0  0  0  0  0  0
   42.1525  -22.0084   37.0681 N   0  0  0  0  0  0  0  0  0  0  0  0
   43.8776  -23.1958   35.4407 H   0  0  0  0  0  0  0  0  0  0  0  0
   42.9963  -22.3748   37.5456 H   0  0  0  0  0  0  0  0  0  0  0  0
   42.6546  -23.9240   30.8479 C   0  0  0  0  0  0  0  0  0  0  0  0
   43.5011  -24.6602   31.6431 C   0  0  0  0  0  0  0  0  0  0  0  0
   43.6016  -24.3288   33.0001 C   0  0  0  0  0  0  0  0  0  0  0  0
   42.8969  -23.3090   33.5853 C   0  0  0  0  0  0  0  0  0  0  0  0
   42.0556  -22.6011   32.7239 C   0  0  0  0  0  0  0  0  0  0  0  0
   41.9120  -22.8683   31.3957 C   0  0  0  0  0  0  0  0  0  0  0  0
   42.4958  -24.1681   29.4950 O   0  0  0  0  0  0  0  0  0  0  0  0
   41.2439  -24.7380   27.6600 F   0  0  0  0  0  0  0  0  0  0  0  0
   41.4661  -24.9943   28.9987 C   0  0  0  0  0  0  0  0  0  0  0  0
   40.3288  -24.6882   29.6955 F   0  0  0  0  0  0  0  0  0  0  0  0
   41.7406  -26.3425   29.1152 F   0  0  0  0  0  0  0  0  0  0  0  0
   38.4804  -21.0567   42.3995 C   0  0  0  0  0  0  0  0  0  0  0  0
   38.4252  -20.2488   43.5598 C   0  0  0  0  0  0  0  0  0  0  0  0
   37.2420  -19.8597   44.1107 C   0  0  0  0  0  0  0  0  0  0  0  0
   36.0283  -20.2512   43.5375 C   0  0  0  0  0  0  0  0  0  0  0  0
   36.0771  -21.0328   42.4128 C   0  0  0  0  0  0  0  0  0  0  0  0
   37.2959  -21.4289   41.8527 C   0  0  0  0  0  0  0  0  0  0  0  0
   34.7913  -19.8634   44.0801 O   0  0  0  0  0  0  0  0  0  0  0  0
   34.1405  -18.8226   43.3519 C   0  0  0  0  0  0  0  0  0  0  0  0
   33.2660  -19.4482   42.4676 F   0  0  0  0  0  0  0  0  0  0  0  0
   33.3778  -18.1030   44.2429 F   0  0  0  0  0  0  0  0  0  0  0  0
   35.0196  -17.9813   42.7324 F   0  0  0  0  0  0  0  0  0  0  0  0
 22 23  1  0  0  0
 23 24  1  0  0  0
 23 25  1  0  0  0
 23 21  1  0  0  0
 21 15  1  0  0  0
 15 16  2  0  0  0
 16 17  1  0  0  0
 17 18  2  0  0  0
 18  9  1  0  0  0
  9 10  1  0  0  0
 10 11  2  0  0  0
 10 12  1  0  0  0
 12  1  1  0  0  0
  1  2  1  0  0  0
  2  3  1  0  0  0
  3  4  1  0  0  0
  4  5  1  0  0  0
  5  6  1  0  0  0
  4  7  1  0  0  0
  7  8  2  0  0  0
  7 26  1  0  0  0
 26 27  2  0  0  0
 27 28  1  0  0  0
 28 29  2  0  0  0
 29 32  1  0  0  0
 32 33  1  0  0  0
 33 34  1  0  0  0
 33 35  1  0  0  0
 33 36  1  0  0  0
 29 30  1  0  0  0
 30 31  2  0  0  0
 18 19  1  0  0  0
 19 20  2  0  0  0
 20 15  1  0  0  0
  6  1  1  0  0  0
 31 26  1  0  0  0
  9 13  1  0  0  0
 12 14  1  0  0  0
M  END
> <minimizedAffinity>
-3.80857

> <CNNscore>
0.5798801780

> <CNNaffinity>
4.8712301254

> <CNN_VS>
2.8247296810

> <CNNaffinity_variance>
0.4385403097

$$$$
[H]c1c([H])c(C(=O)N2C([H])([H])C([H])([H])C([H])(N([H])C(=O)N([H])c3c([H])c([H])c(OC(F)(F)F)c([H])c3[H])C([H])([H])C2([H])[H])c([H])c([H])c1OC(F)(F)F


 36 38  0  0  0  0  0  0  0  0999 V2000
   39.1423  -21.8565   37.1201 C   0  0  0  0  0  0  0  0  0  0  0  0
   38.2139  -22.9528   37.6568 C   0  0  0  0  0  0  0  0  0  0  0  0
   37.1999  -22.1741   38.5262 C   0  0  0  0  0  0  0  0  0  0  0  0
   37.8992  -21.7839   39.7234 N   0  0  0  0  0  0  0  0  0  0  0  0
   39.3792  -21.6804   39.5502 C   0  0  0  0  0  0  0  0  0  0  0  0
   39.5427  -20.9346   38.2157 C   0  0  0  0  0  0  0  0  0  0  0  0
   37.3943  -21.4544   40.9603 C   0  0  0  0  0  0  0  0  0  0  0  0
   38.2836  -21.2452   41.8934 O   0  0  0  0  0  0  0  0  0  0  0  0
   41.5837  -23.4026   34.6497 N   0  0  0  0  0  0  0  0  0  0  0  0
   40.4548  -22.8073   35.1663 C   0  0  0  0  0  0  0  0  0  0  0  0
   39.4653  -22.4789   34.4880 O   0  0  0  0  0  0  0  0  0  0  0  0
   40.3057  -22.5022   36.5781 N   0  0  0  0  0  0  0  0  0  0  0  0
   42.4002  -23.5630   35.3442 H   0  0  0  0  0  0  0  0  0  0  0  0
   41.0768  -22.7720   37.2161 H   0  0  0  0  0  0  0  0  0  0  0  0
   42.3888  -24.6148   30.7138 C   0  0  0  0  0  0  0  0  0  0  0  0
   41.2099  -25.0136   31.2987 C   0  0  0  0  0  0  0  0  0  0  0  0
   40.9424  -24.6049   32.6114 C   0  0  0  0  0  0  0  0  0  0  0  0
   41.7918  -23.8221   33.3494 C   0  0  0  0  0  0  0  0  0  0  0  0
   42.9705  -23.4514   32.6979 C   0  0  0  0  0  0  0  0  0  0  0  0
   43.2944  -23.8150   31.4255 C   0  0  0  0  0  0  0  0  0  0  0  0
   42.7466  -24.9763   29.4268 O   0  0  0  0  0  0  0  0  0  0  0  0
   41.0654  -24.0224   28.1926 F   0  0  0  0  0  0  0  0  0  0  0  0
   42.4330  -24.1750   28.3093 C   0  0  0  0  0  0  0  0  0  0  0  0
   42.8947  -24.8283   27.1990 F   0  0  0  0  0  0  0  0  0  0  0  0
   42.9802  -22.9088   28.3716 F   0  0  0  0  0  0  0  0  0  0  0  0
   36.0202  -21.3066   41.3759 C   0  0  0  0  0  0  0  0  0  0  0  0
   35.4710  -22.2690   42.2558 C   0  0  0  0  0  0  0  0  0  0  0  0
   34.2051  -22.1572   42.7458 C   0  0  0  0  0  0  0  0  0  0  0  0
   33.3986  -21.0719   42.3901 C   0  0  0  0  0  0  0  0  0  0  0  0
   33.9271  -20.1368   41.5388 C   0  0  0  0  0  0  0  0  0  0  0  0
   35.2278  -20.2582   41.0393 C   0  0  0  0  0  0  0  0  0  0  0  0
   32.0900  -20.9266   42.8812 O   0  0  0  0  0  0  0  0  0  0  0  0
   32.0264  -20.5071   44.2440 C   0  0  0  0  0  0  0  0  0  0  0  0
   33.0660  -19.5992   44.4254 F   0  0  0  0  0  0  0  0  0  0  0  0
   30.8468  -19.8197   44.4152 F   0  0  0  0  0  0  0  0  0  0  0  0
   32.0675  -21.5526   45.1214 F   0  0  0  0  0  0  0  0  0  0  0  0
 22 23  1  0  0  0
 23 24  1  0  0  0
 23 25  1  0  0  0
 23 21  1  0  0  0
 21 15  1  0  0  0
 15 16  2  0  0  0
 16 17  1  0  0  0
 17 18  2  0  0  0
 18  9  1  0  0  0
  9 10  1  0  0  0
 10 11  2  0  0  0
 10 12  1  0  0  0
 12  1  1  0  0  0
  1  2  1  0  0  0
  2  3  1  0  0  0
  3  4  1  0  0  0
  4  5  1  0  0  0
  5  6  1  0  0  0
  4  7  1  0  0  0
  7  8  2  0  0  0
  7 26  1  0  0  0
 26 27  2  0  0  0
 27 28  1  0  0  0
 28 29  2  0  0  0
 29 32  1  0  0  0
 32 33  1  0  0  0
 33 34  1  0  0  0
 33 35  1  0  0  0
 33 36  1  0  0  0
 29 30  1  0  0  0
 30 31  2  0  0  0
 18 19  1  0  0  0
 19 20  2  0  0  0
 20 15  1  0  0  0
  6  1  1  0  0  0
 31 26  1  0  0  0
  9 13  1  0  0  0
 12 14  1  0  0  0
M  END
> <minimizedAffinity>
-3.18558

> <CNNscore>
0.5542527437

> <CNNaffinity>
4.7812285423

> <CNN_VS>
2.6500091553

> <CNNaffinity_variance>
0.4902059138

$$$$
[H]N=C(N([H])[H])[C@@]([H])(N([H])C(=O)[C@@]([H])(N([H])S(=O)(=O)c1c([H])c([H])c(F)c([H])c1[H])C([H])([H])c1nc([H])c([H])c2c([H])c([H])c([H])c([H])c12)C([H])([H])C([H])(C([H])([H])[H])C([H])([H])[H]


 39 41  0  0  0  0  0  0  0  0999 V2000
   35.4338  -17.2138   35.1452 C   0  0  0  0  0  0  0  0  0  0  0  0
   37.5581  -18.3190   35.4173 N   0  0  0  0  0  0  0  0  0  0  0  0
   36.6349  -17.6585   34.4857 C   0  0  0  0  0  0  0  0  0  0  0  0
   36.9775  -17.5924   33.3116 O   0  0  0  0  0  0  0  0  0  0  0  0
   37.2104  -18.3734   36.4463 H   0  0  0  0  0  0  0  0  0  0  0  0
   38.8337  -18.9144   35.1251 C   0  0  0  0  0  0  0  0  0  0  0  0
   38.7127  -19.9756   34.0939 C   0  0  0  0  0  0  0  0  0  0  0  0
   39.0714  -19.6801   32.7288 N   0  0  0  0  0  0  0  0  0  0  0  0
   38.3020  -21.1404   34.3891 N   0  0  0  0  0  0  0  0  0  0  0  0
   39.1280  -20.4498   32.0272 H   0  0  0  0  0  0  0  0  0  0  0  0
   39.2755  -18.7013   32.4324 H   0  0  0  0  0  0  0  0  0  0  0  0
   38.0458  -21.3764   35.3467 H   0  0  0  0  0  0  0  0  0  0  0  0
   39.4402  -19.3794   36.4029 C   0  0  0  0  0  0  0  0  0  0  0  0
   41.3848  -19.6091   38.0338 C   0  0  0  0  0  0  0  0  0  0  0  0
   40.6917  -18.8565   36.9183 C   0  0  0  0  0  0  0  0  0  0  0  0
   41.7314  -18.4715   35.8726 C   0  0  0  0  0  0  0  0  0  0  0  0
   34.2403  -17.7605   34.5448 N   0  0  0  0  0  0  0  0  0  0  0  0
   33.4395  -17.1117   34.8566 H   0  0  0  0  0  0  0  0  0  0  0  0
   33.9192  -19.3701   34.7931 S   0  0  0  0  0  0  0  0  0  0  0  0
   34.8400  -20.0157   35.8260 O   0  0  0  0  0  0  0  0  0  0  0  0
   34.2402  -20.0631   33.4255 O   0  0  0  0  0  0  0  0  0  0  0  0
   32.3179  -19.7791   35.2632 C   0  0  0  0  0  0  0  0  0  0  0  0
   32.0895  -20.8539   36.0816 C   0  0  0  0  0  0  0  0  0  0  0  0
   30.7948  -21.2995   36.3721 C   0  0  0  0  0  0  0  0  0  0  0  0
   29.7469  -20.6339   35.8211 C   0  0  0  0  0  0  0  0  0  0  0  0
   28.4922  -21.1200   36.1131 F   0  0  0  0  0  0  0  0  0  0  0  0
   29.9465  -19.5579   35.0048 C   0  0  0  0  0  0  0  0  0  0  0  0
   31.2143  -19.1060   34.7079 C   0  0  0  0  0  0  0  0  0  0  0  0
   35.4343  -17.0190   36.6123 C   0  0  0  0  0  0  0  0  0  0  0  0
   35.9116  -15.6724   37.0152 C   0  0  0  0  0  0  0  0  0  0  0  0
   37.2085  -15.4685   37.3456 N   0  0  0  0  0  0  0  0  0  0  0  0
   37.7729  -14.2894   37.5530 C   0  0  0  0  0  0  0  0  0  0  0  0
   37.0384  -13.1330   37.4403 C   0  0  0  0  0  0  0  0  0  0  0  0
   35.7127  -13.2653   37.1087 C   0  0  0  0  0  0  0  0  0  0  0  0
   34.9720  -12.0902   36.9907 C   0  0  0  0  0  0  0  0  0  0  0  0
   33.6366  -12.2014   36.6652 C   0  0  0  0  0  0  0  0  0  0  0  0
   33.0503  -13.4393   36.4601 C   0  0  0  0  0  0  0  0  0  0  0  0
   33.8485  -14.5787   36.5893 C   0  0  0  0  0  0  0  0  0  0  0  0
   35.1585  -14.5277   36.9023 C   0  0  0  0  0  0  0  0  0  0  0  0
 14 15  1  0  0  0
 15 16  1  0  0  0
 15 13  1  0  0  0
 13  6  1  0  0  0
  6  2  1  0  0  0
  2  3  1  0  0  0
  3  4  2  0  0  0
  3  1  1  0  0  0
  1 29  1  0  0  0
 29 30  1  0  0  0
 30 31  2  0  0  0
 31 32  1  0  0  0
 32 33  2  0  0  0
 33 34  1  0  0  0
 34 35  2  0  0  0
 35 36  1  0  0  0
 36 37  2  0  0  0
 37 38  1  0  0  0
 38 39  2  0  0  0
  1 17  1  0  0  0
 17 19  1  0  0  0
 19 20  2  0  0  0
 19 21  2  0  0  0
 19 22  1  0  0  0
 22 23  2  0  0  0
 23 24  1  0  0  0
 24 25  2  0  0  0
 25 26  1  0  0  0
 25 27  1  0  0  0
 27 28  2  0  0  0
  6  7  1  0  0  0
  7  8  1  0  0  0
  7  9  2  0  0  0
 39 30  1  0  0  0
 28 22  1  0  0  0
 39 34  1  0  0  0
  2  5  1  0  0  0
 17 18  1  0  0  0
  8 10  1  0  0  0
  8 11  1  0  0  0
  9 12  1  0  0  0
M  END
> <minimizedAffinity>
-8.20751

> <CNNscore>
0.2938226163

> <CNNaffinity>
6.1925392151

> <CNN_VS>
1.8195080757

> <CNNaffinity_variance>
0.4394908845

$$$$
[H]N=C(N([H])[H])[C@@]([H])(N([H])C(=O)[C@@]([H])(N([H])S(=O)(=O)c1c([H])c([H])c(F)c([H])c1[H])C([H])([H])c1nc([H])c([H])c2c([H])c([H])c([H])c([H])c12)C([H])([H])C([H])(C([H])([H])[H])C([H])([H])[H]


 39 41  0  0  0  0  0  0  0  0999 V2000
   37.1403  -18.2085   35.5011 C   0  0  0  0  0  0  0  0  0  0  0  0
   39.1542  -19.2591   34.6956 N   0  0  0  0  0  0  0  0  0  0  0  0
   38.4514  -18.6908   35.8530 C   0  0  0  0  0  0  0  0  0  0  0  0
   39.0517  -18.6778   36.9205 O   0  0  0  0  0  0  0  0  0  0  0  0
   38.5953  -19.2362   33.7630 H   0  0  0  0  0  0  0  0  0  0  0  0
   40.4822  -19.8080   34.6494 C   0  0  0  0  0  0  0  0  0  0  0  0
   41.1520  -19.4982   33.3612 C   0  0  0  0  0  0  0  0  0  0  0  0
   42.3546  -18.7023   33.3622 N   0  0  0  0  0  0  0  0  0  0  0  0
   40.6895  -19.9217   32.2570 N   0  0  0  0  0  0  0  0  0  0  0  0
   42.9109  -18.5987   32.4861 H   0  0  0  0  0  0  0  0  0  0  0  0
   42.6767  -18.2262   34.2324 H   0  0  0  0  0  0  0  0  0  0  0  0
   39.8435  -20.4891   32.2288 H   0  0  0  0  0  0  0  0  0  0  0  0
   40.4011  -21.2631   34.9540 C   0  0  0  0  0  0  0  0  0  0  0  0
   39.0927  -23.2680   34.0807 C   0  0  0  0  0  0  0  0  0  0  0  0
   39.1568  -22.0085   34.9178 C   0  0  0  0  0  0  0  0  0  0  0  0
   38.5118  -22.2902   36.2697 C   0  0  0  0  0  0  0  0  0  0  0  0
   37.0678  -16.7669   35.4891 N   0  0  0  0  0  0  0  0  0  0  0  0
   38.0387  -16.4337   35.1638 H   0  0  0  0  0  0  0  0  0  0  0  0
   36.5389  -16.0093   36.8682 S   0  0  0  0  0  0  0  0  0  0  0  0
   37.6500  -15.2770   37.6172 O   0  0  0  0  0  0  0  0  0  0  0  0
   36.0643  -17.1673   37.8102 O   0  0  0  0  0  0  0  0  0  0  0  0
   35.2598  -14.8759   36.6898 C   0  0  0  0  0  0  0  0  0  0  0  0
   35.1618  -13.8032   37.5365 C   0  0  0  0  0  0  0  0  0  0  0  0
   34.0607  -12.9395   37.5105 C   0  0  0  0  0  0  0  0  0  0  0  0
   33.0721  -13.1847   36.6120 C   0  0  0  0  0  0  0  0  0  0  0  0
   31.9965  -12.3255   36.6368 F   0  0  0  0  0  0  0  0  0  0  0  0
   33.1464  -14.2448   35.7549 C   0  0  0  0  0  0  0  0  0  0  0  0
   34.2229  -15.1053   35.7670 C   0  0  0  0  0  0  0  0  0  0  0  0
   36.3357  -18.9427   34.4992 C   0  0  0  0  0  0  0  0  0  0  0  0
   34.8851  -18.9456   34.8142 C   0  0  0  0  0  0  0  0  0  0  0  0
   34.0196  -18.1930   34.0948 N   0  0  0  0  0  0  0  0  0  0  0  0
   32.6999  -18.2487   34.1775 C   0  0  0  0  0  0  0  0  0  0  0  0
   32.0897  -19.1216   35.0466 C   0  0  0  0  0  0  0  0  0  0  0  0
   32.9082  -19.9162   35.8105 C   0  0  0  0  0  0  0  0  0  0  0  0
   32.2861  -20.8035   36.6873 C   0  0  0  0  0  0  0  0  0  0  0  0
   33.0904  -21.6058   37.4690 C   0  0  0  0  0  0  0  0  0  0  0  0
   34.4710  -21.5346   37.3848 C   0  0  0  0  0  0  0  0  0  0  0  0
   35.0325  -20.6272   36.4828 C   0  0  0  0  0  0  0  0  0  0  0  0
   34.2942  -19.8221   35.6932 C   0  0  0  0  0  0  0  0  0  0  0  0
 14 15  1  0  0  0
 15 16  1  0  0  0
 15 13  1  0  0  0
 13  6  1  0  0  0
  6  2  1  0  0  0
  2  3  1  0  0  0
  3  4  2  0  0  0
  3  1  1  0  0  0
  1 29  1  0  0  0
 29 30  1  0  0  0
 30 31  2  0  0  0
 31 32  1  0  0  0
 32 33  2  0  0  0
 33 34  1  0  0  0
 34 35  2  0  0  0
 35 36  1  0  0  0
 36 37  2  0  0  0
 37 38  1  0  0  0
 38 39  2  0  0  0
  1 17  1  0  0  0
 17 19  1  0  0  0
 19 20  2  0  0  0
 19 21  2  0  0  0
 19 22  1  0  0  0
 22 23  2  0  0  0
 23 24  1  0  0  0
 24 25  2  0  0  0
 25 26  1  0  0  0
 25 27  1  0  0  0
 27 28  2  0  0  0
  6  7  1  0  0  0
  7  8  1  0  0  0
  7  9  2  0  0  0
 39 30  1  0  0  0
 28 22  1  0  0  0
 39 34  1  0  0  0
  2  5  1  0  0  0
 17 18  1  0  0  0
  8 10  1  0  0  0
  8 11  1  0  0  0
  9 12  1  0  0  0
M  END
> <minimizedAffinity>
-6.87553

> <CNNscore>
0.2469923049

> <CNNaffinity>
5.6808347702

> <CNN_VS>
1.4031224251

> <CNNaffinity_variance>
0.4272201955

$$$$
[H]N=C(N([H])[H])[C@@]([H])(N([H])C(=O)[C@@]([H])(N([H])S(=O)(=O)c1c([H])c([H])c(F)c([H])c1[H])C([H])([H])c1nc([H])c([H])c2c([H])c([H])c([H])c([H])c12)C([H])([H])C([H])(C([H])([H])[H])C([H])([H])[H]


 39 41  0  0  0  0  0  0  0  0999 V2000
   35.5011  -18.1797   35.1872 C   0  0  0  0  0  0  0  0  0  0  0  0
   33.6582  -19.6327   35.7359 N   0  0  0  0  0  0  0  0  0  0  0  0
   34.6689  -19.2656   34.7358 C   0  0  0  0  0  0  0  0  0  0  0  0
   34.6622  -19.8866   33.6801 O   0  0  0  0  0  0  0  0  0  0  0  0
   33.6854  -19.0470   36.6518 H   0  0  0  0  0  0  0  0  0  0  0  0
   32.6390  -20.6415   35.6342 C   0  0  0  0  0  0  0  0  0  0  0  0
   31.2878  -20.0369   35.5208 C   0  0  0  0  0  0  0  0  0  0  0  0
   30.1287  -20.8945   35.4942 N   0  0  0  0  0  0  0  0  0  0  0  0
   31.1304  -18.7790   35.4491 N   0  0  0  0  0  0  0  0  0  0  0  0
   29.1735  -20.4807   35.5596 H   0  0  0  0  0  0  0  0  0  0  0  0
   30.2339  -21.9286   35.4097 H   0  0  0  0  0  0  0  0  0  0  0  0
   31.9324  -18.1506   35.4696 H   0  0  0  0  0  0  0  0  0  0  0  0
   32.7877  -21.5786   36.7815 C   0  0  0  0  0  0  0  0  0  0  0  0
   34.4856  -21.7587   38.6733 C   0  0  0  0  0  0  0  0  0  0  0  0
   34.0758  -22.0575   37.2471 C   0  0  0  0  0  0  0  0  0  0  0  0
   34.3889  -23.5187   36.9475 C   0  0  0  0  0  0  0  0  0  0  0  0
   36.9082  -18.4623   35.0329 N   0  0  0  0  0  0  0  0  0  0  0  0
   37.0086  -18.8904   34.0500 H   0  0  0  0  0  0  0  0  0  0  0  0
   37.6508  -19.3547   36.2194 S   0  0  0  0  0  0  0  0  0  0  0  0
   36.8459  -19.4222   37.5152 O   0  0  0  0  0  0  0  0  0  0  0  0
   38.9620  -18.5675   36.5580 O   0  0  0  0  0  0  0  0  0  0  0  0
   38.0597  -20.9775   35.8295 C   0  0  0  0  0  0  0  0  0  0  0  0
   37.7955  -21.9899   36.7140 C   0  0  0  0  0  0  0  0  0  0  0  0
   38.2379  -23.2992   36.4921 C   0  0  0  0  0  0  0  0  0  0  0  0
   38.9451  -23.5560   35.3613 C   0  0  0  0  0  0  0  0  0  0  0  0
   39.3818  -24.8511   35.1943 F   0  0  0  0  0  0  0  0  0  0  0  0
   39.2194  -22.5661   34.4619 C   0  0  0  0  0  0  0  0  0  0  0  0
   38.7919  -21.2717   34.6647 C   0  0  0  0  0  0  0  0  0  0  0  0
   35.0567  -16.7832   34.9808 C   0  0  0  0  0  0  0  0  0  0  0  0
   35.4855  -15.8741   36.0731 C   0  0  0  0  0  0  0  0  0  0  0  0
   36.6891  -16.0322   36.6723 N   0  0  0  0  0  0  0  0  0  0  0  0
   37.2383  -15.1864   37.5294 C   0  0  0  0  0  0  0  0  0  0  0  0
   36.5864  -14.0299   37.8858 C   0  0  0  0  0  0  0  0  0  0  0  0
   35.3576  -13.8052   37.3165 C   0  0  0  0  0  0  0  0  0  0  0  0
   34.7013  -12.6292   37.6767 C   0  0  0  0  0  0  0  0  0  0  0  0
   33.4624  -12.3878   37.1214 C   0  0  0  0  0  0  0  0  0  0  0  0
   32.8890  -13.2828   36.2333 C   0  0  0  0  0  0  0  0  0  0  0  0
   33.6003  -14.4410   35.9101 C   0  0  0  0  0  0  0  0  0  0  0  0
   34.8150  -14.7251   36.4205 C   0  0  0  0  0  0  0  0  0  0  0  0
 14 15  1  0  0  0
 15 16  1  0  0  0
 15 13  1  0  0  0
 13  6  1  0  0  0
  6  2  1  0  0  0
  2  3  1  0  0  0
  3  4  2  0  0  0
  3  1  1  0  0  0
  1 29  1  0  0  0
 29 30  1  0  0  0
 30 31  2  0  0  0
 31 32  1  0  0  0
 32 33  2  0  0  0
 33 34  1  0  0  0
 34 35  2  0  0  0
 35 36  1  0  0  0
 36 37  2  0  0  0
 37 38  1  0  0  0
 38 39  2  0  0  0
  1 17  1  0  0  0
 17 19  1  0  0  0
 19 20  2  0  0  0
 19 21  2  0  0  0
 19 22  1  0  0  0
 22 23  2  0  0  0
 23 24  1  0  0  0
 24 25  2  0  0  0
 25 26  1  0  0  0
 25 27  1  0  0  0
 27 28  2  0  0  0
  6  7  1  0  0  0
  7  8  1  0  0  0
  7  9  2  0  0  0
 39 30  1  0  0  0
 28 22  1  0  0  0
 39 34  1  0  0  0
  2  5  1  0  0  0
 17 18  1  0  0  0
  8 10  1  0  0  0
  8 11  1  0  0  0
  9 12  1  0  0  0
M  END
> <minimizedAffinity>
-6.16427

> <CNNscore>
0.2040737122

> <CNNaffinity>
5.7486810684

> <CNN_VS>
1.1731547117

> <CNNaffinity_variance>
0.1687759161

$$$$
[H]N=C(N([H])[H])[C@@]([H])(N([H])C(=O)[C@@]([H])(N([H])S(=O)(=O)c1c([H])c([H])c(F)c([H])c1[H])C([H])([H])c1nc([H])c([H])c2c([H])c([H])c([H])c([H])c12)C([H])([H])C([H])(C([H])([H])[H])C([H])([H])[H]


 39 41  0  0  0  0  0  0  0  0999 V2000
   36.9696  -18.2618   35.0595 C   0  0  0  0  0  0  0  0  0  0  0  0
   39.1080  -18.3778   33.9540 N   0  0  0  0  0  0  0  0  0  0  0  0
   38.3221  -18.7519   35.1367 C   0  0  0  0  0  0  0  0  0  0  0  0
   38.8973  -19.3862   36.0125 O   0  0  0  0  0  0  0  0  0  0  0  0
   38.5672  -17.8005   33.2077 H   0  0  0  0  0  0  0  0  0  0  0  0
   40.4922  -18.6594   33.6867 C   0  0  0  0  0  0  0  0  0  0  0  0
   40.6736  -20.0370   33.1636 C   0  0  0  0  0  0  0  0  0  0  0  0
   40.6798  -21.1480   34.0830 N   0  0  0  0  0  0  0  0  0  0  0  0
   40.8210  -20.2586   31.9220 N   0  0  0  0  0  0  0  0  0  0  0  0
   40.6620  -22.1251   33.7188 H   0  0  0  0  0  0  0  0  0  0  0  0
   40.7023  -20.9860   35.1130 H   0  0  0  0  0  0  0  0  0  0  0  0
   40.8167  -19.4917   31.2509 H   0  0  0  0  0  0  0  0  0  0  0  0
   41.2777  -18.3721   34.9184 C   0  0  0  0  0  0  0  0  0  0  0  0
   43.1064  -16.7179   35.5616 C   0  0  0  0  0  0  0  0  0  0  0  0
   42.6817  -18.0070   34.8914 C   0  0  0  0  0  0  0  0  0  0  0  0
   43.6614  -19.1057   35.2864 C   0  0  0  0  0  0  0  0  0  0  0  0
   36.8984  -16.8229   35.1516 N   0  0  0  0  0  0  0  0  0  0  0  0
   37.8381  -16.4642   34.7672 H   0  0  0  0  0  0  0  0  0  0  0  0
   36.4915  -16.1627   36.6193 S   0  0  0  0  0  0  0  0  0  0  0  0
   37.6914  -15.6086   37.3840 O   0  0  0  0  0  0  0  0  0  0  0  0
   35.9476  -17.3627   37.4666 O   0  0  0  0  0  0  0  0  0  0  0  0
   35.3157  -14.9098   36.6081 C   0  0  0  0  0  0  0  0  0  0  0  0
   35.4740  -13.8044   37.4020 C   0  0  0  0  0  0  0  0  0  0  0  0
   34.4740  -12.8327   37.5236 C   0  0  0  0  0  0  0  0  0  0  0  0
   33.3218  -13.0048   36.8253 C   0  0  0  0  0  0  0  0  0  0  0  0
   32.3554  -12.0384   36.9926 F   0  0  0  0  0  0  0  0  0  0  0  0
   33.1396  -14.0955   36.0246 C   0  0  0  0  0  0  0  0  0  0  0  0
   34.1134  -15.0620   35.8935 C   0  0  0  0  0  0  0  0  0  0  0  0
   35.9952  -18.9401   34.1759 C   0  0  0  0  0  0  0  0  0  0  0  0
   34.6333  -19.0066   34.7626 C   0  0  0  0  0  0  0  0  0  0  0  0
   33.6090  -18.3124   34.2135 N   0  0  0  0  0  0  0  0  0  0  0  0
   32.3338  -18.4302   34.5478 C   0  0  0  0  0  0  0  0  0  0  0  0
   31.9463  -19.3130   35.5276 C   0  0  0  0  0  0  0  0  0  0  0  0
   32.9353  -20.0505   36.1299 C   0  0  0  0  0  0  0  0  0  0  0  0
   32.5382  -20.9482   37.1198 C   0  0  0  0  0  0  0  0  0  0  0  0
   33.5170  -21.6938   37.7423 C   0  0  0  0  0  0  0  0  0  0  0  0
   34.8508  -21.5575   37.3947 C   0  0  0  0  0  0  0  0  0  0  0  0
   35.1825  -20.6433   36.3916 C   0  0  0  0  0  0  0  0  0  0  0  0
   34.2667  -19.8919   35.7486 C   0  0  0  0  0  0  0  0  0  0  0  0
 14 15  1  0  0  0
 15 16  1  0  0  0
 15 13  1  0  0  0
 13  6  1  0  0  0
  6  2  1  0  0  0
  2  3  1  0  0  0
  3  4  2  0  0  0
  3  1  1  0  0  0
  1 29  1  0  0  0
 29 30  1  0  0  0
 30 31  2  0  0  0
 31 32  1  0  0  0
 32 33  2  0  0  0
 33 34  1  0  0  0
 34 35  2  0  0  0
 35 36  1  0  0  0
 36 37  2  0  0  0
 37 38  1  0  0  0
 38 39  2  0  0  0
  1 17  1  0  0  0
 17 19  1  0  0  0
 19 20  2  0  0  0
 19 21  2  0  0  0
 19 22  1  0  0  0
 22 23  2  0  0  0
 23 24  1  0  0  0
 24 25  2  0  0  0
 25 26  1  0  0  0
 25 27  1  0  0  0
 27 28  2  0  0  0
  6  7  1  0  0  0
  7  8  1  0  0  0
  7  9  2  0  0  0
 39 30  1  0  0  0
 28 22  1  0  0  0
 39 34  1  0  0  0
  2  5  1  0  0  0
 17 18  1  0  0  0
  8 10  1  0  0  0
  8 11  1  0  0  0
  9 12  1  0  0  0
M  END
> <minimizedAffinity>
-7.22707

> <CNNscore>
0.1979568452

> <CNNaffinity>
5.7790451050

> <CNN_VS>
1.1440014839

> <CNNaffinity_variance>
0.2384351492

$$$$
[H]N=C(N([H])[H])[C@@]([H])(N([H])C(=O)[C@@]([H])(N([H])S(=O)(=O)c1c([H])c([H])c(F)c([H])c1[H])C([H])([H])c1nc([H])c([H])c2c([H])c([H])c([H])c([H])c12)C([H])([H])C([H])(C([H])([H])[H])C([H])([H])[H]


 39 41  0  0  0  0  0  0  0  0999 V2000
   35.2734  -18.4409   35.2682 C   0  0  0  0  0  0  0  0  0  0  0  0
   33.2459  -19.6529   35.7465 N   0  0  0  0  0  0  0  0  0  0  0  0
   34.3041  -19.3807   34.7654 C   0  0  0  0  0  0  0  0  0  0  0  0
   34.2202  -19.9448   33.6815 O   0  0  0  0  0  0  0  0  0  0  0  0
   33.3463  -19.1199   36.6892 H   0  0  0  0  0  0  0  0  0  0  0  0
   32.0994  -20.5072   35.5965 C   0  0  0  0  0  0  0  0  0  0  0  0
   30.8483  -19.7178   35.4712 C   0  0  0  0  0  0  0  0  0  0  0  0
   29.5859  -20.4056   35.3572 N   0  0  0  0  0  0  0  0  0  0  0  0
   30.8656  -18.4481   35.4649 N   0  0  0  0  0  0  0  0  0  0  0  0
   28.6936  -19.8685   35.4131 H   0  0  0  0  0  0  0  0  0  0  0  0
   29.5536  -21.4387   35.2185 H   0  0  0  0  0  0  0  0  0  0  0  0
   31.7437  -17.9378   35.5479 H   0  0  0  0  0  0  0  0  0  0  0  0
   32.0886  -21.4828   36.7212 C   0  0  0  0  0  0  0  0  0  0  0  0
   33.4716  -21.9163   38.8173 C   0  0  0  0  0  0  0  0  0  0  0  0
   33.3007  -22.0138   37.3164 C   0  0  0  0  0  0  0  0  0  0  0  0
   33.6997  -23.4159   36.8720 C   0  0  0  0  0  0  0  0  0  0  0  0
   36.6032  -18.9993   35.3282 N   0  0  0  0  0  0  0  0  0  0  0  0
   36.7311  -19.5354   34.4032 H   0  0  0  0  0  0  0  0  0  0  0  0
   37.0056  -19.8922   36.6686 S   0  0  0  0  0  0  0  0  0  0  0  0
   36.6014  -21.3604   36.5578 O   0  0  0  0  0  0  0  0  0  0  0  0
   36.1473  -19.2874   37.8310 O   0  0  0  0  0  0  0  0  0  0  0  0
   38.6590  -19.8888   37.1363 C   0  0  0  0  0  0  0  0  0  0  0  0
   39.0829  -20.6584   38.1876 C   0  0  0  0  0  0  0  0  0  0  0  0
   40.3890  -20.5763   38.6840 C   0  0  0  0  0  0  0  0  0  0  0  0
   41.2482  -19.7062   38.0927 C   0  0  0  0  0  0  0  0  0  0  0  0
   42.5152  -19.6395   38.6276 F   0  0  0  0  0  0  0  0  0  0  0  0
   40.8524  -18.9301   37.0415 C   0  0  0  0  0  0  0  0  0  0  0  0
   39.5703  -18.9978   36.5404 C   0  0  0  0  0  0  0  0  0  0  0  0
   35.1480  -17.0068   34.9250 C   0  0  0  0  0  0  0  0  0  0  0  0
   35.5532  -16.1101   36.0363 C   0  0  0  0  0  0  0  0  0  0  0  0
   36.7340  -16.2890   36.6739 N   0  0  0  0  0  0  0  0  0  0  0  0
   37.2665  -15.4559   37.5538 C   0  0  0  0  0  0  0  0  0  0  0  0
   36.6197  -14.2921   37.8955 C   0  0  0  0  0  0  0  0  0  0  0  0
   35.4137  -14.0465   37.2872 C   0  0  0  0  0  0  0  0  0  0  0  0
   34.7628  -12.8632   37.6326 C   0  0  0  0  0  0  0  0  0  0  0  0
   33.5465  -12.6008   37.0381 C   0  0  0  0  0  0  0  0  0  0  0  0
   32.9901  -13.4824   36.1262 C   0  0  0  0  0  0  0  0  0  0  0  0
   33.6952  -14.6490   35.8197 C   0  0  0  0  0  0  0  0  0  0  0  0
   34.8881  -14.9535   36.3682 C   0  0  0  0  0  0  0  0  0  0  0  0
 14 15  1  0  0  0
 15 16  1  0  0  0
 15 13  1  0  0  0
 13  6  1  0  0  0
  6  2  1  0  0  0
  2  3  1  0  0  0
  3  4  2  0  0  0
  3  1  1  0  0  0
  1 29  1  0  0  0
 29 30  1  0  0  0
 30 31  2  0  0  0
 31 32  1  0  0  0
 32 33  2  0  0  0
 33 34  1  0  0  0
 34 35  2  0  0  0
 35 36  1  0  0  0
 36 37  2  0  0  0
 37 38  1  0  0  0
 38 39  2  0  0  0
  1 17  1  0  0  0
 17 19  1  0  0  0
 19 20  2  0  0  0
 19 21  2  0  0  0
 19 22  1  0  0  0
 22 23  2  0  0  0
 23 24  1  0  0  0
 24 25  2  0  0  0
 25 26  1  0  0  0
 25 27  1  0  0  0
 27 28  2  0  0  0
  6  7  1  0  0  0
  7  8  1  0  0  0
  7  9  2  0  0  0
 39 30  1  0  0  0
 28 22  1  0  0  0
 39 34  1  0  0  0
  2  5  1  0  0  0
 17 18  1  0  0  0
  8 10  1  0  0  0
  8 11  1  0  0  0
  9 12  1  0  0  0
M  END
> <minimizedAffinity>
-6.68653

> <CNNscore>
0.1975612193

> <CNNaffinity>
5.8668203354

> <CNN_VS>
1.1590561867

> <CNNaffinity_variance>
0.1410573721

$$$$
[H]N=C(N([H])[H])[C@@]([H])(N([H])C(=O)[C@@]([H])(N([H])S(=O)(=O)c1c([H])c([H])c(F)c([H])c1[H])C([H])([H])c1nc([H])c([H])c2c([H])c([H])c([H])c([H])c12)C([H])([H])C([H])(C([H])([H])[H])C([H])([H])[H]


 39 41  0  0  0  0  0  0  0  0999 V2000
   34.1385  -19.0760   35.3282 C   0  0  0  0  0  0  0  0  0  0  0  0
   32.0765  -20.2615   35.7171 N   0  0  0  0  0  0  0  0  0  0  0  0
   33.0402  -19.7814   34.7184 C   0  0  0  0  0  0  0  0  0  0  0  0
   32.7878  -20.0111   33.5421 O   0  0  0  0  0  0  0  0  0  0  0  0
   32.3269  -20.0226   36.7481 H   0  0  0  0  0  0  0  0  0  0  0  0
   30.8492  -20.9750   35.4901 C   0  0  0  0  0  0  0  0  0  0  0  0
   29.6669  -20.1244   35.7779 C   0  0  0  0  0  0  0  0  0  0  0  0
   28.5148  -20.7078   36.4197 N   0  0  0  0  0  0  0  0  0  0  0  0
   29.6493  -18.8919   35.4730 N   0  0  0  0  0  0  0  0  0  0  0  0
   27.7401  -20.0953   36.7555 H   0  0  0  0  0  0  0  0  0  0  0  0
   28.4456  -21.7398   36.5528 H   0  0  0  0  0  0  0  0  0  0  0  0
   30.4517  -18.4542   35.0224 H   0  0  0  0  0  0  0  0  0  0  0  0
   30.8884  -22.2407   36.2731 C   0  0  0  0  0  0  0  0  0  0  0  0
   29.3542  -24.1697   35.6258 C   0  0  0  0  0  0  0  0  0  0  0  0
   30.7343  -23.5493   35.6656 C   0  0  0  0  0  0  0  0  0  0  0  0
   31.3872  -23.7287   34.3002 C   0  0  0  0  0  0  0  0  0  0  0  0
   35.2449  -19.9471   35.6458 N   0  0  0  0  0  0  0  0  0  0  0  0
   35.3609  -20.5877   34.7881 H   0  0  0  0  0  0  0  0  0  0  0  0
   35.1874  -20.7747   37.0837 S   0  0  0  0  0  0  0  0  0  0  0  0
   34.5645  -22.1628   36.9553 O   0  0  0  0  0  0  0  0  0  0  0  0
   34.2203  -19.9422   37.9921 O   0  0  0  0  0  0  0  0  0  0  0  0
   36.6766  -20.9973   37.9117 C   0  0  0  0  0  0  0  0  0  0  0  0
   36.6892  -21.4540   39.2034 C   0  0  0  0  0  0  0  0  0  0  0  0
   37.8691  -21.5153   39.9538 C   0  0  0  0  0  0  0  0  0  0  0  0
   39.0255  -21.1097   39.3683 C   0  0  0  0  0  0  0  0  0  0  0  0
   40.1580  -21.1635   40.1495 F   0  0  0  0  0  0  0  0  0  0  0  0
   39.0413  -20.6533   38.0816 C   0  0  0  0  0  0  0  0  0  0  0  0
   37.8890  -20.5859   37.3284 C   0  0  0  0  0  0  0  0  0  0  0  0
   34.4557  -17.6982   34.8908 C   0  0  0  0  0  0  0  0  0  0  0  0
   35.1945  -16.9226   35.9184 C   0  0  0  0  0  0  0  0  0  0  0  0
   36.3632  -17.3821   36.4242 N   0  0  0  0  0  0  0  0  0  0  0  0
   37.1819  -16.7006   37.2096 C   0  0  0  0  0  0  0  0  0  0  0  0
   36.8819  -15.4120   37.5828 C   0  0  0  0  0  0  0  0  0  0  0  0
   35.7086  -14.8815   37.1067 C   0  0  0  0  0  0  0  0  0  0  0  0
   35.4098  -13.5729   37.4833 C   0  0  0  0  0  0  0  0  0  0  0  0
   34.2323  -13.0235   37.0216 C   0  0  0  0  0  0  0  0  0  0  0  0
   33.3751  -13.7464   36.2087 C   0  0  0  0  0  0  0  0  0  0  0  0
   33.7347  -15.0518   35.8639 C   0  0  0  0  0  0  0  0  0  0  0  0
   34.8740  -15.6366   36.2842 C   0  0  0  0  0  0  0  0  0  0  0  0
 14 15  1  0  0  0
 15 16  1  0  0  0
 15 13  1  0  0  0
 13  6  1  0  0  0
  6  2  1  0  0  0
  2  3  1  0  0  0
  3  4  2  0  0  0
  3  1  1  0  0  0
  1 29  1  0  0  0
 29 30  1  0  0  0
 30 31  2  0  0  0
 31 32  1  0  0  0
 32 33  2  0  0  0
 33 34  1  0  0  0
 34 35  2  0  0  0
 35 36  1  0  0  0
 36 37  2  0  0  0
 37 38  1  0  0  0
 38 39  2  0  0  0
  1 17  1  0  0  0
 17 19  1  0  0  0
 19 20  2  0  0  0
 19 21  2  0  0  0
 19 22  1  0  0  0
 22 23  2  0  0  0
 23 24  1  0  0  0
 24 25  2  0  0  0
 25 26  1  0  0  0
 25 27  1  0  0  0
 27 28  2  0  0  0
  6  7  1  0  0  0
  7  8  1  0  0  0
  7  9  2  0  0  0
 39 30  1  0  0  0
 28 22  1  0  0  0
 39 34  1  0  0  0
  2  5  1  0  0  0
 17 18  1  0  0  0
  8 10  1  0  0  0
  8 11  1  0  0  0
  9 12  1  0  0  0
M  END
> <minimizedAffinity>
-6.97540

> <CNNscore>
0.1842410415

> <CNNaffinity>
5.6555252075

> <CNN_VS>
1.0419799089

> <CNNaffinity_variance>
0.1847688258

$$$$
[H]N=C(N([H])[H])[C@@]([H])(N([H])C(=O)[C@@]([H])(N([H])S(=O)(=O)c1c([H])c([H])c(F)c([H])c1[H])C([H])([H])c1nc([H])c([H])c2c([H])c([H])c([H])c([H])c12)C([H])([H])C([H])(C([H])([H])[H])C([H])([H])[H]


 39 41  0  0  0  0  0  0  0  0999 V2000
   36.6039  -18.5176   34.3918 C   0  0  0  0  0  0  0  0  0  0  0  0
   34.6942  -19.8880   34.9242 N   0  0  0  0  0  0  0  0  0  0  0  0
   35.2275  -18.8094   34.0824 C   0  0  0  0  0  0  0  0  0  0  0  0
   34.4610  -18.3000   33.2742 O   0  0  0  0  0  0  0  0  0  0  0  0
   35.3998  -20.3020   35.6408 H   0  0  0  0  0  0  0  0  0  0  0  0
   33.3632  -20.4312   34.9277 C   0  0  0  0  0  0  0  0  0  0  0  0
   32.3451  -19.3719   34.7145 C   0  0  0  0  0  0  0  0  0  0  0  0
   32.2710  -18.2657   35.6367 N   0  0  0  0  0  0  0  0  0  0  0  0
   31.5387  -19.4176   33.7347 N   0  0  0  0  0  0  0  0  0  0  0  0
   31.6618  -17.4473   35.4201 H   0  0  0  0  0  0  0  0  0  0  0  0
   32.8215  -18.2737   36.5224 H   0  0  0  0  0  0  0  0  0  0  0  0
   31.5725  -20.1862   33.0664 H   0  0  0  0  0  0  0  0  0  0  0  0
   33.1743  -21.2071   36.1843 C   0  0  0  0  0  0  0  0  0  0  0  0
   30.8480  -21.8529   36.9998 C   0  0  0  0  0  0  0  0  0  0  0  0
   32.1549  -22.2286   36.3351 C   0  0  0  0  0  0  0  0  0  0  0  0
   31.8476  -23.0493   35.0882 C   0  0  0  0  0  0  0  0  0  0  0  0
   36.8041  -17.1385   34.7683 N   0  0  0  0  0  0  0  0  0  0  0  0
   37.8498  -16.9443   34.6001 H   0  0  0  0  0  0  0  0  0  0  0  0
   36.2789  -16.6644   36.2700 S   0  0  0  0  0  0  0  0  0  0  0  0
   37.3676  -16.7334   37.3384 O   0  0  0  0  0  0  0  0  0  0  0  0
   35.1990  -17.7243   36.6749 O   0  0  0  0  0  0  0  0  0  0  0  0
   35.5923  -15.0940   36.3925 C   0  0  0  0  0  0  0  0  0  0  0  0
   36.3826  -14.0134   36.6839 C   0  0  0  0  0  0  0  0  0  0  0  0
   35.8408  -12.7461   36.9281 C   0  0  0  0  0  0  0  0  0  0  0  0
   34.4917  -12.6009   36.8670 C   0  0  0  0  0  0  0  0  0  0  0  0
   33.9993  -11.3439   37.1376 F   0  0  0  0  0  0  0  0  0  0  0  0
   33.6816  -13.6605   36.5755 C   0  0  0  0  0  0  0  0  0  0  0  0
   34.1981  -14.9151   36.3328 C   0  0  0  0  0  0  0  0  0  0  0  0
   37.4338  -19.5392   35.0685 C   0  0  0  0  0  0  0  0  0  0  0  0
   38.8894  -19.3144   34.8845 C   0  0  0  0  0  0  0  0  0  0  0  0
   39.3710  -18.8186   33.7204 N   0  0  0  0  0  0  0  0  0  0  0  0
   40.6165  -18.4235   33.5098 C   0  0  0  0  0  0  0  0  0  0  0  0
   41.5523  -18.4952   34.5141 C   0  0  0  0  0  0  0  0  0  0  0  0
   41.1329  -18.9908   35.7238 C   0  0  0  0  0  0  0  0  0  0  0  0
   42.0834  -19.0576   36.7414 C   0  0  0  0  0  0  0  0  0  0  0  0
   41.6844  -19.5591   37.9625 C   0  0  0  0  0  0  0  0  0  0  0  0
   40.3819  -19.9807   38.1725 C   0  0  0  0  0  0  0  0  0  0  0  0
   39.4765  -19.8834   37.1128 C   0  0  0  0  0  0  0  0  0  0  0  0
   39.8117  -19.3986   35.9007 C   0  0  0  0  0  0  0  0  0  0  0  0
 14 15  1  0  0  0
 15 16  1  0  0  0
 15 13  1  0  0  0
 13  6  1  0  0  0
  6  2  1  0  0  0
  2  3  1  0  0  0
  3  4  2  0  0  0
  3  1  1  0  0  0
  1 29  1  0  0  0
 29 30  1  0  0  0
 30 31  2  0  0  0
 31 32  1  0  0  0
 32 33  2  0  0  0
 33 34  1  0  0  0
 34 35  2  0  0  0
 35 36  1  0  0  0
 36 37  2  0  0  0
 37 38  1  0  0  0
 38 39  2  0  0  0
  1 17  1  0  0  0
 17 19  1  0  0  0
 19 20  2  0  0  0
 19 21  2  0  0  0
 19 22  1  0  0  0
 22 23  2  0  0  0
 23 24  1  0  0  0
 24 25  2  0  0  0
 25 26  1  0  0  0
 25 27  1  0  0  0
 27 28  2  0  0  0
  6  7  1  0  0  0
  7  8  1  0  0  0
  7  9  2  0  0  0
 39 30  1  0  0  0
 28 22  1  0  0  0
 39 34  1  0  0  0
  2  5  1  0  0  0
 17 18  1  0  0  0
  8 10  1  0  0  0
  8 11  1  0  0  0
  9 12  1  0  0  0
M  END
> <minimizedAffinity>
-7.32164

> <CNNscore>
0.1822643131

> <CNNaffinity>
5.8228225708

> <CNN_VS>
1.0612927675

> <CNNaffinity_variance>
0.5133575797

$$$$
[H]N=C(N([H])[H])[C@@]([H])(N([H])C(=O)[C@@]([H])(N([H])S(=O)(=O)c1c([H])c([H])c(F)c([H])c1[H])C([H])([H])c1nc([H])c([H])c2c([H])c([H])c([H])c([H])c12)C([H])([H])C([H])(C([H])([H])[H])C([H])([H])[H]


 39 41  0  0  0  0  0  0  0  0999 V2000
   37.5489  -18.8738   35.8751 C   0  0  0  0  0  0  0  0  0  0  0  0
   36.9482  -16.6147   36.4615 N   0  0  0  0  0  0  0  0  0  0  0  0
   37.0497  -17.6128   35.3891 C   0  0  0  0  0  0  0  0  0  0  0  0
   36.7329  -17.2558   34.2612 O   0  0  0  0  0  0  0  0  0  0  0  0
   37.2551  -16.9646   37.4444 H   0  0  0  0  0  0  0  0  0  0  0  0
   36.5224  -15.2454   36.3578 C   0  0  0  0  0  0  0  0  0  0  0  0
   37.2633  -14.3745   37.3046 C   0  0  0  0  0  0  0  0  0  0  0  0
   38.0508  -13.2806   36.7919 N   0  0  0  0  0  0  0  0  0  0  0  0
   37.2164  -14.5707   38.5583 N   0  0  0  0  0  0  0  0  0  0  0  0
   38.4570  -12.5791   37.4482 H   0  0  0  0  0  0  0  0  0  0  0  0
   38.2206  -13.1816   35.7677 H   0  0  0  0  0  0  0  0  0  0  0  0
   36.6644  -15.3342   38.9468 H   0  0  0  0  0  0  0  0  0  0  0  0
   35.0436  -15.1982   36.5237 C   0  0  0  0  0  0  0  0  0  0  0  0
   33.1340  -13.8415   35.5200 C   0  0  0  0  0  0  0  0  0  0  0  0
   34.2856  -13.9612   36.4951 C   0  0  0  0  0  0  0  0  0  0  0  0
   33.8332  -13.4281   37.8492 C   0  0  0  0  0  0  0  0  0  0  0  0
   36.6154  -19.9546   35.6644 N   0  0  0  0  0  0  0  0  0  0  0  0
   36.3353  -19.8931   34.6266 H   0  0  0  0  0  0  0  0  0  0  0  0
   35.3165  -20.0639   36.6924 S   0  0  0  0  0  0  0  0  0  0  0  0
   35.4050  -19.1067   37.8788 O   0  0  0  0  0  0  0  0  0  0  0  0
   35.3925  -21.5102   37.2890 O   0  0  0  0  0  0  0  0  0  0  0  0
   33.7599  -19.8253   36.0050 C   0  0  0  0  0  0  0  0  0  0  0  0
   33.4907  -18.6978   35.2745 C   0  0  0  0  0  0  0  0  0  0  0  0
   32.2007  -18.4034   34.8183 C   0  0  0  0  0  0  0  0  0  0  0  0
   31.1999  -19.2726   35.1145 C   0  0  0  0  0  0  0  0  0  0  0  0
   29.9427  -18.9326   34.6677 F   0  0  0  0  0  0  0  0  0  0  0  0
   31.4415  -20.4050   35.8380 C   0  0  0  0  0  0  0  0  0  0  0  0
   32.7053  -20.7101   36.2953 C   0  0  0  0  0  0  0  0  0  0  0  0
   38.9915  -19.1829   35.7590 C   0  0  0  0  0  0  0  0  0  0  0  0
   39.6046  -19.5701   37.0542 C   0  0  0  0  0  0  0  0  0  0  0  0
   38.9964  -20.4658   37.8670 N   0  0  0  0  0  0  0  0  0  0  0  0
   39.5292  -21.0051   38.9519 C   0  0  0  0  0  0  0  0  0  0  0  0
   40.8038  -20.6723   39.3447 C   0  0  0  0  0  0  0  0  0  0  0  0
   41.4803  -19.7662   38.5662 C   0  0  0  0  0  0  0  0  0  0  0  0
   42.7742  -19.4345   38.9648 C   0  0  0  0  0  0  0  0  0  0  0  0
   43.4686  -18.5207   38.2004 C   0  0  0  0  0  0  0  0  0  0  0  0
   42.9007  -17.9523   37.0722 C   0  0  0  0  0  0  0  0  0  0  0  0
   41.6015  -18.3302   36.7241 C   0  0  0  0  0  0  0  0  0  0  0  0
   40.8792  -19.2204   37.4330 C   0  0  0  0  0  0  0  0  0  0  0  0
 14 15  1  0  0  0
 15 16  1  0  0  0
 15 13  1  0  0  0
 13  6  1  0  0  0
  6  2  1  0  0  0
  2  3  1  0  0  0
  3  4  2  0  0  0
  3  1  1  0  0  0
  1 29  1  0  0  0
 29 30  1  0  0  0
 30 31  2  0  0  0
 31 32  1  0  0  0
 32 33  2  0  0  0
 33 34  1  0  0  0
 34 35  2  0  0  0
 35 36  1  0  0  0
 36 37  2  0  0  0
 37 38  1  0  0  0
 38 39  2  0  0  0
  1 17  1  0  0  0
 17 19  1  0  0  0
 19 20  2  0  0  0
 19 21  2  0  0  0
 19 22  1  0  0  0
 22 23  2  0  0  0
 23 24  1  0  0  0
 24 25  2  0  0  0
 25 26  1  0  0  0
 25 27  1  0  0  0
 27 28  2  0  0  0
  6  7  1  0  0  0
  7  8  1  0  0  0
  7  9  2  0  0  0
 39 30  1  0  0  0
 28 22  1  0  0  0
 39 34  1  0  0  0
  2  5  1  0  0  0
 17 18  1  0  0  0
  8 10  1  0  0  0
  8 11  1  0  0  0
  9 12  1  0  0  0
M  END
> <minimizedAffinity>
-7.21934

> <CNNscore>
0.1675281823

> <CNNaffinity>
5.7054882050

> <CNN_VS>
0.9558300972

> <CNNaffinity_variance>
0.3964130580

$$$$
[H]N=C(N([H])[H])[C@@]([H])(N([H])C(=O)[C@@]([H])(N([H])S(=O)(=O)c1c([H])c([H])c(F)c([H])c1[H])C([H])([H])c1nc([H])c([H])c2c([H])c([H])c([H])c([H])c12)C([H])([H])C([H])(C([H])([H])[H])C([H])([H])[H]


 39 41  0  0  0  0  0  0  0  0999 V2000
   34.8841  -18.7614   35.3272 C   0  0  0  0  0  0  0  0  0  0  0  0
   33.2239  -20.4385   34.8378 N   0  0  0  0  0  0  0  0  0  0  0  0
   33.4757  -19.0395   35.2063 C   0  0  0  0  0  0  0  0  0  0  0  0
   32.4981  -18.3223   35.3797 O   0  0  0  0  0  0  0  0  0  0  0  0
   34.1163  -21.0469   34.7102 H   0  0  0  0  0  0  0  0  0  0  0  0
   31.9556  -21.0905   34.6554 C   0  0  0  0  0  0  0  0  0  0  0  0
   30.9272  -20.5417   35.5748 C   0  0  0  0  0  0  0  0  0  0  0  0
   29.9225  -19.6452   35.0587 N   0  0  0  0  0  0  0  0  0  0  0  0
   30.9117  -20.8472   36.8072 N   0  0  0  0  0  0  0  0  0  0  0  0
   29.1150  -19.3680   35.6577 H   0  0  0  0  0  0  0  0  0  0  0  0
   29.9936  -19.2681   34.0890 H   0  0  0  0  0  0  0  0  0  0  0  0
   31.6079  -21.4815   37.1965 H   0  0  0  0  0  0  0  0  0  0  0  0
   32.1587  -22.5599   34.7834 C   0  0  0  0  0  0  0  0  0  0  0  0
   31.3345  -24.4924   33.3412 C   0  0  0  0  0  0  0  0  0  0  0  0
   31.1195  -23.5285   34.4883 C   0  0  0  0  0  0  0  0  0  0  0  0
   30.5784  -24.3065   35.6818 C   0  0  0  0  0  0  0  0  0  0  0  0
   35.1824  -17.9033   36.4490 N   0  0  0  0  0  0  0  0  0  0  0  0
   34.2338  -17.7045   36.9181 H   0  0  0  0  0  0  0  0  0  0  0  0
   36.0735  -16.5334   36.1573 S   0  0  0  0  0  0  0  0  0  0  0  0
   36.6855  -16.4994   34.7587 O   0  0  0  0  0  0  0  0  0  0  0  0
   37.2745  -16.6100   37.1599 O   0  0  0  0  0  0  0  0  0  0  0  0
   35.2718  -15.0274   36.3615 C   0  0  0  0  0  0  0  0  0  0  0  0
   35.9751  -13.9142   36.7403 C   0  0  0  0  0  0  0  0  0  0  0  0
   35.3375  -12.7074   37.0503 C   0  0  0  0  0  0  0  0  0  0  0  0
   33.9829  -12.6553   36.9648 C   0  0  0  0  0  0  0  0  0  0  0  0
   33.3947  -11.4569   37.3019 F   0  0  0  0  0  0  0  0  0  0  0  0
   33.2584  -13.7490   36.5868 C   0  0  0  0  0  0  0  0  0  0  0  0
   33.8698  -14.9451   36.2785 C   0  0  0  0  0  0  0  0  0  0  0  0
   35.8688  -19.8131   34.9890 C   0  0  0  0  0  0  0  0  0  0  0  0
   37.0133  -19.8569   35.9332 C   0  0  0  0  0  0  0  0  0  0  0  0
   36.8604  -20.3554   37.1826 N   0  0  0  0  0  0  0  0  0  0  0  0
   37.8401  -20.5967   38.0393 C   0  0  0  0  0  0  0  0  0  0  0  0
   39.1469  -20.3428   37.6969 C   0  0  0  0  0  0  0  0  0  0  0  0
   39.3760  -19.8336   36.4427 C   0  0  0  0  0  0  0  0  0  0  0  0
   40.7028  -19.5817   36.0972 C   0  0  0  0  0  0  0  0  0  0  0  0
   40.9541  -19.0634   34.8443 C   0  0  0  0  0  0  0  0  0  0  0  0
   39.9230  -18.8034   33.9569 C   0  0  0  0  0  0  0  0  0  0  0  0
   38.6154  -19.0821   34.3627 C   0  0  0  0  0  0  0  0  0  0  0  0
   38.3135  -19.5916   35.5734 C   0  0  0  0  0  0  0  0  0  0  0  0
 14 15  1  0  0  0
 15 16  1  0  0  0
 15 13  1  0  0  0
 13  6  1  0  0  0
  6  2  1  0  0  0
  2  3  1  0  0  0
  3  4  2  0  0  0
  3  1  1  0  0  0
  1 29  1  0  0  0
 29 30  1  0  0  0
 30 31  2  0  0  0
 31 32  1  0  0  0
 32 33  2  0  0  0
 33 34  1  0  0  0
 34 35  2  0  0  0
 35 36  1  0  0  0
 36 37  2  0  0  0
 37 38  1  0  0  0
 38 39  2  0  0  0
  1 17  1  0  0  0
 17 19  1  0  0  0
 19 20  2  0  0  0
 19 21  2  0  0  0
 19 22  1  0  0  0
 22 23  2  0  0  0
 23 24  1  0  0  0
 24 25  2  0  0  0
 25 26  1  0  0  0
 25 27  1  0  0  0
 27 28  2  0  0  0
  6  7  1  0  0  0
  7  8  1  0  0  0
  7  9  2  0  0  0
 39 30  1  0  0  0
 28 22  1  0  0  0
 39 34  1  0  0  0
  2  5  1  0  0  0
 17 18  1  0  0  0
  8 10  1  0  0  0
  8 11  1  0  0  0
  9 12  1  0  0  0
M  END
> <minimizedAffinity>
-6.65160

> <CNNscore>
0.1653329730

> <CNNaffinity>
5.4908013344

> <CNN_VS>
0.9078105092

> <CNNaffinity_variance>
0.1538517177

$$$$
[H]c1c([H])c([H])c2c(c1[H])c(=O)n(C([H])([H])[H])c(=O)c1c([H])c([N+](=O)[O-])c([H])c([H])c12


 21 23  0  0  0  0  0  0  0  0999 V2000
   42.4951  -18.2048   37.3342 C   0  0  0  0  0  0  0  0  0  0  0  0
   42.5520  -18.7814   38.5956 C   0  0  0  0  0  0  0  0  0  0  0  0
   41.6507  -19.7713   39.0093 C   0  0  0  0  0  0  0  0  0  0  0  0
   40.7070  -20.1409   38.1058 C   0  0  0  0  0  0  0  0  0  0  0  0
   40.6390  -19.5695   36.8238 C   0  0  0  0  0  0  0  0  0  0  0  0
   41.5292  -18.6106   36.4540 C   0  0  0  0  0  0  0  0  0  0  0  0
   39.7661  -19.9293   35.8044 C   0  0  0  0  0  0  0  0  0  0  0  0
   39.4889  -19.0251   35.0074 O   0  0  0  0  0  0  0  0  0  0  0  0
   39.2317  -21.1542   35.6433 N   0  0  0  0  0  0  0  0  0  0  0  0
   38.7159  -21.4151   34.3295 C   0  0  0  0  0  0  0  0  0  0  0  0
   39.0984  -22.1846   36.5091 C   0  0  0  0  0  0  0  0  0  0  0  0
   38.9161  -23.3478   36.0870 O   0  0  0  0  0  0  0  0  0  0  0  0
   39.1451  -22.0611   37.8805 C   0  0  0  0  0  0  0  0  0  0  0  0
   38.3594  -22.9626   38.5428 C   0  0  0  0  0  0  0  0  0  0  0  0
   38.2584  -22.9140   39.9126 C   0  0  0  0  0  0  0  0  0  0  0  0
   38.9437  -21.9603   40.6300 C   0  0  0  0  0  0  0  0  0  0  0  0
   39.7563  -21.0246   39.9753 C   0  0  0  0  0  0  0  0  0  0  0  0
   39.8440  -21.0948   38.6148 C   0  0  0  0  0  0  0  0  0  0  0  0
   42.9205  -15.9588   36.6256 O   0  0  0  0  0  0  0  0  0  0  0  0
   43.4127  -17.2014   36.9259 N   0  0  0  0  0  0  0  0  0  0  0  0
   44.6210  -17.4366   36.8421 O   0  0  0  0  0  0  0  0  0  0  0  0
 19 20  1  0  0  0
 20 21  2  0  0  0
 20  1  1  0  0  0
  1  2  2  0  0  0
  2  3  1  0  0  0
  3  4  2  0  0  0
  4  5  1  0  0  0
  5  6  2  0  0  0
  5  7  1  0  0  0
  7  8  2  0  0  0
  7  9  1  0  0  0
  9 10  1  0  0  0
  9 11  1  0  0  0
 11 12  2  0  0  0
 11 13  1  0  0  0
 13 14  2  0  0  0
 14 15  1  0  0  0
 15 16  2  0  0  0
 16 17  1  0  0  0
 17 18  2  0  0  0
  6  1  1  0  0  0
 18 13  1  0  0  0
 18  4  1  0  0  0
M  CHG 1  19  -1
M  CHG 1  20   1
M  END
> <minimizedAffinity>
-4.31034

> <CNNscore>
0.5091195703

> <CNNaffinity>
4.0427942276

> <CNN_VS>
2.0582656860

> <CNNaffinity_variance>
0.0381068662

$$$$
[H]c1c([H])c([H])c2c(c1[H])c(=O)n(C([H])([H])[H])c(=O)c1c([H])c([N+](=O)[O-])c([H])c([H])c12


 21 23  0  0  0  0  0  0  0  0999 V2000
   32.8486  -11.4072   37.2116 C   0  0  0  0  0  0  0  0  0  0  0  0
   32.0733  -12.5463   37.0425 C   0  0  0  0  0  0  0  0  0  0  0  0
   32.6312  -13.7948   36.7366 C   0  0  0  0  0  0  0  0  0  0  0  0
   33.9824  -13.8351   36.6101 C   0  0  0  0  0  0  0  0  0  0  0  0
   34.7810  -12.6917   36.7823 C   0  0  0  0  0  0  0  0  0  0  0  0
   34.2076  -11.4949   37.0784 C   0  0  0  0  0  0  0  0  0  0  0  0
   36.1691  -12.6414   36.7505 C   0  0  0  0  0  0  0  0  0  0  0  0
   36.6469  -11.5588   36.3906 O   0  0  0  0  0  0  0  0  0  0  0  0
   36.9853  -13.6605   37.0777 N   0  0  0  0  0  0  0  0  0  0  0  0
   38.3350  -13.2749   37.3778 C   0  0  0  0  0  0  0  0  0  0  0  0
   36.7507  -14.9890   37.1739 C   0  0  0  0  0  0  0  0  0  0  0  0
   37.5185  -15.7220   37.8354 O   0  0  0  0  0  0  0  0  0  0  0  0
   35.6923  -15.6386   36.5776 C   0  0  0  0  0  0  0  0  0  0  0  0
   35.9717  -16.9245   36.2073 C   0  0  0  0  0  0  0  0  0  0  0  0
   35.0285  -17.6712   35.5427 C   0  0  0  0  0  0  0  0  0  0  0  0
   33.7973  -17.1347   35.2427 C   0  0  0  0  0  0  0  0  0  0  0  0
   33.4853  -15.8188   35.6115 C   0  0  0  0  0  0  0  0  0  0  0  0
   34.4365  -15.0977   36.2740 C   0  0  0  0  0  0  0  0  0  0  0  0
   30.9195  -10.0868   37.7237 O   0  0  0  0  0  0  0  0  0  0  0  0
   32.2728  -10.1468   37.5200 N   0  0  0  0  0  0  0  0  0  0  0  0
   32.9673   -9.1305   37.6035 O   0  0  0  0  0  0  0  0  0  0  0  0
 19 20  1  0  0  0
 20 21  2  0  0  0
 20  1  1  0  0  0
  1  2  2  0  0  0
  2  3  1  0  0  0
  3  4  2  0  0  0
  4  5  1  0  0  0
  5  6  2  0  0  0
  5  7  1  0  0  0
  7  8  2  0  0  0
  7  9  1  0  0  0
  9 10  1  0  0  0
  9 11  1  0  0  0
 11 12  2  0  0  0
 11 13  1  0  0  0
 13 14  2  0  0  0
 14 15  1  0  0  0
 15 16  2  0  0  0
 16 17  1  0  0  0
 17 18  2  0  0  0
  6  1  1  0  0  0
 18 13  1  0  0  0
 18  4  1  0  0  0
M  CHG 1  19  -1
M  CHG 1  20   1
M  END
> <minimizedAffinity>
-5.58621

> <CNNscore>
0.4367050231

> <CNNaffinity>
4.5850048065

> <CNN_VS>
2.0022945404

> <CNNaffinity_variance>
0.5011626482

$$$$
[H]c1c([H])c([H])c2c(c1[H])c(=O)n(C([H])([H])[H])c(=O)c1c([H])c([N+](=O)[O-])c([H])c([H])c12


 21 23  0  0  0  0  0  0  0  0999 V2000
   31.4063  -20.5897   35.5615 C   0  0  0  0  0  0  0  0  0  0  0  0
   31.5482  -19.4514   34.7797 C   0  0  0  0  0  0  0  0  0  0  0  0
   32.5966  -18.5403   34.9646 C   0  0  0  0  0  0  0  0  0  0  0  0
   33.4753  -18.8281   35.9589 C   0  0  0  0  0  0  0  0  0  0  0  0
   33.3474  -19.9783   36.7560 C   0  0  0  0  0  0  0  0  0  0  0  0
   32.3178  -20.8422   36.5505 C   0  0  0  0  0  0  0  0  0  0  0  0
   34.2297  -20.4019   37.7422 C   0  0  0  0  0  0  0  0  0  0  0  0
   33.7206  -21.0703   38.6498 O   0  0  0  0  0  0  0  0  0  0  0  0
   35.5495  -20.1382   37.7611 N   0  0  0  0  0  0  0  0  0  0  0  0
   36.3212  -21.0010   38.6099 C   0  0  0  0  0  0  0  0  0  0  0  0
   36.2754  -19.1978   37.1146 C   0  0  0  0  0  0  0  0  0  0  0  0
   37.5102  -19.3373   36.9720 O   0  0  0  0  0  0  0  0  0  0  0  0
   35.7515  -18.0434   36.5754 C   0  0  0  0  0  0  0  0  0  0  0  0
   36.6131  -16.9822   36.6002 C   0  0  0  0  0  0  0  0  0  0  0  0
   36.2016  -15.7492   36.1537 C   0  0  0  0  0  0  0  0  0  0  0  0
   34.9223  -15.5694   35.6795 C   0  0  0  0  0  0  0  0  0  0  0  0
   34.0194  -16.6409   35.6430 C   0  0  0  0  0  0  0  0  0  0  0  0
   34.4518  -17.8569   36.0881 C   0  0  0  0  0  0  0  0  0  0  0  0
   29.0571  -21.0285   35.4356 O   0  0  0  0  0  0  0  0  0  0  0  0
   30.3393  -21.5056   35.3666 N   0  0  0  0  0  0  0  0  0  0  0  0
   30.5552  -22.6992   35.1409 O   0  0  0  0  0  0  0  0  0  0  0  0
 19 20  1  0  0  0
 20 21  2  0  0  0
 20  1  1  0  0  0
  1  2  2  0  0  0
  2  3  1  0  0  0
  3  4  2  0  0  0
  4  5  1  0  0  0
  5  6  2  0  0  0
  5  7  1  0  0  0
  7  8  2  0  0  0
  7  9  1  0  0  0
  9 10  1  0  0  0
  9 11  1  0  0  0
 11 12  2  0  0  0
 11 13  1  0  0  0
 13 14  2  0  0  0
 14 15  1  0  0  0
 15 16  2  0  0  0
 16 17  1  0  0  0
 17 18  2  0  0  0
  6  1  1  0  0  0
 18 13  1  0  0  0
 18  4  1  0  0  0
M  CHG 1  19  -1
M  CHG 1  20   1
M  END
> <minimizedAffinity>
-5.89726

> <CNNscore>
0.4314112961

> <CNNaffinity>
3.8880748749

> <CNN_VS>
1.6773594618

> <CNNaffinity_variance>
0.5429894924

$$$$
[H]c1c([H])c([H])c2c(c1[H])c(=O)n(C([H])([H])[H])c(=O)c1c([H])c([N+](=O)[O-])c([H])c([H])c12


 21 23  0  0  0  0  0  0  0  0999 V2000
   37.7143  -21.2564   39.3941 C   0  0  0  0  0  0  0  0  0  0  0  0
   36.6739  -20.9048   38.5450 C   0  0  0  0  0  0  0  0  0  0  0  0
   36.8930  -20.2936   37.3033 C   0  0  0  0  0  0  0  0  0  0  0  0
   38.1876  -20.0577   36.9691 C   0  0  0  0  0  0  0  0  0  0  0  0
   39.2518  -20.4115   37.8160 C   0  0  0  0  0  0  0  0  0  0  0  0
   39.0044  -21.0032   39.0149 C   0  0  0  0  0  0  0  0  0  0  0  0
   40.6069  -20.2846   37.5366 C   0  0  0  0  0  0  0  0  0  0  0  0
   41.3344  -20.1321   38.5251 O   0  0  0  0  0  0  0  0  0  0  0  0
   41.1467  -20.3194   36.3040 N   0  0  0  0  0  0  0  0  0  0  0  0
   42.5558  -20.5910   36.2742 C   0  0  0  0  0  0  0  0  0  0  0  0
   40.5871  -20.1432   35.0854 C   0  0  0  0  0  0  0  0  0  0  0  0
   41.1589  -20.5690   34.0577 O   0  0  0  0  0  0  0  0  0  0  0  0
   39.3871  -19.5036   34.8640 C   0  0  0  0  0  0  0  0  0  0  0  0
   39.3261  -18.8431   33.6687 C   0  0  0  0  0  0  0  0  0  0  0  0
   38.2119  -18.1071   33.3436 C   0  0  0  0  0  0  0  0  0  0  0  0
   37.1496  -18.0263   34.2146 C   0  0  0  0  0  0  0  0  0  0  0  0
   37.1866  -18.6942   35.4464 C   0  0  0  0  0  0  0  0  0  0  0  0
   38.3021  -19.4220   35.7459 C   0  0  0  0  0  0  0  0  0  0  0  0
   36.2266  -22.3604   40.9092 O   0  0  0  0  0  0  0  0  0  0  0  0
   37.4809  -21.8741   40.6509 N   0  0  0  0  0  0  0  0  0  0  0  0
   38.3793  -21.9727   41.4908 O   0  0  0  0  0  0  0  0  0  0  0  0
 19 20  1  0  0  0
 20 21  2  0  0  0
 20  1  1  0  0  0
  1  2  2  0  0  0
  2  3  1  0  0  0
  3  4  2  0  0  0
  4  5  1  0  0  0
  5  6  2  0  0  0
  5  7  1  0  0  0
  7  8  2  0  0  0
  7  9  1  0  0  0
  9 10  1  0  0  0
  9 11  1  0  0  0
 11 12  2  0  0  0
 11 13  1  0  0  0
 13 14  2  0  0  0
 14 15  1  0  0  0
 15 16  2  0  0  0
 16 17  1  0  0  0
 17 18  2  0  0  0
  6  1  1  0  0  0
 18 13  1  0  0  0
 18  4  1  0  0  0
M  CHG 1  19  -1
M  CHG 1  20   1
M  END
> <minimizedAffinity>
-4.19888

> <CNNscore>
0.4147845805

> <CNNaffinity>
3.9238197803

> <CNN_VS>
1.6275399923

> <CNNaffinity_variance>
0.0711475462

$$$$
[H]c1c([H])c([H])c2c(c1[H])c(=O)n(C([H])([H])[H])c(=O)c1c([H])c([N+](=O)[O-])c([H])c([H])c12


 21 23  0  0  0  0  0  0  0  0999 V2000
   35.7143  -21.1151   39.2027 C   0  0  0  0  0  0  0  0  0  0  0  0
   34.6369  -21.8775   38.7725 C   0  0  0  0  0  0  0  0  0  0  0  0
   33.8116  -21.4790   37.7125 C   0  0  0  0  0  0  0  0  0  0  0  0
   34.1201  -20.2958   37.1221 C   0  0  0  0  0  0  0  0  0  0  0  0
   35.2097  -19.5149   37.5435 C   0  0  0  0  0  0  0  0  0  0  0  0
   35.9907  -19.9306   38.5759 C   0  0  0  0  0  0  0  0  0  0  0  0
   35.6540  -18.3343   36.9609 C   0  0  0  0  0  0  0  0  0  0  0  0
   36.2252  -17.5521   37.7301 O   0  0  0  0  0  0  0  0  0  0  0  0
   35.5052  -18.0115   35.6626 N   0  0  0  0  0  0  0  0  0  0  0  0
   36.3843  -16.9764   35.1978 C   0  0  0  0  0  0  0  0  0  0  0  0
   34.6681  -18.4976   34.7181 C   0  0  0  0  0  0  0  0  0  0  0  0
   34.9218  -18.3387   33.5037 O   0  0  0  0  0  0  0  0  0  0  0  0
   33.5036  -19.1829   34.9870 C   0  0  0  0  0  0  0  0  0  0  0  0
   32.5216  -18.9889   34.0560 C   0  0  0  0  0  0  0  0  0  0  0  0
   31.2836  -19.5601   34.2302 C   0  0  0  0  0  0  0  0  0  0  0  0
   31.0194  -20.3297   35.3399 C   0  0  0  0  0  0  0  0  0  0  0  0
   32.0089  -20.5445   36.3092 C   0  0  0  0  0  0  0  0  0  0  0  0
   33.2318  -19.9703   36.1129 C   0  0  0  0  0  0  0  0  0  0  0  0
   36.2837  -21.0225   41.5253 O   0  0  0  0  0  0  0  0  0  0  0  0
   36.5433  -21.5277   40.2788 N   0  0  0  0  0  0  0  0  0  0  0  0
   37.4731  -22.3192   40.1017 O   0  0  0  0  0  0  0  0  0  0  0  0
 19 20  1  0  0  0
 20 21  2  0  0  0
 20  1  1  0  0  0
  1  2  2  0  0  0
  2  3  1  0  0  0
  3  4  2  0  0  0
  4  5  1  0  0  0
  5  6  2  0  0  0
  5  7  1  0  0  0
  7  8  2  0  0  0
  7  9  1  0  0  0
  9 10  1  0  0  0
  9 11  1  0  0  0
 11 12  2  0  0  0
 11 13  1  0  0  0
 13 14  2  0  0  0
 14 15  1  0  0  0
 15 16  2  0  0  0
 16 17  1  0  0  0
 17 18  2  0  0  0
  6  1  1  0  0  0
 18 13  1  0  0  0
 18  4  1  0  0  0
M  CHG 1  19  -1
M  CHG 1  20   1
M  END
> <minimizedAffinity>
-5.13757

> <CNNscore>
0.4052067697

> <CNNaffinity>
3.8397781849

> <CNN_VS>
1.5559041500

> <CNNaffinity_variance>
0.4410802424

$$$$
[H]c1c([H])c([H])c2c(c1[H])c(=O)n(C([H])([H])[H])c(=O)c1c([H])c([N+](=O)[O-])c([H])c([H])c12


 21 23  0  0  0  0  0  0  0  0999 V2000
   40.5291  -19.1776   35.3080 C   0  0  0  0  0  0  0  0  0  0  0  0
   39.2722  -19.5034   35.7990 C   0  0  0  0  0  0  0  0  0  0  0  0
   39.0758  -19.9758   37.1035 C   0  0  0  0  0  0  0  0  0  0  0  0
   40.1884  -20.1027   37.8712 C   0  0  0  0  0  0  0  0  0  0  0  0
   41.4669  -19.7732   37.3899 C   0  0  0  0  0  0  0  0  0  0  0  0
   41.6228  -19.3176   36.1183 C   0  0  0  0  0  0  0  0  0  0  0  0
   42.6526  -19.7938   38.1140 C   0  0  0  0  0  0  0  0  0  0  0  0
   43.6723  -20.0006   37.4452 O   0  0  0  0  0  0  0  0  0  0  0  0
   42.7474  -19.6068   39.4436 N   0  0  0  0  0  0  0  0  0  0  0  0
   44.0590  -19.2529   39.9071 C   0  0  0  0  0  0  0  0  0  0  0  0
   41.8159  -19.6942   40.4202 C   0  0  0  0  0  0  0  0  0  0  0  0
   42.0012  -19.1371   41.5247 O   0  0  0  0  0  0  0  0  0  0  0  0
   40.6251  -20.3770   40.3025 C   0  0  0  0  0  0  0  0  0  0  0  0
   40.1815  -20.9191   41.4764 C   0  0  0  0  0  0  0  0  0  0  0  0
   39.0387  -21.6824   41.4950 C   0  0  0  0  0  0  0  0  0  0  0  0
   38.3316  -21.9096   40.3366 C   0  0  0  0  0  0  0  0  0  0  0  0
   38.7647  -21.3651   39.1198 C   0  0  0  0  0  0  0  0  0  0  0  0
   39.9002  -20.6073   39.1265 C   0  0  0  0  0  0  0  0  0  0  0  0
   41.9868  -18.7039   33.4700 O   0  0  0  0  0  0  0  0  0  0  0  0
   40.7170  -18.7011   33.9840 N   0  0  0  0  0  0  0  0  0  0  0  0
   39.7665  -18.2946   33.3105 O   0  0  0  0  0  0  0  0  0  0  0  0
 19 20  1  0  0  0
 20 21  2  0  0  0
 20  1  1  0  0  0
  1  2  2  0  0  0
  2  3  1  0  0  0
  3  4  2  0  0  0
  4  5  1  0  0  0
  5  6  2  0  0  0
  5  7  1  0  0  0
  7  8  2  0  0  0
  7  9  1  0  0  0
  9 10  1  0  0  0
  9 11  1  0  0  0
 11 12  2  0  0  0
 11 13  1  0  0  0
 13 14  2  0  0  0
 14 15  1  0  0  0
 15 16  2  0  0  0
 16 17  1  0  0  0
 17 18  2  0  0  0
  6  1  1  0  0  0
 18 13  1  0  0  0
 18  4  1  0  0  0
M  CHG 1  19  -1
M  CHG 1  20   1
M  END
> <minimizedAffinity>
-4.40182

> <CNNscore>
0.3780415356

> <CNNaffinity>
3.7421875000

> <CNN_VS>
1.4147022963

> <CNNaffinity_variance>
0.1489381641

$$$$
[H]c1c([H])c([H])c2c(c1[H])c(=O)n(C([H])([H])[H])c(=O)c1c([H])c([N+](=O)[O-])c([H])c([H])c12


 21 23  0  0  0  0  0  0  0  0999 V2000
   35.7219  -14.7935   36.5711 C   0  0  0  0  0  0  0  0  0  0  0  0
   34.4467  -14.8678   36.0277 C   0  0  0  0  0  0  0  0  0  0  0  0
   33.8479  -16.0869   35.6833 C   0  0  0  0  0  0  0  0  0  0  0  0
   34.5860  -17.2042   35.9078 C   0  0  0  0  0  0  0  0  0  0  0  0
   35.8765  -17.1456   36.4609 C   0  0  0  0  0  0  0  0  0  0  0  0
   36.4286  -15.9458   36.7838 C   0  0  0  0  0  0  0  0  0  0  0  0
   36.6798  -18.2275   36.7997 C   0  0  0  0  0  0  0  0  0  0  0  0
   37.8969  -18.0124   36.7530 O   0  0  0  0  0  0  0  0  0  0  0  0
   36.2255  -19.4417   37.1619 N   0  0  0  0  0  0  0  0  0  0  0  0
   37.1801  -20.2552   37.8598 C   0  0  0  0  0  0  0  0  0  0  0  0
   35.0199  -20.0276   36.9816 C   0  0  0  0  0  0  0  0  0  0  0  0
   34.6719  -20.9943   37.6950 O   0  0  0  0  0  0  0  0  0  0  0  0
   34.0977  -19.6378   36.0353 C   0  0  0  0  0  0  0  0  0  0  0  0
   33.3360  -20.6646   35.5512 C   0  0  0  0  0  0  0  0  0  0  0  0
   32.4188  -20.4324   34.5543 C   0  0  0  0  0  0  0  0  0  0  0  0
   32.2581  -19.1688   34.0336 C   0  0  0  0  0  0  0  0  0  0  0  0
   33.0262  -18.0985   34.5125 C   0  0  0  0  0  0  0  0  0  0  0  0
   33.9281  -18.3525   35.5053 C   0  0  0  0  0  0  0  0  0  0  0  0
   35.6493  -12.4016   36.5960 O   0  0  0  0  0  0  0  0  0  0  0  0
   36.3197  -13.5527   36.9152 N   0  0  0  0  0  0  0  0  0  0  0  0
   37.4126  -13.5066   37.4860 O   0  0  0  0  0  0  0  0  0  0  0  0
 19 20  1  0  0  0
 20 21  2  0  0  0
 20  1  1  0  0  0
  1  2  2  0  0  0
  2  3  1  0  0  0
  3  4  2  0  0  0
  4  5  1  0  0  0
  5  6  2  0  0  0
  5  7  1  0  0  0
  7  8  2  0  0  0
  7  9  1  0  0  0
  9 10  1  0  0  0
  9 11  1  0  0  0
 11 12  2  0  0  0
 11 13  1  0  0  0
 13 14  2  0  0  0
 14 15  1  0  0  0
 15 16  2  0  0  0
 16 17  1  0  0  0
 17 18  2  0  0  0
  6  1  1  0  0  0
 18 13  1  0  0  0
 18  4  1  0  0  0
M  CHG 1  19  -1
M  CHG 1  20   1
M  END
> <minimizedAffinity>
-6.98318

> <CNNscore>
0.3765050173

> <CNNaffinity>
4.0056123734

> <CNN_VS>
1.5081331730

> <CNNaffinity_variance>
0.5372912288

$$$$
[H]c1c([H])c([H])c2c(c1[H])c(=O)n(C([H])([H])[H])c(=O)c1c([H])c([N+](=O)[O-])c([H])c([H])c12


 21 23  0  0  0  0  0  0  0  0999 V2000
   34.9741  -17.5651   35.3764 C   0  0  0  0  0  0  0  0  0  0  0  0
   33.7302  -16.9820   35.1775 C   0  0  0  0  0  0  0  0  0  0  0  0
   33.4244  -15.6929   35.6337 C   0  0  0  0  0  0  0  0  0  0  0  0
   34.4154  -15.0360   36.2892 C   0  0  0  0  0  0  0  0  0  0  0  0
   35.6810  -15.6112   36.4949 C   0  0  0  0  0  0  0  0  0  0  0  0
   35.9449  -16.8649   36.0395 C   0  0  0  0  0  0  0  0  0  0  0  0
   36.7811  -14.9984   37.0820 C   0  0  0  0  0  0  0  0  0  0  0  0
   37.5715  -15.7661   37.6439 O   0  0  0  0  0  0  0  0  0  0  0  0
   37.0235  -13.6745   37.0708 N   0  0  0  0  0  0  0  0  0  0  0  0
   38.3836  -13.3117   37.3515 C   0  0  0  0  0  0  0  0  0  0  0  0
   36.2033  -12.6246   36.8384 C   0  0  0  0  0  0  0  0  0  0  0  0
   36.6739  -11.5124   36.5127 O   0  0  0  0  0  0  0  0  0  0  0  0
   34.8299  -12.6722   36.9357 C   0  0  0  0  0  0  0  0  0  0  0  0
   34.2639  -11.4946   37.3379 C   0  0  0  0  0  0  0  0  0  0  0  0
   32.9068  -11.4154   37.5401 C   0  0  0  0  0  0  0  0  0  0  0  0
   32.1056  -12.5165   37.3418 C   0  0  0  0  0  0  0  0  0  0  0  0
   32.6606  -13.7357   36.9292 C   0  0  0  0  0  0  0  0  0  0  0  0
   34.0103  -13.7893   36.7311 C   0  0  0  0  0  0  0  0  0  0  0  0
   36.5891  -19.2181   34.7544 O   0  0  0  0  0  0  0  0  0  0  0  0
   35.2728  -18.8726   34.9112 N   0  0  0  0  0  0  0  0  0  0  0  0
   34.3757  -19.6795   34.6536 O   0  0  0  0  0  0  0  0  0  0  0  0
 19 20  1  0  0  0
 20 21  2  0  0  0
 20  1  1  0  0  0
  1  2  2  0  0  0
  2  3  1  0  0  0
  3  4  2  0  0  0
  4  5  1  0  0  0
  5  6  2  0  0  0
  5  7  1  0  0  0
  7  8  2  0  0  0
  7  9  1  0  0  0
  9 10  1  0  0  0
  9 11  1  0  0  0
 11 12  2  0  0  0
 11 13  1  0  0  0
 13 14  2  0  0  0
 14 15  1  0  0  0
 15 16  2  0  0  0
 16 17  1  0  0  0
 17 18  2  0  0  0
  6  1  1  0  0  0
 18 13  1  0  0  0
 18  4  1  0  0  0
M  CHG 1  19  -1
M  CHG 1  20   1
M  END
> <minimizedAffinity>
-5.61920

> <CNNscore>
0.3650284111

> <CNNaffinity>
4.3352599144

> <CNN_VS>
1.5824930668

> <CNNaffinity_variance>
0.3779664636

$$$$
[H]c1c([H])c([H])c2c(c1[H])c(=O)n(C([H])([H])[H])c(=O)c1c([H])c([N+](=O)[O-])c([H])c([H])c12


 21 23  0  0  0  0  0  0  0  0999 V2000
   32.4007  -20.2928   35.1263 C   0  0  0  0  0  0  0  0  0  0  0  0
   32.2913  -19.0292   34.5620 C   0  0  0  0  0  0  0  0  0  0  0  0
   33.1570  -17.9799   34.8981 C   0  0  0  0  0  0  0  0  0  0  0  0
   34.1174  -18.2630   35.8152 C   0  0  0  0  0  0  0  0  0  0  0  0
   34.2435  -19.5380   36.3923 C   0  0  0  0  0  0  0  0  0  0  0  0
   33.3864  -20.5344   36.0442 C   0  0  0  0  0  0  0  0  0  0  0  0
   35.2327  -19.9501   37.2768 C   0  0  0  0  0  0  0  0  0  0  0  0
   34.8991  -20.8529   38.0536 O   0  0  0  0  0  0  0  0  0  0  0  0
   36.4789  -19.4443   37.3300 N   0  0  0  0  0  0  0  0  0  0  0  0
   37.4359  -20.2775   38.0010 C   0  0  0  0  0  0  0  0  0  0  0  0
   36.9857  -18.2830   36.8571 C   0  0  0  0  0  0  0  0  0  0  0  0
   38.2172  -18.1545   36.6794 O   0  0  0  0  0  0  0  0  0  0  0  0
   36.2309  -17.1748   36.5408 C   0  0  0  0  0  0  0  0  0  0  0  0
   36.8779  -15.9886   36.7486 C   0  0  0  0  0  0  0  0  0  0  0  0
   36.2227  -14.7992   36.5367 C   0  0  0  0  0  0  0  0  0  0  0  0
   34.9126  -14.7890   36.1155 C   0  0  0  0  0  0  0  0  0  0  0  0
   34.2264  -15.9911   35.8947 C   0  0  0  0  0  0  0  0  0  0  0  0
   34.8989  -17.1598   36.1083 C   0  0  0  0  0  0  0  0  0  0  0  0
   30.2208  -21.2762   35.2162 O   0  0  0  0  0  0  0  0  0  0  0  0
   31.5172  -21.3484   34.7795 N   0  0  0  0  0  0  0  0  0  0  0  0
   31.9010  -22.3067   34.1037 O   0  0  0  0  0  0  0  0  0  0  0  0
 19 20  1  0  0  0
 20 21  2  0  0  0
 20  1  1  0  0  0
  1  2  2  0  0  0
  2  3  1  0  0  0
  3  4  2  0  0  0
  4  5  1  0  0  0
  5  6  2  0  0  0
  5  7  1  0  0  0
  7  8  2  0  0  0
  7  9  1  0  0  0
  9 10  1  0  0  0
  9 11  1  0  0  0
 11 12  2  0  0  0
 11 13  1  0  0  0
 13 14  2  0  0  0
 14 15  1  0  0  0
 15 16  2  0  0  0
 16 17  1  0  0  0
 17 18  2  0  0  0
  6  1  1  0  0  0
 18 13  1  0  0  0
 18  4  1  0  0  0
M  CHG 1  19  -1
M  CHG 1  20   1
M  END
> <minimizedAffinity>
-6.38074

> <CNNscore>
0.3617463410

> <CNNaffinity>
3.9576225281

> <CNN_VS>
1.4316555262

> <CNNaffinity_variance>
0.4835312963

$$$$
[H]c1nc(N([H])c2c([H])c([H])c(F)c(C(F)(F)F)c2[H])c2c([H])c(OC([H])([H])C([H])([H])C([H])([H])N3C([H])([H])C([H])([H])C([H])([H])C3([H])[H])c(OC([H])([H])[H])c([H])c2n1


 34 37  0  0  0  0  0  0  0  0999 V2000
   36.0708  -14.4461   36.8999 C   0  0  0  0  0  0  0  0  0  0  0  0
   36.7398  -15.4158   36.1835 C   0  0  0  0  0  0  0  0  0  0  0  0
   36.0931  -16.4428   35.5526 C   0  0  0  0  0  0  0  0  0  0  0  0
   36.7282  -17.3839   34.8602 N   0  0  0  0  0  0  0  0  0  0  0  0
   36.0931  -18.3784   34.2515 C   0  0  0  0  0  0  0  0  0  0  0  0
   34.7690  -18.4190   34.3487 N   0  0  0  0  0  0  0  0  0  0  0  0
   34.0098  -17.5395   35.0112 C   0  0  0  0  0  0  0  0  0  0  0  0
   34.6962  -16.5086   35.6399 C   0  0  0  0  0  0  0  0  0  0  0  0
   34.0172  -15.5547   36.3468 C   0  0  0  0  0  0  0  0  0  0  0  0
   34.7030  -14.5071   36.9879 C   0  0  0  0  0  0  0  0  0  0  0  0
   38.1821  -13.4855   37.6196 C   0  0  0  0  0  0  0  0  0  0  0  0
   36.7592  -13.4226   37.5246 O   0  0  0  0  0  0  0  0  0  0  0  0
   32.6213  -17.6516   35.0254 N   0  0  0  0  0  0  0  0  0  0  0  0
   32.0248  -16.8030   34.8075 H   0  0  0  0  0  0  0  0  0  0  0  0
   31.9061  -18.8229   35.3115 C   0  0  0  0  0  0  0  0  0  0  0  0
   30.6294  -19.0726   34.9367 C   0  0  0  0  0  0  0  0  0  0  0  0
   29.9538  -20.2473   35.2779 C   0  0  0  0  0  0  0  0  0  0  0  0
   30.6056  -21.1921   36.0229 C   0  0  0  0  0  0  0  0  0  0  0  0
   30.0151  -22.3611   36.3945 F   0  0  0  0  0  0  0  0  0  0  0  0
   31.9234  -20.9779   36.4309 C   0  0  0  0  0  0  0  0  0  0  0  0
   32.5501  -19.8100   36.0746 C   0  0  0  0  0  0  0  0  0  0  0  0
   32.6066  -22.0103   37.2328 C   0  0  0  0  0  0  0  0  0  0  0  0
   32.7528  -23.1568   36.4881 F   0  0  0  0  0  0  0  0  0  0  0  0
   31.8369  -22.2786   38.3692 F   0  0  0  0  0  0  0  0  0  0  0  0
   33.8396  -21.5820   37.7064 F   0  0  0  0  0  0  0  0  0  0  0  0
   34.0252  -13.5488   37.6974 O   0  0  0  0  0  0  0  0  0  0  0  0
   33.7386  -12.2893   37.1322 C   0  0  0  0  0  0  0  0  0  0  0  0
   32.6370  -11.5732   37.8734 C   0  0  0  0  0  0  0  0  0  0  0  0
   31.4328  -12.4240   38.1096 C   0  0  0  0  0  0  0  0  0  0  0  0
   30.2132  -11.8481   37.5799 N   0  0  0  0  0  0  0  0  0  0  0  0
   30.3990  -10.4101   37.5693 C   0  0  0  0  0  0  0  0  0  0  0  0
   29.3018   -9.8197   38.4240 C   0  0  0  0  0  0  0  0  0  0  0  0
   28.2342  -10.8946   38.4309 C   0  0  0  0  0  0  0  0  0  0  0  0
   29.0770  -12.1522   38.3899 C   0  0  0  0  0  0  0  0  0  0  0  0
 11 12  1  0  0  0
 12  1  1  0  0  0
  1  2  2  0  0  0
  2  3  1  0  0  0
  3  4  2  0  0  0
  4  5  1  0  0  0
  5  6  2  0  0  0
  6  7  1  0  0  0
  7 13  1  0  0  0
 13 15  1  0  0  0
 15 16  2  0  0  0
 16 17  1  0  0  0
 17 18  2  0  0  0
 18 19  1  0  0  0
 18 20  1  0  0  0
 20 21  2  0  0  0
 20 22  1  0  0  0
 22 23  1  0  0  0
 22 24  1  0  0  0
 22 25  1  0  0  0
  7  8  2  0  0  0
  8  9  1  0  0  0
  9 10  2  0  0  0
 10 26  1  0  0  0
 26 27  1  0  0  0
 27 28  1  0  0  0
 28 29  1  0  0  0
 29 30  1  0  0  0
 30 31  1  0  0  0
 31 32  1  0  0  0
 32 33  1  0  0  0
 33 34  1  0  0  0
 10  1  1  0  0  0
 34 30  1  0  0  0
  8  3  1  0  0  0
 21 15  1  0  0  0
 13 14  1  0  0  0
M  END
> <minimizedAffinity>
-8.21187

> <CNNscore>
0.6681480408

> <CNNaffinity>
6.7794752121

> <CNN_VS>
4.5296931267

> <CNNaffinity_variance>
0.0675052777

$$$$
[H]c1nc(N([H])c2c([H])c([H])c(F)c(C(F)(F)F)c2[H])c2c([H])c(OC([H])([H])C([H])([H])C([H])([H])N3C([H])([H])C([H])([H])C([H])([H])C3([H])[H])c(OC([H])([H])[H])c([H])c2n1


 34 37  0  0  0  0  0  0  0  0999 V2000
   35.7012  -14.9858   36.7253 C   0  0  0  0  0  0  0  0  0  0  0  0
   36.5971  -15.8626   36.1512 C   0  0  0  0  0  0  0  0  0  0  0  0
   36.1996  -16.9391   35.4067 C   0  0  0  0  0  0  0  0  0  0  0  0
   37.0548  -17.7916   34.8495 N   0  0  0  0  0  0  0  0  0  0  0  0
   36.6609  -18.8350   34.1292 C   0  0  0  0  0  0  0  0  0  0  0  0
   35.3552  -19.0193   33.9688 N   0  0  0  0  0  0  0  0  0  0  0  0
   34.3916  -18.2406   34.4726 C   0  0  0  0  0  0  0  0  0  0  0  0
   34.8277  -17.1560   35.2225 C   0  0  0  0  0  0  0  0  0  0  0  0
   33.9256  -16.2958   35.7854 C   0  0  0  0  0  0  0  0  0  0  0  0
   34.3569  -15.1948   36.5474 C   0  0  0  0  0  0  0  0  0  0  0  0
   37.4105  -13.3227   37.1840 C   0  0  0  0  0  0  0  0  0  0  0  0
   36.1408  -13.9081   37.4717 O   0  0  0  0  0  0  0  0  0  0  0  0
   33.0468  -18.5011   34.2182 N   0  0  0  0  0  0  0  0  0  0  0  0
   32.4345  -17.7402   33.8064 H   0  0  0  0  0  0  0  0  0  0  0  0
   32.3972  -19.7189   34.4635 C   0  0  0  0  0  0  0  0  0  0  0  0
   32.8380  -20.9359   34.0667 C   0  0  0  0  0  0  0  0  0  0  0  0
   32.1317  -22.1163   34.3119 C   0  0  0  0  0  0  0  0  0  0  0  0
   30.9412  -22.0470   34.9831 C   0  0  0  0  0  0  0  0  0  0  0  0
   30.1957  -23.1521   35.2595 F   0  0  0  0  0  0  0  0  0  0  0  0
   30.4480  -20.8135   35.4122 C   0  0  0  0  0  0  0  0  0  0  0  0
   31.1733  -19.6781   35.1503 C   0  0  0  0  0  0  0  0  0  0  0  0
   29.1630  -20.7626   36.1344 C   0  0  0  0  0  0  0  0  0  0  0  0
   28.7232  -19.4620   36.2106 F   0  0  0  0  0  0  0  0  0  0  0  0
   29.3509  -21.2752   37.4220 F   0  0  0  0  0  0  0  0  0  0  0  0
   28.1943  -21.5658   35.5476 F   0  0  0  0  0  0  0  0  0  0  0  0
   33.4550  -14.3301   37.1131 O   0  0  0  0  0  0  0  0  0  0  0  0
   33.4094  -12.9728   36.7340 C   0  0  0  0  0  0  0  0  0  0  0  0
   33.1200  -12.0670   37.9051 C   0  0  0  0  0  0  0  0  0  0  0  0
   32.3268  -10.8572   37.5353 C   0  0  0  0  0  0  0  0  0  0  0  0
   33.0722   -9.6219   37.6698 N   0  0  0  0  0  0  0  0  0  0  0  0
   32.2124   -8.5589   37.1870 C   0  0  0  0  0  0  0  0  0  0  0  0
   32.9444   -7.8848   36.0501 C   0  0  0  0  0  0  0  0  0  0  0  0
   34.3965   -8.2381   36.2983 C   0  0  0  0  0  0  0  0  0  0  0  0
   34.2688   -9.6263   36.8901 C   0  0  0  0  0  0  0  0  0  0  0  0
 11 12  1  0  0  0
 12  1  1  0  0  0
  1  2  2  0  0  0
  2  3  1  0  0  0
  3  4  2  0  0  0
  4  5  1  0  0  0
  5  6  2  0  0  0
  6  7  1  0  0  0
  7 13  1  0  0  0
 13 15  1  0  0  0
 15 16  2  0  0  0
 16 17  1  0  0  0
 17 18  2  0  0  0
 18 19  1  0  0  0
 18 20  1  0  0  0
 20 21  2  0  0  0
 20 22  1  0  0  0
 22 23  1  0  0  0
 22 24  1  0  0  0
 22 25  1  0  0  0
  7  8  2  0  0  0
  8  9  1  0  0  0
  9 10  2  0  0  0
 10 26  1  0  0  0
 26 27  1  0  0  0
 27 28  1  0  0  0
 28 29  1  0  0  0
 29 30  1  0  0  0
 30 31  1  0  0  0
 31 32  1  0  0  0
 32 33  1  0  0  0
 33 34  1  0  0  0
 10  1  1  0  0  0
 34 30  1  0  0  0
  8  3  1  0  0  0
 21 15  1  0  0  0
 13 14  1  0  0  0
M  END
> <minimizedAffinity>
-8.15401

> <CNNscore>
0.6119005084

> <CNNaffinity>
6.9151396751

> <CNN_VS>
4.2313776016

> <CNNaffinity_variance>
0.0330921449

$$$$
[H]c1nc(N([H])c2c([H])c([H])c(F)c(C(F)(F)F)c2[H])c2c([H])c(OC([H])([H])C([H])([H])C([H])([H])N3C([H])([H])C([H])([H])C([H])([H])C3([H])[H])c(OC([H])([H])[H])c([H])c2n1


 34 37  0  0  0  0  0  0  0  0999 V2000
   35.8146  -15.0406   36.7317 C   0  0  0  0  0  0  0  0  0  0  0  0
   36.6881  -15.9305   36.1434 C   0  0  0  0  0  0  0  0  0  0  0  0
   36.2629  -17.0003   35.4047 C   0  0  0  0  0  0  0  0  0  0  0  0
   37.0963  -17.8653   34.8340 N   0  0  0  0  0  0  0  0  0  0  0  0
   36.6756  -18.9022   34.1194 C   0  0  0  0  0  0  0  0  0  0  0  0
   35.3649  -19.0666   33.9792 N   0  0  0  0  0  0  0  0  0  0  0  0
   34.4211  -18.2738   34.4982 C   0  0  0  0  0  0  0  0  0  0  0  0
   34.8852  -17.1963   35.2417 C   0  0  0  0  0  0  0  0  0  0  0  0
   34.0050  -16.3229   35.8189 C   0  0  0  0  0  0  0  0  0  0  0  0
   34.4648  -15.2291   36.5746 C   0  0  0  0  0  0  0  0  0  0  0  0
   37.6531  -13.5868   37.3677 C   0  0  0  0  0  0  0  0  0  0  0  0
   36.2820  -13.9702   37.4716 O   0  0  0  0  0  0  0  0  0  0  0  0
   33.0688  -18.5136   34.2646 N   0  0  0  0  0  0  0  0  0  0  0  0
   32.4580  -17.7381   33.8787 H   0  0  0  0  0  0  0  0  0  0  0  0
   32.4092  -19.7281   34.4996 C   0  0  0  0  0  0  0  0  0  0  0  0
   32.8497  -20.9473   34.1089 C   0  0  0  0  0  0  0  0  0  0  0  0
   32.1336  -22.1241   34.3429 C   0  0  0  0  0  0  0  0  0  0  0  0
   30.9336  -22.0489   34.9963 C   0  0  0  0  0  0  0  0  0  0  0  0
   30.1783  -23.1502   35.2610 F   0  0  0  0  0  0  0  0  0  0  0  0
   30.4405  -20.8130   35.4186 C   0  0  0  0  0  0  0  0  0  0  0  0
   31.1754  -19.6813   35.1681 C   0  0  0  0  0  0  0  0  0  0  0  0
   29.1450  -20.7557   36.1215 C   0  0  0  0  0  0  0  0  0  0  0  0
   28.2082  -21.4879   35.4311 F   0  0  0  0  0  0  0  0  0  0  0  0
   28.7368  -19.4205   36.2025 F   0  0  0  0  0  0  0  0  0  0  0  0
   29.2350  -21.2016   37.4333 F   0  0  0  0  0  0  0  0  0  0  0  0
   33.5849  -14.3512   37.1546 O   0  0  0  0  0  0  0  0  0  0  0  0
   33.2492  -13.1339   36.5273 C   0  0  0  0  0  0  0  0  0  0  0  0
   33.6659  -11.9395   37.3492 C   0  0  0  0  0  0  0  0  0  0  0  0
   32.5310  -11.2963   38.0758 C   0  0  0  0  0  0  0  0  0  0  0  0
   31.2313  -11.7317   37.6058 N   0  0  0  0  0  0  0  0  0  0  0  0
   30.5039  -10.5382   37.2199 C   0  0  0  0  0  0  0  0  0  0  0  0
   29.2462  -10.5013   38.0563 C   0  0  0  0  0  0  0  0  0  0  0  0
   29.0536  -11.9433   38.4791 C   0  0  0  0  0  0  0  0  0  0  0  0
   30.4884  -12.4064   38.6220 C   0  0  0  0  0  0  0  0  0  0  0  0
 11 12  1  0  0  0
 12  1  1  0  0  0
  1  2  2  0  0  0
  2  3  1  0  0  0
  3  4  2  0  0  0
  4  5  1  0  0  0
  5  6  2  0  0  0
  6  7  1  0  0  0
  7 13  1  0  0  0
 13 15  1  0  0  0
 15 16  2  0  0  0
 16 17  1  0  0  0
 17 18  2  0  0  0
 18 19  1  0  0  0
 18 20  1  0  0  0
 20 21  2  0  0  0
 20 22  1  0  0  0
 22 23  1  0  0  0
 22 24  1  0  0  0
 22 25  1  0  0  0
  7  8  2  0  0  0
  8  9  1  0  0  0
  9 10  2  0  0  0
 10 26  1  0  0  0
 26 27  1  0  0  0
 27 28  1  0  0  0
 28 29  1  0  0  0
 29 30  1  0  0  0
 30 31  1  0  0  0
 31 32  1  0  0  0
 32 33  1  0  0  0
 33 34  1  0  0  0
 10  1  1  0  0  0
 34 30  1  0  0  0
  8  3  1  0  0  0
 21 15  1  0  0  0
 13 14  1  0  0  0
M  END
> <minimizedAffinity>
-8.07892

> <CNNscore>
0.5666663647

> <CNNaffinity>
6.6305837631

> <CNN_VS>
3.7573287487

> <CNNaffinity_variance>
0.2449027002

$$$$
[H]c1nc(N([H])c2c([H])c([H])c(F)c(C(F)(F)F)c2[H])c2c([H])c(OC([H])([H])C([H])([H])C([H])([H])N3C([H])([H])C([H])([H])C([H])([H])C3([H])[H])c(OC([H])([H])[H])c([H])c2n1


 34 37  0  0  0  0  0  0  0  0999 V2000
   35.1862  -13.7272   36.5816 C   0  0  0  0  0  0  0  0  0  0  0  0
   36.1356  -14.7129   36.4140 C   0  0  0  0  0  0  0  0  0  0  0  0
   35.8190  -15.9770   35.9983 C   0  0  0  0  0  0  0  0  0  0  0  0
   36.7261  -16.9356   35.8346 N   0  0  0  0  0  0  0  0  0  0  0  0
   36.4106  -18.1607   35.4318 C   0  0  0  0  0  0  0  0  0  0  0  0
   35.1314  -18.4218   35.1869 N   0  0  0  0  0  0  0  0  0  0  0  0
   34.1222  -17.5529   35.3106 C   0  0  0  0  0  0  0  0  0  0  0  0
   34.4765  -16.2783   35.7334 C   0  0  0  0  0  0  0  0  0  0  0  0
   33.5222  -15.3120   35.8947 C   0  0  0  0  0  0  0  0  0  0  0  0
   33.8705  -14.0182   36.3233 C   0  0  0  0  0  0  0  0  0  0  0  0
   35.4973  -11.3710   36.0821 C   0  0  0  0  0  0  0  0  0  0  0  0
   35.5444  -12.4602   37.0036 O   0  0  0  0  0  0  0  0  0  0  0  0
   32.8146  -17.9165   34.9960 N   0  0  0  0  0  0  0  0  0  0  0  0
   32.1018  -17.1653   34.7699 H   0  0  0  0  0  0  0  0  0  0  0  0
   32.3286  -19.2305   34.9476 C   0  0  0  0  0  0  0  0  0  0  0  0
   32.9478  -20.2732   34.3456 C   0  0  0  0  0  0  0  0  0  0  0  0
   32.4006  -21.5581   34.3007 C   0  0  0  0  0  0  0  0  0  0  0  0
   31.1857  -21.7801   34.8900 C   0  0  0  0  0  0  0  0  0  0  0  0
   30.5882  -23.0034   34.8881 F   0  0  0  0  0  0  0  0  0  0  0  0
   30.5112  -20.7348   35.5234 C   0  0  0  0  0  0  0  0  0  0  0  0
   31.0839  -19.4877   35.5442 C   0  0  0  0  0  0  0  0  0  0  0  0
   29.2032  -20.9972   36.1525 C   0  0  0  0  0  0  0  0  0  0  0  0
   29.3826  -21.6844   37.3299 F   0  0  0  0  0  0  0  0  0  0  0  0
   28.4266  -21.7586   35.2732 F   0  0  0  0  0  0  0  0  0  0  0  0
   28.4820  -19.8325   36.3788 F   0  0  0  0  0  0  0  0  0  0  0  0
   32.9161  -13.0468   36.4860 O   0  0  0  0  0  0  0  0  0  0  0  0
   32.1920  -12.9302   37.6902 C   0  0  0  0  0  0  0  0  0  0  0  0
   31.1210  -11.8711   37.6069 C   0  0  0  0  0  0  0  0  0  0  0  0
   30.0475  -12.0334   38.6319 C   0  0  0  0  0  0  0  0  0  0  0  0
   30.2636  -13.1641   39.5119 N   0  0  0  0  0  0  0  0  0  0  0  0
   28.9897  -13.8447   39.6401 C   0  0  0  0  0  0  0  0  0  0  0  0
   28.6416  -13.8509   41.1104 C   0  0  0  0  0  0  0  0  0  0  0  0
   29.9789  -13.6619   41.7968 C   0  0  0  0  0  0  0  0  0  0  0  0
   30.6948  -12.7609   40.8124 C   0  0  0  0  0  0  0  0  0  0  0  0
 11 12  1  0  0  0
 12  1  1  0  0  0
  1  2  2  0  0  0
  2  3  1  0  0  0
  3  4  2  0  0  0
  4  5  1  0  0  0
  5  6  2  0  0  0
  6  7  1  0  0  0
  7 13  1  0  0  0
 13 15  1  0  0  0
 15 16  2  0  0  0
 16 17  1  0  0  0
 17 18  2  0  0  0
 18 19  1  0  0  0
 18 20  1  0  0  0
 20 21  2  0  0  0
 20 22  1  0  0  0
 22 23  1  0  0  0
 22 24  1  0  0  0
 22 25  1  0  0  0
  7  8  2  0  0  0
  8  9  1  0  0  0
  9 10  2  0  0  0
 10 26  1  0  0  0
 26 27  1  0  0  0
 27 28  1  0  0  0
 28 29  1  0  0  0
 29 30  1  0  0  0
 30 31  1  0  0  0
 31 32  1  0  0  0
 32 33  1  0  0  0
 33 34  1  0  0  0
 10  1  1  0  0  0
 34 30  1  0  0  0
  8  3  1  0  0  0
 21 15  1  0  0  0
 13 14  1  0  0  0
M  END
> <minimizedAffinity>
-7.43292

> <CNNscore>
0.3237890601

> <CNNaffinity>
6.2377538681

> <CNN_VS>
2.0197165012

> <CNNaffinity_variance>
0.2042530477

$$$$
[H]c1nc(N([H])c2c([H])c([H])c(F)c(C(F)(F)F)c2[H])c2c([H])c(OC([H])([H])C([H])([H])C([H])([H])N3C([H])([H])C([H])([H])C([H])([H])C3([H])[H])c(OC([H])([H])[H])c([H])c2n1


 34 37  0  0  0  0  0  0  0  0999 V2000
   43.5611  -18.2944   37.4270 C   0  0  0  0  0  0  0  0  0  0  0  0
   43.3477  -18.3313   38.7887 C   0  0  0  0  0  0  0  0  0  0  0  0
   42.3703  -19.0986   39.3603 C   0  0  0  0  0  0  0  0  0  0  0  0
   42.1550  -19.1408   40.6719 N   0  0  0  0  0  0  0  0  0  0  0  0
   41.2031  -19.8875   41.2191 C   0  0  0  0  0  0  0  0  0  0  0  0
   40.4445  -20.6159   40.4077 N   0  0  0  0  0  0  0  0  0  0  0  0
   40.5540  -20.6657   39.0757 C   0  0  0  0  0  0  0  0  0  0  0  0
   41.5561  -19.8763   38.5264 C   0  0  0  0  0  0  0  0  0  0  0  0
   41.7543  -19.8512   37.1734 C   0  0  0  0  0  0  0  0  0  0  0  0
   42.7659  -19.0544   36.6070 C   0  0  0  0  0  0  0  0  0  0  0  0
   44.2976  -16.1314   36.6044 C   0  0  0  0  0  0  0  0  0  0  0  0
   44.5596  -17.5062   36.8854 O   0  0  0  0  0  0  0  0  0  0  0  0
   39.7285  -21.4900   38.3142 N   0  0  0  0  0  0  0  0  0  0  0  0
   40.1259  -22.3703   37.8776 H   0  0  0  0  0  0  0  0  0  0  0  0
   38.3695  -21.2608   38.0575 C   0  0  0  0  0  0  0  0  0  0  0  0
   37.8053  -20.0480   37.8484 C   0  0  0  0  0  0  0  0  0  0  0  0
   36.4363  -19.8752   37.6282 C   0  0  0  0  0  0  0  0  0  0  0  0
   35.6238  -20.9762   37.6213 C   0  0  0  0  0  0  0  0  0  0  0  0
   34.2811  -20.8890   37.4137 F   0  0  0  0  0  0  0  0  0  0  0  0
   36.1618  -22.2471   37.8315 C   0  0  0  0  0  0  0  0  0  0  0  0
   37.5119  -22.3725   38.0446 C   0  0  0  0  0  0  0  0  0  0  0  0
   35.2673  -23.4198   37.8193 C   0  0  0  0  0  0  0  0  0  0  0  0
   36.0028  -24.5680   37.9962 F   0  0  0  0  0  0  0  0  0  0  0  0
   34.6051  -23.4666   36.5883 F   0  0  0  0  0  0  0  0  0  0  0  0
   34.2689  -23.3334   38.7802 F   0  0  0  0  0  0  0  0  0  0  0  0
   42.9675  -19.0270   35.2506 O   0  0  0  0  0  0  0  0  0  0  0  0
   42.1960  -18.1933   34.4154 C   0  0  0  0  0  0  0  0  0  0  0  0
   41.4755  -18.9747   33.3448 C   0  0  0  0  0  0  0  0  0  0  0  0
   40.4619  -19.9269   33.8882 C   0  0  0  0  0  0  0  0  0  0  0  0
   39.1436  -19.7475   33.3142 N   0  0  0  0  0  0  0  0  0  0  0  0
   38.8901  -18.3202   33.2844 C   0  0  0  0  0  0  0  0  0  0  0  0
   37.6394  -18.0796   34.0972 C   0  0  0  0  0  0  0  0  0  0  0  0
   36.9434  -19.4253   34.0918 C   0  0  0  0  0  0  0  0  0  0  0  0
   38.1251  -20.3724   34.0964 C   0  0  0  0  0  0  0  0  0  0  0  0
 11 12  1  0  0  0
 12  1  1  0  0  0
  1  2  2  0  0  0
  2  3  1  0  0  0
  3  4  2  0  0  0
  4  5  1  0  0  0
  5  6  2  0  0  0
  6  7  1  0  0  0
  7 13  1  0  0  0
 13 15  1  0  0  0
 15 16  2  0  0  0
 16 17  1  0  0  0
 17 18  2  0  0  0
 18 19  1  0  0  0
 18 20  1  0  0  0
 20 21  2  0  0  0
 20 22  1  0  0  0
 22 23  1  0  0  0
 22 24  1  0  0  0
 22 25  1  0  0  0
  7  8  2  0  0  0
  8  9  1  0  0  0
  9 10  2  0  0  0
 10 26  1  0  0  0
 26 27  1  0  0  0
 27 28  1  0  0  0
 28 29  1  0  0  0
 29 30  1  0  0  0
 30 31  1  0  0  0
 31 32  1  0  0  0
 32 33  1  0  0  0
 33 34  1  0  0  0
 10  1  1  0  0  0
 34 30  1  0  0  0
  8  3  1  0  0  0
 21 15  1  0  0  0
 13 14  1  0  0  0
M  END
> <minimizedAffinity>
-4.84519

> <CNNscore>
0.3203494549

> <CNNaffinity>
5.5618829727

> <CNN_VS>
1.7817461491

> <CNNaffinity_variance>
0.0186664388

$$$$
[H]c1nc(N([H])c2c([H])c([H])c(F)c(C(F)(F)F)c2[H])c2c([H])c(OC([H])([H])C([H])([H])C([H])([H])N3C([H])([H])C([H])([H])C([H])([H])C3([H])[H])c(OC([H])([H])[H])c([H])c2n1


 34 37  0  0  0  0  0  0  0  0999 V2000
   36.0040  -15.1662   37.1472 C   0  0  0  0  0  0  0  0  0  0  0  0
   36.5683  -16.3655   37.5271 C   0  0  0  0  0  0  0  0  0  0  0  0
   36.1360  -17.5691   37.0420 C   0  0  0  0  0  0  0  0  0  0  0  0
   36.6720  -18.7316   37.4023 N   0  0  0  0  0  0  0  0  0  0  0  0
   36.2458  -19.8960   36.9276 C   0  0  0  0  0  0  0  0  0  0  0  0
   35.2419  -19.8800   36.0579 N   0  0  0  0  0  0  0  0  0  0  0  0
   34.6153  -18.7856   35.6125 C   0  0  0  0  0  0  0  0  0  0  0  0
   35.0782  -17.5798   36.1232 C   0  0  0  0  0  0  0  0  0  0  0  0
   34.5071  -16.3989   35.7359 C   0  0  0  0  0  0  0  0  0  0  0  0
   34.9680  -15.1723   36.2479 C   0  0  0  0  0  0  0  0  0  0  0  0
   37.8509  -13.6372   37.5334 C   0  0  0  0  0  0  0  0  0  0  0  0
   36.4682  -13.9688   37.6594 O   0  0  0  0  0  0  0  0  0  0  0  0
   33.5918  -18.8729   34.6713 N   0  0  0  0  0  0  0  0  0  0  0  0
   33.7324  -18.4616   33.7047 H   0  0  0  0  0  0  0  0  0  0  0  0
   32.3439  -19.4748   34.8853 C   0  0  0  0  0  0  0  0  0  0  0  0
   31.1630  -18.8189   34.9756 C   0  0  0  0  0  0  0  0  0  0  0  0
   29.9507  -19.4685   35.2222 C   0  0  0  0  0  0  0  0  0  0  0  0
   29.9491  -20.8278   35.3795 C   0  0  0  0  0  0  0  0  0  0  0  0
   28.8092  -21.5315   35.6221 F   0  0  0  0  0  0  0  0  0  0  0  0
   31.1433  -21.5458   35.2934 C   0  0  0  0  0  0  0  0  0  0  0  0
   32.3121  -20.8687   35.0503 C   0  0  0  0  0  0  0  0  0  0  0  0
   31.1179  -23.0105   35.4657 C   0  0  0  0  0  0  0  0  0  0  0  0
   30.2919  -23.5756   34.5228 F   0  0  0  0  0  0  0  0  0  0  0  0
   30.6430  -23.3037   36.7481 F   0  0  0  0  0  0  0  0  0  0  0  0
   32.3853  -23.5732   35.3963 F   0  0  0  0  0  0  0  0  0  0  0  0
   34.3976  -13.9864   35.8615 O   0  0  0  0  0  0  0  0  0  0  0  0
   33.1433  -13.5827   36.3633 C   0  0  0  0  0  0  0  0  0  0  0  0
   33.2755  -12.5456   37.4508 C   0  0  0  0  0  0  0  0  0  0  0  0
   32.0610  -12.4336   38.3122 C   0  0  0  0  0  0  0  0  0  0  0  0
   30.8711  -12.0561   37.5764 N   0  0  0  0  0  0  0  0  0  0  0  0
   30.9562  -10.6269   37.3468 C   0  0  0  0  0  0  0  0  0  0  0  0
   29.7318  -10.0074   37.9791 C   0  0  0  0  0  0  0  0  0  0  0  0
   28.7477  -11.1566   38.0576 C   0  0  0  0  0  0  0  0  0  0  0  0
   29.6754  -12.3270   38.3088 C   0  0  0  0  0  0  0  0  0  0  0  0
 11 12  1  0  0  0
 12  1  1  0  0  0
  1  2  2  0  0  0
  2  3  1  0  0  0
  3  4  2  0  0  0
  4  5  1  0  0  0
  5  6  2  0  0  0
  6  7  1  0  0  0
  7 13  1  0  0  0
 13 15  1  0  0  0
 15 16  2  0  0  0
 16 17  1  0  0  0
 17 18  2  0  0  0
 18 19  1  0  0  0
 18 20  1  0  0  0
 20 21  2  0  0  0
 20 22  1  0  0  0
 22 23  1  0  0  0
 22 24  1  0  0  0
 22 25  1  0  0  0
  7  8  2  0  0  0
  8  9  1  0  0  0
  9 10  2  0  0  0
 10 26  1  0  0  0
 26 27  1  0  0  0
 27 28  1  0  0  0
 28 29  1  0  0  0
 29 30  1  0  0  0
 30 31  1  0  0  0
 31 32  1  0  0  0
 32 33  1  0  0  0
 33 34  1  0  0  0
 10  1  1  0  0  0
 34 30  1  0  0  0
  8  3  1  0  0  0
 21 15  1  0  0  0
 13 14  1  0  0  0
M  END
> <minimizedAffinity>
-7.99140

> <CNNscore>
0.3048648238

> <CNNaffinity>
6.1682276726

> <CNN_VS>
1.8804756403

> <CNNaffinity_variance>
0.4287140965

$$$$
[H]c1nc(N([H])c2c([H])c([H])c(F)c(C(F)(F)F)c2[H])c2c([H])c(OC([H])([H])C([H])([H])C([H])([H])N3C([H])([H])C([H])([H])C([H])([H])C3([H])[H])c(OC([H])([H])[H])c([H])c2n1


 34 37  0  0  0  0  0  0  0  0999 V2000
   35.7512  -17.8232   35.0415 C   0  0  0  0  0  0  0  0  0  0  0  0
   36.6765  -17.1237   35.7868 C   0  0  0  0  0  0  0  0  0  0  0  0
   36.3504  -16.0062   36.5049 C   0  0  0  0  0  0  0  0  0  0  0  0
   37.2348  -15.3233   37.2260 N   0  0  0  0  0  0  0  0  0  0  0  0
   36.9105  -14.2385   37.9195 C   0  0  0  0  0  0  0  0  0  0  0  0
   35.6461  -13.8333   37.8798 N   0  0  0  0  0  0  0  0  0  0  0  0
   34.6600  -14.4255   37.1974 C   0  0  0  0  0  0  0  0  0  0  0  0
   35.0232  -15.5577   36.4797 C   0  0  0  0  0  0  0  0  0  0  0  0
   34.0928  -16.2400   35.7453 C   0  0  0  0  0  0  0  0  0  0  0  0
   34.4506  -17.3874   35.0141 C   0  0  0  0  0  0  0  0  0  0  0  0
   37.4911  -19.3382   34.2827 C   0  0  0  0  0  0  0  0  0  0  0  0
   36.1184  -18.9493   34.3281 O   0  0  0  0  0  0  0  0  0  0  0  0
   33.3552  -13.9400   37.2477 N   0  0  0  0  0  0  0  0  0  0  0  0
   32.5416  -14.6168   37.1893 H   0  0  0  0  0  0  0  0  0  0  0  0
   32.9975  -12.5902   37.3722 C   0  0  0  0  0  0  0  0  0  0  0  0
   33.8548  -11.5440   37.3148 C   0  0  0  0  0  0  0  0  0  0  0  0
   33.4461  -10.2177   37.4776 C   0  0  0  0  0  0  0  0  0  0  0  0
   32.1221   -9.9571   37.7045 C   0  0  0  0  0  0  0  0  0  0  0  0
   31.6474   -8.6923   37.8731 F   0  0  0  0  0  0  0  0  0  0  0  0
   31.2017  -11.0046   37.7707 C   0  0  0  0  0  0  0  0  0  0  0  0
   31.6453  -12.2930   37.6057 C   0  0  0  0  0  0  0  0  0  0  0  0
   29.7794  -10.7004   38.0156 C   0  0  0  0  0  0  0  0  0  0  0  0
   29.2880  -11.5307   38.9952 F   0  0  0  0  0  0  0  0  0  0  0  0
   29.0674  -10.8959   36.8279 F   0  0  0  0  0  0  0  0  0  0  0  0
   29.5750   -9.3715   38.3622 F   0  0  0  0  0  0  0  0  0  0  0  0
   33.5201  -18.0740   34.2767 O   0  0  0  0  0  0  0  0  0  0  0  0
   32.3119  -18.5143   34.8550 C   0  0  0  0  0  0  0  0  0  0  0  0
   31.6105  -19.5349   33.9935 C   0  0  0  0  0  0  0  0  0  0  0  0
   31.6830  -20.9219   34.5416 C   0  0  0  0  0  0  0  0  0  0  0  0
   30.8301  -21.1260   35.6952 N   0  0  0  0  0  0  0  0  0  0  0  0
   30.7746  -22.5561   35.9276 C   0  0  0  0  0  0  0  0  0  0  0  0
   29.3206  -22.9581   35.8437 C   0  0  0  0  0  0  0  0  0  0  0  0
   28.5750  -21.6665   36.1098 C   0  0  0  0  0  0  0  0  0  0  0  0
   29.5014  -20.6509   35.4744 C   0  0  0  0  0  0  0  0  0  0  0  0
 11 12  1  0  0  0
 12  1  1  0  0  0
  1  2  2  0  0  0
  2  3  1  0  0  0
  3  4  2  0  0  0
  4  5  1  0  0  0
  5  6  2  0  0  0
  6  7  1  0  0  0
  7 13  1  0  0  0
 13 15  1  0  0  0
 15 16  2  0  0  0
 16 17  1  0  0  0
 17 18  2  0  0  0
 18 19  1  0  0  0
 18 20  1  0  0  0
 20 21  2  0  0  0
 20 22  1  0  0  0
 22 23  1  0  0  0
 22 24  1  0  0  0
 22 25  1  0  0  0
  7  8  2  0  0  0
  8  9  1  0  0  0
  9 10  2  0  0  0
 10 26  1  0  0  0
 26 27  1  0  0  0
 27 28  1  0  0  0
 28 29  1  0  0  0
 29 30  1  0  0  0
 30 31  1  0  0  0
 31 32  1  0  0  0
 32 33  1  0  0  0
 33 34  1  0  0  0
 10  1  1  0  0  0
 34 30  1  0  0  0
  8  3  1  0  0  0
 21 15  1  0  0  0
 13 14  1  0  0  0
M  END
> <minimizedAffinity>
-8.77918

> <CNNscore>
0.2345161289

> <CNNaffinity>
6.1077260971

> <CNN_VS>
1.4323602915

> <CNNaffinity_variance>
0.4401961267

$$$$
[H]c1nc(N([H])c2c([H])c([H])c(F)c(C(F)(F)F)c2[H])c2c([H])c(OC([H])([H])C([H])([H])C([H])([H])N3C([H])([H])C([H])([H])C([H])([H])C3([H])[H])c(OC([H])([H])[H])c([H])c2n1


 34 37  0  0  0  0  0  0  0  0999 V2000
   35.4785  -21.5983   37.3136 C   0  0  0  0  0  0  0  0  0  0  0  0
   34.1115  -21.6399   37.1382 C   0  0  0  0  0  0  0  0  0  0  0  0
   33.4187  -20.6402   36.5126 C   0  0  0  0  0  0  0  0  0  0  0  0
   32.1005  -20.6694   36.3391 N   0  0  0  0  0  0  0  0  0  0  0  0
   31.4350  -19.6942   35.7318 C   0  0  0  0  0  0  0  0  0  0  0  0
   32.1308  -18.6545   35.2853 N   0  0  0  0  0  0  0  0  0  0  0  0
   33.4548  -18.4996   35.3935 C   0  0  0  0  0  0  0  0  0  0  0  0
   34.1292  -19.5321   36.0325 C   0  0  0  0  0  0  0  0  0  0  0  0
   35.4856  -19.4750   36.1984 C   0  0  0  0  0  0  0  0  0  0  0  0
   36.1778  -20.5150   36.8450 C   0  0  0  0  0  0  0  0  0  0  0  0
   36.0866  -22.7312   39.3739 C   0  0  0  0  0  0  0  0  0  0  0  0
   36.1446  -22.6285   37.9513 O   0  0  0  0  0  0  0  0  0  0  0  0
   34.0966  -17.3838   34.8606 N   0  0  0  0  0  0  0  0  0  0  0  0
   34.4605  -17.4140   33.8655 H   0  0  0  0  0  0  0  0  0  0  0  0
   34.3183  -16.1766   35.5379 C   0  0  0  0  0  0  0  0  0  0  0  0
   33.4292  -15.1608   35.6400 C   0  0  0  0  0  0  0  0  0  0  0  0
   33.7162  -13.9642   36.3019 C   0  0  0  0  0  0  0  0  0  0  0  0
   34.9483  -13.8052   36.8758 C   0  0  0  0  0  0  0  0  0  0  0  0
   35.3024  -12.6693   37.5374 F   0  0  0  0  0  0  0  0  0  0  0  0
   35.8966  -14.8266   36.7965 C   0  0  0  0  0  0  0  0  0  0  0  0
   35.5740  -15.9860   36.1364 C   0  0  0  0  0  0  0  0  0  0  0  0
   37.2180  -14.6338   37.4228 C   0  0  0  0  0  0  0  0  0  0  0  0
   37.8875  -13.6120   36.7917 F   0  0  0  0  0  0  0  0  0  0  0  0
   37.9478  -15.8212   37.3063 F   0  0  0  0  0  0  0  0  0  0  0  0
   37.1258  -14.3813   38.7850 F   0  0  0  0  0  0  0  0  0  0  0  0
   37.5380  -20.4610   37.0129 O   0  0  0  0  0  0  0  0  0  0  0  0
   38.4094  -20.4426   35.9046 C   0  0  0  0  0  0  0  0  0  0  0  0
   38.8834  -21.8260   35.5338 C   0  0  0  0  0  0  0  0  0  0  0  0
   39.5455  -21.8859   34.1969 C   0  0  0  0  0  0  0  0  0  0  0  0
   40.7247  -22.7278   34.1802 N   0  0  0  0  0  0  0  0  0  0  0  0
   41.6816  -22.0913   33.2961 C   0  0  0  0  0  0  0  0  0  0  0  0
   41.9961  -23.0847   32.2019 C   0  0  0  0  0  0  0  0  0  0  0  0
   41.6268  -24.4209   32.8129 C   0  0  0  0  0  0  0  0  0  0  0  0
   40.4463  -24.0363   33.6800 C   0  0  0  0  0  0  0  0  0  0  0  0
 11 12  1  0  0  0
 12  1  1  0  0  0
  1  2  2  0  0  0
  2  3  1  0  0  0
  3  4  2  0  0  0
  4  5  1  0  0  0
  5  6  2  0  0  0
  6  7  1  0  0  0
  7 13  1  0  0  0
 13 15  1  0  0  0
 15 16  2  0  0  0
 16 17  1  0  0  0
 17 18  2  0  0  0
 18 19  1  0  0  0
 18 20  1  0  0  0
 20 21  2  0  0  0
 20 22  1  0  0  0
 22 23  1  0  0  0
 22 24  1  0  0  0
 22 25  1  0  0  0
  7  8  2  0  0  0
  8  9  1  0  0  0
  9 10  2  0  0  0
 10 26  1  0  0  0
 26 27  1  0  0  0
 27 28  1  0  0  0
 28 29  1  0  0  0
 29 30  1  0  0  0
 30 31  1  0  0  0
 31 32  1  0  0  0
 32 33  1  0  0  0
 33 34  1  0  0  0
 10  1  1  0  0  0
 34 30  1  0  0  0
  8  3  1  0  0  0
 21 15  1  0  0  0
 13 14  1  0  0  0
M  END
> <minimizedAffinity>
-5.84201

> <CNNscore>
0.2269750386

> <CNNaffinity>
5.5462212563

> <CNN_VS>
1.2588537931

> <CNNaffinity_variance>
0.2715757191

$$$$
[H]c1nc(N([H])c2c([H])c([H])c(F)c(C(F)(F)F)c2[H])c2c([H])c(OC([H])([H])C([H])([H])C([H])([H])N3C([H])([H])C([H])([H])C([H])([H])C3([H])[H])c(OC([H])([H])[H])c([H])c2n1


 34 37  0  0  0  0  0  0  0  0999 V2000
   33.8161  -21.4955   38.0728 C   0  0  0  0  0  0  0  0  0  0  0  0
   32.6147  -21.3764   37.4067 C   0  0  0  0  0  0  0  0  0  0  0  0
   32.3772  -20.3922   36.4870 C   0  0  0  0  0  0  0  0  0  0  0  0
   31.2222  -20.2673   35.8397 N   0  0  0  0  0  0  0  0  0  0  0  0
   30.9989  -19.3083   34.9491 C   0  0  0  0  0  0  0  0  0  0  0  0
   31.9810  -18.4472   34.7072 N   0  0  0  0  0  0  0  0  0  0  0  0
   33.1868  -18.4591   35.2856 C   0  0  0  0  0  0  0  0  0  0  0  0
   33.3968  -19.4709   36.2136 C   0  0  0  0  0  0  0  0  0  0  0  0
   34.5946  -19.5748   36.8657 C   0  0  0  0  0  0  0  0  0  0  0  0
   34.8170  -20.5953   37.8080 C   0  0  0  0  0  0  0  0  0  0  0  0
   33.4526  -22.3895   40.3014 C   0  0  0  0  0  0  0  0  0  0  0  0
   34.0194  -22.5041   38.9963 O   0  0  0  0  0  0  0  0  0  0  0  0
   34.1633  -17.5286   34.9373 N   0  0  0  0  0  0  0  0  0  0  0  0
   34.8190  -17.7341   34.1303 H   0  0  0  0  0  0  0  0  0  0  0  0
   34.3734  -16.2978   35.5748 C   0  0  0  0  0  0  0  0  0  0  0  0
   33.4788  -15.2833   35.6339 C   0  0  0  0  0  0  0  0  0  0  0  0
   33.7544  -14.0634   36.2570 C   0  0  0  0  0  0  0  0  0  0  0  0
   34.9804  -13.8790   36.8363 C   0  0  0  0  0  0  0  0  0  0  0  0
   35.3233  -12.7195   37.4618 F   0  0  0  0  0  0  0  0  0  0  0  0
   35.9339  -14.8980   36.8007 C   0  0  0  0  0  0  0  0  0  0  0  0
   35.6226  -16.0808   36.1778 C   0  0  0  0  0  0  0  0  0  0  0  0
   37.2486  -14.6776   37.4320 C   0  0  0  0  0  0  0  0  0  0  0  0
   37.9109  -13.6611   36.7850 F   0  0  0  0  0  0  0  0  0  0  0  0
   37.9925  -15.8587   37.3445 F   0  0  0  0  0  0  0  0  0  0  0  0
   37.1439  -14.3988   38.7882 F   0  0  0  0  0  0  0  0  0  0  0  0
   36.0169  -20.7024   38.4636 O   0  0  0  0  0  0  0  0  0  0  0  0
   37.0449  -21.5330   37.9721 C   0  0  0  0  0  0  0  0  0  0  0  0
   37.7290  -20.9353   36.7677 C   0  0  0  0  0  0  0  0  0  0  0  0
   38.3260  -19.5925   37.0322 C   0  0  0  0  0  0  0  0  0  0  0  0
   38.6476  -18.8616   35.8231 N   0  0  0  0  0  0  0  0  0  0  0  0
   37.6236  -19.1895   34.8503 C   0  0  0  0  0  0  0  0  0  0  0  0
   38.3282  -19.7946   33.6586 C   0  0  0  0  0  0  0  0  0  0  0  0
   39.7488  -19.2834   33.7837 C   0  0  0  0  0  0  0  0  0  0  0  0
   39.9176  -19.2365   35.2879 C   0  0  0  0  0  0  0  0  0  0  0  0
 11 12  1  0  0  0
 12  1  1  0  0  0
  1  2  2  0  0  0
  2  3  1  0  0  0
  3  4  2  0  0  0
  4  5  1  0  0  0
  5  6  2  0  0  0
  6  7  1  0  0  0
  7 13  1  0  0  0
 13 15  1  0  0  0
 15 16  2  0  0  0
 16 17  1  0  0  0
 17 18  2  0  0  0
 18 19  1  0  0  0
 18 20  1  0  0  0
 20 21  2  0  0  0
 20 22  1  0  0  0
 22 23  1  0  0  0
 22 24  1  0  0  0
 22 25  1  0  0  0
  7  8  2  0  0  0
  8  9  1  0  0  0
  9 10  2  0  0  0
 10 26  1  0  0  0
 26 27  1  0  0  0
 27 28  1  0  0  0
 28 29  1  0  0  0
 29 30  1  0  0  0
 30 31  1  0  0  0
 31 32  1  0  0  0
 32 33  1  0  0  0
 33 34  1  0  0  0
 10  1  1  0  0  0
 34 30  1  0  0  0
  8  3  1  0  0  0
 21 15  1  0  0  0
 13 14  1  0  0  0
M  END
> <minimizedAffinity>
-6.46239

> <CNNscore>
0.2093545943

> <CNNaffinity>
5.7572669983

> <CNN_VS>
1.2053103447

> <CNNaffinity_variance>
0.3581499457

$$$$
[H]OC([H])([H])[C@@]1(O[H])C([H])([H])[C@@]2([H])O[C@]1(C([H])([H])[H])n1c3c([H])c([H])c([H])c([H])c3c3c4c(c5c6c([H])c([H])c([H])c([H])c6n2c5c31)C(=O)N4[H]


 35 42  0  0  0  0  0  0  0  0999 V2000
   41.5397  -21.8213   33.2250 C   0  0  0  0  0  0  0  0  0  0  0  0
   41.0969  -21.0814   34.4808 C   0  0  0  0  0  0  0  0  0  0  0  0
   39.6758  -21.1268   34.3472 O   0  0  0  0  0  0  0  0  0  0  0  0
   39.1212  -20.0395   34.9200 C   0  0  0  0  0  0  0  0  0  0  0  0
   40.2268  -19.0570   35.2611 C   0  0  0  0  0  0  0  0  0  0  0  0
   41.3714  -19.6342   34.4454 C   0  0  0  0  0  0  0  0  0  0  0  0
   42.5639  -19.2305   35.0211 O   0  0  0  0  0  0  0  0  0  0  0  0
   38.6357  -20.4882   36.2432 N   0  0  0  0  0  0  0  0  0  0  0  0
   37.5111  -20.1552   36.8480 C   0  0  0  0  0  0  0  0  0  0  0  0
   36.4668  -19.3528   36.4382 C   0  0  0  0  0  0  0  0  0  0  0  0
   35.4095  -19.1887   37.3007 C   0  0  0  0  0  0  0  0  0  0  0  0
   35.3920  -19.8049   38.5338 C   0  0  0  0  0  0  0  0  0  0  0  0
   36.4572  -20.6153   38.9359 C   0  0  0  0  0  0  0  0  0  0  0  0
   37.5082  -20.7784   38.0786 C   0  0  0  0  0  0  0  0  0  0  0  0
   38.6656  -21.5065   38.2147 C   0  0  0  0  0  0  0  0  0  0  0  0
   39.2553  -22.3045   39.1717 C   0  0  0  0  0  0  0  0  0  0  0  0
   39.1629  -22.9152   40.5119 C   0  0  0  0  0  0  0  0  0  0  0  0
   38.3188  -22.9131   41.4472 O   0  0  0  0  0  0  0  0  0  0  0  0
   40.4385  -23.4884   40.2538 N   0  0  0  0  0  0  0  0  0  0  0  0
   40.5097  -22.8911   38.9641 C   0  0  0  0  0  0  0  0  0  0  0  0
   41.1669  -22.6669   37.7750 C   0  0  0  0  0  0  0  0  0  0  0  0
   42.3776  -23.0722   37.2582 C   0  0  0  0  0  0  0  0  0  0  0  0
   43.3783  -23.8711   37.8036 C   0  0  0  0  0  0  0  0  0  0  0  0
   44.5292  -24.1355   37.1010 C   0  0  0  0  0  0  0  0  0  0  0  0
   44.6215  -23.5700   35.8530 C   0  0  0  0  0  0  0  0  0  0  0  0
   43.6333  -22.7691   35.2903 C   0  0  0  0  0  0  0  0  0  0  0  0
   42.4833  -22.5105   36.0010 C   0  0  0  0  0  0  0  0  0  0  0  0
   41.3747  -21.7674   35.7110 N   0  0  0  0  0  0  0  0  0  0  0  0
   40.6017  -21.8921   36.8327 C   0  0  0  0  0  0  0  0  0  0  0  0
   39.3676  -21.3063   37.0290 C   0  0  0  0  0  0  0  0  0  0  0  0
   43.2777  -19.2177   34.3378 H   0  0  0  0  0  0  0  0  0  0  0  0
   41.0542  -24.1110   40.8303 H   0  0  0  0  0  0  0  0  0  0  0  0
   41.1860  -19.0881   33.0513 C   0  0  0  0  0  0  0  0  0  0  0  0
   40.8008  -17.7296   33.1654 O   0  0  0  0  0  0  0  0  0  0  0  0
   41.1581  -17.2765   32.3809 H   0  0  0  0  0  0  0  0  0  0  0  0
  2  1  1  0  0  0
  2  3  1  0  0  0
  3  4  1  0  0  0
  4  5  1  0  0  0
  5  6  1  0  0  0
  6  7  1  0  0  0
  6 33  1  0  0  0
 33 34  1  0  0  0
  4  8  1  0  0  0
  8  9  1  0  0  0
  9 10  2  0  0  0
 10 11  1  0  0  0
 11 12  2  0  0  0
 12 13  1  0  0  0
 13 14  2  0  0  0
 14 15  1  0  0  0
 15 16  2  0  0  0
 16 17  1  0  0  0
 17 18  2  0  0  0
 17 19  1  0  0  0
 19 20  1  0  0  0
 20 21  2  0  0  0
 21 22  1  0  0  0
 22 23  2  0  0  0
 23 24  1  0  0  0
 24 25  2  0  0  0
 25 26  1  0  0  0
 26 27  2  0  0  0
 27 28  1  0  0  0
 28 29  1  0  0  0
 29 30  2  0  0  0
  6  2  1  0  0  0
 30  8  1  0  0  0
 28  2  1  0  0  0
 14  9  1  0  0  0
 30 15  1  0  0  0
 20 16  1  0  0  0
 29 21  1  0  0  0
 27 22  1  0  0  0
  7 31  1  0  0  0
 34 35  1  0  0  0
 19 32  1  0  0  0
M  END
> <minimizedAffinity>
-5.16502

> <CNNscore>
0.4723185897

> <CNNaffinity>
4.8524827957

> <CNN_VS>
2.2919178009

> <CNNaffinity_variance>
0.2175976336

$$$$
[H]OC([H])([H])[C@@]1(O[H])C([H])([H])[C@@]2([H])O[C@]1(C([H])([H])[H])n1c3c([H])c([H])c([H])c([H])c3c3c4c(c5c6c([H])c([H])c([H])c([H])c6n2c5c31)C(=O)N4[H]


 35 42  0  0  0  0  0  0  0  0999 V2000
   30.2377  -19.7700   35.7273 C   0  0  0  0  0  0  0  0  0  0  0  0
   31.3585  -20.7596   36.0188 C   0  0  0  0  0  0  0  0  0  0  0  0
   32.1099  -20.0505   37.0048 O   0  0  0  0  0  0  0  0  0  0  0  0
   33.4134  -20.3859   36.9243 C   0  0  0  0  0  0  0  0  0  0  0  0
   33.6271  -21.1904   35.6551 C   0  0  0  0  0  0  0  0  0  0  0  0
   32.3302  -20.8971   34.9197 C   0  0  0  0  0  0  0  0  0  0  0  0
   32.0921  -21.9284   34.0274 O   0  0  0  0  0  0  0  0  0  0  0  0
   33.6397  -21.3727   38.0027 N   0  0  0  0  0  0  0  0  0  0  0  0
   34.6854  -21.4728   38.8015 C   0  0  0  0  0  0  0  0  0  0  0  0
   35.8238  -20.7007   38.9023 C   0  0  0  0  0  0  0  0  0  0  0  0
   36.7563  -21.0564   39.8471 C   0  0  0  0  0  0  0  0  0  0  0  0
   36.5616  -22.1477   40.6668 C   0  0  0  0  0  0  0  0  0  0  0  0
   35.4031  -22.9210   40.5534 C   0  0  0  0  0  0  0  0  0  0  0  0
   34.4761  -22.5674   39.6143 C   0  0  0  0  0  0  0  0  0  0  0  0
   33.2689  -23.1398   39.2927 C   0  0  0  0  0  0  0  0  0  0  0  0
   32.5195  -24.2228   39.6999 C   0  0  0  0  0  0  0  0  0  0  0  0
   32.3963  -25.3809   40.6062 C   0  0  0  0  0  0  0  0  0  0  0  0
   33.0954  -25.8844   41.5255 O   0  0  0  0  0  0  0  0  0  0  0  0
   31.1536  -25.6492   39.9690 N   0  0  0  0  0  0  0  0  0  0  0  0
   31.2899  -24.5279   39.1034 C   0  0  0  0  0  0  0  0  0  0  0  0
   30.8186  -23.7251   38.0888 C   0  0  0  0  0  0  0  0  0  0  0  0
   29.6866  -23.7378   37.3042 C   0  0  0  0  0  0  0  0  0  0  0  0
   28.6067  -24.6155   37.2789 C   0  0  0  0  0  0  0  0  0  0  0  0
   27.5777  -24.4399   36.3854 C   0  0  0  0  0  0  0  0  0  0  0  0
   27.6863  -23.3640   35.5389 C   0  0  0  0  0  0  0  0  0  0  0  0
   28.7567  -22.4759   35.5481 C   0  0  0  0  0  0  0  0  0  0  0  0
   29.7824  -22.6589   36.4474 C   0  0  0  0  0  0  0  0  0  0  0  0
   30.9383  -21.9671   36.6719 N   0  0  0  0  0  0  0  0  0  0  0  0
   31.5392  -22.6647   37.6837 C   0  0  0  0  0  0  0  0  0  0  0  0
   32.7538  -22.3576   38.2624 C   0  0  0  0  0  0  0  0  0  0  0  0
   31.5368  -21.6011   33.2784 H   0  0  0  0  0  0  0  0  0  0  0  0
   30.4408  -26.4033   40.1178 H   0  0  0  0  0  0  0  0  0  0  0  0
   32.5501  -19.5731   34.2309 C   0  0  0  0  0  0  0  0  0  0  0  0
   32.0774  -19.6924   32.9007 O   0  0  0  0  0  0  0  0  0  0  0  0
   31.7557  -18.8099   32.6438 H   0  0  0  0  0  0  0  0  0  0  0  0
  2  1  1  0  0  0
  2  3  1  0  0  0
  3  4  1  0  0  0
  4  5  1  0  0  0
  5  6  1  0  0  0
  6  7  1  0  0  0
  6 33  1  0  0  0
 33 34  1  0  0  0
  4  8  1  0  0  0
  8  9  1  0  0  0
  9 10  2  0  0  0
 10 11  1  0  0  0
 11 12  2  0  0  0
 12 13  1  0  0  0
 13 14  2  0  0  0
 14 15  1  0  0  0
 15 16  2  0  0  0
 16 17  1  0  0  0
 17 18  2  0  0  0
 17 19  1  0  0  0
 19 20  1  0  0  0
 20 21  2  0  0  0
 21 22  1  0  0  0
 22 23  2  0  0  0
 23 24  1  0  0  0
 24 25  2  0  0  0
 25 26  1  0  0  0
 26 27  2  0  0  0
 27 28  1  0  0  0
 28 29  1  0  0  0
 29 30  2  0  0  0
  6  2  1  0  0  0
 30  8  1  0  0  0
 28  2  1  0  0  0
 14  9  1  0  0  0
 30 15  1  0  0  0
 20 16  1  0  0  0
 29 21  1  0  0  0
 27 22  1  0  0  0
  7 31  1  0  0  0
 34 35  1  0  0  0
 19 32  1  0  0  0
M  END
> <minimizedAffinity>
-4.69448

> <CNNscore>
0.4153116345

> <CNNaffinity>
4.7689528465

> <CNN_VS>
1.9806015491

> <CNNaffinity_variance>
0.2156424075

$$$$
[H]OC([H])([H])[C@@]1(O[H])C([H])([H])[C@@]2([H])O[C@]1(C([H])([H])[H])n1c3c([H])c([H])c([H])c([H])c3c3c4c(c5c6c([H])c([H])c([H])c([H])c6n2c5c31)C(=O)N4[H]


 35 42  0  0  0  0  0  0  0  0999 V2000
   35.7595  -22.7025   35.3712 C   0  0  0  0  0  0  0  0  0  0  0  0
   37.0989  -23.3223   35.7485 C   0  0  0  0  0  0  0  0  0  0  0  0
   37.8987  -22.9721   34.6183 O   0  0  0  0  0  0  0  0  0  0  0  0
   38.8439  -23.9108   34.4103 C   0  0  0  0  0  0  0  0  0  0  0  0
   38.5388  -25.1068   35.2938 C   0  0  0  0  0  0  0  0  0  0  0  0
   37.1075  -24.7948   35.6973 C   0  0  0  0  0  0  0  0  0  0  0  0
   36.8399  -25.4430   36.8909 O   0  0  0  0  0  0  0  0  0  0  0  0
   40.0886  -23.3603   34.9896 N   0  0  0  0  0  0  0  0  0  0  0  0
   41.3122  -23.4394   34.5016 C   0  0  0  0  0  0  0  0  0  0  0  0
   41.7859  -23.9999   33.3338 C   0  0  0  0  0  0  0  0  0  0  0  0
   43.1366  -23.9270   33.0913 C   0  0  0  0  0  0  0  0  0  0  0  0
   43.9902  -23.3146   33.9841 C   0  0  0  0  0  0  0  0  0  0  0  0
   43.4961  -22.7508   35.1635 C   0  0  0  0  0  0  0  0  0  0  0  0
   42.1534  -22.8233   35.4047 C   0  0  0  0  0  0  0  0  0  0  0  0
   41.4113  -22.3613   36.4650 C   0  0  0  0  0  0  0  0  0  0  0  0
   41.6421  -21.7039   37.6544 C   0  0  0  0  0  0  0  0  0  0  0  0
   42.6251  -21.0800   38.5612 C   0  0  0  0  0  0  0  0  0  0  0  0
   43.8712  -20.8946   38.5497 O   0  0  0  0  0  0  0  0  0  0  0  0
   41.5322  -20.7970   39.4260 N   0  0  0  0  0  0  0  0  0  0  0  0
   40.5989  -21.4030   38.5388 C   0  0  0  0  0  0  0  0  0  0  0  0
   39.3132  -21.7705   38.2100 C   0  0  0  0  0  0  0  0  0  0  0  0
   38.0907  -21.6389   38.8306 C   0  0  0  0  0  0  0  0  0  0  0  0
   37.7477  -21.0717   40.0545 C   0  0  0  0  0  0  0  0  0  0  0  0
   36.4435  -21.0658   40.4868 C   0  0  0  0  0  0  0  0  0  0  0  0
   35.5237  -21.6451   39.6477 C   0  0  0  0  0  0  0  0  0  0  0  0
   35.8458  -22.2171   38.4215 C   0  0  0  0  0  0  0  0  0  0  0  0
   37.1548  -22.2174   37.9960 C   0  0  0  0  0  0  0  0  0  0  0  0
   37.7515  -22.7054   36.8686 N   0  0  0  0  0  0  0  0  0  0  0  0
   39.0747  -22.4105   37.0519 C   0  0  0  0  0  0  0  0  0  0  0  0
   40.0961  -22.7150   36.1753 C   0  0  0  0  0  0  0  0  0  0  0  0
   35.8697  -25.6134   36.9688 H   0  0  0  0  0  0  0  0  0  0  0  0
   41.4842  -20.3186   40.3575 H   0  0  0  0  0  0  0  0  0  0  0  0
   36.2517  -25.2960   34.5605 C   0  0  0  0  0  0  0  0  0  0  0  0
   34.9815  -25.6329   35.0897 O   0  0  0  0  0  0  0  0  0  0  0  0
   34.3357  -25.4648   34.3805 H   0  0  0  0  0  0  0  0  0  0  0  0
  2  1  1  0  0  0
  2  3  1  0  0  0
  3  4  1  0  0  0
  4  5  1  0  0  0
  5  6  1  0  0  0
  6  7  1  0  0  0
  6 33  1  0  0  0
 33 34  1  0  0  0
  4  8  1  0  0  0
  8  9  1  0  0  0
  9 10  2  0  0  0
 10 11  1  0  0  0
 11 12  2  0  0  0
 12 13  1  0  0  0
 13 14  2  0  0  0
 14 15  1  0  0  0
 15 16  2  0  0  0
 16 17  1  0  0  0
 17 18  2  0  0  0
 17 19  1  0  0  0
 19 20  1  0  0  0
 20 21  2  0  0  0
 21 22  1  0  0  0
 22 23  2  0  0  0
 23 24  1  0  0  0
 24 25  2  0  0  0
 25 26  1  0  0  0
 26 27  2  0  0  0
 27 28  1  0  0  0
 28 29  1  0  0  0
 29 30  2  0  0  0
  6  2  1  0  0  0
 30  8  1  0  0  0
 28  2  1  0  0  0
 14  9  1  0  0  0
 30 15  1  0  0  0
 20 16  1  0  0  0
 29 21  1  0  0  0
 27 22  1  0  0  0
  7 31  1  0  0  0
 34 35  1  0  0  0
 19 32  1  0  0  0
M  END
> <minimizedAffinity>
7.92139

> <CNNscore>
0.3698190451

> <CNNaffinity>
4.8180589676

> <CNN_VS>
1.7818099260

> <CNNaffinity_variance>
0.8833516836

$$$$
[H]OC([H])([H])[C@@]1(O[H])C([H])([H])[C@@]2([H])O[C@]1(C([H])([H])[H])n1c3c([H])c([H])c([H])c([H])c3c3c4c(c5c6c([H])c([H])c([H])c([H])c6n2c5c31)C(=O)N4[H]


 35 42  0  0  0  0  0  0  0  0999 V2000
   35.5264  -17.2090   35.8992 C   0  0  0  0  0  0  0  0  0  0  0  0
   35.8485  -18.6721   36.1755 C   0  0  0  0  0  0  0  0  0  0  0  0
   36.5075  -18.5808   37.4391 O   0  0  0  0  0  0  0  0  0  0  0  0
   37.4193  -19.5668   37.5589 C   0  0  0  0  0  0  0  0  0  0  0  0
   37.5807  -20.2414   36.2088 C   0  0  0  0  0  0  0  0  0  0  0  0
   36.9045  -19.2219   35.3075 C   0  0  0  0  0  0  0  0  0  0  0  0
   36.4708  -19.8708   34.1641 O   0  0  0  0  0  0  0  0  0  0  0  0
   36.7766  -20.6069   38.3915 N   0  0  0  0  0  0  0  0  0  0  0  0
   37.3266  -21.3334   39.3460 C   0  0  0  0  0  0  0  0  0  0  0  0
   38.6030  -21.3238   39.8685 C   0  0  0  0  0  0  0  0  0  0  0  0
   38.8886  -22.2139   40.8758 C   0  0  0  0  0  0  0  0  0  0  0  0
   37.9325  -23.0872   41.3490 C   0  0  0  0  0  0  0  0  0  0  0  0
   36.6431  -23.0858   40.8101 C   0  0  0  0  0  0  0  0  0  0  0  0
   36.3592  -22.2010   39.8087 C   0  0  0  0  0  0  0  0  0  0  0  0
   35.1950  -21.9874   39.1106 C   0  0  0  0  0  0  0  0  0  0  0  0
   33.9213  -22.5136   39.0773 C   0  0  0  0  0  0  0  0  0  0  0  0
   32.9630  -23.4894   39.6317 C   0  0  0  0  0  0  0  0  0  0  0  0
   32.9936  -24.3724   40.5298 O   0  0  0  0  0  0  0  0  0  0  0  0
   32.0195  -22.9756   38.7000 N   0  0  0  0  0  0  0  0  0  0  0  0
   32.9574  -22.0411   38.1781 C   0  0  0  0  0  0  0  0  0  0  0  0
   33.2903  -21.0257   37.3097 C   0  0  0  0  0  0  0  0  0  0  0  0
   32.6096  -20.3468   36.3234 C   0  0  0  0  0  0  0  0  0  0  0  0
   31.3044  -20.4831   35.8595 C   0  0  0  0  0  0  0  0  0  0  0  0
   30.8349  -19.6945   34.8369 C   0  0  0  0  0  0  0  0  0  0  0  0
   31.7217  -18.7843   34.3164 C   0  0  0  0  0  0  0  0  0  0  0  0
   33.0294  -18.6327   34.7655 C   0  0  0  0  0  0  0  0  0  0  0  0
   33.4908  -19.4263   35.7911 C   0  0  0  0  0  0  0  0  0  0  0  0
   34.7031  -19.5039   36.4151 N   0  0  0  0  0  0  0  0  0  0  0  0
   34.5286  -20.5026   37.3335 C   0  0  0  0  0  0  0  0  0  0  0  0
   35.4869  -20.9637   38.2131 C   0  0  0  0  0  0  0  0  0  0  0  0
   36.4159  -19.2282   33.4153 H   0  0  0  0  0  0  0  0  0  0  0  0
   31.0195  -23.2255   38.5086 H   0  0  0  0  0  0  0  0  0  0  0  0
   37.9571  -18.1803   35.0195 C   0  0  0  0  0  0  0  0  0  0  0  0
   37.9987  -17.9819   33.6174 O   0  0  0  0  0  0  0  0  0  0  0  0
   38.2514  -17.0516   33.4795 H   0  0  0  0  0  0  0  0  0  0  0  0
  2  1  1  0  0  0
  2  3  1  0  0  0
  3  4  1  0  0  0
  4  5  1  0  0  0
  5  6  1  0  0  0
  6  7  1  0  0  0
  6 33  1  0  0  0
 33 34  1  0  0  0
  4  8  1  0  0  0
  8  9  1  0  0  0
  9 10  2  0  0  0
 10 11  1  0  0  0
 11 12  2  0  0  0
 12 13  1  0  0  0
 13 14  2  0  0  0
 14 15  1  0  0  0
 15 16  2  0  0  0
 16 17  1  0  0  0
 17 18  2  0  0  0
 17 19  1  0  0  0
 19 20  1  0  0  0
 20 21  2  0  0  0
 21 22  1  0  0  0
 22 23  2  0  0  0
 23 24  1  0  0  0
 24 25  2  0  0  0
 25 26  1  0  0  0
 26 27  2  0  0  0
 27 28  1  0  0  0
 28 29  1  0  0  0
 29 30  2  0  0  0
  6  2  1  0  0  0
 30  8  1  0  0  0
 28  2  1  0  0  0
 14  9  1  0  0  0
 30 15  1  0  0  0
 20 16  1  0  0  0
 29 21  1  0  0  0
 27 22  1  0  0  0
  7 31  1  0  0  0
 34 35  1  0  0  0
 19 32  1  0  0  0
M  END
> <minimizedAffinity>
-6.26559

> <CNNscore>
0.3632553518

> <CNNaffinity>
4.7919950485

> <CNN_VS>
1.7407178879

> <CNNaffinity_variance>
0.5145151019

$$$$
[H]OC([H])([H])[C@@]1(O[H])C([H])([H])[C@@]2([H])O[C@]1(C([H])([H])[H])n1c3c([H])c([H])c([H])c([H])c3c3c4c(c5c6c([H])c([H])c([H])c([H])c6n2c5c31)C(=O)N4[H]


 35 42  0  0  0  0  0  0  0  0999 V2000
   36.0033  -22.7407   37.6182 C   0  0  0  0  0  0  0  0  0  0  0  0
   37.2483  -22.2147   38.3207 C   0  0  0  0  0  0  0  0  0  0  0  0
   38.2104  -23.2100   37.9699 O   0  0  0  0  0  0  0  0  0  0  0  0
   39.1306  -23.3307   38.9480 C   0  0  0  0  0  0  0  0  0  0  0  0
   38.6525  -22.5507   40.1592 C   0  0  0  0  0  0  0  0  0  0  0  0
   37.1955  -22.3300   39.7887 C   0  0  0  0  0  0  0  0  0  0  0  0
   36.7375  -21.2135   40.4670 O   0  0  0  0  0  0  0  0  0  0  0  0
   40.3087  -22.5650   38.4855 N   0  0  0  0  0  0  0  0  0  0  0  0
   41.5825  -22.8868   38.6095 C   0  0  0  0  0  0  0  0  0  0  0  0
   42.1848  -24.0041   39.1492 C   0  0  0  0  0  0  0  0  0  0  0  0
   43.5580  -24.0590   39.1376 C   0  0  0  0  0  0  0  0  0  0  0  0
   44.3089  -23.0330   38.6048 C   0  0  0  0  0  0  0  0  0  0  0  0
   43.6850  -21.9068   38.0613 C   0  0  0  0  0  0  0  0  0  0  0  0
   42.3200  -21.8521   38.0729 C   0  0  0  0  0  0  0  0  0  0  0  0
   41.4622  -20.8818   37.6135 C   0  0  0  0  0  0  0  0  0  0  0  0
   41.5585  -19.6439   37.0147 C   0  0  0  0  0  0  0  0  0  0  0  0
   42.4362  -18.5860   36.4778 C   0  0  0  0  0  0  0  0  0  0  0  0
   43.6795  -18.4213   36.3571 O   0  0  0  0  0  0  0  0  0  0  0  0
   41.2497  -17.8645   36.1713 N   0  0  0  0  0  0  0  0  0  0  0  0
   40.4193  -18.8954   36.6937 C   0  0  0  0  0  0  0  0  0  0  0  0
   39.1750  -19.4105   36.9810 C   0  0  0  0  0  0  0  0  0  0  0  0
   37.8866  -18.9548   36.8096 C   0  0  0  0  0  0  0  0  0  0  0  0
   37.4062  -17.7641   36.2723 C   0  0  0  0  0  0  0  0  0  0  0  0
   36.0569  -17.5115   36.2149 C   0  0  0  0  0  0  0  0  0  0  0  0
   35.2344  -18.4920   36.7132 C   0  0  0  0  0  0  0  0  0  0  0  0
   35.6943  -19.6880   37.2542 C   0  0  0  0  0  0  0  0  0  0  0  0
   37.0477  -19.9329   37.3064 C   0  0  0  0  0  0  0  0  0  0  0  0
   37.7696  -20.9904   37.7816 N   0  0  0  0  0  0  0  0  0  0  0  0
   39.0676  -20.6176   37.5632 C   0  0  0  0  0  0  0  0  0  0  0  0
   40.1840  -21.3615   37.8870 C   0  0  0  0  0  0  0  0  0  0  0  0
   35.7588  -21.2746   40.5895 H   0  0  0  0  0  0  0  0  0  0  0  0
   41.0971  -16.9274   35.7269 H   0  0  0  0  0  0  0  0  0  0  0  0
   36.4808  -23.5930   40.2010 C   0  0  0  0  0  0  0  0  0  0  0  0
   35.5213  -23.2471   41.1843 O   0  0  0  0  0  0  0  0  0  0  0  0
   34.7827  -23.8729   41.0787 H   0  0  0  0  0  0  0  0  0  0  0  0
  2  1  1  0  0  0
  2  3  1  0  0  0
  3  4  1  0  0  0
  4  5  1  0  0  0
  5  6  1  0  0  0
  6  7  1  0  0  0
  6 33  1  0  0  0
 33 34  1  0  0  0
  4  8  1  0  0  0
  8  9  1  0  0  0
  9 10  2  0  0  0
 10 11  1  0  0  0
 11 12  2  0  0  0
 12 13  1  0  0  0
 13 14  2  0  0  0
 14 15  1  0  0  0
 15 16  2  0  0  0
 16 17  1  0  0  0
 17 18  2  0  0  0
 17 19  1  0  0  0
 19 20  1  0  0  0
 20 21  2  0  0  0
 21 22  1  0  0  0
 22 23  2  0  0  0
 23 24  1  0  0  0
 24 25  2  0  0  0
 25 26  1  0  0  0
 26 27  2  0  0  0
 27 28  1  0  0  0
 28 29  1  0  0  0
 29 30  2  0  0  0
  6  2  1  0  0  0
 30  8  1  0  0  0
 28  2  1  0  0  0
 14  9  1  0  0  0
 30 15  1  0  0  0
 20 16  1  0  0  0
 29 21  1  0  0  0
 27 22  1  0  0  0
  7 31  1  0  0  0
 34 35  1  0  0  0
 19 32  1  0  0  0
M  END
> <minimizedAffinity>
-4.78272

> <CNNscore>
0.3593793809

> <CNNaffinity>
5.0002021790

> <CNN_VS>
1.7969695330

> <CNNaffinity_variance>
0.1446695179

$$$$
[H]OC([H])([H])[C@@]1(O[H])C([H])([H])[C@@]2([H])O[C@]1(C([H])([H])[H])n1c3c([H])c([H])c([H])c([H])c3c3c4c(c5c6c([H])c([H])c([H])c([H])c6n2c5c31)C(=O)N4[H]


 35 42  0  0  0  0  0  0  0  0999 V2000
   35.2768  -19.8536   38.8170 C   0  0  0  0  0  0  0  0  0  0  0  0
   34.5698  -21.0869   38.2698 C   0  0  0  0  0  0  0  0  0  0  0  0
   33.8850  -21.5567   39.4316 O   0  0  0  0  0  0  0  0  0  0  0  0
   33.7590  -22.8984   39.3848 C   0  0  0  0  0  0  0  0  0  0  0  0
   34.6149  -23.4240   38.2468 C   0  0  0  0  0  0  0  0  0  0  0  0
   35.4784  -22.2060   37.9646 C   0  0  0  0  0  0  0  0  0  0  0  0
   35.9258  -22.2824   36.6567 O   0  0  0  0  0  0  0  0  0  0  0  0
   32.3764  -23.1544   38.9256 N   0  0  0  0  0  0  0  0  0  0  0  0
   31.5416  -24.0838   39.3508 C   0  0  0  0  0  0  0  0  0  0  0  0
   31.6766  -25.0380   40.3376 C   0  0  0  0  0  0  0  0  0  0  0  0
   30.6166  -25.8844   40.5583 C   0  0  0  0  0  0  0  0  0  0  0  0
   29.4572  -25.7841   39.8191 C   0  0  0  0  0  0  0  0  0  0  0  0
   29.3345  -24.8123   38.8224 C   0  0  0  0  0  0  0  0  0  0  0  0
   30.3881  -23.9710   38.6029 C   0  0  0  0  0  0  0  0  0  0  0  0
   30.5365  -22.9430   37.7031 C   0  0  0  0  0  0  0  0  0  0  0  0
   29.7925  -22.3563   36.7018 C   0  0  0  0  0  0  0  0  0  0  0  0
   28.5238  -22.3263   35.9488 C   0  0  0  0  0  0  0  0  0  0  0  0
   27.4445  -22.9758   35.9749 O   0  0  0  0  0  0  0  0  0  0  0  0
   29.0809  -21.2506   35.2040 N   0  0  0  0  0  0  0  0  0  0  0  0
   30.2974  -21.2946   35.9411 C   0  0  0  0  0  0  0  0  0  0  0  0
   31.5652  -20.8251   36.2023 C   0  0  0  0  0  0  0  0  0  0  0  0
   32.3490  -19.8303   35.6610 C   0  0  0  0  0  0  0  0  0  0  0  0
   32.1010  -18.9423   34.6183 C   0  0  0  0  0  0  0  0  0  0  0  0
   33.0509  -18.0280   34.2313 C   0  0  0  0  0  0  0  0  0  0  0  0
   34.2341  -18.0508   34.9280 C   0  0  0  0  0  0  0  0  0  0  0  0
   34.5015  -18.9297   35.9723 C   0  0  0  0  0  0  0  0  0  0  0  0
   33.5436  -19.8414   36.3538 C   0  0  0  0  0  0  0  0  0  0  0  0
   33.5330  -20.8107   37.3160 N   0  0  0  0  0  0  0  0  0  0  0  0
   32.3003  -21.3875   37.1776 C   0  0  0  0  0  0  0  0  0  0  0  0
   31.8135  -22.4367   37.9304 C   0  0  0  0  0  0  0  0  0  0  0  0
   36.7730  -21.7823   36.5633 H   0  0  0  0  0  0  0  0  0  0  0  0
   28.6981  -20.6742   34.4165 H   0  0  0  0  0  0  0  0  0  0  0  0
   36.6037  -22.2707   38.9673 C   0  0  0  0  0  0  0  0  0  0  0  0
   37.4434  -23.3535   38.6077 O   0  0  0  0  0  0  0  0  0  0  0  0
   38.3436  -23.1061   38.8847 H   0  0  0  0  0  0  0  0  0  0  0  0
  2  1  1  0  0  0
  2  3  1  0  0  0
  3  4  1  0  0  0
  4  5  1  0  0  0
  5  6  1  0  0  0
  6  7  1  0  0  0
  6 33  1  0  0  0
 33 34  1  0  0  0
  4  8  1  0  0  0
  8  9  1  0  0  0
  9 10  2  0  0  0
 10 11  1  0  0  0
 11 12  2  0  0  0
 12 13  1  0  0  0
 13 14  2  0  0  0
 14 15  1  0  0  0
 15 16  2  0  0  0
 16 17  1  0  0  0
 17 18  2  0  0  0
 17 19  1  0  0  0
 19 20  1  0  0  0
 20 21  2  0  0  0
 21 22  1  0  0  0
 22 23  2  0  0  0
 23 24  1  0  0  0
 24 25  2  0  0  0
 25 26  1  0  0  0
 26 27  2  0  0  0
 27 28  1  0  0  0
 28 29  1  0  0  0
 29 30  2  0  0  0
  6  2  1  0  0  0
 30  8  1  0  0  0
 28  2  1  0  0  0
 14  9  1  0  0  0
 30 15  1  0  0  0
 20 16  1  0  0  0
 29 21  1  0  0  0
 27 22  1  0  0  0
  7 31  1  0  0  0
 34 35  1  0  0  0
 19 32  1  0  0  0
M  END
> <minimizedAffinity>
-5.49321

> <CNNscore>
0.3552910686

> <CNNaffinity>
4.4103884697

> <CNN_VS>
1.5669716597

> <CNNaffinity_variance>
0.7813426852

$$$$
[H]OC([H])([H])[C@@]1(O[H])C([H])([H])[C@@]2([H])O[C@]1(C([H])([H])[H])n1c3c([H])c([H])c([H])c([H])c3c3c4c(c5c6c([H])c([H])c([H])c([H])c6n2c5c31)C(=O)N4[H]


 35 42  0  0  0  0  0  0  0  0999 V2000
   36.7542  -17.1602   34.6971 C   0  0  0  0  0  0  0  0  0  0  0  0
   37.0127  -18.5678   35.2188 C   0  0  0  0  0  0  0  0  0  0  0  0
   37.9355  -18.3098   36.2778 O   0  0  0  0  0  0  0  0  0  0  0  0
   38.7712  -19.3569   36.4301 C   0  0  0  0  0  0  0  0  0  0  0  0
   38.5821  -20.2999   35.2558 C   0  0  0  0  0  0  0  0  0  0  0  0
   37.8086  -19.4039   34.3031 C   0  0  0  0  0  0  0  0  0  0  0  0
   37.0874  -20.2080   33.4371 O   0  0  0  0  0  0  0  0  0  0  0  0
   38.2449  -20.1248   37.5796 N   0  0  0  0  0  0  0  0  0  0  0  0
   38.9302  -20.7099   38.5437 C   0  0  0  0  0  0  0  0  0  0  0  0
   40.2863  -20.7537   38.7913 C   0  0  0  0  0  0  0  0  0  0  0  0
   40.7130  -21.4551   39.8935 C   0  0  0  0  0  0  0  0  0  0  0  0
   39.8169  -22.0935   40.7241 C   0  0  0  0  0  0  0  0  0  0  0  0
   38.4454  -22.0406   40.4609 C   0  0  0  0  0  0  0  0  0  0  0  0
   38.0212  -21.3435   39.3653 C   0  0  0  0  0  0  0  0  0  0  0  0
   36.7537  -21.1311   38.8789 C   0  0  0  0  0  0  0  0  0  0  0  0
   35.4659  -21.4932   39.2115 C   0  0  0  0  0  0  0  0  0  0  0  0
   34.5772  -22.2150   40.1427 C   0  0  0  0  0  0  0  0  0  0  0  0
   34.7326  -22.8997   41.1888 O   0  0  0  0  0  0  0  0  0  0  0  0
   33.4972  -21.7839   39.3240 N   0  0  0  0  0  0  0  0  0  0  0  0
   34.3699  -21.0934   38.4370 C   0  0  0  0  0  0  0  0  0  0  0  0
   34.5850  -20.3186   37.3192 C   0  0  0  0  0  0  0  0  0  0  0  0
   33.7619  -19.7701   36.3607 C   0  0  0  0  0  0  0  0  0  0  0  0
   32.3806  -19.8343   36.2024 C   0  0  0  0  0  0  0  0  0  0  0  0
   31.7637  -19.2121   35.1440 C   0  0  0  0  0  0  0  0  0  0  0  0
   32.5851  -18.5388   34.2735 C   0  0  0  0  0  0  0  0  0  0  0  0
   33.9668  -18.4629   34.4138 C   0  0  0  0  0  0  0  0  0  0  0  0
   34.5760  -19.0883   35.4778 C   0  0  0  0  0  0  0  0  0  0  0  0
   35.8850  -19.1889   35.8542 N   0  0  0  0  0  0  0  0  0  0  0  0
   35.8362  -19.9571   36.9851 C   0  0  0  0  0  0  0  0  0  0  0  0
   36.9233  -20.3489   37.7395 C   0  0  0  0  0  0  0  0  0  0  0  0
   36.9219  -19.7245   32.5913 H   0  0  0  0  0  0  0  0  0  0  0  0
   32.4631  -21.9422   39.3915 H   0  0  0  0  0  0  0  0  0  0  0  0
   38.8520  -18.5769   33.5936 C   0  0  0  0  0  0  0  0  0  0  0  0
   39.1784  -19.2362   32.3829 O   0  0  0  0  0  0  0  0  0  0  0  0
   39.4138  -18.5385   31.7456 H   0  0  0  0  0  0  0  0  0  0  0  0
  2  1  1  0  0  0
  2  3  1  0  0  0
  3  4  1  0  0  0
  4  5  1  0  0  0
  5  6  1  0  0  0
  6  7  1  0  0  0
  6 33  1  0  0  0
 33 34  1  0  0  0
  4  8  1  0  0  0
  8  9  1  0  0  0
  9 10  2  0  0  0
 10 11  1  0  0  0
 11 12  2  0  0  0
 12 13  1  0  0  0
 13 14  2  0  0  0
 14 15  1  0  0  0
 15 16  2  0  0  0
 16 17  1  0  0  0
 17 18  2  0  0  0
 17 19  1  0  0  0
 19 20  1  0  0  0
 20 21  2  0  0  0
 21 22  1  0  0  0
 22 23  2  0  0  0
 23 24  1  0  0  0
 24 25  2  0  0  0
 25 26  1  0  0  0
 26 27  2  0  0  0
 27 28  1  0  0  0
 28 29  1  0  0  0
 29 30  2  0  0  0
  6  2  1  0  0  0
 30  8  1  0  0  0
 28  2  1  0  0  0
 14  9  1  0  0  0
 30 15  1  0  0  0
 20 16  1  0  0  0
 29 21  1  0  0  0
 27 22  1  0  0  0
  7 31  1  0  0  0
 34 35  1  0  0  0
 19 32  1  0  0  0
M  END
> <minimizedAffinity>
-7.38695

> <CNNscore>
0.3482184708

> <CNNaffinity>
4.8142814636

> <CNN_VS>
1.6764217615

> <CNNaffinity_variance>
0.6601429582

$$$$
[H]OC([H])([H])[C@@]1(O[H])C([H])([H])[C@@]2([H])O[C@]1(C([H])([H])[H])n1c3c([H])c([H])c([H])c([H])c3c3c4c(c5c6c([H])c([H])c([H])c([H])c6n2c5c31)C(=O)N4[H]


 35 42  0  0  0  0  0  0  0  0999 V2000
   43.0851  -19.5587   34.7314 C   0  0  0  0  0  0  0  0  0  0  0  0
   42.0733  -19.9297   35.8080 C   0  0  0  0  0  0  0  0  0  0  0  0
   40.9324  -19.1781   35.3922 O   0  0  0  0  0  0  0  0  0  0  0  0
   40.1942  -18.8246   36.4637 C   0  0  0  0  0  0  0  0  0  0  0  0
   40.9871  -19.1362   37.7199 C   0  0  0  0  0  0  0  0  0  0  0  0
   42.3708  -19.3475   37.1285 C   0  0  0  0  0  0  0  0  0  0  0  0
   43.0967  -20.1488   37.9931 O   0  0  0  0  0  0  0  0  0  0  0  0
   39.0735  -19.7887   36.5130 N   0  0  0  0  0  0  0  0  0  0  0  0
   37.8098  -19.5462   36.8057 C   0  0  0  0  0  0  0  0  0  0  0  0
   37.1609  -18.3665   37.1052 C   0  0  0  0  0  0  0  0  0  0  0  0
   35.8142  -18.4272   37.3723 C   0  0  0  0  0  0  0  0  0  0  0  0
   35.1338  -19.6258   37.3420 C   0  0  0  0  0  0  0  0  0  0  0  0
   35.8042  -20.8134   37.0369 C   0  0  0  0  0  0  0  0  0  0  0  0
   37.1429  -20.7532   36.7715 C   0  0  0  0  0  0  0  0  0  0  0  0
   38.0339  -21.7482   36.4484 C   0  0  0  0  0  0  0  0  0  0  0  0
   38.0092  -23.1161   36.2793 C   0  0  0  0  0  0  0  0  0  0  0  0
   37.2091  -24.3561   36.2818 C   0  0  0  0  0  0  0  0  0  0  0  0
   36.0006  -24.6487   36.4848 O   0  0  0  0  0  0  0  0  0  0  0  0
   38.4121  -25.0413   35.9567 N   0  0  0  0  0  0  0  0  0  0  0  0
   39.1673  -23.8350   35.9588 C   0  0  0  0  0  0  0  0  0  0  0  0
   40.3568  -23.1583   35.8067 C   0  0  0  0  0  0  0  0  0  0  0  0
   41.6454  -23.5412   35.5065 C   0  0  0  0  0  0  0  0  0  0  0  0
   42.1863  -24.7991   35.2570 C   0  0  0  0  0  0  0  0  0  0  0  0
   43.5257  -24.9490   34.9896 C   0  0  0  0  0  0  0  0  0  0  0  0
   44.2760  -23.7989   34.9860 C   0  0  0  0  0  0  0  0  0  0  0  0
   43.7549  -22.5331   35.2328 C   0  0  0  0  0  0  0  0  0  0  0  0
   42.4118  -22.3924   35.4987 C   0  0  0  0  0  0  0  0  0  0  0  0
   41.6435  -21.2992   35.7816 N   0  0  0  0  0  0  0  0  0  0  0  0
   40.3938  -21.8239   35.9670 C   0  0  0  0  0  0  0  0  0  0  0  0
   39.2590  -21.1066   36.2866 C   0  0  0  0  0  0  0  0  0  0  0  0
   44.0627  -19.9743   37.8793 H   0  0  0  0  0  0  0  0  0  0  0  0
   38.6145  -26.0560   35.7886 H   0  0  0  0  0  0  0  0  0  0  0  0
   42.9607  -17.9665   36.9841 C   0  0  0  0  0  0  0  0  0  0  0  0
   44.2472  -17.9803   37.5771 O   0  0  0  0  0  0  0  0  0  0  0  0
   44.7854  -17.3392   37.0794 H   0  0  0  0  0  0  0  0  0  0  0  0
  2  1  1  0  0  0
  2  3  1  0  0  0
  3  4  1  0  0  0
  4  5  1  0  0  0
  5  6  1  0  0  0
  6  7  1  0  0  0
  6 33  1  0  0  0
 33 34  1  0  0  0
  4  8  1  0  0  0
  8  9  1  0  0  0
  9 10  2  0  0  0
 10 11  1  0  0  0
 11 12  2  0  0  0
 12 13  1  0  0  0
 13 14  2  0  0  0
 14 15  1  0  0  0
 15 16  2  0  0  0
 16 17  1  0  0  0
 17 18  2  0  0  0
 17 19  1  0  0  0
 19 20  1  0  0  0
 20 21  2  0  0  0
 21 22  1  0  0  0
 22 23  2  0  0  0
 23 24  1  0  0  0
 24 25  2  0  0  0
 25 26  1  0  0  0
 26 27  2  0  0  0
 27 28  1  0  0  0
 28 29  1  0  0  0
 29 30  2  0  0  0
  6  2  1  0  0  0
 30  8  1  0  0  0
 28  2  1  0  0  0
 14  9  1  0  0  0
 30 15  1  0  0  0
 20 16  1  0  0  0
 29 21  1  0  0  0
 27 22  1  0  0  0
  7 31  1  0  0  0
 34 35  1  0  0  0
 19 32  1  0  0  0
M  END
> <minimizedAffinity>
-4.76265

> <CNNscore>
0.3272262216

> <CNNaffinity>
4.9169740677

> <CNN_VS>
1.6089628935

> <CNNaffinity_variance>
0.0106145665

$$$$
[H]OC([H])([H])[C@@]1(O[H])C([H])([H])[C@@]2([H])O[C@]1(C([H])([H])[H])n1c3c([H])c([H])c([H])c([H])c3c3c4c(c5c6c([H])c([H])c([H])c([H])c6n2c5c31)C(=O)N4[H]


 35 42  0  0  0  0  0  0  0  0999 V2000
   40.7230  -21.5747   34.5578 C   0  0  0  0  0  0  0  0  0  0  0  0
   39.7651  -20.5507   35.1530 C   0  0  0  0  0  0  0  0  0  0  0  0
   38.5892  -20.7813   34.3761 O   0  0  0  0  0  0  0  0  0  0  0  0
   37.8854  -19.6382   34.2496 C   0  0  0  0  0  0  0  0  0  0  0  0
   38.7358  -18.4891   34.7598 C   0  0  0  0  0  0  0  0  0  0  0  0
   40.0997  -19.1566   34.8133 C   0  0  0  0  0  0  0  0  0  0  0  0
   40.8803  -18.4801   35.7350 O   0  0  0  0  0  0  0  0  0  0  0  0
   36.7932  -19.7290   35.2430 N   0  0  0  0  0  0  0  0  0  0  0  0
   35.5363  -19.3531   35.1001 C   0  0  0  0  0  0  0  0  0  0  0  0
   34.8693  -18.8191   34.0174 C   0  0  0  0  0  0  0  0  0  0  0  0
   33.5363  -18.5216   34.1704 C   0  0  0  0  0  0  0  0  0  0  0  0
   32.8868  -18.7489   35.3650 C   0  0  0  0  0  0  0  0  0  0  0  0
   33.5754  -19.2906   36.4538 C   0  0  0  0  0  0  0  0  0  0  0  0
   34.9004  -19.5863   36.3017 C   0  0  0  0  0  0  0  0  0  0  0  0
   35.8035  -20.1180   37.1906 C   0  0  0  0  0  0  0  0  0  0  0  0
   35.8078  -20.5354   38.5044 C   0  0  0  0  0  0  0  0  0  0  0  0
   35.0411  -20.7341   39.7496 C   0  0  0  0  0  0  0  0  0  0  0  0
   33.8498  -20.5470   40.1142 O   0  0  0  0  0  0  0  0  0  0  0  0
   36.2477  -21.2212   40.3234 N   0  0  0  0  0  0  0  0  0  0  0  0
   36.9706  -21.0227   39.1138 C   0  0  0  0  0  0  0  0  0  0  0  0
   38.1349  -21.0883   38.3817 C   0  0  0  0  0  0  0  0  0  0  0  0
   39.4201  -21.4982   38.6602 C   0  0  0  0  0  0  0  0  0  0  0  0
   39.9833  -21.9938   39.8326 C   0  0  0  0  0  0  0  0  0  0  0  0
   41.3144  -22.3303   39.8866 C   0  0  0  0  0  0  0  0  0  0  0  0
   42.0336  -22.1476   38.7311 C   0  0  0  0  0  0  0  0  0  0  0  0
   41.4899  -21.6538   37.5499 C   0  0  0  0  0  0  0  0  0  0  0  0
   40.1553  -21.3204   37.5048 C   0  0  0  0  0  0  0  0  0  0  0  0
   39.3706  -20.8145   36.5080 N   0  0  0  0  0  0  0  0  0  0  0  0
   38.1434  -20.6860   37.0988 C   0  0  0  0  0  0  0  0  0  0  0  0
   37.0039  -20.2007   36.4901 C   0  0  0  0  0  0  0  0  0  0  0  0
   41.8361  -18.5930   35.5108 H   0  0  0  0  0  0  0  0  0  0  0  0
   36.4697  -21.5804   41.2829 H   0  0  0  0  0  0  0  0  0  0  0  0
   40.6471  -19.0641   33.4105 C   0  0  0  0  0  0  0  0  0  0  0  0
   40.5712  -17.7092   33.0038 O   0  0  0  0  0  0  0  0  0  0  0  0
   41.3180  -17.5630   32.3962 H   0  0  0  0  0  0  0  0  0  0  0  0
  2  1  1  0  0  0
  2  3  1  0  0  0
  3  4  1  0  0  0
  4  5  1  0  0  0
  5  6  1  0  0  0
  6  7  1  0  0  0
  6 33  1  0  0  0
 33 34  1  0  0  0
  4  8  1  0  0  0
  8  9  1  0  0  0
  9 10  2  0  0  0
 10 11  1  0  0  0
 11 12  2  0  0  0
 12 13  1  0  0  0
 13 14  2  0  0  0
 14 15  1  0  0  0
 15 16  2  0  0  0
 16 17  1  0  0  0
 17 18  2  0  0  0
 17 19  1  0  0  0
 19 20  1  0  0  0
 20 21  2  0  0  0
 21 22  1  0  0  0
 22 23  2  0  0  0
 23 24  1  0  0  0
 24 25  2  0  0  0
 25 26  1  0  0  0
 26 27  2  0  0  0
 27 28  1  0  0  0
 28 29  1  0  0  0
 29 30  2  0  0  0
  6  2  1  0  0  0
 30  8  1  0  0  0
 28  2  1  0  0  0
 14  9  1  0  0  0
 30 15  1  0  0  0
 20 16  1  0  0  0
 29 21  1  0  0  0
 27 22  1  0  0  0
  7 31  1  0  0  0
 34 35  1  0  0  0
 19 32  1  0  0  0
M  END
> <minimizedAffinity>
-7.21755

> <CNNscore>
0.3192587197

> <CNNaffinity>
4.7494382858

> <CNN_VS>
1.5162996054

> <CNNaffinity_variance>
0.7771320343

$$$$
[H]c1nc([H])c([H])c(C([H])([H])n2nnc(-c3c(OC([H])([H])[H])c(OC([H])([H])[H])c([H])c4c([H])c([H])sc34)n2)c1[H]


 25 28  0  0  0  0  0  0  0  0999 V2000
   35.9760  -17.2973   36.3866 C   0  0  0  0  0  0  0  0  0  0  0  0
   34.9287  -17.6951   35.5427 C   0  0  0  0  0  0  0  0  0  0  0  0
   33.8618  -16.9088   35.2411 C   0  0  0  0  0  0  0  0  0  0  0  0
   32.9250  -17.4216   34.4128 C   0  0  0  0  0  0  0  0  0  0  0  0
   33.1336  -18.6928   33.9484 C   0  0  0  0  0  0  0  0  0  0  0  0
   34.6139  -19.1272   34.6744 S   0  0  0  0  0  0  0  0  0  0  0  0
   33.8576  -15.6347   35.8351 C   0  0  0  0  0  0  0  0  0  0  0  0
   34.8784  -15.2512   36.6556 C   0  0  0  0  0  0  0  0  0  0  0  0
   35.9527  -16.0602   36.9513 C   0  0  0  0  0  0  0  0  0  0  0  0
   37.0526  -18.2337   36.6238 C   0  0  0  0  0  0  0  0  0  0  0  0
   38.2346  -18.2657   35.9445 N   0  0  0  0  0  0  0  0  0  0  0  0
   38.9887  -19.2483   36.4189 N   0  0  0  0  0  0  0  0  0  0  0  0
   38.3116  -19.8553   37.3981 N   0  0  0  0  0  0  0  0  0  0  0  0
   37.1486  -19.2332   37.5094 N   0  0  0  0  0  0  0  0  0  0  0  0
   40.3162  -19.6115   35.9648 C   0  0  0  0  0  0  0  0  0  0  0  0
   41.3839  -19.0486   36.8224 C   0  0  0  0  0  0  0  0  0  0  0  0
   41.6066  -19.5014   38.1053 C   0  0  0  0  0  0  0  0  0  0  0  0
   42.6198  -18.9136   38.8153 C   0  0  0  0  0  0  0  0  0  0  0  0
   43.4028  -17.9409   38.3601 N   0  0  0  0  0  0  0  0  0  0  0  0
   43.2037  -17.4804   37.1051 C   0  0  0  0  0  0  0  0  0  0  0  0
   42.1903  -18.0386   36.3373 C   0  0  0  0  0  0  0  0  0  0  0  0
   34.8681  -13.9888   37.2403 O   0  0  0  0  0  0  0  0  0  0  0  0
   33.6449  -13.3554   37.5353 C   0  0  0  0  0  0  0  0  0  0  0  0
   36.9716  -15.6537   37.7812 O   0  0  0  0  0  0  0  0  0  0  0  0
   37.6340  -14.4165   37.6020 C   0  0  0  0  0  0  0  0  0  0  0  0
  1 10  1  0  0  0
 10 11  2  0  0  0
 11 12  1  0  0  0
 12 15  1  0  0  0
 15 16  1  0  0  0
 16 17  2  0  0  0
 17 18  1  0  0  0
 18 19  2  0  0  0
 19 20  1  0  0  0
 20 21  2  0  0  0
 12 13  1  0  0  0
 13 14  2  0  0  0
  1  2  1  0  0  0
  2  3  2  0  0  0
  3  4  1  0  0  0
  4  5  2  0  0  0
  5  6  1  0  0  0
  3  7  1  0  0  0
  7  8  2  0  0  0
  8 22  1  0  0  0
 22 23  1  0  0  0
  8  9  1  0  0  0
  9 24  1  0  0  0
 24 25  1  0  0  0
  9  1  2  0  0  0
 14 10  1  0  0  0
  6  2  1  0  0  0
 21 16  1  0  0  0
M  END
> <minimizedAffinity>
-6.00016

> <CNNscore>
0.3900718987

> <CNNaffinity>
4.8178877831

> <CNN_VS>
1.8793226480

> <CNNaffinity_variance>
0.4686160088

$$$$
[H]c1nc([H])c([H])c(C([H])([H])n2nnc(-c3c(OC([H])([H])[H])c(OC([H])([H])[H])c([H])c4c([H])c([H])sc34)n2)c1[H]


 25 28  0  0  0  0  0  0  0  0999 V2000
   35.1253  -16.4428   36.2001 C   0  0  0  0  0  0  0  0  0  0  0  0
   34.5556  -17.4510   35.4088 C   0  0  0  0  0  0  0  0  0  0  0  0
   35.1729  -18.6286   35.1264 C   0  0  0  0  0  0  0  0  0  0  0  0
   34.5056  -19.5107   34.3496 C   0  0  0  0  0  0  0  0  0  0  0  0
   33.2618  -19.1393   33.9136 C   0  0  0  0  0  0  0  0  0  0  0  0
   33.0652  -17.5883   34.5940 S   0  0  0  0  0  0  0  0  0  0  0  0
   36.4528  -18.7938   35.6840 C   0  0  0  0  0  0  0  0  0  0  0  0
   37.0037  -17.8106   36.4535 C   0  0  0  0  0  0  0  0  0  0  0  0
   36.3649  -16.6225   36.7301 C   0  0  0  0  0  0  0  0  0  0  0  0
   34.3586  -15.2365   36.4221 C   0  0  0  0  0  0  0  0  0  0  0  0
   34.1020  -14.6776   37.6392 N   0  0  0  0  0  0  0  0  0  0  0  0
   33.3731  -13.5816   37.4756 N   0  0  0  0  0  0  0  0  0  0  0  0
   33.1528  -13.4212   36.1674 N   0  0  0  0  0  0  0  0  0  0  0  0
   33.7523  -14.4250   35.5468 N   0  0  0  0  0  0  0  0  0  0  0  0
   32.8926  -12.7023   38.5227 C   0  0  0  0  0  0  0  0  0  0  0  0
   32.4309  -11.3959   38.0003 C   0  0  0  0  0  0  0  0  0  0  0  0
   31.1041  -11.1474   37.7211 C   0  0  0  0  0  0  0  0  0  0  0  0
   30.7817   -9.9055   37.2414 C   0  0  0  0  0  0  0  0  0  0  0  0
   31.6516   -8.9242   37.0255 N   0  0  0  0  0  0  0  0  0  0  0  0
   32.9583   -9.1441   37.2919 C   0  0  0  0  0  0  0  0  0  0  0  0
   33.3449  -10.3850   37.7806 C   0  0  0  0  0  0  0  0  0  0  0  0
   38.2708  -17.9804   37.0022 O   0  0  0  0  0  0  0  0  0  0  0  0
   39.1795  -18.8848   36.4186 C   0  0  0  0  0  0  0  0  0  0  0  0
   36.9385  -15.6442   37.5085 O   0  0  0  0  0  0  0  0  0  0  0  0
   37.3774  -14.4151   36.9624 C   0  0  0  0  0  0  0  0  0  0  0  0
  1 10  1  0  0  0
 10 11  2  0  0  0
 11 12  1  0  0  0
 12 15  1  0  0  0
 15 16  1  0  0  0
 16 17  2  0  0  0
 17 18  1  0  0  0
 18 19  2  0  0  0
 19 20  1  0  0  0
 20 21  2  0  0  0
 12 13  1  0  0  0
 13 14  2  0  0  0
  1  2  1  0  0  0
  2  3  2  0  0  0
  3  4  1  0  0  0
  4  5  2  0  0  0
  5  6  1  0  0  0
  3  7  1  0  0  0
  7  8  2  0  0  0
  8 22  1  0  0  0
 22 23  1  0  0  0
  8  9  1  0  0  0
  9 24  1  0  0  0
 24 25  1  0  0  0
  9  1  2  0  0  0
 14 10  1  0  0  0
  6  2  1  0  0  0
 21 16  1  0  0  0
M  END
> <minimizedAffinity>
-6.16875

> <CNNscore>
0.3780740499

> <CNNaffinity>
5.6829977036

> <CNN_VS>
2.1485939026

> <CNNaffinity_variance>
0.2566119432

$$$$
[H]c1nc([H])c([H])c(C([H])([H])n2nnc(-c3c(OC([H])([H])[H])c(OC([H])([H])[H])c([H])c4c([H])c([H])sc34)n2)c1[H]


 25 28  0  0  0  0  0  0  0  0999 V2000
   32.4990  -11.3993   37.4934 C   0  0  0  0  0  0  0  0  0  0  0  0
   32.9849  -10.1496   37.0820 C   0  0  0  0  0  0  0  0  0  0  0  0
   32.2236   -9.0251   37.0245 C   0  0  0  0  0  0  0  0  0  0  0  0
   32.8237   -7.8876   36.6088 C   0  0  0  0  0  0  0  0  0  0  0  0
   34.1508   -7.9682   36.2808 C   0  0  0  0  0  0  0  0  0  0  0  0
   34.5148   -9.6104   36.5599 S   0  0  0  0  0  0  0  0  0  0  0  0
   30.8805   -9.1791   37.4100 C   0  0  0  0  0  0  0  0  0  0  0  0
   30.4114  -10.3966   37.8098 C   0  0  0  0  0  0  0  0  0  0  0  0
   31.1961  -11.5269   37.8624 C   0  0  0  0  0  0  0  0  0  0  0  0
   33.4180  -12.5162   37.5081 C   0  0  0  0  0  0  0  0  0  0  0  0
   34.0843  -13.0040   36.4228 N   0  0  0  0  0  0  0  0  0  0  0  0
   34.8405  -14.0284   36.7942 N   0  0  0  0  0  0  0  0  0  0  0  0
   34.6740  -14.2126   38.1073 N   0  0  0  0  0  0  0  0  0  0  0  0
   33.8152  -13.2947   38.5222 N   0  0  0  0  0  0  0  0  0  0  0  0
   35.7015  -14.8189   35.9373 C   0  0  0  0  0  0  0  0  0  0  0  0
   35.5688  -16.2728   36.1842 C   0  0  0  0  0  0  0  0  0  0  0  0
   36.4598  -16.9644   36.9768 C   0  0  0  0  0  0  0  0  0  0  0  0
   36.2476  -18.3076   37.1415 C   0  0  0  0  0  0  0  0  0  0  0  0
   35.2482  -18.9923   36.5948 N   0  0  0  0  0  0  0  0  0  0  0  0
   34.3617  -18.3359   35.8137 C   0  0  0  0  0  0  0  0  0  0  0  0
   34.5262  -16.9722   35.6104 C   0  0  0  0  0  0  0  0  0  0  0  0
   29.0810  -10.5422   38.1900 O   0  0  0  0  0  0  0  0  0  0  0  0
   28.5902   -9.8633   39.3225 C   0  0  0  0  0  0  0  0  0  0  0  0
   30.7029  -12.7450   38.2687 O   0  0  0  0  0  0  0  0  0  0  0  0
   30.5207  -13.0600   39.6358 C   0  0  0  0  0  0  0  0  0  0  0  0
  1 10  1  0  0  0
 10 11  2  0  0  0
 11 12  1  0  0  0
 12 15  1  0  0  0
 15 16  1  0  0  0
 16 17  2  0  0  0
 17 18  1  0  0  0
 18 19  2  0  0  0
 19 20  1  0  0  0
 20 21  2  0  0  0
 12 13  1  0  0  0
 13 14  2  0  0  0
  1  2  1  0  0  0
  2  3  2  0  0  0
  3  4  1  0  0  0
  4  5  2  0  0  0
  5  6  1  0  0  0
  3  7  1  0  0  0
  7  8  2  0  0  0
  8 22  1  0  0  0
 22 23  1  0  0  0
  8  9  1  0  0  0
  9 24  1  0  0  0
 24 25  1  0  0  0
  9  1  2  0  0  0
 14 10  1  0  0  0
  6  2  1  0  0  0
 21 16  1  0  0  0
M  END
> <minimizedAffinity>
-6.68166

> <CNNscore>
0.3689815402

> <CNNaffinity>
5.9243073463

> <CNN_VS>
2.1859600544

> <CNNaffinity_variance>
0.2105837166

$$$$
[H]c1nc([H])c([H])c(C([H])([H])n2nnc(-c3c(OC([H])([H])[H])c(OC([H])([H])[H])c([H])c4c([H])c([H])sc34)n2)c1[H]


 25 28  0  0  0  0  0  0  0  0999 V2000
   33.4677  -20.4273   36.5536 C   0  0  0  0  0  0  0  0  0  0  0  0
   32.2214  -20.1514   35.9724 C   0  0  0  0  0  0  0  0  0  0  0  0
   31.1053  -20.8960   36.1900 C   0  0  0  0  0  0  0  0  0  0  0  0
   29.9702  -20.5141   35.5635 C   0  0  0  0  0  0  0  0  0  0  0  0
   30.0445  -19.4066   34.7616 C   0  0  0  0  0  0  0  0  0  0  0  0
   31.6777  -18.9386   34.9058 S   0  0  0  0  0  0  0  0  0  0  0  0
   31.2647  -21.9930   37.0545 C   0  0  0  0  0  0  0  0  0  0  0  0
   32.4789  -22.2583   37.6182 C   0  0  0  0  0  0  0  0  0  0  0  0
   33.6006  -21.4937   37.3873 C   0  0  0  0  0  0  0  0  0  0  0  0
   34.5755  -19.5527   36.2368 C   0  0  0  0  0  0  0  0  0  0  0  0
   35.1152  -18.6263   37.0794 N   0  0  0  0  0  0  0  0  0  0  0  0
   36.1130  -18.0027   36.4672 N   0  0  0  0  0  0  0  0  0  0  0  0
   36.2284  -18.5122   35.2372 N   0  0  0  0  0  0  0  0  0  0  0  0
   35.2963  -19.4439   35.1139 N   0  0  0  0  0  0  0  0  0  0  0  0
   36.9415  -16.9511   37.0224 C   0  0  0  0  0  0  0  0  0  0  0  0
   36.3286  -15.6106   36.8813 C   0  0  0  0  0  0  0  0  0  0  0  0
   36.9915  -14.4605   37.2529 C   0  0  0  0  0  0  0  0  0  0  0  0
   36.3355  -13.2703   37.0813 C   0  0  0  0  0  0  0  0  0  0  0  0
   35.1096  -13.1423   36.5841 N   0  0  0  0  0  0  0  0  0  0  0  0
   34.4396  -14.2558   36.2126 C   0  0  0  0  0  0  0  0  0  0  0  0
   35.0546  -15.4916   36.3634 C   0  0  0  0  0  0  0  0  0  0  0  0
   32.6298  -23.3456   38.4729 O   0  0  0  0  0  0  0  0  0  0  0  0
   31.7921  -23.4839   39.5969 C   0  0  0  0  0  0  0  0  0  0  0  0
   34.8155  -21.7788   37.9659 O   0  0  0  0  0  0  0  0  0  0  0  0
   35.7138  -22.7127   37.3981 C   0  0  0  0  0  0  0  0  0  0  0  0
  1 10  1  0  0  0
 10 11  2  0  0  0
 11 12  1  0  0  0
 12 15  1  0  0  0
 15 16  1  0  0  0
 16 17  2  0  0  0
 17 18  1  0  0  0
 18 19  2  0  0  0
 19 20  1  0  0  0
 20 21  2  0  0  0
 12 13  1  0  0  0
 13 14  2  0  0  0
  1  2  1  0  0  0
  2  3  2  0  0  0
  3  4  1  0  0  0
  4  5  2  0  0  0
  5  6  1  0  0  0
  3  7  1  0  0  0
  7  8  2  0  0  0
  8 22  1  0  0  0
 22 23  1  0  0  0
  8  9  1  0  0  0
  9 24  1  0  0  0
 24 25  1  0  0  0
  9  1  2  0  0  0
 14 10  1  0  0  0
  6  2  1  0  0  0
 21 16  1  0  0  0
M  END
> <minimizedAffinity>
-5.70238

> <CNNscore>
0.3382783830

> <CNNaffinity>
4.6918740273

> <CNN_VS>
1.5871595144

> <CNNaffinity_variance>
0.6662651300

$$$$
[H]c1nc([H])c([H])c(C([H])([H])n2nnc(-c3c(OC([H])([H])[H])c(OC([H])([H])[H])c([H])c4c([H])c([H])sc34)n2)c1[H]


 25 28  0  0  0  0  0  0  0  0999 V2000
   34.7335  -17.7113   35.9231 C   0  0  0  0  0  0  0  0  0  0  0  0
   34.8672  -16.3446   36.2087 C   0  0  0  0  0  0  0  0  0  0  0  0
   35.9623  -15.8009   36.8026 C   0  0  0  0  0  0  0  0  0  0  0  0
   35.9557  -14.4667   37.0181 C   0  0  0  0  0  0  0  0  0  0  0  0
   34.8423  -13.7772   36.6179 C   0  0  0  0  0  0  0  0  0  0  0  0
   33.8512  -14.9992   35.9608 S   0  0  0  0  0  0  0  0  0  0  0  0
   36.9893  -16.7039   37.1281 C   0  0  0  0  0  0  0  0  0  0  0  0
   36.8556  -18.0330   36.8487 C   0  0  0  0  0  0  0  0  0  0  0  0
   35.7390  -18.5682   36.2463 C   0  0  0  0  0  0  0  0  0  0  0  0
   33.5133  -18.1580   35.2875 C   0  0  0  0  0  0  0  0  0  0  0  0
   32.3754  -18.5320   35.9392 N   0  0  0  0  0  0  0  0  0  0  0  0
   31.4546  -18.8831   35.0513 N   0  0  0  0  0  0  0  0  0  0  0  0
   31.9799  -18.7419   33.8308 N   0  0  0  0  0  0  0  0  0  0  0  0
   33.2193  -18.3048   33.9897 N   0  0  0  0  0  0  0  0  0  0  0  0
   30.1103  -19.3413   35.3398 C   0  0  0  0  0  0  0  0  0  0  0  0
   30.0220  -20.8160   35.4401 C   0  0  0  0  0  0  0  0  0  0  0  0
   31.1201  -21.6287   35.2561 C   0  0  0  0  0  0  0  0  0  0  0  0
   30.9313  -22.9806   35.3705 C   0  0  0  0  0  0  0  0  0  0  0  0
   29.7701  -23.5658   35.6452 N   0  0  0  0  0  0  0  0  0  0  0  0
   28.6790  -22.7897   35.8298 C   0  0  0  0  0  0  0  0  0  0  0  0
   28.8097  -21.4112   35.7260 C   0  0  0  0  0  0  0  0  0  0  0  0
   37.8759  -18.9213   37.1735 O   0  0  0  0  0  0  0  0  0  0  0  0
   39.0273  -19.0026   36.3661 C   0  0  0  0  0  0  0  0  0  0  0  0
   35.6246  -19.9116   35.9734 O   0  0  0  0  0  0  0  0  0  0  0  0
   35.1159  -20.8274   36.9242 C   0  0  0  0  0  0  0  0  0  0  0  0
  1 10  1  0  0  0
 10 11  2  0  0  0
 11 12  1  0  0  0
 12 15  1  0  0  0
 15 16  1  0  0  0
 16 17  2  0  0  0
 17 18  1  0  0  0
 18 19  2  0  0  0
 19 20  1  0  0  0
 20 21  2  0  0  0
 12 13  1  0  0  0
 13 14  2  0  0  0
  1  2  1  0  0  0
  2  3  2  0  0  0
  3  4  1  0  0  0
  4  5  2  0  0  0
  5  6  1  0  0  0
  3  7  1  0  0  0
  7  8  2  0  0  0
  8 22  1  0  0  0
 22 23  1  0  0  0
  8  9  1  0  0  0
  9 24  1  0  0  0
 24 25  1  0  0  0
  9  1  2  0  0  0
 14 10  1  0  0  0
  6  2  1  0  0  0
 21 16  1  0  0  0
M  END
> <minimizedAffinity>
-6.22312

> <CNNscore>
0.3214503825

> <CNNaffinity>
4.6982831955

> <CNN_VS>
1.5102648735

> <CNNaffinity_variance>
0.9650914073

$$$$
[H]c1nc([H])c([H])c(C([H])([H])n2nnc(-c3c(OC([H])([H])[H])c(OC([H])([H])[H])c([H])c4c([H])c([H])sc34)n2)c1[H]


 25 28  0  0  0  0  0  0  0  0999 V2000
   33.2782  -20.6290   37.0443 C   0  0  0  0  0  0  0  0  0  0  0  0
   33.2526  -19.6515   36.0388 C   0  0  0  0  0  0  0  0  0  0  0  0
   32.2190  -19.4870   35.1716 C   0  0  0  0  0  0  0  0  0  0  0  0
   32.3289  -18.5031   34.2515 C   0  0  0  0  0  0  0  0  0  0  0  0
   33.4760  -17.7555   34.2738 C   0  0  0  0  0  0  0  0  0  0  0  0
   34.3549  -18.4419   35.5636 S   0  0  0  0  0  0  0  0  0  0  0  0
   31.1402  -20.3732   35.3357 C   0  0  0  0  0  0  0  0  0  0  0  0
   31.1686  -21.3231   36.3151 C   0  0  0  0  0  0  0  0  0  0  0  0
   32.2241  -21.4767   37.1861 C   0  0  0  0  0  0  0  0  0  0  0  0
   34.4421  -20.6951   37.9005 C   0  0  0  0  0  0  0  0  0  0  0  0
   35.6163  -21.3149   37.5894 N   0  0  0  0  0  0  0  0  0  0  0  0
   36.4656  -21.1817   38.5994 N   0  0  0  0  0  0  0  0  0  0  0  0
   35.8582  -20.4830   39.5630 N   0  0  0  0  0  0  0  0  0  0  0  0
   34.6413  -20.1976   39.1273 N   0  0  0  0  0  0  0  0  0  0  0  0
   37.8184  -21.6980   38.6612 C   0  0  0  0  0  0  0  0  0  0  0  0
   38.8135  -20.7517   38.1072 C   0  0  0  0  0  0  0  0  0  0  0  0
   38.5074  -19.8882   37.0772 C   0  0  0  0  0  0  0  0  0  0  0  0
   39.5000  -19.0529   36.6376 C   0  0  0  0  0  0  0  0  0  0  0  0
   40.7341  -19.0132   37.1294 N   0  0  0  0  0  0  0  0  0  0  0  0
   41.0580  -19.8505   38.1398 C   0  0  0  0  0  0  0  0  0  0  0  0
   40.0919  -20.7207   38.6272 C   0  0  0  0  0  0  0  0  0  0  0  0
   30.0976  -22.1970   36.4721 O   0  0  0  0  0  0  0  0  0  0  0  0
   28.7758  -21.7125   36.4240 C   0  0  0  0  0  0  0  0  0  0  0  0
   32.2324  -22.4412   38.1668 O   0  0  0  0  0  0  0  0  0  0  0  0
   32.6136  -23.7771   37.8991 C   0  0  0  0  0  0  0  0  0  0  0  0
  1 10  1  0  0  0
 10 11  2  0  0  0
 11 12  1  0  0  0
 12 15  1  0  0  0
 15 16  1  0  0  0
 16 17  2  0  0  0
 17 18  1  0  0  0
 18 19  2  0  0  0
 19 20  1  0  0  0
 20 21  2  0  0  0
 12 13  1  0  0  0
 13 14  2  0  0  0
  1  2  1  0  0  0
  2  3  2  0  0  0
  3  4  1  0  0  0
  4  5  2  0  0  0
  5  6  1  0  0  0
  3  7  1  0  0  0
  7  8  2  0  0  0
  8 22  1  0  0  0
 22 23  1  0  0  0
  8  9  1  0  0  0
  9 24  1  0  0  0
 24 25  1  0  0  0
  9  1  2  0  0  0
 14 10  1  0  0  0
  6  2  1  0  0  0
 21 16  1  0  0  0
M  END
> <minimizedAffinity>
-4.56398

> <CNNscore>
0.2990250885

> <CNNaffinity>
4.3566145897

> <CNN_VS>
1.3027371168

> <CNNaffinity_variance>
0.6179510951

$$$$
[H]c1nc([H])c([H])c(C([H])([H])n2nnc(-c3c(OC([H])([H])[H])c(OC([H])([H])[H])c([H])c4c([H])c([H])sc34)n2)c1[H]


 25 28  0  0  0  0  0  0  0  0999 V2000
   34.7545  -17.4882   35.8678 C   0  0  0  0  0  0  0  0  0  0  0  0
   35.7322  -18.4122   36.2645 C   0  0  0  0  0  0  0  0  0  0  0  0
   36.9196  -18.0613   36.8252 C   0  0  0  0  0  0  0  0  0  0  0  0
   37.7691  -19.0581   37.1593 C   0  0  0  0  0  0  0  0  0  0  0  0
   37.3574  -20.3386   36.9028 C   0  0  0  0  0  0  0  0  0  0  0  0
   35.8153  -20.1135   36.2111 S   0  0  0  0  0  0  0  0  0  0  0  0
   37.1284  -16.6814   36.9944 C   0  0  0  0  0  0  0  0  0  0  0  0
   36.1747  -15.7854   36.6073 C   0  0  0  0  0  0  0  0  0  0  0  0
   34.9763  -16.1574   36.0404 C   0  0  0  0  0  0  0  0  0  0  0  0
   33.5333  -17.9975   35.2833 C   0  0  0  0  0  0  0  0  0  0  0  0
   32.4270  -18.3852   35.9800 N   0  0  0  0  0  0  0  0  0  0  0  0
   31.4947  -18.7981   35.1317 N   0  0  0  0  0  0  0  0  0  0  0  0
   31.9813  -18.6837   33.8924 N   0  0  0  0  0  0  0  0  0  0  0  0
   33.2089  -18.2004   34.0004 N   0  0  0  0  0  0  0  0  0  0  0  0
   30.1752  -19.2899   35.4743 C   0  0  0  0  0  0  0  0  0  0  0  0
   30.0990  -20.7686   35.4618 C   0  0  0  0  0  0  0  0  0  0  0  0
   31.2074  -21.5563   35.2356 C   0  0  0  0  0  0  0  0  0  0  0  0
   31.0293  -22.9144   35.2448 C   0  0  0  0  0  0  0  0  0  0  0  0
   29.8693  -23.5280   35.4552 N   0  0  0  0  0  0  0  0  0  0  0  0
   28.7683  -22.7768   35.6794 C   0  0  0  0  0  0  0  0  0  0  0  0
   28.8878  -21.3934   35.6819 C   0  0  0  0  0  0  0  0  0  0  0  0
   36.3878  -14.4211   36.7777 O   0  0  0  0  0  0  0  0  0  0  0  0
   37.4672  -13.9655   37.5597 C   0  0  0  0  0  0  0  0  0  0  0  0
   34.0282  -15.2374   35.6572 O   0  0  0  0  0  0  0  0  0  0  0  0
   33.4981  -14.2882   36.5625 C   0  0  0  0  0  0  0  0  0  0  0  0
  1 10  1  0  0  0
 10 11  2  0  0  0
 11 12  1  0  0  0
 12 15  1  0  0  0
 15 16  1  0  0  0
 16 17  2  0  0  0
 17 18  1  0  0  0
 18 19  2  0  0  0
 19 20  1  0  0  0
 20 21  2  0  0  0
 12 13  1  0  0  0
 13 14  2  0  0  0
  1  2  1  0  0  0
  2  3  2  0  0  0
  3  4  1  0  0  0
  4  5  2  0  0  0
  5  6  1  0  0  0
  3  7  1  0  0  0
  7  8  2  0  0  0
  8 22  1  0  0  0
 22 23  1  0  0  0
  8  9  1  0  0  0
  9 24  1  0  0  0
 24 25  1  0  0  0
  9  1  2  0  0  0
 14 10  1  0  0  0
  6  2  1  0  0  0
 21 16  1  0  0  0
M  END
> <minimizedAffinity>
-6.18598

> <CNNscore>
0.2782784402

> <CNNaffinity>
4.7777318954

> <CNN_VS>
1.3295397758

> <CNNaffinity_variance>
0.8260349035

$$$$
[H]c1nc([H])c([H])c(C([H])([H])n2nnc(-c3c(OC([H])([H])[H])c(OC([H])([H])[H])c([H])c4c([H])c([H])sc34)n2)c1[H]


 25 28  0  0  0  0  0  0  0  0999 V2000
   34.6130  -19.0181   36.6419 C   0  0  0  0  0  0  0  0  0  0  0  0
   33.6507  -19.5577   35.7758 C   0  0  0  0  0  0  0  0  0  0  0  0
   33.0100  -18.8386   34.8168 C   0  0  0  0  0  0  0  0  0  0  0  0
   32.1046  -19.4884   34.0522 C   0  0  0  0  0  0  0  0  0  0  0  0
   31.9114  -20.8190   34.3118 C   0  0  0  0  0  0  0  0  0  0  0  0
   32.9875  -21.1176   35.6002 S   0  0  0  0  0  0  0  0  0  0  0  0
   33.3697  -17.4823   34.7310 C   0  0  0  0  0  0  0  0  0  0  0  0
   34.3064  -16.9608   35.5754 C   0  0  0  0  0  0  0  0  0  0  0  0
   34.9466  -17.7033   36.5424 C   0  0  0  0  0  0  0  0  0  0  0  0
   35.2188  -19.8961   37.6189 C   0  0  0  0  0  0  0  0  0  0  0  0
   36.3034  -20.6928   37.3985 N   0  0  0  0  0  0  0  0  0  0  0  0
   36.5901  -21.3626   38.5068 N   0  0  0  0  0  0  0  0  0  0  0  0
   35.7055  -21.0113   39.4447 N   0  0  0  0  0  0  0  0  0  0  0  0
   34.8870  -20.1281   38.8949 N   0  0  0  0  0  0  0  0  0  0  0  0
   37.6704  -22.3123   38.6842 C   0  0  0  0  0  0  0  0  0  0  0  0
   38.9783  -21.7734   38.2466 C   0  0  0  0  0  0  0  0  0  0  0  0
   39.6855  -20.8646   39.0044 C   0  0  0  0  0  0  0  0  0  0  0  0
   40.8858  -20.4281   38.5093 C   0  0  0  0  0  0  0  0  0  0  0  0
   41.4182  -20.8150   37.3546 N   0  0  0  0  0  0  0  0  0  0  0  0
   40.7434  -21.7055   36.5940 C   0  0  0  0  0  0  0  0  0  0  0  0
   39.5202  -22.1836   37.0450 C   0  0  0  0  0  0  0  0  0  0  0  0
   34.6577  -15.6177   35.4853 O   0  0  0  0  0  0  0  0  0  0  0  0
   33.8168  -14.6280   36.0307 C   0  0  0  0  0  0  0  0  0  0  0  0
   35.8883  -17.1577   37.3835 O   0  0  0  0  0  0  0  0  0  0  0  0
   37.2436  -17.0212   37.0011 C   0  0  0  0  0  0  0  0  0  0  0  0
  1 10  1  0  0  0
 10 11  2  0  0  0
 11 12  1  0  0  0
 12 15  1  0  0  0
 15 16  1  0  0  0
 16 17  2  0  0  0
 17 18  1  0  0  0
 18 19  2  0  0  0
 19 20  1  0  0  0
 20 21  2  0  0  0
 12 13  1  0  0  0
 13 14  2  0  0  0
  1  2  1  0  0  0
  2  3  2  0  0  0
  3  4  1  0  0  0
  4  5  2  0  0  0
  5  6  1  0  0  0
  3  7  1  0  0  0
  7  8  2  0  0  0
  8 22  1  0  0  0
 22 23  1  0  0  0
  8  9  1  0  0  0
  9 24  1  0  0  0
 24 25  1  0  0  0
  9  1  2  0  0  0
 14 10  1  0  0  0
  6  2  1  0  0  0
 21 16  1  0  0  0
M  END
> <minimizedAffinity>
-4.45112

> <CNNscore>
0.2758219242

> <CNNaffinity>
4.4820156097

> <CNN_VS>
1.2362381220

> <CNNaffinity_variance>
0.5458904505

$$$$
[H]c1nc([H])c([H])c(C([H])([H])n2nnc(-c3c(OC([H])([H])[H])c(OC([H])([H])[H])c([H])c4c([H])c([H])sc34)n2)c1[H]


 25 28  0  0  0  0  0  0  0  0999 V2000
   34.0587  -20.0754   36.1638 C   0  0  0  0  0  0  0  0  0  0  0  0
   32.6984  -20.0156   35.8272 C   0  0  0  0  0  0  0  0  0  0  0  0
   31.8029  -20.9934   36.1262 C   0  0  0  0  0  0  0  0  0  0  0  0
   30.5215  -20.8031   35.7406 C   0  0  0  0  0  0  0  0  0  0  0  0
   30.2369  -19.6378   35.0802 C   0  0  0  0  0  0  0  0  0  0  0  0
   31.7496  -18.8534   35.0190 S   0  0  0  0  0  0  0  0  0  0  0  0
   32.3222  -22.1052   36.8120 C   0  0  0  0  0  0  0  0  0  0  0  0
   33.6463  -22.1598   37.1379 C   0  0  0  0  0  0  0  0  0  0  0  0
   34.5410  -21.1601   36.8274 C   0  0  0  0  0  0  0  0  0  0  0  0
   34.9035  -18.9639   35.7851 C   0  0  0  0  0  0  0  0  0  0  0  0
   35.2177  -17.9039   36.5833 N   0  0  0  0  0  0  0  0  0  0  0  0
   36.0105  -17.0729   35.9199 N   0  0  0  0  0  0  0  0  0  0  0  0
   36.2155  -17.5796   34.7005 N   0  0  0  0  0  0  0  0  0  0  0  0
   35.5428  -18.7177   34.6349 N   0  0  0  0  0  0  0  0  0  0  0  0
   36.5650  -15.8298   36.4176 C   0  0  0  0  0  0  0  0  0  0  0  0
   35.5568  -14.7479   36.4930 C   0  0  0  0  0  0  0  0  0  0  0  0
   34.2355  -14.9548   36.1589 C   0  0  0  0  0  0  0  0  0  0  0  0
   33.3832  -13.8876   36.2635 C   0  0  0  0  0  0  0  0  0  0  0  0
   33.7350  -12.6696   36.6624 N   0  0  0  0  0  0  0  0  0  0  0  0
   35.0251  -12.4423   36.9954 C   0  0  0  0  0  0  0  0  0  0  0  0
   35.9354  -13.4873   36.9091 C   0  0  0  0  0  0  0  0  0  0  0  0
   34.1538  -23.2631   37.8166 O   0  0  0  0  0  0  0  0  0  0  0  0
   34.4294  -24.4567   37.1212 C   0  0  0  0  0  0  0  0  0  0  0  0
   35.8723  -21.2352   37.1654 O   0  0  0  0  0  0  0  0  0  0  0  0
   36.3458  -20.8293   38.4353 C   0  0  0  0  0  0  0  0  0  0  0  0
  1 10  1  0  0  0
 10 11  2  0  0  0
 11 12  1  0  0  0
 12 15  1  0  0  0
 15 16  1  0  0  0
 16 17  2  0  0  0
 17 18  1  0  0  0
 18 19  2  0  0  0
 19 20  1  0  0  0
 20 21  2  0  0  0
 12 13  1  0  0  0
 13 14  2  0  0  0
  1  2  1  0  0  0
  2  3  2  0  0  0
  3  4  1  0  0  0
  4  5  2  0  0  0
  5  6  1  0  0  0
  3  7  1  0  0  0
  7  8  2  0  0  0
  8 22  1  0  0  0
 22 23  1  0  0  0
  8  9  1  0  0  0
  9 24  1  0  0  0
 24 25  1  0  0  0
  9  1  2  0  0  0
 14 10  1  0  0  0
  6  2  1  0  0  0
 21 16  1  0  0  0
M  END
> <minimizedAffinity>
-5.85423

> <CNNscore>
0.2717126310

> <CNNaffinity>
4.8378310204

> <CNN_VS>
1.3144997358

> <CNNaffinity_variance>
0.5755648613

$$$$
[H]c1c([H])c([C@]2([H])N(C([H])([H])[H])C([H])([H])C([H])([H])C2([H])[H])c([H])c([H])c1F


 13 14  0  0  0  0  0  0  0  0999 V2000
   35.5597  -16.5406   36.2653 C   0  0  0  0  0  0  0  0  0  0  0  0
   34.9563  -15.3329   35.8826 C   0  0  0  0  0  0  0  0  0  0  0  0
   35.4518  -14.1285   36.3066 C   0  0  0  0  0  0  0  0  0  0  0  0
   36.5554  -14.0612   37.1205 C   0  0  0  0  0  0  0  0  0  0  0  0
   37.0645  -12.8652   37.5540 F   0  0  0  0  0  0  0  0  0  0  0  0
   37.1390  -15.2438   37.4903 C   0  0  0  0  0  0  0  0  0  0  0  0
   36.6552  -16.4819   37.0733 C   0  0  0  0  0  0  0  0  0  0  0  0
   36.6444  -18.9882   34.4494 C   0  0  0  0  0  0  0  0  0  0  0  0
   35.3947  -18.2546   34.4917 N   0  0  0  0  0  0  0  0  0  0  0  0
   34.3012  -19.1190   34.0373 C   0  0  0  0  0  0  0  0  0  0  0  0
   33.1062  -18.2314   34.2494 C   0  0  0  0  0  0  0  0  0  0  0  0
   33.4975  -17.4637   35.4770 C   0  0  0  0  0  0  0  0  0  0  0  0
   34.9743  -17.8118   35.7673 C   0  0  0  0  0  0  0  0  0  0  0  0
  8  9  1  0  0  0
  9 10  1  0  0  0
 10 11  1  0  0  0
 11 12  1  0  0  0
 12 13  1  0  0  0
 13  1  1  0  0  0
  1  2  2  0  0  0
  2  3  1  0  0  0
  3  4  2  0  0  0
  4  5  1  0  0  0
  4  6  1  0  0  0
  6  7  2  0  0  0
 13  9  1  0  0  0
  7  1  1  0  0  0
M  END
> <minimizedAffinity>
-5.47337

> <CNNscore>
0.8094426990

> <CNNaffinity>
3.7312941551

> <CNN_VS>
3.0202689171

> <CNNaffinity_variance>
0.6260358691

$$$$
[H]c1c([H])c([C@]2([H])N(C([H])([H])[H])C([H])([H])C([H])([H])C2([H])[H])c([H])c([H])c1F


 13 14  0  0  0  0  0  0  0  0999 V2000
   33.7739  -19.6076   35.4469 C   0  0  0  0  0  0  0  0  0  0  0  0
   32.9718  -18.8554   34.5753 C   0  0  0  0  0  0  0  0  0  0  0  0
   31.6153  -19.0387   34.5259 C   0  0  0  0  0  0  0  0  0  0  0  0
   30.9940  -19.9645   35.3269 C   0  0  0  0  0  0  0  0  0  0  0  0
   29.6384  -20.1610   35.2906 F   0  0  0  0  0  0  0  0  0  0  0  0
   31.7831  -20.6953   36.1748 C   0  0  0  0  0  0  0  0  0  0  0  0
   33.1645  -20.5288   36.2448 C   0  0  0  0  0  0  0  0  0  0  0  0
   35.8633  -18.3825   37.5914 C   0  0  0  0  0  0  0  0  0  0  0  0
   35.6900  -18.2187   36.1613 N   0  0  0  0  0  0  0  0  0  0  0  0
   36.9812  -17.9046   35.5421 C   0  0  0  0  0  0  0  0  0  0  0  0
   36.6182  -17.8777   34.0832 C   0  0  0  0  0  0  0  0  0  0  0  0
   35.5597  -18.9372   34.0020 C   0  0  0  0  0  0  0  0  0  0  0  0
   35.2381  -19.3566   35.4536 C   0  0  0  0  0  0  0  0  0  0  0  0
  8  9  1  0  0  0
  9 10  1  0  0  0
 10 11  1  0  0  0
 11 12  1  0  0  0
 12 13  1  0  0  0
 13  1  1  0  0  0
  1  2  2  0  0  0
  2  3  1  0  0  0
  3  4  2  0  0  0
  4  5  1  0  0  0
  4  6  1  0  0  0
  6  7  2  0  0  0
 13  9  1  0  0  0
  7  1  1  0  0  0
M  END
> <minimizedAffinity>
-4.15694

> <CNNscore>
0.7988905311

> <CNNaffinity>
3.5268249512

> <CNN_VS>
2.8175470829

> <CNNaffinity_variance>
0.5060119629

$$$$
[H]c1c([H])c([C@]2([H])N(C([H])([H])[H])C([H])([H])C([H])([H])C2([H])[H])c([H])c([H])c1F


 13 14  0  0  0  0  0  0  0  0999 V2000
   33.7023  -20.2194   37.0633 C   0  0  0  0  0  0  0  0  0  0  0  0
   34.8769  -19.4519   37.0803 C   0  0  0  0  0  0  0  0  0  0  0  0
   35.8567  -19.6778   38.0103 C   0  0  0  0  0  0  0  0  0  0  0  0
   35.7234  -20.6624   38.9578 C   0  0  0  0  0  0  0  0  0  0  0  0
   36.6933  -20.9021   39.8955 F   0  0  0  0  0  0  0  0  0  0  0  0
   34.5743  -21.4073   38.9354 C   0  0  0  0  0  0  0  0  0  0  0  0
   33.5626  -21.1983   38.0007 C   0  0  0  0  0  0  0  0  0  0  0  0
   32.3030  -21.9268   34.6986 C   0  0  0  0  0  0  0  0  0  0  0  0
   32.8272  -20.5775   34.7792 N   0  0  0  0  0  0  0  0  0  0  0  0
   32.1075  -19.7131   33.8389 C   0  0  0  0  0  0  0  0  0  0  0  0
   32.7102  -18.3692   34.1419 C   0  0  0  0  0  0  0  0  0  0  0  0
   32.9625  -18.4621   35.6174 C   0  0  0  0  0  0  0  0  0  0  0  0
   32.6810  -19.9252   36.0255 C   0  0  0  0  0  0  0  0  0  0  0  0
  8  9  1  0  0  0
  9 10  1  0  0  0
 10 11  1  0  0  0
 11 12  1  0  0  0
 12 13  1  0  0  0
 13  1  1  0  0  0
  1  2  2  0  0  0
  2  3  1  0  0  0
  3  4  2  0  0  0
  4  5  1  0  0  0
  4  6  1  0  0  0
  6  7  2  0  0  0
 13  9  1  0  0  0
  7  1  1  0  0  0
M  END
> <minimizedAffinity>
-3.57158

> <CNNscore>
0.7924725413

> <CNNaffinity>
3.3460288048

> <CNN_VS>
2.6516358852

> <CNNaffinity_variance>
0.2370045483

$$$$
[H]c1c([H])c([C@]2([H])N(C([H])([H])[H])C([H])([H])C([H])([H])C2([H])[H])c([H])c([H])c1F


 13 14  0  0  0  0  0  0  0  0999 V2000
   33.1139  -19.4718   35.9799 C   0  0  0  0  0  0  0  0  0  0  0  0
   32.1895  -18.7064   35.2529 C   0  0  0  0  0  0  0  0  0  0  0  0
   30.9158  -19.1583   35.0304 C   0  0  0  0  0  0  0  0  0  0  0  0
   30.4999  -20.3754   35.5105 C   0  0  0  0  0  0  0  0  0  0  0  0
   29.2296  -20.8431   35.2973 F   0  0  0  0  0  0  0  0  0  0  0  0
   31.4074  -21.1172   36.2189 C   0  0  0  0  0  0  0  0  0  0  0  0
   32.7085  -20.6811   36.4594 C   0  0  0  0  0  0  0  0  0  0  0  0
   35.6043  -18.7651   34.0400 C   0  0  0  0  0  0  0  0  0  0  0  0
   35.5000  -19.4027   35.3379 N   0  0  0  0  0  0  0  0  0  0  0  0
   36.7324  -19.1743   36.0986 C   0  0  0  0  0  0  0  0  0  0  0  0
   36.3936  -19.8070   37.4199 C   0  0  0  0  0  0  0  0  0  0  0  0
   34.9268  -19.5180   37.5411 C   0  0  0  0  0  0  0  0  0  0  0  0
   34.4779  -18.9216   36.1886 C   0  0  0  0  0  0  0  0  0  0  0  0
  8  9  1  0  0  0
  9 10  1  0  0  0
 10 11  1  0  0  0
 11 12  1  0  0  0
 12 13  1  0  0  0
 13  1  1  0  0  0
  1  2  2  0  0  0
  2  3  1  0  0  0
  3  4  2  0  0  0
  4  5  1  0  0  0
  4  6  1  0  0  0
  6  7  2  0  0  0
 13  9  1  0  0  0
  7  1  1  0  0  0
M  END
> <minimizedAffinity>
-3.97630

> <CNNscore>
0.7725431323

> <CNNaffinity>
3.4063541889

> <CNN_VS>
2.6315555573

> <CNNaffinity_variance>
0.4310204387

$$$$
[H]c1c([H])c([C@]2([H])N(C([H])([H])[H])C([H])([H])C([H])([H])C2([H])[H])c([H])c([H])c1F


 13 14  0  0  0  0  0  0  0  0999 V2000
   34.4354  -16.5581   35.6182 C   0  0  0  0  0  0  0  0  0  0  0  0
   35.6560  -16.8299   36.2548 C   0  0  0  0  0  0  0  0  0  0  0  0
   36.2245  -15.9249   37.1114 C   0  0  0  0  0  0  0  0  0  0  0  0
   35.6202  -14.7210   37.3764 C   0  0  0  0  0  0  0  0  0  0  0  0
   36.1747  -13.8040   38.2304 F   0  0  0  0  0  0  0  0  0  0  0  0
   34.4294  -14.4623   36.7513 C   0  0  0  0  0  0  0  0  0  0  0  0
   33.8297  -15.3651   35.8759 C   0  0  0  0  0  0  0  0  0  0  0  0
   31.9650  -18.6403   35.7808 C   0  0  0  0  0  0  0  0  0  0  0  0
   33.3290  -18.7458   35.3008 N   0  0  0  0  0  0  0  0  0  0  0  0
   33.4009  -19.7565   34.2413 C   0  0  0  0  0  0  0  0  0  0  0  0
   34.8379  -19.6439   33.8132 C   0  0  0  0  0  0  0  0  0  0  0  0
   35.1059  -18.1789   33.9904 C   0  0  0  0  0  0  0  0  0  0  0  0
   33.8715  -17.5841   34.7039 C   0  0  0  0  0  0  0  0  0  0  0  0
  8  9  1  0  0  0
  9 10  1  0  0  0
 10 11  1  0  0  0
 11 12  1  0  0  0
 12 13  1  0  0  0
 13  1  1  0  0  0
  1  2  2  0  0  0
  2  3  1  0  0  0
  3  4  2  0  0  0
  4  5  1  0  0  0
  4  6  1  0  0  0
  6  7  2  0  0  0
 13  9  1  0  0  0
  7  1  1  0  0  0
M  END
> <minimizedAffinity>
-4.71706

> <CNNscore>
0.7655313611

> <CNNaffinity>
3.7126069069

> <CNN_VS>
2.8421170712

> <CNNaffinity_variance>
0.4730832577

$$$$
[H]c1c([H])c([C@]2([H])N(C([H])([H])[H])C([H])([H])C([H])([H])C2([H])[H])c([H])c([H])c1F


 13 14  0  0  0  0  0  0  0  0999 V2000
   31.2268  -21.3135   35.2305 C   0  0  0  0  0  0  0  0  0  0  0  0
   30.0739  -20.5816   35.5532 C   0  0  0  0  0  0  0  0  0  0  0  0
   28.8736  -21.2074   35.7624 C   0  0  0  0  0  0  0  0  0  0  0  0
   28.7571  -22.5717   35.6633 C   0  0  0  0  0  0  0  0  0  0  0  0
   27.5645  -23.2142   35.8692 F   0  0  0  0  0  0  0  0  0  0  0  0
   29.8863  -23.2796   35.3477 C   0  0  0  0  0  0  0  0  0  0  0  0
   31.1190  -22.6681   35.1300 C   0  0  0  0  0  0  0  0  0  0  0  0
   33.6867  -20.4273   37.1354 C   0  0  0  0  0  0  0  0  0  0  0  0
   32.9475  -19.7571   36.0835 N   0  0  0  0  0  0  0  0  0  0  0  0
   33.8091  -18.7664   35.4312 C   0  0  0  0  0  0  0  0  0  0  0  0
   32.9155  -18.2673   34.3297 C   0  0  0  0  0  0  0  0  0  0  0  0
   32.1444  -19.5012   33.9657 C   0  0  0  0  0  0  0  0  0  0  0  0
   32.4976  -20.5736   35.0201 C   0  0  0  0  0  0  0  0  0  0  0  0
  8  9  1  0  0  0
  9 10  1  0  0  0
 10 11  1  0  0  0
 11 12  1  0  0  0
 12 13  1  0  0  0
 13  1  1  0  0  0
  1  2  2  0  0  0
  2  3  1  0  0  0
  3  4  2  0  0  0
  4  5  1  0  0  0
  4  6  1  0  0  0
  6  7  2  0  0  0
 13  9  1  0  0  0
  7  1  1  0  0  0
M  END
> <minimizedAffinity>
-4.14355

> <CNNscore>
0.7408996224

> <CNNaffinity>
3.3790555000

> <CNN_VS>
2.5035409927

> <CNNaffinity_variance>
0.4416597486

$$$$
[H]c1c([H])c([C@]2([H])N(C([H])([H])[H])C([H])([H])C([H])([H])C2([H])[H])c([H])c([H])c1F


 13 14  0  0  0  0  0  0  0  0999 V2000
   34.9387  -16.0673   36.2646 C   0  0  0  0  0  0  0  0  0  0  0  0
   33.8287  -15.2758   35.9323 C   0  0  0  0  0  0  0  0  0  0  0  0
   33.7401  -13.9723   36.3436 C   0  0  0  0  0  0  0  0  0  0  0  0
   34.7338  -13.3955   37.0950 C   0  0  0  0  0  0  0  0  0  0  0  0
   34.6617  -12.0932   37.5150 F   0  0  0  0  0  0  0  0  0  0  0  0
   35.8140  -14.1739   37.4159 C   0  0  0  0  0  0  0  0  0  0  0  0
   35.9289  -15.5018   37.0105 C   0  0  0  0  0  0  0  0  0  0  0  0
   37.0434  -17.8373   34.5609 C   0  0  0  0  0  0  0  0  0  0  0  0
   35.5996  -17.7074   34.5371 N   0  0  0  0  0  0  0  0  0  0  0  0
   35.0005  -18.9612   34.0697 C   0  0  0  0  0  0  0  0  0  0  0  0
   33.5330  -18.6668   34.2131 C   0  0  0  0  0  0  0  0  0  0  0  0
   33.5044  -17.7918   35.4309 C   0  0  0  0  0  0  0  0  0  0  0  0
   34.9741  -17.4723   35.7835 C   0  0  0  0  0  0  0  0  0  0  0  0
  8  9  1  0  0  0
  9 10  1  0  0  0
 10 11  1  0  0  0
 11 12  1  0  0  0
 12 13  1  0  0  0
 13  1  1  0  0  0
  1  2  2  0  0  0
  2  3  1  0  0  0
  3  4  2  0  0  0
  4  5  1  0  0  0
  4  6  1  0  0  0
  6  7  2  0  0  0
 13  9  1  0  0  0
  7  1  1  0  0  0
M  END
> <minimizedAffinity>
-5.71782

> <CNNscore>
0.7305745482

> <CNNaffinity>
3.6724064350

> <CNN_VS>
2.6829667091

> <CNNaffinity_variance>
0.7062675953

$$$$
[H]c1c([H])c([C@]2([H])N(C([H])([H])[H])C([H])([H])C([H])([H])C2([H])[H])c([H])c([H])c1F


 13 14  0  0  0  0  0  0  0  0999 V2000
   33.3945  -18.7634   35.0372 C   0  0  0  0  0  0  0  0  0  0  0  0
   32.3472  -18.8684   34.1094 C   0  0  0  0  0  0  0  0  0  0  0  0
   31.3069  -19.7363   34.3113 C   0  0  0  0  0  0  0  0  0  0  0  0
   31.2533  -20.5333   35.4279 C   0  0  0  0  0  0  0  0  0  0  0  0
   30.2205  -21.4070   35.6458 F   0  0  0  0  0  0  0  0  0  0  0  0
   32.2791  -20.4259   36.3290 C   0  0  0  0  0  0  0  0  0  0  0  0
   33.3485  -19.5515   36.1478 C   0  0  0  0  0  0  0  0  0  0  0  0
   36.5231  -19.0361   34.2609 C   0  0  0  0  0  0  0  0  0  0  0  0
   35.7916  -18.1737   35.1681 N   0  0  0  0  0  0  0  0  0  0  0  0
   36.4995  -16.8980   35.3123 C   0  0  0  0  0  0  0  0  0  0  0  0
   35.5519  -16.1236   36.1860 C   0  0  0  0  0  0  0  0  0  0  0  0
   34.2158  -16.6227   35.7219 C   0  0  0  0  0  0  0  0  0  0  0  0
   34.4904  -17.7996   34.7597 C   0  0  0  0  0  0  0  0  0  0  0  0
  8  9  1  0  0  0
  9 10  1  0  0  0
 10 11  1  0  0  0
 11 12  1  0  0  0
 12 13  1  0  0  0
 13  1  1  0  0  0
  1  2  2  0  0  0
  2  3  1  0  0  0
  3  4  2  0  0  0
  4  5  1  0  0  0
  4  6  1  0  0  0
  6  7  2  0  0  0
 13  9  1  0  0  0
  7  1  1  0  0  0
M  END
> <minimizedAffinity>
-4.25064

> <CNNscore>
0.7278946638

> <CNNaffinity>
3.5422751904

> <CNN_VS>
2.5784032345

> <CNNaffinity_variance>
0.6231988668

$$$$
[H]c1c([H])c([C@]2([H])N(C([H])([H])[H])C([H])([H])C([H])([H])C2([H])[H])c([H])c([H])c1F


 13 14  0  0  0  0  0  0  0  0999 V2000
   33.2102  -20.3106   36.1519 C   0  0  0  0  0  0  0  0  0  0  0  0
   32.8453  -18.9791   35.9015 C   0  0  0  0  0  0  0  0  0  0  0  0
   31.7068  -18.6765   35.2026 C   0  0  0  0  0  0  0  0  0  0  0  0
   30.8840  -19.6652   34.7229 C   0  0  0  0  0  0  0  0  0  0  0  0
   29.7415  -19.3807   34.0218 F   0  0  0  0  0  0  0  0  0  0  0  0
   31.2464  -20.9625   34.9707 C   0  0  0  0  0  0  0  0  0  0  0  0
   32.3986  -21.2975   35.6787 C   0  0  0  0  0  0  0  0  0  0  0  0
   33.8657  -21.4189   39.1196 C   0  0  0  0  0  0  0  0  0  0  0  0
   34.4076  -20.3419   38.3143 N   0  0  0  0  0  0  0  0  0  0  0  0
   35.8066  -20.1070   38.6843 C   0  0  0  0  0  0  0  0  0  0  0  0
   36.2092  -19.0531   37.6903 C   0  0  0  0  0  0  0  0  0  0  0  0
   35.4164  -19.4433   36.4784 C   0  0  0  0  0  0  0  0  0  0  0  0
   34.4554  -20.5696   36.9194 C   0  0  0  0  0  0  0  0  0  0  0  0
  8  9  1  0  0  0
  9 10  1  0  0  0
 10 11  1  0  0  0
 11 12  1  0  0  0
 12 13  1  0  0  0
 13  1  1  0  0  0
  1  2  2  0  0  0
  2  3  1  0  0  0
  3  4  2  0  0  0
  4  5  1  0  0  0
  4  6  1  0  0  0
  6  7  2  0  0  0
 13  9  1  0  0  0
  7  1  1  0  0  0
M  END
> <minimizedAffinity>
-3.58737

> <CNNscore>
0.7253941894

> <CNNaffinity>
3.2052574158

> <CNN_VS>
2.3250751495

> <CNNaffinity_variance>
0.3987098634

$$$$
[H]c1c([H])c(N([H])C(=O)N([H])C2([H])C([H])([H])C([H])([H])N(C(=O)c3c([H])c([H])c(C([H])([H])C([H])([H])C([H])([H])[H])c([H])c3[H])C([H])([H])C2([H])[H])c([H])c([H])c1OC(F)(F)F


 34 36  0  0  0  0  0  0  0  0999 V2000
   33.7445  -17.9010   35.3205 C   0  0  0  0  0  0  0  0  0  0  0  0
   33.4920  -16.6590   35.6357 O   0  0  0  0  0  0  0  0  0  0  0  0
   35.0723  -18.1447   35.0087 N   0  0  0  0  0  0  0  0  0  0  0  0
   35.6645  -19.3668   34.5903 C   0  0  0  0  0  0  0  0  0  0  0  0
   37.0802  -19.1481   34.0342 C   0  0  0  0  0  0  0  0  0  0  0  0
   37.9343  -18.5515   35.1064 C   0  0  0  0  0  0  0  0  0  0  0  0
   37.1536  -17.6198   36.0142 C   0  0  0  0  0  0  0  0  0  0  0  0
   36.0561  -17.0118   35.1310 C   0  0  0  0  0  0  0  0  0  0  0  0
   30.4048  -20.5548   35.6028 C   0  0  0  0  0  0  0  0  0  0  0  0
   30.3143  -19.4440   34.8049 C   0  0  0  0  0  0  0  0  0  0  0  0
   31.4139  -18.5824   34.7017 C   0  0  0  0  0  0  0  0  0  0  0  0
   32.6009  -18.7716   35.3560 C   0  0  0  0  0  0  0  0  0  0  0  0
   32.6359  -19.9334   36.1628 C   0  0  0  0  0  0  0  0  0  0  0  0
   31.5651  -20.7824   36.2694 C   0  0  0  0  0  0  0  0  0  0  0  0
   29.2154  -21.4274   35.6728 C   0  0  0  0  0  0  0  0  0  0  0  0
   27.7775  -20.8419   37.6569 C   0  0  0  0  0  0  0  0  0  0  0  0
   28.7872  -21.7911   37.0515 C   0  0  0  0  0  0  0  0  0  0  0  0
   38.6376  -19.5515   35.8481 N   0  0  0  0  0  0  0  0  0  0  0  0
   38.1645  -19.9064   37.1710 C   0  0  0  0  0  0  0  0  0  0  0  0
   37.1395  -19.3071   37.6018 O   0  0  0  0  0  0  0  0  0  0  0  0
   38.8378  -20.8789   37.9220 N   0  0  0  0  0  0  0  0  0  0  0  0
   39.4740  -20.0322   35.4725 H   0  0  0  0  0  0  0  0  0  0  0  0
   39.7017  -21.3292   37.4877 H   0  0  0  0  0  0  0  0  0  0  0  0
   38.4551  -21.3028   39.1968 C   0  0  0  0  0  0  0  0  0  0  0  0
   37.2333  -21.8477   39.4895 C   0  0  0  0  0  0  0  0  0  0  0  0
   36.9166  -22.2128   40.8042 C   0  0  0  0  0  0  0  0  0  0  0  0
   37.8115  -22.0395   41.8330 C   0  0  0  0  0  0  0  0  0  0  0  0
   39.0314  -21.4878   41.4916 C   0  0  0  0  0  0  0  0  0  0  0  0
   39.3819  -21.1205   40.2428 C   0  0  0  0  0  0  0  0  0  0  0  0
   37.4865  -22.4028   43.1227 O   0  0  0  0  0  0  0  0  0  0  0  0
   36.8885  -21.4559   43.9681 C   0  0  0  0  0  0  0  0  0  0  0  0
   37.2069  -21.8311   45.2752 F   0  0  0  0  0  0  0  0  0  0  0  0
   35.4998  -21.4744   43.8495 F   0  0  0  0  0  0  0  0  0  0  0  0
   37.3189  -20.1698   43.7780 F   0  0  0  0  0  0  0  0  0  0  0  0
 16 17  1  0  0  0
 17 15  1  0  0  0
 15  9  1  0  0  0
  9 10  2  0  0  0
 10 11  1  0  0  0
 11 12  2  0  0  0
 12 13  1  0  0  0
 13 14  2  0  0  0
 12  1  1  0  0  0
  1  2  2  0  0  0
  1  3  1  0  0  0
  3  4  1  0  0  0
  4  5  1  0  0  0
  5  6  1  0  0  0
  6  7  1  0  0  0
  7  8  1  0  0  0
  6 18  1  0  0  0
 18 19  1  0  0  0
 19 20  2  0  0  0
 19 21  1  0  0  0
 21 24  1  0  0  0
 24 25  2  0  0  0
 25 26  1  0  0  0
 26 27  2  0  0  0
 27 30  1  0  0  0
 30 31  1  0  0  0
 31 32  1  0  0  0
 31 33  1  0  0  0
 31 34  1  0  0  0
 27 28  1  0  0  0
 28 29  2  0  0  0
 14  9  1  0  0  0
  8  3  1  0  0  0
 29 24  1  0  0  0
 18 22  1  0  0  0
 21 23  1  0  0  0
M  END
> <minimizedAffinity>
-5.66686

> <CNNscore>
0.4261314571

> <CNNaffinity>
4.9692296982

> <CNN_VS>
2.1175451279

> <CNNaffinity_variance>
0.2183717936

$$$$
[H]c1c([H])c(N([H])C(=O)N([H])C2([H])C([H])([H])C([H])([H])N(C(=O)c3c([H])c([H])c(C([H])([H])C([H])([H])C([H])([H])[H])c([H])c3[H])C([H])([H])C2([H])[H])c([H])c([H])c1OC(F)(F)F


 34 36  0  0  0  0  0  0  0  0999 V2000
   33.9456  -18.0420   35.5164 C   0  0  0  0  0  0  0  0  0  0  0  0
   33.7560  -16.8423   35.9967 O   0  0  0  0  0  0  0  0  0  0  0  0
   35.2603  -18.3094   35.1703 N   0  0  0  0  0  0  0  0  0  0  0  0
   35.7904  -19.4928   34.5892 C   0  0  0  0  0  0  0  0  0  0  0  0
   37.2175  -19.2743   34.0630 C   0  0  0  0  0  0  0  0  0  0  0  0
   38.0972  -18.8720   35.2028 C   0  0  0  0  0  0  0  0  0  0  0  0
   37.3621  -18.0320   36.2303 C   0  0  0  0  0  0  0  0  0  0  0  0
   36.3005  -17.2552   35.4406 C   0  0  0  0  0  0  0  0  0  0  0  0
   30.4544  -20.5087   35.4670 C   0  0  0  0  0  0  0  0  0  0  0  0
   30.5098  -19.4070   34.6535 C   0  0  0  0  0  0  0  0  0  0  0  0
   31.6597  -18.6071   34.6597 C   0  0  0  0  0  0  0  0  0  0  0  0
   32.7587  -18.8495   35.4383 C   0  0  0  0  0  0  0  0  0  0  0  0
   32.6445  -19.9990   36.2552 C   0  0  0  0  0  0  0  0  0  0  0  0
   31.5235  -20.7878   36.2554 C   0  0  0  0  0  0  0  0  0  0  0  0
   29.2183  -21.3154   35.4184 C   0  0  0  0  0  0  0  0  0  0  0  0
   27.8993  -20.7025   37.4754 C   0  0  0  0  0  0  0  0  0  0  0  0
   28.7051  -21.7536   36.7454 C   0  0  0  0  0  0  0  0  0  0  0  0
   38.7456  -19.9975   35.8009 N   0  0  0  0  0  0  0  0  0  0  0  0
   39.8359  -19.7684   36.7275 C   0  0  0  0  0  0  0  0  0  0  0  0
   40.1564  -18.5695   36.9629 O   0  0  0  0  0  0  0  0  0  0  0  0
   40.4926  -20.8530   37.3237 N   0  0  0  0  0  0  0  0  0  0  0  0
   38.4627  -20.9719   35.5954 H   0  0  0  0  0  0  0  0  0  0  0  0
   40.1657  -21.8340   37.0622 H   0  0  0  0  0  0  0  0  0  0  0  0
   41.5416  -20.7398   38.2392 C   0  0  0  0  0  0  0  0  0  0  0  0
   42.8399  -21.0772   37.9639 C   0  0  0  0  0  0  0  0  0  0  0  0
   43.8259  -20.9676   38.9529 C   0  0  0  0  0  0  0  0  0  0  0  0
   43.5271  -20.5218   40.2183 C   0  0  0  0  0  0  0  0  0  0  0  0
   42.2057  -20.1918   40.4508 C   0  0  0  0  0  0  0  0  0  0  0  0
   41.2224  -20.2807   39.5329 C   0  0  0  0  0  0  0  0  0  0  0  0
   44.5072  -20.4192   41.1825 O   0  0  0  0  0  0  0  0  0  0  0  0
   44.5677  -21.3844   42.1992 C   0  0  0  0  0  0  0  0  0  0  0  0
   45.7456  -22.1063   41.9941 F   0  0  0  0  0  0  0  0  0  0  0  0
   43.5029  -22.2798   42.1134 F   0  0  0  0  0  0  0  0  0  0  0  0
   44.5980  -20.8731   43.4693 F   0  0  0  0  0  0  0  0  0  0  0  0
 16 17  1  0  0  0
 17 15  1  0  0  0
 15  9  1  0  0  0
  9 10  2  0  0  0
 10 11  1  0  0  0
 11 12  2  0  0  0
 12 13  1  0  0  0
 13 14  2  0  0  0
 12  1  1  0  0  0
  1  2  2  0  0  0
  1  3  1  0  0  0
  3  4  1  0  0  0
  4  5  1  0  0  0
  5  6  1  0  0  0
  6  7  1  0  0  0
  7  8  1  0  0  0
  6 18  1  0  0  0
 18 19  1  0  0  0
 19 20  2  0  0  0
 19 21  1  0  0  0
 21 24  1  0  0  0
 24 25  2  0  0  0
 25 26  1  0  0  0
 26 27  2  0  0  0
 27 30  1  0  0  0
 30 31  1  0  0  0
 31 32  1  0  0  0
 31 33  1  0  0  0
 31 34  1  0  0  0
 27 28  1  0  0  0
 28 29  2  0  0  0
 14  9  1  0  0  0
  8  3  1  0  0  0
 29 24  1  0  0  0
 18 22  1  0  0  0
 21 23  1  0  0  0
M  END
> <minimizedAffinity>
-5.63041

> <CNNscore>
0.4232432544

> <CNNaffinity>
4.7319192886

> <CNN_VS>
2.0027530193

> <CNNaffinity_variance>
0.0657820702

$$$$
[H]c1c([H])c(N([H])C(=O)N([H])C2([H])C([H])([H])C([H])([H])N(C(=O)c3c([H])c([H])c(C([H])([H])C([H])([H])C([H])([H])[H])c([H])c3[H])C([H])([H])C2([H])[H])c([H])c([H])c1OC(F)(F)F


 34 36  0  0  0  0  0  0  0  0999 V2000
   35.9756  -16.7773   35.9320 C   0  0  0  0  0  0  0  0  0  0  0  0
   36.6643  -16.6509   34.8295 O   0  0  0  0  0  0  0  0  0  0  0  0
   35.9557  -18.0663   36.4396 N   0  0  0  0  0  0  0  0  0  0  0  0
   35.2726  -18.5450   37.5901 C   0  0  0  0  0  0  0  0  0  0  0  0
   35.2369  -20.0807   37.6285 C   0  0  0  0  0  0  0  0  0  0  0  0
   36.6396  -20.5966   37.6625 C   0  0  0  0  0  0  0  0  0  0  0  0
   37.5949  -19.7230   36.8714 C   0  0  0  0  0  0  0  0  0  0  0  0
   36.7572  -19.1267   35.7327 C   0  0  0  0  0  0  0  0  0  0  0  0
   34.0043  -13.2348   37.2889 C   0  0  0  0  0  0  0  0  0  0  0  0
   35.2476  -13.5408   37.7780 C   0  0  0  0  0  0  0  0  0  0  0  0
   35.8990  -14.6941   37.3224 C   0  0  0  0  0  0  0  0  0  0  0  0
   35.3722  -15.5604   36.4033 C   0  0  0  0  0  0  0  0  0  0  0  0
   34.0890  -15.1930   35.9340 C   0  0  0  0  0  0  0  0  0  0  0  0
   33.4443  -14.0663   36.3736 C   0  0  0  0  0  0  0  0  0  0  0  0
   33.3657  -12.0069   37.8041 C   0  0  0  0  0  0  0  0  0  0  0  0
   33.1352   -9.5149   37.5152 C   0  0  0  0  0  0  0  0  0  0  0  0
   34.0140  -10.7376   37.3743 C   0  0  0  0  0  0  0  0  0  0  0  0
   37.0980  -20.8113   38.9999 N   0  0  0  0  0  0  0  0  0  0  0  0
   38.4906  -21.1471   39.2189 C   0  0  0  0  0  0  0  0  0  0  0  0
   39.2354  -21.2295   38.2021 O   0  0  0  0  0  0  0  0  0  0  0  0
   38.9654  -21.3681   40.5184 N   0  0  0  0  0  0  0  0  0  0  0  0
   36.4693  -20.7344   39.8188 H   0  0  0  0  0  0  0  0  0  0  0  0
   38.2671  -21.2886   41.3207 H   0  0  0  0  0  0  0  0  0  0  0  0
   40.2890  -21.6809   40.8372 C   0  0  0  0  0  0  0  0  0  0  0  0
   41.2724  -20.7479   41.0315 C   0  0  0  0  0  0  0  0  0  0  0  0
   42.5848  -21.1492   41.3123 C   0  0  0  0  0  0  0  0  0  0  0  0
   42.9258  -22.4777   41.4022 C   0  0  0  0  0  0  0  0  0  0  0  0
   41.9020  -23.3834   41.2002 C   0  0  0  0  0  0  0  0  0  0  0  0
   40.6256  -23.0465   40.9273 C   0  0  0  0  0  0  0  0  0  0  0  0
   44.2216  -22.8588   41.6786 O   0  0  0  0  0  0  0  0  0  0  0  0
   44.7061  -22.7291   42.9891 C   0  0  0  0  0  0  0  0  0  0  0  0
   43.6293  -22.9893   43.8398 F   0  0  0  0  0  0  0  0  0  0  0  0
   45.1411  -21.4295   43.2435 F   0  0  0  0  0  0  0  0  0  0  0  0
   45.7198  -23.5922   43.3099 F   0  0  0  0  0  0  0  0  0  0  0  0
 16 17  1  0  0  0
 17 15  1  0  0  0
 15  9  1  0  0  0
  9 10  2  0  0  0
 10 11  1  0  0  0
 11 12  2  0  0  0
 12 13  1  0  0  0
 13 14  2  0  0  0
 12  1  1  0  0  0
  1  2  2  0  0  0
  1  3  1  0  0  0
  3  4  1  0  0  0
  4  5  1  0  0  0
  5  6  1  0  0  0
  6  7  1  0  0  0
  7  8  1  0  0  0
  6 18  1  0  0  0
 18 19  1  0  0  0
 19 20  2  0  0  0
 19 21  1  0  0  0
 21 24  1  0  0  0
 24 25  2  0  0  0
 25 26  1  0  0  0
 26 27  2  0  0  0
 27 30  1  0  0  0
 30 31  1  0  0  0
 31 32  1  0  0  0
 31 33  1  0  0  0
 31 34  1  0  0  0
 27 28  1  0  0  0
 28 29  2  0  0  0
 14  9  1  0  0  0
  8  3  1  0  0  0
 29 24  1  0  0  0
 18 22  1  0  0  0
 21 23  1  0  0  0
M  END
> <minimizedAffinity>
-5.75478

> <CNNscore>
0.4168324172

> <CNNaffinity>
5.0752954483

> <CNN_VS>
2.1155476570

> <CNNaffinity_variance>
0.2088689357

$$$$
[H]c1c([H])c(N([H])C(=O)N([H])C2([H])C([H])([H])C([H])([H])N(C(=O)c3c([H])c([H])c(C([H])([H])C([H])([H])C([H])([H])[H])c([H])c3[H])C([H])([H])C2([H])[H])c([H])c([H])c1OC(F)(F)F


 34 36  0  0  0  0  0  0  0  0999 V2000
   41.0312  -20.4221   38.1210 C   0  0  0  0  0  0  0  0  0  0  0  0
   41.5382  -21.0518   39.1468 O   0  0  0  0  0  0  0  0  0  0  0  0
   39.8120  -20.9253   37.6968 N   0  0  0  0  0  0  0  0  0  0  0  0
   39.0225  -20.4977   36.5954 C   0  0  0  0  0  0  0  0  0  0  0  0
   37.9148  -21.5105   36.2665 C   0  0  0  0  0  0  0  0  0  0  0  0
   37.0240  -21.6575   37.4581 C   0  0  0  0  0  0  0  0  0  0  0  0
   37.7824  -21.5230   38.7652 C   0  0  0  0  0  0  0  0  0  0  0  0
   39.1927  -22.0540   38.4771 C   0  0  0  0  0  0  0  0  0  0  0  0
   43.5487  -17.2272   36.8051 C   0  0  0  0  0  0  0  0  0  0  0  0
   42.6662  -17.7939   35.9227 C   0  0  0  0  0  0  0  0  0  0  0  0
   41.8316  -18.8312   36.3582 C   0  0  0  0  0  0  0  0  0  0  0  0
   41.8332  -19.3340   37.6310 C   0  0  0  0  0  0  0  0  0  0  0  0
   42.7626  -18.7102   38.4964 C   0  0  0  0  0  0  0  0  0  0  0  0
   43.5828  -17.6944   38.0791 C   0  0  0  0  0  0  0  0  0  0  0  0
   44.4027  -16.1375   36.2911 C   0  0  0  0  0  0  0  0  0  0  0  0
   44.9630  -14.9171   34.1595 C   0  0  0  0  0  0  0  0  0  0  0  0
   44.7554  -16.2470   34.8488 C   0  0  0  0  0  0  0  0  0  0  0  0
   35.9027  -20.7721   37.3998 N   0  0  0  0  0  0  0  0  0  0  0  0
   34.6025  -21.3086   37.0508 C   0  0  0  0  0  0  0  0  0  0  0  0
   34.5287  -22.5478   36.8175 O   0  0  0  0  0  0  0  0  0  0  0  0
   33.4878  -20.4628   36.9809 N   0  0  0  0  0  0  0  0  0  0  0  0
   35.9868  -19.7597   37.5990 H   0  0  0  0  0  0  0  0  0  0  0  0
   33.6392  -19.4265   37.1829 H   0  0  0  0  0  0  0  0  0  0  0  0
   32.1920  -20.8818   36.6696 C   0  0  0  0  0  0  0  0  0  0  0  0
   31.4293  -20.3385   35.6703 C   0  0  0  0  0  0  0  0  0  0  0  0
   30.1232  -20.7934   35.4484 C   0  0  0  0  0  0  0  0  0  0  0  0
   29.5696  -21.7897   36.2167 C   0  0  0  0  0  0  0  0  0  0  0  0
   30.3752  -22.3091   37.2118 C   0  0  0  0  0  0  0  0  0  0  0  0
   31.6361  -21.9046   37.4640 C   0  0  0  0  0  0  0  0  0  0  0  0
   28.2825  -22.2276   35.9878 O   0  0  0  0  0  0  0  0  0  0  0  0
   28.0402  -23.6052   35.8759 C   0  0  0  0  0  0  0  0  0  0  0  0
   26.7826  -23.7421   35.2841 F   0  0  0  0  0  0  0  0  0  0  0  0
   27.9865  -24.2148   37.1283 F   0  0  0  0  0  0  0  0  0  0  0  0
   28.9483  -24.2829   35.1067 F   0  0  0  0  0  0  0  0  0  0  0  0
 16 17  1  0  0  0
 17 15  1  0  0  0
 15  9  1  0  0  0
  9 10  2  0  0  0
 10 11  1  0  0  0
 11 12  2  0  0  0
 12 13  1  0  0  0
 13 14  2  0  0  0
 12  1  1  0  0  0
  1  2  2  0  0  0
  1  3  1  0  0  0
  3  4  1  0  0  0
  4  5  1  0  0  0
  5  6  1  0  0  0
  6  7  1  0  0  0
  7  8  1  0  0  0
  6 18  1  0  0  0
 18 19  1  0  0  0
 19 20  2  0  0  0
 19 21  1  0  0  0
 21 24  1  0  0  0
 24 25  2  0  0  0
 25 26  1  0  0  0
 26 27  2  0  0  0
 27 30  1  0  0  0
 30 31  1  0  0  0
 31 32  1  0  0  0
 31 33  1  0  0  0
 31 34  1  0  0  0
 27 28  1  0  0  0
 28 29  2  0  0  0
 14  9  1  0  0  0
  8  3  1  0  0  0
 29 24  1  0  0  0
 18 22  1  0  0  0
 21 23  1  0  0  0
M  END
> <minimizedAffinity>
-4.97474

> <CNNscore>
0.4031172395

> <CNNaffinity>
4.3242616653

> <CNN_VS>
1.7431844473

> <CNNaffinity_variance>
0.1564244479

$$$$
[H]c1c([H])c(N([H])C(=O)N([H])C2([H])C([H])([H])C([H])([H])N(C(=O)c3c([H])c([H])c(C([H])([H])C([H])([H])C([H])([H])[H])c([H])c3[H])C([H])([H])C2([H])[H])c([H])c([H])c1OC(F)(F)F


 34 36  0  0  0  0  0  0  0  0999 V2000
   29.1344  -12.2465   38.6867 C   0  0  0  0  0  0  0  0  0  0  0  0
   28.1380  -12.1694   37.8458 O   0  0  0  0  0  0  0  0  0  0  0  0
   28.8659  -13.0113   39.8103 N   0  0  0  0  0  0  0  0  0  0  0  0
   29.7126  -13.2606   40.9239 C   0  0  0  0  0  0  0  0  0  0  0  0
   28.9368  -13.8793   42.0971 C   0  0  0  0  0  0  0  0  0  0  0  0
   28.3439  -15.1782   41.6538 C   0  0  0  0  0  0  0  0  0  0  0  0
   27.9310  -15.1554   40.1941 C   0  0  0  0  0  0  0  0  0  0  0  0
   27.5318  -13.7026   39.9039 C   0  0  0  0  0  0  0  0  0  0  0  0
   32.5343   -9.9319   37.5208 C   0  0  0  0  0  0  0  0  0  0  0  0
   32.7218  -11.1880   38.0362 C   0  0  0  0  0  0  0  0  0  0  0  0
   31.6067  -11.9515   38.4049 C   0  0  0  0  0  0  0  0  0  0  0  0
   30.3118  -11.5248   38.2868 C   0  0  0  0  0  0  0  0  0  0  0  0
   30.1804  -10.2229   37.7485 C   0  0  0  0  0  0  0  0  0  0  0  0
   31.2656   -9.4689   37.3846 C   0  0  0  0  0  0  0  0  0  0  0  0
   33.7456   -9.1733   37.1488 C   0  0  0  0  0  0  0  0  0  0  0  0
   35.6026   -9.3820   35.4592 C   0  0  0  0  0  0  0  0  0  0  0  0
   34.8662  -10.0020   36.6255 C   0  0  0  0  0  0  0  0  0  0  0  0
   29.2005  -16.2848   41.9474 N   0  0  0  0  0  0  0  0  0  0  0  0
   28.6231  -17.4892   42.5095 C   0  0  0  0  0  0  0  0  0  0  0  0
   27.3759  -17.4975   42.7090 O   0  0  0  0  0  0  0  0  0  0  0  0
   29.4401  -18.5866   42.8120 N   0  0  0  0  0  0  0  0  0  0  0  0
   30.2204  -16.2563   41.7717 H   0  0  0  0  0  0  0  0  0  0  0  0
   30.4854  -18.4927   42.6221 H   0  0  0  0  0  0  0  0  0  0  0  0
   28.9814  -19.7956   43.3405 C   0  0  0  0  0  0  0  0  0  0  0  0
   28.3356  -20.7567   42.6093 C   0  0  0  0  0  0  0  0  0  0  0  0
   27.8747  -21.9266   43.2265 C   0  0  0  0  0  0  0  0  0  0  0  0
   28.0539  -22.1475   44.5713 C   0  0  0  0  0  0  0  0  0  0  0  0
   28.7110  -21.1522   45.2689 C   0  0  0  0  0  0  0  0  0  0  0  0
   29.1719  -20.0104   44.7203 C   0  0  0  0  0  0  0  0  0  0  0  0
   27.5947  -23.3034   45.1662 O   0  0  0  0  0  0  0  0  0  0  0  0
   27.7213  -24.5207   44.4798 C   0  0  0  0  0  0  0  0  0  0  0  0
   28.9765  -24.5045   43.8676 F   0  0  0  0  0  0  0  0  0  0  0  0
   26.7626  -24.6393   43.4750 F   0  0  0  0  0  0  0  0  0  0  0  0
   27.6503  -25.6334   45.2750 F   0  0  0  0  0  0  0  0  0  0  0  0
 16 17  1  0  0  0
 17 15  1  0  0  0
 15  9  1  0  0  0
  9 10  2  0  0  0
 10 11  1  0  0  0
 11 12  2  0  0  0
 12 13  1  0  0  0
 13 14  2  0  0  0
 12  1  1  0  0  0
  1  2  2  0  0  0
  1  3  1  0  0  0
  3  4  1  0  0  0
  4  5  1  0  0  0
  5  6  1  0  0  0
  6  7  1  0  0  0
  7  8  1  0  0  0
  6 18  1  0  0  0
 18 19  1  0  0  0
 19 20  2  0  0  0
 19 21  1  0  0  0
 21 24  1  0  0  0
 24 25  2  0  0  0
 25 26  1  0  0  0
 26 27  2  0  0  0
 27 30  1  0  0  0
 30 31  1  0  0  0
 31 32  1  0  0  0
 31 33  1  0  0  0
 31 34  1  0  0  0
 27 28  1  0  0  0
 28 29  2  0  0  0
 14  9  1  0  0  0
  8  3  1  0  0  0
 29 24  1  0  0  0
 18 22  1  0  0  0
 21 23  1  0  0  0
M  END
> <minimizedAffinity>
-4.92436

> <CNNscore>
0.4020521343

> <CNNaffinity>
4.9394669533

> <CNN_VS>
1.9859232903

> <CNNaffinity_variance>
0.4699797034

$$$$
[H]c1c([H])c(N([H])C(=O)N([H])C2([H])C([H])([H])C([H])([H])N(C(=O)c3c([H])c([H])c(C([H])([H])C([H])([H])C([H])([H])[H])c([H])c3[H])C([H])([H])C2([H])[H])c([H])c([H])c1OC(F)(F)F


 34 36  0  0  0  0  0  0  0  0999 V2000
   35.2252  -15.8870   35.9414 C   0  0  0  0  0  0  0  0  0  0  0  0
   36.5282  -15.8084   35.9824 O   0  0  0  0  0  0  0  0  0  0  0  0
   34.7477  -17.1119   35.5042 N   0  0  0  0  0  0  0  0  0  0  0  0
   33.3968  -17.5072   35.3092 C   0  0  0  0  0  0  0  0  0  0  0  0
   33.3003  -18.8181   34.5133 C   0  0  0  0  0  0  0  0  0  0  0  0
   34.0041  -19.8973   35.2716 C   0  0  0  0  0  0  0  0  0  0  0  0
   35.2077  -19.3759   36.0338 C   0  0  0  0  0  0  0  0  0  0  0  0
   35.7416  -18.2017   35.2031 C   0  0  0  0  0  0  0  0  0  0  0  0
   33.3632  -12.2613   37.2315 C   0  0  0  0  0  0  0  0  0  0  0  0
   32.7640  -13.0134   36.2548 C   0  0  0  0  0  0  0  0  0  0  0  0
   33.3672  -14.2085   35.8425 C   0  0  0  0  0  0  0  0  0  0  0  0
   34.5407  -14.6920   36.3545 C   0  0  0  0  0  0  0  0  0  0  0  0
   35.1118  -13.8750   37.3586 C   0  0  0  0  0  0  0  0  0  0  0  0
   34.5284  -12.7045   37.7687 C   0  0  0  0  0  0  0  0  0  0  0  0
   32.6822  -11.0120   37.6269 C   0  0  0  0  0  0  0  0  0  0  0  0
   34.2555   -9.3432   36.5844 C   0  0  0  0  0  0  0  0  0  0  0  0
   33.5859   -9.8487   37.8426 C   0  0  0  0  0  0  0  0  0  0  0  0
   33.1112  -20.6245   36.1194 N   0  0  0  0  0  0  0  0  0  0  0  0
   33.6635  -21.4889   37.1431 C   0  0  0  0  0  0  0  0  0  0  0  0
   34.9217  -21.5510   37.2346 O   0  0  0  0  0  0  0  0  0  0  0  0
   32.8118  -22.2172   37.9840 N   0  0  0  0  0  0  0  0  0  0  0  0
   32.0824  -20.5546   36.0281 H   0  0  0  0  0  0  0  0  0  0  0  0
   31.7609  -22.1151   37.8327 H   0  0  0  0  0  0  0  0  0  0  0  0
   33.2419  -23.0636   39.0087 C   0  0  0  0  0  0  0  0  0  0  0  0
   33.3634  -22.6826   40.3184 C   0  0  0  0  0  0  0  0  0  0  0  0
   33.8383  -23.5855   41.2783 C   0  0  0  0  0  0  0  0  0  0  0  0
   34.1933  -24.8701   40.9421 C   0  0  0  0  0  0  0  0  0  0  0  0
   34.0534  -25.2111   39.6104 C   0  0  0  0  0  0  0  0  0  0  0  0
   33.6020  -24.3784   38.6512 C   0  0  0  0  0  0  0  0  0  0  0  0
   34.6599  -25.7485   41.8968 O   0  0  0  0  0  0  0  0  0  0  0  0
   36.0413  -25.9712   42.0021 C   0  0  0  0  0  0  0  0  0  0  0  0
   36.6596  -24.7314   41.8257 F   0  0  0  0  0  0  0  0  0  0  0  0
   36.4975  -26.8183   40.9935 F   0  0  0  0  0  0  0  0  0  0  0  0
   36.4462  -26.4808   43.2070 F   0  0  0  0  0  0  0  0  0  0  0  0
 16 17  1  0  0  0
 17 15  1  0  0  0
 15  9  1  0  0  0
  9 10  2  0  0  0
 10 11  1  0  0  0
 11 12  2  0  0  0
 12 13  1  0  0  0
 13 14  2  0  0  0
 12  1  1  0  0  0
  1  2  2  0  0  0
  1  3  1  0  0  0
  3  4  1  0  0  0
  4  5  1  0  0  0
  5  6  1  0  0  0
  6  7  1  0  0  0
  7  8  1  0  0  0
  6 18  1  0  0  0
 18 19  1  0  0  0
 19 20  2  0  0  0
 19 21  1  0  0  0
 21 24  1  0  0  0
 24 25  2  0  0  0
 25 26  1  0  0  0
 26 27  2  0  0  0
 27 30  1  0  0  0
 30 31  1  0  0  0
 31 32  1  0  0  0
 31 33  1  0  0  0
 31 34  1  0  0  0
 27 28  1  0  0  0
 28 29  2  0  0  0
 14  9  1  0  0  0
  8  3  1  0  0  0
 29 24  1  0  0  0
 18 22  1  0  0  0
 21 23  1  0  0  0
M  END
> <minimizedAffinity>
-5.39763

> <CNNscore>
0.3990350962

> <CNNaffinity>
5.0401382446

> <CNN_VS>
2.0111920834

> <CNNaffinity_variance>
0.0300274547

$$$$
[H]c1c([H])c(N([H])C(=O)N([H])C2([H])C([H])([H])C([H])([H])N(C(=O)c3c([H])c([H])c(C([H])([H])C([H])([H])C([H])([H])[H])c([H])c3[H])C([H])([H])C2([H])[H])c([H])c([H])c1OC(F)(F)F


 34 36  0  0  0  0  0  0  0  0999 V2000
   28.8251  -11.0201   38.3000 C   0  0  0  0  0  0  0  0  0  0  0  0
   28.1009  -11.4594   37.3058 O   0  0  0  0  0  0  0  0  0  0  0  0
   28.1911  -11.0831   39.5303 N   0  0  0  0  0  0  0  0  0  0  0  0
   28.6819  -10.6524   40.7924 C   0  0  0  0  0  0  0  0  0  0  0  0
   27.5633  -10.5946   41.8444 C   0  0  0  0  0  0  0  0  0  0  0  0
   26.9793  -11.9613   42.0054 C   0  0  0  0  0  0  0  0  0  0  0  0
   26.9731  -12.7427   40.7050 C   0  0  0  0  0  0  0  0  0  0  0  0
   26.8164  -11.6931   39.5970 C   0  0  0  0  0  0  0  0  0  0  0  0
   32.6717   -9.4650   37.2697 C   0  0  0  0  0  0  0  0  0  0  0  0
   32.5152  -10.8170   37.4310 C   0  0  0  0  0  0  0  0  0  0  0  0
   31.2515  -11.3273   37.7547 C   0  0  0  0  0  0  0  0  0  0  0  0
   30.1340  -10.5564   37.9274 C   0  0  0  0  0  0  0  0  0  0  0  0
   30.3560   -9.1707   37.7475 C   0  0  0  0  0  0  0  0  0  0  0  0
   31.5887   -8.6625   37.4303 C   0  0  0  0  0  0  0  0  0  0  0  0
   34.0255   -8.9838   36.9283 C   0  0  0  0  0  0  0  0  0  0  0  0
   34.8459   -7.7531   34.8888 C   0  0  0  0  0  0  0  0  0  0  0  0
   34.0615   -7.6969   36.1805 C   0  0  0  0  0  0  0  0  0  0  0  0
   27.6091  -12.6908   43.0618 N   0  0  0  0  0  0  0  0  0  0  0  0
   27.7541  -14.1269   42.9334 C   0  0  0  0  0  0  0  0  0  0  0  0
   27.3132  -14.6636   41.8783 O   0  0  0  0  0  0  0  0  0  0  0  0
   28.3622  -14.8672   43.9557 N   0  0  0  0  0  0  0  0  0  0  0  0
   27.9664  -12.2284   43.9163 H   0  0  0  0  0  0  0  0  0  0  0  0
   28.6978  -14.3371   44.8183 H   0  0  0  0  0  0  0  0  0  0  0  0
   28.5637  -16.2491   43.9228 C   0  0  0  0  0  0  0  0  0  0  0  0
   27.8513  -17.1464   44.6730 C   0  0  0  0  0  0  0  0  0  0  0  0
   28.1430  -18.5149   44.6074 C   0  0  0  0  0  0  0  0  0  0  0  0
   29.1420  -18.9980   43.7962 C   0  0  0  0  0  0  0  0  0  0  0  0
   29.8333  -18.0575   43.0568 C   0  0  0  0  0  0  0  0  0  0  0  0
   29.5902  -16.7319   43.0865 C   0  0  0  0  0  0  0  0  0  0  0  0
   29.4189  -20.3475   43.7415 O   0  0  0  0  0  0  0  0  0  0  0  0
   28.5940  -21.1827   42.9728 C   0  0  0  0  0  0  0  0  0  0  0  0
   27.6763  -21.7577   43.8547 F   0  0  0  0  0  0  0  0  0  0  0  0
   29.3227  -22.2168   42.3875 F   0  0  0  0  0  0  0  0  0  0  0  0
   27.8922  -20.5404   41.9877 F   0  0  0  0  0  0  0  0  0  0  0  0
 16 17  1  0  0  0
 17 15  1  0  0  0
 15  9  1  0  0  0
  9 10  2  0  0  0
 10 11  1  0  0  0
 11 12  2  0  0  0
 12 13  1  0  0  0
 13 14  2  0  0  0
 12  1  1  0  0  0
  1  2  2  0  0  0
  1  3  1  0  0  0
  3  4  1  0  0  0
  4  5  1  0  0  0
  5  6  1  0  0  0
  6  7  1  0  0  0
  7  8  1  0  0  0
  6 18  1  0  0  0
 18 19  1  0  0  0
 19 20  2  0  0  0
 19 21  1  0  0  0
 21 24  1  0  0  0
 24 25  2  0  0  0
 25 26  1  0  0  0
 26 27  2  0  0  0
 27 30  1  0  0  0
 30 31  1  0  0  0
 31 32  1  0  0  0
 31 33  1  0  0  0
 31 34  1  0  0  0
 27 28  1  0  0  0
 28 29  2  0  0  0
 14  9  1  0  0  0
  8  3  1  0  0  0
 29 24  1  0  0  0
 18 22  1  0  0  0
 21 23  1  0  0  0
M  END
> <minimizedAffinity>
-6.72132

> <CNNscore>
0.3847144842

> <CNNaffinity>
5.5224037170

> <CNN_VS>
2.1245486736

> <CNNaffinity_variance>
1.0501472950

$$$$
[H]c1c([H])c(N([H])C(=O)N([H])C2([H])C([H])([H])C([H])([H])N(C(=O)c3c([H])c([H])c(C([H])([H])C([H])([H])C([H])([H])[H])c([H])c3[H])C([H])([H])C2([H])[H])c([H])c([H])c1OC(F)(F)F


 34 36  0  0  0  0  0  0  0  0999 V2000
   32.3432  -19.0268   35.5880 C   0  0  0  0  0  0  0  0  0  0  0  0
   31.8994  -18.0089   36.2755 O   0  0  0  0  0  0  0  0  0  0  0  0
   33.6031  -18.8339   35.0447 N   0  0  0  0  0  0  0  0  0  0  0  0
   34.3469  -19.7198   34.2194 C   0  0  0  0  0  0  0  0  0  0  0  0
   35.5435  -19.0124   33.5646 C   0  0  0  0  0  0  0  0  0  0  0  0
   36.4466  -18.4954   34.6380 C   0  0  0  0  0  0  0  0  0  0  0  0
   35.6819  -18.0493   35.8699 C   0  0  0  0  0  0  0  0  0  0  0  0
   34.3266  -17.5500   35.3524 C   0  0  0  0  0  0  0  0  0  0  0  0
   29.7871  -22.4530   35.5238 C   0  0  0  0  0  0  0  0  0  0  0  0
   29.2575  -21.2151   35.2675 C   0  0  0  0  0  0  0  0  0  0  0  0
   30.0981  -20.0946   35.2747 C   0  0  0  0  0  0  0  0  0  0  0  0
   31.4423  -20.1455   35.5264 C   0  0  0  0  0  0  0  0  0  0  0  0
   31.9320  -21.4480   35.7827 C   0  0  0  0  0  0  0  0  0  0  0  0
   31.1171  -22.5501   35.7772 C   0  0  0  0  0  0  0  0  0  0  0  0
   28.8544  -23.5978   35.5022 C   0  0  0  0  0  0  0  0  0  0  0  0
   28.1117  -23.2127   37.8785 C   0  0  0  0  0  0  0  0  0  0  0  0
   27.7092  -23.4890   36.4473 C   0  0  0  0  0  0  0  0  0  0  0  0
   37.4805  -19.4286   34.9621 N   0  0  0  0  0  0  0  0  0  0  0  0
   38.3623  -19.1401   36.0753 C   0  0  0  0  0  0  0  0  0  0  0  0
   38.1645  -18.0663   36.7103 O   0  0  0  0  0  0  0  0  0  0  0  0
   39.3872  -20.0343   36.4114 N   0  0  0  0  0  0  0  0  0  0  0  0
   37.6212  -20.3049   34.4291 H   0  0  0  0  0  0  0  0  0  0  0  0
   39.4917  -20.9136   35.8168 H   0  0  0  0  0  0  0  0  0  0  0  0
   40.2784  -19.8574   37.4725 C   0  0  0  0  0  0  0  0  0  0  0  0
   41.4021  -19.0773   37.4087 C   0  0  0  0  0  0  0  0  0  0  0  0
   42.2637  -18.9839   38.5092 C   0  0  0  0  0  0  0  0  0  0  0  0
   42.0126  -19.6633   39.6774 C   0  0  0  0  0  0  0  0  0  0  0  0
   40.8678  -20.4367   39.6972 C   0  0  0  0  0  0  0  0  0  0  0  0
   40.0094  -20.5587   38.6650 C   0  0  0  0  0  0  0  0  0  0  0  0
   42.8693  -19.5627   40.7529 O   0  0  0  0  0  0  0  0  0  0  0  0
   43.9988  -20.3937   40.8055 C   0  0  0  0  0  0  0  0  0  0  0  0
   45.0563  -19.6640   40.2578 F   0  0  0  0  0  0  0  0  0  0  0  0
   43.8254  -21.5362   40.0261 F   0  0  0  0  0  0  0  0  0  0  0  0
   44.3603  -20.7849   42.0671 F   0  0  0  0  0  0  0  0  0  0  0  0
 16 17  1  0  0  0
 17 15  1  0  0  0
 15  9  1  0  0  0
  9 10  2  0  0  0
 10 11  1  0  0  0
 11 12  2  0  0  0
 12 13  1  0  0  0
 13 14  2  0  0  0
 12  1  1  0  0  0
  1  2  2  0  0  0
  1  3  1  0  0  0
  3  4  1  0  0  0
  4  5  1  0  0  0
  5  6  1  0  0  0
  6  7  1  0  0  0
  7  8  1  0  0  0
  6 18  1  0  0  0
 18 19  1  0  0  0
 19 20  2  0  0  0
 19 21  1  0  0  0
 21 24  1  0  0  0
 24 25  2  0  0  0
 25 26  1  0  0  0
 26 27  2  0  0  0
 27 30  1  0  0  0
 30 31  1  0  0  0
 31 32  1  0  0  0
 31 33  1  0  0  0
 31 34  1  0  0  0
 27 28  1  0  0  0
 28 29  2  0  0  0
 14  9  1  0  0  0
  8  3  1  0  0  0
 29 24  1  0  0  0
 18 22  1  0  0  0
 21 23  1  0  0  0
M  END
> <minimizedAffinity>
-5.19932

> <CNNscore>
0.3825302422

> <CNNaffinity>
4.7327642441

> <CNN_VS>
1.8104254007

> <CNNaffinity_variance>
0.0990615636

$$$$
[H]c1c([H])c(N([H])C(=O)N([H])C2([H])C([H])([H])C([H])([H])N(C(=O)c3c([H])c([H])c(C([H])([H])C([H])([H])C([H])([H])[H])c([H])c3[H])C([H])([H])C2([H])[H])c([H])c([H])c1OC(F)(F)F


 34 36  0  0  0  0  0  0  0  0999 V2000
   33.9028  -17.9771   35.4984 C   0  0  0  0  0  0  0  0  0  0  0  0
   33.7140  -16.7836   35.9940 O   0  0  0  0  0  0  0  0  0  0  0  0
   35.2022  -18.2150   35.0807 N   0  0  0  0  0  0  0  0  0  0  0  0
   35.7253  -19.3847   34.4662 C   0  0  0  0  0  0  0  0  0  0  0  0
   37.1169  -19.1338   33.8650 C   0  0  0  0  0  0  0  0  0  0  0  0
   38.0481  -18.7169   34.9577 C   0  0  0  0  0  0  0  0  0  0  0  0
   37.3518  -17.8967   36.0273 C   0  0  0  0  0  0  0  0  0  0  0  0
   36.2330  -17.1398   35.2997 C   0  0  0  0  0  0  0  0  0  0  0  0
   30.4706  -20.5228   35.6221 C   0  0  0  0  0  0  0  0  0  0  0  0
   30.4423  -19.3948   34.8441 C   0  0  0  0  0  0  0  0  0  0  0  0
   31.5723  -18.5685   34.7929 C   0  0  0  0  0  0  0  0  0  0  0  0
   32.7308  -18.8095   35.4803 C   0  0  0  0  0  0  0  0  0  0  0  0
   32.7017  -19.9869   36.2645 C   0  0  0  0  0  0  0  0  0  0  0  0
   31.6009  -20.8016   36.3203 C   0  0  0  0  0  0  0  0  0  0  0  0
   29.2517  -21.3565   35.6371 C   0  0  0  0  0  0  0  0  0  0  0  0
   28.0182  -22.3283   37.6071 C   0  0  0  0  0  0  0  0  0  0  0  0
   28.3339  -21.1014   36.7812 C   0  0  0  0  0  0  0  0  0  0  0  0
   38.7515  -19.8305   35.5146 N   0  0  0  0  0  0  0  0  0  0  0  0
   39.6537  -20.5849   34.6680 C   0  0  0  0  0  0  0  0  0  0  0  0
   39.7744  -20.2102   33.4678 O   0  0  0  0  0  0  0  0  0  0  0  0
   40.3514  -21.6839   35.1861 N   0  0  0  0  0  0  0  0  0  0  0  0
   38.6393  -20.1168   36.5031 H   0  0  0  0  0  0  0  0  0  0  0  0
   40.1839  -21.9395   36.2080 H   0  0  0  0  0  0  0  0  0  0  0  0
   41.2534  -22.4653   34.4600 C   0  0  0  0  0  0  0  0  0  0  0  0
   40.8883  -23.5154   33.6604 C   0  0  0  0  0  0  0  0  0  0  0  0
   41.8617  -24.2716   32.9950 C   0  0  0  0  0  0  0  0  0  0  0  0
   43.2008  -23.9878   33.1198 C   0  0  0  0  0  0  0  0  0  0  0  0
   43.5228  -22.9198   33.9352 C   0  0  0  0  0  0  0  0  0  0  0  0
   42.6234  -22.1636   34.5958 C   0  0  0  0  0  0  0  0  0  0  0  0
   44.1485  -24.7406   32.4596 O   0  0  0  0  0  0  0  0  0  0  0  0
   44.7479  -24.2206   31.3023 C   0  0  0  0  0  0  0  0  0  0  0  0
   45.3537  -25.2964   30.6493 F   0  0  0  0  0  0  0  0  0  0  0  0
   45.7466  -23.3007   31.6171 F   0  0  0  0  0  0  0  0  0  0  0  0
   43.8775  -23.6274   30.4271 F   0  0  0  0  0  0  0  0  0  0  0  0
 16 17  1  0  0  0
 17 15  1  0  0  0
 15  9  1  0  0  0
  9 10  2  0  0  0
 10 11  1  0  0  0
 11 12  2  0  0  0
 12 13  1  0  0  0
 13 14  2  0  0  0
 12  1  1  0  0  0
  1  2  2  0  0  0
  1  3  1  0  0  0
  3  4  1  0  0  0
  4  5  1  0  0  0
  5  6  1  0  0  0
  6  7  1  0  0  0
  7  8  1  0  0  0
  6 18  1  0  0  0
 18 19  1  0  0  0
 19 20  2  0  0  0
 19 21  1  0  0  0
 21 24  1  0  0  0
 24 25  2  0  0  0
 25 26  1  0  0  0
 26 27  2  0  0  0
 27 30  1  0  0  0
 30 31  1  0  0  0
 31 32  1  0  0  0
 31 33  1  0  0  0
 31 34  1  0  0  0
 27 28  1  0  0  0
 28 29  2  0  0  0
 14  9  1  0  0  0
  8  3  1  0  0  0
 29 24  1  0  0  0
 18 22  1  0  0  0
 21 23  1  0  0  0
M  END
> <minimizedAffinity>
-5.31350

> <CNNscore>
0.3637599349

> <CNNaffinity>
4.8463544846

> <CNN_VS>
1.7629096508

> <CNNaffinity_variance>
0.0870796144

$$$$
[H]OC(=O)C([H])([H])[C@@]([H])(C(=O)N([H])C([H])([H])C(=O)N([H])[H])N([H])C(=O)[C@@]([H])(N([H])C(=O)C([H])([H])N([H])C(=O)[C@@]([H])(N([H])C(=O)[C@@]([H])(N([H])C(=O)[C@@]1([H])N(S(=O)(=O)c2c([H])c([H])c(OC([H])([H])[H])c([H])c2[H])C([H])([H])C([H])([H])C1([H])[H])C([H])([H])c1c([H])c([H])c([H])c([H])c1[H])C([H])([H])C(=O)O[H])C([H])([H])C(=O)O[H]


 73 75  0  0  0  0  0  0  0  0999 V2000
   33.7636  -14.9360   36.3561 C   0  0  0  0  0  0  0  0  0  0  0  0
   35.2245  -15.0165   36.6359 C   0  0  0  0  0  0  0  0  0  0  0  0
   35.9349  -14.0019   36.8162 O   0  0  0  0  0  0  0  0  0  0  0  0
   35.8511  -16.2896   36.7028 N   0  0  0  0  0  0  0  0  0  0  0  0
   35.2097  -17.1328   36.5438 H   0  0  0  0  0  0  0  0  0  0  0  0
   37.2449  -16.5139   36.9598 C   0  0  0  0  0  0  0  0  0  0  0  0
   37.6679  -17.9363   36.7683 C   0  0  0  0  0  0  0  0  0  0  0  0
   37.0541  -18.8836   37.3239 O   0  0  0  0  0  0  0  0  0  0  0  0
   38.7726  -18.2212   35.9527 N   0  0  0  0  0  0  0  0  0  0  0  0
   39.3134  -17.4878   35.4809 H   0  0  0  0  0  0  0  0  0  0  0  0
   39.1707  -19.6286   35.7674 C   0  0  0  0  0  0  0  0  0  0  0  0
   40.3506  -19.8877   36.5853 C   0  0  0  0  0  0  0  0  0  0  0  0
   40.1307  -20.1968   37.8224 O   0  0  0  0  0  0  0  0  0  0  0  0
   41.6908  -19.8435   36.1813 N   0  0  0  0  0  0  0  0  0  0  0  0
   42.0011  -19.6054   35.2419 H   0  0  0  0  0  0  0  0  0  0  0  0
   42.8030  -20.1582   37.1310 C   0  0  0  0  0  0  0  0  0  0  0  0
   43.7437  -19.0680   36.9657 C   0  0  0  0  0  0  0  0  0  0  0  0
   44.2718  -18.5888   38.0313 O   0  0  0  0  0  0  0  0  0  0  0  0
   44.1306  -18.4850   35.7468 N   0  0  0  0  0  0  0  0  0  0  0  0
   43.7833  -18.7522   34.8115 H   0  0  0  0  0  0  0  0  0  0  0  0
   45.1102  -17.3892   35.7156 C   0  0  0  0  0  0  0  0  0  0  0  0
   44.3800  -16.1110   35.6731 C   0  0  0  0  0  0  0  0  0  0  0  0
   43.9690  -15.6327   34.3946 N   0  0  0  0  0  0  0  0  0  0  0  0
   44.0913  -15.4110   36.6649 O   0  0  0  0  0  0  0  0  0  0  0  0
   43.3844  -16.2669   33.8017 H   0  0  0  0  0  0  0  0  0  0  0  0
   44.2484  -14.6929   34.0821 H   0  0  0  0  0  0  0  0  0  0  0  0
   43.2653  -21.5074   36.7145 C   0  0  0  0  0  0  0  0  0  0  0  0
   43.8572  -21.6182   35.3691 C   0  0  0  0  0  0  0  0  0  0  0  0
   43.0282  -21.6464   34.2314 O   0  0  0  0  0  0  0  0  0  0  0  0
   45.0878  -21.6859   35.2081 O   0  0  0  0  0  0  0  0  0  0  0  0
   43.4317  -21.5693   33.3021 H   0  0  0  0  0  0  0  0  0  0  0  0
   39.3117  -19.8162   34.2924 C   0  0  0  0  0  0  0  0  0  0  0  0
   39.3313  -18.5499   33.5773 C   0  0  0  0  0  0  0  0  0  0  0  0
   40.5025  -17.8916   33.2901 O   0  0  0  0  0  0  0  0  0  0  0  0
   38.2144  -18.0566   33.2173 O   0  0  0  0  0  0  0  0  0  0  0  0
   41.3153  -18.0509   33.8992 H   0  0  0  0  0  0  0  0  0  0  0  0
   32.8455  -12.9301   37.4776 C   0  0  0  0  0  0  0  0  0  0  0  0
   32.8598  -13.5533   38.5596 O   0  0  0  0  0  0  0  0  0  0  0  0
   33.2985  -13.5802   36.3105 N   0  0  0  0  0  0  0  0  0  0  0  0
   33.2940  -13.0697   35.4158 H   0  0  0  0  0  0  0  0  0  0  0  0
   32.3461  -11.5217   37.4792 C   0  0  0  0  0  0  0  0  0  0  0  0
   29.9609  -11.0347   38.1031 C   0  0  0  0  0  0  0  0  0  0  0  0
   29.8405  -10.7498   36.8157 O   0  0  0  0  0  0  0  0  0  0  0  0
   31.2630  -11.4185   38.4282 N   0  0  0  0  0  0  0  0  0  0  0  0
   31.5153  -11.6717   39.3996 H   0  0  0  0  0  0  0  0  0  0  0  0
   28.0261  -11.9073   39.4586 N   0  0  0  0  0  0  0  0  0  0  0  0
   26.7391  -11.1704   39.6585 C   0  0  0  0  0  0  0  0  0  0  0  0
   27.1855   -9.8348   40.1959 C   0  0  0  0  0  0  0  0  0  0  0  0
   28.6204   -9.6781   39.7422 C   0  0  0  0  0  0  0  0  0  0  0  0
   28.7419  -10.8857   38.8218 C   0  0  0  0  0  0  0  0  0  0  0  0
   28.5782  -12.4754   40.9609 S   0  0  0  0  0  0  0  0  0  0  0  0
   28.0805  -11.6955   42.1420 O   0  0  0  0  0  0  0  0  0  0  0  0
   30.0805  -12.5370   40.9413 O   0  0  0  0  0  0  0  0  0  0  0  0
   27.2029  -16.7127   41.6680 C   0  0  0  0  0  0  0  0  0  0  0  0
   28.1553  -16.4826   40.7080 C   0  0  0  0  0  0  0  0  0  0  0  0
   28.5461  -15.1746   40.5225 C   0  0  0  0  0  0  0  0  0  0  0  0
   28.0295  -14.1346   41.2428 C   0  0  0  0  0  0  0  0  0  0  0  0
   27.0847  -14.3714   42.1929 C   0  0  0  0  0  0  0  0  0  0  0  0
   26.6761  -15.6766   42.3979 C   0  0  0  0  0  0  0  0  0  0  0  0
   27.2326  -19.0745   41.1032 C   0  0  0  0  0  0  0  0  0  0  0  0
   26.7472  -18.0231   41.9219 O   0  0  0  0  0  0  0  0  0  0  0  0
   33.5019  -10.6571   37.8703 C   0  0  0  0  0  0  0  0  0  0  0  0
   33.7515   -9.4765   37.0612 C   0  0  0  0  0  0  0  0  0  0  0  0
   34.9577   -9.2439   36.4555 C   0  0  0  0  0  0  0  0  0  0  0  0
   35.2259   -8.1115   35.6889 C   0  0  0  0  0  0  0  0  0  0  0  0
   34.2498   -7.1689   35.5167 C   0  0  0  0  0  0  0  0  0  0  0  0
   33.0297   -7.3834   36.1167 C   0  0  0  0  0  0  0  0  0  0  0  0
   32.7800   -8.5158   36.8767 C   0  0  0  0  0  0  0  0  0  0  0  0
   33.3696  -15.6858   35.1319 C   0  0  0  0  0  0  0  0  0  0  0  0
   33.2921  -17.1340   35.2483 C   0  0  0  0  0  0  0  0  0  0  0  0
   32.2648  -17.8390   35.8500 O   0  0  0  0  0  0  0  0  0  0  0  0
   34.2317  -17.8475   34.7664 O   0  0  0  0  0  0  0  0  0  0  0  0
   32.3784  -18.3911   36.6873 H   0  0  0  0  0  0  0  0  0  0  0  0
 60 61  1  0  0  0
 61 54  1  0  0  0
 54 55  2  0  0  0
 55 56  1  0  0  0
 56 57  2  0  0  0
 57 58  1  0  0  0
 58 59  2  0  0  0
 57 51  1  0  0  0
 51 52  2  0  0  0
 51 53  2  0  0  0
 51 46  1  0  0  0
 46 47  1  0  0  0
 47 48  1  0  0  0
 48 49  1  0  0  0
 49 50  1  0  0  0
 50 42  1  0  0  0
 42 43  2  0  0  0
 42 44  1  0  0  0
 44 41  1  0  0  0
 41 62  1  0  0  0
 62 63  1  0  0  0
 63 64  2  0  0  0
 64 65  1  0  0  0
 65 66  2  0  0  0
 66 67  1  0  0  0
 67 68  2  0  0  0
 41 37  1  0  0  0
 37 38  2  0  0  0
 37 39  1  0  0  0
 39  1  1  0  0  0
  1 69  1  0  0  0
 69 70  1  0  0  0
 70 71  1  0  0  0
 70 72  2  0  0  0
  1  2  1  0  0  0
  2  3  2  0  0  0
  2  4  1  0  0  0
  4  6  1  0  0  0
  6  7  1  0  0  0
  7  8  2  0  0  0
  7  9  1  0  0  0
  9 11  1  0  0  0
 11 32  1  0  0  0
 32 33  1  0  0  0
 33 34  1  0  0  0
 33 35  2  0  0  0
 11 12  1  0  0  0
 12 13  2  0  0  0
 12 14  1  0  0  0
 14 16  1  0  0  0
 16 27  1  0  0  0
 27 28  1  0  0  0
 28 29  1  0  0  0
 28 30  2  0  0  0
 16 17  1  0  0  0
 17 18  2  0  0  0
 17 19  1  0  0  0
 19 21  1  0  0  0
 21 22  1  0  0  0
 22 23  1  0  0  0
 22 24  2  0  0  0
 59 54  1  0  0  0
 50 46  1  0  0  0
 68 63  1  0  0  0
 44 45  1  0  0  0
 39 40  1  0  0  0
 71 73  1  0  0  0
  4  5  1  0  0  0
  9 10  1  0  0  0
 34 36  1  0  0  0
 14 15  1  0  0  0
 29 31  1  0  0  0
 19 20  1  0  0  0
 23 25  1  0  0  0
 23 26  1  0  0  0
M  END
> <minimizedAffinity>
-8.63004

> <CNNscore>
0.3827971220

> <CNNaffinity>
7.4527907372

> <CNN_VS>
2.8529069424

> <CNNaffinity_variance>
0.5199076533

$$$$
[H]OC(=O)C([H])([H])[C@@]([H])(C(=O)N([H])C([H])([H])C(=O)N([H])[H])N([H])C(=O)[C@@]([H])(N([H])C(=O)C([H])([H])N([H])C(=O)[C@@]([H])(N([H])C(=O)[C@@]([H])(N([H])C(=O)[C@@]1([H])N(S(=O)(=O)c2c([H])c([H])c(OC([H])([H])[H])c([H])c2[H])C([H])([H])C([H])([H])C1([H])[H])C([H])([H])c1c([H])c([H])c([H])c([H])c1[H])C([H])([H])C(=O)O[H])C([H])([H])C(=O)O[H]


 73 75  0  0  0  0  0  0  0  0999 V2000
   33.8333  -15.3098   36.2820 C   0  0  0  0  0  0  0  0  0  0  0  0
   35.3219  -15.2579   36.2757 C   0  0  0  0  0  0  0  0  0  0  0  0
   35.9614  -14.2484   35.9033 O   0  0  0  0  0  0  0  0  0  0  0  0
   36.0596  -16.3929   36.7063 N   0  0  0  0  0  0  0  0  0  0  0  0
   35.4766  -17.2360   37.0178 H   0  0  0  0  0  0  0  0  0  0  0  0
   37.4911  -16.4828   36.7486 C   0  0  0  0  0  0  0  0  0  0  0  0
   38.0226  -17.8003   36.2793 C   0  0  0  0  0  0  0  0  0  0  0  0
   37.3313  -18.5684   35.5617 O   0  0  0  0  0  0  0  0  0  0  0  0
   39.3189  -18.1891   36.6469 N   0  0  0  0  0  0  0  0  0  0  0  0
   39.9236  -17.6053   37.2356 H   0  0  0  0  0  0  0  0  0  0  0  0
   39.8307  -19.4864   36.1687 C   0  0  0  0  0  0  0  0  0  0  0  0
   39.3316  -20.5351   37.0516 C   0  0  0  0  0  0  0  0  0  0  0  0
   40.1509  -20.9521   37.9622 O   0  0  0  0  0  0  0  0  0  0  0  0
   38.0670  -21.1364   37.0263 N   0  0  0  0  0  0  0  0  0  0  0  0
   37.3346  -20.9084   36.3578 H   0  0  0  0  0  0  0  0  0  0  0  0
   37.6842  -22.1904   38.0166 C   0  0  0  0  0  0  0  0  0  0  0  0
   37.7022  -23.4263   37.2596 C   0  0  0  0  0  0  0  0  0  0  0  0
   37.5511  -24.5150   37.9197 O   0  0  0  0  0  0  0  0  0  0  0  0
   37.8715  -23.5440   35.8693 N   0  0  0  0  0  0  0  0  0  0  0  0
   38.0172  -22.7629   35.2095 H   0  0  0  0  0  0  0  0  0  0  0  0
   37.8553  -24.8627   35.2195 C   0  0  0  0  0  0  0  0  0  0  0  0
   38.5702  -24.7599   33.9361 C   0  0  0  0  0  0  0  0  0  0  0  0
   39.1870  -23.5123   33.6272 N   0  0  0  0  0  0  0  0  0  0  0  0
   38.6805  -25.6754   33.0956 O   0  0  0  0  0  0  0  0  0  0  0  0
   39.8693  -23.1215   34.3180 H   0  0  0  0  0  0  0  0  0  0  0  0
   38.9557  -23.0267   32.7499 H   0  0  0  0  0  0  0  0  0  0  0  0
   36.3645  -21.7426   38.5317 C   0  0  0  0  0  0  0  0  0  0  0  0
   35.6386  -20.7501   37.7187 C   0  0  0  0  0  0  0  0  0  0  0  0
   35.6945  -19.3837   38.0537 O   0  0  0  0  0  0  0  0  0  0  0  0
   34.9701  -21.0911   36.7279 O   0  0  0  0  0  0  0  0  0  0  0  0
   35.3255  -18.6848   37.4152 H   0  0  0  0  0  0  0  0  0  0  0  0
   41.3125  -19.3248   36.0752 C   0  0  0  0  0  0  0  0  0  0  0  0
   41.7487  -19.0354   34.7183 C   0  0  0  0  0  0  0  0  0  0  0  0
   41.5917  -17.7946   34.1499 O   0  0  0  0  0  0  0  0  0  0  0  0
   42.2898  -19.9791   34.0570 O   0  0  0  0  0  0  0  0  0  0  0  0
   40.8320  -17.1923   34.4921 H   0  0  0  0  0  0  0  0  0  0  0  0
   33.0737  -13.2350   37.3968 C   0  0  0  0  0  0  0  0  0  0  0  0
   33.4409  -13.7123   38.4907 O   0  0  0  0  0  0  0  0  0  0  0  0
   33.2492  -14.0012   36.2255 N   0  0  0  0  0  0  0  0  0  0  0  0
   32.9529  -13.6108   35.3194 H   0  0  0  0  0  0  0  0  0  0  0  0
   32.4647  -11.8704   37.3894 C   0  0  0  0  0  0  0  0  0  0  0  0
   30.0557  -11.3469   37.8774 C   0  0  0  0  0  0  0  0  0  0  0  0
   30.0882  -10.7960   36.6739 O   0  0  0  0  0  0  0  0  0  0  0  0
   31.2937  -11.8843   38.2337 N   0  0  0  0  0  0  0  0  0  0  0  0
   31.4275  -12.3492   39.1488 H   0  0  0  0  0  0  0  0  0  0  0  0
   28.1199  -12.2832   39.1884 N   0  0  0  0  0  0  0  0  0  0  0  0
   26.7543  -11.6721   39.2240 C   0  0  0  0  0  0  0  0  0  0  0  0
   27.0231  -10.2498   39.6444 C   0  0  0  0  0  0  0  0  0  0  0  0
   28.4656   -9.9861   39.2717 C   0  0  0  0  0  0  0  0  0  0  0  0
   28.7767  -11.2589   38.4948 C   0  0  0  0  0  0  0  0  0  0  0  0
   28.6099  -12.6375   40.7754 S   0  0  0  0  0  0  0  0  0  0  0  0
   27.7481  -12.0298   41.8428 O   0  0  0  0  0  0  0  0  0  0  0  0
   30.0503  -12.2409   40.9454 O   0  0  0  0  0  0  0  0  0  0  0  0
   28.4524  -17.0849   41.5114 C   0  0  0  0  0  0  0  0  0  0  0  0
   27.9051  -16.5905   40.3548 C   0  0  0  0  0  0  0  0  0  0  0  0
   27.9726  -15.2270   40.1697 C   0  0  0  0  0  0  0  0  0  0  0  0
   28.5494  -14.3811   41.0748 C   0  0  0  0  0  0  0  0  0  0  0  0
   29.0896  -14.8796   42.2198 C   0  0  0  0  0  0  0  0  0  0  0  0
   29.0343  -16.2456   42.4283 C   0  0  0  0  0  0  0  0  0  0  0  0
   28.9205  -18.9228   43.0282 C   0  0  0  0  0  0  0  0  0  0  0  0
   28.4260  -18.4695   41.7787 O   0  0  0  0  0  0  0  0  0  0  0  0
   33.5062  -10.9330   37.9117 C   0  0  0  0  0  0  0  0  0  0  0  0
   33.7347   -9.7098   37.1618 C   0  0  0  0  0  0  0  0  0  0  0  0
   32.7819   -8.7331   37.0434 C   0  0  0  0  0  0  0  0  0  0  0  0
   32.9718   -7.5596   36.3162 C   0  0  0  0  0  0  0  0  0  0  0  0
   34.1637   -7.3483   35.6792 C   0  0  0  0  0  0  0  0  0  0  0  0
   35.1354   -8.3174   35.7858 C   0  0  0  0  0  0  0  0  0  0  0  0
   34.9293   -9.4795   36.5132 C   0  0  0  0  0  0  0  0  0  0  0  0
   33.2834  -16.1953   35.2192 C   0  0  0  0  0  0  0  0  0  0  0  0
   33.3081  -17.6260   35.4822 C   0  0  0  0  0  0  0  0  0  0  0  0
   34.4076  -18.4526   35.3330 O   0  0  0  0  0  0  0  0  0  0  0  0
   32.2457  -18.2022   35.8865 O   0  0  0  0  0  0  0  0  0  0  0  0
   34.4616  -19.1974   34.6538 H   0  0  0  0  0  0  0  0  0  0  0  0
 60 61  1  0  0  0
 61 54  1  0  0  0
 54 55  2  0  0  0
 55 56  1  0  0  0
 56 57  2  0  0  0
 57 58  1  0  0  0
 58 59  2  0  0  0
 57 51  1  0  0  0
 51 52  2  0  0  0
 51 53  2  0  0  0
 51 46  1  0  0  0
 46 47  1  0  0  0
 47 48  1  0  0  0
 48 49  1  0  0  0
 49 50  1  0  0  0
 50 42  1  0  0  0
 42 43  2  0  0  0
 42 44  1  0  0  0
 44 41  1  0  0  0
 41 62  1  0  0  0
 62 63  1  0  0  0
 63 64  2  0  0  0
 64 65  1  0  0  0
 65 66  2  0  0  0
 66 67  1  0  0  0
 67 68  2  0  0  0
 41 37  1  0  0  0
 37 38  2  0  0  0
 37 39  1  0  0  0
 39  1  1  0  0  0
  1 69  1  0  0  0
 69 70  1  0  0  0
 70 71  1  0  0  0
 70 72  2  0  0  0
  1  2  1  0  0  0
  2  3  2  0  0  0
  2  4  1  0  0  0
  4  6  1  0  0  0
  6  7  1  0  0  0
  7  8  2  0  0  0
  7  9  1  0  0  0
  9 11  1  0  0  0
 11 32  1  0  0  0
 32 33  1  0  0  0
 33 34  1  0  0  0
 33 35  2  0  0  0
 11 12  1  0  0  0
 12 13  2  0  0  0
 12 14  1  0  0  0
 14 16  1  0  0  0
 16 27  1  0  0  0
 27 28  1  0  0  0
 28 29  1  0  0  0
 28 30  2  0  0  0
 16 17  1  0  0  0
 17 18  2  0  0  0
 17 19  1  0  0  0
 19 21  1  0  0  0
 21 22  1  0  0  0
 22 23  1  0  0  0
 22 24  2  0  0  0
 59 54  1  0  0  0
 50 46  1  0  0  0
 68 63  1  0  0  0
 44 45  1  0  0  0
 39 40  1  0  0  0
 71 73  1  0  0  0
  4  5  1  0  0  0
  9 10  1  0  0  0
 34 36  1  0  0  0
 14 15  1  0  0  0
 29 31  1  0  0  0
 19 20  1  0  0  0
 23 25  1  0  0  0
 23 26  1  0  0  0
M  END
> <minimizedAffinity>
-7.79299

> <CNNscore>
0.3249774277

> <CNNaffinity>
7.1126365662

> <CNN_VS>
2.3114464283

> <CNNaffinity_variance>
0.4692577422

$$$$
[H]OC(=O)C([H])([H])[C@@]([H])(C(=O)N([H])C([H])([H])C(=O)N([H])[H])N([H])C(=O)[C@@]([H])(N([H])C(=O)C([H])([H])N([H])C(=O)[C@@]([H])(N([H])C(=O)[C@@]([H])(N([H])C(=O)[C@@]1([H])N(S(=O)(=O)c2c([H])c([H])c(OC([H])([H])[H])c([H])c2[H])C([H])([H])C([H])([H])C1([H])[H])C([H])([H])c1c([H])c([H])c([H])c([H])c1[H])C([H])([H])C(=O)O[H])C([H])([H])C(=O)O[H]


 73 75  0  0  0  0  0  0  0  0999 V2000
   35.2241  -13.6014   36.2844 C   0  0  0  0  0  0  0  0  0  0  0  0
   34.5444  -14.8867   35.9605 C   0  0  0  0  0  0  0  0  0  0  0  0
   33.3579  -14.9430   35.5660 O   0  0  0  0  0  0  0  0  0  0  0  0
   35.2588  -16.1064   36.1013 N   0  0  0  0  0  0  0  0  0  0  0  0
   36.2710  -16.0163   36.4404 H   0  0  0  0  0  0  0  0  0  0  0  0
   34.7295  -17.4121   35.8292 C   0  0  0  0  0  0  0  0  0  0  0  0
   35.6879  -18.3092   35.1113 C   0  0  0  0  0  0  0  0  0  0  0  0
   35.3035  -19.0803   34.1945 O   0  0  0  0  0  0  0  0  0  0  0  0
   37.0442  -18.2919   35.4675 N   0  0  0  0  0  0  0  0  0  0  0  0
   37.4112  -17.6881   36.2117 H   0  0  0  0  0  0  0  0  0  0  0  0
   37.9768  -19.1755   34.7443 C   0  0  0  0  0  0  0  0  0  0  0  0
   38.8795  -19.7882   35.7128 C   0  0  0  0  0  0  0  0  0  0  0  0
   38.3720  -20.0648   36.8705 O   0  0  0  0  0  0  0  0  0  0  0  0
   40.2293  -20.1134   35.5287 N   0  0  0  0  0  0  0  0  0  0  0  0
   40.7511  -19.9410   34.6723 H   0  0  0  0  0  0  0  0  0  0  0  0
   41.0298  -20.7647   36.6117 C   0  0  0  0  0  0  0  0  0  0  0  0
   41.8904  -19.7117   37.1130 C   0  0  0  0  0  0  0  0  0  0  0  0
   42.3988  -19.8812   38.2779 O   0  0  0  0  0  0  0  0  0  0  0  0
   42.2190  -18.5207   36.4431 N   0  0  0  0  0  0  0  0  0  0  0  0
   41.8781  -18.2379   35.5101 H   0  0  0  0  0  0  0  0  0  0  0  0
   43.1198  -17.5359   37.0596 C   0  0  0  0  0  0  0  0  0  0  0  0
   43.3972  -16.4761   36.0753 C   0  0  0  0  0  0  0  0  0  0  0  0
   42.7934  -16.6006   34.7899 N   0  0  0  0  0  0  0  0  0  0  0  0
   44.1182  -15.4773   36.2736 O   0  0  0  0  0  0  0  0  0  0  0  0
   41.7528  -16.7054   34.7482 H   0  0  0  0  0  0  0  0  0  0  0  0
   43.3776  -16.5867   33.9430 H   0  0  0  0  0  0  0  0  0  0  0  0
   41.6973  -21.9059   35.9337 C   0  0  0  0  0  0  0  0  0  0  0  0
   41.4866  -22.0272   34.4798 C   0  0  0  0  0  0  0  0  0  0  0  0
   42.3970  -21.4388   33.5812 O   0  0  0  0  0  0  0  0  0  0  0  0
   40.5134  -22.6467   34.0174 O   0  0  0  0  0  0  0  0  0  0  0  0
   42.3422  -21.6461   32.5880 H   0  0  0  0  0  0  0  0  0  0  0  0
   38.5944  -18.3261   33.6823 C   0  0  0  0  0  0  0  0  0  0  0  0
   39.8251  -18.9028   33.1646 C   0  0  0  0  0  0  0  0  0  0  0  0
   39.8289  -20.0265   32.3742 O   0  0  0  0  0  0  0  0  0  0  0  0
   40.9204  -18.3296   33.4685 O   0  0  0  0  0  0  0  0  0  0  0  0
   39.0509  -20.6922   32.4665 H   0  0  0  0  0  0  0  0  0  0  0  0
   33.4517  -12.3234   37.4460 C   0  0  0  0  0  0  0  0  0  0  0  0
   33.5150  -13.1350   38.3929 O   0  0  0  0  0  0  0  0  0  0  0  0
   34.3028  -12.5036   36.3356 N   0  0  0  0  0  0  0  0  0  0  0  0
   34.2587  -11.8345   35.5536 H   0  0  0  0  0  0  0  0  0  0  0  0
   32.4715  -11.1995   37.5423 C   0  0  0  0  0  0  0  0  0  0  0  0
   30.0843  -11.4803   38.2759 C   0  0  0  0  0  0  0  0  0  0  0  0
   29.8157  -11.0204   37.0637 O   0  0  0  0  0  0  0  0  0  0  0  0
   31.4587  -11.5535   38.5084 N   0  0  0  0  0  0  0  0  0  0  0  0
   31.8269  -11.8937   39.4140 H   0  0  0  0  0  0  0  0  0  0  0  0
   28.6663  -12.9768   39.7223 N   0  0  0  0  0  0  0  0  0  0  0  0
   27.1961  -12.7945   39.9340 C   0  0  0  0  0  0  0  0  0  0  0  0
   27.0896  -11.3673   40.4070 C   0  0  0  0  0  0  0  0  0  0  0  0
   28.3413  -10.6824   39.9037 C   0  0  0  0  0  0  0  0  0  0  0  0
   28.9146  -11.7873   39.0259 C   0  0  0  0  0  0  0  0  0  0  0  0
   29.4177  -13.2126   41.2270 S   0  0  0  0  0  0  0  0  0  0  0  0
   28.7938  -12.4519   42.3598 O   0  0  0  0  0  0  0  0  0  0  0  0
   30.8826  -12.8982   41.0998 O   0  0  0  0  0  0  0  0  0  0  0  0
   29.1822  -17.5516   42.4372 C   0  0  0  0  0  0  0  0  0  0  0  0
   28.5162  -17.1472   41.3082 C   0  0  0  0  0  0  0  0  0  0  0  0
   28.6124  -15.8139   40.9749 C   0  0  0  0  0  0  0  0  0  0  0  0
   29.3279  -14.9127   41.7120 C   0  0  0  0  0  0  0  0  0  0  0  0
   29.9854  -15.3219   42.8308 C   0  0  0  0  0  0  0  0  0  0  0  0
   29.9040  -16.6560   43.1860 C   0  0  0  0  0  0  0  0  0  0  0  0
   27.8960  -19.5837   42.7742 C   0  0  0  0  0  0  0  0  0  0  0  0
   29.1361  -18.8997   42.8489 O   0  0  0  0  0  0  0  0  0  0  0  0
   33.2429   -9.9932   37.9736 C   0  0  0  0  0  0  0  0  0  0  0  0
   33.5732   -9.0156   36.9508 C   0  0  0  0  0  0  0  0  0  0  0  0
   34.8472   -8.8542   36.4745 C   0  0  0  0  0  0  0  0  0  0  0  0
   35.1912   -7.9128   35.5065 C   0  0  0  0  0  0  0  0  0  0  0  0
   34.2239   -7.0960   34.9886 C   0  0  0  0  0  0  0  0  0  0  0  0
   32.9364   -7.2420   35.4533 C   0  0  0  0  0  0  0  0  0  0  0  0
   32.6118   -8.1839   36.4174 C   0  0  0  0  0  0  0  0  0  0  0  0
   36.0435  -13.6798   37.5247 C   0  0  0  0  0  0  0  0  0  0  0  0
   37.4236  -14.1141   37.3707 C   0  0  0  0  0  0  0  0  0  0  0  0
   38.5052  -13.2861   37.1284 O   0  0  0  0  0  0  0  0  0  0  0  0
   37.6984  -15.3552   37.4611 O   0  0  0  0  0  0  0  0  0  0  0  0
   39.0476  -13.3062   36.2772 H   0  0  0  0  0  0  0  0  0  0  0  0
 60 61  1  0  0  0
 61 54  1  0  0  0
 54 55  2  0  0  0
 55 56  1  0  0  0
 56 57  2  0  0  0
 57 58  1  0  0  0
 58 59  2  0  0  0
 57 51  1  0  0  0
 51 52  2  0  0  0
 51 53  2  0  0  0
 51 46  1  0  0  0
 46 47  1  0  0  0
 47 48  1  0  0  0
 48 49  1  0  0  0
 49 50  1  0  0  0
 50 42  1  0  0  0
 42 43  2  0  0  0
 42 44  1  0  0  0
 44 41  1  0  0  0
 41 62  1  0  0  0
 62 63  1  0  0  0
 63 64  2  0  0  0
 64 65  1  0  0  0
 65 66  2  0  0  0
 66 67  1  0  0  0
 67 68  2  0  0  0
 41 37  1  0  0  0
 37 38  2  0  0  0
 37 39  1  0  0  0
 39  1  1  0  0  0
  1 69  1  0  0  0
 69 70  1  0  0  0
 70 71  1  0  0  0
 70 72  2  0  0  0
  1  2  1  0  0  0
  2  3  2  0  0  0
  2  4  1  0  0  0
  4  6  1  0  0  0
  6  7  1  0  0  0
  7  8  2  0  0  0
  7  9  1  0  0  0
  9 11  1  0  0  0
 11 32  1  0  0  0
 32 33  1  0  0  0
 33 34  1  0  0  0
 33 35  2  0  0  0
 11 12  1  0  0  0
 12 13  2  0  0  0
 12 14  1  0  0  0
 14 16  1  0  0  0
 16 27  1  0  0  0
 27 28  1  0  0  0
 28 29  1  0  0  0
 28 30  2  0  0  0
 16 17  1  0  0  0
 17 18  2  0  0  0
 17 19  1  0  0  0
 19 21  1  0  0  0
 21 22  1  0  0  0
 22 23  1  0  0  0
 22 24  2  0  0  0
 59 54  1  0  0  0
 50 46  1  0  0  0
 68 63  1  0  0  0
 44 45  1  0  0  0
 39 40  1  0  0  0
 71 73  1  0  0  0
  4  5  1  0  0  0
  9 10  1  0  0  0
 34 36  1  0  0  0
 14 15  1  0  0  0
 29 31  1  0  0  0
 19 20  1  0  0  0
 23 25  1  0  0  0
 23 26  1  0  0  0
M  END
> <minimizedAffinity>
-9.53397

> <CNNscore>
0.2812834680

> <CNNaffinity>
7.6058206558

> <CNN_VS>
2.1393916607

> <CNNaffinity_variance>
0.1146091595

$$$$
[H]OC(=O)C([H])([H])[C@@]([H])(C(=O)N([H])C([H])([H])C(=O)N([H])[H])N([H])C(=O)[C@@]([H])(N([H])C(=O)C([H])([H])N([H])C(=O)[C@@]([H])(N([H])C(=O)[C@@]([H])(N([H])C(=O)[C@@]1([H])N(S(=O)(=O)c2c([H])c([H])c(OC([H])([H])[H])c([H])c2[H])C([H])([H])C([H])([H])C1([H])[H])C([H])([H])c1c([H])c([H])c([H])c([H])c1[H])C([H])([H])C(=O)O[H])C([H])([H])C(=O)O[H]


 73 75  0  0  0  0  0  0  0  0999 V2000
   33.9255  -15.5990   36.2468 C   0  0  0  0  0  0  0  0  0  0  0  0
   35.4144  -15.5552   36.2271 C   0  0  0  0  0  0  0  0  0  0  0  0
   36.0560  -14.5341   35.8922 O   0  0  0  0  0  0  0  0  0  0  0  0
   36.1496  -16.7120   36.6001 N   0  0  0  0  0  0  0  0  0  0  0  0
   35.5647  -17.5645   36.8807 H   0  0  0  0  0  0  0  0  0  0  0  0
   37.5808  -16.8116   36.6234 C   0  0  0  0  0  0  0  0  0  0  0  0
   38.0839  -18.2203   36.5863 C   0  0  0  0  0  0  0  0  0  0  0  0
   37.4456  -19.1591   37.1285 O   0  0  0  0  0  0  0  0  0  0  0  0
   39.2930  -18.5016   35.9341 N   0  0  0  0  0  0  0  0  0  0  0  0
   39.8574  -17.7741   35.4811 H   0  0  0  0  0  0  0  0  0  0  0  0
   39.7700  -19.8961   35.8990 C   0  0  0  0  0  0  0  0  0  0  0  0
   41.1920  -19.9076   36.2251 C   0  0  0  0  0  0  0  0  0  0  0  0
   41.7982  -21.0433   36.0945 O   0  0  0  0  0  0  0  0  0  0  0  0
   41.9730  -18.8289   36.6585 N   0  0  0  0  0  0  0  0  0  0  0  0
   41.6194  -17.8869   36.8107 H   0  0  0  0  0  0  0  0  0  0  0  0
   43.4350  -18.9850   36.9343 C   0  0  0  0  0  0  0  0  0  0  0  0
   43.5286  -19.0535   38.3790 C   0  0  0  0  0  0  0  0  0  0  0  0
   44.6312  -19.4854   38.8707 O   0  0  0  0  0  0  0  0  0  0  0  0
   42.5234  -18.6924   39.2926 N   0  0  0  0  0  0  0  0  0  0  0  0
   41.5825  -18.3427   39.0494 H   0  0  0  0  0  0  0  0  0  0  0  0
   42.7522  -18.7961   40.7412 C   0  0  0  0  0  0  0  0  0  0  0  0
   41.6201  -19.5214   41.3421 C   0  0  0  0  0  0  0  0  0  0  0  0
   41.3203  -19.2521   42.7095 N   0  0  0  0  0  0  0  0  0  0  0  0
   40.9010  -20.3535   40.7526 O   0  0  0  0  0  0  0  0  0  0  0  0
   41.1450  -18.2572   42.9833 H   0  0  0  0  0  0  0  0  0  0  0  0
   41.2829  -20.0230   43.3900 H   0  0  0  0  0  0  0  0  0  0  0  0
   44.0561  -17.8042   36.2806 C   0  0  0  0  0  0  0  0  0  0  0  0
   43.1450  -16.7233   35.8630 C   0  0  0  0  0  0  0  0  0  0  0  0
   42.5589  -16.7467   34.5830 O   0  0  0  0  0  0  0  0  0  0  0  0
   42.8731  -15.7778   36.6226 O   0  0  0  0  0  0  0  0  0  0  0  0
   41.8183  -16.0922   34.3471 H   0  0  0  0  0  0  0  0  0  0  0  0
   39.3760  -20.4228   34.5581 C   0  0  0  0  0  0  0  0  0  0  0  0
   39.7089  -19.4984   33.4857 C   0  0  0  0  0  0  0  0  0  0  0  0
   38.9010  -19.3336   32.3868 O   0  0  0  0  0  0  0  0  0  0  0  0
   40.7890  -18.8331   33.5923 O   0  0  0  0  0  0  0  0  0  0  0  0
   38.2927  -20.1132   32.1054 H   0  0  0  0  0  0  0  0  0  0  0  0
   33.2456  -13.4821   37.3334 C   0  0  0  0  0  0  0  0  0  0  0  0
   33.6723  -13.9261   38.4197 O   0  0  0  0  0  0  0  0  0  0  0  0
   33.3479  -14.2881   36.1802 N   0  0  0  0  0  0  0  0  0  0  0  0
   33.0023  -13.9253   35.2801 H   0  0  0  0  0  0  0  0  0  0  0  0
   32.6463  -12.1133   37.3154 C   0  0  0  0  0  0  0  0  0  0  0  0
   30.2549  -11.5399   37.8331 C   0  0  0  0  0  0  0  0  0  0  0  0
   30.2876  -10.9790   36.6343 O   0  0  0  0  0  0  0  0  0  0  0  0
   31.4840  -12.1084   38.1717 N   0  0  0  0  0  0  0  0  0  0  0  0
   31.6166  -12.5844   39.0812 H   0  0  0  0  0  0  0  0  0  0  0  0
   28.3201  -12.4387   39.1714 N   0  0  0  0  0  0  0  0  0  0  0  0
   26.9647  -11.8062   39.2192 C   0  0  0  0  0  0  0  0  0  0  0  0
   27.2604  -10.3860   39.6286 C   0  0  0  0  0  0  0  0  0  0  0  0
   28.7024  -10.1469   39.2379 C   0  0  0  0  0  0  0  0  0  0  0  0
   28.9846  -11.4285   38.4647 C   0  0  0  0  0  0  0  0  0  0  0  0
   28.8227  -12.7920   40.7547 S   0  0  0  0  0  0  0  0  0  0  0  0
   28.0002  -12.1421   41.8281 O   0  0  0  0  0  0  0  0  0  0  0  0
   30.2787  -12.4447   40.8974 O   0  0  0  0  0  0  0  0  0  0  0  0
   28.5175  -17.2221   41.5467 C   0  0  0  0  0  0  0  0  0  0  0  0
   27.8502  -16.7000   40.4679 C   0  0  0  0  0  0  0  0  0  0  0  0
   27.9681  -15.3427   40.2628 C   0  0  0  0  0  0  0  0  0  0  0  0
   28.7057  -14.5289   41.0758 C   0  0  0  0  0  0  0  0  0  0  0  0
   29.3643  -15.0547   42.1440 C   0  0  0  0  0  0  0  0  0  0  0  0
   29.2614  -16.4151   42.3708 C   0  0  0  0  0  0  0  0  0  0  0  0
   28.6166  -19.0239   43.1720 C   0  0  0  0  0  0  0  0  0  0  0  0
   28.4500  -18.6025   41.8281 O   0  0  0  0  0  0  0  0  0  0  0  0
   33.6998  -11.1771   37.8154 C   0  0  0  0  0  0  0  0  0  0  0  0
   33.8377   -9.9046   37.1281 C   0  0  0  0  0  0  0  0  0  0  0  0
   34.9731   -9.5595   36.4442 C   0  0  0  0  0  0  0  0  0  0  0  0
   35.1350   -8.3390   35.7916 C   0  0  0  0  0  0  0  0  0  0  0  0
   34.1212   -7.4211   35.8202 C   0  0  0  0  0  0  0  0  0  0  0  0
   32.9709   -7.7481   36.5018 C   0  0  0  0  0  0  0  0  0  0  0  0
   32.8268   -8.9673   37.1461 C   0  0  0  0  0  0  0  0  0  0  0  0
   33.3618  -16.4937   35.1991 C   0  0  0  0  0  0  0  0  0  0  0  0
   32.9869  -17.8358   35.6174 C   0  0  0  0  0  0  0  0  0  0  0  0
   31.6945  -18.2792   35.8348 O   0  0  0  0  0  0  0  0  0  0  0  0
   33.8993  -18.7047   35.8092 O   0  0  0  0  0  0  0  0  0  0  0  0
   31.3425  -18.5613   36.7378 H   0  0  0  0  0  0  0  0  0  0  0  0
 60 61  1  0  0  0
 61 54  1  0  0  0
 54 55  2  0  0  0
 55 56  1  0  0  0
 56 57  2  0  0  0
 57 58  1  0  0  0
 58 59  2  0  0  0
 57 51  1  0  0  0
 51 52  2  0  0  0
 51 53  2  0  0  0
 51 46  1  0  0  0
 46 47  1  0  0  0
 47 48  1  0  0  0
 48 49  1  0  0  0
 49 50  1  0  0  0
 50 42  1  0  0  0
 42 43  2  0  0  0
 42 44  1  0  0  0
 44 41  1  0  0  0
 41 62  1  0  0  0
 62 63  1  0  0  0
 63 64  2  0  0  0
 64 65  1  0  0  0
 65 66  2  0  0  0
 66 67  1  0  0  0
 67 68  2  0  0  0
 41 37  1  0  0  0
 37 38  2  0  0  0
 37 39  1  0  0  0
 39  1  1  0  0  0
  1 69  1  0  0  0
 69 70  1  0  0  0
 70 71  1  0  0  0
 70 72  2  0  0  0
  1  2  1  0  0  0
  2  3  2  0  0  0
  2  4  1  0  0  0
  4  6  1  0  0  0
  6  7  1  0  0  0
  7  8  2  0  0  0
  7  9  1  0  0  0
  9 11  1  0  0  0
 11 32  1  0  0  0
 32 33  1  0  0  0
 33 34  1  0  0  0
 33 35  2  0  0  0
 11 12  1  0  0  0
 12 13  2  0  0  0
 12 14  1  0  0  0
 14 16  1  0  0  0
 16 27  1  0  0  0
 27 28  1  0  0  0
 28 29  1  0  0  0
 28 30  2  0  0  0
 16 17  1  0  0  0
 17 18  2  0  0  0
 17 19  1  0  0  0
 19 21  1  0  0  0
 21 22  1  0  0  0
 22 23  1  0  0  0
 22 24  2  0  0  0
 59 54  1  0  0  0
 50 46  1  0  0  0
 68 63  1  0  0  0
 44 45  1  0  0  0
 39 40  1  0  0  0
 71 73  1  0  0  0
  4  5  1  0  0  0
  9 10  1  0  0  0
 34 36  1  0  0  0
 14 15  1  0  0  0
 29 31  1  0  0  0
 19 20  1  0  0  0
 23 25  1  0  0  0
 23 26  1  0  0  0
M  END
> <minimizedAffinity>
-9.08074

> <CNNscore>
0.2702860534

> <CNNaffinity>
7.2053284645

> <CNN_VS>
1.9474997520

> <CNNaffinity_variance>
0.1083757132

$$$$
[H]OC(=O)C([H])([H])[C@@]([H])(C(=O)N([H])C([H])([H])C(=O)N([H])[H])N([H])C(=O)[C@@]([H])(N([H])C(=O)C([H])([H])N([H])C(=O)[C@@]([H])(N([H])C(=O)[C@@]([H])(N([H])C(=O)[C@@]1([H])N(S(=O)(=O)c2c([H])c([H])c(OC([H])([H])[H])c([H])c2[H])C([H])([H])C([H])([H])C1([H])[H])C([H])([H])c1c([H])c([H])c([H])c([H])c1[H])C([H])([H])C(=O)O[H])C([H])([H])C(=O)O[H]


 73 75  0  0  0  0  0  0  0  0999 V2000
   35.2334  -13.5746   36.2922 C   0  0  0  0  0  0  0  0  0  0  0  0
   34.5812  -14.8544   35.8977 C   0  0  0  0  0  0  0  0  0  0  0  0
   33.3817  -14.9215   35.5467 O   0  0  0  0  0  0  0  0  0  0  0  0
   35.3385  -16.0561   35.9166 N   0  0  0  0  0  0  0  0  0  0  0  0
   36.3606  -15.9571   36.2217 H   0  0  0  0  0  0  0  0  0  0  0  0
   34.8393  -17.3550   35.5663 C   0  0  0  0  0  0  0  0  0  0  0  0
   35.8969  -18.2886   35.0679 C   0  0  0  0  0  0  0  0  0  0  0  0
   35.6028  -19.3334   34.4318 O   0  0  0  0  0  0  0  0  0  0  0  0
   37.2457  -17.9944   35.3149 N   0  0  0  0  0  0  0  0  0  0  0  0
   37.5420  -17.1602   35.8337 H   0  0  0  0  0  0  0  0  0  0  0  0
   38.2757  -18.9201   34.8092 C   0  0  0  0  0  0  0  0  0  0  0  0
   39.2479  -19.1561   35.8710 C   0  0  0  0  0  0  0  0  0  0  0  0
   38.7720  -19.2453   37.0710 O   0  0  0  0  0  0  0  0  0  0  0  0
   40.6345  -19.3005   35.7366 N   0  0  0  0  0  0  0  0  0  0  0  0
   41.1361  -19.2427   34.8532 H   0  0  0  0  0  0  0  0  0  0  0  0
   41.5100  -19.5641   36.9207 C   0  0  0  0  0  0  0  0  0  0  0  0
   42.3621  -18.3952   37.0120 C   0  0  0  0  0  0  0  0  0  0  0  0
   42.9736  -18.2066   38.1231 O   0  0  0  0  0  0  0  0  0  0  0  0
   42.5801  -17.4474   35.9975 N   0  0  0  0  0  0  0  0  0  0  0  0
   42.1499  -17.4567   35.0586 H   0  0  0  0  0  0  0  0  0  0  0  0
   43.4851  -16.3091   36.2145 C   0  0  0  0  0  0  0  0  0  0  0  0
   44.1209  -15.9666   34.9311 C   0  0  0  0  0  0  0  0  0  0  0  0
   44.0783  -16.9460   33.8961 N   0  0  0  0  0  0  0  0  0  0  0  0
   44.6949  -14.8888   34.6746 O   0  0  0  0  0  0  0  0  0  0  0  0
   43.1409  -17.3151   33.6126 H   0  0  0  0  0  0  0  0  0  0  0  0
   44.9507  -17.2676   33.4552 H   0  0  0  0  0  0  0  0  0  0  0  0
   42.1767  -20.8525   36.5996 C   0  0  0  0  0  0  0  0  0  0  0  0
   41.9274  -21.4107   35.2583 C   0  0  0  0  0  0  0  0  0  0  0  0
   42.6575  -20.9414   34.1496 O   0  0  0  0  0  0  0  0  0  0  0  0
   41.0788  -22.3003   35.0762 O   0  0  0  0  0  0  0  0  0  0  0  0
   42.5996  -21.4240   33.2573 H   0  0  0  0  0  0  0  0  0  0  0  0
   38.7842  -18.3057   33.5465 C   0  0  0  0  0  0  0  0  0  0  0  0
   40.0720  -18.8527   33.1495 C   0  0  0  0  0  0  0  0  0  0  0  0
   41.2326  -18.1225   33.2338 O   0  0  0  0  0  0  0  0  0  0  0  0
   40.0975  -20.0482   32.7130 O   0  0  0  0  0  0  0  0  0  0  0  0
   41.1705  -17.0975   33.1848 H   0  0  0  0  0  0  0  0  0  0  0  0
   33.4464  -12.3172   37.4541 C   0  0  0  0  0  0  0  0  0  0  0  0
   33.5203  -13.1273   38.4016 O   0  0  0  0  0  0  0  0  0  0  0  0
   34.2989  -12.4880   36.3432 N   0  0  0  0  0  0  0  0  0  0  0  0
   34.2462  -11.8200   35.5608 H   0  0  0  0  0  0  0  0  0  0  0  0
   32.4527  -11.2052   37.5503 C   0  0  0  0  0  0  0  0  0  0  0  0
   30.0631  -11.4692   38.2819 C   0  0  0  0  0  0  0  0  0  0  0  0
   29.7994  -10.9575   37.0895 O   0  0  0  0  0  0  0  0  0  0  0  0
   31.4366  -11.5774   38.5059 N   0  0  0  0  0  0  0  0  0  0  0  0
   31.8011  -11.9594   39.3961 H   0  0  0  0  0  0  0  0  0  0  0  0
   28.4412  -11.1292   40.1783 N   0  0  0  0  0  0  0  0  0  0  0  0
   27.4439  -12.1514   40.6254 C   0  0  0  0  0  0  0  0  0  0  0  0
   26.6960  -12.4815   39.3591 C   0  0  0  0  0  0  0  0  0  0  0  0
   27.6303  -12.1045   38.2304 C   0  0  0  0  0  0  0  0  0  0  0  0
   28.8902  -11.7831   39.0239 C   0  0  0  0  0  0  0  0  0  0  0  0
   27.6618   -9.6292   40.0147 S   0  0  0  0  0  0  0  0  0  0  0  0
   26.4398   -9.6548   39.1445 O   0  0  0  0  0  0  0  0  0  0  0  0
   28.6550   -8.6092   39.5310 O   0  0  0  0  0  0  0  0  0  0  0  0
   26.1882   -8.1399   44.0093 C   0  0  0  0  0  0  0  0  0  0  0  0
   25.3809   -7.9838   42.9113 C   0  0  0  0  0  0  0  0  0  0  0  0
   25.8692   -8.4505   41.7106 C   0  0  0  0  0  0  0  0  0  0  0  0
   27.0936   -9.0444   41.5859 C   0  0  0  0  0  0  0  0  0  0  0  0
   27.8885   -9.1950   42.6799 C   0  0  0  0  0  0  0  0  0  0  0  0
   27.4201   -8.7345   43.8969 C   0  0  0  0  0  0  0  0  0  0  0  0
   24.9351   -6.5412   45.3402 C   0  0  0  0  0  0  0  0  0  0  0  0
   25.7640   -7.6901   45.2770 O   0  0  0  0  0  0  0  0  0  0  0  0
   33.2070   -9.9933   37.9959 C   0  0  0  0  0  0  0  0  0  0  0  0
   33.5501   -9.0137   36.9793 C   0  0  0  0  0  0  0  0  0  0  0  0
   34.8200   -8.8863   36.4822 C   0  0  0  0  0  0  0  0  0  0  0  0
   35.1765   -7.9439   35.5196 C   0  0  0  0  0  0  0  0  0  0  0  0
   34.2266   -7.0908   35.0290 C   0  0  0  0  0  0  0  0  0  0  0  0
   32.9434   -7.2022   35.5148 C   0  0  0  0  0  0  0  0  0  0  0  0
   32.6061   -8.1456   36.4732 C   0  0  0  0  0  0  0  0  0  0  0  0
   36.0032  -13.6877   37.5613 C   0  0  0  0  0  0  0  0  0  0  0  0
   37.3784  -14.1503   37.4532 C   0  0  0  0  0  0  0  0  0  0  0  0
   37.7728  -15.4608   37.2501 O   0  0  0  0  0  0  0  0  0  0  0  0
   38.3277  -13.3054   37.5481 O   0  0  0  0  0  0  0  0  0  0  0  0
   38.2897  -16.0025   37.9271 H   0  0  0  0  0  0  0  0  0  0  0  0
 60 61  1  0  0  0
 61 54  1  0  0  0
 54 55  2  0  0  0
 55 56  1  0  0  0
 56 57  2  0  0  0
 57 58  1  0  0  0
 58 59  2  0  0  0
 57 51  1  0  0  0
 51 52  2  0  0  0
 51 53  2  0  0  0
 51 46  1  0  0  0
 46 47  1  0  0  0
 47 48  1  0  0  0
 48 49  1  0  0  0
 49 50  1  0  0  0
 50 42  1  0  0  0
 42 43  2  0  0  0
 42 44  1  0  0  0
 44 41  1  0  0  0
 41 62  1  0  0  0
 62 63  1  0  0  0
 63 64  2  0  0  0
 64 65  1  0  0  0
 65 66  2  0  0  0
 66 67  1  0  0  0
 67 68  2  0  0  0
 41 37  1  0  0  0
 37 38  2  0  0  0
 37 39  1  0  0  0
 39  1  1  0  0  0
  1 69  1  0  0  0
 69 70  1  0  0  0
 70 71  1  0  0  0
 70 72  2  0  0  0
  1  2  1  0  0  0
  2  3  2  0  0  0
  2  4  1  0  0  0
  4  6  1  0  0  0
  6  7  1  0  0  0
  7  8  2  0  0  0
  7  9  1  0  0  0
  9 11  1  0  0  0
 11 32  1  0  0  0
 32 33  1  0  0  0
 33 34  1  0  0  0
 33 35  2  0  0  0
 11 12  1  0  0  0
 12 13  2  0  0  0
 12 14  1  0  0  0
 14 16  1  0  0  0
 16 27  1  0  0  0
 27 28  1  0  0  0
 28 29  1  0  0  0
 28 30  2  0  0  0
 16 17  1  0  0  0
 17 18  2  0  0  0
 17 19  1  0  0  0
 19 21  1  0  0  0
 21 22  1  0  0  0
 22 23  1  0  0  0
 22 24  2  0  0  0
 59 54  1  0  0  0
 50 46  1  0  0  0
 68 63  1  0  0  0
 44 45  1  0  0  0
 39 40  1  0  0  0
 71 73  1  0  0  0
  4  5  1  0  0  0
  9 10  1  0  0  0
 34 36  1  0  0  0
 14 15  1  0  0  0
 29 31  1  0  0  0
 19 20  1  0  0  0
 23 25  1  0  0  0
 23 26  1  0  0  0
M  END
> <minimizedAffinity>
-9.72113

> <CNNscore>
0.2676866353

> <CNNaffinity>
7.4419465065

> <CNN_VS>
1.9921096563

> <CNNaffinity_variance>
0.2969522476

$$$$
[H]OC(=O)C([H])([H])[C@@]([H])(C(=O)N([H])C([H])([H])C(=O)N([H])[H])N([H])C(=O)[C@@]([H])(N([H])C(=O)C([H])([H])N([H])C(=O)[C@@]([H])(N([H])C(=O)[C@@]([H])(N([H])C(=O)[C@@]1([H])N(S(=O)(=O)c2c([H])c([H])c(OC([H])([H])[H])c([H])c2[H])C([H])([H])C([H])([H])C1([H])[H])C([H])([H])c1c([H])c([H])c([H])c([H])c1[H])C([H])([H])C(=O)O[H])C([H])([H])C(=O)O[H]


 73 75  0  0  0  0  0  0  0  0999 V2000
   35.2600  -13.5257   36.2384 C   0  0  0  0  0  0  0  0  0  0  0  0
   34.7411  -14.8961   35.9707 C   0  0  0  0  0  0  0  0  0  0  0  0
   33.5194  -15.1480   35.8678 O   0  0  0  0  0  0  0  0  0  0  0  0
   35.6581  -15.9712   35.8249 N   0  0  0  0  0  0  0  0  0  0  0  0
   36.6940  -15.7151   35.9188 H   0  0  0  0  0  0  0  0  0  0  0  0
   35.2991  -17.3368   35.5695 C   0  0  0  0  0  0  0  0  0  0  0  0
   36.0508  -18.3208   36.4094 C   0  0  0  0  0  0  0  0  0  0  0  0
   36.7985  -17.9450   37.3489 O   0  0  0  0  0  0  0  0  0  0  0  0
   35.9206  -19.6917   36.1445 N   0  0  0  0  0  0  0  0  0  0  0  0
   35.3300  -20.0534   35.3872 H   0  0  0  0  0  0  0  0  0  0  0  0
   36.6610  -20.6484   36.9872 C   0  0  0  0  0  0  0  0  0  0  0  0
   37.9278  -20.9578   36.3330 C   0  0  0  0  0  0  0  0  0  0  0  0
   38.1733  -22.2118   36.1289 O   0  0  0  0  0  0  0  0  0  0  0  0
   38.9034  -20.0516   35.8988 N   0  0  0  0  0  0  0  0  0  0  0  0
   38.8394  -19.0418   36.0063 H   0  0  0  0  0  0  0  0  0  0  0  0
   40.1516  -20.5159   35.2174 C   0  0  0  0  0  0  0  0  0  0  0  0
   41.2240  -19.8392   35.9193 C   0  0  0  0  0  0  0  0  0  0  0  0
   42.1445  -20.5754   36.4239 O   0  0  0  0  0  0  0  0  0  0  0  0
   41.3493  -18.4511   36.1007 N   0  0  0  0  0  0  0  0  0  0  0  0
   40.6844  -17.7350   35.7661 H   0  0  0  0  0  0  0  0  0  0  0  0
   42.4994  -17.8886   36.8234 C   0  0  0  0  0  0  0  0  0  0  0  0
   42.9692  -16.6963   36.0979 C   0  0  0  0  0  0  0  0  0  0  0  0
   42.7454  -16.6543   34.6906 N   0  0  0  0  0  0  0  0  0  0  0  0
   43.5481  -15.7186   36.6138 O   0  0  0  0  0  0  0  0  0  0  0  0
   41.7634  -16.7758   34.3494 H   0  0  0  0  0  0  0  0  0  0  0  0
   43.5356  -16.5095   34.0476 H   0  0  0  0  0  0  0  0  0  0  0  0
   39.9475  -20.1445   33.7933 C   0  0  0  0  0  0  0  0  0  0  0  0
   39.5425  -18.7531   33.5236 C   0  0  0  0  0  0  0  0  0  0  0  0
   40.5011  -17.8014   33.1264 O   0  0  0  0  0  0  0  0  0  0  0  0
   38.3588  -18.3913   33.6362 O   0  0  0  0  0  0  0  0  0  0  0  0
   40.2075  -16.8871   32.7943 H   0  0  0  0  0  0  0  0  0  0  0  0
   35.7229  -21.7861   37.2243 C   0  0  0  0  0  0  0  0  0  0  0  0
   34.3331  -21.3578   37.2388 C   0  0  0  0  0  0  0  0  0  0  0  0
   33.8183  -20.5831   38.2498 O   0  0  0  0  0  0  0  0  0  0  0  0
   33.5906  -21.7263   36.2726 O   0  0  0  0  0  0  0  0  0  0  0  0
   34.2600  -20.6319   39.1769 H   0  0  0  0  0  0  0  0  0  0  0  0
   33.4457  -12.3503   37.4431 C   0  0  0  0  0  0  0  0  0  0  0  0
   33.7016  -13.0351   38.4554 O   0  0  0  0  0  0  0  0  0  0  0  0
   34.2094  -12.5502   36.2740 N   0  0  0  0  0  0  0  0  0  0  0  0
   34.0063  -11.9847   35.4373 H   0  0  0  0  0  0  0  0  0  0  0  0
   32.3376  -11.3512   37.5268 C   0  0  0  0  0  0  0  0  0  0  0  0
   29.9553  -11.8054   38.1854 C   0  0  0  0  0  0  0  0  0  0  0  0
   29.6821  -11.2110   37.0343 O   0  0  0  0  0  0  0  0  0  0  0  0
   31.3290  -11.8568   38.4276 N   0  0  0  0  0  0  0  0  0  0  0  0
   31.7004  -12.2915   39.2904 H   0  0  0  0  0  0  0  0  0  0  0  0
   28.6980  -13.3574   39.7193 N   0  0  0  0  0  0  0  0  0  0  0  0
   27.2058  -13.4525   39.7807 C   0  0  0  0  0  0  0  0  0  0  0  0
   26.7784  -12.0277   40.0240 C   0  0  0  0  0  0  0  0  0  0  0  0
   27.9245  -11.1738   39.5275 C   0  0  0  0  0  0  0  0  0  0  0  0
   28.7903  -12.2437   38.8750 C   0  0  0  0  0  0  0  0  0  0  0  0
   29.3108  -13.2361   41.2986 S   0  0  0  0  0  0  0  0  0  0  0  0
   28.4902  -12.3829   42.2204 O   0  0  0  0  0  0  0  0  0  0  0  0
   30.7357  -12.7599   41.2379 O   0  0  0  0  0  0  0  0  0  0  0  0
   29.4427  -17.2784   43.2958 C   0  0  0  0  0  0  0  0  0  0  0  0
   29.6155  -16.1579   44.0681 C   0  0  0  0  0  0  0  0  0  0  0  0
   29.5700  -14.9436   43.4189 C   0  0  0  0  0  0  0  0  0  0  0  0
   29.3648  -14.8270   42.0729 C   0  0  0  0  0  0  0  0  0  0  0  0
   29.1947  -15.9434   41.3139 C   0  0  0  0  0  0  0  0  0  0  0  0
   29.2361  -17.1744   41.9430 C   0  0  0  0  0  0  0  0  0  0  0  0
   28.2590  -19.1117   44.3614 C   0  0  0  0  0  0  0  0  0  0  0  0
   29.4746  -18.5610   43.8815 O   0  0  0  0  0  0  0  0  0  0  0  0
   32.9420  -10.0820   38.0371 C   0  0  0  0  0  0  0  0  0  0  0  0
   33.4255   -9.1327   37.0493 C   0  0  0  0  0  0  0  0  0  0  0  0
   34.7303   -9.1071   36.6337 C   0  0  0  0  0  0  0  0  0  0  0  0
   35.2208   -8.1959   35.7004 C   0  0  0  0  0  0  0  0  0  0  0  0
   34.3748   -7.2694   35.1557 C   0  0  0  0  0  0  0  0  0  0  0  0
   33.0588   -7.2781   35.5594 C   0  0  0  0  0  0  0  0  0  0  0  0
   32.5876   -8.1918   36.4896 C   0  0  0  0  0  0  0  0  0  0  0  0
   36.1040  -13.4584   37.4627 C   0  0  0  0  0  0  0  0  0  0  0  0
   37.4875  -13.8882   37.3280 C   0  0  0  0  0  0  0  0  0  0  0  0
   37.9220  -15.2013   37.2909 O   0  0  0  0  0  0  0  0  0  0  0  0
   38.4051  -13.0090   37.2327 O   0  0  0  0  0  0  0  0  0  0  0  0
   38.5032  -15.6202   38.0020 H   0  0  0  0  0  0  0  0  0  0  0  0
 60 61  1  0  0  0
 61 54  1  0  0  0
 54 55  2  0  0  0
 55 56  1  0  0  0
 56 57  2  0  0  0
 57 58  1  0  0  0
 58 59  2  0  0  0
 57 51  1  0  0  0
 51 52  2  0  0  0
 51 53  2  0  0  0
 51 46  1  0  0  0
 46 47  1  0  0  0
 47 48  1  0  0  0
 48 49  1  0  0  0
 49 50  1  0  0  0
 50 42  1  0  0  0
 42 43  2  0  0  0
 42 44  1  0  0  0
 44 41  1  0  0  0
 41 62  1  0  0  0
 62 63  1  0  0  0
 63 64  2  0  0  0
 64 65  1  0  0  0
 65 66  2  0  0  0
 66 67  1  0  0  0
 67 68  2  0  0  0
 41 37  1  0  0  0
 37 38  2  0  0  0
 37 39  1  0  0  0
 39  1  1  0  0  0
  1 69  1  0  0  0
 69 70  1  0  0  0
 70 71  1  0  0  0
 70 72  2  0  0  0
  1  2  1  0  0  0
  2  3  2  0  0  0
  2  4  1  0  0  0
  4  6  1  0  0  0
  6  7  1  0  0  0
  7  8  2  0  0  0
  7  9  1  0  0  0
  9 11  1  0  0  0
 11 32  1  0  0  0
 32 33  1  0  0  0
 33 34  1  0  0  0
 33 35  2  0  0  0
 11 12  1  0  0  0
 12 13  2  0  0  0
 12 14  1  0  0  0
 14 16  1  0  0  0
 16 27  1  0  0  0
 27 28  1  0  0  0
 28 29  1  0  0  0
 28 30  2  0  0  0
 16 17  1  0  0  0
 17 18  2  0  0  0
 17 19  1  0  0  0
 19 21  1  0  0  0
 21 22  1  0  0  0
 22 23  1  0  0  0
 22 24  2  0  0  0
 59 54  1  0  0  0
 50 46  1  0  0  0
 68 63  1  0  0  0
 44 45  1  0  0  0
 39 40  1  0  0  0
 71 73  1  0  0  0
  4  5  1  0  0  0
  9 10  1  0  0  0
 34 36  1  0  0  0
 14 15  1  0  0  0
 29 31  1  0  0  0
 19 20  1  0  0  0
 23 25  1  0  0  0
 23 26  1  0  0  0
M  END
> <minimizedAffinity>
-9.60021

> <CNNscore>
0.2521574795

> <CNNaffinity>
7.4597129822

> <CNN_VS>
1.8810224533

> <CNNaffinity_variance>
0.0337493941

$$$$
[H]OC(=O)C([H])([H])[C@@]([H])(C(=O)N([H])C([H])([H])C(=O)N([H])[H])N([H])C(=O)[C@@]([H])(N([H])C(=O)C([H])([H])N([H])C(=O)[C@@]([H])(N([H])C(=O)[C@@]([H])(N([H])C(=O)[C@@]1([H])N(S(=O)(=O)c2c([H])c([H])c(OC([H])([H])[H])c([H])c2[H])C([H])([H])C([H])([H])C1([H])[H])C([H])([H])c1c([H])c([H])c([H])c([H])c1[H])C([H])([H])C(=O)O[H])C([H])([H])C(=O)O[H]


 73 75  0  0  0  0  0  0  0  0999 V2000
   35.2740  -13.5208   36.3053 C   0  0  0  0  0  0  0  0  0  0  0  0
   34.6232  -14.8327   36.0329 C   0  0  0  0  0  0  0  0  0  0  0  0
   33.4349  -14.9315   35.6524 O   0  0  0  0  0  0  0  0  0  0  0  0
   35.3686  -16.0291   36.2086 N   0  0  0  0  0  0  0  0  0  0  0  0
   36.3813  -15.9027   36.5342 H   0  0  0  0  0  0  0  0  0  0  0  0
   34.8691  -17.3559   35.9872 C   0  0  0  0  0  0  0  0  0  0  0  0
   35.5683  -18.4020   36.7969 C   0  0  0  0  0  0  0  0  0  0  0  0
   36.3797  -18.0931   37.7073 O   0  0  0  0  0  0  0  0  0  0  0  0
   35.3152  -19.7564   36.5360 N   0  0  0  0  0  0  0  0  0  0  0  0
   34.6684  -20.0650   35.8016 H   0  0  0  0  0  0  0  0  0  0  0  0
   36.0056  -20.7743   37.3489 C   0  0  0  0  0  0  0  0  0  0  0  0
   37.2646  -21.1138   36.6946 C   0  0  0  0  0  0  0  0  0  0  0  0
   37.5347  -22.3754   36.5965 O   0  0  0  0  0  0  0  0  0  0  0  0
   38.2089  -20.2293   36.1585 N   0  0  0  0  0  0  0  0  0  0  0  0
   38.1237  -19.2155   36.1777 H   0  0  0  0  0  0  0  0  0  0  0  0
   39.4523  -20.7257   35.4912 C   0  0  0  0  0  0  0  0  0  0  0  0
   40.5158  -19.9166   36.0525 C   0  0  0  0  0  0  0  0  0  0  0  0
   41.1018  -20.3707   37.0987 O   0  0  0  0  0  0  0  0  0  0  0  0
   40.9645  -18.6795   35.5590 N   0  0  0  0  0  0  0  0  0  0  0  0
   40.5839  -18.1821   34.7377 H   0  0  0  0  0  0  0  0  0  0  0  0
   42.0678  -17.9638   36.2163 C   0  0  0  0  0  0  0  0  0  0  0  0
   43.1799  -17.8395   35.2589 C   0  0  0  0  0  0  0  0  0  0  0  0
   42.9338  -18.2379   33.9125 N   0  0  0  0  0  0  0  0  0  0  0  0
   44.3213  -17.4141   35.5294 O   0  0  0  0  0  0  0  0  0  0  0  0
   42.1301  -17.7923   33.4114 H   0  0  0  0  0  0  0  0  0  0  0  0
   43.5363  -18.9422   33.4655 H   0  0  0  0  0  0  0  0  0  0  0  0
   39.1789  -20.5552   34.0408 C   0  0  0  0  0  0  0  0  0  0  0  0
   38.2418  -19.4810   33.6656 C   0  0  0  0  0  0  0  0  0  0  0  0
   36.8549  -19.7234   33.6553 O   0  0  0  0  0  0  0  0  0  0  0  0
   38.6482  -18.3481   33.3557 O   0  0  0  0  0  0  0  0  0  0  0  0
   36.2014  -18.9529   33.5470 H   0  0  0  0  0  0  0  0  0  0  0  0
   35.0174  -21.8786   37.5356 C   0  0  0  0  0  0  0  0  0  0  0  0
   33.7079  -21.5397   37.0011 C   0  0  0  0  0  0  0  0  0  0  0  0
   33.3337  -21.8709   35.7214 O   0  0  0  0  0  0  0  0  0  0  0  0
   32.9014  -20.9160   37.7632 O   0  0  0  0  0  0  0  0  0  0  0  0
   34.0682  -21.9865   35.0113 H   0  0  0  0  0  0  0  0  0  0  0  0
   33.4774  -12.2447   37.4313 C   0  0  0  0  0  0  0  0  0  0  0  0
   33.5646  -13.0207   38.4058 O   0  0  0  0  0  0  0  0  0  0  0  0
   34.3271  -12.4439   36.3232 N   0  0  0  0  0  0  0  0  0  0  0  0
   34.2634  -11.8040   35.5184 H   0  0  0  0  0  0  0  0  0  0  0  0
   32.4712  -11.1416   37.4937 C   0  0  0  0  0  0  0  0  0  0  0  0
   30.0842  -11.3870   38.2405 C   0  0  0  0  0  0  0  0  0  0  0  0
   29.8164  -10.8920   37.0421 O   0  0  0  0  0  0  0  0  0  0  0  0
   31.4585  -11.4963   38.4595 N   0  0  0  0  0  0  0  0  0  0  0  0
   31.8261  -11.8665   39.3535 H   0  0  0  0  0  0  0  0  0  0  0  0
   28.4821  -11.0252   40.1496 N   0  0  0  0  0  0  0  0  0  0  0  0
   27.4768  -12.0351   40.6067 C   0  0  0  0  0  0  0  0  0  0  0  0
   26.7147  -12.3585   39.3471 C   0  0  0  0  0  0  0  0  0  0  0  0
   27.6440  -11.9942   38.2101 C   0  0  0  0  0  0  0  0  0  0  0  0
   28.9140  -11.6861   38.9927 C   0  0  0  0  0  0  0  0  0  0  0  0
   27.7188   -9.5166   39.9899 S   0  0  0  0  0  0  0  0  0  0  0  0
   26.4107   -9.5559   39.2560 O   0  0  0  0  0  0  0  0  0  0  0  0
   28.6742   -8.5473   39.3509 O   0  0  0  0  0  0  0  0  0  0  0  0
   26.7556   -7.8042   44.0503 C   0  0  0  0  0  0  0  0  0  0  0  0
   27.4811   -8.9664   43.9826 C   0  0  0  0  0  0  0  0  0  0  0  0
   27.7519   -9.4565   42.7238 C   0  0  0  0  0  0  0  0  0  0  0  0
   27.3326   -8.8391   41.5791 C   0  0  0  0  0  0  0  0  0  0  0  0
   26.6131   -7.6868   41.6550 C   0  0  0  0  0  0  0  0  0  0  0  0
   26.3285   -7.1748   42.9078 C   0  0  0  0  0  0  0  0  0  0  0  0
   26.1231   -5.8519   45.3487 C   0  0  0  0  0  0  0  0  0  0  0  0
   26.4351   -7.2344   45.3000 O   0  0  0  0  0  0  0  0  0  0  0  0
   33.2114   -9.9084   37.9031 C   0  0  0  0  0  0  0  0  0  0  0  0
   33.4224   -8.8923   36.8864 C   0  0  0  0  0  0  0  0  0  0  0  0
   32.3850   -8.2358   36.2791 C   0  0  0  0  0  0  0  0  0  0  0  0
   32.5617   -7.2700   35.2903 C   0  0  0  0  0  0  0  0  0  0  0  0
   33.8274   -6.9421   34.8885 C   0  0  0  0  0  0  0  0  0  0  0  0
   34.8846   -7.5899   35.4866 C   0  0  0  0  0  0  0  0  0  0  0  0
   34.6906   -8.5489   36.4688 C   0  0  0  0  0  0  0  0  0  0  0  0
   36.1026  -13.5347   37.5420 C   0  0  0  0  0  0  0  0  0  0  0  0
   37.4693  -14.0156   37.4084 C   0  0  0  0  0  0  0  0  0  0  0  0
   37.8525  -15.3436   37.3468 O   0  0  0  0  0  0  0  0  0  0  0  0
   38.4213  -13.1712   37.3384 O   0  0  0  0  0  0  0  0  0  0  0  0
   38.4110  -15.7997   38.0532 H   0  0  0  0  0  0  0  0  0  0  0  0
 60 61  1  0  0  0
 61 54  1  0  0  0
 54 55  2  0  0  0
 55 56  1  0  0  0
 56 57  2  0  0  0
 57 58  1  0  0  0
 58 59  2  0  0  0
 57 51  1  0  0  0
 51 52  2  0  0  0
 51 53  2  0  0  0
 51 46  1  0  0  0
 46 47  1  0  0  0
 47 48  1  0  0  0
 48 49  1  0  0  0
 49 50  1  0  0  0
 50 42  1  0  0  0
 42 43  2  0  0  0
 42 44  1  0  0  0
 44 41  1  0  0  0
 41 62  1  0  0  0
 62 63  1  0  0  0
 63 64  2  0  0  0
 64 65  1  0  0  0
 65 66  2  0  0  0
 66 67  1  0  0  0
 67 68  2  0  0  0
 41 37  1  0  0  0
 37 38  2  0  0  0
 37 39  1  0  0  0
 39  1  1  0  0  0
  1 69  1  0  0  0
 69 70  1  0  0  0
 70 71  1  0  0  0
 70 72  2  0  0  0
  1  2  1  0  0  0
  2  3  2  0  0  0
  2  4  1  0  0  0
  4  6  1  0  0  0
  6  7  1  0  0  0
  7  8  2  0  0  0
  7  9  1  0  0  0
  9 11  1  0  0  0
 11 32  1  0  0  0
 32 33  1  0  0  0
 33 34  1  0  0  0
 33 35  2  0  0  0
 11 12  1  0  0  0
 12 13  2  0  0  0
 12 14  1  0  0  0
 14 16  1  0  0  0
 16 27  1  0  0  0
 27 28  1  0  0  0
 28 29  1  0  0  0
 28 30  2  0  0  0
 16 17  1  0  0  0
 17 18  2  0  0  0
 17 19  1  0  0  0
 19 21  1  0  0  0
 21 22  1  0  0  0
 22 23  1  0  0  0
 22 24  2  0  0  0
 59 54  1  0  0  0
 50 46  1  0  0  0
 68 63  1  0  0  0
 44 45  1  0  0  0
 39 40  1  0  0  0
 71 73  1  0  0  0
  4  5  1  0  0  0
  9 10  1  0  0  0
 34 36  1  0  0  0
 14 15  1  0  0  0
 29 31  1  0  0  0
 19 20  1  0  0  0
 23 25  1  0  0  0
 23 26  1  0  0  0
M  END
> <minimizedAffinity>
-9.77004

> <CNNscore>
0.1513090134

> <CNNaffinity>
7.2485632896

> <CNN_VS>
1.0967729092

> <CNNaffinity_variance>
0.1329006404

$$$$
[H]OC(=O)C([H])([H])[C@@]([H])(C(=O)N([H])C([H])([H])C(=O)N([H])[H])N([H])C(=O)[C@@]([H])(N([H])C(=O)C([H])([H])N([H])C(=O)[C@@]([H])(N([H])C(=O)[C@@]([H])(N([H])C(=O)[C@@]1([H])N(S(=O)(=O)c2c([H])c([H])c(OC([H])([H])[H])c([H])c2[H])C([H])([H])C([H])([H])C1([H])[H])C([H])([H])c1c([H])c([H])c([H])c([H])c1[H])C([H])([H])C(=O)O[H])C([H])([H])C(=O)O[H]


 73 75  0  0  0  0  0  0  0  0999 V2000
   33.8047  -15.7117   36.0011 C   0  0  0  0  0  0  0  0  0  0  0  0
   35.2881  -15.7121   36.1369 C   0  0  0  0  0  0  0  0  0  0  0  0
   36.0136  -14.8285   35.6275 O   0  0  0  0  0  0  0  0  0  0  0  0
   35.9195  -16.7518   36.8706 N   0  0  0  0  0  0  0  0  0  0  0  0
   35.2648  -17.4880   37.2914 H   0  0  0  0  0  0  0  0  0  0  0  0
   37.3337  -16.8781   37.0777 C   0  0  0  0  0  0  0  0  0  0  0  0
   37.8634  -18.2446   36.7761 C   0  0  0  0  0  0  0  0  0  0  0  0
   37.4574  -19.2581   37.4012 O   0  0  0  0  0  0  0  0  0  0  0  0
   38.8340  -18.4004   35.7759 N   0  0  0  0  0  0  0  0  0  0  0  0
   39.2054  -17.6082   35.2397 H   0  0  0  0  0  0  0  0  0  0  0  0
   39.3389  -19.7547   35.4851 C   0  0  0  0  0  0  0  0  0  0  0  0
   40.7958  -19.7038   35.4296 C   0  0  0  0  0  0  0  0  0  0  0  0
   41.3789  -20.6918   34.8311 O   0  0  0  0  0  0  0  0  0  0  0  0
   41.6314  -18.7058   35.9466 N   0  0  0  0  0  0  0  0  0  0  0  0
   41.3033  -17.8825   36.4465 H   0  0  0  0  0  0  0  0  0  0  0  0
   43.1178  -18.7757   35.7929 C   0  0  0  0  0  0  0  0  0  0  0  0
   43.6260  -18.7648   37.1503 C   0  0  0  0  0  0  0  0  0  0  0  0
   44.8864  -18.9457   37.3010 O   0  0  0  0  0  0  0  0  0  0  0  0
   42.8667  -18.5764   38.3179 N   0  0  0  0  0  0  0  0  0  0  0  0
   41.8446  -18.4333   38.3581 H   0  0  0  0  0  0  0  0  0  0  0  0
   43.5099  -18.5727   39.6400 C   0  0  0  0  0  0  0  0  0  0  0  0
   42.6993  -19.3928   40.5560 C   0  0  0  0  0  0  0  0  0  0  0  0
   42.6973  -20.8029   40.3463 N   0  0  0  0  0  0  0  0  0  0  0  0
   42.0128  -18.9548   41.5014 O   0  0  0  0  0  0  0  0  0  0  0  0
   43.6211  -21.2948   40.3319 H   0  0  0  0  0  0  0  0  0  0  0  0
   41.8076  -21.3027   40.2145 H   0  0  0  0  0  0  0  0  0  0  0  0
   43.4510  -17.6010   34.9463 C   0  0  0  0  0  0  0  0  0  0  0  0
   43.4743  -16.2879   35.6157 C   0  0  0  0  0  0  0  0  0  0  0  0
   42.3828  -15.8759   36.4039 O   0  0  0  0  0  0  0  0  0  0  0  0
   44.4476  -15.5229   35.5040 O   0  0  0  0  0  0  0  0  0  0  0  0
   42.4561  -15.0463   36.9860 H   0  0  0  0  0  0  0  0  0  0  0  0
   38.6265  -20.1928   34.2477 C   0  0  0  0  0  0  0  0  0  0  0  0
   37.9133  -19.0985   33.6082 C   0  0  0  0  0  0  0  0  0  0  0  0
   36.5444  -18.9920   33.6566 O   0  0  0  0  0  0  0  0  0  0  0  0
   38.6023  -18.2248   32.9898 O   0  0  0  0  0  0  0  0  0  0  0  0
   35.9909  -19.8500   33.7775 H   0  0  0  0  0  0  0  0  0  0  0  0
   33.4499  -13.6465   37.3175 C   0  0  0  0  0  0  0  0  0  0  0  0
   34.1213  -14.1459   38.2444 O   0  0  0  0  0  0  0  0  0  0  0  0
   33.2523  -14.3955   36.1387 N   0  0  0  0  0  0  0  0  0  0  0  0
   32.7036  -13.9868   35.3685 H   0  0  0  0  0  0  0  0  0  0  0  0
   32.8894  -12.2746   37.5101 C   0  0  0  0  0  0  0  0  0  0  0  0
   30.6328  -12.2174   38.6145 C   0  0  0  0  0  0  0  0  0  0  0  0
   30.1937  -12.1097   37.3701 O   0  0  0  0  0  0  0  0  0  0  0  0
   32.0259  -12.2884   38.6670 N   0  0  0  0  0  0  0  0  0  0  0  0
   32.5197  -12.3738   39.5726 H   0  0  0  0  0  0  0  0  0  0  0  0
   29.1260  -11.1513   40.3279 N   0  0  0  0  0  0  0  0  0  0  0  0
   28.3370  -11.9145   41.3451 C   0  0  0  0  0  0  0  0  0  0  0  0
   27.5561  -12.8971   40.5105 C   0  0  0  0  0  0  0  0  0  0  0  0
   28.3321  -13.0336   39.2188 C   0  0  0  0  0  0  0  0  0  0  0  0
   29.5828  -12.2402   39.5746 C   0  0  0  0  0  0  0  0  0  0  0  0
   28.1120  -10.0117   39.5814 S   0  0  0  0  0  0  0  0  0  0  0  0
   27.3138  -10.5490   38.4301 O   0  0  0  0  0  0  0  0  0  0  0  0
   28.9313   -8.8204   39.1687 O   0  0  0  0  0  0  0  0  0  0  0  0
   25.0664   -8.4333   42.5105 C   0  0  0  0  0  0  0  0  0  0  0  0
   26.3981   -8.3026   42.8128 C   0  0  0  0  0  0  0  0  0  0  0  0
   27.2950   -8.7994   41.8926 C   0  0  0  0  0  0  0  0  0  0  0  0
   26.9094   -9.3987   40.7266 C   0  0  0  0  0  0  0  0  0  0  0  0
   25.5865   -9.5248   40.4345 C   0  0  0  0  0  0  0  0  0  0  0  0
   24.6665   -9.0335   41.3428 C   0  0  0  0  0  0  0  0  0  0  0  0
   24.4602   -7.6781   44.7376 C   0  0  0  0  0  0  0  0  0  0  0  0
   24.0822   -7.9512   43.3982 O   0  0  0  0  0  0  0  0  0  0  0  0
   34.0551  -11.3587   37.7069 C   0  0  0  0  0  0  0  0  0  0  0  0
   33.9641  -10.0327   37.1200 C   0  0  0  0  0  0  0  0  0  0  0  0
   32.8355   -9.2630   37.2180 C   0  0  0  0  0  0  0  0  0  0  0  0
   32.7188   -7.9960   36.6498 C   0  0  0  0  0  0  0  0  0  0  0  0
   33.7728   -7.4711   35.9537 C   0  0  0  0  0  0  0  0  0  0  0  0
   34.9171   -8.2282   35.8435 C   0  0  0  0  0  0  0  0  0  0  0  0
   35.0159   -9.4875   36.4149 C   0  0  0  0  0  0  0  0  0  0  0  0
   33.3411  -16.3659   34.7469 C   0  0  0  0  0  0  0  0  0  0  0  0
   32.9562  -17.7657   34.8428 C   0  0  0  0  0  0  0  0  0  0  0  0
   31.9676  -18.2736   35.6669 O   0  0  0  0  0  0  0  0  0  0  0  0
   33.5579  -18.6267   34.1212 O   0  0  0  0  0  0  0  0  0  0  0  0
   32.1463  -18.9047   36.4342 H   0  0  0  0  0  0  0  0  0  0  0  0
 60 61  1  0  0  0
 61 54  1  0  0  0
 54 55  2  0  0  0
 55 56  1  0  0  0
 56 57  2  0  0  0
 57 58  1  0  0  0
 58 59  2  0  0  0
 57 51  1  0  0  0
 51 52  2  0  0  0
 51 53  2  0  0  0
 51 46  1  0  0  0
 46 47  1  0  0  0
 47 48  1  0  0  0
 48 49  1  0  0  0
 49 50  1  0  0  0
 50 42  1  0  0  0
 42 43  2  0  0  0
 42 44  1  0  0  0
 44 41  1  0  0  0
 41 62  1  0  0  0
 62 63  1  0  0  0
 63 64  2  0  0  0
 64 65  1  0  0  0
 65 66  2  0  0  0
 66 67  1  0  0  0
 67 68  2  0  0  0
 41 37  1  0  0  0
 37 38  2  0  0  0
 37 39  1  0  0  0
 39  1  1  0  0  0
  1 69  1  0  0  0
 69 70  1  0  0  0
 70 71  1  0  0  0
 70 72  2  0  0  0
  1  2  1  0  0  0
  2  3  2  0  0  0
  2  4  1  0  0  0
  4  6  1  0  0  0
  6  7  1  0  0  0
  7  8  2  0  0  0
  7  9  1  0  0  0
  9 11  1  0  0  0
 11 32  1  0  0  0
 32 33  1  0  0  0
 33 34  1  0  0  0
 33 35  2  0  0  0
 11 12  1  0  0  0
 12 13  2  0  0  0
 12 14  1  0  0  0
 14 16  1  0  0  0
 16 27  1  0  0  0
 27 28  1  0  0  0
 28 29  1  0  0  0
 28 30  2  0  0  0
 16 17  1  0  0  0
 17 18  2  0  0  0
 17 19  1  0  0  0
 19 21  1  0  0  0
 21 22  1  0  0  0
 22 23  1  0  0  0
 22 24  2  0  0  0
 59 54  1  0  0  0
 50 46  1  0  0  0
 68 63  1  0  0  0
 44 45  1  0  0  0
 39 40  1  0  0  0
 71 73  1  0  0  0
  4  5  1  0  0  0
  9 10  1  0  0  0
 34 36  1  0  0  0
 14 15  1  0  0  0
 29 31  1  0  0  0
 19 20  1  0  0  0
 23 25  1  0  0  0
 23 26  1  0  0  0
M  END
> <minimizedAffinity>
-8.79030

> <CNNscore>
0.1359654367

> <CNNaffinity>
6.8710775375

> <CNN_VS>
0.9342290759

> <CNNaffinity_variance>
0.2561057806

$$$$
[H]OC(=O)C([H])([H])[C@@]([H])(C(=O)N([H])C([H])([H])C(=O)N([H])[H])N([H])C(=O)[C@@]([H])(N([H])C(=O)C([H])([H])N([H])C(=O)[C@@]([H])(N([H])C(=O)[C@@]([H])(N([H])C(=O)[C@@]1([H])N(S(=O)(=O)c2c([H])c([H])c(OC([H])([H])[H])c([H])c2[H])C([H])([H])C([H])([H])C1([H])[H])C([H])([H])c1c([H])c([H])c([H])c([H])c1[H])C([H])([H])C(=O)O[H])C([H])([H])C(=O)O[H]


 73 75  0  0  0  0  0  0  0  0999 V2000
   35.3182  -14.9223   37.4840 C   0  0  0  0  0  0  0  0  0  0  0  0
   34.4751  -13.7801   37.0330 C   0  0  0  0  0  0  0  0  0  0  0  0
   34.1739  -13.5953   35.8322 O   0  0  0  0  0  0  0  0  0  0  0  0
   33.9864  -12.8542   37.9930 N   0  0  0  0  0  0  0  0  0  0  0  0
   34.2651  -13.0470   39.0092 H   0  0  0  0  0  0  0  0  0  0  0  0
   33.1702  -11.7109   37.7000 C   0  0  0  0  0  0  0  0  0  0  0  0
   31.7052  -12.0136   37.6672 C   0  0  0  0  0  0  0  0  0  0  0  0
   31.1178  -12.2965   36.5913 O   0  0  0  0  0  0  0  0  0  0  0  0
   30.9696  -11.9809   38.8608 N   0  0  0  0  0  0  0  0  0  0  0  0
   31.3960  -11.7500   39.7651 H   0  0  0  0  0  0  0  0  0  0  0  0
   29.5290  -12.2903   38.8124 C   0  0  0  0  0  0  0  0  0  0  0  0
   28.7829  -11.0427   38.9366 C   0  0  0  0  0  0  0  0  0  0  0  0
   29.2727  -10.0204   38.3128 O   0  0  0  0  0  0  0  0  0  0  0  0
   27.5968  -10.8296   39.6502 N   0  0  0  0  0  0  0  0  0  0  0  0
   27.1137  -11.5442   40.1900 H   0  0  0  0  0  0  0  0  0  0  0  0
   26.9268   -9.4922   39.6686 C   0  0  0  0  0  0  0  0  0  0  0  0
   27.1767   -8.9770   41.0001 C   0  0  0  0  0  0  0  0  0  0  0  0
   28.1942   -9.4458   41.6237 O   0  0  0  0  0  0  0  0  0  0  0  0
   26.4072   -8.0126   41.6733 N   0  0  0  0  0  0  0  0  0  0  0  0
   25.5560   -7.5556   41.3083 H   0  0  0  0  0  0  0  0  0  0  0  0
   26.7792   -7.5629   43.0227 C   0  0  0  0  0  0  0  0  0  0  0  0
   26.4745   -6.1267   43.1370 C   0  0  0  0  0  0  0  0  0  0  0  0
   27.2082   -5.2323   42.3040 N   0  0  0  0  0  0  0  0  0  0  0  0
   25.6264   -5.6273   43.9040 O   0  0  0  0  0  0  0  0  0  0  0  0
   27.1917   -5.4034   41.2715 H   0  0  0  0  0  0  0  0  0  0  0  0
   27.7314   -4.4510   42.7222 H   0  0  0  0  0  0  0  0  0  0  0  0
   25.5128   -9.7896   39.3227 C   0  0  0  0  0  0  0  0  0  0  0  0
   25.1647  -11.2079   39.1219 C   0  0  0  0  0  0  0  0  0  0  0  0
   25.3111  -11.7997   37.8528 O   0  0  0  0  0  0  0  0  0  0  0  0
   24.7412  -11.9079   40.0576 O   0  0  0  0  0  0  0  0  0  0  0  0
   25.2192  -12.8057   37.7435 H   0  0  0  0  0  0  0  0  0  0  0  0
   29.3037  -13.3246   39.8660 C   0  0  0  0  0  0  0  0  0  0  0  0
   29.8189  -12.9100   41.1614 C   0  0  0  0  0  0  0  0  0  0  0  0
   31.1585  -12.9556   41.4629 O   0  0  0  0  0  0  0  0  0  0  0  0
   28.9814  -12.4962   42.0261 O   0  0  0  0  0  0  0  0  0  0  0  0
   31.7492  -13.6344   40.9655 H   0  0  0  0  0  0  0  0  0  0  0  0
   35.8983  -17.2011   36.7128 C   0  0  0  0  0  0  0  0  0  0  0  0
   35.9770  -17.5629   37.9054 O   0  0  0  0  0  0  0  0  0  0  0  0
   35.5617  -15.8613   36.4277 N   0  0  0  0  0  0  0  0  0  0  0  0
   35.4903  -15.5581   35.4458 H   0  0  0  0  0  0  0  0  0  0  0  0
   36.1670  -18.2140   35.6474 C   0  0  0  0  0  0  0  0  0  0  0  0
   38.3798  -18.6820   34.5519 C   0  0  0  0  0  0  0  0  0  0  0  0
   37.7006  -18.4723   33.4349 O   0  0  0  0  0  0  0  0  0  0  0  0
   37.5690  -18.5568   35.6812 N   0  0  0  0  0  0  0  0  0  0  0  0
   37.9565  -18.6938   36.6312 H   0  0  0  0  0  0  0  0  0  0  0  0
   40.7670  -19.0025   35.2874 N   0  0  0  0  0  0  0  0  0  0  0  0
   41.9423  -18.9825   34.3611 C   0  0  0  0  0  0  0  0  0  0  0  0
   41.5798  -20.0112   33.3208 C   0  0  0  0  0  0  0  0  0  0  0  0
   40.0716  -20.1206   33.3718 C   0  0  0  0  0  0  0  0  0  0  0  0
   39.7535  -18.9727   34.3212 C   0  0  0  0  0  0  0  0  0  0  0  0
   40.8852  -20.3583   36.3033 S   0  0  0  0  0  0  0  0  0  0  0  0
   41.8692  -21.3945   35.8457 O   0  0  0  0  0  0  0  0  0  0  0  0
   39.5166  -20.9514   36.4930 O   0  0  0  0  0  0  0  0  0  0  0  0
   42.2979  -19.1286   40.4068 C   0  0  0  0  0  0  0  0  0  0  0  0
   42.9035  -18.5718   39.3091 C   0  0  0  0  0  0  0  0  0  0  0  0
   42.4436  -18.9757   38.0749 C   0  0  0  0  0  0  0  0  0  0  0  0
   41.4355  -19.8847   37.9177 C   0  0  0  0  0  0  0  0  0  0  0  0
   40.8402  -20.4327   39.0117 C   0  0  0  0  0  0  0  0  0  0  0  0
   41.2845  -20.0428   40.2620 C   0  0  0  0  0  0  0  0  0  0  0  0
   42.2881  -19.5798   42.7930 C   0  0  0  0  0  0  0  0  0  0  0  0
   42.7082  -18.7695   41.7075 O   0  0  0  0  0  0  0  0  0  0  0  0
   35.3055  -19.3974   35.9534 C   0  0  0  0  0  0  0  0  0  0  0  0
   33.9790  -19.4240   35.3614 C   0  0  0  0  0  0  0  0  0  0  0  0
   33.6852  -20.1733   34.2532 C   0  0  0  0  0  0  0  0  0  0  0  0
   32.4255  -20.2020   33.6581 C   0  0  0  0  0  0  0  0  0  0  0  0
   31.4127  -19.4522   34.1901 C   0  0  0  0  0  0  0  0  0  0  0  0
   31.6867  -18.6920   35.3045 C   0  0  0  0  0  0  0  0  0  0  0  0
   32.9462  -18.6749   35.8837 C   0  0  0  0  0  0  0  0  0  0  0  0
   36.5891  -14.4830   38.1225 C   0  0  0  0  0  0  0  0  0  0  0  0
   37.4401  -13.5962   37.3439 C   0  0  0  0  0  0  0  0  0  0  0  0
   37.0842  -12.9737   36.1606 O   0  0  0  0  0  0  0  0  0  0  0  0
   38.6203  -13.3474   37.7555 O   0  0  0  0  0  0  0  0  0  0  0  0
   37.5184  -13.1701   35.2707 H   0  0  0  0  0  0  0  0  0  0  0  0
 60 61  1  0  0  0
 61 54  1  0  0  0
 54 55  2  0  0  0
 55 56  1  0  0  0
 56 57  2  0  0  0
 57 58  1  0  0  0
 58 59  2  0  0  0
 57 51  1  0  0  0
 51 52  2  0  0  0
 51 53  2  0  0  0
 51 46  1  0  0  0
 46 47  1  0  0  0
 47 48  1  0  0  0
 48 49  1  0  0  0
 49 50  1  0  0  0
 50 42  1  0  0  0
 42 43  2  0  0  0
 42 44  1  0  0  0
 44 41  1  0  0  0
 41 62  1  0  0  0
 62 63  1  0  0  0
 63 64  2  0  0  0
 64 65  1  0  0  0
 65 66  2  0  0  0
 66 67  1  0  0  0
 67 68  2  0  0  0
 41 37  1  0  0  0
 37 38  2  0  0  0
 37 39  1  0  0  0
 39  1  1  0  0  0
  1 69  1  0  0  0
 69 70  1  0  0  0
 70 71  1  0  0  0
 70 72  2  0  0  0
  1  2  1  0  0  0
  2  3  2  0  0  0
  2  4  1  0  0  0
  4  6  1  0  0  0
  6  7  1  0  0  0
  7  8  2  0  0  0
  7  9  1  0  0  0
  9 11  1  0  0  0
 11 32  1  0  0  0
 32 33  1  0  0  0
 33 34  1  0  0  0
 33 35  2  0  0  0
 11 12  1  0  0  0
 12 13  2  0  0  0
 12 14  1  0  0  0
 14 16  1  0  0  0
 16 27  1  0  0  0
 27 28  1  0  0  0
 28 29  1  0  0  0
 28 30  2  0  0  0
 16 17  1  0  0  0
 17 18  2  0  0  0
 17 19  1  0  0  0
 19 21  1  0  0  0
 21 22  1  0  0  0
 22 23  1  0  0  0
 22 24  2  0  0  0
 59 54  1  0  0  0
 50 46  1  0  0  0
 68 63  1  0  0  0
 44 45  1  0  0  0
 39 40  1  0  0  0
 71 73  1  0  0  0
  4  5  1  0  0  0
  9 10  1  0  0  0
 34 36  1  0  0  0
 14 15  1  0  0  0
 29 31  1  0  0  0
 19 20  1  0  0  0
 23 25  1  0  0  0
 23 26  1  0  0  0
M  END
> <minimizedAffinity>
-8.39738

> <CNNscore>
0.1290181279

> <CNNaffinity>
6.5744323730

> <CNN_VS>
0.8482209444

> <CNNaffinity_variance>
0.0460540280

$$$$
[H]OC(=O)C([H])([H])[C@@]([H])(C(=O)N([H])[C@]([H])(C(=O)O[H])C([H])([H])c1c([H])c([H])c(O[H])c([H])c1[H])N([H])C(=O)[C@@]([H])(N([H])C(=O)c1c([H])c(OC([H])([H])[H])c(OC([H])([H])[H])c(OC([H])([H])[H])c1[H])C([H])([H])c1c([H])c([H])c([H])c([H])c1[H]


 52 54  0  0  0  0  0  0  0  0999 V2000
   33.9393  -12.9114   37.4731 C   0  0  0  0  0  0  0  0  0  0  0  0
   34.1412  -13.5652   38.5168 O   0  0  0  0  0  0  0  0  0  0  0  0
   34.6147  -13.2771   36.2894 N   0  0  0  0  0  0  0  0  0  0  0  0
   34.4825  -12.7486   35.3792 H   0  0  0  0  0  0  0  0  0  0  0  0
   32.9969  -11.7511   37.4614 C   0  0  0  0  0  0  0  0  0  0  0  0
   30.4764  -11.5837   37.7669 C   0  0  0  0  0  0  0  0  0  0  0  0
   30.2825  -10.8428   36.7797 O   0  0  0  0  0  0  0  0  0  0  0  0
   31.7669  -12.0461   38.1228 N   0  0  0  0  0  0  0  0  0  0  0  0
   31.8085  -12.6841   38.9808 H   0  0  0  0  0  0  0  0  0  0  0  0
   28.1836  -13.5493   40.0626 C   0  0  0  0  0  0  0  0  0  0  0  0
   29.2819  -13.1321   39.2971 C   0  0  0  0  0  0  0  0  0  0  0  0
   29.2863  -11.9620   38.5619 C   0  0  0  0  0  0  0  0  0  0  0  0
   28.1459  -11.1944   38.6045 C   0  0  0  0  0  0  0  0  0  0  0  0
   27.0592  -11.5918   39.3508 C   0  0  0  0  0  0  0  0  0  0  0  0
   27.0567  -12.7664   40.0891 C   0  0  0  0  0  0  0  0  0  0  0  0
   25.9233  -13.1153   40.8294 O   0  0  0  0  0  0  0  0  0  0  0  0
   25.8919  -12.7676   42.2174 C   0  0  0  0  0  0  0  0  0  0  0  0
   25.8732  -10.8384   39.4174 O   0  0  0  0  0  0  0  0  0  0  0  0
   26.0070   -9.4598   39.6926 C   0  0  0  0  0  0  0  0  0  0  0  0
   29.0749  -15.8137   40.6816 C   0  0  0  0  0  0  0  0  0  0  0  0
   28.2837  -14.7125   40.7465 O   0  0  0  0  0  0  0  0  0  0  0  0
   33.7153  -10.5706   38.0316 C   0  0  0  0  0  0  0  0  0  0  0  0
   33.7430   -9.4074   37.1235 C   0  0  0  0  0  0  0  0  0  0  0  0
   34.9211   -9.1351   36.4447 C   0  0  0  0  0  0  0  0  0  0  0  0
   35.0109   -8.0612   35.5788 C   0  0  0  0  0  0  0  0  0  0  0  0
   33.9571   -7.2299   35.3536 C   0  0  0  0  0  0  0  0  0  0  0  0
   32.7647   -7.4910   36.0304 C   0  0  0  0  0  0  0  0  0  0  0  0
   32.6816   -8.5726   36.8998 C   0  0  0  0  0  0  0  0  0  0  0  0
   35.5366  -14.3902   36.2075 C   0  0  0  0  0  0  0  0  0  0  0  0
   34.7438  -15.6678   36.2450 C   0  0  0  0  0  0  0  0  0  0  0  0
   33.5267  -15.6241   36.0520 O   0  0  0  0  0  0  0  0  0  0  0  0
   35.4373  -16.8680   36.5005 N   0  0  0  0  0  0  0  0  0  0  0  0
   36.4747  -16.8976   36.6713 H   0  0  0  0  0  0  0  0  0  0  0  0
   34.7314  -18.1622   36.5438 C   0  0  0  0  0  0  0  0  0  0  0  0
   35.7229  -19.2388   36.7220 C   0  0  0  0  0  0  0  0  0  0  0  0
   36.1002  -20.0905   35.6925 O   0  0  0  0  0  0  0  0  0  0  0  0
   36.2531  -19.4072   37.8412 O   0  0  0  0  0  0  0  0  0  0  0  0
   35.4300  -20.4351   34.9996 H   0  0  0  0  0  0  0  0  0  0  0  0
   33.9409  -18.2340   35.2865 C   0  0  0  0  0  0  0  0  0  0  0  0
   32.6983  -18.9985   35.3215 C   0  0  0  0  0  0  0  0  0  0  0  0
   32.6083  -20.1528   36.1073 C   0  0  0  0  0  0  0  0  0  0  0  0
   31.4290  -20.8567   36.1518 C   0  0  0  0  0  0  0  0  0  0  0  0
   30.2978  -20.4993   35.4606 C   0  0  0  0  0  0  0  0  0  0  0  0
   29.1125  -21.2305   35.5156 O   0  0  0  0  0  0  0  0  0  0  0  0
   30.3859  -19.3472   34.6752 C   0  0  0  0  0  0  0  0  0  0  0  0
   31.5620  -18.6336   34.6218 C   0  0  0  0  0  0  0  0  0  0  0  0
   29.0249  -21.9746   34.8070 H   0  0  0  0  0  0  0  0  0  0  0  0
   36.5073  -14.3762   37.3500 C   0  0  0  0  0  0  0  0  0  0  0  0
   37.5129  -13.3077   37.1892 C   0  0  0  0  0  0  0  0  0  0  0  0
   37.2505  -12.1185   36.5126 O   0  0  0  0  0  0  0  0  0  0  0  0
   38.6576  -13.4967   37.6932 O   0  0  0  0  0  0  0  0  0  0  0  0
   37.8472  -11.8020   35.7515 H   0  0  0  0  0  0  0  0  0  0  0  0
 20 21  1  0  0  0
 21 10  1  0  0  0
 10 11  2  0  0  0
 11 12  1  0  0  0
 12 13  2  0  0  0
 13 14  1  0  0  0
 14 18  1  0  0  0
 18 19  1  0  0  0
 14 15  2  0  0  0
 15 16  1  0  0  0
 16 17  1  0  0  0
 12  6  1  0  0  0
  6  7  2  0  0  0
  6  8  1  0  0  0
  8  5  1  0  0  0
  5 22  1  0  0  0
 22 23  1  0  0  0
 23 24  2  0  0  0
 24 25  1  0  0  0
 25 26  2  0  0  0
 26 27  1  0  0  0
 27 28  2  0  0  0
  5  1  1  0  0  0
  1  2  2  0  0  0
  1  3  1  0  0  0
  3 29  1  0  0  0
 29 48  1  0  0  0
 48 49  1  0  0  0
 49 50  1  0  0  0
 49 51  2  0  0  0
 29 30  1  0  0  0
 30 31  2  0  0  0
 30 32  1  0  0  0
 32 34  1  0  0  0
 34 39  1  0  0  0
 39 40  1  0  0  0
 40 41  2  0  0  0
 41 42  1  0  0  0
 42 43  2  0  0  0
 43 44  1  0  0  0
 43 45  1  0  0  0
 45 46  2  0  0  0
 34 35  1  0  0  0
 35 36  1  0  0  0
 35 37  2  0  0  0
 15 10  1  0  0  0
 28 23  1  0  0  0
 46 40  1  0  0  0
  8  9  1  0  0  0
  3  4  1  0  0  0
 50 52  1  0  0  0
 32 33  1  0  0  0
 44 47  1  0  0  0
 36 38  1  0  0  0
M  END
> <minimizedAffinity>
-9.02327

> <CNNscore>
0.5060425401

> <CNNaffinity>
7.2151594162

> <CNN_VS>
3.6511776447

> <CNNaffinity_variance>
0.0413135663

$$$$
[H]OC(=O)C([H])([H])[C@@]([H])(C(=O)N([H])[C@]([H])(C(=O)O[H])C([H])([H])c1c([H])c([H])c(O[H])c([H])c1[H])N([H])C(=O)[C@@]([H])(N([H])C(=O)c1c([H])c(OC([H])([H])[H])c(OC([H])([H])[H])c(OC([H])([H])[H])c1[H])C([H])([H])c1c([H])c([H])c([H])c([H])c1[H]


 52 54  0  0  0  0  0  0  0  0999 V2000
   33.8014  -12.7441   37.4617 C   0  0  0  0  0  0  0  0  0  0  0  0
   33.9016  -13.5015   38.4486 O   0  0  0  0  0  0  0  0  0  0  0  0
   34.5749  -13.0057   36.3109 N   0  0  0  0  0  0  0  0  0  0  0  0
   34.5307  -12.3875   35.4501 H   0  0  0  0  0  0  0  0  0  0  0  0
   32.8781  -11.5687   37.4837 C   0  0  0  0  0  0  0  0  0  0  0  0
   30.3533  -11.4924   37.7907 C   0  0  0  0  0  0  0  0  0  0  0  0
   30.1191  -10.8828   36.7255 O   0  0  0  0  0  0  0  0  0  0  0  0
   31.6667  -11.8451   38.1863 N   0  0  0  0  0  0  0  0  0  0  0  0
   31.7433  -12.3754   39.1126 H   0  0  0  0  0  0  0  0  0  0  0  0
   28.0629  -13.4236   40.1177 C   0  0  0  0  0  0  0  0  0  0  0  0
   29.1426  -13.0390   39.3099 C   0  0  0  0  0  0  0  0  0  0  0  0
   29.1865  -11.8338   38.6353 C   0  0  0  0  0  0  0  0  0  0  0  0
   28.1060  -10.9959   38.7843 C   0  0  0  0  0  0  0  0  0  0  0  0
   27.0381  -11.3605   39.5733 C   0  0  0  0  0  0  0  0  0  0  0  0
   26.9960  -12.5706   40.2506 C   0  0  0  0  0  0  0  0  0  0  0  0
   25.8845  -12.8834   41.0388 O   0  0  0  0  0  0  0  0  0  0  0  0
   25.9523  -12.6030   42.4406 C   0  0  0  0  0  0  0  0  0  0  0  0
   25.9126  -10.5352   39.7482 O   0  0  0  0  0  0  0  0  0  0  0  0
   26.1103   -9.3260   40.4504 C   0  0  0  0  0  0  0  0  0  0  0  0
   28.9933  -15.6656   40.7598 C   0  0  0  0  0  0  0  0  0  0  0  0
   28.1206  -14.6262   40.7351 O   0  0  0  0  0  0  0  0  0  0  0  0
   33.6345  -10.4010   38.0306 C   0  0  0  0  0  0  0  0  0  0  0  0
   33.7679   -9.2881   37.0704 C   0  0  0  0  0  0  0  0  0  0  0  0
   32.6579   -8.4915   36.8337 C   0  0  0  0  0  0  0  0  0  0  0  0
   32.7186   -7.4327   35.9469 C   0  0  0  0  0  0  0  0  0  0  0  0
   33.8599   -7.1252   35.2723 C   0  0  0  0  0  0  0  0  0  0  0  0
   34.9854   -7.9188   35.4997 C   0  0  0  0  0  0  0  0  0  0  0  0
   34.9170   -8.9820   36.3927 C   0  0  0  0  0  0  0  0  0  0  0  0
   35.4868  -14.1244   36.1991 C   0  0  0  0  0  0  0  0  0  0  0  0
   34.6824  -15.3698   35.9458 C   0  0  0  0  0  0  0  0  0  0  0  0
   33.4966  -15.2628   35.6247 O   0  0  0  0  0  0  0  0  0  0  0  0
   35.3293  -16.6140   36.0876 N   0  0  0  0  0  0  0  0  0  0  0  0
   36.3393  -16.6986   36.3686 H   0  0  0  0  0  0  0  0  0  0  0  0
   34.6104  -17.8792   35.8474 C   0  0  0  0  0  0  0  0  0  0  0  0
   34.9134  -18.8142   36.9463 C   0  0  0  0  0  0  0  0  0  0  0  0
   35.9012  -18.5689   37.8906 O   0  0  0  0  0  0  0  0  0  0  0  0
   34.2653  -19.8784   37.0443 O   0  0  0  0  0  0  0  0  0  0  0  0
   36.7899  -18.1248   37.6439 H   0  0  0  0  0  0  0  0  0  0  0  0
   35.0334  -18.3344   34.4966 C   0  0  0  0  0  0  0  0  0  0  0  0
   36.4441  -18.6597   34.3128 C   0  0  0  0  0  0  0  0  0  0  0  0
   36.9701  -19.8322   34.8662 C   0  0  0  0  0  0  0  0  0  0  0  0
   38.2946  -20.1429   34.6723 C   0  0  0  0  0  0  0  0  0  0  0  0
   39.1662  -19.3631   33.9529 C   0  0  0  0  0  0  0  0  0  0  0  0
   40.5080  -19.6941   33.7724 O   0  0  0  0  0  0  0  0  0  0  0  0
   38.6427  -18.1917   33.3999 C   0  0  0  0  0  0  0  0  0  0  0  0
   37.3177  -17.8691   33.5876 C   0  0  0  0  0  0  0  0  0  0  0  0
   41.1487  -19.3304   34.4939 H   0  0  0  0  0  0  0  0  0  0  0  0
   36.2879  -14.2993   37.4542 C   0  0  0  0  0  0  0  0  0  0  0  0
   37.5148  -13.4790   37.4286 C   0  0  0  0  0  0  0  0  0  0  0  0
   37.6620  -12.3649   36.6052 O   0  0  0  0  0  0  0  0  0  0  0  0
   38.4641  -13.8167   38.1934 O   0  0  0  0  0  0  0  0  0  0  0  0
   38.4547  -12.2772   35.9732 H   0  0  0  0  0  0  0  0  0  0  0  0
 20 21  1  0  0  0
 21 10  1  0  0  0
 10 11  2  0  0  0
 11 12  1  0  0  0
 12 13  2  0  0  0
 13 14  1  0  0  0
 14 18  1  0  0  0
 18 19  1  0  0  0
 14 15  2  0  0  0
 15 16  1  0  0  0
 16 17  1  0  0  0
 12  6  1  0  0  0
  6  7  2  0  0  0
  6  8  1  0  0  0
  8  5  1  0  0  0
  5 22  1  0  0  0
 22 23  1  0  0  0
 23 24  2  0  0  0
 24 25  1  0  0  0
 25 26  2  0  0  0
 26 27  1  0  0  0
 27 28  2  0  0  0
  5  1  1  0  0  0
  1  2  2  0  0  0
  1  3  1  0  0  0
  3 29  1  0  0  0
 29 48  1  0  0  0
 48 49  1  0  0  0
 49 50  1  0  0  0
 49 51  2  0  0  0
 29 30  1  0  0  0
 30 31  2  0  0  0
 30 32  1  0  0  0
 32 34  1  0  0  0
 34 39  1  0  0  0
 39 40  1  0  0  0
 40 41  2  0  0  0
 41 42  1  0  0  0
 42 43  2  0  0  0
 43 44  1  0  0  0
 43 45  1  0  0  0
 45 46  2  0  0  0
 34 35  1  0  0  0
 35 36  1  0  0  0
 35 37  2  0  0  0
 15 10  1  0  0  0
 28 23  1  0  0  0
 46 40  1  0  0  0
  8  9  1  0  0  0
  3  4  1  0  0  0
 50 52  1  0  0  0
 32 33  1  0  0  0
 44 47  1  0  0  0
 36 38  1  0  0  0
M  END
> <minimizedAffinity>
-8.96793

> <CNNscore>
0.3834997416

> <CNNaffinity>
7.0441675186

> <CNN_VS>
2.7014365196

> <CNNaffinity_variance>
0.0901421458

$$$$
[H]OC(=O)C([H])([H])[C@@]([H])(C(=O)N([H])[C@]([H])(C(=O)O[H])C([H])([H])c1c([H])c([H])c(O[H])c([H])c1[H])N([H])C(=O)[C@@]([H])(N([H])C(=O)c1c([H])c(OC([H])([H])[H])c(OC([H])([H])[H])c(OC([H])([H])[H])c1[H])C([H])([H])c1c([H])c([H])c([H])c([H])c1[H]


 52 54  0  0  0  0  0  0  0  0999 V2000
   34.0134  -12.7546   37.3993 C   0  0  0  0  0  0  0  0  0  0  0  0
   34.2066  -13.4244   38.4345 O   0  0  0  0  0  0  0  0  0  0  0  0
   34.7394  -13.0673   36.2305 N   0  0  0  0  0  0  0  0  0  0  0  0
   34.6163  -12.5232   35.3284 H   0  0  0  0  0  0  0  0  0  0  0  0
   33.0284  -11.6301   37.3823 C   0  0  0  0  0  0  0  0  0  0  0  0
   30.5479  -11.3502   37.8753 C   0  0  0  0  0  0  0  0  0  0  0  0
   30.3689  -10.4102   37.0720 O   0  0  0  0  0  0  0  0  0  0  0  0
   31.8113  -11.9666   38.0479 N   0  0  0  0  0  0  0  0  0  0  0  0
   31.8411  -12.7688   38.7554 H   0  0  0  0  0  0  0  0  0  0  0  0
   27.1041  -11.3624   39.4662 C   0  0  0  0  0  0  0  0  0  0  0  0
   28.2468  -10.9981   38.7397 C   0  0  0  0  0  0  0  0  0  0  0  0
   29.3701  -11.7983   38.6521 C   0  0  0  0  0  0  0  0  0  0  0  0
   29.3331  -13.0004   39.3193 C   0  0  0  0  0  0  0  0  0  0  0  0
   28.2185  -13.3709   40.0377 C   0  0  0  0  0  0  0  0  0  0  0  0
   27.0911  -12.5668   40.1240 C   0  0  0  0  0  0  0  0  0  0  0  0
   25.9887  -12.9991   40.8672 O   0  0  0  0  0  0  0  0  0  0  0  0
   25.8720  -12.5514   42.2215 C   0  0  0  0  0  0  0  0  0  0  0  0
   28.1420  -14.5888   40.7374 O   0  0  0  0  0  0  0  0  0  0  0  0
   28.9762  -15.6363   40.2891 C   0  0  0  0  0  0  0  0  0  0  0  0
   25.8805   -9.1934   39.7874 C   0  0  0  0  0  0  0  0  0  0  0  0
   26.0574  -10.5052   39.4867 O   0  0  0  0  0  0  0  0  0  0  0  0
   33.7034  -10.4203   37.9439 C   0  0  0  0  0  0  0  0  0  0  0  0
   33.7941   -9.3021   36.9848 C   0  0  0  0  0  0  0  0  0  0  0  0
   34.9817   -9.1309   36.2898 C   0  0  0  0  0  0  0  0  0  0  0  0
   35.1293   -8.1037   35.3764 C   0  0  0  0  0  0  0  0  0  0  0  0
   34.1252   -7.2218   35.1187 C   0  0  0  0  0  0  0  0  0  0  0  0
   32.9240   -7.3811   35.8113 C   0  0  0  0  0  0  0  0  0  0  0  0
   32.7827   -8.4162   36.7284 C   0  0  0  0  0  0  0  0  0  0  0  0
   35.7051  -14.1431   36.1543 C   0  0  0  0  0  0  0  0  0  0  0  0
   34.9670  -15.4264   35.8884 C   0  0  0  0  0  0  0  0  0  0  0  0
   33.8009  -15.3760   35.4905 O   0  0  0  0  0  0  0  0  0  0  0  0
   35.6509  -16.6392   36.1075 N   0  0  0  0  0  0  0  0  0  0  0  0
   36.6434  -16.6753   36.4538 H   0  0  0  0  0  0  0  0  0  0  0  0
   34.9980  -17.9383   35.8605 C   0  0  0  0  0  0  0  0  0  0  0  0
   35.6286  -18.5720   34.6881 C   0  0  0  0  0  0  0  0  0  0  0  0
   35.2652  -18.2674   33.3833 O   0  0  0  0  0  0  0  0  0  0  0  0
   36.5275  -19.4235   34.8588 O   0  0  0  0  0  0  0  0  0  0  0  0
   34.2930  -18.0870   33.1184 H   0  0  0  0  0  0  0  0  0  0  0  0
   33.5485  -17.6410   35.7139 C   0  0  0  0  0  0  0  0  0  0  0  0
   32.6391  -18.7788   35.6238 C   0  0  0  0  0  0  0  0  0  0  0  0
   32.8226  -19.8893   36.4551 C   0  0  0  0  0  0  0  0  0  0  0  0
   31.9507  -20.9487   36.3795 C   0  0  0  0  0  0  0  0  0  0  0  0
   30.8797  -20.9988   35.5219 C   0  0  0  0  0  0  0  0  0  0  0  0
   30.0098  -22.0858   35.4574 O   0  0  0  0  0  0  0  0  0  0  0  0
   30.6952  -19.8910   34.6907 C   0  0  0  0  0  0  0  0  0  0  0  0
   31.5622  -18.8237   34.7565 C   0  0  0  0  0  0  0  0  0  0  0  0
   30.2792  -22.8219   34.7875 H   0  0  0  0  0  0  0  0  0  0  0  0
   36.4765  -14.2717   37.4334 C   0  0  0  0  0  0  0  0  0  0  0  0
   37.6698  -13.4030   37.4322 C   0  0  0  0  0  0  0  0  0  0  0  0
   37.8281  -12.3374   36.5488 O   0  0  0  0  0  0  0  0  0  0  0  0
   38.5789  -13.6512   38.2761 O   0  0  0  0  0  0  0  0  0  0  0  0
   38.6568  -12.2558   35.9640 H   0  0  0  0  0  0  0  0  0  0  0  0
 20 21  1  0  0  0
 21 10  1  0  0  0
 10 11  2  0  0  0
 11 12  1  0  0  0
 12 13  2  0  0  0
 13 14  1  0  0  0
 14 18  1  0  0  0
 18 19  1  0  0  0
 14 15  2  0  0  0
 15 16  1  0  0  0
 16 17  1  0  0  0
 12  6  1  0  0  0
  6  7  2  0  0  0
  6  8  1  0  0  0
  8  5  1  0  0  0
  5 22  1  0  0  0
 22 23  1  0  0  0
 23 24  2  0  0  0
 24 25  1  0  0  0
 25 26  2  0  0  0
 26 27  1  0  0  0
 27 28  2  0  0  0
  5  1  1  0  0  0
  1  2  2  0  0  0
  1  3  1  0  0  0
  3 29  1  0  0  0
 29 48  1  0  0  0
 48 49  1  0  0  0
 49 50  1  0  0  0
 49 51  2  0  0  0
 29 30  1  0  0  0
 30 31  2  0  0  0
 30 32  1  0  0  0
 32 34  1  0  0  0
 34 39  1  0  0  0
 39 40  1  0  0  0
 40 41  2  0  0  0
 41 42  1  0  0  0
 42 43  2  0  0  0
 43 44  1  0  0  0
 43 45  1  0  0  0
 45 46  2  0  0  0
 34 35  1  0  0  0
 35 36  1  0  0  0
 35 37  2  0  0  0
 15 10  1  0  0  0
 28 23  1  0  0  0
 46 40  1  0  0  0
  8  9  1  0  0  0
  3  4  1  0  0  0
 50 52  1  0  0  0
 32 33  1  0  0  0
 44 47  1  0  0  0
 36 38  1  0  0  0
M  END
> <minimizedAffinity>
-8.96219

> <CNNscore>
0.3468346596

> <CNNaffinity>
7.0685701370

> <CNN_VS>
2.4516251087

> <CNNaffinity_variance>
0.1161157116

$$$$
[H]OC(=O)C([H])([H])[C@@]([H])(C(=O)N([H])[C@]([H])(C(=O)O[H])C([H])([H])c1c([H])c([H])c(O[H])c([H])c1[H])N([H])C(=O)[C@@]([H])(N([H])C(=O)c1c([H])c(OC([H])([H])[H])c(OC([H])([H])[H])c(OC([H])([H])[H])c1[H])C([H])([H])c1c([H])c([H])c([H])c([H])c1[H]


 52 54  0  0  0  0  0  0  0  0999 V2000
   34.2057  -12.4266   37.0733 C   0  0  0  0  0  0  0  0  0  0  0  0
   35.4086  -12.1206   37.2030 O   0  0  0  0  0  0  0  0  0  0  0  0
   33.8676  -13.7311   36.6548 N   0  0  0  0  0  0  0  0  0  0  0  0
   32.8606  -14.0371   36.5227 H   0  0  0  0  0  0  0  0  0  0  0  0
   33.1239  -11.4335   37.3531 C   0  0  0  0  0  0  0  0  0  0  0  0
   30.7182  -11.8219   38.0854 C   0  0  0  0  0  0  0  0  0  0  0  0
   30.1988  -11.2091   37.1285 O   0  0  0  0  0  0  0  0  0  0  0  0
   32.1213  -11.9563   38.2243 N   0  0  0  0  0  0  0  0  0  0  0  0
   32.4498  -12.5120   39.0777 H   0  0  0  0  0  0  0  0  0  0  0  0
   27.5956  -12.4176   40.1555 C   0  0  0  0  0  0  0  0  0  0  0  0
   28.5132  -11.9113   39.2239 C   0  0  0  0  0  0  0  0  0  0  0  0
   29.7951  -12.4081   39.0832 C   0  0  0  0  0  0  0  0  0  0  0  0
   30.1557  -13.4465   39.9097 C   0  0  0  0  0  0  0  0  0  0  0  0
   29.2658  -13.9532   40.8302 C   0  0  0  0  0  0  0  0  0  0  0  0
   27.9789  -13.4539   40.9696 C   0  0  0  0  0  0  0  0  0  0  0  0
   27.1201  -14.0120   41.9211 O   0  0  0  0  0  0  0  0  0  0  0  0
   27.0215  -13.3718   43.1974 C   0  0  0  0  0  0  0  0  0  0  0  0
   29.5965  -15.0109   41.6965 O   0  0  0  0  0  0  0  0  0  0  0  0
   29.2135  -16.3093   41.2945 C   0  0  0  0  0  0  0  0  0  0  0  0
   25.8726  -10.6021   40.3555 C   0  0  0  0  0  0  0  0  0  0  0  0
   26.3645  -11.8590   40.2112 O   0  0  0  0  0  0  0  0  0  0  0  0
   33.7682  -10.1846   37.8629 C   0  0  0  0  0  0  0  0  0  0  0  0
   33.8190   -9.1013   36.8618 C   0  0  0  0  0  0  0  0  0  0  0  0
   32.6460   -8.4198   36.5750 C   0  0  0  0  0  0  0  0  0  0  0  0
   32.6278   -7.3942   35.6482 C   0  0  0  0  0  0  0  0  0  0  0  0
   33.7499   -7.0088   34.9812 C   0  0  0  0  0  0  0  0  0  0  0  0
   34.9382   -7.6862   35.2589 C   0  0  0  0  0  0  0  0  0  0  0  0
   34.9490   -8.7166   36.1920 C   0  0  0  0  0  0  0  0  0  0  0  0
   34.8479  -14.7577   36.3708 C   0  0  0  0  0  0  0  0  0  0  0  0
   34.1589  -15.8888   35.6580 C   0  0  0  0  0  0  0  0  0  0  0  0
   33.2329  -15.6344   34.8842 O   0  0  0  0  0  0  0  0  0  0  0  0
   34.6097  -17.2002   35.9097 N   0  0  0  0  0  0  0  0  0  0  0  0
   35.3955  -17.4110   36.5764 H   0  0  0  0  0  0  0  0  0  0  0  0
   33.9909  -18.3607   35.2422 C   0  0  0  0  0  0  0  0  0  0  0  0
   32.7536  -18.7181   35.9600 C   0  0  0  0  0  0  0  0  0  0  0  0
   31.5288  -18.1239   35.6875 O   0  0  0  0  0  0  0  0  0  0  0  0
   32.7924  -19.5883   36.8563 O   0  0  0  0  0  0  0  0  0  0  0  0
   31.4464  -17.1292   35.4599 H   0  0  0  0  0  0  0  0  0  0  0  0
   35.0355  -19.4186   35.2198 C   0  0  0  0  0  0  0  0  0  0  0  0
   36.3522  -19.0466   34.7121 C   0  0  0  0  0  0  0  0  0  0  0  0
   37.4995  -19.6637   35.2228 C   0  0  0  0  0  0  0  0  0  0  0  0
   38.7347  -19.3235   34.7260 C   0  0  0  0  0  0  0  0  0  0  0  0
   38.9315  -18.3942   33.7347 C   0  0  0  0  0  0  0  0  0  0  0  0
   40.1941  -18.0598   33.2483 O   0  0  0  0  0  0  0  0  0  0  0  0
   37.7870  -17.7767   33.2239 C   0  0  0  0  0  0  0  0  0  0  0  0
   36.5440  -18.1084   33.7136 C   0  0  0  0  0  0  0  0  0  0  0  0
   40.6615  -17.2846   33.7422 H   0  0  0  0  0  0  0  0  0  0  0  0
   35.4732  -15.2748   37.6315 C   0  0  0  0  0  0  0  0  0  0  0  0
   36.9428  -15.3459   37.5139 C   0  0  0  0  0  0  0  0  0  0  0  0
   37.5992  -16.3867   36.8606 O   0  0  0  0  0  0  0  0  0  0  0  0
   37.6204  -14.4136   38.0352 O   0  0  0  0  0  0  0  0  0  0  0  0
   38.3320  -16.9206   37.3226 H   0  0  0  0  0  0  0  0  0  0  0  0
 20 21  1  0  0  0
 21 10  1  0  0  0
 10 11  2  0  0  0
 11 12  1  0  0  0
 12 13  2  0  0  0
 13 14  1  0  0  0
 14 18  1  0  0  0
 18 19  1  0  0  0
 14 15  2  0  0  0
 15 16  1  0  0  0
 16 17  1  0  0  0
 12  6  1  0  0  0
  6  7  2  0  0  0
  6  8  1  0  0  0
  8  5  1  0  0  0
  5 22  1  0  0  0
 22 23  1  0  0  0
 23 24  2  0  0  0
 24 25  1  0  0  0
 25 26  2  0  0  0
 26 27  1  0  0  0
 27 28  2  0  0  0
  5  1  1  0  0  0
  1  2  2  0  0  0
  1  3  1  0  0  0
  3 29  1  0  0  0
 29 48  1  0  0  0
 48 49  1  0  0  0
 49 50  1  0  0  0
 49 51  2  0  0  0
 29 30  1  0  0  0
 30 31  2  0  0  0
 30 32  1  0  0  0
 32 34  1  0  0  0
 34 39  1  0  0  0
 39 40  1  0  0  0
 40 41  2  0  0  0
 41 42  1  0  0  0
 42 43  2  0  0  0
 43 44  1  0  0  0
 43 45  1  0  0  0
 45 46  2  0  0  0
 34 35  1  0  0  0
 35 36  1  0  0  0
 35 37  2  0  0  0
 15 10  1  0  0  0
 28 23  1  0  0  0
 46 40  1  0  0  0
  8  9  1  0  0  0
  3  4  1  0  0  0
 50 52  1  0  0  0
 32 33  1  0  0  0
 44 47  1  0  0  0
 36 38  1  0  0  0
M  END
> <minimizedAffinity>
-8.95526

> <CNNscore>
0.2379926294

> <CNNaffinity>
6.5962996483

> <CNN_VS>
1.5698707104

> <CNNaffinity_variance>
0.1496053636

$$$$
[H]OC(=O)C([H])([H])[C@@]([H])(C(=O)N([H])[C@]([H])(C(=O)O[H])C([H])([H])c1c([H])c([H])c(O[H])c([H])c1[H])N([H])C(=O)[C@@]([H])(N([H])C(=O)c1c([H])c(OC([H])([H])[H])c(OC([H])([H])[H])c(OC([H])([H])[H])c1[H])C([H])([H])c1c([H])c([H])c([H])c([H])c1[H]


 52 54  0  0  0  0  0  0  0  0999 V2000
   34.1739  -12.4734   37.0045 C   0  0  0  0  0  0  0  0  0  0  0  0
   35.3747  -12.1612   37.1392 O   0  0  0  0  0  0  0  0  0  0  0  0
   33.8430  -13.7900   36.6197 N   0  0  0  0  0  0  0  0  0  0  0  0
   32.8382  -14.1018   36.4849 H   0  0  0  0  0  0  0  0  0  0  0  0
   33.0872  -11.4749   37.2432 C   0  0  0  0  0  0  0  0  0  0  0  0
   30.6433  -11.7362   37.9017 C   0  0  0  0  0  0  0  0  0  0  0  0
   30.1969  -10.9704   37.0211 O   0  0  0  0  0  0  0  0  0  0  0  0
   32.0267  -12.0083   38.0359 N   0  0  0  0  0  0  0  0  0  0  0  0
   32.2898  -12.6885   38.8190 H   0  0  0  0  0  0  0  0  0  0  0  0
   29.1139  -14.0735   40.4685 C   0  0  0  0  0  0  0  0  0  0  0  0
   30.0068  -13.4394   39.5929 C   0  0  0  0  0  0  0  0  0  0  0  0
   29.6541  -12.3543   38.8132 C   0  0  0  0  0  0  0  0  0  0  0  0
   28.3607  -11.9002   38.9249 C   0  0  0  0  0  0  0  0  0  0  0  0
   27.4723  -12.5135   39.7796 C   0  0  0  0  0  0  0  0  0  0  0  0
   27.8283  -13.6023   40.5624 C   0  0  0  0  0  0  0  0  0  0  0  0
   26.8819  -14.1810   41.4132 O   0  0  0  0  0  0  0  0  0  0  0  0
   26.7199  -13.6214   42.7205 C   0  0  0  0  0  0  0  0  0  0  0  0
   26.1405  -12.0832   39.9197 O   0  0  0  0  0  0  0  0  0  0  0  0
   25.8722  -10.7291   39.6226 C   0  0  0  0  0  0  0  0  0  0  0  0
   29.8282  -15.3706   42.4963 C   0  0  0  0  0  0  0  0  0  0  0  0
   29.5617  -15.1286   41.1875 O   0  0  0  0  0  0  0  0  0  0  0  0
   33.7114  -10.2478   37.8257 C   0  0  0  0  0  0  0  0  0  0  0  0
   33.7349   -9.1039   36.8932 C   0  0  0  0  0  0  0  0  0  0  0  0
   34.9543   -8.7259   36.3520 C   0  0  0  0  0  0  0  0  0  0  0  0
   35.0428   -7.6639   35.4714 C   0  0  0  0  0  0  0  0  0  0  0  0
   33.9477   -6.9475   35.0976 C   0  0  0  0  0  0  0  0  0  0  0  0
   32.7133   -7.3159   35.6348 C   0  0  0  0  0  0  0  0  0  0  0  0
   32.6318   -8.3848   36.5198 C   0  0  0  0  0  0  0  0  0  0  0  0
   34.8284  -14.8222   36.3765 C   0  0  0  0  0  0  0  0  0  0  0  0
   34.1550  -15.9644   35.6664 C   0  0  0  0  0  0  0  0  0  0  0  0
   33.2541  -15.7216   34.8601 O   0  0  0  0  0  0  0  0  0  0  0  0
   34.5910  -17.2726   35.9584 N   0  0  0  0  0  0  0  0  0  0  0  0
   35.3552  -17.4733   36.6526 H   0  0  0  0  0  0  0  0  0  0  0  0
   33.9863  -18.4436   35.2963 C   0  0  0  0  0  0  0  0  0  0  0  0
   32.7494  -18.8079   36.0113 C   0  0  0  0  0  0  0  0  0  0  0  0
   31.5494  -18.1343   35.8278 O   0  0  0  0  0  0  0  0  0  0  0  0
   32.7657  -19.7587   36.8224 O   0  0  0  0  0  0  0  0  0  0  0  0
   31.5109  -17.1200   35.6949 H   0  0  0  0  0  0  0  0  0  0  0  0
   35.0412  -19.4914   35.2856 C   0  0  0  0  0  0  0  0  0  0  0  0
   36.3573  -19.1092   34.7841 C   0  0  0  0  0  0  0  0  0  0  0  0
   37.5118  -19.6198   35.3876 C   0  0  0  0  0  0  0  0  0  0  0  0
   38.7477  -19.2720   34.8977 C   0  0  0  0  0  0  0  0  0  0  0  0
   38.9383  -18.4347   33.8264 C   0  0  0  0  0  0  0  0  0  0  0  0
   40.2014  -18.0904   33.3482 O   0  0  0  0  0  0  0  0  0  0  0  0
   37.7866  -17.9236   33.2228 C   0  0  0  0  0  0  0  0  0  0  0  0
   36.5428  -18.2640   33.7046 C   0  0  0  0  0  0  0  0  0  0  0  0
   40.6171  -17.2500   33.7775 H   0  0  0  0  0  0  0  0  0  0  0  0
   35.4225  -15.3187   37.6603 C   0  0  0  0  0  0  0  0  0  0  0  0
   36.8960  -15.3664   37.5889 C   0  0  0  0  0  0  0  0  0  0  0  0
   37.5898  -16.4094   36.9792 O   0  0  0  0  0  0  0  0  0  0  0  0
   37.5414  -14.4110   38.1094 O   0  0  0  0  0  0  0  0  0  0  0  0
   38.3171  -16.9200   37.4750 H   0  0  0  0  0  0  0  0  0  0  0  0
 20 21  1  0  0  0
 21 10  1  0  0  0
 10 11  2  0  0  0
 11 12  1  0  0  0
 12 13  2  0  0  0
 13 14  1  0  0  0
 14 18  1  0  0  0
 18 19  1  0  0  0
 14 15  2  0  0  0
 15 16  1  0  0  0
 16 17  1  0  0  0
 12  6  1  0  0  0
  6  7  2  0  0  0
  6  8  1  0  0  0
  8  5  1  0  0  0
  5 22  1  0  0  0
 22 23  1  0  0  0
 23 24  2  0  0  0
 24 25  1  0  0  0
 25 26  2  0  0  0
 26 27  1  0  0  0
 27 28  2  0  0  0
  5  1  1  0  0  0
  1  2  2  0  0  0
  1  3  1  0  0  0
  3 29  1  0  0  0
 29 48  1  0  0  0
 48 49  1  0  0  0
 49 50  1  0  0  0
 49 51  2  0  0  0
 29 30  1  0  0  0
 30 31  2  0  0  0
 30 32  1  0  0  0
 32 34  1  0  0  0
 34 39  1  0  0  0
 39 40  1  0  0  0
 40 41  2  0  0  0
 41 42  1  0  0  0
 42 43  2  0  0  0
 43 44  1  0  0  0
 43 45  1  0  0  0
 45 46  2  0  0  0
 34 35  1  0  0  0
 35 36  1  0  0  0
 35 37  2  0  0  0
 15 10  1  0  0  0
 28 23  1  0  0  0
 46 40  1  0  0  0
  8  9  1  0  0  0
  3  4  1  0  0  0
 50 52  1  0  0  0
 32 33  1  0  0  0
 44 47  1  0  0  0
 36 38  1  0  0  0
M  END
> <minimizedAffinity>
-8.84929

> <CNNscore>
0.2176651657

> <CNNaffinity>
6.5491256714

> <CNN_VS>
1.4255164862

> <CNNaffinity_variance>
0.1604355872

$$$$
[H]OC(=O)C([H])([H])[C@@]([H])(C(=O)N([H])[C@]([H])(C(=O)O[H])C([H])([H])c1c([H])c([H])c(O[H])c([H])c1[H])N([H])C(=O)[C@@]([H])(N([H])C(=O)c1c([H])c(OC([H])([H])[H])c(OC([H])([H])[H])c(OC([H])([H])[H])c1[H])C([H])([H])c1c([H])c([H])c([H])c([H])c1[H]


 52 54  0  0  0  0  0  0  0  0999 V2000
   37.3412  -19.3384   35.8958 C   0  0  0  0  0  0  0  0  0  0  0  0
   37.5083  -20.5433   36.1746 O   0  0  0  0  0  0  0  0  0  0  0  0
   38.4053  -18.6095   35.3235 N   0  0  0  0  0  0  0  0  0  0  0  0
   38.3151  -17.5820   35.0758 H   0  0  0  0  0  0  0  0  0  0  0  0
   36.0352  -18.6607   36.1602 C   0  0  0  0  0  0  0  0  0  0  0  0
   33.7815  -19.6300   35.4854 C   0  0  0  0  0  0  0  0  0  0  0  0
   33.5726  -18.8195   34.5578 O   0  0  0  0  0  0  0  0  0  0  0  0
   34.9570  -19.5892   36.2743 N   0  0  0  0  0  0  0  0  0  0  0  0
   35.0310  -20.3409   37.0322 H   0  0  0  0  0  0  0  0  0  0  0  0
   32.1402  -22.9352   36.3647 C   0  0  0  0  0  0  0  0  0  0  0  0
   33.0834  -21.9257   36.1247 C   0  0  0  0  0  0  0  0  0  0  0  0
   32.7349  -20.6476   35.7315 C   0  0  0  0  0  0  0  0  0  0  0  0
   31.3933  -20.3864   35.5778 C   0  0  0  0  0  0  0  0  0  0  0  0
   30.4557  -21.3680   35.8088 C   0  0  0  0  0  0  0  0  0  0  0  0
   30.8073  -22.6505   36.2044 C   0  0  0  0  0  0  0  0  0  0  0  0
   29.8090  -23.6038   36.4260 O   0  0  0  0  0  0  0  0  0  0  0  0
   29.3754  -24.3958   35.3156 C   0  0  0  0  0  0  0  0  0  0  0  0
   29.0753  -21.1433   35.6587 O   0  0  0  0  0  0  0  0  0  0  0  0
   28.3693  -20.7171   36.8050 C   0  0  0  0  0  0  0  0  0  0  0  0
   32.7296  -25.3670   36.1554 C   0  0  0  0  0  0  0  0  0  0  0  0
   32.5883  -24.1534   36.7468 O   0  0  0  0  0  0  0  0  0  0  0  0
   36.2054  -17.7899   37.3633 C   0  0  0  0  0  0  0  0  0  0  0  0
   36.0918  -16.3491   37.0640 C   0  0  0  0  0  0  0  0  0  0  0  0
   35.0208  -15.9234   36.2931 C   0  0  0  0  0  0  0  0  0  0  0  0
   34.8573  -14.5870   35.9791 C   0  0  0  0  0  0  0  0  0  0  0  0
   35.7311  -13.6361   36.4087 C   0  0  0  0  0  0  0  0  0  0  0  0
   36.8147  -14.0497   37.1851 C   0  0  0  0  0  0  0  0  0  0  0  0
   36.9728  -15.3952   37.4968 C   0  0  0  0  0  0  0  0  0  0  0  0
   39.6991  -19.1864   35.0256 C   0  0  0  0  0  0  0  0  0  0  0  0
   40.6733  -18.7391   36.0807 C   0  0  0  0  0  0  0  0  0  0  0  0
   40.4863  -19.0777   37.2516 O   0  0  0  0  0  0  0  0  0  0  0  0
   41.7666  -17.9466   35.6767 N   0  0  0  0  0  0  0  0  0  0  0  0
   41.9165  -17.6554   34.6772 H   0  0  0  0  0  0  0  0  0  0  0  0
   42.7694  -17.4770   36.6509 C   0  0  0  0  0  0  0  0  0  0  0  0
   43.3283  -16.1972   36.1783 C   0  0  0  0  0  0  0  0  0  0  0  0
   43.3021  -15.8128   34.8445 O   0  0  0  0  0  0  0  0  0  0  0  0
   43.8542  -15.4154   36.9996 O   0  0  0  0  0  0  0  0  0  0  0  0
   43.4458  -16.4823   34.0835 H   0  0  0  0  0  0  0  0  0  0  0  0
   43.7528  -18.5843   36.7844 C   0  0  0  0  0  0  0  0  0  0  0  0
   43.9434  -19.1514   38.1155 C   0  0  0  0  0  0  0  0  0  0  0  0
   44.6927  -20.3220   38.2770 C   0  0  0  0  0  0  0  0  0  0  0  0
   44.8855  -20.8396   39.5353 C   0  0  0  0  0  0  0  0  0  0  0  0
   44.3815  -20.2747   40.6807 C   0  0  0  0  0  0  0  0  0  0  0  0
   44.5846  -20.8189   41.9477 O   0  0  0  0  0  0  0  0  0  0  0  0
   43.6328  -19.1059   40.5213 C   0  0  0  0  0  0  0  0  0  0  0  0
   43.4320  -18.5778   39.2659 C   0  0  0  0  0  0  0  0  0  0  0  0
   43.8710  -21.4986   42.2508 H   0  0  0  0  0  0  0  0  0  0  0  0
   40.1918  -18.7481   33.6792 C   0  0  0  0  0  0  0  0  0  0  0  0
   40.9451  -19.8236   33.0051 C   0  0  0  0  0  0  0  0  0  0  0  0
   40.6230  -20.2883   31.7318 O   0  0  0  0  0  0  0  0  0  0  0  0
   41.9221  -20.3350   33.6248 O   0  0  0  0  0  0  0  0  0  0  0  0
   40.4616  -21.2776   31.5566 H   0  0  0  0  0  0  0  0  0  0  0  0
 20 21  1  0  0  0
 21 10  1  0  0  0
 10 11  2  0  0  0
 11 12  1  0  0  0
 12 13  2  0  0  0
 13 14  1  0  0  0
 14 18  1  0  0  0
 18 19  1  0  0  0
 14 15  2  0  0  0
 15 16  1  0  0  0
 16 17  1  0  0  0
 12  6  1  0  0  0
  6  7  2  0  0  0
  6  8  1  0  0  0
  8  5  1  0  0  0
  5 22  1  0  0  0
 22 23  1  0  0  0
 23 24  2  0  0  0
 24 25  1  0  0  0
 25 26  2  0  0  0
 26 27  1  0  0  0
 27 28  2  0  0  0
  5  1  1  0  0  0
  1  2  2  0  0  0
  1  3  1  0  0  0
  3 29  1  0  0  0
 29 48  1  0  0  0
 48 49  1  0  0  0
 49 50  1  0  0  0
 49 51  2  0  0  0
 29 30  1  0  0  0
 30 31  2  0  0  0
 30 32  1  0  0  0
 32 34  1  0  0  0
 34 39  1  0  0  0
 39 40  1  0  0  0
 40 41  2  0  0  0
 41 42  1  0  0  0
 42 43  2  0  0  0
 43 44  1  0  0  0
 43 45  1  0  0  0
 45 46  2  0  0  0
 34 35  1  0  0  0
 35 36  1  0  0  0
 35 37  2  0  0  0
 15 10  1  0  0  0
 28 23  1  0  0  0
 46 40  1  0  0  0
  8  9  1  0  0  0
  3  4  1  0  0  0
 50 52  1  0  0  0
 32 33  1  0  0  0
 44 47  1  0  0  0
 36 38  1  0  0  0
M  END
> <minimizedAffinity>
-7.89752

> <CNNscore>
0.1218600422

> <CNNaffinity>
5.6005692482

> <CNN_VS>
0.6824855804

> <CNNaffinity_variance>
0.2866929770

$$$$
[H]OC(=O)C([H])([H])[C@@]([H])(C(=O)N([H])[C@]([H])(C(=O)O[H])C([H])([H])c1c([H])c([H])c(O[H])c([H])c1[H])N([H])C(=O)[C@@]([H])(N([H])C(=O)c1c([H])c(OC([H])([H])[H])c(OC([H])([H])[H])c(OC([H])([H])[H])c1[H])C([H])([H])c1c([H])c([H])c([H])c([H])c1[H]


 52 54  0  0  0  0  0  0  0  0999 V2000
   33.9411  -14.2866   36.8412 C   0  0  0  0  0  0  0  0  0  0  0  0
   34.6492  -14.6242   37.8118 O   0  0  0  0  0  0  0  0  0  0  0  0
   33.5844  -15.2547   35.8786 N   0  0  0  0  0  0  0  0  0  0  0  0
   32.9909  -15.0157   35.0325 H   0  0  0  0  0  0  0  0  0  0  0  0
   33.4695  -12.8766   36.6855 C   0  0  0  0  0  0  0  0  0  0  0  0
   31.7710  -12.6955   38.5715 C   0  0  0  0  0  0  0  0  0  0  0  0
   32.5941  -12.8728   39.4947 O   0  0  0  0  0  0  0  0  0  0  0  0
   32.1552  -12.6846   37.2084 N   0  0  0  0  0  0  0  0  0  0  0  0
   31.3654  -12.5124   36.5073 H   0  0  0  0  0  0  0  0  0  0  0  0
   28.3286  -13.3754   40.0132 C   0  0  0  0  0  0  0  0  0  0  0  0
   29.6694  -13.4994   39.6218 C   0  0  0  0  0  0  0  0  0  0  0  0
   30.3580  -12.4969   38.9656 C   0  0  0  0  0  0  0  0  0  0  0  0
   29.6679  -11.3373   38.6995 C   0  0  0  0  0  0  0  0  0  0  0  0
   28.3507  -11.2016   39.0767 C   0  0  0  0  0  0  0  0  0  0  0  0
   27.6610  -12.2087   39.7362 C   0  0  0  0  0  0  0  0  0  0  0  0
   26.3246  -12.0105   40.0958 O   0  0  0  0  0  0  0  0  0  0  0  0
   26.0317  -11.7206   41.4664 C   0  0  0  0  0  0  0  0  0  0  0  0
   27.6084  -10.0347   38.8196 O   0  0  0  0  0  0  0  0  0  0  0  0
   27.8258   -8.9369   39.6807 C   0  0  0  0  0  0  0  0  0  0  0  0
   27.8753  -15.7689   40.6216 C   0  0  0  0  0  0  0  0  0  0  0  0
   27.7481  -14.4178   40.6513 O   0  0  0  0  0  0  0  0  0  0  0  0
   34.4953  -11.9791   37.2997 C   0  0  0  0  0  0  0  0  0  0  0  0
   34.3436  -10.5637   36.9098 C   0  0  0  0  0  0  0  0  0  0  0  0
   35.2686  -10.0251   36.0283 C   0  0  0  0  0  0  0  0  0  0  0  0
   35.1806   -8.7062   35.6233 C   0  0  0  0  0  0  0  0  0  0  0  0
   34.1910   -7.8834   36.0658 C   0  0  0  0  0  0  0  0  0  0  0  0
   33.2528   -8.4113   36.9542 C   0  0  0  0  0  0  0  0  0  0  0  0
   33.3476   -9.7384   37.3573 C   0  0  0  0  0  0  0  0  0  0  0  0
   33.9886  -16.6426   35.9543 C   0  0  0  0  0  0  0  0  0  0  0  0
   35.4620  -16.7251   35.6633 C   0  0  0  0  0  0  0  0  0  0  0  0
   36.0607  -15.7077   35.3069 O   0  0  0  0  0  0  0  0  0  0  0  0
   36.0960  -17.9748   35.8147 N   0  0  0  0  0  0  0  0  0  0  0  0
   35.5781  -18.8405   36.1123 H   0  0  0  0  0  0  0  0  0  0  0  0
   37.5395  -18.1338   35.5572 C   0  0  0  0  0  0  0  0  0  0  0  0
   37.7243  -18.6487   34.1881 C   0  0  0  0  0  0  0  0  0  0  0  0
   36.9474  -19.6702   33.6584 O   0  0  0  0  0  0  0  0  0  0  0  0
   38.6153  -18.1580   33.4619 O   0  0  0  0  0  0  0  0  0  0  0  0
   36.6424  -20.4685   34.2219 H   0  0  0  0  0  0  0  0  0  0  0  0
   38.0479  -19.0190   36.6384 C   0  0  0  0  0  0  0  0  0  0  0  0
   39.4191  -19.5034   36.5156 C   0  0  0  0  0  0  0  0  0  0  0  0
   40.4914  -18.6227   36.6956 C   0  0  0  0  0  0  0  0  0  0  0  0
   41.7803  -19.0895   36.5988 C   0  0  0  0  0  0  0  0  0  0  0  0
   42.1026  -20.3967   36.3302 C   0  0  0  0  0  0  0  0  0  0  0  0
   43.4173  -20.8488   36.2311 O   0  0  0  0  0  0  0  0  0  0  0  0
   41.0331  -21.2774   36.1497 C   0  0  0  0  0  0  0  0  0  0  0  0
   39.7374  -20.8219   36.2436 C   0  0  0  0  0  0  0  0  0  0  0  0
   43.8258  -20.8008   35.2855 H   0  0  0  0  0  0  0  0  0  0  0  0
   33.2403  -17.4808   34.9617 C   0  0  0  0  0  0  0  0  0  0  0  0
   32.4894  -18.5628   35.6281 C   0  0  0  0  0  0  0  0  0  0  0  0
   31.0992  -18.6487   35.5960 O   0  0  0  0  0  0  0  0  0  0  0  0
   33.1523  -19.4415   36.2513 O   0  0  0  0  0  0  0  0  0  0  0  0
   30.5555  -18.7238   36.4528 H   0  0  0  0  0  0  0  0  0  0  0  0
 20 21  1  0  0  0
 21 10  1  0  0  0
 10 11  2  0  0  0
 11 12  1  0  0  0
 12 13  2  0  0  0
 13 14  1  0  0  0
 14 18  1  0  0  0
 18 19  1  0  0  0
 14 15  2  0  0  0
 15 16  1  0  0  0
 16 17  1  0  0  0
 12  6  1  0  0  0
  6  7  2  0  0  0
  6  8  1  0  0  0
  8  5  1  0  0  0
  5 22  1  0  0  0
 22 23  1  0  0  0
 23 24  2  0  0  0
 24 25  1  0  0  0
 25 26  2  0  0  0
 26 27  1  0  0  0
 27 28  2  0  0  0
  5  1  1  0  0  0
  1  2  2  0  0  0
  1  3  1  0  0  0
  3 29  1  0  0  0
 29 48  1  0  0  0
 48 49  1  0  0  0
 49 50  1  0  0  0
 49 51  2  0  0  0
 29 30  1  0  0  0
 30 31  2  0  0  0
 30 32  1  0  0  0
 32 34  1  0  0  0
 34 39  1  0  0  0
 39 40  1  0  0  0
 40 41  2  0  0  0
 41 42  1  0  0  0
 42 43  2  0  0  0
 43 44  1  0  0  0
 43 45  1  0  0  0
 45 46  2  0  0  0
 34 35  1  0  0  0
 35 36  1  0  0  0
 35 37  2  0  0  0
 15 10  1  0  0  0
 28 23  1  0  0  0
 46 40  1  0  0  0
  8  9  1  0  0  0
  3  4  1  0  0  0
 50 52  1  0  0  0
 32 33  1  0  0  0
 44 47  1  0  0  0
 36 38  1  0  0  0
M  END
> <minimizedAffinity>
-8.49385

> <CNNscore>
0.1014908850

> <CNNaffinity>
6.4376196861

> <CNN_VS>
0.6533597112

> <CNNaffinity_variance>
0.1840623170

$$$$
[H]OC(=O)C([H])([H])[C@@]([H])(C(=O)N([H])[C@]([H])(C(=O)O[H])C([H])([H])c1c([H])c([H])c(O[H])c([H])c1[H])N([H])C(=O)[C@@]([H])(N([H])C(=O)c1c([H])c(OC([H])([H])[H])c(OC([H])([H])[H])c(OC([H])([H])[H])c1[H])C([H])([H])c1c([H])c([H])c([H])c([H])c1[H]


 52 54  0  0  0  0  0  0  0  0999 V2000
   34.1406  -13.8837   36.6725 C   0  0  0  0  0  0  0  0  0  0  0  0
   35.2100  -14.0303   37.2989 O   0  0  0  0  0  0  0  0  0  0  0  0
   33.7044  -14.9070   35.8045 N   0  0  0  0  0  0  0  0  0  0  0  0
   32.8069  -14.8265   35.2448 H   0  0  0  0  0  0  0  0  0  0  0  0
   33.3207  -12.6434   36.8283 C   0  0  0  0  0  0  0  0  0  0  0  0
   31.8068  -12.8993   38.8574 C   0  0  0  0  0  0  0  0  0  0  0  0
   32.6929  -12.6522   39.7029 O   0  0  0  0  0  0  0  0  0  0  0  0
   32.0692  -12.8984   37.4656 N   0  0  0  0  0  0  0  0  0  0  0  0
   31.2300  -13.1129   36.8373 H   0  0  0  0  0  0  0  0  0  0  0  0
   28.0417  -12.7915   39.3077 C   0  0  0  0  0  0  0  0  0  0  0  0
   29.3474  -12.5571   38.8533 C   0  0  0  0  0  0  0  0  0  0  0  0
   30.4534  -13.1994   39.3766 C   0  0  0  0  0  0  0  0  0  0  0  0
   30.2288  -14.1039   40.3880 C   0  0  0  0  0  0  0  0  0  0  0  0
   28.9524  -14.3436   40.8453 C   0  0  0  0  0  0  0  0  0  0  0  0
   27.8429  -13.6985   40.3183 C   0  0  0  0  0  0  0  0  0  0  0  0
   26.5713  -13.9860   40.8231 O   0  0  0  0  0  0  0  0  0  0  0  0
   26.0791  -13.1871   41.9037 C   0  0  0  0  0  0  0  0  0  0  0  0
   28.6805  -15.2567   41.8802 O   0  0  0  0  0  0  0  0  0  0  0  0
   29.2903  -16.5270   41.7875 C   0  0  0  0  0  0  0  0  0  0  0  0
   26.4040  -10.9235   38.9425 C   0  0  0  0  0  0  0  0  0  0  0  0
   27.0284  -12.1091   38.7259 O   0  0  0  0  0  0  0  0  0  0  0  0
   34.1570  -11.6264   37.5362 C   0  0  0  0  0  0  0  0  0  0  0  0
   33.8816  -10.2411   37.1078 C   0  0  0  0  0  0  0  0  0  0  0  0
   34.8469   -9.5831   36.3608 C   0  0  0  0  0  0  0  0  0  0  0  0
   34.6487   -8.2852   35.9280 C   0  0  0  0  0  0  0  0  0  0  0  0
   33.5075   -7.5999   36.2112 C   0  0  0  0  0  0  0  0  0  0  0  0
   32.5269   -8.2491   36.9630 C   0  0  0  0  0  0  0  0  0  0  0  0
   32.7331   -9.5542   37.3951 C   0  0  0  0  0  0  0  0  0  0  0  0
   34.4294  -16.1432   35.5996 C   0  0  0  0  0  0  0  0  0  0  0  0
   33.5994  -17.0416   34.7243 C   0  0  0  0  0  0  0  0  0  0  0  0
   33.2098  -16.6215   33.6322 O   0  0  0  0  0  0  0  0  0  0  0  0
   33.3039  -18.3357   35.1980 N   0  0  0  0  0  0  0  0  0  0  0  0
   33.6333  -18.6855   36.1336 H   0  0  0  0  0  0  0  0  0  0  0  0
   32.5036  -19.2780   34.3937 C   0  0  0  0  0  0  0  0  0  0  0  0
   31.0937  -19.1839   34.8147 C   0  0  0  0  0  0  0  0  0  0  0  0
   30.6870  -18.4479   35.9194 O   0  0  0  0  0  0  0  0  0  0  0  0
   30.2157  -19.7887   34.1623 O   0  0  0  0  0  0  0  0  0  0  0  0
   31.2420  -18.4066   36.7786 H   0  0  0  0  0  0  0  0  0  0  0  0
   33.1327  -20.6111   34.5882 C   0  0  0  0  0  0  0  0  0  0  0  0
   32.8535  -21.3051   35.8413 C   0  0  0  0  0  0  0  0  0  0  0  0
   31.9319  -22.3576   35.8684 C   0  0  0  0  0  0  0  0  0  0  0  0
   31.6887  -23.0202   37.0475 C   0  0  0  0  0  0  0  0  0  0  0  0
   32.3027  -22.7158   38.2372 C   0  0  0  0  0  0  0  0  0  0  0  0
   32.0378  -23.3975   39.4237 O   0  0  0  0  0  0  0  0  0  0  0  0
   33.2229  -21.6648   38.2120 C   0  0  0  0  0  0  0  0  0  0  0  0
   33.4748  -20.9928   37.0373 C   0  0  0  0  0  0  0  0  0  0  0  0
   31.2707  -23.0058   39.9907 H   0  0  0  0  0  0  0  0  0  0  0  0
   34.7019  -16.8347   36.9016 C   0  0  0  0  0  0  0  0  0  0  0  0
   36.1259  -17.2021   37.0285 C   0  0  0  0  0  0  0  0  0  0  0  0
   37.1623  -16.2981   36.8061 O   0  0  0  0  0  0  0  0  0  0  0  0
   36.3993  -18.3936   37.3535 O   0  0  0  0  0  0  0  0  0  0  0  0
   37.9120  -16.5061   36.1501 H   0  0  0  0  0  0  0  0  0  0  0  0
 20 21  1  0  0  0
 21 10  1  0  0  0
 10 11  2  0  0  0
 11 12  1  0  0  0
 12 13  2  0  0  0
 13 14  1  0  0  0
 14 18  1  0  0  0
 18 19  1  0  0  0
 14 15  2  0  0  0
 15 16  1  0  0  0
 16 17  1  0  0  0
 12  6  1  0  0  0
  6  7  2  0  0  0
  6  8  1  0  0  0
  8  5  1  0  0  0
  5 22  1  0  0  0
 22 23  1  0  0  0
 23 24  2  0  0  0
 24 25  1  0  0  0
 25 26  2  0  0  0
 26 27  1  0  0  0
 27 28  2  0  0  0
  5  1  1  0  0  0
  1  2  2  0  0  0
  1  3  1  0  0  0
  3 29  1  0  0  0
 29 48  1  0  0  0
 48 49  1  0  0  0
 49 50  1  0  0  0
 49 51  2  0  0  0
 29 30  1  0  0  0
 30 31  2  0  0  0
 30 32  1  0  0  0
 32 34  1  0  0  0
 34 39  1  0  0  0
 39 40  1  0  0  0
 40 41  2  0  0  0
 41 42  1  0  0  0
 42 43  2  0  0  0
 43 44  1  0  0  0
 43 45  1  0  0  0
 45 46  2  0  0  0
 34 35  1  0  0  0
 35 36  1  0  0  0
 35 37  2  0  0  0
 15 10  1  0  0  0
 28 23  1  0  0  0
 46 40  1  0  0  0
  8  9  1  0  0  0
  3  4  1  0  0  0
 50 52  1  0  0  0
 32 33  1  0  0  0
 44 47  1  0  0  0
 36 38  1  0  0  0
M  END
> <minimizedAffinity>
-7.36495

> <CNNscore>
0.0892247781

> <CNNaffinity>
5.9602851868

> <CNN_VS>
0.5318050981

> <CNNaffinity_variance>
0.2093379200

$$$$
[H]OC(=O)C([H])([H])[C@@]([H])(C(=O)N([H])[C@]([H])(C(=O)O[H])C([H])([H])c1c([H])c([H])c(O[H])c([H])c1[H])N([H])C(=O)[C@@]([H])(N([H])C(=O)c1c([H])c(OC([H])([H])[H])c(OC([H])([H])[H])c(OC([H])([H])[H])c1[H])C([H])([H])c1c([H])c([H])c([H])c([H])c1[H]


 52 54  0  0  0  0  0  0  0  0999 V2000
   32.5311  -22.2031   35.3302 C   0  0  0  0  0  0  0  0  0  0  0  0
   32.1032  -22.7523   34.2944 O   0  0  0  0  0  0  0  0  0  0  0  0
   33.1224  -20.9252   35.2387 N   0  0  0  0  0  0  0  0  0  0  0  0
   33.5074  -20.4205   36.0886 H   0  0  0  0  0  0  0  0  0  0  0  0
   32.4267  -22.8789   36.6595 C   0  0  0  0  0  0  0  0  0  0  0  0
   34.0717  -21.5324   38.0578 C   0  0  0  0  0  0  0  0  0  0  0  0
   33.4449  -20.4545   37.9797 O   0  0  0  0  0  0  0  0  0  0  0  0
   33.6105  -22.7212   37.4413 N   0  0  0  0  0  0  0  0  0  0  0  0
   34.2251  -23.5851   37.5862 H   0  0  0  0  0  0  0  0  0  0  0  0
   37.7816  -21.4910   38.8491 C   0  0  0  0  0  0  0  0  0  0  0  0
   36.5519  -21.4984   38.1753 C   0  0  0  0  0  0  0  0  0  0  0  0
   35.3348  -21.5161   38.8296 C   0  0  0  0  0  0  0  0  0  0  0  0
   35.3661  -21.5262   40.2046 C   0  0  0  0  0  0  0  0  0  0  0  0
   36.5660  -21.5202   40.8799 C   0  0  0  0  0  0  0  0  0  0  0  0
   37.7870  -21.5016   40.2214 C   0  0  0  0  0  0  0  0  0  0  0  0
   38.9723  -21.4939   40.9628 O   0  0  0  0  0  0  0  0  0  0  0  0
   39.6259  -22.7447   41.2010 C   0  0  0  0  0  0  0  0  0  0  0  0
   36.6416  -21.5347   42.2844 O   0  0  0  0  0  0  0  0  0  0  0  0
   36.0945  -22.6583   42.9418 C   0  0  0  0  0  0  0  0  0  0  0  0
   39.8675  -20.5517   37.8140 C   0  0  0  0  0  0  0  0  0  0  0  0
   38.9162  -21.4729   38.1121 O   0  0  0  0  0  0  0  0  0  0  0  0
   31.1916  -22.3754   37.3346 C   0  0  0  0  0  0  0  0  0  0  0  0
   29.9732  -23.1169   36.9550 C   0  0  0  0  0  0  0  0  0  0  0  0
   29.8853  -24.4552   37.3070 C   0  0  0  0  0  0  0  0  0  0  0  0
   28.7697  -25.2042   36.9820 C   0  0  0  0  0  0  0  0  0  0  0  0
   27.7155  -24.6677   36.3088 C   0  0  0  0  0  0  0  0  0  0  0  0
   27.7900  -23.3217   35.9470 C   0  0  0  0  0  0  0  0  0  0  0  0
   28.9149  -22.5747   36.2771 C   0  0  0  0  0  0  0  0  0  0  0  0
   33.2569  -20.1947   33.9962 C   0  0  0  0  0  0  0  0  0  0  0  0
   34.4183  -19.2476   34.1250 C   0  0  0  0  0  0  0  0  0  0  0  0
   34.4613  -18.2498   33.4016 O   0  0  0  0  0  0  0  0  0  0  0  0
   35.4127  -19.5478   35.0776 N   0  0  0  0  0  0  0  0  0  0  0  0
   35.3736  -20.4044   35.6867 H   0  0  0  0  0  0  0  0  0  0  0  0
   36.5770  -18.6631   35.2693 C   0  0  0  0  0  0  0  0  0  0  0  0
   37.8061  -19.4269   34.9868 C   0  0  0  0  0  0  0  0  0  0  0  0
   37.8085  -20.8017   34.7935 O   0  0  0  0  0  0  0  0  0  0  0  0
   38.9005  -18.8271   34.9182 O   0  0  0  0  0  0  0  0  0  0  0  0
   37.2049  -21.4271   35.3344 H   0  0  0  0  0  0  0  0  0  0  0  0
   36.4637  -18.1405   36.6567 C   0  0  0  0  0  0  0  0  0  0  0  0
   36.1266  -16.7292   36.8134 C   0  0  0  0  0  0  0  0  0  0  0  0
   34.9639  -16.2178   36.2266 C   0  0  0  0  0  0  0  0  0  0  0  0
   34.6416  -14.8926   36.3950 C   0  0  0  0  0  0  0  0  0  0  0  0
   35.4002  -14.0066   37.1193 C   0  0  0  0  0  0  0  0  0  0  0  0
   35.0579  -12.6644   37.2736 O   0  0  0  0  0  0  0  0  0  0  0  0
   36.5618  -14.5155   37.7056 C   0  0  0  0  0  0  0  0  0  0  0  0
   36.8959  -15.8411   37.5438 C   0  0  0  0  0  0  0  0  0  0  0  0
   35.4341  -12.0317   36.5515 H   0  0  0  0  0  0  0  0  0  0  0  0
   32.0141  -19.4150   33.6876 C   0  0  0  0  0  0  0  0  0  0  0  0
   31.2768  -19.0677   34.9183 C   0  0  0  0  0  0  0  0  0  0  0  0
   31.7639  -18.1662   35.8622 O   0  0  0  0  0  0  0  0  0  0  0  0
   30.1560  -19.6223   35.1087 O   0  0  0  0  0  0  0  0  0  0  0  0
   31.8435  -18.4220   36.8439 H   0  0  0  0  0  0  0  0  0  0  0  0
 20 21  1  0  0  0
 21 10  1  0  0  0
 10 11  2  0  0  0
 11 12  1  0  0  0
 12 13  2  0  0  0
 13 14  1  0  0  0
 14 18  1  0  0  0
 18 19  1  0  0  0
 14 15  2  0  0  0
 15 16  1  0  0  0
 16 17  1  0  0  0
 12  6  1  0  0  0
  6  7  2  0  0  0
  6  8  1  0  0  0
  8  5  1  0  0  0
  5 22  1  0  0  0
 22 23  1  0  0  0
 23 24  2  0  0  0
 24 25  1  0  0  0
 25 26  2  0  0  0
 26 27  1  0  0  0
 27 28  2  0  0  0
  5  1  1  0  0  0
  1  2  2  0  0  0
  1  3  1  0  0  0
  3 29  1  0  0  0
 29 48  1  0  0  0
 48 49  1  0  0  0
 49 50  1  0  0  0
 49 51  2  0  0  0
 29 30  1  0  0  0
 30 31  2  0  0  0
 30 32  1  0  0  0
 32 34  1  0  0  0
 34 39  1  0  0  0
 39 40  1  0  0  0
 40 41  2  0  0  0
 41 42  1  0  0  0
 42 43  2  0  0  0
 43 44  1  0  0  0
 43 45  1  0  0  0
 45 46  2  0  0  0
 34 35  1  0  0  0
 35 36  1  0  0  0
 35 37  2  0  0  0
 15 10  1  0  0  0
 28 23  1  0  0  0
 46 40  1  0  0  0
  8  9  1  0  0  0
  3  4  1  0  0  0
 50 52  1  0  0  0
 32 33  1  0  0  0
 44 47  1  0  0  0
 36 38  1  0  0  0
M  END
> <minimizedAffinity>
-6.65841

> <CNNscore>
0.0799436271

> <CNNaffinity>
5.2112550735

> <CNN_VS>
0.4166066349

> <CNNaffinity_variance>
0.8400810361

$$$$
[H]/C(C(=O)N1C([H])([H])C([H])([H])N(C([H])([H])[H])C([H])([H])C1([H])[H])=C(/[H])c1c([H])nc2c(c1[H])N([H])C(C([H])([H])[H])(C([H])([H])[H])C(=O)N2[H]


 26 28  0  0  0  0  0  0  0  0999 V2000
   36.0769  -18.1350   34.8271 C   0  0  0  0  0  0  0  0  0  0  0  0
   35.3792  -19.3163   34.6173 C   0  0  0  0  0  0  0  0  0  0  0  0
   34.0112  -19.4092   34.7805 C   0  0  0  0  0  0  0  0  0  0  0  0
   33.2812  -18.3059   35.1655 C   0  0  0  0  0  0  0  0  0  0  0  0
   33.9527  -17.1639   35.3688 N   0  0  0  0  0  0  0  0  0  0  0  0
   35.3069  -17.0584   35.2108 C   0  0  0  0  0  0  0  0  0  0  0  0
   31.8713  -18.3766   35.3380 N   0  0  0  0  0  0  0  0  0  0  0  0
   31.2232  -19.6212   35.1026 C   0  0  0  0  0  0  0  0  0  0  0  0
   30.0038  -19.6415   34.7924 O   0  0  0  0  0  0  0  0  0  0  0  0
   32.0365  -20.8562   35.2382 C   0  0  0  0  0  0  0  0  0  0  0  0
   32.2810  -21.0499   36.7372 C   0  0  0  0  0  0  0  0  0  0  0  0
   31.3158  -22.0518   34.7067 C   0  0  0  0  0  0  0  0  0  0  0  0
   33.3093  -20.6347   34.5618 N   0  0  0  0  0  0  0  0  0  0  0  0
   31.3142  -17.5448   35.6294 H   0  0  0  0  0  0  0  0  0  0  0  0
   33.7318  -21.3405   33.9200 H   0  0  0  0  0  0  0  0  0  0  0  0
   38.2386  -18.9742   34.0212 C   0  0  0  0  0  0  0  0  0  0  0  0
   37.5201  -18.0835   34.6429 C   0  0  0  0  0  0  0  0  0  0  0  0
   40.0522  -20.8010   35.4034 C   0  0  0  0  0  0  0  0  0  0  0  0
   40.5703  -19.7756   34.5181 N   0  0  0  0  0  0  0  0  0  0  0  0
   39.6772  -18.8954   33.8535 C   0  0  0  0  0  0  0  0  0  0  0  0
   40.1323  -18.0095   33.0880 O   0  0  0  0  0  0  0  0  0  0  0  0
   42.0038  -19.7044   34.3570 C   0  0  0  0  0  0  0  0  0  0  0  0
   42.6355  -20.0444   35.6843 C   0  0  0  0  0  0  0  0  0  0  0  0
   42.3440  -21.3857   36.0860 N   0  0  0  0  0  0  0  0  0  0  0  0
   43.3462  -22.3373   35.6378 C   0  0  0  0  0  0  0  0  0  0  0  0
   41.0616  -21.8701   35.6717 C   0  0  0  0  0  0  0  0  0  0  0  0
 18 19  1  0  0  0
 19 20  1  0  0  0
 20 16  1  0  0  0
 16 17  2  0  0  0
 17  1  1  0  0  0
  1  2  2  0  0  0
  2  3  1  0  0  0
  3  4  2  0  0  0
  4  5  1  0  0  0
  5  6  2  0  0  0
  4  7  1  0  0  0
  7  8  1  0  0  0
  8  9  2  0  0  0
  8 10  1  0  0  0
 10 11  1  0  0  0
 10 12  1  0  0  0
 10 13  1  0  0  0
 20 21  2  0  0  0
 19 22  1  0  0  0
 22 23  1  0  0  0
 23 24  1  0  0  0
 24 25  1  0  0  0
 24 26  1  0  0  0
 26 18  1  0  0  0
  6  1  1  0  0  0
 13  3  1  0  0  0
  7 14  1  0  0  0
 13 15  1  0  0  0
M  END
> <minimizedAffinity>
-5.86245

> <CNNscore>
0.4893681705

> <CNNaffinity>
4.8745980263

> <CNN_VS>
2.3854730129

> <CNNaffinity_variance>
0.1570175588

$$$$
[H]/C(C(=O)N1C([H])([H])C([H])([H])N(C([H])([H])[H])C([H])([H])C1([H])[H])=C(/[H])c1c([H])nc2c(c1[H])N([H])C(C([H])([H])[H])(C([H])([H])[H])C(=O)N2[H]


 26 28  0  0  0  0  0  0  0  0999 V2000
   35.9590  -14.8288   37.1476 C   0  0  0  0  0  0  0  0  0  0  0  0
   34.6017  -14.8111   37.4364 C   0  0  0  0  0  0  0  0  0  0  0  0
   33.8666  -13.6428   37.4766 C   0  0  0  0  0  0  0  0  0  0  0  0
   34.4733  -12.4316   37.2251 C   0  0  0  0  0  0  0  0  0  0  0  0
   35.7841  -12.4460   36.9460 N   0  0  0  0  0  0  0  0  0  0  0  0
   36.5235  -13.5956   36.9030 C   0  0  0  0  0  0  0  0  0  0  0  0
   33.7367  -11.2155   37.2587 N   0  0  0  0  0  0  0  0  0  0  0  0
   32.3474  -11.2750   37.5597 C   0  0  0  0  0  0  0  0  0  0  0  0
   31.5831  -10.3561   37.1658 O   0  0  0  0  0  0  0  0  0  0  0  0
   31.8622  -12.4423   38.3390 C   0  0  0  0  0  0  0  0  0  0  0  0
   32.3589  -12.2406   39.7732 C   0  0  0  0  0  0  0  0  0  0  0  0
   30.3703  -12.5164   38.3492 C   0  0  0  0  0  0  0  0  0  0  0  0
   32.4695  -13.6433   37.7777 N   0  0  0  0  0  0  0  0  0  0  0  0
   34.1910  -10.2964   37.0693 H   0  0  0  0  0  0  0  0  0  0  0  0
   31.9212  -14.5100   37.5861 H   0  0  0  0  0  0  0  0  0  0  0  0
   36.2590  -17.2073   36.6190 C   0  0  0  0  0  0  0  0  0  0  0  0
   36.6941  -16.0850   37.1162 C   0  0  0  0  0  0  0  0  0  0  0  0
   37.8482  -18.0089   34.3020 C   0  0  0  0  0  0  0  0  0  0  0  0
   37.7920  -18.8470   35.4844 N   0  0  0  0  0  0  0  0  0  0  0  0
   37.0158  -18.4446   36.6022 C   0  0  0  0  0  0  0  0  0  0  0  0
   36.9713  -19.1750   37.6233 O   0  0  0  0  0  0  0  0  0  0  0  0
   38.5485  -20.0770   35.4590 C   0  0  0  0  0  0  0  0  0  0  0  0
   38.4904  -20.6264   34.0550 C   0  0  0  0  0  0  0  0  0  0  0  0
   39.1174  -19.7514   33.1133 N   0  0  0  0  0  0  0  0  0  0  0  0
   40.5247  -20.0535   32.9156 C   0  0  0  0  0  0  0  0  0  0  0  0
   39.0063  -18.3579   33.4240 C   0  0  0  0  0  0  0  0  0  0  0  0
 18 19  1  0  0  0
 19 20  1  0  0  0
 20 16  1  0  0  0
 16 17  2  0  0  0
 17  1  1  0  0  0
  1  2  2  0  0  0
  2  3  1  0  0  0
  3  4  2  0  0  0
  4  5  1  0  0  0
  5  6  2  0  0  0
  4  7  1  0  0  0
  7  8  1  0  0  0
  8  9  2  0  0  0
  8 10  1  0  0  0
 10 11  1  0  0  0
 10 12  1  0  0  0
 10 13  1  0  0  0
 20 21  2  0  0  0
 19 22  1  0  0  0
 22 23  1  0  0  0
 23 24  1  0  0  0
 24 25  1  0  0  0
 24 26  1  0  0  0
 26 18  1  0  0  0
  6  1  1  0  0  0
 13  3  1  0  0  0
  7 14  1  0  0  0
 13 15  1  0  0  0
M  END
> <minimizedAffinity>
-6.94869

> <CNNscore>
0.4868544042

> <CNNaffinity>
5.6078238487

> <CNN_VS>
2.7301938534

> <CNNaffinity_variance>
0.0297038015

$$$$
[H]/C(C(=O)N1C([H])([H])C([H])([H])N(C([H])([H])[H])C([H])([H])C1([H])[H])=C(/[H])c1c([H])nc2c(c1[H])N([H])C(C([H])([H])[H])(C([H])([H])[H])C(=O)N2[H]


 26 28  0  0  0  0  0  0  0  0999 V2000
   36.4210  -18.1107   34.5974 C   0  0  0  0  0  0  0  0  0  0  0  0
   35.5742  -19.1916   34.3953 C   0  0  0  0  0  0  0  0  0  0  0  0
   34.2366  -19.1605   34.7369 C   0  0  0  0  0  0  0  0  0  0  0  0
   33.6902  -18.0287   35.3017 C   0  0  0  0  0  0  0  0  0  0  0  0
   34.5059  -16.9835   35.4979 N   0  0  0  0  0  0  0  0  0  0  0  0
   35.8320  -17.0012   35.1643 C   0  0  0  0  0  0  0  0  0  0  0  0
   32.3151  -17.9722   35.6598 N   0  0  0  0  0  0  0  0  0  0  0  0
   31.5068  -19.1185   35.4209 C   0  0  0  0  0  0  0  0  0  0  0  0
   30.2631  -18.9875   35.2801 O   0  0  0  0  0  0  0  0  0  0  0  0
   32.1872  -20.4365   35.3487 C   0  0  0  0  0  0  0  0  0  0  0  0
   32.5984  -20.7892   36.7808 C   0  0  0  0  0  0  0  0  0  0  0  0
   31.2749  -21.5001   34.8310 C   0  0  0  0  0  0  0  0  0  0  0  0
   33.3796  -20.2840   34.5233 N   0  0  0  0  0  0  0  0  0  0  0  0
   31.8966  -17.1184   36.0876 H   0  0  0  0  0  0  0  0  0  0  0  0
   33.6347  -20.9676   33.7775 H   0  0  0  0  0  0  0  0  0  0  0  0
   38.6194  -19.1939   34.4554 C   0  0  0  0  0  0  0  0  0  0  0  0
   37.8253  -18.1885   34.2216 C   0  0  0  0  0  0  0  0  0  0  0  0
   40.7673  -18.7144   36.3772 C   0  0  0  0  0  0  0  0  0  0  0  0
   41.0703  -19.0118   34.9903 N   0  0  0  0  0  0  0  0  0  0  0  0
   40.0164  -19.2425   34.0682 C   0  0  0  0  0  0  0  0  0  0  0  0
   40.2855  -19.4996   32.8684 O   0  0  0  0  0  0  0  0  0  0  0  0
   42.4637  -19.0582   34.6137 C   0  0  0  0  0  0  0  0  0  0  0  0
   43.1930  -18.0041   35.4096 C   0  0  0  0  0  0  0  0  0  0  0  0
   43.1489  -18.2704   36.8140 N   0  0  0  0  0  0  0  0  0  0  0  0
   44.2810  -19.0569   37.2730 C   0  0  0  0  0  0  0  0  0  0  0  0
   41.9530  -18.9169   37.2642 C   0  0  0  0  0  0  0  0  0  0  0  0
 18 19  1  0  0  0
 19 20  1  0  0  0
 20 16  1  0  0  0
 16 17  2  0  0  0
 17  1  1  0  0  0
  1  2  2  0  0  0
  2  3  1  0  0  0
  3  4  2  0  0  0
  4  5  1  0  0  0
  5  6  2  0  0  0
  4  7  1  0  0  0
  7  8  1  0  0  0
  8  9  2  0  0  0
  8 10  1  0  0  0
 10 11  1  0  0  0
 10 12  1  0  0  0
 10 13  1  0  0  0
 20 21  2  0  0  0
 19 22  1  0  0  0
 22 23  1  0  0  0
 23 24  1  0  0  0
 24 25  1  0  0  0
 24 26  1  0  0  0
 26 18  1  0  0  0
  6  1  1  0  0  0
 13  3  1  0  0  0
  7 14  1  0  0  0
 13 15  1  0  0  0
M  END
> <minimizedAffinity>
-6.44107

> <CNNscore>
0.4457658827

> <CNNaffinity>
4.9603605270

> <CNN_VS>
2.2111594677

> <CNNaffinity_variance>
0.0468029119

$$$$
[H]/C(C(=O)N1C([H])([H])C([H])([H])N(C([H])([H])[H])C([H])([H])C1([H])[H])=C(/[H])c1c([H])nc2c(c1[H])N([H])C(C([H])([H])[H])(C([H])([H])[H])C(=O)N2[H]


 26 28  0  0  0  0  0  0  0  0999 V2000
   33.3887  -19.3034   34.5083 C   0  0  0  0  0  0  0  0  0  0  0  0
   33.0080  -20.6232   34.3105 C   0  0  0  0  0  0  0  0  0  0  0  0
   31.7998  -21.1219   34.7559 C   0  0  0  0  0  0  0  0  0  0  0  0
   30.9156  -20.3045   35.4255 C   0  0  0  0  0  0  0  0  0  0  0  0
   31.2809  -19.0294   35.6178 N   0  0  0  0  0  0  0  0  0  0  0  0
   32.4741  -18.5231   35.1821 C   0  0  0  0  0  0  0  0  0  0  0  0
   29.6646  -20.7948   35.8917 N   0  0  0  0  0  0  0  0  0  0  0  0
   29.3411  -22.1591   35.6505 C   0  0  0  0  0  0  0  0  0  0  0  0
   28.1354  -22.5181   35.6142 O   0  0  0  0  0  0  0  0  0  0  0  0
   30.4661  -23.1074   35.4500 C   0  0  0  0  0  0  0  0  0  0  0  0
   31.1136  -23.3057   36.8232 C   0  0  0  0  0  0  0  0  0  0  0  0
   29.9891  -24.4295   34.9441 C   0  0  0  0  0  0  0  0  0  0  0  0
   31.4250  -22.4848   34.5449 N   0  0  0  0  0  0  0  0  0  0  0  0
   28.9920  -20.1806   36.3991 H   0  0  0  0  0  0  0  0  0  0  0  0
   31.8524  -22.9983   33.7434 H   0  0  0  0  0  0  0  0  0  0  0  0
   35.8295  -19.0499   34.5741 C   0  0  0  0  0  0  0  0  0  0  0  0
   34.6729  -18.8210   34.0211 C   0  0  0  0  0  0  0  0  0  0  0  0
   38.2879  -20.6165   34.7711 C   0  0  0  0  0  0  0  0  0  0  0  0
   38.2962  -19.3044   34.1531 N   0  0  0  0  0  0  0  0  0  0  0  0
   37.0942  -18.5550   34.0646 C   0  0  0  0  0  0  0  0  0  0  0  0
   37.1080  -17.4192   33.5281 O   0  0  0  0  0  0  0  0  0  0  0  0
   39.5596  -18.8196   33.6486 C   0  0  0  0  0  0  0  0  0  0  0  0
   40.6443  -19.2988   34.5814 C   0  0  0  0  0  0  0  0  0  0  0  0
   40.7412  -20.7256   34.5987 N   0  0  0  0  0  0  0  0  0  0  0  0
   41.6883  -21.2367   33.6226 C   0  0  0  0  0  0  0  0  0  0  0  0
   39.4994  -21.4130   34.4081 C   0  0  0  0  0  0  0  0  0  0  0  0
 18 19  1  0  0  0
 19 20  1  0  0  0
 20 16  1  0  0  0
 16 17  2  0  0  0
 17  1  1  0  0  0
  1  2  2  0  0  0
  2  3  1  0  0  0
  3  4  2  0  0  0
  4  5  1  0  0  0
  5  6  2  0  0  0
  4  7  1  0  0  0
  7  8  1  0  0  0
  8  9  2  0  0  0
  8 10  1  0  0  0
 10 11  1  0  0  0
 10 12  1  0  0  0
 10 13  1  0  0  0
 20 21  2  0  0  0
 19 22  1  0  0  0
 22 23  1  0  0  0
 23 24  1  0  0  0
 24 25  1  0  0  0
 24 26  1  0  0  0
 26 18  1  0  0  0
  6  1  1  0  0  0
 13  3  1  0  0  0
  7 14  1  0  0  0
 13 15  1  0  0  0
M  END
> <minimizedAffinity>
-6.33234

> <CNNscore>
0.4414304495

> <CNNaffinity>
4.7025365829

> <CNN_VS>
2.0758428574

> <CNNaffinity_variance>
0.2087268382

$$$$
[H]/C(C(=O)N1C([H])([H])C([H])([H])N(C([H])([H])[H])C([H])([H])C1([H])[H])=C(/[H])c1c([H])nc2c(c1[H])N([H])C(C([H])([H])[H])(C([H])([H])[H])C(=O)N2[H]


 26 28  0  0  0  0  0  0  0  0999 V2000
   33.0731  -18.9793   34.6681 C   0  0  0  0  0  0  0  0  0  0  0  0
   32.3636  -19.5237   35.7295 C   0  0  0  0  0  0  0  0  0  0  0  0
   31.9521  -20.8417   35.7488 C   0  0  0  0  0  0  0  0  0  0  0  0
   32.2405  -21.6749   34.6900 C   0  0  0  0  0  0  0  0  0  0  0  0
   32.9255  -21.1515   33.6638 N   0  0  0  0  0  0  0  0  0  0  0  0
   33.3388  -19.8483   33.6321 C   0  0  0  0  0  0  0  0  0  0  0  0
   31.8291  -23.0362   34.6882 N   0  0  0  0  0  0  0  0  0  0  0  0
   31.1070  -23.5256   35.8122 C   0  0  0  0  0  0  0  0  0  0  0  0
   31.1234  -24.7556   36.0779 O   0  0  0  0  0  0  0  0  0  0  0  0
   30.3565  -22.5389   36.6298 C   0  0  0  0  0  0  0  0  0  0  0  0
   29.1446  -22.1183   35.7939 C   0  0  0  0  0  0  0  0  0  0  0  0
   29.8765  -23.1369   37.9118 C   0  0  0  0  0  0  0  0  0  0  0  0
   31.2205  -21.3850   36.8497 N   0  0  0  0  0  0  0  0  0  0  0  0
   32.0446  -23.6709   33.8895 H   0  0  0  0  0  0  0  0  0  0  0  0
   31.3266  -20.9361   37.7856 H   0  0  0  0  0  0  0  0  0  0  0  0
   33.4584  -16.8001   35.7307 C   0  0  0  0  0  0  0  0  0  0  0  0
   33.4867  -17.5837   34.6909 C   0  0  0  0  0  0  0  0  0  0  0  0
   35.9028  -15.9219   37.0688 C   0  0  0  0  0  0  0  0  0  0  0  0
   35.0621  -14.9703   36.3679 N   0  0  0  0  0  0  0  0  0  0  0  0
   33.8777  -15.4115   35.7226 C   0  0  0  0  0  0  0  0  0  0  0  0
   33.1539  -14.5823   35.1172 O   0  0  0  0  0  0  0  0  0  0  0  0
   35.4872  -13.5900   36.3648 C   0  0  0  0  0  0  0  0  0  0  0  0
   36.1247  -13.2998   37.7012 C   0  0  0  0  0  0  0  0  0  0  0  0
   37.3040  -14.0812   37.9107 N   0  0  0  0  0  0  0  0  0  0  0  0
   38.5109  -13.4098   37.4598 C   0  0  0  0  0  0  0  0  0  0  0  0
   37.2750  -15.3820   37.3125 C   0  0  0  0  0  0  0  0  0  0  0  0
 18 19  1  0  0  0
 19 20  1  0  0  0
 20 16  1  0  0  0
 16 17  2  0  0  0
 17  1  1  0  0  0
  1  2  2  0  0  0
  2  3  1  0  0  0
  3  4  2  0  0  0
  4  5  1  0  0  0
  5  6  2  0  0  0
  4  7  1  0  0  0
  7  8  1  0  0  0
  8  9  2  0  0  0
  8 10  1  0  0  0
 10 11  1  0  0  0
 10 12  1  0  0  0
 10 13  1  0  0  0
 20 21  2  0  0  0
 19 22  1  0  0  0
 22 23  1  0  0  0
 23 24  1  0  0  0
 24 25  1  0  0  0
 24 26  1  0  0  0
 26 18  1  0  0  0
  6  1  1  0  0  0
 13  3  1  0  0  0
  7 14  1  0  0  0
 13 15  1  0  0  0
M  END
> <minimizedAffinity>
-5.66453

> <CNNscore>
0.4299282432

> <CNNaffinity>
4.8382616043

> <CNN_VS>
2.0801053047

> <CNNaffinity_variance>
0.2129343301

$$$$
[H]/C(C(=O)N1C([H])([H])C([H])([H])N(C([H])([H])[H])C([H])([H])C1([H])[H])=C(/[H])c1c([H])nc2c(c1[H])N([H])C(C([H])([H])[H])(C([H])([H])[H])C(=O)N2[H]


 26 28  0  0  0  0  0  0  0  0999 V2000
   36.7142  -18.0988   36.1496 C   0  0  0  0  0  0  0  0  0  0  0  0
   36.0650  -19.2456   35.7142 C   0  0  0  0  0  0  0  0  0  0  0  0
   34.7185  -19.2655   35.4086 C   0  0  0  0  0  0  0  0  0  0  0  0
   33.9619  -18.1203   35.5296 C   0  0  0  0  0  0  0  0  0  0  0  0
   34.5866  -17.0115   35.9500 N   0  0  0  0  0  0  0  0  0  0  0  0
   35.9190  -16.9783   36.2559 C   0  0  0  0  0  0  0  0  0  0  0  0
   32.5742  -18.1157   35.2187 N   0  0  0  0  0  0  0  0  0  0  0  0
   31.9769  -19.3286   34.7756 C   0  0  0  0  0  0  0  0  0  0  0  0
   30.9328  -19.2909   34.0740 O   0  0  0  0  0  0  0  0  0  0  0  0
   32.6302  -20.6018   35.1725 C   0  0  0  0  0  0  0  0  0  0  0  0
   32.3472  -20.7851   36.6660 C   0  0  0  0  0  0  0  0  0  0  0  0
   32.0664  -21.7665   34.4263 C   0  0  0  0  0  0  0  0  0  0  0  0
   34.0660  -20.4564   34.9632 N   0  0  0  0  0  0  0  0  0  0  0  0
   31.9971  -17.2520   35.3087 H   0  0  0  0  0  0  0  0  0  0  0  0
   34.6408  -21.1926   34.4983 H   0  0  0  0  0  0  0  0  0  0  0  0
   38.8887  -19.1871   36.4869 C   0  0  0  0  0  0  0  0  0  0  0  0
   38.1361  -18.1245   36.4606 C   0  0  0  0  0  0  0  0  0  0  0  0
   39.9864  -20.7761   38.6793 C   0  0  0  0  0  0  0  0  0  0  0  0
   40.8523  -19.9477   37.8624 N   0  0  0  0  0  0  0  0  0  0  0  0
   40.3048  -19.1812   36.8008 C   0  0  0  0  0  0  0  0  0  0  0  0
   41.0602  -18.4658   36.0969 O   0  0  0  0  0  0  0  0  0  0  0  0
   42.2608  -19.9479   38.1819 C   0  0  0  0  0  0  0  0  0  0  0  0
   42.3945  -20.0535   39.6810 C   0  0  0  0  0  0  0  0  0  0  0  0
   41.8712  -21.2883   40.1778 N   0  0  0  0  0  0  0  0  0  0  0  0
   42.8766  -22.3343   40.2558 C   0  0  0  0  0  0  0  0  0  0  0  0
   40.7554  -21.8049   39.4436 C   0  0  0  0  0  0  0  0  0  0  0  0
 18 19  1  0  0  0
 19 20  1  0  0  0
 20 16  1  0  0  0
 16 17  2  0  0  0
 17  1  1  0  0  0
  1  2  2  0  0  0
  2  3  1  0  0  0
  3  4  2  0  0  0
  4  5  1  0  0  0
  5  6  2  0  0  0
  4  7  1  0  0  0
  7  8  1  0  0  0
  8  9  2  0  0  0
  8 10  1  0  0  0
 10 11  1  0  0  0
 10 12  1  0  0  0
 10 13  1  0  0  0
 20 21  2  0  0  0
 19 22  1  0  0  0
 22 23  1  0  0  0
 23 24  1  0  0  0
 24 25  1  0  0  0
 24 26  1  0  0  0
 26 18  1  0  0  0
  6  1  1  0  0  0
 13  3  1  0  0  0
  7 14  1  0  0  0
 13 15  1  0  0  0
M  END
> <minimizedAffinity>
-5.55178

> <CNNscore>
0.4043478966

> <CNNaffinity>
4.5026764870

> <CNN_VS>
1.8206477165

> <CNNaffinity_variance>
0.0705135986

$$$$
[H]/C(C(=O)N1C([H])([H])C([H])([H])N(C([H])([H])[H])C([H])([H])C1([H])[H])=C(/[H])c1c([H])nc2c(c1[H])N([H])C(C([H])([H])[H])(C([H])([H])[H])C(=O)N2[H]


 26 28  0  0  0  0  0  0  0  0999 V2000
   35.9924  -20.8848   38.0294 C   0  0  0  0  0  0  0  0  0  0  0  0
   35.1904  -20.0791   37.2333 C   0  0  0  0  0  0  0  0  0  0  0  0
   33.8676  -20.3765   36.9710 C   0  0  0  0  0  0  0  0  0  0  0  0
   33.2914  -21.5086   37.5046 C   0  0  0  0  0  0  0  0  0  0  0  0
   34.0639  -22.2883   38.2738 N   0  0  0  0  0  0  0  0  0  0  0  0
   35.3748  -22.0054   38.5412 C   0  0  0  0  0  0  0  0  0  0  0  0
   31.9307  -21.8346   37.2504 N   0  0  0  0  0  0  0  0  0  0  0  0
   31.1687  -20.9600   36.4265 C   0  0  0  0  0  0  0  0  0  0  0  0
   29.9156  -20.9305   36.5381 O   0  0  0  0  0  0  0  0  0  0  0  0
   31.9074  -20.1104   35.4581 C   0  0  0  0  0  0  0  0  0  0  0  0
   32.3922  -21.0447   34.3461 C   0  0  0  0  0  0  0  0  0  0  0  0
   31.0264  -19.0626   34.8603 C   0  0  0  0  0  0  0  0  0  0  0  0
   33.0570  -19.5360   36.1472 N   0  0  0  0  0  0  0  0  0  0  0  0
   31.4898  -22.6901   37.6516 H   0  0  0  0  0  0  0  0  0  0  0  0
   33.3140  -18.5284   36.0620 H   0  0  0  0  0  0  0  0  0  0  0  0
   38.3825  -20.7737   37.4804 C   0  0  0  0  0  0  0  0  0  0  0  0
   37.3825  -20.5318   38.2789 C   0  0  0  0  0  0  0  0  0  0  0  0
   40.1677  -19.7978   35.3834 C   0  0  0  0  0  0  0  0  0  0  0  0
   40.6377  -19.9339   36.7488 N   0  0  0  0  0  0  0  0  0  0  0  0
   39.7590  -20.4093   37.7568 C   0  0  0  0  0  0  0  0  0  0  0  0
   40.1722  -20.5249   38.9374 O   0  0  0  0  0  0  0  0  0  0  0  0
   42.0094  -19.5689   37.0149 C   0  0  0  0  0  0  0  0  0  0  0  0
   42.8342  -19.9652   35.8153 C   0  0  0  0  0  0  0  0  0  0  0  0
   42.4489  -19.2449   34.6413 N   0  0  0  0  0  0  0  0  0  0  0  0
   43.2093  -18.0205   34.4580 C   0  0  0  0  0  0  0  0  0  0  0  0
   41.0576  -18.9130   34.5715 C   0  0  0  0  0  0  0  0  0  0  0  0
 18 19  1  0  0  0
 19 20  1  0  0  0
 20 16  1  0  0  0
 16 17  2  0  0  0
 17  1  1  0  0  0
  1  2  2  0  0  0
  2  3  1  0  0  0
  3  4  2  0  0  0
  4  5  1  0  0  0
  5  6  2  0  0  0
  4  7  1  0  0  0
  7  8  1  0  0  0
  8  9  2  0  0  0
  8 10  1  0  0  0
 10 11  1  0  0  0
 10 12  1  0  0  0
 10 13  1  0  0  0
 20 21  2  0  0  0
 19 22  1  0  0  0
 22 23  1  0  0  0
 23 24  1  0  0  0
 24 25  1  0  0  0
 24 26  1  0  0  0
 26 18  1  0  0  0
  6  1  1  0  0  0
 13  3  1  0  0  0
  7 14  1  0  0  0
 13 15  1  0  0  0
M  END
> <minimizedAffinity>
-4.95287

> <CNNscore>
0.4031008780

> <CNNaffinity>
4.2711076736

> <CNN_VS>
1.7216871977

> <CNNaffinity_variance>
0.3973049819

$$$$
[H]/C(C(=O)N1C([H])([H])C([H])([H])N(C([H])([H])[H])C([H])([H])C1([H])[H])=C(/[H])c1c([H])nc2c(c1[H])N([H])C(C([H])([H])[H])(C([H])([H])[H])C(=O)N2[H]


 26 28  0  0  0  0  0  0  0  0999 V2000
   37.0256  -20.0775   37.5592 C   0  0  0  0  0  0  0  0  0  0  0  0
   38.2660  -20.5914   37.9103 C   0  0  0  0  0  0  0  0  0  0  0  0
   39.4514  -20.0266   37.4828 C   0  0  0  0  0  0  0  0  0  0  0  0
   39.4373  -18.9097   36.6761 C   0  0  0  0  0  0  0  0  0  0  0  0
   38.2406  -18.4115   36.3356 N   0  0  0  0  0  0  0  0  0  0  0  0
   37.0596  -18.9611   36.7519 C   0  0  0  0  0  0  0  0  0  0  0  0
   40.6450  -18.3091   36.2251 N   0  0  0  0  0  0  0  0  0  0  0  0
   41.8799  -18.8899   36.6275 C   0  0  0  0  0  0  0  0  0  0  0  0
   42.9212  -18.1839   36.6592 O   0  0  0  0  0  0  0  0  0  0  0  0
   41.8753  -20.3283   36.9965 C   0  0  0  0  0  0  0  0  0  0  0  0
   41.7152  -21.1090   35.6891 C   0  0  0  0  0  0  0  0  0  0  0  0
   43.1563  -20.7340   37.6490 C   0  0  0  0  0  0  0  0  0  0  0  0
   40.7201  -20.5706   37.8528 N   0  0  0  0  0  0  0  0  0  0  0  0
   40.6399  -17.4640   35.6144 H   0  0  0  0  0  0  0  0  0  0  0  0
   40.7827  -21.1298   38.7314 H   0  0  0  0  0  0  0  0  0  0  0  0
   34.6344  -20.6241   37.4610 C   0  0  0  0  0  0  0  0  0  0  0  0
   35.8012  -20.7062   38.0334 C   0  0  0  0  0  0  0  0  0  0  0  0
   32.6415  -21.7690   35.6570 C   0  0  0  0  0  0  0  0  0  0  0  0
   32.4540  -21.8230   37.0942 N   0  0  0  0  0  0  0  0  0  0  0  0
   33.4306  -21.2626   37.9580 C   0  0  0  0  0  0  0  0  0  0  0  0
   33.2622  -21.3128   39.2019 O   0  0  0  0  0  0  0  0  0  0  0  0
   31.2527  -22.4606   37.5802 C   0  0  0  0  0  0  0  0  0  0  0  0
   30.1379  -22.1436   36.6142 C   0  0  0  0  0  0  0  0  0  0  0  0
   30.3846  -22.6913   35.3163 N   0  0  0  0  0  0  0  0  0  0  0  0
   29.8244  -24.0217   35.1517 C   0  0  0  0  0  0  0  0  0  0  0  0
   31.7658  -22.7464   34.9418 C   0  0  0  0  0  0  0  0  0  0  0  0
 18 19  1  0  0  0
 19 20  1  0  0  0
 20 16  1  0  0  0
 16 17  2  0  0  0
 17  1  1  0  0  0
  1  2  2  0  0  0
  2  3  1  0  0  0
  3  4  2  0  0  0
  4  5  1  0  0  0
  5  6  2  0  0  0
  4  7  1  0  0  0
  7  8  1  0  0  0
  8  9  2  0  0  0
  8 10  1  0  0  0
 10 11  1  0  0  0
 10 12  1  0  0  0
 10 13  1  0  0  0
 20 21  2  0  0  0
 19 22  1  0  0  0
 22 23  1  0  0  0
 23 24  1  0  0  0
 24 25  1  0  0  0
 24 26  1  0  0  0
 26 18  1  0  0  0
  6  1  1  0  0  0
 13  3  1  0  0  0
  7 14  1  0  0  0
 13 15  1  0  0  0
M  END
> <minimizedAffinity>
-4.84289

> <CNNscore>
0.3786317706

> <CNNaffinity>
4.3709778786

> <CNN_VS>
1.6549911499

> <CNNaffinity_variance>
0.0791960806

$$$$
[H]/C(C(=O)N1C([H])([H])C([H])([H])N(C([H])([H])[H])C([H])([H])C1([H])[H])=C(/[H])c1c([H])nc2c(c1[H])N([H])C(C([H])([H])[H])(C([H])([H])[H])C(=O)N2[H]


 26 28  0  0  0  0  0  0  0  0999 V2000
   34.7206  -13.7006   36.8176 C   0  0  0  0  0  0  0  0  0  0  0  0
   34.3988  -15.0216   36.5390 C   0  0  0  0  0  0  0  0  0  0  0  0
   35.3417  -16.0304   36.5358 C   0  0  0  0  0  0  0  0  0  0  0  0
   36.6610  -15.7486   36.8159 C   0  0  0  0  0  0  0  0  0  0  0  0
   36.9744  -14.4736   37.0852 N   0  0  0  0  0  0  0  0  0  0  0  0
   36.0505  -13.4654   37.0916 C   0  0  0  0  0  0  0  0  0  0  0  0
   37.6496  -16.7710   36.8207 N   0  0  0  0  0  0  0  0  0  0  0  0
   37.2454  -18.1034   36.5280 C   0  0  0  0  0  0  0  0  0  0  0  0
   37.9291  -19.0710   36.9523 O   0  0  0  0  0  0  0  0  0  0  0  0
   36.0125  -18.2861   35.7208 C   0  0  0  0  0  0  0  0  0  0  0  0
   36.3692  -17.8770   34.2891 C   0  0  0  0  0  0  0  0  0  0  0  0
   35.5607  -19.7100   35.7192 C   0  0  0  0  0  0  0  0  0  0  0  0
   34.9925  -17.3853   36.2448 N   0  0  0  0  0  0  0  0  0  0  0  0
   38.6493  -16.5632   37.0318 H   0  0  0  0  0  0  0  0  0  0  0  0
   34.0102  -17.6921   36.4167 H   0  0  0  0  0  0  0  0  0  0  0  0
   33.2136  -12.0668   37.8597 C   0  0  0  0  0  0  0  0  0  0  0  0
   33.6929  -12.6695   36.8095 C   0  0  0  0  0  0  0  0  0  0  0  0
   30.4437  -12.6303   38.5989 C   0  0  0  0  0  0  0  0  0  0  0  0
   30.8390  -11.3004   38.1762 N   0  0  0  0  0  0  0  0  0  0  0  0
   32.1882  -11.0417   37.8201 C   0  0  0  0  0  0  0  0  0  0  0  0
   32.5242   -9.8877   37.4548 O   0  0  0  0  0  0  0  0  0  0  0  0
   29.8117  -10.2860   38.1397 C   0  0  0  0  0  0  0  0  0  0  0  0
   28.5277  -10.9441   37.6985 C   0  0  0  0  0  0  0  0  0  0  0  0
   28.0840  -11.9296   38.6352 N   0  0  0  0  0  0  0  0  0  0  0  0
   27.1807  -11.3878   39.6358 C   0  0  0  0  0  0  0  0  0  0  0  0
   29.1344  -12.6215   39.3198 C   0  0  0  0  0  0  0  0  0  0  0  0
 18 19  1  0  0  0
 19 20  1  0  0  0
 20 16  1  0  0  0
 16 17  2  0  0  0
 17  1  1  0  0  0
  1  2  2  0  0  0
  2  3  1  0  0  0
  3  4  2  0  0  0
  4  5  1  0  0  0
  5  6  2  0  0  0
  4  7  1  0  0  0
  7  8  1  0  0  0
  8  9  2  0  0  0
  8 10  1  0  0  0
 10 11  1  0  0  0
 10 12  1  0  0  0
 10 13  1  0  0  0
 20 21  2  0  0  0
 19 22  1  0  0  0
 22 23  1  0  0  0
 23 24  1  0  0  0
 24 25  1  0  0  0
 24 26  1  0  0  0
 26 18  1  0  0  0
  6  1  1  0  0  0
 13  3  1  0  0  0
  7 14  1  0  0  0
 13 15  1  0  0  0
M  END
> <minimizedAffinity>
-7.79987

> <CNNscore>
0.3625091314

> <CNNaffinity>
5.6399259567

> <CNN_VS>
2.0445246696

> <CNNaffinity_variance>
0.0617155507

$$$$
[H]C1=C2C([H])([H])C([H])([H])[C@@]3([H])[C@]4([H])C([H])([H])C([H])([H])C(=O)[C@@]4(C([H])([H])[H])C([H])([H])C([H])([H])[C@]3([H])[C@@]2(C([H])([H])[H])C([H])([H])C([H])([H])C1=O


 21 24  0  0  0  0  0  0  0  0999 V2000
   35.2802  -19.1926   34.4187 C   0  0  0  0  0  0  0  0  0  0  0  0
   34.8995  -18.9162   35.8503 C   0  0  0  0  0  0  0  0  0  0  0  0
   34.9665  -20.1514   36.6799 C   0  0  0  0  0  0  0  0  0  0  0  0
   33.7352  -20.9476   36.7862 C   0  0  0  0  0  0  0  0  0  0  0  0
   32.4745  -20.4221   36.2403 C   0  0  0  0  0  0  0  0  0  0  0  0
   32.6037  -19.2625   35.2728 C   0  0  0  0  0  0  0  0  0  0  0  0
   31.2834  -18.5735   35.0697 C   0  0  0  0  0  0  0  0  0  0  0  0
   30.1365  -19.4795   34.7931 C   0  0  0  0  0  0  0  0  0  0  0  0
   30.2553  -20.8217   35.4199 C   0  0  0  0  0  0  0  0  0  0  0  0
   29.0927  -21.3899   35.7717 C   0  0  0  0  0  0  0  0  0  0  0  0
   29.0371  -22.6912   36.3916 C   0  0  0  0  0  0  0  0  0  0  0  0
   28.0268  -23.1412   36.9533 O   0  0  0  0  0  0  0  0  0  0  0  0
   30.2602  -23.5232   36.3466 C   0  0  0  0  0  0  0  0  0  0  0  0
   31.4238  -22.5963   36.6381 C   0  0  0  0  0  0  0  0  0  0  0  0
   31.5631  -21.4874   35.6409 C   0  0  0  0  0  0  0  0  0  0  0  0
   32.1305  -22.0525   34.3656 C   0  0  0  0  0  0  0  0  0  0  0  0
   33.5206  -18.3047   35.9775 C   0  0  0  0  0  0  0  0  0  0  0  0
   33.6979  -16.9846   35.3257 C   0  0  0  0  0  0  0  0  0  0  0  0
   35.0861  -16.5621   35.8259 C   0  0  0  0  0  0  0  0  0  0  0  0
   35.7199  -17.7960   36.3398 C   0  0  0  0  0  0  0  0  0  0  0  0
   36.7081  -17.8797   37.0218 O   0  0  0  0  0  0  0  0  0  0  0  0
  2  1  1  0  0  0
  2  3  1  0  0  0
  3  4  1  0  0  0
  4  5  1  0  0  0
  5  6  1  0  0  0
  6  7  1  0  0  0
  7  8  1  0  0  0
  8  9  1  0  0  0
  9 10  2  0  0  0
 10 11  1  0  0  0
 11 12  2  0  0  0
 11 13  1  0  0  0
 13 14  1  0  0  0
 14 15  1  0  0  0
 15 16  1  0  0  0
  6 17  1  0  0  0
 17 18  1  0  0  0
 18 19  1  0  0  0
 19 20  1  0  0  0
 20 21  2  0  0  0
 17  2  1  0  0  0
 20  2  1  0  0  0
 15  5  1  0  0  0
 15  9  1  0  0  0
M  END
> <minimizedAffinity>
-6.04235

> <CNNscore>
0.5781570077

> <CNNaffinity>
4.7039852142

> <CNN_VS>
2.7196419239

> <CNNaffinity_variance>
0.2512061894

$$$$
[H]C1=C2C([H])([H])C([H])([H])[C@@]3([H])[C@]4([H])C([H])([H])C([H])([H])C(=O)[C@@]4(C([H])([H])[H])C([H])([H])C([H])([H])[C@]3([H])[C@@]2(C([H])([H])[H])C([H])([H])C([H])([H])C1=O


 21 24  0  0  0  0  0  0  0  0999 V2000
   29.9414  -23.5767   35.1515 C   0  0  0  0  0  0  0  0  0  0  0  0
   29.4543  -22.5790   36.1703 C   0  0  0  0  0  0  0  0  0  0  0  0
   29.0304  -21.3050   35.5255 C   0  0  0  0  0  0  0  0  0  0  0  0
   30.0542  -20.2594   35.3843 C   0  0  0  0  0  0  0  0  0  0  0  0
   31.3672  -20.4294   36.0251 C   0  0  0  0  0  0  0  0  0  0  0  0
   31.7085  -21.8366   36.4733 C   0  0  0  0  0  0  0  0  0  0  0  0
   32.8717  -21.8374   37.4250 C   0  0  0  0  0  0  0  0  0  0  0  0
   34.0428  -21.0305   36.9888 C   0  0  0  0  0  0  0  0  0  0  0  0
   33.6944  -19.8575   36.1456 C   0  0  0  0  0  0  0  0  0  0  0  0
   34.5102  -18.8012   36.2757 C   0  0  0  0  0  0  0  0  0  0  0  0
   34.3081  -17.5851   35.5268 C   0  0  0  0  0  0  0  0  0  0  0  0
   34.8737  -16.5135   35.7923 O   0  0  0  0  0  0  0  0  0  0  0  0
   33.3719  -17.6345   34.3816 C   0  0  0  0  0  0  0  0  0  0  0  0
   32.1773  -18.4500   34.8355 C   0  0  0  0  0  0  0  0  0  0  0  0
   32.5301  -19.8526   35.2253 C   0  0  0  0  0  0  0  0  0  0  0  0
   32.7961  -20.6493   33.9755 C   0  0  0  0  0  0  0  0  0  0  0  0
   30.4908  -22.2792   37.2322 C   0  0  0  0  0  0  0  0  0  0  0  0
   30.6077  -23.5787   37.9368 C   0  0  0  0  0  0  0  0  0  0  0  0
   29.1470  -24.0463   37.9950 C   0  0  0  0  0  0  0  0  0  0  0  0
   28.4236  -23.2274   36.9978 C   0  0  0  0  0  0  0  0  0  0  0  0
   27.2321  -23.1076   36.8773 O   0  0  0  0  0  0  0  0  0  0  0  0
  2  1  1  0  0  0
  2  3  1  0  0  0
  3  4  1  0  0  0
  4  5  1  0  0  0
  5  6  1  0  0  0
  6  7  1  0  0  0
  7  8  1  0  0  0
  8  9  1  0  0  0
  9 10  2  0  0  0
 10 11  1  0  0  0
 11 12  2  0  0  0
 11 13  1  0  0  0
 13 14  1  0  0  0
 14 15  1  0  0  0
 15 16  1  0  0  0
  6 17  1  0  0  0
 17 18  1  0  0  0
 18 19  1  0  0  0
 19 20  1  0  0  0
 20 21  2  0  0  0
 17  2  1  0  0  0
 20  2  1  0  0  0
 15  5  1  0  0  0
 15  9  1  0  0  0
M  END
> <minimizedAffinity>
-5.64459

> <CNNscore>
0.5688821673

> <CNNaffinity>
4.5792474747

> <CNN_VS>
2.6050522327

> <CNNaffinity_variance>
0.2299013883

$$$$
[H]C1=C2C([H])([H])C([H])([H])[C@@]3([H])[C@]4([H])C([H])([H])C([H])([H])C(=O)[C@@]4(C([H])([H])[H])C([H])([H])C([H])([H])[C@]3([H])[C@@]2(C([H])([H])[H])C([H])([H])C([H])([H])C1=O


 21 24  0  0  0  0  0  0  0  0999 V2000
   33.8019  -20.1102   33.9897 C   0  0  0  0  0  0  0  0  0  0  0  0
   33.6961  -19.8552   35.4711 C   0  0  0  0  0  0  0  0  0  0  0  0
   34.1724  -21.0250   36.2605 C   0  0  0  0  0  0  0  0  0  0  0  0
   33.1656  -22.0297   36.6321 C   0  0  0  0  0  0  0  0  0  0  0  0
   31.7408  -21.7663   36.3794 C   0  0  0  0  0  0  0  0  0  0  0  0
   31.4367  -20.6397   35.4120 C   0  0  0  0  0  0  0  0  0  0  0  0
   29.9984  -20.2138   35.5075 C   0  0  0  0  0  0  0  0  0  0  0  0
   29.0099  -21.3252   35.4866 C   0  0  0  0  0  0  0  0  0  0  0  0
   29.5120  -22.5981   36.0664 C   0  0  0  0  0  0  0  0  0  0  0  0
   28.5815  -23.3572   36.6632 C   0  0  0  0  0  0  0  0  0  0  0  0
   28.9073  -24.6223   37.2748 C   0  0  0  0  0  0  0  0  0  0  0  0
   28.1460  -25.2293   38.0434 O   0  0  0  0  0  0  0  0  0  0  0  0
   30.2254  -25.2159   36.9581 C   0  0  0  0  0  0  0  0  0  0  0  0
   31.2292  -24.0803   36.9900 C   0  0  0  0  0  0  0  0  0  0  0  0
   30.9378  -23.0029   35.9911 C   0  0  0  0  0  0  0  0  0  0  0  0
   31.3107  -23.5011   34.6199 C   0  0  0  0  0  0  0  0  0  0  0  0
   32.2879  -19.5037   35.9014 C   0  0  0  0  0  0  0  0  0  0  0  0
   32.0682  -18.1990   35.2319 C   0  0  0  0  0  0  0  0  0  0  0  0
   33.4272  -17.5096   35.4158 C   0  0  0  0  0  0  0  0  0  0  0  0
   34.3777  -18.5855   35.7725 C   0  0  0  0  0  0  0  0  0  0  0  0
   35.4881  -18.4602   36.2198 O   0  0  0  0  0  0  0  0  0  0  0  0
  2  1  1  0  0  0
  2  3  1  0  0  0
  3  4  1  0  0  0
  4  5  1  0  0  0
  5  6  1  0  0  0
  6  7  1  0  0  0
  7  8  1  0  0  0
  8  9  1  0  0  0
  9 10  2  0  0  0
 10 11  1  0  0  0
 11 12  2  0  0  0
 11 13  1  0  0  0
 13 14  1  0  0  0
 14 15  1  0  0  0
 15 16  1  0  0  0
  6 17  1  0  0  0
 17 18  1  0  0  0
 18 19  1  0  0  0
 19 20  1  0  0  0
 20 21  2  0  0  0
 17  2  1  0  0  0
 20  2  1  0  0  0
 15  5  1  0  0  0
 15  9  1  0  0  0
M  END
> <minimizedAffinity>
-4.65299

> <CNNscore>
0.5530831814

> <CNNaffinity>
4.4879970551

> <CNN_VS>
2.4822356701

> <CNNaffinity_variance>
0.2229340374

$$$$
[H]C1=C2C([H])([H])C([H])([H])[C@@]3([H])[C@]4([H])C([H])([H])C([H])([H])C(=O)[C@@]4(C([H])([H])[H])C([H])([H])C([H])([H])[C@]3([H])[C@@]2(C([H])([H])[H])C([H])([H])C([H])([H])C1=O


 21 24  0  0  0  0  0  0  0  0999 V2000
   33.1170  -17.8176   36.2625 C   0  0  0  0  0  0  0  0  0  0  0  0
   33.3342  -19.2792   35.9673 C   0  0  0  0  0  0  0  0  0  0  0  0
   34.0036  -19.9708   37.1040 C   0  0  0  0  0  0  0  0  0  0  0  0
   35.4726  -20.0215   37.0783 C   0  0  0  0  0  0  0  0  0  0  0  0
   36.1998  -19.5653   35.8839 C   0  0  0  0  0  0  0  0  0  0  0  0
   35.4049  -18.7239   34.9054 C   0  0  0  0  0  0  0  0  0  0  0  0
   36.1035  -18.6272   33.5781 C   0  0  0  0  0  0  0  0  0  0  0  0
   37.5490  -18.2837   33.6509 C   0  0  0  0  0  0  0  0  0  0  0  0
   38.2273  -18.7610   34.8840 C   0  0  0  0  0  0  0  0  0  0  0  0
   39.5216  -19.0784   34.7345 C   0  0  0  0  0  0  0  0  0  0  0  0
   40.3211  -19.5574   35.8353 C   0  0  0  0  0  0  0  0  0  0  0  0
   41.4315  -20.0923   35.6954 O   0  0  0  0  0  0  0  0  0  0  0  0
   39.7732  -19.3946   37.2004 C   0  0  0  0  0  0  0  0  0  0  0  0
   38.3028  -19.7548   37.1213 C   0  0  0  0  0  0  0  0  0  0  0  0
   37.5267  -18.8782   36.1870 C   0  0  0  0  0  0  0  0  0  0  0  0
   37.3229  -17.5366   36.8400 C   0  0  0  0  0  0  0  0  0  0  0  0
   34.1378  -19.5041   34.7043 C   0  0  0  0  0  0  0  0  0  0  0  0
   33.2258  -18.9924   33.6530 C   0  0  0  0  0  0  0  0  0  0  0  0
   31.8604  -19.5009   34.1354 C   0  0  0  0  0  0  0  0  0  0  0  0
   32.0474  -19.8651   35.5569 C   0  0  0  0  0  0  0  0  0  0  0  0
   31.3038  -20.5103   36.2493 O   0  0  0  0  0  0  0  0  0  0  0  0
  2  1  1  0  0  0
  2  3  1  0  0  0
  3  4  1  0  0  0
  4  5  1  0  0  0
  5  6  1  0  0  0
  6  7  1  0  0  0
  7  8  1  0  0  0
  8  9  1  0  0  0
  9 10  2  0  0  0
 10 11  1  0  0  0
 11 12  2  0  0  0
 11 13  1  0  0  0
 13 14  1  0  0  0
 14 15  1  0  0  0
 15 16  1  0  0  0
  6 17  1  0  0  0
 17 18  1  0  0  0
 18 19  1  0  0  0
 19 20  1  0  0  0
 20 21  2  0  0  0
 17  2  1  0  0  0
 20  2  1  0  0  0
 15  5  1  0  0  0
 15  9  1  0  0  0
M  END
> <minimizedAffinity>
-5.25954

> <CNNscore>
0.5345386863

> <CNNaffinity>
4.7923660278

> <CNN_VS>
2.5617051125

> <CNNaffinity_variance>
0.1428834498

$$$$
[H]C1=C2C([H])([H])C([H])([H])[C@@]3([H])[C@]4([H])C([H])([H])C([H])([H])C(=O)[C@@]4(C([H])([H])[H])C([H])([H])C([H])([H])[C@]3([H])[C@@]2(C([H])([H])[H])C([H])([H])C([H])([H])C1=O


 21 24  0  0  0  0  0  0  0  0999 V2000
   36.7614  -17.1158   35.6988 C   0  0  0  0  0  0  0  0  0  0  0  0
   36.9527  -18.3895   34.9166 C   0  0  0  0  0  0  0  0  0  0  0  0
   36.0876  -18.4194   33.7044 C   0  0  0  0  0  0  0  0  0  0  0  0
   34.7565  -19.0254   33.8533 C   0  0  0  0  0  0  0  0  0  0  0  0
   34.4046  -19.7213   35.1004 C   0  0  0  0  0  0  0  0  0  0  0  0
   35.3013  -19.4430   36.2902 C   0  0  0  0  0  0  0  0  0  0  0  0
   35.0923  -20.4585   37.3785 C   0  0  0  0  0  0  0  0  0  0  0  0
   33.6709  -20.7225   37.7288 C   0  0  0  0  0  0  0  0  0  0  0  0
   32.7223  -20.5484   36.5982 C   0  0  0  0  0  0  0  0  0  0  0  0
   31.6469  -21.3488   36.6297 C   0  0  0  0  0  0  0  0  0  0  0  0
   30.6323  -21.3031   35.6055 C   0  0  0  0  0  0  0  0  0  0  0  0
   29.7658  -22.1784   35.4583 O   0  0  0  0  0  0  0  0  0  0  0  0
   30.6384  -20.1420   34.6879 C   0  0  0  0  0  0  0  0  0  0  0  0
   32.0881  -19.8840   34.3277 C   0  0  0  0  0  0  0  0  0  0  0  0
   32.9455  -19.5612   35.5127 C   0  0  0  0  0  0  0  0  0  0  0  0
   32.6438  -18.1550   35.9589 C   0  0  0  0  0  0  0  0  0  0  0  0
   36.6891  -19.6271   35.7475 C   0  0  0  0  0  0  0  0  0  0  0  0
   37.7837  -19.5772   36.7466 C   0  0  0  0  0  0  0  0  0  0  0  0
   38.9752  -19.1151   35.8965 C   0  0  0  0  0  0  0  0  0  0  0  0
   38.3914  -18.5610   34.6553 C   0  0  0  0  0  0  0  0  0  0  0  0
   38.9670  -18.2988   33.6313 O   0  0  0  0  0  0  0  0  0  0  0  0
  2  1  1  0  0  0
  2  3  1  0  0  0
  3  4  1  0  0  0
  4  5  1  0  0  0
  5  6  1  0  0  0
  6  7  1  0  0  0
  7  8  1  0  0  0
  8  9  1  0  0  0
  9 10  2  0  0  0
 10 11  1  0  0  0
 11 12  2  0  0  0
 11 13  1  0  0  0
 13 14  1  0  0  0
 14 15  1  0  0  0
 15 16  1  0  0  0
  6 17  1  0  0  0
 17 18  1  0  0  0
 18 19  1  0  0  0
 19 20  1  0  0  0
 20 21  2  0  0  0
 17  2  1  0  0  0
 20  2  1  0  0  0
 15  5  1  0  0  0
 15  9  1  0  0  0
M  END
> <minimizedAffinity>
-5.80774

> <CNNscore>
0.4814388752

> <CNNaffinity>
4.8572773933

> <CNN_VS>
2.3384821415

> <CNNaffinity_variance>
0.1191232204

$$$$
[H]C1=C2C([H])([H])C([H])([H])[C@@]3([H])[C@]4([H])C([H])([H])C([H])([H])C(=O)[C@@]4(C([H])([H])[H])C([H])([H])C([H])([H])[C@]3([H])[C@@]2(C([H])([H])[H])C([H])([H])C([H])([H])C1=O


 21 24  0  0  0  0  0  0  0  0999 V2000
   36.7467  -16.5607   35.3066 C   0  0  0  0  0  0  0  0  0  0  0  0
   35.9307  -16.5058   36.5723 C   0  0  0  0  0  0  0  0  0  0  0  0
   36.1834  -17.6933   37.4352 C   0  0  0  0  0  0  0  0  0  0  0  0
   35.3069  -18.8568   37.2371 C   0  0  0  0  0  0  0  0  0  0  0  0
   34.1357  -18.7488   36.3539 C   0  0  0  0  0  0  0  0  0  0  0  0
   34.1222  -17.5599   35.4137 C   0  0  0  0  0  0  0  0  0  0  0  0
   32.7517  -17.3367   34.8383 C   0  0  0  0  0  0  0  0  0  0  0  0
   32.0896  -18.5544   34.2985 C   0  0  0  0  0  0  0  0  0  0  0  0
   32.4786  -19.8142   34.9840 C   0  0  0  0  0  0  0  0  0  0  0  0
   31.5232  -20.7539   35.0322 C   0  0  0  0  0  0  0  0  0  0  0  0
   31.7426  -22.0325   35.6628 C   0  0  0  0  0  0  0  0  0  0  0  0
   30.8299  -22.8221   35.9494 O   0  0  0  0  0  0  0  0  0  0  0  0
   33.1386  -22.4089   35.9786 C   0  0  0  0  0  0  0  0  0  0  0  0
   33.8049  -21.1668   36.5365 C   0  0  0  0  0  0  0  0  0  0  0  0
   33.8254  -20.0207   35.5724 C   0  0  0  0  0  0  0  0  0  0  0  0
   34.8652  -20.2943   34.5181 C   0  0  0  0  0  0  0  0  0  0  0  0
   34.4454  -16.3933   36.3020 C   0  0  0  0  0  0  0  0  0  0  0  0
   34.3383  -15.0549   35.6726 C   0  0  0  0  0  0  0  0  0  0  0  0
   35.3207  -14.2252   36.5105 C   0  0  0  0  0  0  0  0  0  0  0  0
   36.1695  -15.2062   37.2215 C   0  0  0  0  0  0  0  0  0  0  0  0
   36.9107  -14.9958   38.1462 O   0  0  0  0  0  0  0  0  0  0  0  0
  2  1  1  0  0  0
  2  3  1  0  0  0
  3  4  1  0  0  0
  4  5  1  0  0  0
  5  6  1  0  0  0
  6  7  1  0  0  0
  7  8  1  0  0  0
  8  9  1  0  0  0
  9 10  2  0  0  0
 10 11  1  0  0  0
 11 12  2  0  0  0
 11 13  1  0  0  0
 13 14  1  0  0  0
 14 15  1  0  0  0
 15 16  1  0  0  0
  6 17  1  0  0  0
 17 18  1  0  0  0
 18 19  1  0  0  0
 19 20  1  0  0  0
 20 21  2  0  0  0
 17  2  1  0  0  0
 20  2  1  0  0  0
 15  5  1  0  0  0
 15  9  1  0  0  0
M  END
> <minimizedAffinity>
-4.77938

> <CNNscore>
0.4512478113

> <CNNaffinity>
4.7187852859

> <CNN_VS>
2.1293416023

> <CNNaffinity_variance>
0.1534613073

$$$$
[H]C1=C2C([H])([H])C([H])([H])[C@@]3([H])[C@]4([H])C([H])([H])C([H])([H])C(=O)[C@@]4(C([H])([H])[H])C([H])([H])C([H])([H])[C@]3([H])[C@@]2(C([H])([H])[H])C([H])([H])C([H])([H])C1=O


 21 24  0  0  0  0  0  0  0  0999 V2000
   37.0293  -20.2166   34.9242 C   0  0  0  0  0  0  0  0  0  0  0  0
   36.6328  -19.8635   36.3345 C   0  0  0  0  0  0  0  0  0  0  0  0
   35.9766  -21.0119   37.0195 C   0  0  0  0  0  0  0  0  0  0  0  0
   34.5129  -21.0997   36.9142 C   0  0  0  0  0  0  0  0  0  0  0  0
   33.7547  -19.9920   36.3128 C   0  0  0  0  0  0  0  0  0  0  0  0
   34.5632  -18.9990   35.5018 C   0  0  0  0  0  0  0  0  0  0  0  0
   33.7843  -17.7380   35.2523 C   0  0  0  0  0  0  0  0  0  0  0  0
   32.3942  -17.9426   34.7640 C   0  0  0  0  0  0  0  0  0  0  0  0
   31.7596  -19.1988   35.2412 C   0  0  0  0  0  0  0  0  0  0  0  0
   30.4310  -19.1357   35.4114 C   0  0  0  0  0  0  0  0  0  0  0  0
   29.6664  -20.2698   35.8696 C   0  0  0  0  0  0  0  0  0  0  0  0
   28.4970  -20.1903   36.2756 O   0  0  0  0  0  0  0  0  0  0  0  0
   30.3270  -21.5939   35.8480 C   0  0  0  0  0  0  0  0  0  0  0  0
   31.7395  -21.3801   36.3550 C   0  0  0  0  0  0  0  0  0  0  0  0
   32.5364  -20.4345   35.5098 C   0  0  0  0  0  0  0  0  0  0  0  0
   32.9327  -21.1386   34.2390 C   0  0  0  0  0  0  0  0  0  0  0  0
   35.7194  -18.6579   36.3971 C   0  0  0  0  0  0  0  0  0  0  0  0
   36.6026  -17.5660   35.9212 C   0  0  0  0  0  0  0  0  0  0  0  0
   37.9359  -17.9118   36.5984 C   0  0  0  0  0  0  0  0  0  0  0  0
   37.8145  -19.3226   37.0263 C   0  0  0  0  0  0  0  0  0  0  0  0
   38.5317  -19.9194   37.7866 O   0  0  0  0  0  0  0  0  0  0  0  0
  2  1  1  0  0  0
  2  3  1  0  0  0
  3  4  1  0  0  0
  4  5  1  0  0  0
  5  6  1  0  0  0
  6  7  1  0  0  0
  7  8  1  0  0  0
  8  9  1  0  0  0
  9 10  2  0  0  0
 10 11  1  0  0  0
 11 12  2  0  0  0
 11 13  1  0  0  0
 13 14  1  0  0  0
 14 15  1  0  0  0
 15 16  1  0  0  0
  6 17  1  0  0  0
 17 18  1  0  0  0
 18 19  1  0  0  0
 19 20  1  0  0  0
 20 21  2  0  0  0
 17  2  1  0  0  0
 20  2  1  0  0  0
 15  5  1  0  0  0
 15  9  1  0  0  0
M  END
> <minimizedAffinity>
-4.61868

> <CNNscore>
0.4477191567

> <CNNaffinity>
4.7800002098

> <CNN_VS>
2.1400976181

> <CNNaffinity_variance>
0.1397147477

$$$$
[H]C1=C2C([H])([H])C([H])([H])[C@@]3([H])[C@]4([H])C([H])([H])C([H])([H])C(=O)[C@@]4(C([H])([H])[H])C([H])([H])C([H])([H])[C@]3([H])[C@@]2(C([H])([H])[H])C([H])([H])C([H])([H])C1=O


 21 24  0  0  0  0  0  0  0  0999 V2000
   31.6639  -21.9032   34.5887 C   0  0  0  0  0  0  0  0  0  0  0  0
   31.0767  -21.0345   35.6710 C   0  0  0  0  0  0  0  0  0  0  0  0
   30.8999  -19.6304   35.2065 C   0  0  0  0  0  0  0  0  0  0  0  0
   32.0190  -18.7068   35.4426 C   0  0  0  0  0  0  0  0  0  0  0  0
   33.1618  -19.1364   36.2629 C   0  0  0  0  0  0  0  0  0  0  0  0
   33.2846  -20.6287   36.4983 C   0  0  0  0  0  0  0  0  0  0  0  0
   34.2353  -20.9256   37.6240 C   0  0  0  0  0  0  0  0  0  0  0  0
   35.5350  -20.2052   37.5571 C   0  0  0  0  0  0  0  0  0  0  0  0
   35.4618  -18.8765   36.8954 C   0  0  0  0  0  0  0  0  0  0  0  0
   36.3258  -17.9619   37.3591 C   0  0  0  0  0  0  0  0  0  0  0  0
   36.3809  -16.6242   36.8225 C   0  0  0  0  0  0  0  0  0  0  0  0
   36.9754  -15.6866   37.3758 O   0  0  0  0  0  0  0  0  0  0  0  0
   35.6854  -16.3722   35.5407 C   0  0  0  0  0  0  0  0  0  0  0  0
   34.3585  -17.1011   35.6189 C   0  0  0  0  0  0  0  0  0  0  0  0
   34.5043  -18.5807   35.8008 C   0  0  0  0  0  0  0  0  0  0  0  0
   34.9382  -19.1882   34.4930 C   0  0  0  0  0  0  0  0  0  0  0  0
   31.9084  -21.0398   36.9359 C   0  0  0  0  0  0  0  0  0  0  0  0
   31.7714  -22.4417   37.3994 C   0  0  0  0  0  0  0  0  0  0  0  0
   30.2921  -22.7330   37.1120 C   0  0  0  0  0  0  0  0  0  0  0  0
   29.8517  -21.6808   36.1702 C   0  0  0  0  0  0  0  0  0  0  0  0
   28.7217  -21.4002   35.8652 O   0  0  0  0  0  0  0  0  0  0  0  0
  2  1  1  0  0  0
  2  3  1  0  0  0
  3  4  1  0  0  0
  4  5  1  0  0  0
  5  6  1  0  0  0
  6  7  1  0  0  0
  7  8  1  0  0  0
  8  9  1  0  0  0
  9 10  2  0  0  0
 10 11  1  0  0  0
 11 12  2  0  0  0
 11 13  1  0  0  0
 13 14  1  0  0  0
 14 15  1  0  0  0
 15 16  1  0  0  0
  6 17  1  0  0  0
 17 18  1  0  0  0
 18 19  1  0  0  0
 19 20  1  0  0  0
 20 21  2  0  0  0
 17  2  1  0  0  0
 20  2  1  0  0  0
 15  5  1  0  0  0
 15  9  1  0  0  0
M  END
> <minimizedAffinity>
-6.14829

> <CNNscore>
0.4412039518

> <CNNaffinity>
4.6263327599

> <CNN_VS>
2.0411562920

> <CNNaffinity_variance>
0.1746421754

$$$$
[H]C1=C2C([H])([H])C([H])([H])[C@@]3([H])[C@]4([H])C([H])([H])C([H])([H])C(=O)[C@@]4(C([H])([H])[H])C([H])([H])C([H])([H])[C@]3([H])[C@@]2(C([H])([H])[H])C([H])([H])C([H])([H])C1=O


 21 24  0  0  0  0  0  0  0  0999 V2000
   36.1629  -14.0441   35.4407 C   0  0  0  0  0  0  0  0  0  0  0  0
   35.3945  -14.3893   36.6902 C   0  0  0  0  0  0  0  0  0  0  0  0
   36.2958  -14.9011   37.7599 C   0  0  0  0  0  0  0  0  0  0  0  0
   36.5086  -16.3548   37.8099 C   0  0  0  0  0  0  0  0  0  0  0  0
   35.7108  -17.2413   36.9491 C   0  0  0  0  0  0  0  0  0  0  0  0
   34.9872  -16.5715   35.7979 C   0  0  0  0  0  0  0  0  0  0  0  0
   33.9309  -17.4721   35.2213 C   0  0  0  0  0  0  0  0  0  0  0  0
   34.3745  -18.8641   34.9416 C   0  0  0  0  0  0  0  0  0  0  0  0
   35.4440  -19.3566   35.8483 C   0  0  0  0  0  0  0  0  0  0  0  0
   35.4156  -20.6737   36.0984 C   0  0  0  0  0  0  0  0  0  0  0  0
   36.3847  -21.3074   36.9586 C   0  0  0  0  0  0  0  0  0  0  0  0
   36.2533  -22.4542   37.4127 O   0  0  0  0  0  0  0  0  0  0  0  0
   37.5969  -20.5343   37.3095 C   0  0  0  0  0  0  0  0  0  0  0  0
   37.1371  -19.1197   37.6021 C   0  0  0  0  0  0  0  0  0  0  0  0
   36.4702  -18.4592   36.4348 C   0  0  0  0  0  0  0  0  0  0  0  0
   37.5238  -18.0752   35.4298 C   0  0  0  0  0  0  0  0  0  0  0  0
   34.2972  -15.4010   36.4370 C   0  0  0  0  0  0  0  0  0  0  0  0
   33.3659  -14.6466   35.5638 C   0  0  0  0  0  0  0  0  0  0  0  0
   33.3832  -13.2515   36.2035 C   0  0  0  0  0  0  0  0  0  0  0  0
   34.5811  -13.2228   37.0710 C   0  0  0  0  0  0  0  0  0  0  0  0
   34.8480  -12.4133   37.9207 O   0  0  0  0  0  0  0  0  0  0  0  0
  2  1  1  0  0  0
  2  3  1  0  0  0
  3  4  1  0  0  0
  4  5  1  0  0  0
  5  6  1  0  0  0
  6  7  1  0  0  0
  7  8  1  0  0  0
  8  9  1  0  0  0
  9 10  2  0  0  0
 10 11  1  0  0  0
 11 12  2  0  0  0
 11 13  1  0  0  0
 13 14  1  0  0  0
 14 15  1  0  0  0
 15 16  1  0  0  0
  6 17  1  0  0  0
 17 18  1  0  0  0
 18 19  1  0  0  0
 19 20  1  0  0  0
 20 21  2  0  0  0
 17  2  1  0  0  0
 20  2  1  0  0  0
 15  5  1  0  0  0
 15  9  1  0  0  0
M  END
> <minimizedAffinity>
-5.63465

> <CNNscore>
0.4350842237

> <CNNaffinity>
4.7601366043

> <CNN_VS>
2.0710604191

> <CNNaffinity_variance>
0.2761624455

$$$$
[H]c1c([H])c([H])c([C@@]2([H])C([H])([H])[C@@]2([H])N([H])C(=O)N2C([H])([H])C([H])([H])C([H])(c3noc(C([H])([H])[H])n3)C([H])([H])C2([H])[H])c([H])c1[H]


 25 28  0  0  0  0  0  0  0  0999 V2000
   33.8059  -23.7940   36.6289 O   0  0  0  0  0  0  0  0  0  0  0  0
   33.9280  -22.6964   37.2520 C   0  0  0  0  0  0  0  0  0  0  0  0
   33.0191  -21.6165   37.0087 N   0  0  0  0  0  0  0  0  0  0  0  0
   34.9892  -22.5889   38.1860 N   0  0  0  0  0  0  0  0  0  0  0  0
   35.8631  -23.7228   38.3742 C   0  0  0  0  0  0  0  0  0  0  0  0
   37.2422  -23.1715   38.6760 C   0  0  0  0  0  0  0  0  0  0  0  0
   37.1097  -22.4569   40.0189 C   0  0  0  0  0  0  0  0  0  0  0  0
   36.1764  -21.2924   39.9388 C   0  0  0  0  0  0  0  0  0  0  0  0
   35.1366  -21.3567   38.8937 C   0  0  0  0  0  0  0  0  0  0  0  0
   33.1735  -20.7518   37.5425 H   0  0  0  0  0  0  0  0  0  0  0  0
   38.4437  -22.1073   40.5715 C   0  0  0  0  0  0  0  0  0  0  0  0
   39.1536  -22.8176   41.4670 N   0  0  0  0  0  0  0  0  0  0  0  0
   40.2782  -22.1946   41.7130 O   0  0  0  0  0  0  0  0  0  0  0  0
   40.3502  -21.0853   41.0114 C   0  0  0  0  0  0  0  0  0  0  0  0
   41.4878  -20.0994   41.0217 C   0  0  0  0  0  0  0  0  0  0  0  0
   39.2104  -21.0265   40.2992 N   0  0  0  0  0  0  0  0  0  0  0  0
   31.9748  -21.7848   36.0598 C   0  0  0  0  0  0  0  0  0  0  0  0
   32.2182  -22.1890   34.6514 C   0  0  0  0  0  0  0  0  0  0  0  0
   31.7952  -20.7744   34.9775 C   0  0  0  0  0  0  0  0  0  0  0  0
   32.7522  -19.6622   34.8167 C   0  0  0  0  0  0  0  0  0  0  0  0
   33.8550  -19.7668   34.0124 C   0  0  0  0  0  0  0  0  0  0  0  0
   34.7694  -18.7221   33.8515 C   0  0  0  0  0  0  0  0  0  0  0  0
   34.5552  -17.5459   34.5245 C   0  0  0  0  0  0  0  0  0  0  0  0
   33.4422  -17.4405   35.3360 C   0  0  0  0  0  0  0  0  0  0  0  0
   32.5538  -18.4619   35.4895 C   0  0  0  0  0  0  0  0  0  0  0  0
  1  2  2  0  0  0
  2  3  1  0  0  0
  3 17  1  0  0  0
 17 18  1  0  0  0
 18 19  1  0  0  0
 19 20  1  0  0  0
 20 21  2  0  0  0
 21 22  1  0  0  0
 22 23  2  0  0  0
 23 24  1  0  0  0
 24 25  2  0  0  0
  2  4  1  0  0  0
  4  5  1  0  0  0
  5  6  1  0  0  0
  6  7  1  0  0  0
  7  8  1  0  0  0
  8  9  1  0  0  0
  7 11  1  0  0  0
 11 12  2  0  0  0
 12 13  1  0  0  0
 13 14  1  0  0  0
 14 15  1  0  0  0
 14 16  2  0  0  0
 19 17  1  0  0  0
 25 20  1  0  0  0
  9  4  1  0  0  0
 16 11  1  0  0  0
  3 10  1  0  0  0
M  END
> <minimizedAffinity>
-4.11413

> <CNNscore>
0.5530383587

> <CNNaffinity>
4.4071497917

> <CNN_VS>
2.4373228550

> <CNNaffinity_variance>
0.0622760765

$$$$
[H]c1c([H])c([H])c([C@@]2([H])C([H])([H])[C@@]2([H])N([H])C(=O)N2C([H])([H])C([H])([H])C([H])(c3noc(C([H])([H])[H])n3)C([H])([H])C2([H])[H])c([H])c1[H]


 25 28  0  0  0  0  0  0  0  0999 V2000
   32.5844  -22.3404   34.8701 O   0  0  0  0  0  0  0  0  0  0  0  0
   32.5712  -21.7249   35.9787 C   0  0  0  0  0  0  0  0  0  0  0  0
   31.8245  -20.5119   36.1287 N   0  0  0  0  0  0  0  0  0  0  0  0
   33.3181  -22.2840   37.0463 N   0  0  0  0  0  0  0  0  0  0  0  0
   34.0448  -23.5100   36.8149 C   0  0  0  0  0  0  0  0  0  0  0  0
   35.3004  -23.4448   37.6611 C   0  0  0  0  0  0  0  0  0  0  0  0
   34.8162  -23.4559   39.1092 C   0  0  0  0  0  0  0  0  0  0  0  0
   34.0027  -22.2446   39.4322 C   0  0  0  0  0  0  0  0  0  0  0  0
   33.3106  -21.5990   38.2998 C   0  0  0  0  0  0  0  0  0  0  0  0
   31.8572  -20.0587   37.0507 H   0  0  0  0  0  0  0  0  0  0  0  0
   35.9462  -23.6756   40.0483 C   0  0  0  0  0  0  0  0  0  0  0  0
   36.2405  -22.9416   41.1368 N   0  0  0  0  0  0  0  0  0  0  0  0
   37.3058  -23.4382   41.7130 O   0  0  0  0  0  0  0  0  0  0  0  0
   37.7405  -24.4852   41.0473 C   0  0  0  0  0  0  0  0  0  0  0  0
   38.9399  -25.3251   41.3965 C   0  0  0  0  0  0  0  0  0  0  0  0
   36.8973  -24.6370   40.0101 N   0  0  0  0  0  0  0  0  0  0  0  0
   31.0953  -20.0008   35.0213 C   0  0  0  0  0  0  0  0  0  0  0  0
   30.0304  -18.9743   35.1576 C   0  0  0  0  0  0  0  0  0  0  0  0
   29.6730  -20.4060   34.8276 C   0  0  0  0  0  0  0  0  0  0  0  0
   28.9839  -21.2442   35.8282 C   0  0  0  0  0  0  0  0  0  0  0  0
   28.3540  -20.7021   36.9161 C   0  0  0  0  0  0  0  0  0  0  0  0
   27.6982  -21.4838   37.8713 C   0  0  0  0  0  0  0  0  0  0  0  0
   27.6842  -22.8467   37.7144 C   0  0  0  0  0  0  0  0  0  0  0  0
   28.3199  -23.3935   36.6164 C   0  0  0  0  0  0  0  0  0  0  0  0
   28.9576  -22.6270   35.6881 C   0  0  0  0  0  0  0  0  0  0  0  0
  1  2  2  0  0  0
  2  3  1  0  0  0
  3 17  1  0  0  0
 17 18  1  0  0  0
 18 19  1  0  0  0
 19 20  1  0  0  0
 20 21  2  0  0  0
 21 22  1  0  0  0
 22 23  2  0  0  0
 23 24  1  0  0  0
 24 25  2  0  0  0
  2  4  1  0  0  0
  4  5  1  0  0  0
  5  6  1  0  0  0
  6  7  1  0  0  0
  7  8  1  0  0  0
  8  9  1  0  0  0
  7 11  1  0  0  0
 11 12  2  0  0  0
 12 13  1  0  0  0
 13 14  1  0  0  0
 14 15  1  0  0  0
 14 16  2  0  0  0
 19 17  1  0  0  0
 25 20  1  0  0  0
  9  4  1  0  0  0
 16 11  1  0  0  0
  3 10  1  0  0  0
M  END
> <minimizedAffinity>
-3.89652

> <CNNscore>
0.5515733361

> <CNNaffinity>
4.4016699791

> <CNN_VS>
2.4278438091

> <CNNaffinity_variance>
0.0226062946

$$$$
[H]c1c([H])c([H])c([C@@]2([H])C([H])([H])[C@@]2([H])N([H])C(=O)N2C([H])([H])C([H])([H])C([H])(c3noc(C([H])([H])[H])n3)C([H])([H])C2([H])[H])c([H])c1[H]


 25 28  0  0  0  0  0  0  0  0999 V2000
   35.9098  -22.8160   37.6816 O   0  0  0  0  0  0  0  0  0  0  0  0
   36.8627  -22.1658   37.1552 C   0  0  0  0  0  0  0  0  0  0  0  0
   38.0762  -22.8283   36.7807 N   0  0  0  0  0  0  0  0  0  0  0  0
   36.6747  -20.7745   36.9574 N   0  0  0  0  0  0  0  0  0  0  0  0
   35.4222  -20.1811   37.3620 C   0  0  0  0  0  0  0  0  0  0  0  0
   35.7327  -18.7748   37.8342 C   0  0  0  0  0  0  0  0  0  0  0  0
   36.2236  -18.0288   36.5957 C   0  0  0  0  0  0  0  0  0  0  0  0
   37.4957  -18.6078   36.0664 C   0  0  0  0  0  0  0  0  0  0  0  0
   37.7417  -20.0318   36.3653 C   0  0  0  0  0  0  0  0  0  0  0  0
   38.8122  -22.2453   36.3625 H   0  0  0  0  0  0  0  0  0  0  0  0
   36.3008  -16.5669   36.8486 C   0  0  0  0  0  0  0  0  0  0  0  0
   35.2984  -15.6772   36.7308 N   0  0  0  0  0  0  0  0  0  0  0  0
   35.7454  -14.4855   37.0362 O   0  0  0  0  0  0  0  0  0  0  0  0
   37.0191  -14.5423   37.3566 C   0  0  0  0  0  0  0  0  0  0  0  0
   37.8854  -13.3812   37.7657 C   0  0  0  0  0  0  0  0  0  0  0  0
   37.3694  -15.8361   37.2414 N   0  0  0  0  0  0  0  0  0  0  0  0
   38.2052  -24.2256   37.0045 C   0  0  0  0  0  0  0  0  0  0  0  0
   38.8187  -24.7957   38.2312 C   0  0  0  0  0  0  0  0  0  0  0  0
   39.5496  -24.8643   36.9092 C   0  0  0  0  0  0  0  0  0  0  0  0
   40.7597  -24.0475   36.6917 C   0  0  0  0  0  0  0  0  0  0  0  0
   41.1596  -23.6655   35.4394 C   0  0  0  0  0  0  0  0  0  0  0  0
   42.3031  -22.8928   35.2190 C   0  0  0  0  0  0  0  0  0  0  0  0
   43.0549  -22.5011   36.2976 C   0  0  0  0  0  0  0  0  0  0  0  0
   42.6511  -22.8865   37.5613 C   0  0  0  0  0  0  0  0  0  0  0  0
   41.5355  -23.6398   37.7708 C   0  0  0  0  0  0  0  0  0  0  0  0
  1  2  2  0  0  0
  2  3  1  0  0  0
  3 17  1  0  0  0
 17 18  1  0  0  0
 18 19  1  0  0  0
 19 20  1  0  0  0
 20 21  2  0  0  0
 21 22  1  0  0  0
 22 23  2  0  0  0
 23 24  1  0  0  0
 24 25  2  0  0  0
  2  4  1  0  0  0
  4  5  1  0  0  0
  5  6  1  0  0  0
  6  7  1  0  0  0
  7  8  1  0  0  0
  8  9  1  0  0  0
  7 11  1  0  0  0
 11 12  2  0  0  0
 12 13  1  0  0  0
 13 14  1  0  0  0
 14 15  1  0  0  0
 14 16  2  0  0  0
 19 17  1  0  0  0
 25 20  1  0  0  0
  9  4  1  0  0  0
 16 11  1  0  0  0
  3 10  1  0  0  0
M  END
> <minimizedAffinity>
-4.28262

> <CNNscore>
0.4937102497

> <CNNaffinity>
4.5760779381

> <CNN_VS>
2.2592566013

> <CNNaffinity_variance>
0.1487249434

$$$$
[H]c1c([H])c([H])c([C@@]2([H])C([H])([H])[C@@]2([H])N([H])C(=O)N2C([H])([H])C([H])([H])C([H])(c3noc(C([H])([H])[H])n3)C([H])([H])C2([H])[H])c([H])c1[H]


 25 28  0  0  0  0  0  0  0  0999 V2000
   31.8693  -18.8257   35.8049 O   0  0  0  0  0  0  0  0  0  0  0  0
   32.1623  -20.0051   36.1672 C   0  0  0  0  0  0  0  0  0  0  0  0
   31.1694  -21.0373   36.1567 N   0  0  0  0  0  0  0  0  0  0  0  0
   33.4972  -20.2511   36.5767 N   0  0  0  0  0  0  0  0  0  0  0  0
   34.4393  -19.1571   36.5591 C   0  0  0  0  0  0  0  0  0  0  0  0
   35.3960  -19.3803   37.7131 C   0  0  0  0  0  0  0  0  0  0  0  0
   36.1583  -20.6578   37.3683 C   0  0  0  0  0  0  0  0  0  0  0  0
   35.2534  -21.8456   37.3088 C   0  0  0  0  0  0  0  0  0  0  0  0
   33.8385  -21.5761   36.9872 C   0  0  0  0  0  0  0  0  0  0  0  0
   31.4684  -21.9710   36.4654 H   0  0  0  0  0  0  0  0  0  0  0  0
   37.3212  -20.8463   38.2734 C   0  0  0  0  0  0  0  0  0  0  0  0
   37.2853  -21.2704   39.5497 N   0  0  0  0  0  0  0  0  0  0  0  0
   38.5054  -21.3106   40.0221 O   0  0  0  0  0  0  0  0  0  0  0  0
   39.3647  -20.9267   39.1043 C   0  0  0  0  0  0  0  0  0  0  0  0
   40.8587  -20.8388   39.2668 C   0  0  0  0  0  0  0  0  0  0  0  0
   38.6322  -20.6366   38.0138 N   0  0  0  0  0  0  0  0  0  0  0  0
   29.8477  -20.7289   35.7357 C   0  0  0  0  0  0  0  0  0  0  0  0
   28.6654  -20.8494   36.6267 C   0  0  0  0  0  0  0  0  0  0  0  0
   28.8749  -21.8344   35.4986 C   0  0  0  0  0  0  0  0  0  0  0  0
   29.2352  -23.2341   35.7982 C   0  0  0  0  0  0  0  0  0  0  0  0
   30.0208  -23.9752   34.9570 C   0  0  0  0  0  0  0  0  0  0  0  0
   30.3691  -25.3014   35.2281 C   0  0  0  0  0  0  0  0  0  0  0  0
   29.9070  -25.8843   36.3809 C   0  0  0  0  0  0  0  0  0  0  0  0
   29.1144  -25.1362   37.2297 C   0  0  0  0  0  0  0  0  0  0  0  0
   28.7777  -23.8438   36.9608 C   0  0  0  0  0  0  0  0  0  0  0  0
  1  2  2  0  0  0
  2  3  1  0  0  0
  3 17  1  0  0  0
 17 18  1  0  0  0
 18 19  1  0  0  0
 19 20  1  0  0  0
 20 21  2  0  0  0
 21 22  1  0  0  0
 22 23  2  0  0  0
 23 24  1  0  0  0
 24 25  2  0  0  0
  2  4  1  0  0  0
  4  5  1  0  0  0
  5  6  1  0  0  0
  6  7  1  0  0  0
  7  8  1  0  0  0
  8  9  1  0  0  0
  7 11  1  0  0  0
 11 12  2  0  0  0
 12 13  1  0  0  0
 13 14  1  0  0  0
 14 15  1  0  0  0
 14 16  2  0  0  0
 19 17  1  0  0  0
 25 20  1  0  0  0
  9  4  1  0  0  0
 16 11  1  0  0  0
  3 10  1  0  0  0
M  END
> <minimizedAffinity>
-4.75212

> <CNNscore>
0.4574923813

> <CNNaffinity>
4.3623561859

> <CNN_VS>
1.9957447052

> <CNNaffinity_variance>
0.0730498955

$$$$
[H]c1c([H])c([H])c([C@@]2([H])C([H])([H])[C@@]2([H])N([H])C(=O)N2C([H])([H])C([H])([H])C([H])(c3noc(C([H])([H])[H])n3)C([H])([H])C2([H])[H])c([H])c1[H]


 25 28  0  0  0  0  0  0  0  0999 V2000
   35.1463  -24.2306   37.3898 O   0  0  0  0  0  0  0  0  0  0  0  0
   34.9849  -22.9843   37.2212 C   0  0  0  0  0  0  0  0  0  0  0  0
   33.6772  -22.4430   37.0014 N   0  0  0  0  0  0  0  0  0  0  0  0
   36.1406  -22.1639   37.2597 N   0  0  0  0  0  0  0  0  0  0  0  0
   37.4237  -22.7860   37.4861 C   0  0  0  0  0  0  0  0  0  0  0  0
   38.4453  -21.9885   36.7005 C   0  0  0  0  0  0  0  0  0  0  0  0
   38.4743  -20.6087   37.3540 C   0  0  0  0  0  0  0  0  0  0  0  0
   37.1641  -19.9026   37.2189 C   0  0  0  0  0  0  0  0  0  0  0  0
   35.9708  -20.7581   37.0708 C   0  0  0  0  0  0  0  0  0  0  0  0
   33.6132  -21.4259   36.8678 H   0  0  0  0  0  0  0  0  0  0  0  0
   39.6281  -19.8106   36.8652 C   0  0  0  0  0  0  0  0  0  0  0  0
   39.8095  -19.3415   35.6174 N   0  0  0  0  0  0  0  0  0  0  0  0
   40.9408  -18.6852   35.5668 O   0  0  0  0  0  0  0  0  0  0  0  0
   41.5296  -18.6963   36.7421 C   0  0  0  0  0  0  0  0  0  0  0  0
   42.8458  -18.0499   37.0829 C   0  0  0  0  0  0  0  0  0  0  0  0
   40.7162  -19.3957   37.5538 N   0  0  0  0  0  0  0  0  0  0  0  0
   32.5569  -23.3167   36.9734 C   0  0  0  0  0  0  0  0  0  0  0  0
   32.1323  -24.0497   35.7532 C   0  0  0  0  0  0  0  0  0  0  0  0
   31.3105  -22.8916   36.2730 C   0  0  0  0  0  0  0  0  0  0  0  0
   31.2632  -21.6232   35.5195 C   0  0  0  0  0  0  0  0  0  0  0  0
   32.2073  -21.3030   34.5813 C   0  0  0  0  0  0  0  0  0  0  0  0
   32.1748  -20.1057   33.8611 C   0  0  0  0  0  0  0  0  0  0  0  0
   31.1588  -19.2160   34.1022 C   0  0  0  0  0  0  0  0  0  0  0  0
   30.2061  -19.5393   35.0489 C   0  0  0  0  0  0  0  0  0  0  0  0
   30.2422  -20.7079   35.7483 C   0  0  0  0  0  0  0  0  0  0  0  0
  1  2  2  0  0  0
  2  3  1  0  0  0
  3 17  1  0  0  0
 17 18  1  0  0  0
 18 19  1  0  0  0
 19 20  1  0  0  0
 20 21  2  0  0  0
 21 22  1  0  0  0
 22 23  2  0  0  0
 23 24  1  0  0  0
 24 25  2  0  0  0
  2  4  1  0  0  0
  4  5  1  0  0  0
  5  6  1  0  0  0
  6  7  1  0  0  0
  7  8  1  0  0  0
  8  9  1  0  0  0
  7 11  1  0  0  0
 11 12  2  0  0  0
 12 13  1  0  0  0
 13 14  1  0  0  0
 14 15  1  0  0  0
 14 16  2  0  0  0
 19 17  1  0  0  0
 25 20  1  0  0  0
  9  4  1  0  0  0
 16 11  1  0  0  0
  3 10  1  0  0  0
M  END
> <minimizedAffinity>
-4.78589

> <CNNscore>
0.3922320306

> <CNNaffinity>
4.2784495354

> <CNN_VS>
1.6781449318

> <CNNaffinity_variance>
0.1693551838

$$$$
[H]c1c([H])c([H])c([C@@]2([H])C([H])([H])[C@@]2([H])N([H])C(=O)N2C([H])([H])C([H])([H])C([H])(c3noc(C([H])([H])[H])n3)C([H])([H])C2([H])[H])c([H])c1[H]


 25 28  0  0  0  0  0  0  0  0999 V2000
   33.9207  -20.1703   37.7963 O   0  0  0  0  0  0  0  0  0  0  0  0
   34.9861  -19.8290   37.1994 C   0  0  0  0  0  0  0  0  0  0  0  0
   34.9297  -19.0535   35.9965 N   0  0  0  0  0  0  0  0  0  0  0  0
   36.2166  -20.2437   37.7686 N   0  0  0  0  0  0  0  0  0  0  0  0
   36.1892  -21.0236   38.9834 C   0  0  0  0  0  0  0  0  0  0  0  0
   37.3627  -21.9806   38.9197 C   0  0  0  0  0  0  0  0  0  0  0  0
   38.6090  -21.0992   38.9595 C   0  0  0  0  0  0  0  0  0  0  0  0
   38.6988  -20.2099   37.7618 C   0  0  0  0  0  0  0  0  0  0  0  0
   37.4233  -19.8651   37.1045 C   0  0  0  0  0  0  0  0  0  0  0  0
   35.8276  -18.8123   35.5583 H   0  0  0  0  0  0  0  0  0  0  0  0
   39.8315  -21.9130   39.1835 C   0  0  0  0  0  0  0  0  0  0  0  0
   39.9726  -22.9274   40.0561 N   0  0  0  0  0  0  0  0  0  0  0  0
   41.1899  -23.4006   39.9695 O   0  0  0  0  0  0  0  0  0  0  0  0
   41.8759  -22.7373   39.0653 C   0  0  0  0  0  0  0  0  0  0  0  0
   43.3094  -22.9853   38.6787 C   0  0  0  0  0  0  0  0  0  0  0  0
   41.0344  -21.8101   38.5732 N   0  0  0  0  0  0  0  0  0  0  0  0
   33.6657  -18.6678   35.4744 C   0  0  0  0  0  0  0  0  0  0  0  0
   33.5024  -18.0085   34.1534 C   0  0  0  0  0  0  0  0  0  0  0  0
   33.2988  -17.2228   35.4293 C   0  0  0  0  0  0  0  0  0  0  0  0
   34.2723  -16.1844   35.8200 C   0  0  0  0  0  0  0  0  0  0  0  0
   35.5992  -16.4678   36.0017 C   0  0  0  0  0  0  0  0  0  0  0  0
   36.5315  -15.4946   36.3719 C   0  0  0  0  0  0  0  0  0  0  0  0
   36.1024  -14.2053   36.5609 C   0  0  0  0  0  0  0  0  0  0  0  0
   34.7633  -13.9194   36.3774 C   0  0  0  0  0  0  0  0  0  0  0  0
   33.8585  -14.8718   36.0164 C   0  0  0  0  0  0  0  0  0  0  0  0
  1  2  2  0  0  0
  2  3  1  0  0  0
  3 17  1  0  0  0
 17 18  1  0  0  0
 18 19  1  0  0  0
 19 20  1  0  0  0
 20 21  2  0  0  0
 21 22  1  0  0  0
 22 23  2  0  0  0
 23 24  1  0  0  0
 24 25  2  0  0  0
  2  4  1  0  0  0
  4  5  1  0  0  0
  5  6  1  0  0  0
  6  7  1  0  0  0
  7  8  1  0  0  0
  8  9  1  0  0  0
  7 11  1  0  0  0
 11 12  2  0  0  0
 12 13  1  0  0  0
 13 14  1  0  0  0
 14 15  1  0  0  0
 14 16  2  0  0  0
 19 17  1  0  0  0
 25 20  1  0  0  0
  9  4  1  0  0  0
 16 11  1  0  0  0
  3 10  1  0  0  0
M  END
> <minimizedAffinity>
-5.48138

> <CNNscore>
0.3803397119

> <CNNaffinity>
4.6471867561

> <CNN_VS>
1.7675096989

> <CNNaffinity_variance>
0.1253289133

$$$$
[H]c1c([H])c([H])c([C@@]2([H])C([H])([H])[C@@]2([H])N([H])C(=O)N2C([H])([H])C([H])([H])C([H])(c3noc(C([H])([H])[H])n3)C([H])([H])C2([H])[H])c([H])c1[H]


 25 28  0  0  0  0  0  0  0  0999 V2000
   31.8028  -19.9067   33.6589 O   0  0  0  0  0  0  0  0  0  0  0  0
   32.7143  -20.1235   34.5134 C   0  0  0  0  0  0  0  0  0  0  0  0
   32.8906  -21.4298   35.0737 N   0  0  0  0  0  0  0  0  0  0  0  0
   33.5379  -19.0302   34.8830 N   0  0  0  0  0  0  0  0  0  0  0  0
   33.2961  -17.7442   34.2728 C   0  0  0  0  0  0  0  0  0  0  0  0
   33.6249  -16.6932   35.3140 C   0  0  0  0  0  0  0  0  0  0  0  0
   35.1270  -16.8184   35.5582 C   0  0  0  0  0  0  0  0  0  0  0  0
   35.4860  -18.1462   36.1425 C   0  0  0  0  0  0  0  0  0  0  0  0
   34.5679  -19.2627   35.8451 C   0  0  0  0  0  0  0  0  0  0  0  0
   33.6442  -21.5399   35.7640 H   0  0  0  0  0  0  0  0  0  0  0  0
   35.6371  -15.6684   36.3485 C   0  0  0  0  0  0  0  0  0  0  0  0
   34.9011  -14.7783   37.0386 N   0  0  0  0  0  0  0  0  0  0  0  0
   35.6999  -13.9103   37.6059 O   0  0  0  0  0  0  0  0  0  0  0  0
   36.9530  -14.1864   37.3204 C   0  0  0  0  0  0  0  0  0  0  0  0
   38.1608  -13.4187   37.7873 C   0  0  0  0  0  0  0  0  0  0  0  0
   36.9191  -15.2801   36.5378 N   0  0  0  0  0  0  0  0  0  0  0  0
   32.0331  -22.4858   34.6633 C   0  0  0  0  0  0  0  0  0  0  0  0
   30.7516  -22.7997   35.3458 C   0  0  0  0  0  0  0  0  0  0  0  0
   31.9408  -23.7222   35.4924 C   0  0  0  0  0  0  0  0  0  0  0  0
   32.6456  -23.8181   36.7857 C   0  0  0  0  0  0  0  0  0  0  0  0
   32.0408  -23.4803   37.9664 C   0  0  0  0  0  0  0  0  0  0  0  0
   32.6963  -23.5659   39.1978 C   0  0  0  0  0  0  0  0  0  0  0  0
   33.9958  -24.0049   39.2264 C   0  0  0  0  0  0  0  0  0  0  0  0
   34.6060  -24.3458   38.0348 C   0  0  0  0  0  0  0  0  0  0  0  0
   33.9625  -24.2607   36.8370 C   0  0  0  0  0  0  0  0  0  0  0  0
  1  2  2  0  0  0
  2  3  1  0  0  0
  3 17  1  0  0  0
 17 18  1  0  0  0
 18 19  1  0  0  0
 19 20  1  0  0  0
 20 21  2  0  0  0
 21 22  1  0  0  0
 22 23  2  0  0  0
 23 24  1  0  0  0
 24 25  2  0  0  0
  2  4  1  0  0  0
  4  5  1  0  0  0
  5  6  1  0  0  0
  6  7  1  0  0  0
  7  8  1  0  0  0
  8  9  1  0  0  0
  7 11  1  0  0  0
 11 12  2  0  0  0
 12 13  1  0  0  0
 13 14  1  0  0  0
 14 15  1  0  0  0
 14 16  2  0  0  0
 19 17  1  0  0  0
 25 20  1  0  0  0
  9  4  1  0  0  0
 16 11  1  0  0  0
  3 10  1  0  0  0
M  END
> <minimizedAffinity>
-6.18434

> <CNNscore>
0.3726057410

> <CNNaffinity>
4.8086266518

> <CNN_VS>
1.7917219400

> <CNNaffinity_variance>
0.1572097689

$$$$
[H]c1c([H])c([H])c([C@@]2([H])C([H])([H])[C@@]2([H])N([H])C(=O)N2C([H])([H])C([H])([H])C([H])(c3noc(C([H])([H])[H])n3)C([H])([H])C2([H])[H])c([H])c1[H]


 25 28  0  0  0  0  0  0  0  0999 V2000
   32.4043  -22.2361   35.1955 O   0  0  0  0  0  0  0  0  0  0  0  0
   33.0116  -21.6108   36.1165 C   0  0  0  0  0  0  0  0  0  0  0  0
   32.8693  -20.1918   36.2488 N   0  0  0  0  0  0  0  0  0  0  0  0
   33.8253  -22.3693   36.9956 N   0  0  0  0  0  0  0  0  0  0  0  0
   33.9168  -23.7963   36.7959 C   0  0  0  0  0  0  0  0  0  0  0  0
   35.3196  -24.2084   37.1947 C   0  0  0  0  0  0  0  0  0  0  0  0
   35.4112  -23.9407   38.6953 C   0  0  0  0  0  0  0  0  0  0  0  0
   35.2720  -22.4863   39.0095 C   0  0  0  0  0  0  0  0  0  0  0  0
   34.5144  -21.6753   38.0368 C   0  0  0  0  0  0  0  0  0  0  0  0
   33.3903  -19.7431   37.0128 H   0  0  0  0  0  0  0  0  0  0  0  0
   36.6339  -24.5552   39.2736 C   0  0  0  0  0  0  0  0  0  0  0  0
   36.8086  -24.9508   40.5476 N   0  0  0  0  0  0  0  0  0  0  0  0
   38.0138  -25.4436   40.6816 O   0  0  0  0  0  0  0  0  0  0  0  0
   38.6591  -25.3930   39.5374 C   0  0  0  0  0  0  0  0  0  0  0  0
   40.0671  -25.8642   39.2895 C   0  0  0  0  0  0  0  0  0  0  0  0
   37.8041  -24.8407   38.6577 N   0  0  0  0  0  0  0  0  0  0  0  0
   32.0391  -19.4864   35.3364 C   0  0  0  0  0  0  0  0  0  0  0  0
   32.2040  -19.5680   33.8624 C   0  0  0  0  0  0  0  0  0  0  0  0
   32.5863  -18.3074   34.6050 C   0  0  0  0  0  0  0  0  0  0  0  0
   34.0073  -17.9304   34.7366 C   0  0  0  0  0  0  0  0  0  0  0  0
   34.4322  -17.0235   35.6699 C   0  0  0  0  0  0  0  0  0  0  0  0
   35.7742  -16.6572   35.8051 C   0  0  0  0  0  0  0  0  0  0  0  0
   36.7027  -17.2272   34.9714 C   0  0  0  0  0  0  0  0  0  0  0  0
   36.2738  -18.1425   34.0297 C   0  0  0  0  0  0  0  0  0  0  0  0
   34.9644  -18.4962   33.9021 C   0  0  0  0  0  0  0  0  0  0  0  0
  1  2  2  0  0  0
  2  3  1  0  0  0
  3 17  1  0  0  0
 17 18  1  0  0  0
 18 19  1  0  0  0
 19 20  1  0  0  0
 20 21  2  0  0  0
 21 22  1  0  0  0
 22 23  2  0  0  0
 23 24  1  0  0  0
 24 25  2  0  0  0
  2  4  1  0  0  0
  4  5  1  0  0  0
  5  6  1  0  0  0
  6  7  1  0  0  0
  7  8  1  0  0  0
  8  9  1  0  0  0
  7 11  1  0  0  0
 11 12  2  0  0  0
 12 13  1  0  0  0
 13 14  1  0  0  0
 14 15  1  0  0  0
 14 16  2  0  0  0
 19 17  1  0  0  0
 25 20  1  0  0  0
  9  4  1  0  0  0
 16 11  1  0  0  0
  3 10  1  0  0  0
M  END
> <minimizedAffinity>
-4.67354

> <CNNscore>
0.3703513443

> <CNNaffinity>
4.3026485443

> <CNN_VS>
1.5934916735

> <CNNaffinity_variance>
0.1800954193

$$$$
[H]c1c([H])c([H])c([C@@]2([H])C([H])([H])[C@@]2([H])N([H])C(=O)N2C([H])([H])C([H])([H])C([H])(c3noc(C([H])([H])[H])n3)C([H])([H])C2([H])[H])c([H])c1[H]


 25 28  0  0  0  0  0  0  0  0999 V2000
   39.6937  -22.6369   36.4862 O   0  0  0  0  0  0  0  0  0  0  0  0
   40.0222  -21.4356   36.7247 C   0  0  0  0  0  0  0  0  0  0  0  0
   41.2926  -21.1315   37.3121 N   0  0  0  0  0  0  0  0  0  0  0  0
   39.0886  -20.4230   36.3884 N   0  0  0  0  0  0  0  0  0  0  0  0
   37.8288  -20.8111   35.7994 C   0  0  0  0  0  0  0  0  0  0  0  0
   36.7892  -19.8240   36.2912 C   0  0  0  0  0  0  0  0  0  0  0  0
   37.1898  -18.4784   35.6908 C   0  0  0  0  0  0  0  0  0  0  0  0
   38.5155  -18.0148   36.2017 C   0  0  0  0  0  0  0  0  0  0  0  0
   39.4479  -19.0659   36.6529 C   0  0  0  0  0  0  0  0  0  0  0  0
   41.4979  -20.1392   37.4842 H   0  0  0  0  0  0  0  0  0  0  0  0
   36.1078  -17.4746   35.8609 C   0  0  0  0  0  0  0  0  0  0  0  0
   34.8196  -17.6128   35.4982 N   0  0  0  0  0  0  0  0  0  0  0  0
   34.1681  -16.5203   35.8072 O   0  0  0  0  0  0  0  0  0  0  0  0
   34.9765  -15.6481   36.3674 C   0  0  0  0  0  0  0  0  0  0  0  0
   34.6002  -14.2761   36.8597 C   0  0  0  0  0  0  0  0  0  0  0  0
   36.1852  -16.2376   36.4030 N   0  0  0  0  0  0  0  0  0  0  0  0
   42.1862  -22.1905   37.6272 C   0  0  0  0  0  0  0  0  0  0  0  0
   41.9437  -23.1525   38.7327 C   0  0  0  0  0  0  0  0  0  0  0  0
   43.0252  -22.1030   38.8573 C   0  0  0  0  0  0  0  0  0  0  0  0
   42.8612  -20.9831   39.8047 C   0  0  0  0  0  0  0  0  0  0  0  0
   41.9317  -21.0150   40.8092 C   0  0  0  0  0  0  0  0  0  0  0  0
   41.7655  -19.9617   41.7128 C   0  0  0  0  0  0  0  0  0  0  0  0
   42.5634  -18.8525   41.5899 C   0  0  0  0  0  0  0  0  0  0  0  0
   43.5015  -18.8205   40.5762 C   0  0  0  0  0  0  0  0  0  0  0  0
   43.6595  -19.8500   39.6980 C   0  0  0  0  0  0  0  0  0  0  0  0
  1  2  2  0  0  0
  2  3  1  0  0  0
  3 17  1  0  0  0
 17 18  1  0  0  0
 18 19  1  0  0  0
 19 20  1  0  0  0
 20 21  2  0  0  0
 21 22  1  0  0  0
 22 23  2  0  0  0
 23 24  1  0  0  0
 24 25  2  0  0  0
  2  4  1  0  0  0
  4  5  1  0  0  0
  5  6  1  0  0  0
  6  7  1  0  0  0
  7  8  1  0  0  0
  8  9  1  0  0  0
  7 11  1  0  0  0
 11 12  2  0  0  0
 12 13  1  0  0  0
 13 14  1  0  0  0
 14 15  1  0  0  0
 14 16  2  0  0  0
 19 17  1  0  0  0
 25 20  1  0  0  0
  9  4  1  0  0  0
 16 11  1  0  0  0
  3 10  1  0  0  0
M  END
> <minimizedAffinity>
-4.46100

> <CNNscore>
0.3517102301

> <CNNaffinity>
4.4068679810

> <CNN_VS>
1.5499405861

> <CNNaffinity_variance>
0.1127313972

$$$$
[H]N=C(N([H])[H])N([H])C([H])([H])C([H])([H])C([H])([H])[C@@]([H])(C(=O)c1nc2c([H])c([H])c([H])c([H])c2s1)N([H])C(=O)[C@@]([H])(N([H])C(=O)C([H])([H])[H])C([H])([H])C([H])([H])C([H])([H])N([H])C(=N[H])N([H])[H]


 44 45  0  0  0  0  0  0  0  0999 V2000
   36.8466  -19.5077   36.1063 C   0  0  0  0  0  0  0  0  0  0  0  0
   35.2322  -20.5939   37.6277 C   0  0  0  0  0  0  0  0  0  0  0  0
   35.4391  -19.5821   38.3883 O   0  0  0  0  0  0  0  0  0  0  0  0
   35.9273  -20.6340   36.4024 N   0  0  0  0  0  0  0  0  0  0  0  0
   35.8644  -21.3751   35.6834 H   0  0  0  0  0  0  0  0  0  0  0  0
   34.2831  -21.6634   38.0563 C   0  0  0  0  0  0  0  0  0  0  0  0
   34.5935  -22.3975   41.8602 C   0  0  0  0  0  0  0  0  0  0  0  0
   34.7244  -22.5568   40.3847 C   0  0  0  0  0  0  0  0  0  0  0  0
   35.3309  -23.6107   40.0014 O   0  0  0  0  0  0  0  0  0  0  0  0
   34.2041  -21.5955   39.4929 N   0  0  0  0  0  0  0  0  0  0  0  0
   33.7169  -20.7611   39.9018 H   0  0  0  0  0  0  0  0  0  0  0  0
   32.9902  -21.4719   37.3525 C   0  0  0  0  0  0  0  0  0  0  0  0
   32.8941  -22.2446   36.0585 C   0  0  0  0  0  0  0  0  0  0  0  0
   32.2401  -21.4454   34.9577 C   0  0  0  0  0  0  0  0  0  0  0  0
   32.8034  -20.1378   34.7841 N   0  0  0  0  0  0  0  0  0  0  0  0
   33.8571  -19.9600   34.7429 H   0  0  0  0  0  0  0  0  0  0  0  0
   32.0394  -18.9468   34.6541 C   0  0  0  0  0  0  0  0  0  0  0  0
   30.6771  -18.8578   35.0245 N   0  0  0  0  0  0  0  0  0  0  0  0
   32.6165  -17.8996   34.1728 N   0  0  0  0  0  0  0  0  0  0  0  0
   30.0303  -19.6431   34.9248 H   0  0  0  0  0  0  0  0  0  0  0  0
   30.3435  -17.9377   35.4166 H   0  0  0  0  0  0  0  0  0  0  0  0
   33.6137  -17.9323   33.8894 H   0  0  0  0  0  0  0  0  0  0  0  0
   36.0271  -18.5789   35.2858 C   0  0  0  0  0  0  0  0  0  0  0  0
   35.5497  -18.9608   34.2029 O   0  0  0  0  0  0  0  0  0  0  0  0
   35.7946  -17.2120   35.7853 C   0  0  0  0  0  0  0  0  0  0  0  0
   34.7125  -16.4710   35.6059 N   0  0  0  0  0  0  0  0  0  0  0  0
   34.6478  -15.2768   36.1336 C   0  0  0  0  0  0  0  0  0  0  0  0
   33.5555  -14.3809   36.0233 C   0  0  0  0  0  0  0  0  0  0  0  0
   33.6483  -13.1649   36.6387 C   0  0  0  0  0  0  0  0  0  0  0  0
   34.6957  -12.7043   37.3638 C   0  0  0  0  0  0  0  0  0  0  0  0
   35.7885  -13.5868   37.4810 C   0  0  0  0  0  0  0  0  0  0  0  0
   35.7214  -14.8415   36.8592 C   0  0  0  0  0  0  0  0  0  0  0  0
   36.7735  -16.1946   36.7387 S   0  0  0  0  0  0  0  0  0  0  0  0
   38.0225  -20.0703   35.3066 C   0  0  0  0  0  0  0  0  0  0  0  0
   38.9998  -18.9910   34.9855 C   0  0  0  0  0  0  0  0  0  0  0  0
   39.2363  -18.7036   33.5425 C   0  0  0  0  0  0  0  0  0  0  0  0
   40.5016  -18.1141   33.2689 N   0  0  0  0  0  0  0  0  0  0  0  0
   40.5386  -17.4495   32.4344 H   0  0  0  0  0  0  0  0  0  0  0  0
   41.7210  -18.2922   33.9629 C   0  0  0  0  0  0  0  0  0  0  0  0
   42.3287  -19.5737   34.0057 N   0  0  0  0  0  0  0  0  0  0  0  0
   42.2613  -17.2706   34.5708 N   0  0  0  0  0  0  0  0  0  0  0  0
   43.0204  -19.9404   33.3209 H   0  0  0  0  0  0  0  0  0  0  0  0
   42.0699  -20.2146   34.7801 H   0  0  0  0  0  0  0  0  0  0  0  0
   43.1643  -17.3815   35.0908 H   0  0  0  0  0  0  0  0  0  0  0  0
  7  8  1  0  0  0
  8  9  2  0  0  0
  8 10  1  0  0  0
 10  6  1  0  0  0
  6 12  1  0  0  0
 12 13  1  0  0  0
 13 14  1  0  0  0
 14 15  1  0  0  0
 15 17  1  0  0  0
 17 18  1  0  0  0
 17 19  2  0  0  0
  6  2  1  0  0  0
  2  3  2  0  0  0
  2  4  1  0  0  0
  4  1  1  0  0  0
  1 34  1  0  0  0
 34 35  1  0  0  0
 35 36  1  0  0  0
 36 37  1  0  0  0
 37 39  1  0  0  0
 39 40  1  0  0  0
 39 41  2  0  0  0
  1 23  1  0  0  0
 23 24  2  0  0  0
 23 25  1  0  0  0
 25 26  2  0  0  0
 26 27  1  0  0  0
 27 28  2  0  0  0
 28 29  1  0  0  0
 29 30  2  0  0  0
 30 31  1  0  0  0
 31 32  2  0  0  0
 32 33  1  0  0  0
 33 25  1  0  0  0
 32 27  1  0  0  0
 10 11  1  0  0  0
 15 16  1  0  0  0
 18 20  1  0  0  0
 18 21  1  0  0  0
 19 22  1  0  0  0
  4  5  1  0  0  0
 37 38  1  0  0  0
 40 42  1  0  0  0
 40 43  1  0  0  0
 41 44  1  0  0  0
M  END
> <minimizedAffinity>
-6.17162

> <CNNscore>
0.6266133189

> <CNNaffinity>
6.3631224632

> <CNN_VS>
3.9872171879

> <CNNaffinity_variance>
0.2703936994

$$$$
[H]N=C(N([H])[H])N([H])C([H])([H])C([H])([H])C([H])([H])[C@@]([H])(C(=O)c1nc2c([H])c([H])c([H])c([H])c2s1)N([H])C(=O)[C@@]([H])(N([H])C(=O)C([H])([H])[H])C([H])([H])C([H])([H])C([H])([H])N([H])C(=N[H])N([H])[H]


 44 45  0  0  0  0  0  0  0  0999 V2000
   35.3936  -17.6789   35.6922 C   0  0  0  0  0  0  0  0  0  0  0  0
   34.6112  -15.4403   36.3834 C   0  0  0  0  0  0  0  0  0  0  0  0
   33.7677  -15.5625   35.4248 O   0  0  0  0  0  0  0  0  0  0  0  0
   35.5022  -16.5106   36.6003 N   0  0  0  0  0  0  0  0  0  0  0  0
   36.2320  -16.5648   37.3314 H   0  0  0  0  0  0  0  0  0  0  0  0
   34.6150  -14.2013   37.2157 C   0  0  0  0  0  0  0  0  0  0  0  0
   38.3353  -13.0768   37.2075 C   0  0  0  0  0  0  0  0  0  0  0  0
   37.0984  -13.8331   37.5504 C   0  0  0  0  0  0  0  0  0  0  0  0
   37.2468  -14.7590   38.4142 O   0  0  0  0  0  0  0  0  0  0  0  0
   35.8596  -13.5270   36.9488 N   0  0  0  0  0  0  0  0  0  0  0  0
   35.8342  -12.7445   36.2504 H   0  0  0  0  0  0  0  0  0  0  0  0
   33.3990  -13.4081   36.9064 C   0  0  0  0  0  0  0  0  0  0  0  0
   32.6596  -12.9427   38.1383 C   0  0  0  0  0  0  0  0  0  0  0  0
   31.8213  -11.7151   37.8775 C   0  0  0  0  0  0  0  0  0  0  0  0
   32.5941  -10.5420   37.5879 N   0  0  0  0  0  0  0  0  0  0  0  0
   33.6594  -10.5564   37.4953 H   0  0  0  0  0  0  0  0  0  0  0  0
   32.0434   -9.2458   37.3990 C   0  0  0  0  0  0  0  0  0  0  0  0
   32.7023   -8.2236   36.6765 N   0  0  0  0  0  0  0  0  0  0  0  0
   30.8897   -8.9906   37.9137 N   0  0  0  0  0  0  0  0  0  0  0  0
   33.7195   -8.1218   36.6764 H   0  0  0  0  0  0  0  0  0  0  0  0
   32.0990   -7.5576   36.1251 H   0  0  0  0  0  0  0  0  0  0  0  0
   30.3813   -9.7176   38.4512 H   0  0  0  0  0  0  0  0  0  0  0  0
   35.1621  -18.8266   36.6069 C   0  0  0  0  0  0  0  0  0  0  0  0
   36.0432  -19.1653   37.4164 O   0  0  0  0  0  0  0  0  0  0  0  0
   33.8751  -19.5410   36.5328 C   0  0  0  0  0  0  0  0  0  0  0  0
   32.8111  -19.1954   35.8251 N   0  0  0  0  0  0  0  0  0  0  0  0
   31.7434  -19.9494   35.8466 C   0  0  0  0  0  0  0  0  0  0  0  0
   30.5405  -19.7015   35.1400 C   0  0  0  0  0  0  0  0  0  0  0  0
   29.5145  -20.5939   35.2713 C   0  0  0  0  0  0  0  0  0  0  0  0
   29.5160  -21.7217   36.0216 C   0  0  0  0  0  0  0  0  0  0  0  0
   30.7075  -21.9793   36.7292 C   0  0  0  0  0  0  0  0  0  0  0  0
   31.7769  -21.0803   36.6138 C   0  0  0  0  0  0  0  0  0  0  0  0
   33.3641  -20.9913   37.2661 S   0  0  0  0  0  0  0  0  0  0  0  0
   36.7256  -17.8136   34.9530 C   0  0  0  0  0  0  0  0  0  0  0  0
   36.7026  -18.9976   34.0470 C   0  0  0  0  0  0  0  0  0  0  0  0
   37.9708  -19.7687   33.9135 C   0  0  0  0  0  0  0  0  0  0  0  0
   38.7587  -19.3979   32.7888 N   0  0  0  0  0  0  0  0  0  0  0  0
   38.2281  -19.2399   31.8761 H   0  0  0  0  0  0  0  0  0  0  0  0
   40.1587  -19.2078   32.7225 C   0  0  0  0  0  0  0  0  0  0  0  0
   40.9792  -20.2019   32.1295 N   0  0  0  0  0  0  0  0  0  0  0  0
   40.6770  -18.1208   33.2274 N   0  0  0  0  0  0  0  0  0  0  0  0
   41.2476  -20.2476   31.1256 H   0  0  0  0  0  0  0  0  0  0  0  0
   41.3506  -20.9583   32.7356 H   0  0  0  0  0  0  0  0  0  0  0  0
   41.7119  -17.9609   33.1889 H   0  0  0  0  0  0  0  0  0  0  0  0
  7  8  1  0  0  0
  8  9  2  0  0  0
  8 10  1  0  0  0
 10  6  1  0  0  0
  6 12  1  0  0  0
 12 13  1  0  0  0
 13 14  1  0  0  0
 14 15  1  0  0  0
 15 17  1  0  0  0
 17 18  1  0  0  0
 17 19  2  0  0  0
  6  2  1  0  0  0
  2  3  2  0  0  0
  2  4  1  0  0  0
  4  1  1  0  0  0
  1 34  1  0  0  0
 34 35  1  0  0  0
 35 36  1  0  0  0
 36 37  1  0  0  0
 37 39  1  0  0  0
 39 40  1  0  0  0
 39 41  2  0  0  0
  1 23  1  0  0  0
 23 24  2  0  0  0
 23 25  1  0  0  0
 25 26  2  0  0  0
 26 27  1  0  0  0
 27 28  2  0  0  0
 28 29  1  0  0  0
 29 30  2  0  0  0
 30 31  1  0  0  0
 31 32  2  0  0  0
 32 33  1  0  0  0
 33 25  1  0  0  0
 32 27  1  0  0  0
 10 11  1  0  0  0
 15 16  1  0  0  0
 18 20  1  0  0  0
 18 21  1  0  0  0
 19 22  1  0  0  0
  4  5  1  0  0  0
 37 38  1  0  0  0
 40 42  1  0  0  0
 40 43  1  0  0  0
 41 44  1  0  0  0
M  END
> <minimizedAffinity>
-7.91038

> <CNNscore>
0.6212480664

> <CNNaffinity>
6.4774436951

> <CNN_VS>
4.0240993500

> <CNNaffinity_variance>
0.2988694310

$$$$
[H]N=C(N([H])[H])N([H])C([H])([H])C([H])([H])C([H])([H])[C@@]([H])(C(=O)c1nc2c([H])c([H])c([H])c([H])c2s1)N([H])C(=O)[C@@]([H])(N([H])C(=O)C([H])([H])[H])C([H])([H])C([H])([H])C([H])([H])N([H])C(=N[H])N([H])[H]


 44 45  0  0  0  0  0  0  0  0999 V2000
   35.7069  -17.6615   35.5888 C   0  0  0  0  0  0  0  0  0  0  0  0
   34.7031  -15.4935   36.2160 C   0  0  0  0  0  0  0  0  0  0  0  0
   33.7937  -15.7952   35.3634 O   0  0  0  0  0  0  0  0  0  0  0  0
   35.7465  -16.4222   36.4036 N   0  0  0  0  0  0  0  0  0  0  0  0
   36.5452  -16.3269   37.0540 H   0  0  0  0  0  0  0  0  0  0  0  0
   34.6226  -14.2034   36.9625 C   0  0  0  0  0  0  0  0  0  0  0  0
   38.3426  -13.1354   37.3175 C   0  0  0  0  0  0  0  0  0  0  0  0
   37.0628  -13.8621   37.5487 C   0  0  0  0  0  0  0  0  0  0  0  0
   37.1020  -14.7630   38.4500 O   0  0  0  0  0  0  0  0  0  0  0  0
   35.9004  -13.5563   36.8100 N   0  0  0  0  0  0  0  0  0  0  0  0
   35.9634  -12.7955   36.0904 H   0  0  0  0  0  0  0  0  0  0  0  0
   33.4660  -13.4235   36.4552 C   0  0  0  0  0  0  0  0  0  0  0  0
   33.0184  -12.3345   37.4010 C   0  0  0  0  0  0  0  0  0  0  0  0
   31.5169  -12.1851   37.4382 C   0  0  0  0  0  0  0  0  0  0  0  0
   30.9972  -11.9258   38.7497 N   0  0  0  0  0  0  0  0  0  0  0  0
   30.6701  -10.9574   39.0639 H   0  0  0  0  0  0  0  0  0  0  0  0
   30.8639  -12.9081   39.7677 C   0  0  0  0  0  0  0  0  0  0  0  0
   29.9890  -14.0149   39.6644 N   0  0  0  0  0  0  0  0  0  0  0  0
   31.5729  -12.7812   40.8365 N   0  0  0  0  0  0  0  0  0  0  0  0
   29.0905  -13.9590   39.1800 H   0  0  0  0  0  0  0  0  0  0  0  0
   30.3002  -14.9183   40.1101 H   0  0  0  0  0  0  0  0  0  0  0  0
   32.2224  -11.9798   40.9445 H   0  0  0  0  0  0  0  0  0  0  0  0
   35.3744  -18.7274   36.5689 C   0  0  0  0  0  0  0  0  0  0  0  0
   36.1940  -19.0405   37.4503 O   0  0  0  0  0  0  0  0  0  0  0  0
   34.0626  -19.3923   36.4724 C   0  0  0  0  0  0  0  0  0  0  0  0
   33.0033  -18.9716   35.7992 N   0  0  0  0  0  0  0  0  0  0  0  0
   31.9104  -19.6888   35.7931 C   0  0  0  0  0  0  0  0  0  0  0  0
   30.7089  -19.3610   35.1173 C   0  0  0  0  0  0  0  0  0  0  0  0
   29.6541  -20.2238   35.2125 C   0  0  0  0  0  0  0  0  0  0  0  0
   29.6249  -21.3912   35.8989 C   0  0  0  0  0  0  0  0  0  0  0  0
   30.8146  -21.7285   36.5753 C   0  0  0  0  0  0  0  0  0  0  0  0
   31.9133  -20.8613   36.4957 C   0  0  0  0  0  0  0  0  0  0  0  0
   33.5099  -20.8630   37.1309 S   0  0  0  0  0  0  0  0  0  0  0  0
   37.1002  -17.8658   34.9923 C   0  0  0  0  0  0  0  0  0  0  0  0
   37.0565  -18.8779   33.8982 C   0  0  0  0  0  0  0  0  0  0  0  0
   38.1760  -19.8600   33.8437 C   0  0  0  0  0  0  0  0  0  0  0  0
   39.0392  -19.6934   32.7256 N   0  0  0  0  0  0  0  0  0  0  0  0
   38.5620  -19.5858   31.7768 H   0  0  0  0  0  0  0  0  0  0  0  0
   40.4527  -19.6486   32.7073 C   0  0  0  0  0  0  0  0  0  0  0  0
   41.1262  -18.4517   33.0636 N   0  0  0  0  0  0  0  0  0  0  0  0
   41.1175  -20.7121   32.3438 N   0  0  0  0  0  0  0  0  0  0  0  0
   41.4370  -18.1925   34.0218 H   0  0  0  0  0  0  0  0  0  0  0  0
   41.3324  -17.7625   32.3153 H   0  0  0  0  0  0  0  0  0  0  0  0
   42.1651  -20.6996   32.3231 H   0  0  0  0  0  0  0  0  0  0  0  0
  7  8  1  0  0  0
  8  9  2  0  0  0
  8 10  1  0  0  0
 10  6  1  0  0  0
  6 12  1  0  0  0
 12 13  1  0  0  0
 13 14  1  0  0  0
 14 15  1  0  0  0
 15 17  1  0  0  0
 17 18  1  0  0  0
 17 19  2  0  0  0
  6  2  1  0  0  0
  2  3  2  0  0  0
  2  4  1  0  0  0
  4  1  1  0  0  0
  1 34  1  0  0  0
 34 35  1  0  0  0
 35 36  1  0  0  0
 36 37  1  0  0  0
 37 39  1  0  0  0
 39 40  1  0  0  0
 39 41  2  0  0  0
  1 23  1  0  0  0
 23 24  2  0  0  0
 23 25  1  0  0  0
 25 26  2  0  0  0
 26 27  1  0  0  0
 27 28  2  0  0  0
 28 29  1  0  0  0
 29 30  2  0  0  0
 30 31  1  0  0  0
 31 32  2  0  0  0
 32 33  1  0  0  0
 33 25  1  0  0  0
 32 27  1  0  0  0
 10 11  1  0  0  0
 15 16  1  0  0  0
 18 20  1  0  0  0
 18 21  1  0  0  0
 19 22  1  0  0  0
  4  5  1  0  0  0
 37 38  1  0  0  0
 40 42  1  0  0  0
 40 43  1  0  0  0
 41 44  1  0  0  0
M  END
> <minimizedAffinity>
-7.74720

> <CNNscore>
0.5922241211

> <CNNaffinity>
6.2737836838

> <CNN_VS>
3.7154860497

> <CNNaffinity_variance>
0.4462888241

$$$$
[H]N=C(N([H])[H])N([H])C([H])([H])C([H])([H])C([H])([H])[C@@]([H])(C(=O)c1nc2c([H])c([H])c([H])c([H])c2s1)N([H])C(=O)[C@@]([H])(N([H])C(=O)C([H])([H])[H])C([H])([H])C([H])([H])C([H])([H])N([H])C(=N[H])N([H])[H]


 44 45  0  0  0  0  0  0  0  0999 V2000
   34.0052  -19.2928   34.8403 C   0  0  0  0  0  0  0  0  0  0  0  0
   36.0861  -20.0678   35.9220 C   0  0  0  0  0  0  0  0  0  0  0  0
   36.6799  -19.4461   34.9702 O   0  0  0  0  0  0  0  0  0  0  0  0
   34.6772  -20.0343   35.9357 N   0  0  0  0  0  0  0  0  0  0  0  0
   34.0581  -20.4793   36.6348 H   0  0  0  0  0  0  0  0  0  0  0  0
   36.8898  -20.7829   36.9569 C   0  0  0  0  0  0  0  0  0  0  0  0
   36.1805  -24.5951   36.6950 C   0  0  0  0  0  0  0  0  0  0  0  0
   36.0944  -23.1795   37.1514 C   0  0  0  0  0  0  0  0  0  0  0  0
   35.2488  -22.9558   38.0789 O   0  0  0  0  0  0  0  0  0  0  0  0
   36.9036  -22.1737   36.5825 N   0  0  0  0  0  0  0  0  0  0  0  0
   37.5739  -22.4540   35.8256 H   0  0  0  0  0  0  0  0  0  0  0  0
   38.2295  -20.1504   37.0499 C   0  0  0  0  0  0  0  0  0  0  0  0
   39.3260  -20.9778   36.4223 C   0  0  0  0  0  0  0  0  0  0  0  0
   40.1977  -20.1689   35.4930 C   0  0  0  0  0  0  0  0  0  0  0  0
   39.6313  -19.9848   34.1882 N   0  0  0  0  0  0  0  0  0  0  0  0
   39.1433  -20.7699   33.6507 H   0  0  0  0  0  0  0  0  0  0  0  0
   39.6572  -18.7597   33.4688 C   0  0  0  0  0  0  0  0  0  0  0  0
   40.8317  -17.9910   33.2930 N   0  0  0  0  0  0  0  0  0  0  0  0
   38.5565  -18.3288   32.9550 N   0  0  0  0  0  0  0  0  0  0  0  0
   41.5626  -17.9375   34.0057 H   0  0  0  0  0  0  0  0  0  0  0  0
   40.9323  -17.4658   32.3844 H   0  0  0  0  0  0  0  0  0  0  0  0
   37.6774  -18.8676   33.0677 H   0  0  0  0  0  0  0  0  0  0  0  0
   33.2895  -18.1920   35.5355 C   0  0  0  0  0  0  0  0  0  0  0  0
   32.0789  -18.3039   35.7971 O   0  0  0  0  0  0  0  0  0  0  0  0
   34.0440  -16.9813   35.9058 C   0  0  0  0  0  0  0  0  0  0  0  0
   35.1878  -16.9269   36.5700 N   0  0  0  0  0  0  0  0  0  0  0  0
   35.7484  -15.7695   36.8047 C   0  0  0  0  0  0  0  0  0  0  0  0
   36.9667  -15.5654   37.4989 C   0  0  0  0  0  0  0  0  0  0  0  0
   37.4167  -14.2854   37.6584 C   0  0  0  0  0  0  0  0  0  0  0  0
   36.8138  -13.1562   37.2154 C   0  0  0  0  0  0  0  0  0  0  0  0
   35.6009  -13.3464   36.5229 C   0  0  0  0  0  0  0  0  0  0  0  0
   35.1147  -14.6491   36.3448 C   0  0  0  0  0  0  0  0  0  0  0  0
   33.7321  -15.3365   35.5906 S   0  0  0  0  0  0  0  0  0  0  0  0
   33.0278  -20.2553   34.1641 C   0  0  0  0  0  0  0  0  0  0  0  0
   32.8116  -21.4619   35.0129 C   0  0  0  0  0  0  0  0  0  0  0  0
   31.3990  -21.8381   35.3020 C   0  0  0  0  0  0  0  0  0  0  0  0
   31.1797  -23.2406   35.3929 N   0  0  0  0  0  0  0  0  0  0  0  0
   31.3404  -23.6790   36.3528 H   0  0  0  0  0  0  0  0  0  0  0  0
   30.7724  -24.1328   34.3739 C   0  0  0  0  0  0  0  0  0  0  0  0
   29.5276  -24.8054   34.4800 N   0  0  0  0  0  0  0  0  0  0  0  0
   31.5625  -24.3364   33.3543 N   0  0  0  0  0  0  0  0  0  0  0  0
   28.6174  -24.4587   34.1149 H   0  0  0  0  0  0  0  0  0  0  0  0
   29.5049  -25.7237   34.9635 H   0  0  0  0  0  0  0  0  0  0  0  0
   31.2795  -24.9938   32.5889 H   0  0  0  0  0  0  0  0  0  0  0  0
  7  8  1  0  0  0
  8  9  2  0  0  0
  8 10  1  0  0  0
 10  6  1  0  0  0
  6 12  1  0  0  0
 12 13  1  0  0  0
 13 14  1  0  0  0
 14 15  1  0  0  0
 15 17  1  0  0  0
 17 18  1  0  0  0
 17 19  2  0  0  0
  6  2  1  0  0  0
  2  3  2  0  0  0
  2  4  1  0  0  0
  4  1  1  0  0  0
  1 34  1  0  0  0
 34 35  1  0  0  0
 35 36  1  0  0  0
 36 37  1  0  0  0
 37 39  1  0  0  0
 39 40  1  0  0  0
 39 41  2  0  0  0
  1 23  1  0  0  0
 23 24  2  0  0  0
 23 25  1  0  0  0
 25 26  2  0  0  0
 26 27  1  0  0  0
 27 28  2  0  0  0
 28 29  1  0  0  0
 29 30  2  0  0  0
 30 31  1  0  0  0
 31 32  2  0  0  0
 32 33  1  0  0  0
 33 25  1  0  0  0
 32 27  1  0  0  0
 10 11  1  0  0  0
 15 16  1  0  0  0
 18 20  1  0  0  0
 18 21  1  0  0  0
 19 22  1  0  0  0
  4  5  1  0  0  0
 37 38  1  0  0  0
 40 42  1  0  0  0
 40 43  1  0  0  0
 41 44  1  0  0  0
M  END
> <minimizedAffinity>
-6.08122

> <CNNscore>
0.5000945330

> <CNNaffinity>
5.9780578613

> <CNN_VS>
2.9895939827

> <CNNaffinity_variance>
0.3362883627

$$$$
[H]N=C(N([H])[H])N([H])C([H])([H])C([H])([H])C([H])([H])[C@@]([H])(C(=O)c1nc2c([H])c([H])c([H])c([H])c2s1)N([H])C(=O)[C@@]([H])(N([H])C(=O)C([H])([H])[H])C([H])([H])C([H])([H])C([H])([H])N([H])C(=N[H])N([H])[H]


 44 45  0  0  0  0  0  0  0  0999 V2000
   34.4147  -18.1908   35.4470 C   0  0  0  0  0  0  0  0  0  0  0  0
   35.0648  -15.9167   36.1591 C   0  0  0  0  0  0  0  0  0  0  0  0
   36.0653  -16.0779   35.3729 O   0  0  0  0  0  0  0  0  0  0  0  0
   34.1411  -16.9768   36.2550 N   0  0  0  0  0  0  0  0  0  0  0  0
   33.2865  -16.9972   36.8375 H   0  0  0  0  0  0  0  0  0  0  0  0
   34.9174  -14.6419   36.9216 C   0  0  0  0  0  0  0  0  0  0  0  0
   38.4632  -13.0735   37.1909 C   0  0  0  0  0  0  0  0  0  0  0  0
   37.2650  -13.8982   37.5132 C   0  0  0  0  0  0  0  0  0  0  0  0
   37.3576  -14.6052   38.5701 O   0  0  0  0  0  0  0  0  0  0  0  0
   36.1183  -13.8807   36.6917 N   0  0  0  0  0  0  0  0  0  0  0  0
   36.1332  -13.2639   35.8430 H   0  0  0  0  0  0  0  0  0  0  0  0
   33.6637  -13.9688   36.4990 C   0  0  0  0  0  0  0  0  0  0  0  0
   33.4858  -12.5989   37.1093 C   0  0  0  0  0  0  0  0  0  0  0  0
   32.3458  -12.5521   38.0973 C   0  0  0  0  0  0  0  0  0  0  0  0
   31.0601  -12.3842   37.4842 N   0  0  0  0  0  0  0  0  0  0  0  0
   30.8311  -12.7493   36.5055 H   0  0  0  0  0  0  0  0  0  0  0  0
   29.9619  -11.7201   38.0941 C   0  0  0  0  0  0  0  0  0  0  0  0
   29.7908  -11.6358   39.4958 N   0  0  0  0  0  0  0  0  0  0  0  0
   29.0792  -11.1713   37.3318 N   0  0  0  0  0  0  0  0  0  0  0  0
   30.0787  -12.3855   40.1284 H   0  0  0  0  0  0  0  0  0  0  0  0
   29.3499  -10.7566   39.8754 H   0  0  0  0  0  0  0  0  0  0  0  0
   29.1741  -11.2171   36.3000 H   0  0  0  0  0  0  0  0  0  0  0  0
   33.1981  -18.3483   34.6088 C   0  0  0  0  0  0  0  0  0  0  0  0
   32.9517  -17.5267   33.7083 O   0  0  0  0  0  0  0  0  0  0  0  0
   32.3049  -19.4918   34.8671 C   0  0  0  0  0  0  0  0  0  0  0  0
   31.1094  -19.4572   35.4346 N   0  0  0  0  0  0  0  0  0  0  0  0
   30.4250  -20.5620   35.5757 C   0  0  0  0  0  0  0  0  0  0  0  0
   29.1390  -20.6701   36.1609 C   0  0  0  0  0  0  0  0  0  0  0  0
   28.5591  -21.9050   36.2308 C   0  0  0  0  0  0  0  0  0  0  0  0
   29.0884  -23.0720   35.7915 C   0  0  0  0  0  0  0  0  0  0  0  0
   30.3675  -22.9773   35.2069 C   0  0  0  0  0  0  0  0  0  0  0  0
   30.9871  -21.7226   35.1223 C   0  0  0  0  0  0  0  0  0  0  0  0
   32.4864  -21.1477   34.5105 S   0  0  0  0  0  0  0  0  0  0  0  0
   34.5807  -19.3620   36.4163 C   0  0  0  0  0  0  0  0  0  0  0  0
   35.7850  -19.1641   37.2730 C   0  0  0  0  0  0  0  0  0  0  0  0
   37.1125  -19.2705   36.6043 C   0  0  0  0  0  0  0  0  0  0  0  0
   37.0734  -19.9183   35.3385 N   0  0  0  0  0  0  0  0  0  0  0  0
   36.4973  -20.8155   35.2885 H   0  0  0  0  0  0  0  0  0  0  0  0
   37.6985  -19.5254   34.1322 C   0  0  0  0  0  0  0  0  0  0  0  0
   38.6731  -20.3662   33.5351 N   0  0  0  0  0  0  0  0  0  0  0  0
   37.3779  -18.3795   33.5943 N   0  0  0  0  0  0  0  0  0  0  0  0
   38.4842  -21.1119   32.8350 H   0  0  0  0  0  0  0  0  0  0  0  0
   39.6657  -20.2413   33.8117 H   0  0  0  0  0  0  0  0  0  0  0  0
   37.8297  -18.0697   32.7009 H   0  0  0  0  0  0  0  0  0  0  0  0
  7  8  1  0  0  0
  8  9  2  0  0  0
  8 10  1  0  0  0
 10  6  1  0  0  0
  6 12  1  0  0  0
 12 13  1  0  0  0
 13 14  1  0  0  0
 14 15  1  0  0  0
 15 17  1  0  0  0
 17 18  1  0  0  0
 17 19  2  0  0  0
  6  2  1  0  0  0
  2  3  2  0  0  0
  2  4  1  0  0  0
  4  1  1  0  0  0
  1 34  1  0  0  0
 34 35  1  0  0  0
 35 36  1  0  0  0
 36 37  1  0  0  0
 37 39  1  0  0  0
 39 40  1  0  0  0
 39 41  2  0  0  0
  1 23  1  0  0  0
 23 24  2  0  0  0
 23 25  1  0  0  0
 25 26  2  0  0  0
 26 27  1  0  0  0
 27 28  2  0  0  0
 28 29  1  0  0  0
 29 30  2  0  0  0
 30 31  1  0  0  0
 31 32  2  0  0  0
 32 33  1  0  0  0
 33 25  1  0  0  0
 32 27  1  0  0  0
 10 11  1  0  0  0
 15 16  1  0  0  0
 18 20  1  0  0  0
 18 21  1  0  0  0
 19 22  1  0  0  0
  4  5  1  0  0  0
 37 38  1  0  0  0
 40 42  1  0  0  0
 40 43  1  0  0  0
 41 44  1  0  0  0
M  END
> <minimizedAffinity>
-7.02172

> <CNNscore>
0.4500651956

> <CNNaffinity>
6.2403306961

> <CNN_VS>
2.8085556030

> <CNNaffinity_variance>
0.3122969270

$$$$
[H]N=C(N([H])[H])N([H])C([H])([H])C([H])([H])C([H])([H])[C@@]([H])(C(=O)c1nc2c([H])c([H])c([H])c([H])c2s1)N([H])C(=O)[C@@]([H])(N([H])C(=O)C([H])([H])[H])C([H])([H])C([H])([H])C([H])([H])N([H])C(=N[H])N([H])[H]


 44 45  0  0  0  0  0  0  0  0999 V2000
   36.2720  -19.8175   36.5167 C   0  0  0  0  0  0  0  0  0  0  0  0
   34.4678  -21.3371   37.2495 C   0  0  0  0  0  0  0  0  0  0  0  0
   34.7140  -20.8818   38.4230 O   0  0  0  0  0  0  0  0  0  0  0  0
   35.2369  -20.8272   36.1842 N   0  0  0  0  0  0  0  0  0  0  0  0
   35.1555  -21.0884   35.1866 H   0  0  0  0  0  0  0  0  0  0  0  0
   33.3994  -22.3620   37.0596 C   0  0  0  0  0  0  0  0  0  0  0  0
   33.6635  -25.7992   38.8542 C   0  0  0  0  0  0  0  0  0  0  0  0
   33.3468  -24.7784   37.8163 C   0  0  0  0  0  0  0  0  0  0  0  0
   32.7757  -25.2255   36.7677 O   0  0  0  0  0  0  0  0  0  0  0  0
   33.6651  -23.4169   38.0036 N   0  0  0  0  0  0  0  0  0  0  0  0
   34.1320  -23.1422   38.9021 H   0  0  0  0  0  0  0  0  0  0  0  0
   32.0738  -21.7113   37.2107 C   0  0  0  0  0  0  0  0  0  0  0  0
   31.1496  -21.9593   36.0424 C   0  0  0  0  0  0  0  0  0  0  0  0
   30.7897  -20.6881   35.3127 C   0  0  0  0  0  0  0  0  0  0  0  0
   31.8182  -19.6893   35.3561 N   0  0  0  0  0  0  0  0  0  0  0  0
   31.9925  -19.0719   36.2117 H   0  0  0  0  0  0  0  0  0  0  0  0
   32.7060  -19.4059   34.2836 C   0  0  0  0  0  0  0  0  0  0  0  0
   32.9997  -18.0920   33.8496 N   0  0  0  0  0  0  0  0  0  0  0  0
   33.2673  -20.3949   33.6769 N   0  0  0  0  0  0  0  0  0  0  0  0
   32.3080  -17.3397   33.8750 H   0  0  0  0  0  0  0  0  0  0  0  0
   33.9750  -17.9088   33.4937 H   0  0  0  0  0  0  0  0  0  0  0  0
   33.0715  -21.3705   33.9691 H   0  0  0  0  0  0  0  0  0  0  0  0
   36.0915  -18.7626   35.4862 C   0  0  0  0  0  0  0  0  0  0  0  0
   36.1422  -19.0563   34.2788 O   0  0  0  0  0  0  0  0  0  0  0  0
   35.8496  -17.3774   35.9275 C   0  0  0  0  0  0  0  0  0  0  0  0
   34.7730  -16.6431   35.6948 N   0  0  0  0  0  0  0  0  0  0  0  0
   34.6979  -15.4295   36.1748 C   0  0  0  0  0  0  0  0  0  0  0  0
   33.6099  -14.5378   36.0050 C   0  0  0  0  0  0  0  0  0  0  0  0
   33.6902  -13.2992   36.5754 C   0  0  0  0  0  0  0  0  0  0  0  0
   34.7211  -12.8119   37.3066 C   0  0  0  0  0  0  0  0  0  0  0  0
   35.8096  -13.6900   37.4829 C   0  0  0  0  0  0  0  0  0  0  0  0
   35.7550  -14.9675   36.9081 C   0  0  0  0  0  0  0  0  0  0  0  0
   36.8075  -16.3250   36.8639 S   0  0  0  0  0  0  0  0  0  0  0  0
   37.6364  -20.4964   36.3881 C   0  0  0  0  0  0  0  0  0  0  0  0
   38.7055  -19.6341   36.9681 C   0  0  0  0  0  0  0  0  0  0  0  0
   39.7553  -19.1411   36.0324 C   0  0  0  0  0  0  0  0  0  0  0  0
   39.2418  -18.5470   34.8464 N   0  0  0  0  0  0  0  0  0  0  0  0
   38.4514  -17.8419   34.9795 H   0  0  0  0  0  0  0  0  0  0  0  0
   39.6454  -18.7674   33.5090 C   0  0  0  0  0  0  0  0  0  0  0  0
   40.8859  -18.2524   33.0515 N   0  0  0  0  0  0  0  0  0  0  0  0
   38.8559  -19.4310   32.7081 N   0  0  0  0  0  0  0  0  0  0  0  0
   41.7988  -18.7498   33.0848 H   0  0  0  0  0  0  0  0  0  0  0  0
   40.9021  -17.2963   32.6476 H   0  0  0  0  0  0  0  0  0  0  0  0
   39.1361  -19.6047   31.7134 H   0  0  0  0  0  0  0  0  0  0  0  0
  7  8  1  0  0  0
  8  9  2  0  0  0
  8 10  1  0  0  0
 10  6  1  0  0  0
  6 12  1  0  0  0
 12 13  1  0  0  0
 13 14  1  0  0  0
 14 15  1  0  0  0
 15 17  1  0  0  0
 17 18  1  0  0  0
 17 19  2  0  0  0
  6  2  1  0  0  0
  2  3  2  0  0  0
  2  4  1  0  0  0
  4  1  1  0  0  0
  1 34  1  0  0  0
 34 35  1  0  0  0
 35 36  1  0  0  0
 36 37  1  0  0  0
 37 39  1  0  0  0
 39 40  1  0  0  0
 39 41  2  0  0  0
  1 23  1  0  0  0
 23 24  2  0  0  0
 23 25  1  0  0  0
 25 26  2  0  0  0
 26 27  1  0  0  0
 27 28  2  0  0  0
 28 29  1  0  0  0
 29 30  2  0  0  0
 30 31  1  0  0  0
 31 32  2  0  0  0
 32 33  1  0  0  0
 33 25  1  0  0  0
 32 27  1  0  0  0
 10 11  1  0  0  0
 15 16  1  0  0  0
 18 20  1  0  0  0
 18 21  1  0  0  0
 19 22  1  0  0  0
  4  5  1  0  0  0
 37 38  1  0  0  0
 40 42  1  0  0  0
 40 43  1  0  0  0
 41 44  1  0  0  0
M  END
> <minimizedAffinity>
-6.17927

> <CNNscore>
0.4298411310

> <CNNaffinity>
6.1099610329

> <CNN_VS>
2.6263124943

> <CNNaffinity_variance>
0.6178532243

$$$$
[H]N=C(N([H])[H])N([H])C([H])([H])C([H])([H])C([H])([H])[C@@]([H])(C(=O)c1nc2c([H])c([H])c([H])c([H])c2s1)N([H])C(=O)[C@@]([H])(N([H])C(=O)C([H])([H])[H])C([H])([H])C([H])([H])C([H])([H])N([H])C(=N[H])N([H])[H]


 44 45  0  0  0  0  0  0  0  0999 V2000
   36.5102  -17.4864   36.0894 C   0  0  0  0  0  0  0  0  0  0  0  0
   38.1875  -19.2205   36.6196 C   0  0  0  0  0  0  0  0  0  0  0  0
   37.2339  -19.7867   37.2639 O   0  0  0  0  0  0  0  0  0  0  0  0
   37.8939  -18.0074   35.9649 N   0  0  0  0  0  0  0  0  0  0  0  0
   38.5496  -17.4367   35.4042 H   0  0  0  0  0  0  0  0  0  0  0  0
   39.5387  -19.8538   36.5846 C   0  0  0  0  0  0  0  0  0  0  0  0
   39.3054  -23.2439   34.6984 C   0  0  0  0  0  0  0  0  0  0  0  0
   39.3460  -22.2592   35.8157 C   0  0  0  0  0  0  0  0  0  0  0  0
   39.2430  -22.7565   36.9852 O   0  0  0  0  0  0  0  0  0  0  0  0
   39.4902  -20.8772   35.5722 N   0  0  0  0  0  0  0  0  0  0  0  0
   39.5713  -20.5613   34.5750 H   0  0  0  0  0  0  0  0  0  0  0  0
   40.5597  -18.8007   36.3563 C   0  0  0  0  0  0  0  0  0  0  0  0
   41.6616  -19.2302   35.4171 C   0  0  0  0  0  0  0  0  0  0  0  0
   41.8331  -18.2796   34.2574 C   0  0  0  0  0  0  0  0  0  0  0  0
   40.6856  -18.2058   33.4000 N   0  0  0  0  0  0  0  0  0  0  0  0
   40.1586  -17.2944   33.2121 H   0  0  0  0  0  0  0  0  0  0  0  0
   40.1228  -19.3172   32.7167 C   0  0  0  0  0  0  0  0  0  0  0  0
   40.8934  -20.2302   31.9593 N   0  0  0  0  0  0  0  0  0  0  0  0
   38.8489  -19.4985   32.7894 N   0  0  0  0  0  0  0  0  0  0  0  0
   41.7236  -19.9437   31.4362 H   0  0  0  0  0  0  0  0  0  0  0  0
   40.5793  -21.2366   31.9531 H   0  0  0  0  0  0  0  0  0  0  0  0
   38.2552  -18.8459   33.3346 H   0  0  0  0  0  0  0  0  0  0  0  0
   35.8308  -17.9689   34.8594 C   0  0  0  0  0  0  0  0  0  0  0  0
   36.4230  -17.9338   33.7664 O   0  0  0  0  0  0  0  0  0  0  0  0
   34.4554  -18.4873   34.9686 C   0  0  0  0  0  0  0  0  0  0  0  0
   34.0534  -19.5410   35.6618 N   0  0  0  0  0  0  0  0  0  0  0  0
   32.7869  -19.8641   35.6769 C   0  0  0  0  0  0  0  0  0  0  0  0
   32.2203  -20.9601   36.3739 C   0  0  0  0  0  0  0  0  0  0  0  0
   30.8717  -21.1587   36.2855 C   0  0  0  0  0  0  0  0  0  0  0  0
   29.9883  -20.4054   35.5876 C   0  0  0  0  0  0  0  0  0  0  0  0
   30.5399  -19.3118   34.8902 C   0  0  0  0  0  0  0  0  0  0  0  0
   31.9213  -19.0840   34.9623 C   0  0  0  0  0  0  0  0  0  0  0  0
   32.9951  -17.9155   34.3034 S   0  0  0  0  0  0  0  0  0  0  0  0
   36.5934  -15.9597   36.1194 C   0  0  0  0  0  0  0  0  0  0  0  0
   35.4005  -15.3851   36.8050 C   0  0  0  0  0  0  0  0  0  0  0  0
   34.3996  -14.6906   35.9468 C   0  0  0  0  0  0  0  0  0  0  0  0
   33.2171  -14.3012   36.6349 N   0  0  0  0  0  0  0  0  0  0  0  0
   32.3920  -14.9749   36.5675 H   0  0  0  0  0  0  0  0  0  0  0  0
   32.9923  -13.1344   37.4020 C   0  0  0  0  0  0  0  0  0  0  0  0
   32.0836  -13.1693   38.4911 N   0  0  0  0  0  0  0  0  0  0  0  0
   33.6166  -12.0331   37.0816 N   0  0  0  0  0  0  0  0  0  0  0  0
   32.3256  -13.3988   39.4763 H   0  0  0  0  0  0  0  0  0  0  0  0
   31.0857  -12.9517   38.3056 H   0  0  0  0  0  0  0  0  0  0  0  0
   33.4637  -11.1577   37.6369 H   0  0  0  0  0  0  0  0  0  0  0  0
  7  8  1  0  0  0
  8  9  2  0  0  0
  8 10  1  0  0  0
 10  6  1  0  0  0
  6 12  1  0  0  0
 12 13  1  0  0  0
 13 14  1  0  0  0
 14 15  1  0  0  0
 15 17  1  0  0  0
 17 18  1  0  0  0
 17 19  2  0  0  0
  6  2  1  0  0  0
  2  3  2  0  0  0
  2  4  1  0  0  0
  4  1  1  0  0  0
  1 34  1  0  0  0
 34 35  1  0  0  0
 35 36  1  0  0  0
 36 37  1  0  0  0
 37 39  1  0  0  0
 39 40  1  0  0  0
 39 41  2  0  0  0
  1 23  1  0  0  0
 23 24  2  0  0  0
 23 25  1  0  0  0
 25 26  2  0  0  0
 26 27  1  0  0  0
 27 28  2  0  0  0
 28 29  1  0  0  0
 29 30  2  0  0  0
 30 31  1  0  0  0
 31 32  2  0  0  0
 32 33  1  0  0  0
 33 25  1  0  0  0
 32 27  1  0  0  0
 10 11  1  0  0  0
 15 16  1  0  0  0
 18 20  1  0  0  0
 18 21  1  0  0  0
 19 22  1  0  0  0
  4  5  1  0  0  0
 37 38  1  0  0  0
 40 42  1  0  0  0
 40 43  1  0  0  0
 41 44  1  0  0  0
M  END
> <minimizedAffinity>
-6.69864

> <CNNscore>
0.4171748459

> <CNNaffinity>
6.1060314178

> <CNN_VS>
2.5472826958

> <CNNaffinity_variance>
0.7458497286

$$$$
[H]N=C(N([H])[H])N([H])C([H])([H])C([H])([H])C([H])([H])[C@@]([H])(C(=O)c1nc2c([H])c([H])c([H])c([H])c2s1)N([H])C(=O)[C@@]([H])(N([H])C(=O)C([H])([H])[H])C([H])([H])C([H])([H])C([H])([H])N([H])C(=N[H])N([H])[H]


 44 45  0  0  0  0  0  0  0  0999 V2000
   34.5145  -19.7438   36.3844 C   0  0  0  0  0  0  0  0  0  0  0  0
   36.9797  -19.6513   36.2598 C   0  0  0  0  0  0  0  0  0  0  0  0
   36.8692  -18.6392   37.0400 O   0  0  0  0  0  0  0  0  0  0  0  0
   35.7904  -20.2985   35.8687 N   0  0  0  0  0  0  0  0  0  0  0  0
   35.7143  -21.1254   35.2518 H   0  0  0  0  0  0  0  0  0  0  0  0
   38.3310  -20.0976   35.8094 C   0  0  0  0  0  0  0  0  0  0  0  0
   38.8412  -23.7809   34.6788 C   0  0  0  0  0  0  0  0  0  0  0  0
   39.1059  -22.4558   35.3061 C   0  0  0  0  0  0  0  0  0  0  0  0
   40.2293  -22.3475   35.8991 O   0  0  0  0  0  0  0  0  0  0  0  0
   38.1641  -21.4079   35.2348 N   0  0  0  0  0  0  0  0  0  0  0  0
   37.2672  -21.5894   34.7216 H   0  0  0  0  0  0  0  0  0  0  0  0
   38.8924  -19.0803   34.8857 C   0  0  0  0  0  0  0  0  0  0  0  0
   39.0374  -19.5765   33.4667 C   0  0  0  0  0  0  0  0  0  0  0  0
   40.4807  -19.6805   33.0375 C   0  0  0  0  0  0  0  0  0  0  0  0
   41.2047  -18.4475   33.1514 N   0  0  0  0  0  0  0  0  0  0  0  0
   40.9931  -17.5917   32.5461 H   0  0  0  0  0  0  0  0  0  0  0  0
   42.2722  -18.2261   34.0626 C   0  0  0  0  0  0  0  0  0  0  0  0
   42.5925  -16.9502   34.5829 N   0  0  0  0  0  0  0  0  0  0  0  0
   42.9830  -19.2368   34.4290 N   0  0  0  0  0  0  0  0  0  0  0  0
   42.4781  -16.0926   34.0385 H   0  0  0  0  0  0  0  0  0  0  0  0
   42.9584  -16.9108   35.5709 H   0  0  0  0  0  0  0  0  0  0  0  0
   42.7757  -20.1853   34.0641 H   0  0  0  0  0  0  0  0  0  0  0  0
   33.9755  -20.8236   37.2509 C   0  0  0  0  0  0  0  0  0  0  0  0
   34.5825  -21.1536   38.2849 O   0  0  0  0  0  0  0  0  0  0  0  0
   32.7163  -21.4818   36.8594 C   0  0  0  0  0  0  0  0  0  0  0  0
   31.4870  -21.0952   37.1623 N   0  0  0  0  0  0  0  0  0  0  0  0
   30.4636  -21.7774   36.7196 C   0  0  0  0  0  0  0  0  0  0  0  0
   29.1005  -21.4779   36.9645 C   0  0  0  0  0  0  0  0  0  0  0  0
   28.1488  -22.2959   36.4250 C   0  0  0  0  0  0  0  0  0  0  0  0
   28.3656  -23.3925   35.6599 C   0  0  0  0  0  0  0  0  0  0  0  0
   29.7179  -23.7007   35.4089 C   0  0  0  0  0  0  0  0  0  0  0  0
   30.7163  -22.8789   35.9505 C   0  0  0  0  0  0  0  0  0  0  0  0
   32.4340  -22.8666   35.9082 S   0  0  0  0  0  0  0  0  0  0  0  0
   33.6049  -19.4855   35.1825 C   0  0  0  0  0  0  0  0  0  0  0  0
   33.0314  -18.1107   35.2475 C   0  0  0  0  0  0  0  0  0  0  0  0
   33.9908  -16.9896   35.4563 C   0  0  0  0  0  0  0  0  0  0  0  0
   33.3698  -15.7319   35.6926 N   0  0  0  0  0  0  0  0  0  0  0  0
   32.3574  -15.6403   35.3669 H   0  0  0  0  0  0  0  0  0  0  0  0
   33.9201  -14.5835   36.3077 C   0  0  0  0  0  0  0  0  0  0  0  0
   35.2590  -14.2056   36.0285 N   0  0  0  0  0  0  0  0  0  0  0  0
   33.1867  -13.8958   37.1411 N   0  0  0  0  0  0  0  0  0  0  0  0
   35.5626  -13.5656   35.2669 H   0  0  0  0  0  0  0  0  0  0  0  0
   36.0140  -14.5946   36.6254 H   0  0  0  0  0  0  0  0  0  0  0  0
   33.5758  -13.0419   37.6077 H   0  0  0  0  0  0  0  0  0  0  0  0
  7  8  1  0  0  0
  8  9  2  0  0  0
  8 10  1  0  0  0
 10  6  1  0  0  0
  6 12  1  0  0  0
 12 13  1  0  0  0
 13 14  1  0  0  0
 14 15  1  0  0  0
 15 17  1  0  0  0
 17 18  1  0  0  0
 17 19  2  0  0  0
  6  2  1  0  0  0
  2  3  2  0  0  0
  2  4  1  0  0  0
  4  1  1  0  0  0
  1 34  1  0  0  0
 34 35  1  0  0  0
 35 36  1  0  0  0
 36 37  1  0  0  0
 37 39  1  0  0  0
 39 40  1  0  0  0
 39 41  2  0  0  0
  1 23  1  0  0  0
 23 24  2  0  0  0
 23 25  1  0  0  0
 25 26  2  0  0  0
 26 27  1  0  0  0
 27 28  2  0  0  0
 28 29  1  0  0  0
 29 30  2  0  0  0
 30 31  1  0  0  0
 31 32  2  0  0  0
 32 33  1  0  0  0
 33 25  1  0  0  0
 32 27  1  0  0  0
 10 11  1  0  0  0
 15 16  1  0  0  0
 18 20  1  0  0  0
 18 21  1  0  0  0
 19 22  1  0  0  0
  4  5  1  0  0  0
 37 38  1  0  0  0
 40 42  1  0  0  0
 40 43  1  0  0  0
 41 44  1  0  0  0
M  END
> <minimizedAffinity>
-6.02867

> <CNNscore>
0.4092919230

> <CNNaffinity>
5.5328626633

> <CNN_VS>
2.2645559311

> <CNNaffinity_variance>
0.3206235766

$$$$
[H]N=C(N([H])[H])N([H])C([H])([H])C([H])([H])C([H])([H])[C@@]([H])(C(=O)c1nc2c([H])c([H])c([H])c([H])c2s1)N([H])C(=O)[C@@]([H])(N([H])C(=O)C([H])([H])[H])C([H])([H])C([H])([H])C([H])([H])N([H])C(=N[H])N([H])[H]


 44 45  0  0  0  0  0  0  0  0999 V2000
   35.5061  -19.9893   36.9553 C   0  0  0  0  0  0  0  0  0  0  0  0
   33.5142  -21.3482   37.4910 C   0  0  0  0  0  0  0  0  0  0  0  0
   33.5714  -20.7769   38.6379 O   0  0  0  0  0  0  0  0  0  0  0  0
   34.4907  -20.9884   36.5405 N   0  0  0  0  0  0  0  0  0  0  0  0
   34.5749  -21.3541   35.5765 H   0  0  0  0  0  0  0  0  0  0  0  0
   32.4395  -22.3456   37.2109 C   0  0  0  0  0  0  0  0  0  0  0  0
   28.6962  -21.3373   37.4866 C   0  0  0  0  0  0  0  0  0  0  0  0
   29.9318  -22.1692   37.5184 C   0  0  0  0  0  0  0  0  0  0  0  0
   29.7593  -23.3901   37.8426 O   0  0  0  0  0  0  0  0  0  0  0  0
   31.1941  -21.6221   37.2064 N   0  0  0  0  0  0  0  0  0  0  0  0
   31.2372  -20.6063   36.9470 H   0  0  0  0  0  0  0  0  0  0  0  0
   32.7539  -23.0509   35.9432 C   0  0  0  0  0  0  0  0  0  0  0  0
   31.6868  -22.8865   34.8873 C   0  0  0  0  0  0  0  0  0  0  0  0
   32.1860  -22.1377   33.6756 C   0  0  0  0  0  0  0  0  0  0  0  0
   32.7316  -20.8470   33.9818 N   0  0  0  0  0  0  0  0  0  0  0  0
   33.7828  -20.6528   34.0112 H   0  0  0  0  0  0  0  0  0  0  0  0
   31.9517  -19.6977   34.2815 C   0  0  0  0  0  0  0  0  0  0  0  0
   32.4750  -18.3835   34.2692 N   0  0  0  0  0  0  0  0  0  0  0  0
   30.7091  -19.8631   34.5813 N   0  0  0  0  0  0  0  0  0  0  0  0
   33.4372  -18.1749   34.5443 H   0  0  0  0  0  0  0  0  0  0  0  0
   31.8286  -17.6104   33.9591 H   0  0  0  0  0  0  0  0  0  0  0  0
   30.2952  -20.8139   34.6015 H   0  0  0  0  0  0  0  0  0  0  0  0
   35.5098  -18.9976   35.8490 C   0  0  0  0  0  0  0  0  0  0  0  0
   35.5669  -19.3827   34.6679 O   0  0  0  0  0  0  0  0  0  0  0  0
   35.4406  -17.5641   36.1844 C   0  0  0  0  0  0  0  0  0  0  0  0
   34.4854  -16.7119   35.8476 N   0  0  0  0  0  0  0  0  0  0  0  0
   34.5562  -15.4675   36.2416 C   0  0  0  0  0  0  0  0  0  0  0  0
   33.6084  -14.4535   35.9565 C   0  0  0  0  0  0  0  0  0  0  0  0
   33.8326  -13.1985   36.4470 C   0  0  0  0  0  0  0  0  0  0  0  0
   34.8882  -12.8010   37.1972 C   0  0  0  0  0  0  0  0  0  0  0  0
   35.8380  -13.8011   37.4879 C   0  0  0  0  0  0  0  0  0  0  0  0
   35.6341  -15.0983   36.9969 C   0  0  0  0  0  0  0  0  0  0  0  0
   36.4924  -16.5835   37.0978 S   0  0  0  0  0  0  0  0  0  0  0  0
   36.8490  -20.7134   37.0611 C   0  0  0  0  0  0  0  0  0  0  0  0
   37.9487  -19.7394   37.3165 C   0  0  0  0  0  0  0  0  0  0  0  0
   39.0489  -19.6868   36.3127 C   0  0  0  0  0  0  0  0  0  0  0  0
   38.8346  -18.7471   35.2668 N   0  0  0  0  0  0  0  0  0  0  0  0
   38.4923  -17.7815   35.5668 H   0  0  0  0  0  0  0  0  0  0  0  0
   39.0193  -18.9250   33.8759 C   0  0  0  0  0  0  0  0  0  0  0  0
   39.9111  -18.0786   33.1677 N   0  0  0  0  0  0  0  0  0  0  0  0
   38.3481  -19.8608   33.2603 N   0  0  0  0  0  0  0  0  0  0  0  0
   40.9240  -18.2577   33.0135 H   0  0  0  0  0  0  0  0  0  0  0  0
   39.5370  -17.1986   32.7639 H   0  0  0  0  0  0  0  0  0  0  0  0
   38.4702  -20.0088   32.2301 H   0  0  0  0  0  0  0  0  0  0  0  0
  7  8  1  0  0  0
  8  9  2  0  0  0
  8 10  1  0  0  0
 10  6  1  0  0  0
  6 12  1  0  0  0
 12 13  1  0  0  0
 13 14  1  0  0  0
 14 15  1  0  0  0
 15 17  1  0  0  0
 17 18  1  0  0  0
 17 19  2  0  0  0
  6  2  1  0  0  0
  2  3  2  0  0  0
  2  4  1  0  0  0
  4  1  1  0  0  0
  1 34  1  0  0  0
 34 35  1  0  0  0
 35 36  1  0  0  0
 36 37  1  0  0  0
 37 39  1  0  0  0
 39 40  1  0  0  0
 39 41  2  0  0  0
  1 23  1  0  0  0
 23 24  2  0  0  0
 23 25  1  0  0  0
 25 26  2  0  0  0
 26 27  1  0  0  0
 27 28  2  0  0  0
 28 29  1  0  0  0
 29 30  2  0  0  0
 30 31  1  0  0  0
 31 32  2  0  0  0
 32 33  1  0  0  0
 33 25  1  0  0  0
 32 27  1  0  0  0
 10 11  1  0  0  0
 15 16  1  0  0  0
 18 20  1  0  0  0
 18 21  1  0  0  0
 19 22  1  0  0  0
  4  5  1  0  0  0
 37 38  1  0  0  0
 40 42  1  0  0  0
 40 43  1  0  0  0
 41 44  1  0  0  0
M  END
> <minimizedAffinity>
-5.94118

> <CNNscore>
0.3688612282

> <CNNaffinity>
6.0666875839

> <CNN_VS>
2.2377657890

> <CNNaffinity_variance>
0.8252869844

$$$$
[H]c1c(C(=O)N(C([H])([H])[H])C([H])([H])C(C([H])([H])[H])(C([H])([H])[H])C([H])([H])[H])sc(C([H])([H])N([H])C(=O)[C@@]2([H])N([H])C([H])([H])c3c([H])c(N([H])S(=O)(=O)c4c([H])c([H])c(C(C([H])([H])[H])(C([H])([H])[H])C([H])([H])[H])c([H])c4[H])c([H])c([H])c3C2([H])[H])c1[H]


 45 48  0  0  0  0  0  0  0  0999 V2000
   36.9067  -19.2700   34.4274 C   0  0  0  0  0  0  0  0  0  0  0  0
   37.4791  -19.0141   35.7806 C   0  0  0  0  0  0  0  0  0  0  0  0
   38.9584  -18.9648   35.7422 C   0  0  0  0  0  0  0  0  0  0  0  0
   39.6008  -18.7799   36.9701 C   0  0  0  0  0  0  0  0  0  0  0  0
   40.9676  -18.6926   37.0247 C   0  0  0  0  0  0  0  0  0  0  0  0
   41.6975  -18.7874   35.8676 C   0  0  0  0  0  0  0  0  0  0  0  0
   41.0524  -18.9718   34.6563 C   0  0  0  0  0  0  0  0  0  0  0  0
   39.6865  -19.0655   34.5586 C   0  0  0  0  0  0  0  0  0  0  0  0
   38.9698  -19.2732   33.2849 C   0  0  0  0  0  0  0  0  0  0  0  0
   37.6914  -18.6540   33.3966 N   0  0  0  0  0  0  0  0  0  0  0  0
   37.7667  -17.6214   33.5153 H   0  0  0  0  0  0  0  0  0  0  0  0
   34.4800  -19.6957   33.8789 N   0  0  0  0  0  0  0  0  0  0  0  0
   35.4997  -18.7934   34.3058 C   0  0  0  0  0  0  0  0  0  0  0  0
   35.2548  -17.5838   34.5976 O   0  0  0  0  0  0  0  0  0  0  0  0
   34.7560  -20.6618   33.6594 H   0  0  0  0  0  0  0  0  0  0  0  0
   33.1358  -19.1672   33.7930 C   0  0  0  0  0  0  0  0  0  0  0  0
   30.8312  -22.1815   35.3168 C   0  0  0  0  0  0  0  0  0  0  0  0
   30.3212  -20.9062   35.5970 C   0  0  0  0  0  0  0  0  0  0  0  0
   31.0182  -19.8689   35.1450 C   0  0  0  0  0  0  0  0  0  0  0  0
   32.1676  -20.0927   34.4477 C   0  0  0  0  0  0  0  0  0  0  0  0
   32.2440  -21.7938   34.4461 S   0  0  0  0  0  0  0  0  0  0  0  0
   29.9587  -25.8100   36.1476 C   0  0  0  0  0  0  0  0  0  0  0  0
   30.8417  -24.6326   35.8958 N   0  0  0  0  0  0  0  0  0  0  0  0
   30.1923  -23.4465   35.6696 C   0  0  0  0  0  0  0  0  0  0  0  0
   28.9067  -23.4432   35.7675 O   0  0  0  0  0  0  0  0  0  0  0  0
   32.2384  -24.8515   35.9934 C   0  0  0  0  0  0  0  0  0  0  0  0
   32.8580  -24.6107   37.3333 C   0  0  0  0  0  0  0  0  0  0  0  0
   34.1770  -23.8555   37.0968 C   0  0  0  0  0  0  0  0  0  0  0  0
   33.2182  -25.9632   38.0000 C   0  0  0  0  0  0  0  0  0  0  0  0
   32.0616  -23.8686   38.3337 C   0  0  0  0  0  0  0  0  0  0  0  0
   43.1037  -18.6459   35.9151 N   0  0  0  0  0  0  0  0  0  0  0  0
   43.5488  -17.8053   35.4584 H   0  0  0  0  0  0  0  0  0  0  0  0
   44.0666  -19.8593   36.7269 S   0  0  0  0  0  0  0  0  0  0  0  0
   45.5207  -19.5519   36.6683 O   0  0  0  0  0  0  0  0  0  0  0  0
   43.8023  -21.1699   36.0412 O   0  0  0  0  0  0  0  0  0  0  0  0
   43.4690  -19.8832   38.3924 C   0  0  0  0  0  0  0  0  0  0  0  0
   42.9621  -21.0469   38.9316 C   0  0  0  0  0  0  0  0  0  0  0  0
   42.4643  -21.1021   40.2153 C   0  0  0  0  0  0  0  0  0  0  0  0
   42.4530  -19.9702   41.0317 C   0  0  0  0  0  0  0  0  0  0  0  0
   42.9613  -18.8264   40.4805 C   0  0  0  0  0  0  0  0  0  0  0  0
   43.4632  -18.7632   39.1903 C   0  0  0  0  0  0  0  0  0  0  0  0
   41.8959  -20.0833   42.3812 C   0  0  0  0  0  0  0  0  0  0  0  0
   42.1275  -21.3881   43.0562 C   0  0  0  0  0  0  0  0  0  0  0  0
   40.4058  -19.7880   42.3910 C   0  0  0  0  0  0  0  0  0  0  0  0
   42.5655  -19.0014   43.2241 C   0  0  0  0  0  0  0  0  0  0  0  0
 22 23  1  0  0  0
 23 26  1  0  0  0
 26 27  1  0  0  0
 27 28  1  0  0  0
 27 29  1  0  0  0
 27 30  1  0  0  0
 23 24  1  0  0  0
 24 25  2  0  0  0
 24 17  1  0  0  0
 17 18  2  0  0  0
 18 19  1  0  0  0
 19 20  2  0  0  0
 20 16  1  0  0  0
 16 12  1  0  0  0
 12 13  1  0  0  0
 13 14  2  0  0  0
 13  1  1  0  0  0
  1  2  1  0  0  0
  2  3  1  0  0  0
  3  4  2  0  0  0
  4  5  1  0  0  0
  5  6  2  0  0  0
  6 31  1  0  0  0
 31 33  1  0  0  0
 33 34  2  0  0  0
 33 35  2  0  0  0
 33 36  1  0  0  0
 36 37  2  0  0  0
 37 38  1  0  0  0
 38 39  2  0  0  0
 39 40  1  0  0  0
 40 41  2  0  0  0
 39 42  1  0  0  0
 42 43  1  0  0  0
 42 44  1  0  0  0
 42 45  1  0  0  0
  6  7  1  0  0  0
  7  8  2  0  0  0
  8  9  1  0  0  0
  9 10  1  0  0  0
 20 21  1  0  0  0
 21 17  1  0  0  0
 10  1  1  0  0  0
  8  3  1  0  0  0
 41 36  1  0  0  0
 12 15  1  0  0  0
 31 32  1  0  0  0
 10 11  1  0  0  0
M  END
> <minimizedAffinity>
-6.62565

> <CNNscore>
0.2892495394

> <CNNaffinity>
5.7400255203

> <CNN_VS>
1.6602997780

> <CNNaffinity_variance>
0.3434959054

$$$$
[H]c1c(C(=O)N(C([H])([H])[H])C([H])([H])C(C([H])([H])[H])(C([H])([H])[H])C([H])([H])[H])sc(C([H])([H])N([H])C(=O)[C@@]2([H])N([H])C([H])([H])c3c([H])c(N([H])S(=O)(=O)c4c([H])c([H])c(C(C([H])([H])[H])(C([H])([H])[H])C([H])([H])[H])c([H])c4[H])c([H])c([H])c3C2([H])[H])c1[H]


 45 48  0  0  0  0  0  0  0  0999 V2000
   37.3393  -18.3676   36.4521 C   0  0  0  0  0  0  0  0  0  0  0  0
   36.0679  -18.3890   35.6728 C   0  0  0  0  0  0  0  0  0  0  0  0
   35.2925  -17.1428   35.8677 C   0  0  0  0  0  0  0  0  0  0  0  0
   34.0553  -17.0792   35.2198 C   0  0  0  0  0  0  0  0  0  0  0  0
   33.2833  -15.9510   35.3210 C   0  0  0  0  0  0  0  0  0  0  0  0
   33.7341  -14.8879   36.0606 C   0  0  0  0  0  0  0  0  0  0  0  0
   34.9603  -14.9608   36.6999 C   0  0  0  0  0  0  0  0  0  0  0  0
   35.7627  -16.0719   36.6248 C   0  0  0  0  0  0  0  0  0  0  0  0
   37.0689  -16.1850   37.3033 C   0  0  0  0  0  0  0  0  0  0  0  0
   37.8933  -17.0464   36.5234 N   0  0  0  0  0  0  0  0  0  0  0  0
   38.0955  -16.6469   35.5824 H   0  0  0  0  0  0  0  0  0  0  0  0
   39.4345  -18.7596   35.1004 N   0  0  0  0  0  0  0  0  0  0  0  0
   38.3677  -19.2871   35.8876 C   0  0  0  0  0  0  0  0  0  0  0  0
   38.2585  -20.5256   36.1372 O   0  0  0  0  0  0  0  0  0  0  0  0
   39.4558  -17.7438   34.9409 H   0  0  0  0  0  0  0  0  0  0  0  0
   40.4016  -19.7088   34.5929 C   0  0  0  0  0  0  0  0  0  0  0  0
   43.7780  -20.1975   36.8467 C   0  0  0  0  0  0  0  0  0  0  0  0
   43.4909  -18.8529   36.5738 C   0  0  0  0  0  0  0  0  0  0  0  0
   42.4132  -18.6075   35.8360 C   0  0  0  0  0  0  0  0  0  0  0  0
   41.6587  -19.6521   35.3923 C   0  0  0  0  0  0  0  0  0  0  0  0
   42.5026  -20.9842   36.0351 S   0  0  0  0  0  0  0  0  0  0  0  0
   46.0463  -21.4557   39.6556 C   0  0  0  0  0  0  0  0  0  0  0  0
   44.7617  -21.1027   38.9813 N   0  0  0  0  0  0  0  0  0  0  0  0
   44.8751  -20.6775   37.6828 C   0  0  0  0  0  0  0  0  0  0  0  0
   46.0497  -20.6930   37.1513 O   0  0  0  0  0  0  0  0  0  0  0  0
   43.5733  -21.3168   39.7228 C   0  0  0  0  0  0  0  0  0  0  0  0
   42.9741  -20.1152   40.3819 C   0  0  0  0  0  0  0  0  0  0  0  0
   42.7280  -20.4787   41.8561 C   0  0  0  0  0  0  0  0  0  0  0  0
   41.5932  -19.7998   39.7516 C   0  0  0  0  0  0  0  0  0  0  0  0
   43.7388  -18.8510   40.3283 C   0  0  0  0  0  0  0  0  0  0  0  0
   32.9633  -13.7040   36.1240 N   0  0  0  0  0  0  0  0  0  0  0  0
   32.2695  -13.5039   35.3547 H   0  0  0  0  0  0  0  0  0  0  0  0
   33.1753  -12.6068   37.4692 S   0  0  0  0  0  0  0  0  0  0  0  0
   33.9610  -11.4019   37.0907 O   0  0  0  0  0  0  0  0  0  0  0  0
   33.8997  -13.3601   38.5488 O   0  0  0  0  0  0  0  0  0  0  0  0
   31.5351  -12.1844   37.9819 C   0  0  0  0  0  0  0  0  0  0  0  0
   30.8588  -11.1529   37.3650 C   0  0  0  0  0  0  0  0  0  0  0  0
   29.5906  -10.7760   37.7503 C   0  0  0  0  0  0  0  0  0  0  0  0
   28.9310  -11.4303   38.7918 C   0  0  0  0  0  0  0  0  0  0  0  0
   29.6165  -12.4514   39.3900 C   0  0  0  0  0  0  0  0  0  0  0  0
   30.8922  -12.8357   39.0083 C   0  0  0  0  0  0  0  0  0  0  0  0
   27.5913  -10.9757   39.1699 C   0  0  0  0  0  0  0  0  0  0  0  0
   26.4984  -11.3849   38.2479 C   0  0  0  0  0  0  0  0  0  0  0  0
   27.5464   -9.4667   39.3385 C   0  0  0  0  0  0  0  0  0  0  0  0
   27.2927  -11.5816   40.5385 C   0  0  0  0  0  0  0  0  0  0  0  0
 22 23  1  0  0  0
 23 26  1  0  0  0
 26 27  1  0  0  0
 27 28  1  0  0  0
 27 29  1  0  0  0
 27 30  1  0  0  0
 23 24  1  0  0  0
 24 25  2  0  0  0
 24 17  1  0  0  0
 17 18  2  0  0  0
 18 19  1  0  0  0
 19 20  2  0  0  0
 20 16  1  0  0  0
 16 12  1  0  0  0
 12 13  1  0  0  0
 13 14  2  0  0  0
 13  1  1  0  0  0
  1  2  1  0  0  0
  2  3  1  0  0  0
  3  4  2  0  0  0
  4  5  1  0  0  0
  5  6  2  0  0  0
  6 31  1  0  0  0
 31 33  1  0  0  0
 33 34  2  0  0  0
 33 35  2  0  0  0
 33 36  1  0  0  0
 36 37  2  0  0  0
 37 38  1  0  0  0
 38 39  2  0  0  0
 39 40  1  0  0  0
 40 41  2  0  0  0
 39 42  1  0  0  0
 42 43  1  0  0  0
 42 44  1  0  0  0
 42 45  1  0  0  0
  6  7  1  0  0  0
  7  8  2  0  0  0
  8  9  1  0  0  0
  9 10  1  0  0  0
 20 21  1  0  0  0
 21 17  1  0  0  0
 10  1  1  0  0  0
  8  3  1  0  0  0
 41 36  1  0  0  0
 12 15  1  0  0  0
 31 32  1  0  0  0
 10 11  1  0  0  0
M  END
> <minimizedAffinity>
-8.36054

> <CNNscore>
0.2704798579

> <CNNaffinity>
6.0734038353

> <CNN_VS>
1.6427334547

> <CNNaffinity_variance>
0.2423671037

$$$$
[H]c1c(C(=O)N(C([H])([H])[H])C([H])([H])C(C([H])([H])[H])(C([H])([H])[H])C([H])([H])[H])sc(C([H])([H])N([H])C(=O)[C@@]2([H])N([H])C([H])([H])c3c([H])c(N([H])S(=O)(=O)c4c([H])c([H])c(C(C([H])([H])[H])(C([H])([H])[H])C([H])([H])[H])c([H])c4[H])c([H])c([H])c3C2([H])[H])c1[H]


 45 48  0  0  0  0  0  0  0  0999 V2000
   36.7931  -18.8770   34.7986 C   0  0  0  0  0  0  0  0  0  0  0  0
   37.2126  -17.5392   35.3073 C   0  0  0  0  0  0  0  0  0  0  0  0
   36.0481  -16.6473   35.5092 C   0  0  0  0  0  0  0  0  0  0  0  0
   36.3344  -15.3477   35.9374 C   0  0  0  0  0  0  0  0  0  0  0  0
   35.3155  -14.4628   36.1780 C   0  0  0  0  0  0  0  0  0  0  0  0
   34.0165  -14.8626   35.9960 C   0  0  0  0  0  0  0  0  0  0  0  0
   33.7429  -16.1515   35.5702 C   0  0  0  0  0  0  0  0  0  0  0  0
   34.7336  -17.0672   35.3173 C   0  0  0  0  0  0  0  0  0  0  0  0
   34.4755  -18.4442   34.8520 C   0  0  0  0  0  0  0  0  0  0  0  0
   35.5256  -19.2744   35.3399 N   0  0  0  0  0  0  0  0  0  0  0  0
   35.5333  -19.3230   36.3808 H   0  0  0  0  0  0  0  0  0  0  0  0
   38.2240  -20.1492   36.4433 N   0  0  0  0  0  0  0  0  0  0  0  0
   37.7949  -19.9391   35.0988 C   0  0  0  0  0  0  0  0  0  0  0  0
   38.2323  -20.6335   34.1320 O   0  0  0  0  0  0  0  0  0  0  0  0
   37.8244  -19.5456   37.1739 H   0  0  0  0  0  0  0  0  0  0  0  0
   39.1907  -21.2033   36.6622 C   0  0  0  0  0  0  0  0  0  0  0  0
   42.1632  -20.5135   39.3838 C   0  0  0  0  0  0  0  0  0  0  0  0
   41.8023  -19.3664   38.6636 C   0  0  0  0  0  0  0  0  0  0  0  0
   40.8483  -19.5077   37.7493 C   0  0  0  0  0  0  0  0  0  0  0  0
   40.2819  -20.7331   37.5626 C   0  0  0  0  0  0  0  0  0  0  0  0
   41.1245  -21.6791   38.7005 S   0  0  0  0  0  0  0  0  0  0  0  0
   44.0528  -20.9333   42.6809 C   0  0  0  0  0  0  0  0  0  0  0  0
   42.9256  -21.0891   41.7142 N   0  0  0  0  0  0  0  0  0  0  0  0
   43.1414  -20.5617   40.4672 C   0  0  0  0  0  0  0  0  0  0  0  0
   44.3030  -20.0563   40.2270 O   0  0  0  0  0  0  0  0  0  0  0  0
   41.7998  -21.8242   42.1617 C   0  0  0  0  0  0  0  0  0  0  0  0
   40.8506  -21.1037   43.0657 C   0  0  0  0  0  0  0  0  0  0  0  0
   39.6071  -21.9949   43.2250 C   0  0  0  0  0  0  0  0  0  0  0  0
   40.3851  -19.7834   42.3997 C   0  0  0  0  0  0  0  0  0  0  0  0
   41.3367  -20.7265   44.4100 C   0  0  0  0  0  0  0  0  0  0  0  0
   32.9622  -13.9682   36.2930 N   0  0  0  0  0  0  0  0  0  0  0  0
   32.0454  -14.0704   35.7809 H   0  0  0  0  0  0  0  0  0  0  0  0
   33.2004  -12.7221   37.4967 S   0  0  0  0  0  0  0  0  0  0  0  0
   33.9200  -11.5423   36.9465 O   0  0  0  0  0  0  0  0  0  0  0  0
   34.0065  -13.3272   38.6110 O   0  0  0  0  0  0  0  0  0  0  0  0
   31.5736  -12.2978   38.0488 C   0  0  0  0  0  0  0  0  0  0  0  0
   30.8493  -11.3250   37.3924 C   0  0  0  0  0  0  0  0  0  0  0  0
   29.5897  -10.9476   37.8047 C   0  0  0  0  0  0  0  0  0  0  0  0
   28.9885  -11.5413   38.9156 C   0  0  0  0  0  0  0  0  0  0  0  0
   29.7211  -12.5049   39.5522 C   0  0  0  0  0  0  0  0  0  0  0  0
   30.9883  -12.8893   39.1436 C   0  0  0  0  0  0  0  0  0  0  0  0
   27.6556  -11.0883   39.3185 C   0  0  0  0  0  0  0  0  0  0  0  0
   27.1926  -11.5779   40.6443 C   0  0  0  0  0  0  0  0  0  0  0  0
   26.6110  -11.4465   38.2754 C   0  0  0  0  0  0  0  0  0  0  0  0
   27.7111   -9.5644   39.3820 C   0  0  0  0  0  0  0  0  0  0  0  0
 22 23  1  0  0  0
 23 26  1  0  0  0
 26 27  1  0  0  0
 27 28  1  0  0  0
 27 29  1  0  0  0
 27 30  1  0  0  0
 23 24  1  0  0  0
 24 25  2  0  0  0
 24 17  1  0  0  0
 17 18  2  0  0  0
 18 19  1  0  0  0
 19 20  2  0  0  0
 20 16  1  0  0  0
 16 12  1  0  0  0
 12 13  1  0  0  0
 13 14  2  0  0  0
 13  1  1  0  0  0
  1  2  1  0  0  0
  2  3  1  0  0  0
  3  4  2  0  0  0
  4  5  1  0  0  0
  5  6  2  0  0  0
  6 31  1  0  0  0
 31 33  1  0  0  0
 33 34  2  0  0  0
 33 35  2  0  0  0
 33 36  1  0  0  0
 36 37  2  0  0  0
 37 38  1  0  0  0
 38 39  2  0  0  0
 39 40  1  0  0  0
 40 41  2  0  0  0
 39 42  1  0  0  0
 42 43  1  0  0  0
 42 44  1  0  0  0
 42 45  1  0  0  0
  6  7  1  0  0  0
  7  8  2  0  0  0
  8  9  1  0  0  0
  9 10  1  0  0  0
 20 21  1  0  0  0
 21 17  1  0  0  0
 10  1  1  0  0  0
  8  3  1  0  0  0
 41 36  1  0  0  0
 12 15  1  0  0  0
 31 32  1  0  0  0
 10 11  1  0  0  0
M  END
> <minimizedAffinity>
-8.24063

> <CNNscore>
0.2355966121

> <CNNaffinity>
6.1435174942

> <CNN_VS>
1.4473918676

> <CNNaffinity_variance>
0.2162036598

$$$$
[H]c1c(C(=O)N(C([H])([H])[H])C([H])([H])C(C([H])([H])[H])(C([H])([H])[H])C([H])([H])[H])sc(C([H])([H])N([H])C(=O)[C@@]2([H])N([H])C([H])([H])c3c([H])c(N([H])S(=O)(=O)c4c([H])c([H])c(C(C([H])([H])[H])(C([H])([H])[H])C([H])([H])[H])c([H])c4[H])c([H])c([H])c3C2([H])[H])c1[H]


 45 48  0  0  0  0  0  0  0  0999 V2000
   34.5323  -14.1792   36.2885 C   0  0  0  0  0  0  0  0  0  0  0  0
   33.8495  -15.5026   36.3710 C   0  0  0  0  0  0  0  0  0  0  0  0
   34.7164  -16.5914   35.8656 C   0  0  0  0  0  0  0  0  0  0  0  0
   34.1531  -17.8709   35.8510 C   0  0  0  0  0  0  0  0  0  0  0  0
   34.8937  -18.9433   35.4265 C   0  0  0  0  0  0  0  0  0  0  0  0
   36.1886  -18.7510   35.0181 C   0  0  0  0  0  0  0  0  0  0  0  0
   36.7374  -17.4798   35.0349 C   0  0  0  0  0  0  0  0  0  0  0  0
   36.0297  -16.3799   35.4512 C   0  0  0  0  0  0  0  0  0  0  0  0
   36.5818  -15.0110   35.4704 C   0  0  0  0  0  0  0  0  0  0  0  0
   35.9424  -14.2965   36.5242 N   0  0  0  0  0  0  0  0  0  0  0  0
   36.1585  -14.7032   37.4590 H   0  0  0  0  0  0  0  0  0  0  0  0
   33.4294  -11.9589   36.7625 N   0  0  0  0  0  0  0  0  0  0  0  0
   33.9684  -13.1877   37.2479 C   0  0  0  0  0  0  0  0  0  0  0  0
   33.9826  -13.4804   38.4818 O   0  0  0  0  0  0  0  0  0  0  0  0
   33.4536  -11.7924   35.7479 H   0  0  0  0  0  0  0  0  0  0  0  0
   32.8903  -11.0483   37.7493 C   0  0  0  0  0  0  0  0  0  0  0  0
   28.9999  -12.0060   38.5655 C   0  0  0  0  0  0  0  0  0  0  0  0
   29.1302  -11.0973   37.5061 C   0  0  0  0  0  0  0  0  0  0  0  0
   30.3645  -10.7253   37.1834 C   0  0  0  0  0  0  0  0  0  0  0  0
   31.4173  -11.2346   37.8830 C   0  0  0  0  0  0  0  0  0  0  0  0
   30.6291  -12.2451   39.0044 S   0  0  0  0  0  0  0  0  0  0  0  0
   25.5099  -12.6942   39.9669 C   0  0  0  0  0  0  0  0  0  0  0  0
   26.6393  -11.8759   39.4337 N   0  0  0  0  0  0  0  0  0  0  0  0
   27.7444  -12.5839   39.0374 C   0  0  0  0  0  0  0  0  0  0  0  0
   27.6784  -13.8704   39.0910 O   0  0  0  0  0  0  0  0  0  0  0  0
   26.4187  -10.4803   39.3248 C   0  0  0  0  0  0  0  0  0  0  0  0
   26.7868   -9.6531   40.5154 C   0  0  0  0  0  0  0  0  0  0  0  0
   25.4972   -9.4091   41.3175 C   0  0  0  0  0  0  0  0  0  0  0  0
   27.3090   -8.2677   40.0558 C   0  0  0  0  0  0  0  0  0  0  0  0
   27.8177  -10.1884   41.4300 C   0  0  0  0  0  0  0  0  0  0  0  0
   36.9708  -19.8630   34.6290 N   0  0  0  0  0  0  0  0  0  0  0  0
   36.6145  -20.4962   33.8639 H   0  0  0  0  0  0  0  0  0  0  0  0
   38.5027  -20.1598   35.4188 S   0  0  0  0  0  0  0  0  0  0  0  0
   38.4815  -19.7581   36.8508 O   0  0  0  0  0  0  0  0  0  0  0  0
   39.5433  -19.3594   34.6879 O   0  0  0  0  0  0  0  0  0  0  0  0
   38.7896  -21.8958   35.2300 C   0  0  0  0  0  0  0  0  0  0  0  0
   38.1580  -22.7982   36.0597 C   0  0  0  0  0  0  0  0  0  0  0  0
   38.3727  -24.1559   35.9623 C   0  0  0  0  0  0  0  0  0  0  0  0
   39.2475  -24.6792   35.0090 C   0  0  0  0  0  0  0  0  0  0  0  0
   39.8628  -23.7693   34.1943 C   0  0  0  0  0  0  0  0  0  0  0  0
   39.6522  -22.4027   34.2866 C   0  0  0  0  0  0  0  0  0  0  0  0
   39.4502  -26.1287   34.9628 C   0  0  0  0  0  0  0  0  0  0  0  0
   40.8210  -26.5663   34.5870 C   0  0  0  0  0  0  0  0  0  0  0  0
   38.4535  -26.7971   34.0315 C   0  0  0  0  0  0  0  0  0  0  0  0
   39.1650  -26.6563   36.3663 C   0  0  0  0  0  0  0  0  0  0  0  0
 22 23  1  0  0  0
 23 26  1  0  0  0
 26 27  1  0  0  0
 27 28  1  0  0  0
 27 29  1  0  0  0
 27 30  1  0  0  0
 23 24  1  0  0  0
 24 25  2  0  0  0
 24 17  1  0  0  0
 17 18  2  0  0  0
 18 19  1  0  0  0
 19 20  2  0  0  0
 20 16  1  0  0  0
 16 12  1  0  0  0
 12 13  1  0  0  0
 13 14  2  0  0  0
 13  1  1  0  0  0
  1  2  1  0  0  0
  2  3  1  0  0  0
  3  4  2  0  0  0
  4  5  1  0  0  0
  5  6  2  0  0  0
  6 31  1  0  0  0
 31 33  1  0  0  0
 33 34  2  0  0  0
 33 35  2  0  0  0
 33 36  1  0  0  0
 36 37  2  0  0  0
 37 38  1  0  0  0
 38 39  2  0  0  0
 39 40  1  0  0  0
 40 41  2  0  0  0
 39 42  1  0  0  0
 42 43  1  0  0  0
 42 44  1  0  0  0
 42 45  1  0  0  0
  6  7  1  0  0  0
  7  8  2  0  0  0
  8  9  1  0  0  0
  9 10  1  0  0  0
 20 21  1  0  0  0
 21 17  1  0  0  0
 10  1  1  0  0  0
  8  3  1  0  0  0
 41 36  1  0  0  0
 12 15  1  0  0  0
 31 32  1  0  0  0
 10 11  1  0  0  0
M  END
> <minimizedAffinity>
-7.26284

> <CNNscore>
0.2303249389

> <CNNaffinity>
6.2984566689

> <CNN_VS>
1.4506917000

> <CNNaffinity_variance>
0.2305030376

$$$$
[H]c1c(C(=O)N(C([H])([H])[H])C([H])([H])C(C([H])([H])[H])(C([H])([H])[H])C([H])([H])[H])sc(C([H])([H])N([H])C(=O)[C@@]2([H])N([H])C([H])([H])c3c([H])c(N([H])S(=O)(=O)c4c([H])c([H])c(C(C([H])([H])[H])(C([H])([H])[H])C([H])([H])[H])c([H])c4[H])c([H])c([H])c3C2([H])[H])c1[H]


 45 48  0  0  0  0  0  0  0  0999 V2000
   36.3523  -18.3165   35.5929 C   0  0  0  0  0  0  0  0  0  0  0  0
   36.8693  -16.9808   36.0088 C   0  0  0  0  0  0  0  0  0  0  0  0
   35.7914  -15.9659   36.0308 C   0  0  0  0  0  0  0  0  0  0  0  0
   36.1783  -14.6633   36.3595 C   0  0  0  0  0  0  0  0  0  0  0  0
   35.2412  -13.6655   36.4326 C   0  0  0  0  0  0  0  0  0  0  0  0
   33.9246  -13.9554   36.1818 C   0  0  0  0  0  0  0  0  0  0  0  0
   33.5513  -15.2484   35.8557 C   0  0  0  0  0  0  0  0  0  0  0  0
   34.4581  -16.2753   35.7708 C   0  0  0  0  0  0  0  0  0  0  0  0
   34.0940  -17.6609   35.4148 C   0  0  0  0  0  0  0  0  0  0  0  0
   35.0145  -18.5347   36.0621 N   0  0  0  0  0  0  0  0  0  0  0  0
   34.9414  -18.4794   37.1002 H   0  0  0  0  0  0  0  0  0  0  0  0
   37.6330  -20.4476   35.1581 N   0  0  0  0  0  0  0  0  0  0  0  0
   37.2147  -19.4340   36.0713 C   0  0  0  0  0  0  0  0  0  0  0  0
   37.5565  -19.4400   37.2925 O   0  0  0  0  0  0  0  0  0  0  0  0
   37.3147  -20.3751   34.1828 H   0  0  0  0  0  0  0  0  0  0  0  0
   38.4766  -21.4962   35.6893 C   0  0  0  0  0  0  0  0  0  0  0  0
   42.5202  -21.0206   35.3133 C   0  0  0  0  0  0  0  0  0  0  0  0
   41.8093  -20.5788   34.1889 C   0  0  0  0  0  0  0  0  0  0  0  0
   40.4872  -20.7082   34.2262 C   0  0  0  0  0  0  0  0  0  0  0  0
   39.9028  -21.2516   35.3310 C   0  0  0  0  0  0  0  0  0  0  0  0
   41.2563  -21.5772   36.3118 S   0  0  0  0  0  0  0  0  0  0  0  0
   46.1162  -19.9276   36.0148 C   0  0  0  0  0  0  0  0  0  0  0  0
   44.6262  -19.8313   36.0160 N   0  0  0  0  0  0  0  0  0  0  0  0
   43.9651  -20.9151   35.4983 C   0  0  0  0  0  0  0  0  0  0  0  0
   44.6751  -21.9280   35.1346 O   0  0  0  0  0  0  0  0  0  0  0  0
   44.0630  -18.6774   36.6155 C   0  0  0  0  0  0  0  0  0  0  0  0
   44.0709  -17.4283   35.7927 C   0  0  0  0  0  0  0  0  0  0  0  0
   45.3922  -16.6974   36.0859 C   0  0  0  0  0  0  0  0  0  0  0  0
   42.9202  -16.4917   36.2421 C   0  0  0  0  0  0  0  0  0  0  0  0
   43.9249  -17.5709   34.3284 C   0  0  0  0  0  0  0  0  0  0  0  0
   32.9493  -12.9391   36.3071 N   0  0  0  0  0  0  0  0  0  0  0  0
   32.2965  -12.7546   35.4990 H   0  0  0  0  0  0  0  0  0  0  0  0
   32.8473  -12.0187   37.7906 S   0  0  0  0  0  0  0  0  0  0  0  0
   33.4409  -10.6621   37.6499 O   0  0  0  0  0  0  0  0  0  0  0  0
   33.5942  -12.7870   38.8439 O   0  0  0  0  0  0  0  0  0  0  0  0
   31.1199  -11.9416   38.1670 C   0  0  0  0  0  0  0  0  0  0  0  0
   30.5868  -12.7490   39.1497 C   0  0  0  0  0  0  0  0  0  0  0  0
   29.2434  -12.7378   39.4566 C   0  0  0  0  0  0  0  0  0  0  0  0
   28.3576  -11.8992   38.7784 C   0  0  0  0  0  0  0  0  0  0  0  0
   28.9049  -11.1048   37.8090 C   0  0  0  0  0  0  0  0  0  0  0  0
   30.2546  -11.1109   37.4946 C   0  0  0  0  0  0  0  0  0  0  0  0
   26.9379  -11.9421   39.1348 C   0  0  0  0  0  0  0  0  0  0  0  0
   26.1980  -10.6654   38.9488 C   0  0  0  0  0  0  0  0  0  0  0  0
   26.7407  -12.4151   40.5647 C   0  0  0  0  0  0  0  0  0  0  0  0
   26.2905  -12.9877   38.2309 C   0  0  0  0  0  0  0  0  0  0  0  0
 22 23  1  0  0  0
 23 26  1  0  0  0
 26 27  1  0  0  0
 27 28  1  0  0  0
 27 29  1  0  0  0
 27 30  1  0  0  0
 23 24  1  0  0  0
 24 25  2  0  0  0
 24 17  1  0  0  0
 17 18  2  0  0  0
 18 19  1  0  0  0
 19 20  2  0  0  0
 20 16  1  0  0  0
 16 12  1  0  0  0
 12 13  1  0  0  0
 13 14  2  0  0  0
 13  1  1  0  0  0
  1  2  1  0  0  0
  2  3  1  0  0  0
  3  4  2  0  0  0
  4  5  1  0  0  0
  5  6  2  0  0  0
  6 31  1  0  0  0
 31 33  1  0  0  0
 33 34  2  0  0  0
 33 35  2  0  0  0
 33 36  1  0  0  0
 36 37  2  0  0  0
 37 38  1  0  0  0
 38 39  2  0  0  0
 39 40  1  0  0  0
 40 41  2  0  0  0
 39 42  1  0  0  0
 42 43  1  0  0  0
 42 44  1  0  0  0
 42 45  1  0  0  0
  6  7  1  0  0  0
  7  8  2  0  0  0
  8  9  1  0  0  0
  9 10  1  0  0  0
 20 21  1  0  0  0
 21 17  1  0  0  0
 10  1  1  0  0  0
  8  3  1  0  0  0
 41 36  1  0  0  0
 12 15  1  0  0  0
 31 32  1  0  0  0
 10 11  1  0  0  0
M  END
> <minimizedAffinity>
-8.83730

> <CNNscore>
0.1984709501

> <CNNaffinity>
6.1862649918

> <CNN_VS>
1.2277939320

> <CNNaffinity_variance>
0.1885438263

$$$$
[H]c1c(C(=O)N(C([H])([H])[H])C([H])([H])C(C([H])([H])[H])(C([H])([H])[H])C([H])([H])[H])sc(C([H])([H])N([H])C(=O)[C@@]2([H])N([H])C([H])([H])c3c([H])c(N([H])S(=O)(=O)c4c([H])c([H])c(C(C([H])([H])[H])(C([H])([H])[H])C([H])([H])[H])c([H])c4[H])c([H])c([H])c3C2([H])[H])c1[H]


 45 48  0  0  0  0  0  0  0  0999 V2000
   36.8282  -18.7392   34.9833 C   0  0  0  0  0  0  0  0  0  0  0  0
   37.2265  -17.3600   35.3878 C   0  0  0  0  0  0  0  0  0  0  0  0
   36.0443  -16.4892   35.5785 C   0  0  0  0  0  0  0  0  0  0  0  0
   36.3076  -15.1569   35.9107 C   0  0  0  0  0  0  0  0  0  0  0  0
   35.2726  -14.2866   36.1346 C   0  0  0  0  0  0  0  0  0  0  0  0
   33.9801  -14.7330   36.0308 C   0  0  0  0  0  0  0  0  0  0  0  0
   33.7292  -16.0540   35.7000 C   0  0  0  0  0  0  0  0  0  0  0  0
   34.7366  -16.9566   35.4668 C   0  0  0  0  0  0  0  0  0  0  0  0
   34.5024  -18.3676   35.1015 C   0  0  0  0  0  0  0  0  0  0  0  0
   35.5948  -19.1351   35.5992 N   0  0  0  0  0  0  0  0  0  0  0  0
   35.6437  -19.1153   36.6400 H   0  0  0  0  0  0  0  0  0  0  0  0
   38.8660  -19.4535   36.2901 N   0  0  0  0  0  0  0  0  0  0  0  0
   37.8722  -19.7514   35.3105 C   0  0  0  0  0  0  0  0  0  0  0  0
   37.8345  -20.8624   34.7003 O   0  0  0  0  0  0  0  0  0  0  0  0
   38.8318  -18.5304   36.7424 H   0  0  0  0  0  0  0  0  0  0  0  0
   39.8418  -20.4861   36.5641 C   0  0  0  0  0  0  0  0  0  0  0  0
   38.7667  -22.8384   39.7311 C   0  0  0  0  0  0  0  0  0  0  0  0
   39.2368  -21.5764   40.1201 C   0  0  0  0  0  0  0  0  0  0  0  0
   39.6177  -20.7528   39.1493 C   0  0  0  0  0  0  0  0  0  0  0  0
   39.5337  -21.1675   37.8538 C   0  0  0  0  0  0  0  0  0  0  0  0
   38.9097  -22.7414   38.0356 S   0  0  0  0  0  0  0  0  0  0  0  0
   36.6591  -25.1032   41.9774 C   0  0  0  0  0  0  0  0  0  0  0  0
   36.9284  -24.0449   40.9593 N   0  0  0  0  0  0  0  0  0  0  0  0
   38.2474  -23.8644   40.6314 C   0  0  0  0  0  0  0  0  0  0  0  0
   39.1086  -24.6607   41.1667 O   0  0  0  0  0  0  0  0  0  0  0  0
   35.7987  -23.4035   40.3931 C   0  0  0  0  0  0  0  0  0  0  0  0
   35.3963  -22.0999   41.0063 C   0  0  0  0  0  0  0  0  0  0  0  0
   33.8998  -22.1993   41.3481 C   0  0  0  0  0  0  0  0  0  0  0  0
   35.5543  -20.9571   39.9706 C   0  0  0  0  0  0  0  0  0  0  0  0
   36.1274  -21.6544   42.2116 C   0  0  0  0  0  0  0  0  0  0  0  0
   32.9115  -13.8503   36.3118 N   0  0  0  0  0  0  0  0  0  0  0  0
   32.0162  -13.9396   35.7608 H   0  0  0  0  0  0  0  0  0  0  0  0
   33.0971  -12.6399   37.5604 S   0  0  0  0  0  0  0  0  0  0  0  0
   33.8108  -11.4316   37.0673 O   0  0  0  0  0  0  0  0  0  0  0  0
   33.8839  -13.2676   38.6760 O   0  0  0  0  0  0  0  0  0  0  0  0
   31.4494  -12.2598   38.0820 C   0  0  0  0  0  0  0  0  0  0  0  0
   30.7187  -11.2926   37.4245 C   0  0  0  0  0  0  0  0  0  0  0  0
   29.4423  -10.9491   37.8141 C   0  0  0  0  0  0  0  0  0  0  0  0
   28.8297  -11.5734   38.9017 C   0  0  0  0  0  0  0  0  0  0  0  0
   29.5689  -12.5309   39.5398 C   0  0  0  0  0  0  0  0  0  0  0  0
   30.8531  -12.8812   39.1540 C   0  0  0  0  0  0  0  0  0  0  0  0
   27.4785  -11.1558   39.2813 C   0  0  0  0  0  0  0  0  0  0  0  0
   26.9935  -11.6837   40.5844 C   0  0  0  0  0  0  0  0  0  0  0  0
   26.4670  -11.5113   38.2053 C   0  0  0  0  0  0  0  0  0  0  0  0
   27.5015   -9.6329   39.3793 C   0  0  0  0  0  0  0  0  0  0  0  0
 22 23  1  0  0  0
 23 26  1  0  0  0
 26 27  1  0  0  0
 27 28  1  0  0  0
 27 29  1  0  0  0
 27 30  1  0  0  0
 23 24  1  0  0  0
 24 25  2  0  0  0
 24 17  1  0  0  0
 17 18  2  0  0  0
 18 19  1  0  0  0
 19 20  2  0  0  0
 20 16  1  0  0  0
 16 12  1  0  0  0
 12 13  1  0  0  0
 13 14  2  0  0  0
 13  1  1  0  0  0
  1  2  1  0  0  0
  2  3  1  0  0  0
  3  4  2  0  0  0
  4  5  1  0  0  0
  5  6  2  0  0  0
  6 31  1  0  0  0
 31 33  1  0  0  0
 33 34  2  0  0  0
 33 35  2  0  0  0
 33 36  1  0  0  0
 36 37  2  0  0  0
 37 38  1  0  0  0
 38 39  2  0  0  0
 39 40  1  0  0  0
 40 41  2  0  0  0
 39 42  1  0  0  0
 42 43  1  0  0  0
 42 44  1  0  0  0
 42 45  1  0  0  0
  6  7  1  0  0  0
  7  8  2  0  0  0
  8  9  1  0  0  0
  9 10  1  0  0  0
 20 21  1  0  0  0
 21 17  1  0  0  0
 10  1  1  0  0  0
  8  3  1  0  0  0
 41 36  1  0  0  0
 12 15  1  0  0  0
 31 32  1  0  0  0
 10 11  1  0  0  0
M  END
> <minimizedAffinity>
-7.38393

> <CNNscore>
0.1956107765

> <CNNaffinity>
6.2860040665

> <CNN_VS>
1.2296100855

> <CNNaffinity_variance>
0.1432278454

$$$$
[H]c1c(C(=O)N(C([H])([H])[H])C([H])([H])C(C([H])([H])[H])(C([H])([H])[H])C([H])([H])[H])sc(C([H])([H])N([H])C(=O)[C@@]2([H])N([H])C([H])([H])c3c([H])c(N([H])S(=O)(=O)c4c([H])c([H])c(C(C([H])([H])[H])(C([H])([H])[H])C([H])([H])[H])c([H])c4[H])c([H])c([H])c3C2([H])[H])c1[H]


 45 48  0  0  0  0  0  0  0  0999 V2000
   36.7811  -17.6215   35.9216 C   0  0  0  0  0  0  0  0  0  0  0  0
   37.0951  -16.2385   36.3832 C   0  0  0  0  0  0  0  0  0  0  0  0
   35.9004  -15.3656   36.3298 C   0  0  0  0  0  0  0  0  0  0  0  0
   36.0962  -14.0302   36.6944 C   0  0  0  0  0  0  0  0  0  0  0  0
   35.0392  -13.1576   36.7025 C   0  0  0  0  0  0  0  0  0  0  0  0
   33.7912  -13.6047   36.3514 C   0  0  0  0  0  0  0  0  0  0  0  0
   33.6074  -14.9288   35.9904 C   0  0  0  0  0  0  0  0  0  0  0  0
   34.6390  -15.8339   35.9682 C   0  0  0  0  0  0  0  0  0  0  0  0
   34.4780  -17.2484   35.5776 C   0  0  0  0  0  0  0  0  0  0  0  0
   35.4499  -18.0111   36.2874 N   0  0  0  0  0  0  0  0  0  0  0  0
   35.2937  -17.9811   37.3173 H   0  0  0  0  0  0  0  0  0  0  0  0
   39.1252  -18.5324   36.1361 N   0  0  0  0  0  0  0  0  0  0  0  0
   37.7384  -18.6307   36.4571 C   0  0  0  0  0  0  0  0  0  0  0  0
   37.2782  -19.5523   37.1967 O   0  0  0  0  0  0  0  0  0  0  0  0
   39.4231  -17.7570   35.5296 H   0  0  0  0  0  0  0  0  0  0  0  0
   39.9978  -19.5404   36.6983 C   0  0  0  0  0  0  0  0  0  0  0  0
   40.9518  -22.8317   34.4676 C   0  0  0  0  0  0  0  0  0  0  0  0
   40.5305  -21.7449   33.6889 C   0  0  0  0  0  0  0  0  0  0  0  0
   40.1910  -20.6369   34.3393 C   0  0  0  0  0  0  0  0  0  0  0  0
   40.2679  -20.6139   35.6998 C   0  0  0  0  0  0  0  0  0  0  0  0
   40.8259  -22.1864   36.0399 S   0  0  0  0  0  0  0  0  0  0  0  0
   42.8738  -25.7263   32.8724 C   0  0  0  0  0  0  0  0  0  0  0  0
   42.6649  -24.3547   33.4241 N   0  0  0  0  0  0  0  0  0  0  0  0
   41.4220  -24.1139   33.9501 C   0  0  0  0  0  0  0  0  0  0  0  0
   40.5897  -25.0980   33.9866 O   0  0  0  0  0  0  0  0  0  0  0  0
   43.7850  -23.4867   33.4139 C   0  0  0  0  0  0  0  0  0  0  0  0
   44.6303  -23.4759   34.6478 C   0  0  0  0  0  0  0  0  0  0  0  0
   44.4996  -22.0789   35.2781 C   0  0  0  0  0  0  0  0  0  0  0  0
   46.1212  -23.6696   34.2693 C   0  0  0  0  0  0  0  0  0  0  0  0
   44.3435  -24.4904   35.6843 C   0  0  0  0  0  0  0  0  0  0  0  0
   32.6902  -12.7191   36.4087 N   0  0  0  0  0  0  0  0  0  0  0  0
   32.0176  -12.6863   35.5964 H   0  0  0  0  0  0  0  0  0  0  0  0
   32.4690  -11.7067   37.8174 S   0  0  0  0  0  0  0  0  0  0  0  0
   32.9009  -10.3046   37.5728 O   0  0  0  0  0  0  0  0  0  0  0  0
   33.2921  -12.2996   38.9259 O   0  0  0  0  0  0  0  0  0  0  0  0
   30.7415  -11.8044   38.1883 C   0  0  0  0  0  0  0  0  0  0  0  0
   29.8603  -10.8993   37.6350 C   0  0  0  0  0  0  0  0  0  0  0  0
   28.5117  -10.9251   37.9172 C   0  0  0  0  0  0  0  0  0  0  0  0
   27.9763  -11.8793   38.7837 C   0  0  0  0  0  0  0  0  0  0  0  0
   28.8650  -12.7692   39.3210 C   0  0  0  0  0  0  0  0  0  0  0  0
   30.2224  -12.7491   39.0422 C   0  0  0  0  0  0  0  0  0  0  0  0
   26.5387  -11.8483   39.0606 C   0  0  0  0  0  0  0  0  0  0  0  0
   25.7521  -12.9569   38.4572 C   0  0  0  0  0  0  0  0  0  0  0  0
   25.9221  -10.5266   38.6358 C   0  0  0  0  0  0  0  0  0  0  0  0
   26.3820  -11.9415   40.5759 C   0  0  0  0  0  0  0  0  0  0  0  0
 22 23  1  0  0  0
 23 26  1  0  0  0
 26 27  1  0  0  0
 27 28  1  0  0  0
 27 29  1  0  0  0
 27 30  1  0  0  0
 23 24  1  0  0  0
 24 25  2  0  0  0
 24 17  1  0  0  0
 17 18  2  0  0  0
 18 19  1  0  0  0
 19 20  2  0  0  0
 20 16  1  0  0  0
 16 12  1  0  0  0
 12 13  1  0  0  0
 13 14  2  0  0  0
 13  1  1  0  0  0
  1  2  1  0  0  0
  2  3  1  0  0  0
  3  4  2  0  0  0
  4  5  1  0  0  0
  5  6  2  0  0  0
  6 31  1  0  0  0
 31 33  1  0  0  0
 33 34  2  0  0  0
 33 35  2  0  0  0
 33 36  1  0  0  0
 36 37  2  0  0  0
 37 38  1  0  0  0
 38 39  2  0  0  0
 39 40  1  0  0  0
 40 41  2  0  0  0
 39 42  1  0  0  0
 42 43  1  0  0  0
 42 44  1  0  0  0
 42 45  1  0  0  0
  6  7  1  0  0  0
  7  8  2  0  0  0
  8  9  1  0  0  0
  9 10  1  0  0  0
 20 21  1  0  0  0
 21 17  1  0  0  0
 10  1  1  0  0  0
  8  3  1  0  0  0
 41 36  1  0  0  0
 12 15  1  0  0  0
 31 32  1  0  0  0
 10 11  1  0  0  0
M  END
> <minimizedAffinity>
-7.90547

> <CNNscore>
0.1948883533

> <CNNaffinity>
6.0033044815

> <CNN_VS>
1.1699740887

> <CNNaffinity_variance>
0.2405379266

$$$$
[H]c1c(C(=O)N(C([H])([H])[H])C([H])([H])C(C([H])([H])[H])(C([H])([H])[H])C([H])([H])[H])sc(C([H])([H])N([H])C(=O)[C@@]2([H])N([H])C([H])([H])c3c([H])c(N([H])S(=O)(=O)c4c([H])c([H])c(C(C([H])([H])[H])(C([H])([H])[H])C([H])([H])[H])c([H])c4[H])c([H])c([H])c3C2([H])[H])c1[H]


 45 48  0  0  0  0  0  0  0  0999 V2000
   36.5795  -17.6939   35.8780 C   0  0  0  0  0  0  0  0  0  0  0  0
   37.0018  -18.8405   36.7331 C   0  0  0  0  0  0  0  0  0  0  0  0
   37.6890  -19.8840   35.9386 C   0  0  0  0  0  0  0  0  0  0  0  0
   38.0830  -21.0298   36.6360 C   0  0  0  0  0  0  0  0  0  0  0  0
   38.7517  -22.0344   35.9860 C   0  0  0  0  0  0  0  0  0  0  0  0
   39.0306  -21.9060   34.6495 C   0  0  0  0  0  0  0  0  0  0  0  0
   38.6350  -20.7680   33.9669 C   0  0  0  0  0  0  0  0  0  0  0  0
   37.9628  -19.7403   34.5801 C   0  0  0  0  0  0  0  0  0  0  0  0
   37.5179  -18.5200   33.8784 C   0  0  0  0  0  0  0  0  0  0  0  0
   37.5167  -17.4505   34.8198 N   0  0  0  0  0  0  0  0  0  0  0  0
   38.4741  -17.2414   35.1744 H   0  0  0  0  0  0  0  0  0  0  0  0
   36.4853  -15.1745   35.9986 N   0  0  0  0  0  0  0  0  0  0  0  0
   36.4038  -16.4367   36.6592 C   0  0  0  0  0  0  0  0  0  0  0  0
   36.1779  -16.5366   37.9030 O   0  0  0  0  0  0  0  0  0  0  0  0
   36.6719  -15.1739   34.9872 H   0  0  0  0  0  0  0  0  0  0  0  0
   36.2952  -13.9966   36.8171 C   0  0  0  0  0  0  0  0  0  0  0  0
   32.4657  -12.7183   37.4649 C   0  0  0  0  0  0  0  0  0  0  0  0
   32.6420  -13.3047   36.2040 C   0  0  0  0  0  0  0  0  0  0  0  0
   33.8633  -13.7381   35.9096 C   0  0  0  0  0  0  0  0  0  0  0  0
   34.8599  -13.5936   36.8279 C   0  0  0  0  0  0  0  0  0  0  0  0
   34.0386  -12.8329   38.1110 S   0  0  0  0  0  0  0  0  0  0  0  0
   29.3429  -10.7353   38.4313 C   0  0  0  0  0  0  0  0  0  0  0  0
   30.5871  -11.0532   37.6696 N   0  0  0  0  0  0  0  0  0  0  0  0
   31.1982  -12.2338   38.0050 C   0  0  0  0  0  0  0  0  0  0  0  0
   30.6124  -12.9809   38.8774 O   0  0  0  0  0  0  0  0  0  0  0  0
   30.9534  -10.1488   36.6419 C   0  0  0  0  0  0  0  0  0  0  0  0
   31.8193   -8.9978   37.0453 C   0  0  0  0  0  0  0  0  0  0  0  0
   31.0213   -8.1600   38.0588 C   0  0  0  0  0  0  0  0  0  0  0  0
   32.0976   -8.0904   35.8196 C   0  0  0  0  0  0  0  0  0  0  0  0
   33.1433   -9.3065   37.6262 C   0  0  0  0  0  0  0  0  0  0  0  0
   39.7654  -22.9176   33.9889 N   0  0  0  0  0  0  0  0  0  0  0  0
   39.3057  -23.4546   33.2056 H   0  0  0  0  0  0  0  0  0  0  0  0
   41.4099  -23.2514   34.4811 S   0  0  0  0  0  0  0  0  0  0  0  0
   42.2349  -23.7749   33.3596 O   0  0  0  0  0  0  0  0  0  0  0  0
   41.3473  -24.2753   35.5790 O   0  0  0  0  0  0  0  0  0  0  0  0
   42.0315  -21.7093   35.0869 C   0  0  0  0  0  0  0  0  0  0  0  0
   42.3096  -21.5516   36.4285 C   0  0  0  0  0  0  0  0  0  0  0  0
   42.7712  -20.3603   36.9447 C   0  0  0  0  0  0  0  0  0  0  0  0
   42.9791  -19.2523   36.1219 C   0  0  0  0  0  0  0  0  0  0  0  0
   42.6997  -19.4283   34.7948 C   0  0  0  0  0  0  0  0  0  0  0  0
   42.2348  -20.6231   34.2685 C   0  0  0  0  0  0  0  0  0  0  0  0
   43.4543  -18.0069   36.7281 C   0  0  0  0  0  0  0  0  0  0  0  0
   43.4551  -17.9847   38.2152 C   0  0  0  0  0  0  0  0  0  0  0  0
   42.6659  -16.8104   36.2239 C   0  0  0  0  0  0  0  0  0  0  0  0
   44.8948  -17.8142   36.2620 C   0  0  0  0  0  0  0  0  0  0  0  0
 22 23  1  0  0  0
 23 26  1  0  0  0
 26 27  1  0  0  0
 27 28  1  0  0  0
 27 29  1  0  0  0
 27 30  1  0  0  0
 23 24  1  0  0  0
 24 25  2  0  0  0
 24 17  1  0  0  0
 17 18  2  0  0  0
 18 19  1  0  0  0
 19 20  2  0  0  0
 20 16  1  0  0  0
 16 12  1  0  0  0
 12 13  1  0  0  0
 13 14  2  0  0  0
 13  1  1  0  0  0
  1  2  1  0  0  0
  2  3  1  0  0  0
  3  4  2  0  0  0
  4  5  1  0  0  0
  5  6  2  0  0  0
  6 31  1  0  0  0
 31 33  1  0  0  0
 33 34  2  0  0  0
 33 35  2  0  0  0
 33 36  1  0  0  0
 36 37  2  0  0  0
 37 38  1  0  0  0
 38 39  2  0  0  0
 39 40  1  0  0  0
 40 41  2  0  0  0
 39 42  1  0  0  0
 42 43  1  0  0  0
 42 44  1  0  0  0
 42 45  1  0  0  0
  6  7  1  0  0  0
  7  8  2  0  0  0
  8  9  1  0  0  0
  9 10  1  0  0  0
 20 21  1  0  0  0
 21 17  1  0  0  0
 10  1  1  0  0  0
  8  3  1  0  0  0
 41 36  1  0  0  0
 12 15  1  0  0  0
 31 32  1  0  0  0
 10 11  1  0  0  0
M  END
> <minimizedAffinity>
-6.64861

> <CNNscore>
0.1870825291

> <CNNaffinity>
6.4045028687

> <CNN_VS>
1.1981705427

> <CNNaffinity_variance>
0.2270402163

$$$$
[H]c1c(C(=O)N(C([H])([H])[H])C([H])([H])C(C([H])([H])[H])(C([H])([H])[H])C([H])([H])[H])sc(C([H])([H])N([H])C(=O)[C@@]2([H])N([H])C([H])([H])c3c([H])c(N([H])S(=O)(=O)c4c([H])c([H])c(C(C([H])([H])[H])(C([H])([H])[H])C([H])([H])[H])c([H])c4[H])c([H])c([H])c3C2([H])[H])c1[H]


 45 48  0  0  0  0  0  0  0  0999 V2000
   36.1949  -18.2765   35.1400 C   0  0  0  0  0  0  0  0  0  0  0  0
   36.7309  -16.9500   35.5612 C   0  0  0  0  0  0  0  0  0  0  0  0
   35.6490  -15.9490   35.7021 C   0  0  0  0  0  0  0  0  0  0  0  0
   36.0487  -14.6540   36.0452 C   0  0  0  0  0  0  0  0  0  0  0  0
   35.1115  -13.6702   36.2255 C   0  0  0  0  0  0  0  0  0  0  0  0
   33.7819  -13.9665   36.0673 C   0  0  0  0  0  0  0  0  0  0  0  0
   33.3958  -15.2517   35.7260 C   0  0  0  0  0  0  0  0  0  0  0  0
   34.3023  -16.2646   35.5353 C   0  0  0  0  0  0  0  0  0  0  0  0
   33.9238  -17.6413   35.1603 C   0  0  0  0  0  0  0  0  0  0  0  0
   34.8996  -18.5261   35.7034 N   0  0  0  0  0  0  0  0  0  0  0  0
   34.9069  -18.5072   36.7454 H   0  0  0  0  0  0  0  0  0  0  0  0
   38.2851  -19.6364   34.7494 N   0  0  0  0  0  0  0  0  0  0  0  0
   37.1017  -19.3998   35.5108 C   0  0  0  0  0  0  0  0  0  0  0  0
   36.7861  -20.1128   36.5109 O   0  0  0  0  0  0  0  0  0  0  0  0
   38.4737  -19.0157   33.9513 H   0  0  0  0  0  0  0  0  0  0  0  0
   39.1233  -20.7375   35.1721 C   0  0  0  0  0  0  0  0  0  0  0  0
   42.4264  -20.0001   37.4665 C   0  0  0  0  0  0  0  0  0  0  0  0
   41.6231  -18.8663   37.2816 C   0  0  0  0  0  0  0  0  0  0  0  0
   40.5329  -19.0187   36.5371 C   0  0  0  0  0  0  0  0  0  0  0  0
   40.2573  -20.2420   36.0033 C   0  0  0  0  0  0  0  0  0  0  0  0
   41.5679  -21.1689   36.5714 S   0  0  0  0  0  0  0  0  0  0  0  0
   45.0330  -20.4889   40.2205 C   0  0  0  0  0  0  0  0  0  0  0  0
   43.7160  -20.6394   39.5333 N   0  0  0  0  0  0  0  0  0  0  0  0
   43.6289  -20.0616   38.2930 C   0  0  0  0  0  0  0  0  0  0  0  0
   44.6948  -19.5174   37.8132 O   0  0  0  0  0  0  0  0  0  0  0  0
   42.7368  -21.4197   40.1969 C   0  0  0  0  0  0  0  0  0  0  0  0
   41.7293  -20.6720   41.0112 C   0  0  0  0  0  0  0  0  0  0  0  0
   41.6438  -21.3666   42.3810 C   0  0  0  0  0  0  0  0  0  0  0  0
   40.3299  -20.7833   40.3534 C   0  0  0  0  0  0  0  0  0  0  0  0
   41.9583  -19.2275   41.2277 C   0  0  0  0  0  0  0  0  0  0  0  0
   32.8104  -12.9663   36.3032 N   0  0  0  0  0  0  0  0  0  0  0  0
   32.1148  -12.7398   35.5429 H   0  0  0  0  0  0  0  0  0  0  0  0
   32.7834  -12.1347   37.8414 S   0  0  0  0  0  0  0  0  0  0  0  0
   33.5327  -10.8505   37.7970 O   0  0  0  0  0  0  0  0  0  0  0  0
   33.4136  -13.0491   38.8534 O   0  0  0  0  0  0  0  0  0  0  0  0
   31.0688  -11.8802   38.1975 C   0  0  0  0  0  0  0  0  0  0  0  0
   30.4421  -12.6330   39.1683 C   0  0  0  0  0  0  0  0  0  0  0  0
   29.1035  -12.4836   39.4591 C   0  0  0  0  0  0  0  0  0  0  0  0
   28.3183  -11.5538   38.7758 C   0  0  0  0  0  0  0  0  0  0  0  0
   28.9575  -10.8155   37.8183 C   0  0  0  0  0  0  0  0  0  0  0  0
   30.3031  -10.9605   37.5201 C   0  0  0  0  0  0  0  0  0  0  0  0
   26.8975  -11.4506   39.1147 C   0  0  0  0  0  0  0  0  0  0  0  0
   25.9609  -11.9987   38.0977 C   0  0  0  0  0  0  0  0  0  0  0  0
   26.5035  -10.0147   39.4155 C   0  0  0  0  0  0  0  0  0  0  0  0
   26.6955  -12.2426   40.4036 C   0  0  0  0  0  0  0  0  0  0  0  0
 22 23  1  0  0  0
 23 26  1  0  0  0
 26 27  1  0  0  0
 27 28  1  0  0  0
 27 29  1  0  0  0
 27 30  1  0  0  0
 23 24  1  0  0  0
 24 25  2  0  0  0
 24 17  1  0  0  0
 17 18  2  0  0  0
 18 19  1  0  0  0
 19 20  2  0  0  0
 20 16  1  0  0  0
 16 12  1  0  0  0
 12 13  1  0  0  0
 13 14  2  0  0  0
 13  1  1  0  0  0
  1  2  1  0  0  0
  2  3  1  0  0  0
  3  4  2  0  0  0
  4  5  1  0  0  0
  5  6  2  0  0  0
  6 31  1  0  0  0
 31 33  1  0  0  0
 33 34  2  0  0  0
 33 35  2  0  0  0
 33 36  1  0  0  0
 36 37  2  0  0  0
 37 38  1  0  0  0
 38 39  2  0  0  0
 39 40  1  0  0  0
 40 41  2  0  0  0
 39 42  1  0  0  0
 42 43  1  0  0  0
 42 44  1  0  0  0
 42 45  1  0  0  0
  6  7  1  0  0  0
  7  8  2  0  0  0
  8  9  1  0  0  0
  9 10  1  0  0  0
 20 21  1  0  0  0
 21 17  1  0  0  0
 10  1  1  0  0  0
  8  3  1  0  0  0
 41 36  1  0  0  0
 12 15  1  0  0  0
 31 32  1  0  0  0
 10 11  1  0  0  0
M  END
> <minimizedAffinity>
-8.78608

> <CNNscore>
0.1856742054

> <CNNaffinity>
6.0505719185

> <CNN_VS>
1.1234351397

> <CNNaffinity_variance>
0.3932679296

$$$$
[H]N=C(N([H])[H])N([H])C([H])([H])C([H])([H])C([H])([H])[C@@]1([H])C(=O)N([H])[C@@]([H])(C([H])([H])C([H])([H])C(=O)O[H])C(=O)N([H])[C@]([H])(C([H])([H])c2c([H])c([H])c(O[H])c([H])c2[H])C(=O)N2C([H])([H])C([H])([H])C([H])([H])[C@@]2([H])C(=O)N([H])[C@@]([H])(C([H])([H])c2c([H])c([H])c(O[H])c([H])c2[H])C(=O)N1[H]


 62 65  0  0  0  0  0  0  0  0999 V2000
   35.0773  -20.2746   36.7177 C   0  0  0  0  0  0  0  0  0  0  0  0
   33.7999  -20.3831   37.3127 N   0  0  0  0  0  0  0  0  0  0  0  0
   33.1324  -21.6841   37.2993 C   0  0  0  0  0  0  0  0  0  0  0  0
   32.2547  -21.8544   38.2138 O   0  0  0  0  0  0  0  0  0  0  0  0
   33.4112  -22.7428   36.3360 C   0  0  0  0  0  0  0  0  0  0  0  0
   33.4964  -24.0764   36.8803 N   0  0  0  0  0  0  0  0  0  0  0  0
   34.5514  -24.8296   37.4073 C   0  0  0  0  0  0  0  0  0  0  0  0
   34.8765  -25.8838   36.7302 O   0  0  0  0  0  0  0  0  0  0  0  0
   35.3670  -24.6842   38.5703 C   0  0  0  0  0  0  0  0  0  0  0  0
   35.2245  -23.4559   39.4168 C   0  0  0  0  0  0  0  0  0  0  0  0
   36.1542  -23.8768   40.5665 C   0  0  0  0  0  0  0  0  0  0  0  0
   36.9580  -25.0390   40.0349 C   0  0  0  0  0  0  0  0  0  0  0  0
   36.7700  -24.8537   38.5608 N   0  0  0  0  0  0  0  0  0  0  0  0
   37.7902  -24.8754   37.6040 C   0  0  0  0  0  0  0  0  0  0  0  0
   38.6005  -25.8839   37.8784 O   0  0  0  0  0  0  0  0  0  0  0  0
   38.2224  -24.1641   36.4528 C   0  0  0  0  0  0  0  0  0  0  0  0
   37.8610  -22.8244   36.1253 N   0  0  0  0  0  0  0  0  0  0  0  0
   38.2831  -21.5286   36.2284 C   0  0  0  0  0  0  0  0  0  0  0  0
   38.5929  -20.9093   35.1308 O   0  0  0  0  0  0  0  0  0  0  0  0
   38.4872  -20.5908   37.3716 C   0  0  0  0  0  0  0  0  0  0  0  0
   37.4721  -19.5804   37.5017 N   0  0  0  0  0  0  0  0  0  0  0  0
   36.0870  -19.6483   37.6767 C   0  0  0  0  0  0  0  0  0  0  0  0
   35.5212  -19.1574   38.7196 O   0  0  0  0  0  0  0  0  0  0  0  0
   33.3299  -19.5800   37.7682 H   0  0  0  0  0  0  0  0  0  0  0  0
   32.5156  -24.5494   36.8529 H   0  0  0  0  0  0  0  0  0  0  0  0
   36.8972  -22.9047   35.6081 H   0  0  0  0  0  0  0  0  0  0  0  0
   37.7962  -18.5260   37.4776 H   0  0  0  0  0  0  0  0  0  0  0  0
   35.0464  -19.5511   35.4383 C   0  0  0  0  0  0  0  0  0  0  0  0
   35.2419  -18.1313   35.2910 C   0  0  0  0  0  0  0  0  0  0  0  0
   36.4295  -17.5312   34.6536 C   0  0  0  0  0  0  0  0  0  0  0  0
   37.5102  -18.4540   34.3436 N   0  0  0  0  0  0  0  0  0  0  0  0
   37.6250  -19.3720   34.8096 H   0  0  0  0  0  0  0  0  0  0  0  0
   37.9587  -17.3039   32.2113 N   0  0  0  0  0  0  0  0  0  0  0  0
   38.4520  -18.0554   33.3382 C   0  0  0  0  0  0  0  0  0  0  0  0
   39.6934  -18.3256   33.4190 N   0  0  0  0  0  0  0  0  0  0  0  0
   37.4304  -16.4208   32.3827 H   0  0  0  0  0  0  0  0  0  0  0  0
   38.1473  -17.6681   31.2609 H   0  0  0  0  0  0  0  0  0  0  0  0
   40.3985  -18.0445   32.7278 H   0  0  0  0  0  0  0  0  0  0  0  0
   32.3645  -22.6573   35.2157 C   0  0  0  0  0  0  0  0  0  0  0  0
   31.5570  -21.4692   35.1484 C   0  0  0  0  0  0  0  0  0  0  0  0
   30.3172  -21.4002   35.7356 C   0  0  0  0  0  0  0  0  0  0  0  0
   29.5482  -20.2713   35.6605 C   0  0  0  0  0  0  0  0  0  0  0  0
   29.9995  -19.1666   34.9888 C   0  0  0  0  0  0  0  0  0  0  0  0
   29.1923  -18.0198   34.9252 O   0  0  0  0  0  0  0  0  0  0  0  0
   31.2408  -19.1973   34.3852 C   0  0  0  0  0  0  0  0  0  0  0  0
   31.9831  -20.3470   34.4825 C   0  0  0  0  0  0  0  0  0  0  0  0
   28.5684  -17.9822   34.1385 H   0  0  0  0  0  0  0  0  0  0  0  0
   38.0764  -24.9911   35.2041 C   0  0  0  0  0  0  0  0  0  0  0  0
   39.1665  -25.0537   34.2581 C   0  0  0  0  0  0  0  0  0  0  0  0
   40.4739  -24.9091   34.6911 C   0  0  0  0  0  0  0  0  0  0  0  0
   41.5442  -24.9761   33.8312 C   0  0  0  0  0  0  0  0  0  0  0  0
   41.2568  -25.1950   32.5018 C   0  0  0  0  0  0  0  0  0  0  0  0
   42.2998  -25.2714   31.5948 O   0  0  0  0  0  0  0  0  0  0  0  0
   39.9638  -25.3419   32.0432 C   0  0  0  0  0  0  0  0  0  0  0  0
   38.8972  -25.2758   32.9024 C   0  0  0  0  0  0  0  0  0  0  0  0
   42.5937  -24.4062   31.1568 H   0  0  0  0  0  0  0  0  0  0  0  0
   38.7204  -21.2557   38.6733 C   0  0  0  0  0  0  0  0  0  0  0  0
   39.9286  -20.7818   39.3765 C   0  0  0  0  0  0  0  0  0  0  0  0
   39.9300  -20.9431   40.8364 C   0  0  0  0  0  0  0  0  0  0  0  0
   40.8906  -20.2477   41.5970 O   0  0  0  0  0  0  0  0  0  0  0  0
   39.1278  -21.6649   41.4719 O   0  0  0  0  0  0  0  0  0  0  0  0
   41.1597  -19.3209   41.2426 H   0  0  0  0  0  0  0  0  0  0  0  0
 33 34  1  0  0  0
 34 35  2  0  0  0
 34 31  1  0  0  0
 31 30  1  0  0  0
 30 29  1  0  0  0
 29 28  1  0  0  0
 28  1  1  0  0  0
  1  2  1  0  0  0
  2  3  1  0  0  0
  3  4  2  0  0  0
  3  5  1  0  0  0
  5 39  1  0  0  0
 39 40  1  0  0  0
 40 41  2  0  0  0
 41 42  1  0  0  0
 42 43  2  0  0  0
 43 44  1  0  0  0
 43 45  1  0  0  0
 45 46  2  0  0  0
  5  6  1  0  0  0
  6  7  1  0  0  0
  7  8  2  0  0  0
  7  9  1  0  0  0
  9 10  1  0  0  0
 10 11  1  0  0  0
 11 12  1  0  0  0
 12 13  1  0  0  0
 13 14  1  0  0  0
 14 15  2  0  0  0
 14 16  1  0  0  0
 16 48  1  0  0  0
 48 49  1  0  0  0
 49 50  2  0  0  0
 50 51  1  0  0  0
 51 52  2  0  0  0
 52 53  1  0  0  0
 52 54  1  0  0  0
 54 55  2  0  0  0
 16 17  1  0  0  0
 17 18  1  0  0  0
 18 19  2  0  0  0
 18 20  1  0  0  0
 20 57  1  0  0  0
 57 58  1  0  0  0
 58 59  1  0  0  0
 59 60  1  0  0  0
 59 61  2  0  0  0
 20 21  1  0  0  0
 21 22  1  0  0  0
 22 23  2  0  0  0
 22  1  1  0  0  0
 46 40  1  0  0  0
 13  9  1  0  0  0
 55 49  1  0  0  0
 33 36  1  0  0  0
 33 37  1  0  0  0
 35 38  1  0  0  0
 31 32  1  0  0  0
  2 24  1  0  0  0
 44 47  1  0  0  0
  6 25  1  0  0  0
 53 56  1  0  0  0
 17 26  1  0  0  0
 60 62  1  0  0  0
 21 27  1  0  0  0
M  END
> <minimizedAffinity>
-5.77386

> <CNNscore>
0.5081016421

> <CNNaffinity>
6.1396813393

> <CNN_VS>
3.1195821762

> <CNNaffinity_variance>
0.4097386897

$$$$
[H]N=C(N([H])[H])N([H])C([H])([H])C([H])([H])C([H])([H])[C@@]1([H])C(=O)N([H])[C@@]([H])(C([H])([H])C([H])([H])C(=O)O[H])C(=O)N([H])[C@]([H])(C([H])([H])c2c([H])c([H])c(O[H])c([H])c2[H])C(=O)N2C([H])([H])C([H])([H])C([H])([H])[C@@]2([H])C(=O)N([H])[C@@]([H])(C([H])([H])c2c([H])c([H])c(O[H])c([H])c2[H])C(=O)N1[H]


 62 65  0  0  0  0  0  0  0  0999 V2000
   35.5388  -20.5558   38.3217 C   0  0  0  0  0  0  0  0  0  0  0  0
   34.8534  -19.7486   37.3857 N   0  0  0  0  0  0  0  0  0  0  0  0
   35.5462  -18.5894   36.8247 C   0  0  0  0  0  0  0  0  0  0  0  0
   35.1077  -18.1896   35.6918 O   0  0  0  0  0  0  0  0  0  0  0  0
   36.6604  -17.9044   37.4697 C   0  0  0  0  0  0  0  0  0  0  0  0
   37.7535  -17.5358   36.6029 N   0  0  0  0  0  0  0  0  0  0  0  0
   38.9185  -18.1966   36.1975 C   0  0  0  0  0  0  0  0  0  0  0  0
   40.0289  -17.6638   36.5956 O   0  0  0  0  0  0  0  0  0  0  0  0
   39.1528  -19.3642   35.4096 C   0  0  0  0  0  0  0  0  0  0  0  0
   37.9869  -20.1913   34.9599 C   0  0  0  0  0  0  0  0  0  0  0  0
   38.7516  -21.1653   34.0490 C   0  0  0  0  0  0  0  0  0  0  0  0
   40.2073  -21.0093   34.4178 C   0  0  0  0  0  0  0  0  0  0  0  0
   40.0838  -20.3664   35.7647 N   0  0  0  0  0  0  0  0  0  0  0  0
   40.7641  -20.7662   36.9197 C   0  0  0  0  0  0  0  0  0  0  0  0
   42.0237  -21.0115   36.6002 O   0  0  0  0  0  0  0  0  0  0  0  0
   40.5289  -20.9903   38.3027 C   0  0  0  0  0  0  0  0  0  0  0  0
   39.2554  -21.2340   38.8954 N   0  0  0  0  0  0  0  0  0  0  0  0
   38.4202  -22.2359   39.3035 C   0  0  0  0  0  0  0  0  0  0  0  0
   38.1867  -22.3414   40.5758 O   0  0  0  0  0  0  0  0  0  0  0  0
   37.6611  -23.3083   38.5952 C   0  0  0  0  0  0  0  0  0  0  0  0
   36.2476  -23.0661   38.4882 N   0  0  0  0  0  0  0  0  0  0  0  0
   35.5064  -22.0277   37.9170 C   0  0  0  0  0  0  0  0  0  0  0  0
   34.6893  -22.2442   36.9505 O   0  0  0  0  0  0  0  0  0  0  0  0
   33.8877  -19.9579   37.0745 H   0  0  0  0  0  0  0  0  0  0  0  0
   37.5913  -16.5326   36.2108 H   0  0  0  0  0  0  0  0  0  0  0  0
   38.8251  -20.2406   39.0712 H   0  0  0  0  0  0  0  0  0  0  0  0
   35.5670  -23.8233   38.9135 H   0  0  0  0  0  0  0  0  0  0  0  0
   35.0443  -20.3753   39.6944 C   0  0  0  0  0  0  0  0  0  0  0  0
   35.6953  -20.8801   40.8764 C   0  0  0  0  0  0  0  0  0  0  0  0
   35.1071  -21.9055   41.7592 C   0  0  0  0  0  0  0  0  0  0  0  0
   35.9809  -22.4083   42.8076 N   0  0  0  0  0  0  0  0  0  0  0  0
   36.5455  -21.7933   43.4207 H   0  0  0  0  0  0  0  0  0  0  0  0
   35.3263  -24.4052   44.0939 N   0  0  0  0  0  0  0  0  0  0  0  0
   36.0484  -23.8296   42.9870 C   0  0  0  0  0  0  0  0  0  0  0  0
   36.7015  -24.5876   42.2000 N   0  0  0  0  0  0  0  0  0  0  0  0
   34.3039  -24.2186   44.1846 H   0  0  0  0  0  0  0  0  0  0  0  0
   35.8506  -24.9904   44.7678 H   0  0  0  0  0  0  0  0  0  0  0  0
   36.7604  -25.6088   42.2876 H   0  0  0  0  0  0  0  0  0  0  0  0
   36.1024  -16.6874   38.2215 C   0  0  0  0  0  0  0  0  0  0  0  0
   35.9911  -15.4505   37.4962 C   0  0  0  0  0  0  0  0  0  0  0  0
   36.9437  -14.4656   37.5904 C   0  0  0  0  0  0  0  0  0  0  0  0
   36.8286  -13.2865   36.9064 C   0  0  0  0  0  0  0  0  0  0  0  0
   35.7465  -13.0538   36.1001 C   0  0  0  0  0  0  0  0  0  0  0  0
   35.6503  -11.8360   35.4084 O   0  0  0  0  0  0  0  0  0  0  0  0
   34.7675  -14.0198   35.9796 C   0  0  0  0  0  0  0  0  0  0  0  0
   34.9181  -15.1895   36.6807 C   0  0  0  0  0  0  0  0  0  0  0  0
   35.1731  -11.1029   35.9026 H   0  0  0  0  0  0  0  0  0  0  0  0
   41.2394  -19.9751   39.1565 C   0  0  0  0  0  0  0  0  0  0  0  0
   41.7605  -20.3663   40.4458 C   0  0  0  0  0  0  0  0  0  0  0  0
   41.7525  -19.4703   41.5017 C   0  0  0  0  0  0  0  0  0  0  0  0
   42.2234  -19.8014   42.7499 C   0  0  0  0  0  0  0  0  0  0  0  0
   42.7116  -21.0799   42.9076 C   0  0  0  0  0  0  0  0  0  0  0  0
   43.1971  -21.4635   44.1459 O   0  0  0  0  0  0  0  0  0  0  0  0
   42.7321  -21.9924   41.8728 C   0  0  0  0  0  0  0  0  0  0  0  0
   42.2611  -21.6608   40.6284 C   0  0  0  0  0  0  0  0  0  0  0  0
   44.1825  -21.3066   44.3231 H   0  0  0  0  0  0  0  0  0  0  0  0
   38.2196  -23.6831   37.2766 C   0  0  0  0  0  0  0  0  0  0  0  0
   37.1938  -23.9828   36.2584 C   0  0  0  0  0  0  0  0  0  0  0  0
   36.5016  -25.2705   36.3998 C   0  0  0  0  0  0  0  0  0  0  0  0
   35.9642  -25.8841   35.2511 O   0  0  0  0  0  0  0  0  0  0  0  0
   36.3484  -25.8791   37.4835 O   0  0  0  0  0  0  0  0  0  0  0  0
   36.4909  -25.7454   34.3791 H   0  0  0  0  0  0  0  0  0  0  0  0
 33 34  1  0  0  0
 34 35  2  0  0  0
 34 31  1  0  0  0
 31 30  1  0  0  0
 30 29  1  0  0  0
 29 28  1  0  0  0
 28  1  1  0  0  0
  1  2  1  0  0  0
  2  3  1  0  0  0
  3  4  2  0  0  0
  3  5  1  0  0  0
  5 39  1  0  0  0
 39 40  1  0  0  0
 40 41  2  0  0  0
 41 42  1  0  0  0
 42 43  2  0  0  0
 43 44  1  0  0  0
 43 45  1  0  0  0
 45 46  2  0  0  0
  5  6  1  0  0  0
  6  7  1  0  0  0
  7  8  2  0  0  0
  7  9  1  0  0  0
  9 10  1  0  0  0
 10 11  1  0  0  0
 11 12  1  0  0  0
 12 13  1  0  0  0
 13 14  1  0  0  0
 14 15  2  0  0  0
 14 16  1  0  0  0
 16 48  1  0  0  0
 48 49  1  0  0  0
 49 50  2  0  0  0
 50 51  1  0  0  0
 51 52  2  0  0  0
 52 53  1  0  0  0
 52 54  1  0  0  0
 54 55  2  0  0  0
 16 17  1  0  0  0
 17 18  1  0  0  0
 18 19  2  0  0  0
 18 20  1  0  0  0
 20 57  1  0  0  0
 57 58  1  0  0  0
 58 59  1  0  0  0
 59 60  1  0  0  0
 59 61  2  0  0  0
 20 21  1  0  0  0
 21 22  1  0  0  0
 22 23  2  0  0  0
 22  1  1  0  0  0
 46 40  1  0  0  0
 13  9  1  0  0  0
 55 49  1  0  0  0
 33 36  1  0  0  0
 33 37  1  0  0  0
 35 38  1  0  0  0
 31 32  1  0  0  0
  2 24  1  0  0  0
 44 47  1  0  0  0
  6 25  1  0  0  0
 53 56  1  0  0  0
 17 26  1  0  0  0
 60 62  1  0  0  0
 21 27  1  0  0  0
M  END
> <minimizedAffinity>
-4.94093

> <CNNscore>
0.4353538454

> <CNNaffinity>
6.2483701706

> <CNN_VS>
2.7202520370

> <CNNaffinity_variance>
0.3984979987

$$$$
[H]N=C(N([H])[H])N([H])C([H])([H])C([H])([H])C([H])([H])[C@@]1([H])C(=O)N([H])[C@@]([H])(C([H])([H])C([H])([H])C(=O)O[H])C(=O)N([H])[C@]([H])(C([H])([H])c2c([H])c([H])c(O[H])c([H])c2[H])C(=O)N2C([H])([H])C([H])([H])C([H])([H])[C@@]2([H])C(=O)N([H])[C@@]([H])(C([H])([H])c2c([H])c([H])c(O[H])c([H])c2[H])C(=O)N1[H]


 62 65  0  0  0  0  0  0  0  0999 V2000
   36.8375  -24.3762   37.1042 C   0  0  0  0  0  0  0  0  0  0  0  0
   37.5210  -25.2902   37.9377 N   0  0  0  0  0  0  0  0  0  0  0  0
   38.3236  -24.7629   39.0405 C   0  0  0  0  0  0  0  0  0  0  0  0
   38.5196  -25.5762   40.0078 O   0  0  0  0  0  0  0  0  0  0  0  0
   38.8817  -23.4164   39.0823 C   0  0  0  0  0  0  0  0  0  0  0  0
   38.7745  -22.7344   40.3494 N   0  0  0  0  0  0  0  0  0  0  0  0
   37.7933  -21.9116   40.9136 C   0  0  0  0  0  0  0  0  0  0  0  0
   38.1480  -20.6847   41.1239 O   0  0  0  0  0  0  0  0  0  0  0  0
   36.4459  -22.1434   41.3257 C   0  0  0  0  0  0  0  0  0  0  0  0
   35.8131  -23.4732   41.0491 C   0  0  0  0  0  0  0  0  0  0  0  0
   34.5007  -23.2521   41.8185 C   0  0  0  0  0  0  0  0  0  0  0  0
   34.4162  -21.7641   42.0594 C   0  0  0  0  0  0  0  0  0  0  0  0
   35.3812  -21.2623   41.0301 N   0  0  0  0  0  0  0  0  0  0  0  0
   35.1371  -20.2204   40.1292 C   0  0  0  0  0  0  0  0  0  0  0  0
   34.5481  -19.2321   40.7813 O   0  0  0  0  0  0  0  0  0  0  0  0
   35.3176  -19.8988   38.7573 C   0  0  0  0  0  0  0  0  0  0  0  0
   35.5154  -20.8420   37.7066 N   0  0  0  0  0  0  0  0  0  0  0  0
   34.8551  -21.5434   36.7371 C   0  0  0  0  0  0  0  0  0  0  0  0
   35.1199  -21.2523   35.5004 O   0  0  0  0  0  0  0  0  0  0  0  0
   33.8372  -22.6349   36.7561 C   0  0  0  0  0  0  0  0  0  0  0  0
   34.3525  -23.9359   36.4240 N   0  0  0  0  0  0  0  0  0  0  0  0
   35.3562  -24.7280   36.9888 C   0  0  0  0  0  0  0  0  0  0  0  0
   35.0953  -25.8844   37.4822 O   0  0  0  0  0  0  0  0  0  0  0  0
   37.4609  -26.3157   37.8034 H   0  0  0  0  0  0  0  0  0  0  0  0
   39.6608  -22.9321   40.9510 H   0  0  0  0  0  0  0  0  0  0  0  0
   36.5913  -21.0545   37.7096 H   0  0  0  0  0  0  0  0  0  0  0  0
   33.8932  -24.4636   35.5709 H   0  0  0  0  0  0  0  0  0  0  0  0
   37.4546  -24.2507   35.7757 C   0  0  0  0  0  0  0  0  0  0  0  0
   38.6070  -23.4392   35.4773 C   0  0  0  0  0  0  0  0  0  0  0  0
   38.5654  -21.9684   35.3685 C   0  0  0  0  0  0  0  0  0  0  0  0
   38.6308  -21.4362   34.0164 N   0  0  0  0  0  0  0  0  0  0  0  0
   38.5200  -22.0216   33.1691 H   0  0  0  0  0  0  0  0  0  0  0  0
   39.0301  -19.5063   32.5377 N   0  0  0  0  0  0  0  0  0  0  0  0
   38.8583  -20.0277   33.8705 C   0  0  0  0  0  0  0  0  0  0  0  0
   38.8945  -19.2346   34.8656 N   0  0  0  0  0  0  0  0  0  0  0  0
   38.2915  -19.6866   31.8234 H   0  0  0  0  0  0  0  0  0  0  0  0
   39.8878  -18.9647   32.3317 H   0  0  0  0  0  0  0  0  0  0  0  0
   39.0397  -18.2204   34.7992 H   0  0  0  0  0  0  0  0  0  0  0  0
   40.3386  -23.4878   38.6025 C   0  0  0  0  0  0  0  0  0  0  0  0
   40.8926  -22.3158   37.9798 C   0  0  0  0  0  0  0  0  0  0  0  0
   40.4982  -21.0493   38.3364 C   0  0  0  0  0  0  0  0  0  0  0  0
   41.0206  -19.9376   37.7342 C   0  0  0  0  0  0  0  0  0  0  0  0
   41.9617  -20.0596   36.7471 C   0  0  0  0  0  0  0  0  0  0  0  0
   42.4829  -18.9041   36.1437 O   0  0  0  0  0  0  0  0  0  0  0  0
   42.3836  -21.3160   36.3606 C   0  0  0  0  0  0  0  0  0  0  0  0
   41.8372  -22.4071   36.9879 C   0  0  0  0  0  0  0  0  0  0  0  0
   41.9815  -18.5842   35.3340 H   0  0  0  0  0  0  0  0  0  0  0  0
   36.3281  -18.7988   38.5750 C   0  0  0  0  0  0  0  0  0  0  0  0
   35.9918  -17.6469   37.7706 C   0  0  0  0  0  0  0  0  0  0  0  0
   35.2133  -17.7936   36.6348 C   0  0  0  0  0  0  0  0  0  0  0  0
   34.8551  -16.7258   35.8466 C   0  0  0  0  0  0  0  0  0  0  0  0
   35.3111  -15.4867   36.2395 C   0  0  0  0  0  0  0  0  0  0  0  0
   34.9775  -14.3785   35.4799 O   0  0  0  0  0  0  0  0  0  0  0  0
   36.0885  -15.3121   37.3659 C   0  0  0  0  0  0  0  0  0  0  0  0
   36.4442  -16.3781   38.1517 C   0  0  0  0  0  0  0  0  0  0  0  0
   35.6117  -14.1255   34.7311 H   0  0  0  0  0  0  0  0  0  0  0  0
   33.0357  -22.7014   37.9988 C   0  0  0  0  0  0  0  0  0  0  0  0
   31.6648  -23.2104   37.7971 C   0  0  0  0  0  0  0  0  0  0  0  0
   30.8282  -22.4545   36.8559 C   0  0  0  0  0  0  0  0  0  0  0  0
   30.6956  -21.0627   37.0294 O   0  0  0  0  0  0  0  0  0  0  0  0
   30.2106  -22.9600   35.8909 O   0  0  0  0  0  0  0  0  0  0  0  0
   31.5236  -20.5741   37.3939 H   0  0  0  0  0  0  0  0  0  0  0  0
 33 34  1  0  0  0
 34 35  2  0  0  0
 34 31  1  0  0  0
 31 30  1  0  0  0
 30 29  1  0  0  0
 29 28  1  0  0  0
 28  1  1  0  0  0
  1  2  1  0  0  0
  2  3  1  0  0  0
  3  4  2  0  0  0
  3  5  1  0  0  0
  5 39  1  0  0  0
 39 40  1  0  0  0
 40 41  2  0  0  0
 41 42  1  0  0  0
 42 43  2  0  0  0
 43 44  1  0  0  0
 43 45  1  0  0  0
 45 46  2  0  0  0
  5  6  1  0  0  0
  6  7  1  0  0  0
  7  8  2  0  0  0
  7  9  1  0  0  0
  9 10  1  0  0  0
 10 11  1  0  0  0
 11 12  1  0  0  0
 12 13  1  0  0  0
 13 14  1  0  0  0
 14 15  2  0  0  0
 14 16  1  0  0  0
 16 48  1  0  0  0
 48 49  1  0  0  0
 49 50  2  0  0  0
 50 51  1  0  0  0
 51 52  2  0  0  0
 52 53  1  0  0  0
 52 54  1  0  0  0
 54 55  2  0  0  0
 16 17  1  0  0  0
 17 18  1  0  0  0
 18 19  2  0  0  0
 18 20  1  0  0  0
 20 57  1  0  0  0
 57 58  1  0  0  0
 58 59  1  0  0  0
 59 60  1  0  0  0
 59 61  2  0  0  0
 20 21  1  0  0  0
 21 22  1  0  0  0
 22 23  2  0  0  0
 22  1  1  0  0  0
 46 40  1  0  0  0
 13  9  1  0  0  0
 55 49  1  0  0  0
 33 36  1  0  0  0
 33 37  1  0  0  0
 35 38  1  0  0  0
 31 32  1  0  0  0
  2 24  1  0  0  0
 44 47  1  0  0  0
  6 25  1  0  0  0
 53 56  1  0  0  0
 17 26  1  0  0  0
 60 62  1  0  0  0
 21 27  1  0  0  0
M  END
> <minimizedAffinity>
-3.59281

> <CNNscore>
0.4211351871

> <CNNaffinity>
6.2462611198

> <CNN_VS>
2.6305203438

> <CNNaffinity_variance>
1.0698044300

$$$$
[H]N=C(N([H])[H])N([H])C([H])([H])C([H])([H])C([H])([H])[C@@]1([H])C(=O)N([H])[C@@]([H])(C([H])([H])C([H])([H])C(=O)O[H])C(=O)N([H])[C@]([H])(C([H])([H])c2c([H])c([H])c(O[H])c([H])c2[H])C(=O)N2C([H])([H])C([H])([H])C([H])([H])[C@@]2([H])C(=O)N([H])[C@@]([H])(C([H])([H])c2c([H])c([H])c(O[H])c([H])c2[H])C(=O)N1[H]


 62 65  0  0  0  0  0  0  0  0999 V2000
   36.0993  -20.6706   37.3724 C   0  0  0  0  0  0  0  0  0  0  0  0
   35.9747  -20.1690   36.0570 N   0  0  0  0  0  0  0  0  0  0  0  0
   37.1928  -19.8452   35.3156 C   0  0  0  0  0  0  0  0  0  0  0  0
   37.0739  -19.8574   34.0423 O   0  0  0  0  0  0  0  0  0  0  0  0
   38.4735  -19.5253   35.9354 C   0  0  0  0  0  0  0  0  0  0  0  0
   39.6323  -20.1281   35.3224 N   0  0  0  0  0  0  0  0  0  0  0  0
   40.2964  -21.3440   35.5199 C   0  0  0  0  0  0  0  0  0  0  0  0
   41.5043  -21.2519   35.9756 O   0  0  0  0  0  0  0  0  0  0  0  0
   39.9183  -22.7056   35.3146 C   0  0  0  0  0  0  0  0  0  0  0  0
   38.5115  -23.0223   34.9071 C   0  0  0  0  0  0  0  0  0  0  0  0
   38.6914  -24.5295   34.6634 C   0  0  0  0  0  0  0  0  0  0  0  0
   39.9981  -24.8954   35.3253 C   0  0  0  0  0  0  0  0  0  0  0  0
   40.1739  -23.7320   36.2517 N   0  0  0  0  0  0  0  0  0  0  0  0
   40.4980  -23.8184   37.6098 C   0  0  0  0  0  0  0  0  0  0  0  0
   41.4559  -24.7183   37.7555 O   0  0  0  0  0  0  0  0  0  0  0  0
   40.1245  -23.2546   38.8591 C   0  0  0  0  0  0  0  0  0  0  0  0
   38.8883  -22.5996   39.1336 N   0  0  0  0  0  0  0  0  0  0  0  0
   37.6372  -22.8084   39.6426 C   0  0  0  0  0  0  0  0  0  0  0  0
   37.3316  -22.2047   40.7501 O   0  0  0  0  0  0  0  0  0  0  0  0
   36.4594  -23.6143   39.2054 C   0  0  0  0  0  0  0  0  0  0  0  0
   35.3858  -22.8420   38.6402 N   0  0  0  0  0  0  0  0  0  0  0  0
   35.3197  -21.9715   37.5486 C   0  0  0  0  0  0  0  0  0  0  0  0
   34.5496  -22.2114   36.5495 O   0  0  0  0  0  0  0  0  0  0  0  0
   35.0553  -20.0379   35.5979 H   0  0  0  0  0  0  0  0  0  0  0  0
   40.0338  -19.4631   34.5588 H   0  0  0  0  0  0  0  0  0  0  0  0
   39.0333  -21.5629   38.8065 H   0  0  0  0  0  0  0  0  0  0  0  0
   34.3935  -22.9243   39.1155 H   0  0  0  0  0  0  0  0  0  0  0  0
   35.7166  -19.6841   38.3931 C   0  0  0  0  0  0  0  0  0  0  0  0
   35.6817  -19.9384   39.8108 C   0  0  0  0  0  0  0  0  0  0  0  0
   34.4343  -20.0988   40.5823 C   0  0  0  0  0  0  0  0  0  0  0  0
   34.5242  -19.7733   41.9971 N   0  0  0  0  0  0  0  0  0  0  0  0
   35.4046  -19.4815   42.4585 H   0  0  0  0  0  0  0  0  0  0  0  0
   33.2585  -20.8732   43.8023 N   0  0  0  0  0  0  0  0  0  0  0  0
   33.3224  -19.8647   42.7742 C   0  0  0  0  0  0  0  0  0  0  0  0
   32.3334  -19.0827   42.5981 N   0  0  0  0  0  0  0  0  0  0  0  0
   33.9995  -20.8968   44.5363 H   0  0  0  0  0  0  0  0  0  0  0  0
   32.4722  -21.5459   43.7785 H   0  0  0  0  0  0  0  0  0  0  0  0
   31.4643  -19.1082   43.1439 H   0  0  0  0  0  0  0  0  0  0  0  0
   38.6030  -17.9968   36.0033 C   0  0  0  0  0  0  0  0  0  0  0  0
   37.3939  -17.2322   36.1504 C   0  0  0  0  0  0  0  0  0  0  0  0
   36.5310  -17.0298   35.1012 C   0  0  0  0  0  0  0  0  0  0  0  0
   35.3869  -16.2933   35.2433 C   0  0  0  0  0  0  0  0  0  0  0  0
   35.0683  -15.7306   36.4504 C   0  0  0  0  0  0  0  0  0  0  0  0
   33.8890  -14.9788   36.5716 O   0  0  0  0  0  0  0  0  0  0  0  0
   35.9109  -15.9114   37.5290 C   0  0  0  0  0  0  0  0  0  0  0  0
   37.0486  -16.6565   37.3479 C   0  0  0  0  0  0  0  0  0  0  0  0
   33.9886  -13.9976   36.3795 H   0  0  0  0  0  0  0  0  0  0  0  0
   41.2253  -22.4045   39.4338 C   0  0  0  0  0  0  0  0  0  0  0  0
   41.0008  -21.6830   40.6651 C   0  0  0  0  0  0  0  0  0  0  0  0
   41.0882  -20.3012   40.6889 C   0  0  0  0  0  0  0  0  0  0  0  0
   40.8685  -19.5707   41.8324 C   0  0  0  0  0  0  0  0  0  0  0  0
   40.5546  -20.2817   42.9698 C   0  0  0  0  0  0  0  0  0  0  0  0
   40.3233  -19.5927   44.1479 O   0  0  0  0  0  0  0  0  0  0  0  0
   40.4617  -21.6584   42.9745 C   0  0  0  0  0  0  0  0  0  0  0  0
   40.6802  -22.3856   41.8327 C   0  0  0  0  0  0  0  0  0  0  0  0
   41.1231  -19.4222   44.7464 H   0  0  0  0  0  0  0  0  0  0  0  0
   36.7929  -24.7542   38.3220 C   0  0  0  0  0  0  0  0  0  0  0  0
   35.8303  -25.8705   38.4005 C   0  0  0  0  0  0  0  0  0  0  0  0
   34.4209  -25.5237   38.1755 C   0  0  0  0  0  0  0  0  0  0  0  0
   34.0196  -25.1054   36.8914 O   0  0  0  0  0  0  0  0  0  0  0  0
   33.5289  -25.5718   39.0531 O   0  0  0  0  0  0  0  0  0  0  0  0
   34.5107  -25.5439   36.1017 H   0  0  0  0  0  0  0  0  0  0  0  0
 33 34  1  0  0  0
 34 35  2  0  0  0
 34 31  1  0  0  0
 31 30  1  0  0  0
 30 29  1  0  0  0
 29 28  1  0  0  0
 28  1  1  0  0  0
  1  2  1  0  0  0
  2  3  1  0  0  0
  3  4  2  0  0  0
  3  5  1  0  0  0
  5 39  1  0  0  0
 39 40  1  0  0  0
 40 41  2  0  0  0
 41 42  1  0  0  0
 42 43  2  0  0  0
 43 44  1  0  0  0
 43 45  1  0  0  0
 45 46  2  0  0  0
  5  6  1  0  0  0
  6  7  1  0  0  0
  7  8  2  0  0  0
  7  9  1  0  0  0
  9 10  1  0  0  0
 10 11  1  0  0  0
 11 12  1  0  0  0
 12 13  1  0  0  0
 13 14  1  0  0  0
 14 15  2  0  0  0
 14 16  1  0  0  0
 16 48  1  0  0  0
 48 49  1  0  0  0
 49 50  2  0  0  0
 50 51  1  0  0  0
 51 52  2  0  0  0
 52 53  1  0  0  0
 52 54  1  0  0  0
 54 55  2  0  0  0
 16 17  1  0  0  0
 17 18  1  0  0  0
 18 19  2  0  0  0
 18 20  1  0  0  0
 20 57  1  0  0  0
 57 58  1  0  0  0
 58 59  1  0  0  0
 59 60  1  0  0  0
 59 61  2  0  0  0
 20 21  1  0  0  0
 21 22  1  0  0  0
 22 23  2  0  0  0
 22  1  1  0  0  0
 46 40  1  0  0  0
 13  9  1  0  0  0
 55 49  1  0  0  0
 33 36  1  0  0  0
 33 37  1  0  0  0
 35 38  1  0  0  0
 31 32  1  0  0  0
  2 24  1  0  0  0
 44 47  1  0  0  0
  6 25  1  0  0  0
 53 56  1  0  0  0
 17 26  1  0  0  0
 60 62  1  0  0  0
 21 27  1  0  0  0
M  END
> <minimizedAffinity>
-4.27531

> <CNNscore>
0.4189612865

> <CNNaffinity>
6.1064548492

> <CNN_VS>
2.5583682060

> <CNNaffinity_variance>
0.8077237010

$$$$
[H]N=C(N([H])[H])N([H])C([H])([H])C([H])([H])C([H])([H])[C@@]1([H])C(=O)N([H])[C@@]([H])(C([H])([H])C([H])([H])C(=O)O[H])C(=O)N([H])[C@]([H])(C([H])([H])c2c([H])c([H])c(O[H])c([H])c2[H])C(=O)N2C([H])([H])C([H])([H])C([H])([H])[C@@]2([H])C(=O)N([H])[C@@]([H])(C([H])([H])c2c([H])c([H])c(O[H])c([H])c2[H])C(=O)N1[H]


 62 65  0  0  0  0  0  0  0  0999 V2000
   39.1044  -21.9946   36.9288 C   0  0  0  0  0  0  0  0  0  0  0  0
   38.7861  -23.1251   37.7151 N   0  0  0  0  0  0  0  0  0  0  0  0
   37.9726  -22.9337   38.9150 C   0  0  0  0  0  0  0  0  0  0  0  0
   37.3333  -23.9686   39.3094 O   0  0  0  0  0  0  0  0  0  0  0  0
   37.8644  -21.6755   39.6444 C   0  0  0  0  0  0  0  0  0  0  0  0
   36.5359  -21.3173   40.0790 N   0  0  0  0  0  0  0  0  0  0  0  0
   35.4952  -20.5968   39.4823 C   0  0  0  0  0  0  0  0  0  0  0  0
   35.1838  -19.4828   40.0630 O   0  0  0  0  0  0  0  0  0  0  0  0
   34.6737  -20.8370   38.3393 C   0  0  0  0  0  0  0  0  0  0  0  0
   34.9641  -22.0171   37.4627 C   0  0  0  0  0  0  0  0  0  0  0  0
   33.7387  -21.9083   36.5408 C   0  0  0  0  0  0  0  0  0  0  0  0
   33.1848  -20.5214   36.7628 C   0  0  0  0  0  0  0  0  0  0  0  0
   34.3705  -19.8455   37.3789 N   0  0  0  0  0  0  0  0  0  0  0  0
   34.8852  -18.6025   36.9961 C   0  0  0  0  0  0  0  0  0  0  0  0
   33.8751  -17.7678   36.8177 O   0  0  0  0  0  0  0  0  0  0  0  0
   36.1305  -17.9684   36.7404 C   0  0  0  0  0  0  0  0  0  0  0  0
   37.3493  -18.6378   36.4258 N   0  0  0  0  0  0  0  0  0  0  0  0
   38.1299  -19.0392   35.3781 C   0  0  0  0  0  0  0  0  0  0  0  0
   39.2896  -18.4729   35.2425 O   0  0  0  0  0  0  0  0  0  0  0  0
   37.9619  -20.0364   34.2803 C   0  0  0  0  0  0  0  0  0  0  0  0
   38.7185  -21.2470   34.4542 N   0  0  0  0  0  0  0  0  0  0  0  0
   38.7368  -22.2142   35.4632 C   0  0  0  0  0  0  0  0  0  0  0  0
   38.4297  -23.4372   35.2211 O   0  0  0  0  0  0  0  0  0  0  0  0
   39.0956  -24.0812   37.4632 H   0  0  0  0  0  0  0  0  0  0  0  0
   36.3561  -21.7107   41.0787 H   0  0  0  0  0  0  0  0  0  0  0  0
   37.7853  -18.9117   37.3941 H   0  0  0  0  0  0  0  0  0  0  0  0
   39.4318  -21.5212   33.6584 H   0  0  0  0  0  0  0  0  0  0  0  0
   40.5108  -21.5883   37.0646 C   0  0  0  0  0  0  0  0  0  0  0  0
   41.6154  -22.2044   36.3745 C   0  0  0  0  0  0  0  0  0  0  0  0
   42.6418  -23.0261   37.0439 C   0  0  0  0  0  0  0  0  0  0  0  0
   42.6955  -24.4207   36.6346 N   0  0  0  0  0  0  0  0  0  0  0  0
   43.5775  -24.9110   36.4006 H   0  0  0  0  0  0  0  0  0  0  0  0
   40.9534  -25.4829   35.2536 N   0  0  0  0  0  0  0  0  0  0  0  0
   41.4548  -25.1361   36.5598 C   0  0  0  0  0  0  0  0  0  0  0  0
   40.8028  -25.4839   37.5964 N   0  0  0  0  0  0  0  0  0  0  0  0
   41.5624  -26.0271   34.6046 H   0  0  0  0  0  0  0  0  0  0  0  0
   39.9969  -25.1786   35.0008 H   0  0  0  0  0  0  0  0  0  0  0  0
   39.9206  -26.0088   37.5827 H   0  0  0  0  0  0  0  0  0  0  0  0
   38.8496  -21.7191   40.8214 C   0  0  0  0  0  0  0  0  0  0  0  0
   39.9491  -20.7923   40.8038 C   0  0  0  0  0  0  0  0  0  0  0  0
   40.6230  -20.4876   39.6464 C   0  0  0  0  0  0  0  0  0  0  0  0
   41.6749  -19.6129   39.6361 C   0  0  0  0  0  0  0  0  0  0  0  0
   42.0893  -19.0111   40.7943 C   0  0  0  0  0  0  0  0  0  0  0  0
   43.1712  -18.1173   40.7587 O   0  0  0  0  0  0  0  0  0  0  0  0
   41.4371  -19.2921   41.9782 C   0  0  0  0  0  0  0  0  0  0  0  0
   40.3865  -20.1739   41.9487 C   0  0  0  0  0  0  0  0  0  0  0  0
   44.0733  -18.5358   40.9024 H   0  0  0  0  0  0  0  0  0  0  0  0
   36.4422  -16.9227   37.7766 C   0  0  0  0  0  0  0  0  0  0  0  0
   36.3646  -15.5237   37.4245 C   0  0  0  0  0  0  0  0  0  0  0  0
   37.3451  -14.6429   37.8494 C   0  0  0  0  0  0  0  0  0  0  0  0
   37.3220  -13.3068   37.5272 C   0  0  0  0  0  0  0  0  0  0  0  0
   36.2667  -12.8751   36.7540 C   0  0  0  0  0  0  0  0  0  0  0  0
   36.1975  -11.5383   36.4014 O   0  0  0  0  0  0  0  0  0  0  0  0
   35.2761  -13.7308   36.3177 C   0  0  0  0  0  0  0  0  0  0  0  0
   35.3010  -15.0636   36.6392 C   0  0  0  0  0  0  0  0  0  0  0  0
   35.6968  -10.9213   37.0303 H   0  0  0  0  0  0  0  0  0  0  0  0
   36.5535  -20.3532   33.9527 C   0  0  0  0  0  0  0  0  0  0  0  0
   35.7349  -19.1672   33.6327 C   0  0  0  0  0  0  0  0  0  0  0  0
   34.2814  -19.3761   33.6018 C   0  0  0  0  0  0  0  0  0  0  0  0
   33.7834  -20.6422   33.2359 O   0  0  0  0  0  0  0  0  0  0  0  0
   33.4320  -18.4994   33.8812 O   0  0  0  0  0  0  0  0  0  0  0  0
   34.3518  -21.4492   33.5234 H   0  0  0  0  0  0  0  0  0  0  0  0
 33 34  1  0  0  0
 34 35  2  0  0  0
 34 31  1  0  0  0
 31 30  1  0  0  0
 30 29  1  0  0  0
 29 28  1  0  0  0
 28  1  1  0  0  0
  1  2  1  0  0  0
  2  3  1  0  0  0
  3  4  2  0  0  0
  3  5  1  0  0  0
  5 39  1  0  0  0
 39 40  1  0  0  0
 40 41  2  0  0  0
 41 42  1  0  0  0
 42 43  2  0  0  0
 43 44  1  0  0  0
 43 45  1  0  0  0
 45 46  2  0  0  0
  5  6  1  0  0  0
  6  7  1  0  0  0
  7  8  2  0  0  0
  7  9  1  0  0  0
  9 10  1  0  0  0
 10 11  1  0  0  0
 11 12  1  0  0  0
 12 13  1  0  0  0
 13 14  1  0  0  0
 14 15  2  0  0  0
 14 16  1  0  0  0
 16 48  1  0  0  0
 48 49  1  0  0  0
 49 50  2  0  0  0
 50 51  1  0  0  0
 51 52  2  0  0  0
 52 53  1  0  0  0
 52 54  1  0  0  0
 54 55  2  0  0  0
 16 17  1  0  0  0
 17 18  1  0  0  0
 18 19  2  0  0  0
 18 20  1  0  0  0
 20 57  1  0  0  0
 57 58  1  0  0  0
 58 59  1  0  0  0
 59 60  1  0  0  0
 59 61  2  0  0  0
 20 21  1  0  0  0
 21 22  1  0  0  0
 22 23  2  0  0  0
 22  1  1  0  0  0
 46 40  1  0  0  0
 13  9  1  0  0  0
 55 49  1  0  0  0
 33 36  1  0  0  0
 33 37  1  0  0  0
 35 38  1  0  0  0
 31 32  1  0  0  0
  2 24  1  0  0  0
 44 47  1  0  0  0
  6 25  1  0  0  0
 53 56  1  0  0  0
 17 26  1  0  0  0
 60 62  1  0  0  0
 21 27  1  0  0  0
M  END
> <minimizedAffinity>
-5.34237

> <CNNscore>
0.4180040061

> <CNNaffinity>
6.0841307640

> <CNN_VS>
2.5431909561

> <CNNaffinity_variance>
0.2779404223

$$$$
[H]N=C(N([H])[H])N([H])C([H])([H])C([H])([H])C([H])([H])[C@@]1([H])C(=O)N([H])[C@@]([H])(C([H])([H])C([H])([H])C(=O)O[H])C(=O)N([H])[C@]([H])(C([H])([H])c2c([H])c([H])c(O[H])c([H])c2[H])C(=O)N2C([H])([H])C([H])([H])C([H])([H])[C@@]2([H])C(=O)N([H])[C@@]([H])(C([H])([H])c2c([H])c([H])c(O[H])c([H])c2[H])C(=O)N1[H]


 62 65  0  0  0  0  0  0  0  0999 V2000
   38.8691  -19.6983   35.3115 C   0  0  0  0  0  0  0  0  0  0  0  0
   39.0337  -19.6425   33.9089 N   0  0  0  0  0  0  0  0  0  0  0  0
   40.3170  -20.0529   33.3403 C   0  0  0  0  0  0  0  0  0  0  0  0
   40.2744  -20.4326   32.1199 O   0  0  0  0  0  0  0  0  0  0  0  0
   41.5799  -20.0482   34.0694 C   0  0  0  0  0  0  0  0  0  0  0  0
   42.4231  -21.2013   33.8662 N   0  0  0  0  0  0  0  0  0  0  0  0
   42.5200  -22.4414   34.5073 C   0  0  0  0  0  0  0  0  0  0  0  0
   43.6327  -22.6612   35.1310 O   0  0  0  0  0  0  0  0  0  0  0  0
   41.6303  -23.5527   34.6194 C   0  0  0  0  0  0  0  0  0  0  0  0
   40.2420  -23.4391   34.0671 C   0  0  0  0  0  0  0  0  0  0  0  0
   39.8033  -24.8964   34.2841 C   0  0  0  0  0  0  0  0  0  0  0  0
   40.8072  -25.4844   35.2463 C   0  0  0  0  0  0  0  0  0  0  0  0
   41.3915  -24.2366   35.8329 N   0  0  0  0  0  0  0  0  0  0  0  0
   41.5759  -23.9911   37.1976 C   0  0  0  0  0  0  0  0  0  0  0  0
   42.0725  -25.0821   37.7561 O   0  0  0  0  0  0  0  0  0  0  0  0
   41.3968  -22.9567   38.1547 C   0  0  0  0  0  0  0  0  0  0  0  0
   40.5232  -21.8393   38.0099 N   0  0  0  0  0  0  0  0  0  0  0  0
   39.2699  -21.3920   38.3215 C   0  0  0  0  0  0  0  0  0  0  0  0
   39.1768  -20.3940   39.1458 O   0  0  0  0  0  0  0  0  0  0  0  0
   37.8918  -21.7985   37.9170 C   0  0  0  0  0  0  0  0  0  0  0  0
   37.2610  -20.9119   36.9767 N   0  0  0  0  0  0  0  0  0  0  0  0
   37.6173  -20.4841   35.6945 C   0  0  0  0  0  0  0  0  0  0  0  0
   36.8733  -20.7316   34.6777 O   0  0  0  0  0  0  0  0  0  0  0  0
   38.2754  -19.3366   33.2729 H   0  0  0  0  0  0  0  0  0  0  0  0
   43.1032  -21.0192   33.0350 H   0  0  0  0  0  0  0  0  0  0  0  0
   41.0972  -21.0970   37.4422 H   0  0  0  0  0  0  0  0  0  0  0  0
   36.2970  -20.4613   37.2684 H   0  0  0  0  0  0  0  0  0  0  0  0
   38.8670  -18.3667   35.9347 C   0  0  0  0  0  0  0  0  0  0  0  0
   37.7312  -17.7646   36.5851 C   0  0  0  0  0  0  0  0  0  0  0  0
   36.7300  -16.9386   35.8835 C   0  0  0  0  0  0  0  0  0  0  0  0
   35.6164  -16.4754   36.6965 N   0  0  0  0  0  0  0  0  0  0  0  0
   34.7803  -17.0530   36.8973 H   0  0  0  0  0  0  0  0  0  0  0  0
   36.7610  -14.8710   38.1751 N   0  0  0  0  0  0  0  0  0  0  0  0
   35.7004  -15.1508   37.2398 C   0  0  0  0  0  0  0  0  0  0  0  0
   34.8903  -14.2251   36.9123 N   0  0  0  0  0  0  0  0  0  0  0  0
   37.7480  -15.0582   37.8937 H   0  0  0  0  0  0  0  0  0  0  0  0
   36.5061  -14.4896   39.1030 H   0  0  0  0  0  0  0  0  0  0  0  0
   34.9283  -13.2628   37.2681 H   0  0  0  0  0  0  0  0  0  0  0  0
   42.3190  -18.7441   33.7366 C   0  0  0  0  0  0  0  0  0  0  0  0
   42.6546  -17.8716   34.8296 C   0  0  0  0  0  0  0  0  0  0  0  0
   42.2090  -18.1051   36.1077 C   0  0  0  0  0  0  0  0  0  0  0  0
   42.5224  -17.2668   37.1424 C   0  0  0  0  0  0  0  0  0  0  0  0
   43.2977  -16.1586   36.9283 C   0  0  0  0  0  0  0  0  0  0  0  0
   43.6058  -15.3131   38.0059 O   0  0  0  0  0  0  0  0  0  0  0  0
   43.7645  -15.8899   35.6572 C   0  0  0  0  0  0  0  0  0  0  0  0
   43.4297  -16.7537   34.6452 C   0  0  0  0  0  0  0  0  0  0  0  0
   42.9522  -14.5658   38.1603 H   0  0  0  0  0  0  0  0  0  0  0  0
   42.7150  -22.4385   38.6627 C   0  0  0  0  0  0  0  0  0  0  0  0
   42.7346  -21.3888   39.6552 C   0  0  0  0  0  0  0  0  0  0  0  0
   43.2273  -20.1352   39.3338 C   0  0  0  0  0  0  0  0  0  0  0  0
   43.2526  -19.1014   40.2394 C   0  0  0  0  0  0  0  0  0  0  0  0
   42.7612  -19.3697   41.4981 C   0  0  0  0  0  0  0  0  0  0  0  0
   42.7637  -18.3617   42.4470 O   0  0  0  0  0  0  0  0  0  0  0  0
   42.2651  -20.6095   41.8453 C   0  0  0  0  0  0  0  0  0  0  0  0
   42.2397  -21.6395   40.9405 C   0  0  0  0  0  0  0  0  0  0  0  0
   43.5878  -18.2810   43.0310 H   0  0  0  0  0  0  0  0  0  0  0  0
   37.7787  -23.2008   37.4568 C   0  0  0  0  0  0  0  0  0  0  0  0
   36.4732  -23.8221   37.7543 C   0  0  0  0  0  0  0  0  0  0  0  0
   35.8501  -24.5713   36.6553 C   0  0  0  0  0  0  0  0  0  0  0  0
   34.5732  -24.1825   36.2047 O   0  0  0  0  0  0  0  0  0  0  0  0
   36.3754  -25.5488   36.0748 O   0  0  0  0  0  0  0  0  0  0  0  0
   34.3721  -23.1748   36.2381 H   0  0  0  0  0  0  0  0  0  0  0  0
 33 34  1  0  0  0
 34 35  2  0  0  0
 34 31  1  0  0  0
 31 30  1  0  0  0
 30 29  1  0  0  0
 29 28  1  0  0  0
 28  1  1  0  0  0
  1  2  1  0  0  0
  2  3  1  0  0  0
  3  4  2  0  0  0
  3  5  1  0  0  0
  5 39  1  0  0  0
 39 40  1  0  0  0
 40 41  2  0  0  0
 41 42  1  0  0  0
 42 43  2  0  0  0
 43 44  1  0  0  0
 43 45  1  0  0  0
 45 46  2  0  0  0
  5  6  1  0  0  0
  6  7  1  0  0  0
  7  8  2  0  0  0
  7  9  1  0  0  0
  9 10  1  0  0  0
 10 11  1  0  0  0
 11 12  1  0  0  0
 12 13  1  0  0  0
 13 14  1  0  0  0
 14 15  2  0  0  0
 14 16  1  0  0  0
 16 48  1  0  0  0
 48 49  1  0  0  0
 49 50  2  0  0  0
 50 51  1  0  0  0
 51 52  2  0  0  0
 52 53  1  0  0  0
 52 54  1  0  0  0
 54 55  2  0  0  0
 16 17  1  0  0  0
 17 18  1  0  0  0
 18 19  2  0  0  0
 18 20  1  0  0  0
 20 57  1  0  0  0
 57 58  1  0  0  0
 58 59  1  0  0  0
 59 60  1  0  0  0
 59 61  2  0  0  0
 20 21  1  0  0  0
 21 22  1  0  0  0
 22 23  2  0  0  0
 22  1  1  0  0  0
 46 40  1  0  0  0
 13  9  1  0  0  0
 55 49  1  0  0  0
 33 36  1  0  0  0
 33 37  1  0  0  0
 35 38  1  0  0  0
 31 32  1  0  0  0
  2 24  1  0  0  0
 44 47  1  0  0  0
  6 25  1  0  0  0
 53 56  1  0  0  0
 17 26  1  0  0  0
 60 62  1  0  0  0
 21 27  1  0  0  0
M  END
> <minimizedAffinity>
-4.47575

> <CNNscore>
0.4120517075

> <CNNaffinity>
6.3115401268

> <CNN_VS>
2.6006808281

> <CNNaffinity_variance>
0.4314339757

$$$$
[H]N=C(N([H])[H])N([H])C([H])([H])C([H])([H])C([H])([H])[C@@]1([H])C(=O)N([H])[C@@]([H])(C([H])([H])C([H])([H])C(=O)O[H])C(=O)N([H])[C@]([H])(C([H])([H])c2c([H])c([H])c(O[H])c([H])c2[H])C(=O)N2C([H])([H])C([H])([H])C([H])([H])[C@@]2([H])C(=O)N([H])[C@@]([H])(C([H])([H])c2c([H])c([H])c(O[H])c([H])c2[H])C(=O)N1[H]


 62 65  0  0  0  0  0  0  0  0999 V2000
   37.5461  -21.7699   38.1762 C   0  0  0  0  0  0  0  0  0  0  0  0
   38.3351  -22.8237   37.6621 N   0  0  0  0  0  0  0  0  0  0  0  0
   38.6792  -23.9343   38.5490 C   0  0  0  0  0  0  0  0  0  0  0  0
   38.9603  -25.0339   37.9597 O   0  0  0  0  0  0  0  0  0  0  0  0
   38.7132  -23.8458   40.0042 C   0  0  0  0  0  0  0  0  0  0  0  0
   38.1371  -24.9636   40.7119 N   0  0  0  0  0  0  0  0  0  0  0  0
   36.8426  -25.2481   41.1607 C   0  0  0  0  0  0  0  0  0  0  0  0
   36.6998  -25.3139   42.4455 O   0  0  0  0  0  0  0  0  0  0  0  0
   35.6091  -25.4951   40.4851 C   0  0  0  0  0  0  0  0  0  0  0  0
   35.5451  -25.3408   38.9959 C   0  0  0  0  0  0  0  0  0  0  0  0
   34.1180  -25.8719   38.7848 C   0  0  0  0  0  0  0  0  0  0  0  0
   33.4752  -25.8648   40.1509 C   0  0  0  0  0  0  0  0  0  0  0  0
   34.3800  -24.9181   40.8772 N   0  0  0  0  0  0  0  0  0  0  0  0
   33.9623  -23.8411   41.6661 C   0  0  0  0  0  0  0  0  0  0  0  0
   32.9533  -24.2416   42.4213 O   0  0  0  0  0  0  0  0  0  0  0  0
   34.2749  -22.4757   41.9032 C   0  0  0  0  0  0  0  0  0  0  0  0
   34.9844  -21.6229   41.0077 N   0  0  0  0  0  0  0  0  0  0  0  0
   34.8066  -20.6899   40.0250 C   0  0  0  0  0  0  0  0  0  0  0  0
   35.1816  -19.4734   40.2777 O   0  0  0  0  0  0  0  0  0  0  0  0
   34.2501  -20.7328   38.6406 C   0  0  0  0  0  0  0  0  0  0  0  0
   35.2402  -20.6831   37.5987 N   0  0  0  0  0  0  0  0  0  0  0  0
   36.3313  -21.5009   37.2911 C   0  0  0  0  0  0  0  0  0  0  0  0
   36.4025  -22.1254   36.1715 O   0  0  0  0  0  0  0  0  0  0  0  0
   38.6636  -22.8428   36.6797 H   0  0  0  0  0  0  0  0  0  0  0  0
   38.9059  -25.7085   40.9135 H   0  0  0  0  0  0  0  0  0  0  0  0
   36.0455  -21.8119   41.2105 H   0  0  0  0  0  0  0  0  0  0  0  0
   35.1642  -19.8655   36.8618 H   0  0  0  0  0  0  0  0  0  0  0  0
   38.3197  -20.5395   38.3980 C   0  0  0  0  0  0  0  0  0  0  0  0
   38.5973  -19.5491   37.3892 C   0  0  0  0  0  0  0  0  0  0  0  0
   39.4151  -19.8110   36.1893 C   0  0  0  0  0  0  0  0  0  0  0  0
   38.6717  -20.0990   34.9728 N   0  0  0  0  0  0  0  0  0  0  0  0
   37.7713  -19.6450   34.7358 H   0  0  0  0  0  0  0  0  0  0  0  0
   38.7081  -22.4037   34.1023 N   0  0  0  0  0  0  0  0  0  0  0  0
   39.2312  -21.0609   34.0681 C   0  0  0  0  0  0  0  0  0  0  0  0
   40.1487  -20.7645   33.2369 N   0  0  0  0  0  0  0  0  0  0  0  0
   37.6831  -22.5521   33.9774 H   0  0  0  0  0  0  0  0  0  0  0  0
   39.3728  -23.1833   34.2502 H   0  0  0  0  0  0  0  0  0  0  0  0
   40.5625  -21.4210   32.5648 H   0  0  0  0  0  0  0  0  0  0  0  0
   40.1659  -23.5951   40.4339 C   0  0  0  0  0  0  0  0  0  0  0  0
   40.8075  -22.4033   39.9480 C   0  0  0  0  0  0  0  0  0  0  0  0
   40.7243  -21.2086   40.6206 C   0  0  0  0  0  0  0  0  0  0  0  0
   41.3279  -20.0749   40.1493 C   0  0  0  0  0  0  0  0  0  0  0  0
   42.0393  -20.1016   38.9796 C   0  0  0  0  0  0  0  0  0  0  0  0
   42.6497  -18.9254   38.5160 O   0  0  0  0  0  0  0  0  0  0  0  0
   42.1456  -21.2839   38.2746 C   0  0  0  0  0  0  0  0  0  0  0  0
   41.5271  -22.3998   38.7790 C   0  0  0  0  0  0  0  0  0  0  0  0
   42.0803  -18.3612   37.9103 H   0  0  0  0  0  0  0  0  0  0  0  0
   34.8525  -22.2708   43.2776 C   0  0  0  0  0  0  0  0  0  0  0  0
   36.2534  -21.9492   43.4222 C   0  0  0  0  0  0  0  0  0  0  0  0
   37.1429  -22.9031   43.8878 C   0  0  0  0  0  0  0  0  0  0  0  0
   38.4864  -22.6485   44.0279 C   0  0  0  0  0  0  0  0  0  0  0  0
   38.9161  -21.3862   43.6819 C   0  0  0  0  0  0  0  0  0  0  0  0
   40.2604  -21.0794   43.8041 O   0  0  0  0  0  0  0  0  0  0  0  0
   38.0518  -20.4169   43.2160 C   0  0  0  0  0  0  0  0  0  0  0  0
   36.7119  -20.6726   43.0759 C   0  0  0  0  0  0  0  0  0  0  0  0
   40.5667  -20.6962   44.6908 H   0  0  0  0  0  0  0  0  0  0  0  0
   33.3029  -21.8439   38.3970 C   0  0  0  0  0  0  0  0  0  0  0  0
   32.5076  -21.6893   37.1631 C   0  0  0  0  0  0  0  0  0  0  0  0
   32.7635  -22.6735   36.1034 C   0  0  0  0  0  0  0  0  0  0  0  0
   32.8773  -22.2263   34.7723 O   0  0  0  0  0  0  0  0  0  0  0  0
   32.8914  -23.9047   36.2935 O   0  0  0  0  0  0  0  0  0  0  0  0
   33.3048  -21.3001   34.6441 H   0  0  0  0  0  0  0  0  0  0  0  0
 33 34  1  0  0  0
 34 35  2  0  0  0
 34 31  1  0  0  0
 31 30  1  0  0  0
 30 29  1  0  0  0
 29 28  1  0  0  0
 28  1  1  0  0  0
  1  2  1  0  0  0
  2  3  1  0  0  0
  3  4  2  0  0  0
  3  5  1  0  0  0
  5 39  1  0  0  0
 39 40  1  0  0  0
 40 41  2  0  0  0
 41 42  1  0  0  0
 42 43  2  0  0  0
 43 44  1  0  0  0
 43 45  1  0  0  0
 45 46  2  0  0  0
  5  6  1  0  0  0
  6  7  1  0  0  0
  7  8  2  0  0  0
  7  9  1  0  0  0
  9 10  1  0  0  0
 10 11  1  0  0  0
 11 12  1  0  0  0
 12 13  1  0  0  0
 13 14  1  0  0  0
 14 15  2  0  0  0
 14 16  1  0  0  0
 16 48  1  0  0  0
 48 49  1  0  0  0
 49 50  2  0  0  0
 50 51  1  0  0  0
 51 52  2  0  0  0
 52 53  1  0  0  0
 52 54  1  0  0  0
 54 55  2  0  0  0
 16 17  1  0  0  0
 17 18  1  0  0  0
 18 19  2  0  0  0
 18 20  1  0  0  0
 20 57  1  0  0  0
 57 58  1  0  0  0
 58 59  1  0  0  0
 59 60  1  0  0  0
 59 61  2  0  0  0
 20 21  1  0  0  0
 21 22  1  0  0  0
 22 23  2  0  0  0
 22  1  1  0  0  0
 46 40  1  0  0  0
 13  9  1  0  0  0
 55 49  1  0  0  0
 33 36  1  0  0  0
 33 37  1  0  0  0
 35 38  1  0  0  0
 31 32  1  0  0  0
  2 24  1  0  0  0
 44 47  1  0  0  0
  6 25  1  0  0  0
 53 56  1  0  0  0
 17 26  1  0  0  0
 60 62  1  0  0  0
 21 27  1  0  0  0
M  END
> <minimizedAffinity>
-3.52483

> <CNNscore>
0.4083509743

> <CNNaffinity>
5.5298814774

> <CNN_VS>
2.2581324577

> <CNNaffinity_variance>
0.4286092818

$$$$
[H]N=C(N([H])[H])N([H])C([H])([H])C([H])([H])C([H])([H])[C@@]1([H])C(=O)N([H])[C@@]([H])(C([H])([H])C([H])([H])C(=O)O[H])C(=O)N([H])[C@]([H])(C([H])([H])c2c([H])c([H])c(O[H])c([H])c2[H])C(=O)N2C([H])([H])C([H])([H])C([H])([H])[C@@]2([H])C(=O)N([H])[C@@]([H])(C([H])([H])c2c([H])c([H])c(O[H])c([H])c2[H])C(=O)N1[H]


 62 65  0  0  0  0  0  0  0  0999 V2000
   38.0150  -19.9079   36.2317 C   0  0  0  0  0  0  0  0  0  0  0  0
   37.0333  -19.4886   37.1579 N   0  0  0  0  0  0  0  0  0  0  0  0
   36.3171  -20.5073   37.9244 C   0  0  0  0  0  0  0  0  0  0  0  0
   35.8180  -20.1046   39.0308 O   0  0  0  0  0  0  0  0  0  0  0  0
   36.1561  -21.8938   37.5021 C   0  0  0  0  0  0  0  0  0  0  0  0
   36.3387  -22.8864   38.5332 N   0  0  0  0  0  0  0  0  0  0  0  0
   37.4577  -23.5814   39.0056 C   0  0  0  0  0  0  0  0  0  0  0  0
   37.4431  -24.8608   38.8095 O   0  0  0  0  0  0  0  0  0  0  0  0
   38.6453  -23.1708   39.6837 C   0  0  0  0  0  0  0  0  0  0  0  0
   38.9028  -21.7093   39.8915 C   0  0  0  0  0  0  0  0  0  0  0  0
   40.1525  -21.8340   40.7781 C   0  0  0  0  0  0  0  0  0  0  0  0
   40.6281  -23.2573   40.6126 C   0  0  0  0  0  0  0  0  0  0  0  0
   39.9354  -23.6340   39.3395 N   0  0  0  0  0  0  0  0  0  0  0  0
   40.5385  -24.2560   38.2413 C   0  0  0  0  0  0  0  0  0  0  0  0
   41.3210  -25.2248   38.6862 O   0  0  0  0  0  0  0  0  0  0  0  0
   40.5754  -24.1721   36.8237 C   0  0  0  0  0  0  0  0  0  0  0  0
   40.2143  -23.0277   36.0540 N   0  0  0  0  0  0  0  0  0  0  0  0
   40.7342  -21.9241   35.4377 C   0  0  0  0  0  0  0  0  0  0  0  0
   40.6702  -21.8742   34.1425 O   0  0  0  0  0  0  0  0  0  0  0  0
   41.4008  -20.6803   35.9243 C   0  0  0  0  0  0  0  0  0  0  0  0
   40.5735  -19.5048   35.8805 N   0  0  0  0  0  0  0  0  0  0  0  0
   39.3431  -19.1918   36.4654 C   0  0  0  0  0  0  0  0  0  0  0  0
   39.2264  -18.2171   37.2930 O   0  0  0  0  0  0  0  0  0  0  0  0
   36.8159  -18.4890   37.3217 H   0  0  0  0  0  0  0  0  0  0  0  0
   35.3835  -23.1036   39.0097 H   0  0  0  0  0  0  0  0  0  0  0  0
   39.1259  -23.0921   35.9360 H   0  0  0  0  0  0  0  0  0  0  0  0
   40.9396  -18.6454   35.2934 H   0  0  0  0  0  0  0  0  0  0  0  0
   37.5758  -19.7621   34.8362 C   0  0  0  0  0  0  0  0  0  0  0  0
   36.3346  -19.1583   34.4232 C   0  0  0  0  0  0  0  0  0  0  0  0
   36.1542  -17.7059   34.2362 C   0  0  0  0  0  0  0  0  0  0  0  0
   35.3702  -17.0331   35.2601 N   0  0  0  0  0  0  0  0  0  0  0  0
   34.4117  -17.3236   35.5246 H   0  0  0  0  0  0  0  0  0  0  0  0
   37.2324  -16.1275   36.5952 N   0  0  0  0  0  0  0  0  0  0  0  0
   35.9731  -15.9155   35.9266 C   0  0  0  0  0  0  0  0  0  0  0  0
   35.4466  -14.7564   35.9299 N   0  0  0  0  0  0  0  0  0  0  0  0
   38.0332  -16.5220   36.0554 H   0  0  0  0  0  0  0  0  0  0  0  0
   37.3014  -15.8784   37.5975 H   0  0  0  0  0  0  0  0  0  0  0  0
   35.8554  -13.9306   36.3824 H   0  0  0  0  0  0  0  0  0  0  0  0
   34.7849  -22.0309   36.8246 C   0  0  0  0  0  0  0  0  0  0  0  0
   33.8466  -22.9553   37.4020 C   0  0  0  0  0  0  0  0  0  0  0  0
   32.9352  -22.5656   38.3527 C   0  0  0  0  0  0  0  0  0  0  0  0
   32.0512  -23.4507   38.9065 C   0  0  0  0  0  0  0  0  0  0  0  0
   32.0523  -24.7653   38.5233 C   0  0  0  0  0  0  0  0  0  0  0  0
   31.1358  -25.6549   39.1060 O   0  0  0  0  0  0  0  0  0  0  0  0
   32.9537  -25.1956   37.5702 C   0  0  0  0  0  0  0  0  0  0  0  0
   33.8242  -24.2787   37.0374 C   0  0  0  0  0  0  0  0  0  0  0  0
   31.4609  -26.1163   39.9372 H   0  0  0  0  0  0  0  0  0  0  0  0
   39.9325  -25.3716   36.1814 C   0  0  0  0  0  0  0  0  0  0  0  0
   39.9075  -25.4822   34.7412 C   0  0  0  0  0  0  0  0  0  0  0  0
   38.7263  -25.2796   34.0472 C   0  0  0  0  0  0  0  0  0  0  0  0
   38.6564  -25.3595   32.6768 C   0  0  0  0  0  0  0  0  0  0  0  0
   39.8273  -25.6550   32.0139 C   0  0  0  0  0  0  0  0  0  0  0  0
   39.8105  -25.7462   30.6327 O   0  0  0  0  0  0  0  0  0  0  0  0
   41.0177  -25.8621   32.6802 C   0  0  0  0  0  0  0  0  0  0  0  0
   41.0860  -25.7812   34.0474 C   0  0  0  0  0  0  0  0  0  0  0  0
   39.6180  -26.6575   30.2336 H   0  0  0  0  0  0  0  0  0  0  0  0
   42.0403  -20.8095   37.2530 C   0  0  0  0  0  0  0  0  0  0  0  0
   42.3316  -19.5163   37.9023 C   0  0  0  0  0  0  0  0  0  0  0  0
   43.7430  -19.1107   37.9273 C   0  0  0  0  0  0  0  0  0  0  0  0
   44.6159  -19.7394   38.8370 O   0  0  0  0  0  0  0  0  0  0  0  0
   44.2424  -18.2318   37.1881 O   0  0  0  0  0  0  0  0  0  0  0  0
   44.4252  -20.7309   39.0310 H   0  0  0  0  0  0  0  0  0  0  0  0
 33 34  1  0  0  0
 34 35  2  0  0  0
 34 31  1  0  0  0
 31 30  1  0  0  0
 30 29  1  0  0  0
 29 28  1  0  0  0
 28  1  1  0  0  0
  1  2  1  0  0  0
  2  3  1  0  0  0
  3  4  2  0  0  0
  3  5  1  0  0  0
  5 39  1  0  0  0
 39 40  1  0  0  0
 40 41  2  0  0  0
 41 42  1  0  0  0
 42 43  2  0  0  0
 43 44  1  0  0  0
 43 45  1  0  0  0
 45 46  2  0  0  0
  5  6  1  0  0  0
  6  7  1  0  0  0
  7  8  2  0  0  0
  7  9  1  0  0  0
  9 10  1  0  0  0
 10 11  1  0  0  0
 11 12  1  0  0  0
 12 13  1  0  0  0
 13 14  1  0  0  0
 14 15  2  0  0  0
 14 16  1  0  0  0
 16 48  1  0  0  0
 48 49  1  0  0  0
 49 50  2  0  0  0
 50 51  1  0  0  0
 51 52  2  0  0  0
 52 53  1  0  0  0
 52 54  1  0  0  0
 54 55  2  0  0  0
 16 17  1  0  0  0
 17 18  1  0  0  0
 18 19  2  0  0  0
 18 20  1  0  0  0
 20 57  1  0  0  0
 57 58  1  0  0  0
 58 59  1  0  0  0
 59 60  1  0  0  0
 59 61  2  0  0  0
 20 21  1  0  0  0
 21 22  1  0  0  0
 22 23  2  0  0  0
 22  1  1  0  0  0
 46 40  1  0  0  0
 13  9  1  0  0  0
 55 49  1  0  0  0
 33 36  1  0  0  0
 33 37  1  0  0  0
 35 38  1  0  0  0
 31 32  1  0  0  0
  2 24  1  0  0  0
 44 47  1  0  0  0
  6 25  1  0  0  0
 53 56  1  0  0  0
 17 26  1  0  0  0
 60 62  1  0  0  0
 21 27  1  0  0  0
M  END
> <minimizedAffinity>
-4.22639

> <CNNscore>
0.4037387371

> <CNNaffinity>
6.0821695328

> <CNN_VS>
2.4556074142

> <CNNaffinity_variance>
0.5118657947

$$$$
[H]N=C(N([H])[H])N([H])C([H])([H])C([H])([H])C([H])([H])[C@@]1([H])C(=O)N([H])[C@@]([H])(C([H])([H])C([H])([H])C(=O)O[H])C(=O)N([H])[C@]([H])(C([H])([H])c2c([H])c([H])c(O[H])c([H])c2[H])C(=O)N2C([H])([H])C([H])([H])C([H])([H])[C@@]2([H])C(=O)N([H])[C@@]([H])(C([H])([H])c2c([H])c([H])c(O[H])c([H])c2[H])C(=O)N1[H]


 62 65  0  0  0  0  0  0  0  0999 V2000
   37.1762  -20.5499   36.8512 C   0  0  0  0  0  0  0  0  0  0  0  0
   37.8596  -21.1475   35.7680 N   0  0  0  0  0  0  0  0  0  0  0  0
   38.5908  -22.3915   36.0055 C   0  0  0  0  0  0  0  0  0  0  0  0
   38.7775  -23.1186   34.9701 O   0  0  0  0  0  0  0  0  0  0  0  0
   39.0907  -22.8171   37.3076 C   0  0  0  0  0  0  0  0  0  0  0  0
   38.9001  -24.2117   37.6248 N   0  0  0  0  0  0  0  0  0  0  0  0
   37.8621  -24.9203   38.2402 C   0  0  0  0  0  0  0  0  0  0  0  0
   38.1564  -25.4657   39.3765 O   0  0  0  0  0  0  0  0  0  0  0  0
   36.5086  -25.1843   37.8695 C   0  0  0  0  0  0  0  0  0  0  0  0
   35.9438  -24.5331   36.6438 C   0  0  0  0  0  0  0  0  0  0  0  0
   34.5910  -25.2626   36.6154 C   0  0  0  0  0  0  0  0  0  0  0  0
   34.4348  -25.8832   37.9829 C   0  0  0  0  0  0  0  0  0  0  0  0
   35.4225  -25.0758   38.7672 N   0  0  0  0  0  0  0  0  0  0  0  0
   35.1754  -24.4705   40.0038 C   0  0  0  0  0  0  0  0  0  0  0  0
   34.5183  -25.3282   40.7662 O   0  0  0  0  0  0  0  0  0  0  0  0
   35.4024  -23.2438   40.6835 C   0  0  0  0  0  0  0  0  0  0  0  0
   35.6847  -21.9934   40.0595 N   0  0  0  0  0  0  0  0  0  0  0  0
   35.0969  -20.8394   39.6228 C   0  0  0  0  0  0  0  0  0  0  0  0
   35.4034  -19.7394   40.2396 O   0  0  0  0  0  0  0  0  0  0  0  0
   34.1249  -20.5152   38.5374 C   0  0  0  0  0  0  0  0  0  0  0  0
   34.7074  -19.8792   37.3866 N   0  0  0  0  0  0  0  0  0  0  0  0
   35.7171  -20.2672   36.5013 C   0  0  0  0  0  0  0  0  0  0  0  0
   35.4827  -20.4230   35.2485 O   0  0  0  0  0  0  0  0  0  0  0  0
   37.8477  -20.7441   34.8139 H   0  0  0  0  0  0  0  0  0  0  0  0
   39.7666  -24.7859   37.2993 H   0  0  0  0  0  0  0  0  0  0  0  0
   36.7673  -21.9973   39.8841 H   0  0  0  0  0  0  0  0  0  0  0  0
   34.3080  -18.8938   37.0920 H   0  0  0  0  0  0  0  0  0  0  0  0
   37.8453  -19.3365   37.3426 C   0  0  0  0  0  0  0  0  0  0  0  0
   38.7733  -18.5421   36.5788 C   0  0  0  0  0  0  0  0  0  0  0  0
   40.2312  -18.7685   36.5724 C   0  0  0  0  0  0  0  0  0  0  0  0
   40.9059  -18.4833   35.3158 N   0  0  0  0  0  0  0  0  0  0  0  0
   40.4683  -18.6329   34.3889 H   0  0  0  0  0  0  0  0  0  0  0  0
   42.4380  -16.6813   36.0057 N   0  0  0  0  0  0  0  0  0  0  0  0
   42.2423  -17.9676   35.3850 C   0  0  0  0  0  0  0  0  0  0  0  0
   43.2467  -18.6095   34.9382 N   0  0  0  0  0  0  0  0  0  0  0  0
   42.0910  -16.5291   36.9777 H   0  0  0  0  0  0  0  0  0  0  0  0
   42.9213  -15.9450   35.4620 H   0  0  0  0  0  0  0  0  0  0  0  0
   44.2179  -18.2798   34.9835 H   0  0  0  0  0  0  0  0  0  0  0  0
   40.5689  -22.4135   37.4072 C   0  0  0  0  0  0  0  0  0  0  0  0
   41.4497  -22.8478   36.3566 C   0  0  0  0  0  0  0  0  0  0  0  0
   41.8645  -24.1528   36.2502 C   0  0  0  0  0  0  0  0  0  0  0  0
   42.7105  -24.5593   35.2550 C   0  0  0  0  0  0  0  0  0  0  0  0
   43.1725  -23.6643   34.3272 C   0  0  0  0  0  0  0  0  0  0  0  0
   44.0400  -24.1051   33.3153 O   0  0  0  0  0  0  0  0  0  0  0  0
   42.7783  -22.3433   34.4009 C   0  0  0  0  0  0  0  0  0  0  0  0
   41.9287  -21.9735   35.4128 C   0  0  0  0  0  0  0  0  0  0  0  0
   45.0177  -24.0535   33.5412 H   0  0  0  0  0  0  0  0  0  0  0  0
   36.3738  -23.4126   41.8203 C   0  0  0  0  0  0  0  0  0  0  0  0
   37.3736  -22.3980   42.0612 C   0  0  0  0  0  0  0  0  0  0  0  0
   37.2086  -21.4880   43.0919 C   0  0  0  0  0  0  0  0  0  0  0  0
   38.1390  -20.5148   43.3688 C   0  0  0  0  0  0  0  0  0  0  0  0
   39.2576  -20.4821   42.5654 C   0  0  0  0  0  0  0  0  0  0  0  0
   40.2253  -19.5212   42.8033 O   0  0  0  0  0  0  0  0  0  0  0  0
   39.4471  -21.3759   41.5315 C   0  0  0  0  0  0  0  0  0  0  0  0
   38.5184  -22.3467   41.2571 C   0  0  0  0  0  0  0  0  0  0  0  0
   40.1262  -18.6375   42.3174 H   0  0  0  0  0  0  0  0  0  0  0  0
   33.2732  -21.6518   38.1205 C   0  0  0  0  0  0  0  0  0  0  0  0
   32.3258  -21.3208   37.0380 C   0  0  0  0  0  0  0  0  0  0  0  0
   32.3233  -22.2283   35.8832 C   0  0  0  0  0  0  0  0  0  0  0  0
   33.0087  -21.8437   34.7140 O   0  0  0  0  0  0  0  0  0  0  0  0
   31.7482  -23.3404   35.8552 O   0  0  0  0  0  0  0  0  0  0  0  0
   33.8645  -21.2916   34.8554 H   0  0  0  0  0  0  0  0  0  0  0  0
 33 34  1  0  0  0
 34 35  2  0  0  0
 34 31  1  0  0  0
 31 30  1  0  0  0
 30 29  1  0  0  0
 29 28  1  0  0  0
 28  1  1  0  0  0
  1  2  1  0  0  0
  2  3  1  0  0  0
  3  4  2  0  0  0
  3  5  1  0  0  0
  5 39  1  0  0  0
 39 40  1  0  0  0
 40 41  2  0  0  0
 41 42  1  0  0  0
 42 43  2  0  0  0
 43 44  1  0  0  0
 43 45  1  0  0  0
 45 46  2  0  0  0
  5  6  1  0  0  0
  6  7  1  0  0  0
  7  8  2  0  0  0
  7  9  1  0  0  0
  9 10  1  0  0  0
 10 11  1  0  0  0
 11 12  1  0  0  0
 12 13  1  0  0  0
 13 14  1  0  0  0
 14 15  2  0  0  0
 14 16  1  0  0  0
 16 48  1  0  0  0
 48 49  1  0  0  0
 49 50  2  0  0  0
 50 51  1  0  0  0
 51 52  2  0  0  0
 52 53  1  0  0  0
 52 54  1  0  0  0
 54 55  2  0  0  0
 16 17  1  0  0  0
 17 18  1  0  0  0
 18 19  2  0  0  0
 18 20  1  0  0  0
 20 57  1  0  0  0
 57 58  1  0  0  0
 58 59  1  0  0  0
 59 60  1  0  0  0
 59 61  2  0  0  0
 20 21  1  0  0  0
 21 22  1  0  0  0
 22 23  2  0  0  0
 22  1  1  0  0  0
 46 40  1  0  0  0
 13  9  1  0  0  0
 55 49  1  0  0  0
 33 36  1  0  0  0
 33 37  1  0  0  0
 35 38  1  0  0  0
 31 32  1  0  0  0
  2 24  1  0  0  0
 44 47  1  0  0  0
  6 25  1  0  0  0
 53 56  1  0  0  0
 17 26  1  0  0  0
 60 62  1  0  0  0
 21 27  1  0  0  0
M  END
> <minimizedAffinity>
-4.14831

> <CNNscore>
0.3887843490

> <CNNaffinity>
5.9153890610

> <CNN_VS>
2.2998106480

> <CNNaffinity_variance>
0.5074613690

$$$$
[H]Oc1c([H])c(C2=C([H])C([H])([H])C([H])([H])N(c3c([H])c([H])c([H])c([H])c3[H])C2([H])[H])c(C([H])([H])[H])c(O[H])c1C([H])([H])[H]


 24 26  0  0  0  0  0  0  0  0999 V2000
   36.8949  -16.1300   36.9987 C   0  0  0  0  0  0  0  0  0  0  0  0
   35.6293  -15.4398   36.6996 C   0  0  0  0  0  0  0  0  0  0  0  0
   34.6425  -16.0242   35.9408 C   0  0  0  0  0  0  0  0  0  0  0  0
   33.5438  -15.1912   35.6831 C   0  0  0  0  0  0  0  0  0  0  0  0
   33.4076  -13.9116   36.1187 C   0  0  0  0  0  0  0  0  0  0  0  0
   32.2604  -13.1580   35.8020 O   0  0  0  0  0  0  0  0  0  0  0  0
   34.3945  -13.3544   36.8706 C   0  0  0  0  0  0  0  0  0  0  0  0
   34.2602  -11.9578   37.3556 C   0  0  0  0  0  0  0  0  0  0  0  0
   35.5234  -14.1251   37.1689 C   0  0  0  0  0  0  0  0  0  0  0  0
   36.4791  -13.5195   37.9290 O   0  0  0  0  0  0  0  0  0  0  0  0
   32.1925  -12.2257   36.1361 H   0  0  0  0  0  0  0  0  0  0  0  0
   37.3212  -13.9253   38.2425 H   0  0  0  0  0  0  0  0  0  0  0  0
   34.6234  -17.4194   35.5067 C   0  0  0  0  0  0  0  0  0  0  0  0
   35.4529  -17.7635   34.5129 C   0  0  0  0  0  0  0  0  0  0  0  0
   35.5179  -19.1761   33.9803 C   0  0  0  0  0  0  0  0  0  0  0  0
   34.1027  -19.6988   33.8052 C   0  0  0  0  0  0  0  0  0  0  0  0
   33.3267  -19.4490   35.0004 N   0  0  0  0  0  0  0  0  0  0  0  0
   33.7208  -18.4717   36.0162 C   0  0  0  0  0  0  0  0  0  0  0  0
   32.1366  -20.1827   35.1980 C   0  0  0  0  0  0  0  0  0  0  0  0
   32.0912  -21.5516   35.3977 C   0  0  0  0  0  0  0  0  0  0  0  0
   30.9048  -22.2248   35.5920 C   0  0  0  0  0  0  0  0  0  0  0  0
   29.7007  -21.5681   35.5971 C   0  0  0  0  0  0  0  0  0  0  0  0
   29.6999  -20.2034   35.4015 C   0  0  0  0  0  0  0  0  0  0  0  0
   30.8902  -19.5492   35.2099 C   0  0  0  0  0  0  0  0  0  0  0  0
  1  2  1  0  0  0
  2  3  2  0  0  0
  3  4  1  0  0  0
  4  5  2  0  0  0
  5  6  1  0  0  0
  5  7  1  0  0  0
  7  8  1  0  0  0
  7  9  2  0  0  0
  9 10  1  0  0  0
  3 13  1  0  0  0
 13 14  2  0  0  0
 14 15  1  0  0  0
 15 16  1  0  0  0
 16 17  1  0  0  0
 17 18  1  0  0  0
 17 19  1  0  0  0
 19 20  2  0  0  0
 20 21  1  0  0  0
 21 22  2  0  0  0
 22 23  1  0  0  0
 23 24  2  0  0  0
  9  2  1  0  0  0
 18 13  1  0  0  0
 24 19  1  0  0  0
  6 11  1  0  0  0
 10 12  1  0  0  0
M  END
> <minimizedAffinity>
-7.85477

> <CNNscore>
0.7903470397

> <CNNaffinity>
5.0721826553

> <CNN_VS>
4.0087847710

> <CNNaffinity_variance>
0.5744639635

$$$$
[H]Oc1c([H])c(C2=C([H])C([H])([H])C([H])([H])N(c3c([H])c([H])c([H])c([H])c3[H])C2([H])[H])c(C([H])([H])[H])c(O[H])c1C([H])([H])[H]


 24 26  0  0  0  0  0  0  0  0999 V2000
   37.1258  -16.9835   35.9704 C   0  0  0  0  0  0  0  0  0  0  0  0
   35.9114  -16.1516   36.0014 C   0  0  0  0  0  0  0  0  0  0  0  0
   34.6711  -16.6616   35.6971 C   0  0  0  0  0  0  0  0  0  0  0  0
   33.6415  -15.7090   35.6919 C   0  0  0  0  0  0  0  0  0  0  0  0
   33.7931  -14.3853   35.9574 C   0  0  0  0  0  0  0  0  0  0  0  0
   32.6900  -13.5099   35.9242 O   0  0  0  0  0  0  0  0  0  0  0  0
   35.0285  -13.9029   36.2591 C   0  0  0  0  0  0  0  0  0  0  0  0
   35.2107  -12.4592   36.5531 C   0  0  0  0  0  0  0  0  0  0  0  0
   36.1065  -14.7943   36.2835 C   0  0  0  0  0  0  0  0  0  0  0  0
   37.3204  -14.2588   36.5958 O   0  0  0  0  0  0  0  0  0  0  0  0
   32.8355  -12.5484   36.1232 H   0  0  0  0  0  0  0  0  0  0  0  0
   38.1728  -14.7480   36.6745 H   0  0  0  0  0  0  0  0  0  0  0  0
   34.3630  -18.0763   35.5002 C   0  0  0  0  0  0  0  0  0  0  0  0
   33.7297  -18.4141   34.3693 C   0  0  0  0  0  0  0  0  0  0  0  0
   33.3581  -19.8456   34.0593 C   0  0  0  0  0  0  0  0  0  0  0  0
   32.7641  -20.4779   35.3059 C   0  0  0  0  0  0  0  0  0  0  0  0
   33.6118  -20.2192   36.4494 N   0  0  0  0  0  0  0  0  0  0  0  0
   34.6230  -19.1613   36.4682 C   0  0  0  0  0  0  0  0  0  0  0  0
   33.4589  -21.0249   37.5989 C   0  0  0  0  0  0  0  0  0  0  0  0
   34.2246  -20.8979   38.7448 C   0  0  0  0  0  0  0  0  0  0  0  0
   34.0354  -21.7044   39.8458 C   0  0  0  0  0  0  0  0  0  0  0  0
   33.0722  -22.6808   39.8618 C   0  0  0  0  0  0  0  0  0  0  0  0
   32.2866  -22.8421   38.7404 C   0  0  0  0  0  0  0  0  0  0  0  0
   32.4886  -22.0302   37.6533 C   0  0  0  0  0  0  0  0  0  0  0  0
  1  2  1  0  0  0
  2  3  2  0  0  0
  3  4  1  0  0  0
  4  5  2  0  0  0
  5  6  1  0  0  0
  5  7  1  0  0  0
  7  8  1  0  0  0
  7  9  2  0  0  0
  9 10  1  0  0  0
  3 13  1  0  0  0
 13 14  2  0  0  0
 14 15  1  0  0  0
 15 16  1  0  0  0
 16 17  1  0  0  0
 17 18  1  0  0  0
 17 19  1  0  0  0
 19 20  2  0  0  0
 20 21  1  0  0  0
 21 22  2  0  0  0
 22 23  1  0  0  0
 23 24  2  0  0  0
  9  2  1  0  0  0
 18 13  1  0  0  0
 24 19  1  0  0  0
  6 11  1  0  0  0
 10 12  1  0  0  0
M  END
> <minimizedAffinity>
-7.03068

> <CNNscore>
0.7777486444

> <CNNaffinity>
4.9793229103

> <CNN_VS>
3.8726615906

> <CNNaffinity_variance>
0.3624133170

$$$$
[H]Oc1c([H])c(C2=C([H])C([H])([H])C([H])([H])N(c3c([H])c([H])c([H])c([H])c3[H])C2([H])[H])c(C([H])([H])[H])c(O[H])c1C([H])([H])[H]


 24 26  0  0  0  0  0  0  0  0999 V2000
   37.1352  -15.9321   36.9595 C   0  0  0  0  0  0  0  0  0  0  0  0
   35.8250  -15.3124   36.7009 C   0  0  0  0  0  0  0  0  0  0  0  0
   34.7958  -16.0051   36.1076 C   0  0  0  0  0  0  0  0  0  0  0  0
   33.6506  -15.2346   35.8582 C   0  0  0  0  0  0  0  0  0  0  0  0
   33.5092  -13.9165   36.1554 C   0  0  0  0  0  0  0  0  0  0  0  0
   32.3131  -13.2330   35.8611 O   0  0  0  0  0  0  0  0  0  0  0  0
   34.5388  -13.2516   36.7450 C   0  0  0  0  0  0  0  0  0  0  0  0
   34.3996  -11.8115   37.0774 C   0  0  0  0  0  0  0  0  0  0  0  0
   35.7156  -13.9547   37.0246 C   0  0  0  0  0  0  0  0  0  0  0  0
   36.7132  -13.2416   37.6196 O   0  0  0  0  0  0  0  0  0  0  0  0
   32.2428  -12.2699   36.0914 H   0  0  0  0  0  0  0  0  0  0  0  0
   37.5932  -13.5875   37.8989 H   0  0  0  0  0  0  0  0  0  0  0  0
   34.7867  -17.4415   35.8394 C   0  0  0  0  0  0  0  0  0  0  0  0
   34.4122  -17.8340   34.6147 C   0  0  0  0  0  0  0  0  0  0  0  0
   34.3624  -19.2930   34.2244 C   0  0  0  0  0  0  0  0  0  0  0  0
   33.7052  -20.0776   35.3464 C   0  0  0  0  0  0  0  0  0  0  0  0
   34.3001  -19.7252   36.6172 N   0  0  0  0  0  0  0  0  0  0  0  0
   35.0850  -18.5064   36.8186 C   0  0  0  0  0  0  0  0  0  0  0  0
   34.1180  -20.5973   37.7126 C   0  0  0  0  0  0  0  0  0  0  0  0
   33.3422  -21.7429   37.6738 C   0  0  0  0  0  0  0  0  0  0  0  0
   33.1981  -22.5678   38.7680 C   0  0  0  0  0  0  0  0  0  0  0  0
   33.8202  -22.2933   39.9592 C   0  0  0  0  0  0  0  0  0  0  0  0
   34.6028  -21.1613   40.0421 C   0  0  0  0  0  0  0  0  0  0  0  0
   34.7353  -20.3515   38.9428 C   0  0  0  0  0  0  0  0  0  0  0  0
  1  2  1  0  0  0
  2  3  2  0  0  0
  3  4  1  0  0  0
  4  5  2  0  0  0
  5  6  1  0  0  0
  5  7  1  0  0  0
  7  8  1  0  0  0
  7  9  2  0  0  0
  9 10  1  0  0  0
  3 13  1  0  0  0
 13 14  2  0  0  0
 14 15  1  0  0  0
 15 16  1  0  0  0
 16 17  1  0  0  0
 17 18  1  0  0  0
 17 19  1  0  0  0
 19 20  2  0  0  0
 20 21  1  0  0  0
 21 22  2  0  0  0
 22 23  1  0  0  0
 23 24  2  0  0  0
  9  2  1  0  0  0
 18 13  1  0  0  0
 24 19  1  0  0  0
  6 11  1  0  0  0
 10 12  1  0  0  0
M  END
> <minimizedAffinity>
-7.06419

> <CNNscore>
0.7130237222

> <CNNaffinity>
4.9716615677

> <CNN_VS>
3.5449125767

> <CNNaffinity_variance>
0.3951330185

$$$$
[H]Oc1c([H])c(C2=C([H])C([H])([H])C([H])([H])N(c3c([H])c([H])c([H])c([H])c3[H])C2([H])[H])c(C([H])([H])[H])c(O[H])c1C([H])([H])[H]


 24 26  0  0  0  0  0  0  0  0999 V2000
   29.3522  -19.8993   35.3654 C   0  0  0  0  0  0  0  0  0  0  0  0
   30.1318  -20.8016   36.2290 C   0  0  0  0  0  0  0  0  0  0  0  0
   31.5023  -20.8822   36.1495 C   0  0  0  0  0  0  0  0  0  0  0  0
   32.0719  -21.8556   36.9834 C   0  0  0  0  0  0  0  0  0  0  0  0
   31.3835  -22.6757   37.8196 C   0  0  0  0  0  0  0  0  0  0  0  0
   32.0540  -23.6238   38.6170 O   0  0  0  0  0  0  0  0  0  0  0  0
   30.0285  -22.5767   37.8846 C   0  0  0  0  0  0  0  0  0  0  0  0
   29.2618  -23.4646   38.7944 C   0  0  0  0  0  0  0  0  0  0  0  0
   29.3884  -21.6275   37.0806 C   0  0  0  0  0  0  0  0  0  0  0  0
   28.0310  -21.5676   37.1886 O   0  0  0  0  0  0  0  0  0  0  0  0
   31.5208  -24.2076   39.2172 H   0  0  0  0  0  0  0  0  0  0  0  0
   27.4328  -20.9468   36.7101 H   0  0  0  0  0  0  0  0  0  0  0  0
   32.3589  -19.9878   35.3740 C   0  0  0  0  0  0  0  0  0  0  0  0
   32.9288  -20.4890   34.2704 C   0  0  0  0  0  0  0  0  0  0  0  0
   33.8353  -19.6582   33.3921 C   0  0  0  0  0  0  0  0  0  0  0  0
   34.7935  -18.8792   34.2761 C   0  0  0  0  0  0  0  0  0  0  0  0
   34.0672  -18.2165   35.3373 N   0  0  0  0  0  0  0  0  0  0  0  0
   32.7117  -18.5995   35.7346 C   0  0  0  0  0  0  0  0  0  0  0  0
   34.6927  -17.1501   36.0195 C   0  0  0  0  0  0  0  0  0  0  0  0
   35.8361  -17.2830   36.7882 C   0  0  0  0  0  0  0  0  0  0  0  0
   36.4149  -16.2111   37.4321 C   0  0  0  0  0  0  0  0  0  0  0  0
   35.8835  -14.9498   37.3434 C   0  0  0  0  0  0  0  0  0  0  0  0
   34.7441  -14.7723   36.5878 C   0  0  0  0  0  0  0  0  0  0  0  0
   34.1813  -15.8505   35.9534 C   0  0  0  0  0  0  0  0  0  0  0  0
  1  2  1  0  0  0
  2  3  2  0  0  0
  3  4  1  0  0  0
  4  5  2  0  0  0
  5  6  1  0  0  0
  5  7  1  0  0  0
  7  8  1  0  0  0
  7  9  2  0  0  0
  9 10  1  0  0  0
  3 13  1  0  0  0
 13 14  2  0  0  0
 14 15  1  0  0  0
 15 16  1  0  0  0
 16 17  1  0  0  0
 17 18  1  0  0  0
 17 19  1  0  0  0
 19 20  2  0  0  0
 20 21  1  0  0  0
 21 22  2  0  0  0
 22 23  1  0  0  0
 23 24  2  0  0  0
  9  2  1  0  0  0
 18 13  1  0  0  0
 24 19  1  0  0  0
  6 11  1  0  0  0
 10 12  1  0  0  0
M  END
> <minimizedAffinity>
-5.82038

> <CNNscore>
0.7026910186

> <CNNaffinity>
4.3550338745

> <CNN_VS>
3.0602431297

> <CNNaffinity_variance>
0.5037476420

$$$$
[H]Oc1c([H])c(C2=C([H])C([H])([H])C([H])([H])N(c3c([H])c([H])c([H])c([H])c3[H])C2([H])[H])c(C([H])([H])[H])c(O[H])c1C([H])([H])[H]


 24 26  0  0  0  0  0  0  0  0999 V2000
   36.0639  -16.1528   35.9831 C   0  0  0  0  0  0  0  0  0  0  0  0
   35.4796  -17.3282   35.3162 C   0  0  0  0  0  0  0  0  0  0  0  0
   36.2601  -18.2877   34.7153 C   0  0  0  0  0  0  0  0  0  0  0  0
   35.5349  -19.2896   34.0536 C   0  0  0  0  0  0  0  0  0  0  0  0
   34.1803  -19.3613   33.9794 C   0  0  0  0  0  0  0  0  0  0  0  0
   33.5485  -20.4124   33.2863 O   0  0  0  0  0  0  0  0  0  0  0  0
   33.4276  -18.4031   34.5838 C   0  0  0  0  0  0  0  0  0  0  0  0
   31.9461  -18.4680   34.5131 C   0  0  0  0  0  0  0  0  0  0  0  0
   34.0812  -17.3699   35.2639 C   0  0  0  0  0  0  0  0  0  0  0  0
   33.2792  -16.4397   35.8549 O   0  0  0  0  0  0  0  0  0  0  0  0
   32.5567  -20.4350   33.2513 H   0  0  0  0  0  0  0  0  0  0  0  0
   33.5762  -15.6634   36.3853 H   0  0  0  0  0  0  0  0  0  0  0  0
   37.7150  -18.3796   34.8155 C   0  0  0  0  0  0  0  0  0  0  0  0
   38.4000  -18.5261   33.6738 C   0  0  0  0  0  0  0  0  0  0  0  0
   39.9071  -18.6342   33.6552 C   0  0  0  0  0  0  0  0  0  0  0  0
   40.3432  -19.5842   34.7570 C   0  0  0  0  0  0  0  0  0  0  0  0
   39.6935  -19.2367   36.0021 N   0  0  0  0  0  0  0  0  0  0  0  0
   38.4966  -18.3971   36.0687 C   0  0  0  0  0  0  0  0  0  0  0  0
   40.2397  -19.7273   37.2082 C   0  0  0  0  0  0  0  0  0  0  0  0
   39.7013  -20.7738   37.9366 C   0  0  0  0  0  0  0  0  0  0  0  0
   40.2731  -21.2225   39.1072 C   0  0  0  0  0  0  0  0  0  0  0  0
   41.4125  -20.6507   39.6132 C   0  0  0  0  0  0  0  0  0  0  0  0
   41.9824  -19.6046   38.9193 C   0  0  0  0  0  0  0  0  0  0  0  0
   41.3998  -19.1709   37.7556 C   0  0  0  0  0  0  0  0  0  0  0  0
  1  2  1  0  0  0
  2  3  2  0  0  0
  3  4  1  0  0  0
  4  5  2  0  0  0
  5  6  1  0  0  0
  5  7  1  0  0  0
  7  8  1  0  0  0
  7  9  2  0  0  0
  9 10  1  0  0  0
  3 13  1  0  0  0
 13 14  2  0  0  0
 14 15  1  0  0  0
 15 16  1  0  0  0
 16 17  1  0  0  0
 17 18  1  0  0  0
 17 19  1  0  0  0
 19 20  2  0  0  0
 20 21  1  0  0  0
 21 22  2  0  0  0
 22 23  1  0  0  0
 23 24  2  0  0  0
  9  2  1  0  0  0
 18 13  1  0  0  0
 24 19  1  0  0  0
  6 11  1  0  0  0
 10 12  1  0  0  0
M  END
> <minimizedAffinity>
-6.69981

> <CNNscore>
0.7008211017

> <CNNaffinity>
4.5763735771

> <CNN_VS>
3.2072191238

> <CNNaffinity_variance>
0.4680429995

$$$$
[H]Oc1c([H])c(C2=C([H])C([H])([H])C([H])([H])N(c3c([H])c([H])c([H])c([H])c3[H])C2([H])[H])c(C([H])([H])[H])c(O[H])c1C([H])([H])[H]


 24 26  0  0  0  0  0  0  0  0999 V2000
   33.3724  -17.1710   35.1051 C   0  0  0  0  0  0  0  0  0  0  0  0
   33.3222  -18.6031   35.4429 C   0  0  0  0  0  0  0  0  0  0  0  0
   34.4482  -19.3925   35.4384 C   0  0  0  0  0  0  0  0  0  0  0  0
   34.2026  -20.7487   35.6986 C   0  0  0  0  0  0  0  0  0  0  0  0
   32.9827  -21.2945   35.9426 C   0  0  0  0  0  0  0  0  0  0  0  0
   32.8442  -22.6740   36.1920 O   0  0  0  0  0  0  0  0  0  0  0  0
   31.8826  -20.4946   35.9453 C   0  0  0  0  0  0  0  0  0  0  0  0
   30.5426  -21.0754   36.2118 C   0  0  0  0  0  0  0  0  0  0  0  0
   32.0490  -19.1287   35.6931 C   0  0  0  0  0  0  0  0  0  0  0  0
   30.9148  -18.3729   35.7123 O   0  0  0  0  0  0  0  0  0  0  0  0
   31.9384  -23.0406   36.3667 H   0  0  0  0  0  0  0  0  0  0  0  0
   30.8588  -17.3982   35.5743 H   0  0  0  0  0  0  0  0  0  0  0  0
   35.8199  -18.9090   35.2972 C   0  0  0  0  0  0  0  0  0  0  0  0
   36.2296  -18.5789   34.0654 C   0  0  0  0  0  0  0  0  0  0  0  0
   37.6271  -18.0696   33.7986 C   0  0  0  0  0  0  0  0  0  0  0  0
   38.6165  -18.9325   34.5622 C   0  0  0  0  0  0  0  0  0  0  0  0
   38.1901  -19.0843   35.9363 N   0  0  0  0  0  0  0  0  0  0  0  0
   36.8209  -18.8179   36.3795 C   0  0  0  0  0  0  0  0  0  0  0  0
   39.1378  -19.5062   36.8943 C   0  0  0  0  0  0  0  0  0  0  0  0
   40.4312  -19.0201   36.9749 C   0  0  0  0  0  0  0  0  0  0  0  0
   41.3205  -19.4583   37.9318 C   0  0  0  0  0  0  0  0  0  0  0  0
   40.9665  -20.4050   38.8590 C   0  0  0  0  0  0  0  0  0  0  0  0
   39.6870  -20.9167   38.8148 C   0  0  0  0  0  0  0  0  0  0  0  0
   38.8148  -20.4688   37.8555 C   0  0  0  0  0  0  0  0  0  0  0  0
  1  2  1  0  0  0
  2  3  2  0  0  0
  3  4  1  0  0  0
  4  5  2  0  0  0
  5  6  1  0  0  0
  5  7  1  0  0  0
  7  8  1  0  0  0
  7  9  2  0  0  0
  9 10  1  0  0  0
  3 13  1  0  0  0
 13 14  2  0  0  0
 14 15  1  0  0  0
 15 16  1  0  0  0
 16 17  1  0  0  0
 17 18  1  0  0  0
 17 19  1  0  0  0
 19 20  2  0  0  0
 20 21  1  0  0  0
 21 22  2  0  0  0
 22 23  1  0  0  0
 23 24  2  0  0  0
  9  2  1  0  0  0
 18 13  1  0  0  0
 24 19  1  0  0  0
  6 11  1  0  0  0
 10 12  1  0  0  0
M  END
> <minimizedAffinity>
-5.82499

> <CNNscore>
0.6966382861

> <CNNaffinity>
4.6050934792

> <CNN_VS>
3.2080843449

> <CNNaffinity_variance>
0.2413142920

$$$$
[H]Oc1c([H])c(C2=C([H])C([H])([H])C([H])([H])N(c3c([H])c([H])c([H])c([H])c3[H])C2([H])[H])c(C([H])([H])[H])c(O[H])c1C([H])([H])[H]


 24 26  0  0  0  0  0  0  0  0999 V2000
   31.2296  -18.9100   34.7526 C   0  0  0  0  0  0  0  0  0  0  0  0
   32.5800  -19.0468   35.3229 C   0  0  0  0  0  0  0  0  0  0  0  0
   32.9919  -20.1981   35.9520 C   0  0  0  0  0  0  0  0  0  0  0  0
   34.2758  -20.1217   36.5115 C   0  0  0  0  0  0  0  0  0  0  0  0
   35.0898  -19.0349   36.4674 C   0  0  0  0  0  0  0  0  0  0  0  0
   36.3654  -19.0618   37.0643 O   0  0  0  0  0  0  0  0  0  0  0  0
   34.6633  -17.9075   35.8372 C   0  0  0  0  0  0  0  0  0  0  0  0
   35.5414  -16.7119   35.7789 C   0  0  0  0  0  0  0  0  0  0  0  0
   33.3916  -17.9081   35.2543 C   0  0  0  0  0  0  0  0  0  0  0  0
   33.0166  -16.7547   34.6323 O   0  0  0  0  0  0  0  0  0  0  0  0
   36.9350  -18.2504   37.0139 H   0  0  0  0  0  0  0  0  0  0  0  0
   32.1668  -16.5952   34.1584 H   0  0  0  0  0  0  0  0  0  0  0  0
   32.2562  -21.4605   35.9727 C   0  0  0  0  0  0  0  0  0  0  0  0
   32.2366  -22.1772   34.8413 C   0  0  0  0  0  0  0  0  0  0  0  0
   31.5063  -23.4965   34.7445 C   0  0  0  0  0  0  0  0  0  0  0  0
   30.1444  -23.3513   35.4009 C   0  0  0  0  0  0  0  0  0  0  0  0
   30.2806  -22.7340   36.7022 N   0  0  0  0  0  0  0  0  0  0  0  0
   31.4711  -21.9858   37.1082 C   0  0  0  0  0  0  0  0  0  0  0  0
   29.2183  -22.8608   37.6238 C   0  0  0  0  0  0  0  0  0  0  0  0
   29.2231  -23.7296   38.7011 C   0  0  0  0  0  0  0  0  0  0  0  0
   28.1642  -23.8149   39.5785 C   0  0  0  0  0  0  0  0  0  0  0  0
   27.0440  -23.0380   39.4275 C   0  0  0  0  0  0  0  0  0  0  0  0
   26.9970  -22.1583   38.3669 C   0  0  0  0  0  0  0  0  0  0  0  0
   28.0604  -22.0864   37.5033 C   0  0  0  0  0  0  0  0  0  0  0  0
  1  2  1  0  0  0
  2  3  2  0  0  0
  3  4  1  0  0  0
  4  5  2  0  0  0
  5  6  1  0  0  0
  5  7  1  0  0  0
  7  8  1  0  0  0
  7  9  2  0  0  0
  9 10  1  0  0  0
  3 13  1  0  0  0
 13 14  2  0  0  0
 14 15  1  0  0  0
 15 16  1  0  0  0
 16 17  1  0  0  0
 17 18  1  0  0  0
 17 19  1  0  0  0
 19 20  2  0  0  0
 20 21  1  0  0  0
 21 22  2  0  0  0
 22 23  1  0  0  0
 23 24  2  0  0  0
  9  2  1  0  0  0
 18 13  1  0  0  0
 24 19  1  0  0  0
  6 11  1  0  0  0
 10 12  1  0  0  0
M  END
> <minimizedAffinity>
-5.01573

> <CNNscore>
0.6876630783

> <CNNaffinity>
4.2358331680

> <CNN_VS>
2.9128260612

> <CNNaffinity_variance>
0.4734178185

$$$$
[H]Oc1c([H])c(C2=C([H])C([H])([H])C([H])([H])N(c3c([H])c([H])c([H])c([H])c3[H])C2([H])[H])c(C([H])([H])[H])c(O[H])c1C([H])([H])[H]


 24 26  0  0  0  0  0  0  0  0999 V2000
   31.9093  -19.8644   33.8512 C   0  0  0  0  0  0  0  0  0  0  0  0
   32.2762  -20.2760   35.2163 C   0  0  0  0  0  0  0  0  0  0  0  0
   33.4141  -19.8143   35.8353 C   0  0  0  0  0  0  0  0  0  0  0  0
   33.6527  -20.3774   37.0976 C   0  0  0  0  0  0  0  0  0  0  0  0
   32.8652  -21.3004   37.7088 C   0  0  0  0  0  0  0  0  0  0  0  0
   33.1964  -21.8047   38.9817 O   0  0  0  0  0  0  0  0  0  0  0  0
   31.7427  -21.7409   37.0797 C   0  0  0  0  0  0  0  0  0  0  0  0
   30.8708  -22.7482   37.7348 C   0  0  0  0  0  0  0  0  0  0  0  0
   31.4386  -21.2243   35.8156 C   0  0  0  0  0  0  0  0  0  0  0  0
   30.3006  -21.6964   35.2327 O   0  0  0  0  0  0  0  0  0  0  0  0
   32.5994  -22.4784   39.4001 H   0  0  0  0  0  0  0  0  0  0  0  0
   29.9347  -21.4243   34.3585 H   0  0  0  0  0  0  0  0  0  0  0  0
   34.2789  -18.7497   35.3312 C   0  0  0  0  0  0  0  0  0  0  0  0
   35.4669  -19.1112   34.8291 C   0  0  0  0  0  0  0  0  0  0  0  0
   36.4443  -18.0970   34.2818 C   0  0  0  0  0  0  0  0  0  0  0  0
   36.5168  -16.9207   35.2396 C   0  0  0  0  0  0  0  0  0  0  0  0
   35.1844  -16.4754   35.5853 N   0  0  0  0  0  0  0  0  0  0  0  0
   33.9925  -17.3019   35.3896 C   0  0  0  0  0  0  0  0  0  0  0  0
   35.0256  -15.1841   36.1342 C   0  0  0  0  0  0  0  0  0  0  0  0
   36.0759  -14.3594   36.4981 C   0  0  0  0  0  0  0  0  0  0  0  0
   35.8722  -13.1029   37.0255 C   0  0  0  0  0  0  0  0  0  0  0  0
   34.6097  -12.6026   37.2181 C   0  0  0  0  0  0  0  0  0  0  0  0
   33.5340  -13.3913   36.8694 C   0  0  0  0  0  0  0  0  0  0  0  0
   33.7552  -14.6396   36.3454 C   0  0  0  0  0  0  0  0  0  0  0  0
  1  2  1  0  0  0
  2  3  2  0  0  0
  3  4  1  0  0  0
  4  5  2  0  0  0
  5  6  1  0  0  0
  5  7  1  0  0  0
  7  8  1  0  0  0
  7  9  2  0  0  0
  9 10  1  0  0  0
  3 13  1  0  0  0
 13 14  2  0  0  0
 14 15  1  0  0  0
 15 16  1  0  0  0
 16 17  1  0  0  0
 17 18  1  0  0  0
 17 19  1  0  0  0
 19 20  2  0  0  0
 20 21  1  0  0  0
 21 22  2  0  0  0
 22 23  1  0  0  0
 23 24  2  0  0  0
  9  2  1  0  0  0
 18 13  1  0  0  0
 24 19  1  0  0  0
  6 11  1  0  0  0
 10 12  1  0  0  0
M  END
> <minimizedAffinity>
-7.18371

> <CNNscore>
0.6749486923

> <CNNaffinity>
4.6890511513

> <CNN_VS>
3.1648688316

> <CNNaffinity_variance>
0.4984241426

$$$$
[H]Oc1c([H])c(C2=C([H])C([H])([H])C([H])([H])N(c3c([H])c([H])c([H])c([H])c3[H])C2([H])[H])c(C([H])([H])[H])c(O[H])c1C([H])([H])[H]


 24 26  0  0  0  0  0  0  0  0999 V2000
   34.8970  -21.5622   37.0248 C   0  0  0  0  0  0  0  0  0  0  0  0
   33.7993  -20.7695   36.4467 C   0  0  0  0  0  0  0  0  0  0  0  0
   34.0111  -19.5316   35.8866 C   0  0  0  0  0  0  0  0  0  0  0  0
   32.8418  -18.8818   35.4649 C   0  0  0  0  0  0  0  0  0  0  0  0
   31.5826  -19.3805   35.5716 C   0  0  0  0  0  0  0  0  0  0  0  0
   30.4718  -18.6435   35.1164 O   0  0  0  0  0  0  0  0  0  0  0  0
   31.3964  -20.6084   36.1261 C   0  0  0  0  0  0  0  0  0  0  0  0
   30.0268  -21.1681   36.2485 C   0  0  0  0  0  0  0  0  0  0  0  0
   32.5171  -21.3177   36.5710 C   0  0  0  0  0  0  0  0  0  0  0  0
   32.2739  -22.5441   37.1138 O   0  0  0  0  0  0  0  0  0  0  0  0
   29.5652  -19.0370   35.2094 H   0  0  0  0  0  0  0  0  0  0  0  0
   32.9484  -23.1766   37.4560 H   0  0  0  0  0  0  0  0  0  0  0  0
   35.3186  -18.9365   35.6191 C   0  0  0  0  0  0  0  0  0  0  0  0
   35.5509  -18.5018   34.3736 C   0  0  0  0  0  0  0  0  0  0  0  0
   36.8668  -17.8715   33.9804 C   0  0  0  0  0  0  0  0  0  0  0  0
   37.9993  -18.7004   34.5608 C   0  0  0  0  0  0  0  0  0  0  0  0
   37.7556  -18.9675   35.9616 N   0  0  0  0  0  0  0  0  0  0  0  0
   36.4357  -18.8345   36.5800 C   0  0  0  0  0  0  0  0  0  0  0  0
   38.8401  -19.3726   36.7700 C   0  0  0  0  0  0  0  0  0  0  0  0
   40.1069  -18.8188   36.7061 C   0  0  0  0  0  0  0  0  0  0  0  0
   41.1343  -19.2433   37.5202 C   0  0  0  0  0  0  0  0  0  0  0  0
   40.9523  -20.2432   38.4412 C   0  0  0  0  0  0  0  0  0  0  0  0
   39.7053  -20.8232   38.5383 C   0  0  0  0  0  0  0  0  0  0  0  0
   38.6939  -20.3880   37.7201 C   0  0  0  0  0  0  0  0  0  0  0  0
  1  2  1  0  0  0
  2  3  2  0  0  0
  3  4  1  0  0  0
  4  5  2  0  0  0
  5  6  1  0  0  0
  5  7  1  0  0  0
  7  8  1  0  0  0
  7  9  2  0  0  0
  9 10  1  0  0  0
  3 13  1  0  0  0
 13 14  2  0  0  0
 14 15  1  0  0  0
 15 16  1  0  0  0
 16 17  1  0  0  0
 17 18  1  0  0  0
 17 19  1  0  0  0
 19 20  2  0  0  0
 20 21  1  0  0  0
 21 22  2  0  0  0
 22 23  1  0  0  0
 23 24  2  0  0  0
  9  2  1  0  0  0
 18 13  1  0  0  0
 24 19  1  0  0  0
  6 11  1  0  0  0
 10 12  1  0  0  0
M  END
> <minimizedAffinity>
-5.78244

> <CNNscore>
0.6261051893

> <CNNaffinity>
4.4725971222

> <CNN_VS>
2.8003163338

> <CNNaffinity_variance>
0.1934507042

$$$$
[H]c1nc2c([H])c([H])c(N([H])c3nc(C(=O)N([H])[H])c(N([H])C(=O)c4c([H])c([H])c(N5C([H])([H])C([H])([H])N(C([H])([H])[H])C([H])([H])C5([H])[H])c([H])c4[H])s3)c([H])c2c([H])c1[H]


 39 43  0  0  0  0  0  0  0  0999 V2000
   36.4601  -15.1460   36.9488 C   0  0  0  0  0  0  0  0  0  0  0  0
   34.7138  -14.8346   36.9224 S   0  0  0  0  0  0  0  0  0  0  0  0
   34.7123  -13.2542   37.5732 C   0  0  0  0  0  0  0  0  0  0  0  0
   35.9838  -13.0658   37.7576 N   0  0  0  0  0  0  0  0  0  0  0  0
   36.8897  -13.9670   37.4614 C   0  0  0  0  0  0  0  0  0  0  0  0
   38.3150  -13.5143   37.4802 C   0  0  0  0  0  0  0  0  0  0  0  0
   38.6382  -12.3455   36.6760 N   0  0  0  0  0  0  0  0  0  0  0  0
   39.2221  -14.0347   38.1079 O   0  0  0  0  0  0  0  0  0  0  0  0
   39.0416  -11.4843   37.1037 H   0  0  0  0  0  0  0  0  0  0  0  0
   38.4725  -12.3436   35.6495 H   0  0  0  0  0  0  0  0  0  0  0  0
   36.7485  -17.6487   36.7725 C   0  0  0  0  0  0  0  0  0  0  0  0
   35.8704  -18.0429   37.5896 O   0  0  0  0  0  0  0  0  0  0  0  0
   36.9999  -16.3409   36.4677 N   0  0  0  0  0  0  0  0  0  0  0  0
   37.7770  -16.1925   35.7149 H   0  0  0  0  0  0  0  0  0  0  0  0
   39.0103  -20.8867   35.0292 C   0  0  0  0  0  0  0  0  0  0  0  0
   38.2980  -20.0267   34.2301 C   0  0  0  0  0  0  0  0  0  0  0  0
   37.5561  -18.9719   34.7883 C   0  0  0  0  0  0  0  0  0  0  0  0
   37.5227  -18.7722   36.1404 C   0  0  0  0  0  0  0  0  0  0  0  0
   38.2358  -19.6334   36.9396 C   0  0  0  0  0  0  0  0  0  0  0  0
   38.9680  -20.6741   36.3922 C   0  0  0  0  0  0  0  0  0  0  0  0
   41.4180  -24.4263   31.8372 C   0  0  0  0  0  0  0  0  0  0  0  0
   41.2008  -24.1430   33.2380 N   0  0  0  0  0  0  0  0  0  0  0  0
   39.8012  -24.1829   33.5957 C   0  0  0  0  0  0  0  0  0  0  0  0
   39.5190  -23.3593   34.8481 C   0  0  0  0  0  0  0  0  0  0  0  0
   39.7899  -21.9783   34.5116 N   0  0  0  0  0  0  0  0  0  0  0  0
   40.9089  -21.7361   33.6156 C   0  0  0  0  0  0  0  0  0  0  0  0
   41.8395  -22.9150   33.6548 C   0  0  0  0  0  0  0  0  0  0  0  0
   33.5943  -12.4124   37.8242 N   0  0  0  0  0  0  0  0  0  0  0  0
   32.8252  -12.8754   38.4000 H   0  0  0  0  0  0  0  0  0  0  0  0
   33.3761  -11.0969   37.4284 C   0  0  0  0  0  0  0  0  0  0  0  0
   32.2345  -10.4179   37.6615 C   0  0  0  0  0  0  0  0  0  0  0  0
   32.0754   -9.0867   37.2369 C   0  0  0  0  0  0  0  0  0  0  0  0
   33.0669   -8.4301   36.5736 C   0  0  0  0  0  0  0  0  0  0  0  0
   32.9297   -7.1624   36.1631 N   0  0  0  0  0  0  0  0  0  0  0  0
   33.8932   -6.5005   35.5095 C   0  0  0  0  0  0  0  0  0  0  0  0
   35.0844   -7.1402   35.2408 C   0  0  0  0  0  0  0  0  0  0  0  0
   35.2354   -8.4282   35.6529 C   0  0  0  0  0  0  0  0  0  0  0  0
   34.2318   -9.0981   36.3265 C   0  0  0  0  0  0  0  0  0  0  0  0
   34.3804  -10.3872   36.7400 C   0  0  0  0  0  0  0  0  0  0  0  0
 21 22  1  0  0  0
 22 23  1  0  0  0
 23 24  1  0  0  0
 24 25  1  0  0  0
 25 26  1  0  0  0
 26 27  1  0  0  0
 25 15  1  0  0  0
 15 16  2  0  0  0
 16 17  1  0  0  0
 17 18  2  0  0  0
 18 19  1  0  0  0
 19 20  2  0  0  0
 18 11  1  0  0  0
 11 12  2  0  0  0
 11 13  1  0  0  0
 13  1  1  0  0  0
  1  2  1  0  0  0
  2  3  1  0  0  0
  3 28  1  0  0  0
 28 30  1  0  0  0
 30 31  2  0  0  0
 31 32  1  0  0  0
 32 33  2  0  0  0
 33 34  1  0  0  0
 34 35  2  0  0  0
 35 36  1  0  0  0
 36 37  2  0  0  0
 37 38  1  0  0  0
 38 39  2  0  0  0
  3  4  2  0  0  0
  4  5  1  0  0  0
  5  6  1  0  0  0
  6  7  1  0  0  0
  6  8  2  0  0  0
 27 22  1  0  0  0
 20 15  1  0  0  0
  5  1  2  0  0  0
 39 30  1  0  0  0
 38 33  1  0  0  0
 13 14  1  0  0  0
 28 29  1  0  0  0
  7  9  1  0  0  0
  7 10  1  0  0  0
M  END
> <minimizedAffinity>
-6.71773

> <CNNscore>
0.5239669085

> <CNNaffinity>
6.7394666672

> <CNN_VS>
3.5312576294

> <CNNaffinity_variance>
0.5954383612

$$$$
[H]c1nc2c([H])c([H])c(N([H])c3nc(C(=O)N([H])[H])c(N([H])C(=O)c4c([H])c([H])c(N5C([H])([H])C([H])([H])N(C([H])([H])[H])C([H])([H])C5([H])[H])c([H])c4[H])s3)c([H])c2c([H])c1[H]


 39 43  0  0  0  0  0  0  0  0999 V2000
   33.4851  -11.0016   37.0711 C   0  0  0  0  0  0  0  0  0  0  0  0
   31.8604  -10.9627   37.7825 S   0  0  0  0  0  0  0  0  0  0  0  0
   31.6058   -9.2727   37.7800 C   0  0  0  0  0  0  0  0  0  0  0  0
   32.7200   -8.8595   37.2566 N   0  0  0  0  0  0  0  0  0  0  0  0
   33.6794   -9.6731   36.8848 C   0  0  0  0  0  0  0  0  0  0  0  0
   34.7799   -9.0792   36.0645 C   0  0  0  0  0  0  0  0  0  0  0  0
   34.7669   -7.6328   35.9059 N   0  0  0  0  0  0  0  0  0  0  0  0
   35.6814   -9.6973   35.5232 O   0  0  0  0  0  0  0  0  0  0  0  0
   35.5670   -7.0428   36.2205 H   0  0  0  0  0  0  0  0  0  0  0  0
   33.9531   -7.1526   35.4721 H   0  0  0  0  0  0  0  0  0  0  0  0
   34.1807  -13.3910   37.5010 C   0  0  0  0  0  0  0  0  0  0  0  0
   33.5175  -13.6428   38.5455 O   0  0  0  0  0  0  0  0  0  0  0  0
   34.1494  -12.2049   36.8236 N   0  0  0  0  0  0  0  0  0  0  0  0
   34.7672  -12.1809   35.9235 H   0  0  0  0  0  0  0  0  0  0  0  0
   36.5763  -16.7231   36.1602 C   0  0  0  0  0  0  0  0  0  0  0  0
   37.0568  -15.8604   37.1144 C   0  0  0  0  0  0  0  0  0  0  0  0
   36.2860  -14.7712   37.5548 C   0  0  0  0  0  0  0  0  0  0  0  0
   35.0380  -14.5399   37.0469 C   0  0  0  0  0  0  0  0  0  0  0  0
   34.5577  -15.4036   36.0918 C   0  0  0  0  0  0  0  0  0  0  0  0
   35.3153  -16.4782   35.6556 C   0  0  0  0  0  0  0  0  0  0  0  0
   40.4572  -20.1631   34.8875 C   0  0  0  0  0  0  0  0  0  0  0  0
   39.0362  -19.9595   34.7167 N   0  0  0  0  0  0  0  0  0  0  0  0
   38.7391  -18.7520   33.9805 C   0  0  0  0  0  0  0  0  0  0  0  0
   37.3337  -18.2425   34.2832 C   0  0  0  0  0  0  0  0  0  0  0  0
   37.3193  -17.8554   35.6773 N   0  0  0  0  0  0  0  0  0  0  0  0
   38.0979  -18.6792   36.5878 C   0  0  0  0  0  0  0  0  0  0  0  0
   38.3174  -20.0305   35.9689 C   0  0  0  0  0  0  0  0  0  0  0  0
   30.4640   -8.5591   38.2369 N   0  0  0  0  0  0  0  0  0  0  0  0
   30.5699   -7.4989   38.1911 H   0  0  0  0  0  0  0  0  0  0  0  0
   29.2564   -9.0486   38.7236 C   0  0  0  0  0  0  0  0  0  0  0  0
   28.4418   -8.3620   39.5506 C   0  0  0  0  0  0  0  0  0  0  0  0
   27.2308   -8.9119   40.0073 C   0  0  0  0  0  0  0  0  0  0  0  0
   26.8320  -10.1590   39.6333 C   0  0  0  0  0  0  0  0  0  0  0  0
   25.6814  -10.6958   40.0603 N   0  0  0  0  0  0  0  0  0  0  0  0
   25.2727  -11.9203   39.7035 C   0  0  0  0  0  0  0  0  0  0  0  0
   26.0616  -12.6727   38.8597 C   0  0  0  0  0  0  0  0  0  0  0  0
   27.2328  -12.1379   38.4194 C   0  0  0  0  0  0  0  0  0  0  0  0
   27.6411  -10.8726   38.7964 C   0  0  0  0  0  0  0  0  0  0  0  0
   28.8129  -10.3351   38.3571 C   0  0  0  0  0  0  0  0  0  0  0  0
 21 22  1  0  0  0
 22 23  1  0  0  0
 23 24  1  0  0  0
 24 25  1  0  0  0
 25 26  1  0  0  0
 26 27  1  0  0  0
 25 15  1  0  0  0
 15 16  2  0  0  0
 16 17  1  0  0  0
 17 18  2  0  0  0
 18 19  1  0  0  0
 19 20  2  0  0  0
 18 11  1  0  0  0
 11 12  2  0  0  0
 11 13  1  0  0  0
 13  1  1  0  0  0
  1  2  1  0  0  0
  2  3  1  0  0  0
  3 28  1  0  0  0
 28 30  1  0  0  0
 30 31  2  0  0  0
 31 32  1  0  0  0
 32 33  2  0  0  0
 33 34  1  0  0  0
 34 35  2  0  0  0
 35 36  1  0  0  0
 36 37  2  0  0  0
 37 38  1  0  0  0
 38 39  2  0  0  0
  3  4  2  0  0  0
  4  5  1  0  0  0
  5  6  1  0  0  0
  6  7  1  0  0  0
  6  8  2  0  0  0
 27 22  1  0  0  0
 20 15  1  0  0  0
  5  1  2  0  0  0
 39 30  1  0  0  0
 38 33  1  0  0  0
 13 14  1  0  0  0
 28 29  1  0  0  0
  7  9  1  0  0  0
  7 10  1  0  0  0
M  END
> <minimizedAffinity>
-9.30958

> <CNNscore>
0.4292723835

> <CNNaffinity>
6.9069814682

> <CNN_VS>
2.9649763107

> <CNNaffinity_variance>
0.0961687863

$$$$
[H]c1nc2c([H])c([H])c(N([H])c3nc(C(=O)N([H])[H])c(N([H])C(=O)c4c([H])c([H])c(N5C([H])([H])C([H])([H])N(C([H])([H])[H])C([H])([H])C5([H])[H])c([H])c4[H])s3)c([H])c2c([H])c1[H]


 39 43  0  0  0  0  0  0  0  0999 V2000
   36.3492  -17.5988   36.7348 C   0  0  0  0  0  0  0  0  0  0  0  0
   37.1267  -16.0891   37.2483 S   0  0  0  0  0  0  0  0  0  0  0  0
   36.1950  -14.9830   36.3376 C   0  0  0  0  0  0  0  0  0  0  0  0
   35.3818  -15.7926   35.7297 N   0  0  0  0  0  0  0  0  0  0  0  0
   35.4131  -17.0935   35.8947 C   0  0  0  0  0  0  0  0  0  0  0  0
   34.2583  -17.8661   35.3411 C   0  0  0  0  0  0  0  0  0  0  0  0
   33.0468  -17.1125   35.0557 N   0  0  0  0  0  0  0  0  0  0  0  0
   34.2452  -19.0633   35.1081 O   0  0  0  0  0  0  0  0  0  0  0  0
   32.6405  -17.0768   34.0961 H   0  0  0  0  0  0  0  0  0  0  0  0
   32.5562  -16.5890   35.8083 H   0  0  0  0  0  0  0  0  0  0  0  0
   37.9361  -19.5049   37.2101 C   0  0  0  0  0  0  0  0  0  0  0  0
   39.0004  -19.0550   36.7013 O   0  0  0  0  0  0  0  0  0  0  0  0
   36.7443  -18.8379   37.2437 N   0  0  0  0  0  0  0  0  0  0  0  0
   35.9399  -19.3731   37.7527 H   0  0  0  0  0  0  0  0  0  0  0  0
   38.4600  -23.4473   38.8904 C   0  0  0  0  0  0  0  0  0  0  0  0
   37.2401  -23.0595   38.3933 C   0  0  0  0  0  0  0  0  0  0  0  0
   37.0589  -21.7775   37.8475 C   0  0  0  0  0  0  0  0  0  0  0  0
   38.0901  -20.8813   37.7957 C   0  0  0  0  0  0  0  0  0  0  0  0
   39.3108  -21.2700   38.2935 C   0  0  0  0  0  0  0  0  0  0  0  0
   39.4924  -22.5332   38.8323 C   0  0  0  0  0  0  0  0  0  0  0  0
   38.1743  -27.9428   41.7579 C   0  0  0  0  0  0  0  0  0  0  0  0
   39.0265  -27.2730   40.8016 N   0  0  0  0  0  0  0  0  0  0  0  0
   39.5294  -26.0138   41.3017 C   0  0  0  0  0  0  0  0  0  0  0  0
   39.9201  -25.0750   40.1648 C   0  0  0  0  0  0  0  0  0  0  0  0
   38.7026  -24.7472   39.4547 N   0  0  0  0  0  0  0  0  0  0  0  0
   37.7188  -25.8101   39.3283 C   0  0  0  0  0  0  0  0  0  0  0  0
   38.3982  -27.1382   39.5067 C   0  0  0  0  0  0  0  0  0  0  0  0
   36.3148  -13.5669   36.2928 N   0  0  0  0  0  0  0  0  0  0  0  0
   37.2642  -13.2242   35.9483 H   0  0  0  0  0  0  0  0  0  0  0  0
   35.3807  -12.5932   36.6301 C   0  0  0  0  0  0  0  0  0  0  0  0
   34.3124  -12.8143   37.4230 C   0  0  0  0  0  0  0  0  0  0  0  0
   33.4033  -11.7860   37.7292 C   0  0  0  0  0  0  0  0  0  0  0  0
   33.5648  -10.5264   37.2379 C   0  0  0  0  0  0  0  0  0  0  0  0
   32.7072   -9.5371   37.5208 N   0  0  0  0  0  0  0  0  0  0  0  0
   32.8494   -8.2925   37.0470 C   0  0  0  0  0  0  0  0  0  0  0  0
   33.9218   -8.0028   36.2306 C   0  0  0  0  0  0  0  0  0  0  0  0
   34.7997   -8.9998   35.9361 C   0  0  0  0  0  0  0  0  0  0  0  0
   34.6396  -10.2795   36.4328 C   0  0  0  0  0  0  0  0  0  0  0  0
   35.5169  -11.2790   36.1395 C   0  0  0  0  0  0  0  0  0  0  0  0
 21 22  1  0  0  0
 22 23  1  0  0  0
 23 24  1  0  0  0
 24 25  1  0  0  0
 25 26  1  0  0  0
 26 27  1  0  0  0
 25 15  1  0  0  0
 15 16  2  0  0  0
 16 17  1  0  0  0
 17 18  2  0  0  0
 18 19  1  0  0  0
 19 20  2  0  0  0
 18 11  1  0  0  0
 11 12  2  0  0  0
 11 13  1  0  0  0
 13  1  1  0  0  0
  1  2  1  0  0  0
  2  3  1  0  0  0
  3 28  1  0  0  0
 28 30  1  0  0  0
 30 31  2  0  0  0
 31 32  1  0  0  0
 32 33  2  0  0  0
 33 34  1  0  0  0
 34 35  2  0  0  0
 35 36  1  0  0  0
 36 37  2  0  0  0
 37 38  1  0  0  0
 38 39  2  0  0  0
  3  4  2  0  0  0
  4  5  1  0  0  0
  5  6  1  0  0  0
  6  7  1  0  0  0
  6  8  2  0  0  0
 27 22  1  0  0  0
 20 15  1  0  0  0
  5  1  2  0  0  0
 39 30  1  0  0  0
 38 33  1  0  0  0
 13 14  1  0  0  0
 28 29  1  0  0  0
  7  9  1  0  0  0
  7 10  1  0  0  0
M  END
> <minimizedAffinity>
-6.56579

> <CNNscore>
0.4041618407

> <CNNaffinity>
5.8416719437

> <CNN_VS>
2.3609809875

> <CNNaffinity_variance>
0.0623469353

$$$$
[H]c1nc2c([H])c([H])c(N([H])c3nc(C(=O)N([H])[H])c(N([H])C(=O)c4c([H])c([H])c(N5C([H])([H])C([H])([H])N(C([H])([H])[H])C([H])([H])C5([H])[H])c([H])c4[H])s3)c([H])c2c([H])c1[H]


 39 43  0  0  0  0  0  0  0  0999 V2000
   33.3329  -19.7606   43.6412 C   0  0  0  0  0  0  0  0  0  0  0  0
   32.5089  -18.1985   43.8089 S   0  0  0  0  0  0  0  0  0  0  0  0
   30.9251  -18.6828   43.3870 C   0  0  0  0  0  0  0  0  0  0  0  0
   31.1100  -19.9478   43.1596 N   0  0  0  0  0  0  0  0  0  0  0  0
   32.2793  -20.5309   43.2753 C   0  0  0  0  0  0  0  0  0  0  0  0
   32.2877  -22.0260   43.2401 C   0  0  0  0  0  0  0  0  0  0  0  0
   32.5646  -22.7061   44.4963 N   0  0  0  0  0  0  0  0  0  0  0  0
   32.0821  -22.7191   42.2576 O   0  0  0  0  0  0  0  0  0  0  0  0
   31.8809  -23.3706   44.9186 H   0  0  0  0  0  0  0  0  0  0  0  0
   33.4571  -22.5427   45.0042 H   0  0  0  0  0  0  0  0  0  0  0  0
   35.3596  -20.4478   44.9821 C   0  0  0  0  0  0  0  0  0  0  0  0
   34.8070  -21.0019   45.9729 O   0  0  0  0  0  0  0  0  0  0  0  0
   34.6938  -19.9062   43.9191 N   0  0  0  0  0  0  0  0  0  0  0  0
   35.3407  -19.4968   43.1403 H   0  0  0  0  0  0  0  0  0  0  0  0
   39.6736  -20.4140   45.1498 C   0  0  0  0  0  0  0  0  0  0  0  0
   38.9328  -20.4487   46.3055 C   0  0  0  0  0  0  0  0  0  0  0  0
   37.5284  -20.4566   46.2613 C   0  0  0  0  0  0  0  0  0  0  0  0
   36.8607  -20.4303   45.0686 C   0  0  0  0  0  0  0  0  0  0  0  0
   37.6027  -20.3954   43.9122 C   0  0  0  0  0  0  0  0  0  0  0  0
   38.9873  -20.3874   43.9526 C   0  0  0  0  0  0  0  0  0  0  0  0
   44.8254  -19.7745   46.4005 C   0  0  0  0  0  0  0  0  0  0  0  0
   43.9794  -20.2030   45.3095 N   0  0  0  0  0  0  0  0  0  0  0  0
   43.1145  -19.1459   44.8374 C   0  0  0  0  0  0  0  0  0  0  0  0
   41.8805  -19.7029   44.1351 C   0  0  0  0  0  0  0  0  0  0  0  0
   41.1113  -20.4096   45.1365 N   0  0  0  0  0  0  0  0  0  0  0  0
   41.8682  -21.1341   46.1444 C   0  0  0  0  0  0  0  0  0  0  0  0
   43.2498  -21.4110   45.6228 C   0  0  0  0  0  0  0  0  0  0  0  0
   29.7535  -17.8802   43.3195 N   0  0  0  0  0  0  0  0  0  0  0  0
   28.8540  -18.4087   43.5411 H   0  0  0  0  0  0  0  0  0  0  0  0
   29.6278  -16.5298   43.0105 C   0  0  0  0  0  0  0  0  0  0  0  0
   29.7662  -15.5337   43.9091 C   0  0  0  0  0  0  0  0  0  0  0  0
   29.6290  -14.1855   43.5336 C   0  0  0  0  0  0  0  0  0  0  0  0
   29.3510  -13.8315   42.2485 C   0  0  0  0  0  0  0  0  0  0  0  0
   29.2175  -12.5517   41.8762 N   0  0  0  0  0  0  0  0  0  0  0  0
   28.9442  -12.1843   40.6176 C   0  0  0  0  0  0  0  0  0  0  0  0
   28.7910  -13.1563   39.6521 C   0  0  0  0  0  0  0  0  0  0  0  0
   28.9244  -14.4600   40.0184 C   0  0  0  0  0  0  0  0  0  0  0  0
   29.2067  -14.8235   41.3215 C   0  0  0  0  0  0  0  0  0  0  0  0
   29.3406  -16.1276   41.6907 C   0  0  0  0  0  0  0  0  0  0  0  0
 21 22  1  0  0  0
 22 23  1  0  0  0
 23 24  1  0  0  0
 24 25  1  0  0  0
 25 26  1  0  0  0
 26 27  1  0  0  0
 25 15  1  0  0  0
 15 16  2  0  0  0
 16 17  1  0  0  0
 17 18  2  0  0  0
 18 19  1  0  0  0
 19 20  2  0  0  0
 18 11  1  0  0  0
 11 12  2  0  0  0
 11 13  1  0  0  0
 13  1  1  0  0  0
  1  2  1  0  0  0
  2  3  1  0  0  0
  3 28  1  0  0  0
 28 30  1  0  0  0
 30 31  2  0  0  0
 31 32  1  0  0  0
 32 33  2  0  0  0
 33 34  1  0  0  0
 34 35  2  0  0  0
 35 36  1  0  0  0
 36 37  2  0  0  0
 37 38  1  0  0  0
 38 39  2  0  0  0
  3  4  2  0  0  0
  4  5  1  0  0  0
  5  6  1  0  0  0
  6  7  1  0  0  0
  6  8  2  0  0  0
 27 22  1  0  0  0
 20 15  1  0  0  0
  5  1  2  0  0  0
 39 30  1  0  0  0
 38 33  1  0  0  0
 13 14  1  0  0  0
 28 29  1  0  0  0
  7  9  1  0  0  0
  7 10  1  0  0  0
M  END
> <minimizedAffinity>
-5.03852

> <CNNscore>
0.4026866555

> <CNNaffinity>
5.0805439949

> <CNN_VS>
2.0458672047

> <CNNaffinity_variance>
0.0951452851

$$$$
[H]c1nc2c([H])c([H])c(N([H])c3nc(C(=O)N([H])[H])c(N([H])C(=O)c4c([H])c([H])c(N5C([H])([H])C([H])([H])N(C([H])([H])[H])C([H])([H])C5([H])[H])c([H])c4[H])s3)c([H])c2c([H])c1[H]


 39 43  0  0  0  0  0  0  0  0999 V2000
   36.2985  -16.4303   36.3355 C   0  0  0  0  0  0  0  0  0  0  0  0
   36.0880  -15.1259   37.5193 S   0  0  0  0  0  0  0  0  0  0  0  0
   34.4711  -14.6998   37.1657 C   0  0  0  0  0  0  0  0  0  0  0  0
   34.2000  -15.5417   36.2150 N   0  0  0  0  0  0  0  0  0  0  0  0
   35.0663  -16.4207   35.7708 C   0  0  0  0  0  0  0  0  0  0  0  0
   34.5340  -17.4873   34.8676 C   0  0  0  0  0  0  0  0  0  0  0  0
   33.1720  -17.3136   34.3859 N   0  0  0  0  0  0  0  0  0  0  0  0
   35.1388  -18.4812   34.5012 O   0  0  0  0  0  0  0  0  0  0  0  0
   32.9575  -17.2559   33.3671 H   0  0  0  0  0  0  0  0  0  0  0  0
   32.3771  -17.2424   35.0522 H   0  0  0  0  0  0  0  0  0  0  0  0
   37.8245  -18.4217   36.6248 C   0  0  0  0  0  0  0  0  0  0  0  0
   37.0260  -19.2553   37.1364 O   0  0  0  0  0  0  0  0  0  0  0  0
   37.4901  -17.1530   36.2438 N   0  0  0  0  0  0  0  0  0  0  0  0
   38.3065  -16.5858   35.7918 H   0  0  0  0  0  0  0  0  0  0  0  0
   41.8342  -19.9754   36.2409 C   0  0  0  0  0  0  0  0  0  0  0  0
   41.3049  -19.1676   35.2648 C   0  0  0  0  0  0  0  0  0  0  0  0
   39.9997  -18.6598   35.3791 C   0  0  0  0  0  0  0  0  0  0  0  0
   39.2212  -18.9548   36.4635 C   0  0  0  0  0  0  0  0  0  0  0  0
   39.7516  -19.7635   37.4401 C   0  0  0  0  0  0  0  0  0  0  0  0
   41.0379  -20.2657   37.3301 C   0  0  0  0  0  0  0  0  0  0  0  0
   46.5419  -21.8679   34.5761 C   0  0  0  0  0  0  0  0  0  0  0  0
   45.7727  -21.6756   35.7848 N   0  0  0  0  0  0  0  0  0  0  0  0
   44.5388  -22.4279   35.7760 C   0  0  0  0  0  0  0  0  0  0  0  0
   43.5035  -21.8177   36.7153 C   0  0  0  0  0  0  0  0  0  0  0  0
   43.1643  -20.5177   36.1777 N   0  0  0  0  0  0  0  0  0  0  0  0
   44.2474  -19.7661   35.5647 C   0  0  0  0  0  0  0  0  0  0  0  0
   45.5614  -20.2772   36.0841 C   0  0  0  0  0  0  0  0  0  0  0  0
   33.6787  -13.6897   37.7769 N   0  0  0  0  0  0  0  0  0  0  0  0
   33.0129  -14.0562   38.5251 H   0  0  0  0  0  0  0  0  0  0  0  0
   33.6575  -12.3203   37.5344 C   0  0  0  0  0  0  0  0  0  0  0  0
   32.7428  -11.4758   38.0531 C   0  0  0  0  0  0  0  0  0  0  0  0
   32.7759  -10.0985   37.7713 C   0  0  0  0  0  0  0  0  0  0  0  0
   33.7322   -9.5621   36.9639 C   0  0  0  0  0  0  0  0  0  0  0  0
   33.7764   -8.2524   36.6865 N   0  0  0  0  0  0  0  0  0  0  0  0
   34.7088   -7.7068   35.8949 C   0  0  0  0  0  0  0  0  0  0  0  0
   35.6722   -8.5178   35.3339 C   0  0  0  0  0  0  0  0  0  0  0  0
   35.6375   -9.8501   35.6084 C   0  0  0  0  0  0  0  0  0  0  0  0
   34.6688  -10.3984   36.4275 C   0  0  0  0  0  0  0  0  0  0  0  0
   34.6320  -11.7315   36.7038 C   0  0  0  0  0  0  0  0  0  0  0  0
 21 22  1  0  0  0
 22 23  1  0  0  0
 23 24  1  0  0  0
 24 25  1  0  0  0
 25 26  1  0  0  0
 26 27  1  0  0  0
 25 15  1  0  0  0
 15 16  2  0  0  0
 16 17  1  0  0  0
 17 18  2  0  0  0
 18 19  1  0  0  0
 19 20  2  0  0  0
 18 11  1  0  0  0
 11 12  2  0  0  0
 11 13  1  0  0  0
 13  1  1  0  0  0
  1  2  1  0  0  0
  2  3  1  0  0  0
  3 28  1  0  0  0
 28 30  1  0  0  0
 30 31  2  0  0  0
 31 32  1  0  0  0
 32 33  2  0  0  0
 33 34  1  0  0  0
 34 35  2  0  0  0
 35 36  1  0  0  0
 36 37  2  0  0  0
 37 38  1  0  0  0
 38 39  2  0  0  0
  3  4  2  0  0  0
  4  5  1  0  0  0
  5  6  1  0  0  0
  6  7  1  0  0  0
  6  8  2  0  0  0
 27 22  1  0  0  0
 20 15  1  0  0  0
  5  1  2  0  0  0
 39 30  1  0  0  0
 38 33  1  0  0  0
 13 14  1  0  0  0
 28 29  1  0  0  0
  7  9  1  0  0  0
  7 10  1  0  0  0
M  END
> <minimizedAffinity>
-7.07080

> <CNNscore>
0.3756354153

> <CNNaffinity>
6.2800927162

> <CNN_VS>
2.3590252399

> <CNNaffinity_variance>
0.3533879817

$$$$
[H]c1nc2c([H])c([H])c(N([H])c3nc(C(=O)N([H])[H])c(N([H])C(=O)c4c([H])c([H])c(N5C([H])([H])C([H])([H])N(C([H])([H])[H])C([H])([H])C5([H])[H])c([H])c4[H])s3)c([H])c2c([H])c1[H]


 39 43  0  0  0  0  0  0  0  0999 V2000
   33.5192  -19.8828   36.4292 C   0  0  0  0  0  0  0  0  0  0  0  0
   32.2142  -21.0838   36.3892 S   0  0  0  0  0  0  0  0  0  0  0  0
   30.9844  -20.1221   35.6938 C   0  0  0  0  0  0  0  0  0  0  0  0
   31.6146  -18.9977   35.5364 N   0  0  0  0  0  0  0  0  0  0  0  0
   32.8694  -18.8282   35.8791 C   0  0  0  0  0  0  0  0  0  0  0  0
   33.5303  -17.5750   35.4000 C   0  0  0  0  0  0  0  0  0  0  0  0
   32.9260  -16.9176   34.2511 N   0  0  0  0  0  0  0  0  0  0  0  0
   34.5230  -17.0594   35.8864 O   0  0  0  0  0  0  0  0  0  0  0  0
   32.5772  -15.9364   34.3058 H   0  0  0  0  0  0  0  0  0  0  0  0
   32.8278  -17.4159   33.3438 H   0  0  0  0  0  0  0  0  0  0  0  0
   35.3467  -20.1644   38.1495 C   0  0  0  0  0  0  0  0  0  0  0  0
   34.7267  -19.8474   39.2026 O   0  0  0  0  0  0  0  0  0  0  0  0
   34.7951  -20.2007   36.9000 N   0  0  0  0  0  0  0  0  0  0  0  0
   35.4777  -20.5277   36.1129 H   0  0  0  0  0  0  0  0  0  0  0  0
   39.4725  -21.1839   38.9099 C   0  0  0  0  0  0  0  0  0  0  0  0
   39.1364  -20.4019   37.8323 C   0  0  0  0  0  0  0  0  0  0  0  0
   37.7962  -20.0674   37.5746 C   0  0  0  0  0  0  0  0  0  0  0  0
   36.7905  -20.5101   38.3880 C   0  0  0  0  0  0  0  0  0  0  0  0
   37.1274  -21.2929   39.4663 C   0  0  0  0  0  0  0  0  0  0  0  0
   38.4478  -21.6243   39.7228 C   0  0  0  0  0  0  0  0  0  0  0  0
   44.7231  -21.1268   39.8802 C   0  0  0  0  0  0  0  0  0  0  0  0
   43.6185  -22.0473   39.7313 N   0  0  0  0  0  0  0  0  0  0  0  0
   43.0291  -21.9892   38.4131 C   0  0  0  0  0  0  0  0  0  0  0  0
   41.5871  -22.4860   38.4214 C   0  0  0  0  0  0  0  0  0  0  0  0
   40.8265  -21.5519   39.2233 N   0  0  0  0  0  0  0  0  0  0  0  0
   41.5003  -20.9954   40.3852 C   0  0  0  0  0  0  0  0  0  0  0  0
   42.6347  -21.8979   40.7800 C   0  0  0  0  0  0  0  0  0  0  0  0
   29.6477  -20.4977   35.3878 N   0  0  0  0  0  0  0  0  0  0  0  0
   29.2840  -20.0926   34.4706 H   0  0  0  0  0  0  0  0  0  0  0  0
   28.7728  -21.3041   36.1082 C   0  0  0  0  0  0  0  0  0  0  0  0
   28.2033  -20.9445   37.2766 C   0  0  0  0  0  0  0  0  0  0  0  0
   27.3239  -21.8053   37.9572 C   0  0  0  0  0  0  0  0  0  0  0  0
   27.0119  -23.0357   37.4643 C   0  0  0  0  0  0  0  0  0  0  0  0
   26.1761  -23.8663   38.1014 N   0  0  0  0  0  0  0  0  0  0  0  0
   25.8575  -25.0796   37.6324 C   0  0  0  0  0  0  0  0  0  0  0  0
   26.4072  -25.5055   36.4421 C   0  0  0  0  0  0  0  0  0  0  0  0
   27.2578  -24.6704   35.7858 C   0  0  0  0  0  0  0  0  0  0  0  0
   27.5768  -23.4209   36.2825 C   0  0  0  0  0  0  0  0  0  0  0  0
   28.4279  -22.5833   35.6276 C   0  0  0  0  0  0  0  0  0  0  0  0
 21 22  1  0  0  0
 22 23  1  0  0  0
 23 24  1  0  0  0
 24 25  1  0  0  0
 25 26  1  0  0  0
 26 27  1  0  0  0
 25 15  1  0  0  0
 15 16  2  0  0  0
 16 17  1  0  0  0
 17 18  2  0  0  0
 18 19  1  0  0  0
 19 20  2  0  0  0
 18 11  1  0  0  0
 11 12  2  0  0  0
 11 13  1  0  0  0
 13  1  1  0  0  0
  1  2  1  0  0  0
  2  3  1  0  0  0
  3 28  1  0  0  0
 28 30  1  0  0  0
 30 31  2  0  0  0
 31 32  1  0  0  0
 32 33  2  0  0  0
 33 34  1  0  0  0
 34 35  2  0  0  0
 35 36  1  0  0  0
 36 37  2  0  0  0
 37 38  1  0  0  0
 38 39  2  0  0  0
  3  4  2  0  0  0
  4  5  1  0  0  0
  5  6  1  0  0  0
  6  7  1  0  0  0
  6  8  2  0  0  0
 27 22  1  0  0  0
 20 15  1  0  0  0
  5  1  2  0  0  0
 39 30  1  0  0  0
 38 33  1  0  0  0
 13 14  1  0  0  0
 28 29  1  0  0  0
  7  9  1  0  0  0
  7 10  1  0  0  0
M  END
> <minimizedAffinity>
-6.20230

> <CNNscore>
0.3523212969

> <CNNaffinity>
5.0209350586

> <CNN_VS>
1.7689824104

> <CNNaffinity_variance>
0.3569995463

$$$$
[H]c1nc2c([H])c([H])c(N([H])c3nc(C(=O)N([H])[H])c(N([H])C(=O)c4c([H])c([H])c(N5C([H])([H])C([H])([H])N(C([H])([H])[H])C([H])([H])C5([H])[H])c([H])c4[H])s3)c([H])c2c([H])c1[H]


 39 43  0  0  0  0  0  0  0  0999 V2000
   34.9341  -17.2558   36.1818 C   0  0  0  0  0  0  0  0  0  0  0  0
   34.4170  -15.5607   36.1005 S   0  0  0  0  0  0  0  0  0  0  0  0
   35.9411  -14.8059   36.2696 C   0  0  0  0  0  0  0  0  0  0  0  0
   36.7165  -15.8429   36.3677 N   0  0  0  0  0  0  0  0  0  0  0  0
   36.2698  -17.0754   36.3257 C   0  0  0  0  0  0  0  0  0  0  0  0
   37.2958  -18.1546   36.1862 C   0  0  0  0  0  0  0  0  0  0  0  0
   38.0860  -18.1487   34.9645 N   0  0  0  0  0  0  0  0  0  0  0  0
   37.5269  -19.0310   37.0025 O   0  0  0  0  0  0  0  0  0  0  0  0
   39.1252  -18.0653   34.9879 H   0  0  0  0  0  0  0  0  0  0  0  0
   37.6282  -18.2279   34.0343 H   0  0  0  0  0  0  0  0  0  0  0  0
   33.1105  -18.6171   35.0866 C   0  0  0  0  0  0  0  0  0  0  0  0
   32.9440  -17.9668   34.0173 O   0  0  0  0  0  0  0  0  0  0  0  0
   34.0242  -18.3077   36.0541 N   0  0  0  0  0  0  0  0  0  0  0  0
   34.0453  -19.0027   36.8961 H   0  0  0  0  0  0  0  0  0  0  0  0
   30.4065  -21.9612   35.4678 C   0  0  0  0  0  0  0  0  0  0  0  0
   31.7650  -22.1574   35.5054 C   0  0  0  0  0  0  0  0  0  0  0  0
   32.6531  -21.0759   35.3789 C   0  0  0  0  0  0  0  0  0  0  0  0
   32.1908  -19.7998   35.2153 C   0  0  0  0  0  0  0  0  0  0  0  0
   30.8309  -19.6040   35.1775 C   0  0  0  0  0  0  0  0  0  0  0  0
   29.9529  -20.6682   35.3019 C   0  0  0  0  0  0  0  0  0  0  0  0
   27.1221  -25.7199   37.3649 C   0  0  0  0  0  0  0  0  0  0  0  0
   27.6437  -25.2101   36.1168 N   0  0  0  0  0  0  0  0  0  0  0  0
   29.0792  -25.3485   36.0242 C   0  0  0  0  0  0  0  0  0  0  0  0
   29.6766  -24.3468   35.0413 C   0  0  0  0  0  0  0  0  0  0  0  0
   29.4532  -23.0297   35.5973 N   0  0  0  0  0  0  0  0  0  0  0  0
   28.1971  -22.8266   36.3007 C   0  0  0  0  0  0  0  0  0  0  0  0
   27.2036  -23.8593   35.8492 C   0  0  0  0  0  0  0  0  0  0  0  0
   36.2308  -13.4141   36.2896 N   0  0  0  0  0  0  0  0  0  0  0  0
   37.2443  -13.1801   36.0539 H   0  0  0  0  0  0  0  0  0  0  0  0
   35.3882  -12.3432   36.5686 C   0  0  0  0  0  0  0  0  0  0  0  0
   34.3171  -12.4182   37.3848 C   0  0  0  0  0  0  0  0  0  0  0  0
   33.5035  -11.2974   37.6287 C   0  0  0  0  0  0  0  0  0  0  0  0
   33.7640  -10.0921   37.0512 C   0  0  0  0  0  0  0  0  0  0  0  0
   32.9981   -9.0160   37.2741 N   0  0  0  0  0  0  0  0  0  0  0  0
   33.2384   -7.8229   36.7153 C   0  0  0  0  0  0  0  0  0  0  0  0
   34.3189   -7.6817   35.8709 C   0  0  0  0  0  0  0  0  0  0  0  0
   35.1043   -8.7680   35.6367 C   0  0  0  0  0  0  0  0  0  0  0  0
   34.8435   -9.9929   36.2210 C   0  0  0  0  0  0  0  0  0  0  0  0
   35.6281  -11.0816   35.9883 C   0  0  0  0  0  0  0  0  0  0  0  0
 21 22  1  0  0  0
 22 23  1  0  0  0
 23 24  1  0  0  0
 24 25  1  0  0  0
 25 26  1  0  0  0
 26 27  1  0  0  0
 25 15  1  0  0  0
 15 16  2  0  0  0
 16 17  1  0  0  0
 17 18  2  0  0  0
 18 19  1  0  0  0
 19 20  2  0  0  0
 18 11  1  0  0  0
 11 12  2  0  0  0
 11 13  1  0  0  0
 13  1  1  0  0  0
  1  2  1  0  0  0
  2  3  1  0  0  0
  3 28  1  0  0  0
 28 30  1  0  0  0
 30 31  2  0  0  0
 31 32  1  0  0  0
 32 33  2  0  0  0
 33 34  1  0  0  0
 34 35  2  0  0  0
 35 36  1  0  0  0
 36 37  2  0  0  0
 37 38  1  0  0  0
 38 39  2  0  0  0
  3  4  2  0  0  0
  4  5  1  0  0  0
  5  6  1  0  0  0
  6  7  1  0  0  0
  6  8  2  0  0  0
 27 22  1  0  0  0
 20 15  1  0  0  0
  5  1  2  0  0  0
 39 30  1  0  0  0
 38 33  1  0  0  0
 13 14  1  0  0  0
 28 29  1  0  0  0
  7  9  1  0  0  0
  7 10  1  0  0  0
M  END
> <minimizedAffinity>
-8.44980

> <CNNscore>
0.3430420756

> <CNNaffinity>
5.9458923340

> <CNN_VS>
2.0396912098

> <CNNaffinity_variance>
0.0529023334

$$$$
[H]c1nc2c([H])c([H])c(N([H])c3nc(C(=O)N([H])[H])c(N([H])C(=O)c4c([H])c([H])c(N5C([H])([H])C([H])([H])N(C([H])([H])[H])C([H])([H])C5([H])[H])c([H])c4[H])s3)c([H])c2c([H])c1[H]


 39 43  0  0  0  0  0  0  0  0999 V2000
   34.5501  -19.2363   35.5610 C   0  0  0  0  0  0  0  0  0  0  0  0
   33.2590  -20.4091   35.2366 S   0  0  0  0  0  0  0  0  0  0  0  0
   31.9163  -19.3530   35.2904 C   0  0  0  0  0  0  0  0  0  0  0  0
   32.5058  -18.2223   35.5355 N   0  0  0  0  0  0  0  0  0  0  0  0
   33.8053  -18.1094   35.6735 C   0  0  0  0  0  0  0  0  0  0  0  0
   34.3583  -16.7200   35.6890 C   0  0  0  0  0  0  0  0  0  0  0  0
   33.3920  -15.6346   35.7615 N   0  0  0  0  0  0  0  0  0  0  0  0
   35.5401  -16.4205   35.6485 O   0  0  0  0  0  0  0  0  0  0  0  0
   33.4022  -14.9472   36.5455 H   0  0  0  0  0  0  0  0  0  0  0  0
   32.6645  -15.5201   35.0275 H   0  0  0  0  0  0  0  0  0  0  0  0
   36.7747  -19.7929   36.6188 C   0  0  0  0  0  0  0  0  0  0  0  0
   36.4864  -19.6782   37.8427 O   0  0  0  0  0  0  0  0  0  0  0  0
   35.8944  -19.6139   35.5895 N   0  0  0  0  0  0  0  0  0  0  0  0
   36.3169  -19.7849   34.5971 H   0  0  0  0  0  0  0  0  0  0  0  0
   40.9281  -20.7498   35.9307 C   0  0  0  0  0  0  0  0  0  0  0  0
   39.9472  -21.6701   35.6541 C   0  0  0  0  0  0  0  0  0  0  0  0
   38.5930  -21.3692   35.8778 C   0  0  0  0  0  0  0  0  0  0  0  0
   38.2142  -20.1538   36.3761 C   0  0  0  0  0  0  0  0  0  0  0  0
   39.1964  -19.2331   36.6528 C   0  0  0  0  0  0  0  0  0  0  0  0
   40.5322  -19.5269   36.4334 C   0  0  0  0  0  0  0  0  0  0  0  0
   46.0616  -22.0924   36.5298 C   0  0  0  0  0  0  0  0  0  0  0  0
   45.1604  -21.5010   35.5666 N   0  0  0  0  0  0  0  0  0  0  0  0
   44.5752  -20.2697   36.0459 C   0  0  0  0  0  0  0  0  0  0  0  0
   43.2593  -19.9620   35.3388 C   0  0  0  0  0  0  0  0  0  0  0  0
   42.3272  -21.0024   35.7163 N   0  0  0  0  0  0  0  0  0  0  0  0
   42.8745  -22.3409   35.8666 C   0  0  0  0  0  0  0  0  0  0  0  0
   44.1634  -22.4383   35.1006 C   0  0  0  0  0  0  0  0  0  0  0  0
   30.5431  -19.6735   35.1078 N   0  0  0  0  0  0  0  0  0  0  0  0
   30.0112  -18.9705   34.5075 H   0  0  0  0  0  0  0  0  0  0  0  0
   29.8192  -20.7561   35.5962 C   0  0  0  0  0  0  0  0  0  0  0  0
   28.8211  -20.6521   36.4973 C   0  0  0  0  0  0  0  0  0  0  0  0
   28.1245  -21.7862   36.9515 C   0  0  0  0  0  0  0  0  0  0  0  0
   28.4294  -23.0342   36.5002 C   0  0  0  0  0  0  0  0  0  0  0  0
   27.7747  -24.1234   36.9237 N   0  0  0  0  0  0  0  0  0  0  0  0
   28.0603  -25.3585   36.4916 C   0  0  0  0  0  0  0  0  0  0  0  0
   29.0707  -25.5309   35.5697 C   0  0  0  0  0  0  0  0  0  0  0  0
   29.7430  -24.4318   35.1321 C   0  0  0  0  0  0  0  0  0  0  0  0
   29.4366  -23.1634   35.5874 C   0  0  0  0  0  0  0  0  0  0  0  0
   30.1079  -22.0617   35.1510 C   0  0  0  0  0  0  0  0  0  0  0  0
 21 22  1  0  0  0
 22 23  1  0  0  0
 23 24  1  0  0  0
 24 25  1  0  0  0
 25 26  1  0  0  0
 26 27  1  0  0  0
 25 15  1  0  0  0
 15 16  2  0  0  0
 16 17  1  0  0  0
 17 18  2  0  0  0
 18 19  1  0  0  0
 19 20  2  0  0  0
 18 11  1  0  0  0
 11 12  2  0  0  0
 11 13  1  0  0  0
 13  1  1  0  0  0
  1  2  1  0  0  0
  2  3  1  0  0  0
  3 28  1  0  0  0
 28 30  1  0  0  0
 30 31  2  0  0  0
 31 32  1  0  0  0
 32 33  2  0  0  0
 33 34  1  0  0  0
 34 35  2  0  0  0
 35 36  1  0  0  0
 36 37  2  0  0  0
 37 38  1  0  0  0
 38 39  2  0  0  0
  3  4  2  0  0  0
  4  5  1  0  0  0
  5  6  1  0  0  0
  6  7  1  0  0  0
  6  8  2  0  0  0
 27 22  1  0  0  0
 20 15  1  0  0  0
  5  1  2  0  0  0
 39 30  1  0  0  0
 38 33  1  0  0  0
 13 14  1  0  0  0
 28 29  1  0  0  0
  7  9  1  0  0  0
  7 10  1  0  0  0
M  END
> <minimizedAffinity>
-6.03300

> <CNNscore>
0.3140268624

> <CNNaffinity>
5.2132501602

> <CNN_VS>
1.6371005774

> <CNNaffinity_variance>
0.2856699824

$$$$
[H]c1nc2c([H])c([H])c(N([H])c3nc(C(=O)N([H])[H])c(N([H])C(=O)c4c([H])c([H])c(N5C([H])([H])C([H])([H])N(C([H])([H])[H])C([H])([H])C5([H])[H])c([H])c4[H])s3)c([H])c2c([H])c1[H]


 39 43  0  0  0  0  0  0  0  0999 V2000
   36.3889  -16.9084   36.1524 C   0  0  0  0  0  0  0  0  0  0  0  0
   36.6445  -15.4412   37.1164 S   0  0  0  0  0  0  0  0  0  0  0  0
   35.0807  -14.7625   36.9936 C   0  0  0  0  0  0  0  0  0  0  0  0
   34.4844  -15.6560   36.2640 N   0  0  0  0  0  0  0  0  0  0  0  0
   35.0845  -16.7370   35.8262 C   0  0  0  0  0  0  0  0  0  0  0  0
   34.2096  -17.7922   35.2279 C   0  0  0  0  0  0  0  0  0  0  0  0
   33.0372  -17.3311   34.4997 N   0  0  0  0  0  0  0  0  0  0  0  0
   34.3935  -18.9961   35.2952 O   0  0  0  0  0  0  0  0  0  0  0  0
   32.8942  -17.5639   33.4934 H   0  0  0  0  0  0  0  0  0  0  0  0
   32.3111  -16.7548   34.9707 H   0  0  0  0  0  0  0  0  0  0  0  0
   37.9512  -18.4032   34.8477 C   0  0  0  0  0  0  0  0  0  0  0  0
   37.6383  -18.0920   33.6647 O   0  0  0  0  0  0  0  0  0  0  0  0
   37.4015  -17.8530   35.9709 N   0  0  0  0  0  0  0  0  0  0  0  0
   37.8190  -18.2254   36.9087 H   0  0  0  0  0  0  0  0  0  0  0  0
   40.9462  -21.5069   35.0394 C   0  0  0  0  0  0  0  0  0  0  0  0
   41.1549  -20.2997   35.6595 C   0  0  0  0  0  0  0  0  0  0  0  0
   40.1876  -19.2822   35.6000 C   0  0  0  0  0  0  0  0  0  0  0  0
   39.0133  -19.4650   34.9244 C   0  0  0  0  0  0  0  0  0  0  0  0
   38.8050  -20.6735   34.3038 C   0  0  0  0  0  0  0  0  0  0  0  0
   39.7568  -21.6784   34.3607 C   0  0  0  0  0  0  0  0  0  0  0  0
   44.5452  -25.2301   33.7357 C   0  0  0  0  0  0  0  0  0  0  0  0
   43.7654  -24.7674   34.8614 N   0  0  0  0  0  0  0  0  0  0  0  0
   42.3438  -24.8870   34.6309 C   0  0  0  0  0  0  0  0  0  0  0  0
   41.5509  -23.9201   35.5044 C   0  0  0  0  0  0  0  0  0  0  0  0
   41.8986  -22.5836   35.0724 N   0  0  0  0  0  0  0  0  0  0  0  0
   43.2796  -22.3697   34.6713 C   0  0  0  0  0  0  0  0  0  0  0  0
   44.1437  -23.4368   35.2811 C   0  0  0  0  0  0  0  0  0  0  0  0
   34.6080  -13.5460   37.5577 N   0  0  0  0  0  0  0  0  0  0  0  0
   34.1225  -13.6662   38.4997 H   0  0  0  0  0  0  0  0  0  0  0  0
   34.6930  -12.2514   37.0563 C   0  0  0  0  0  0  0  0  0  0  0  0
   35.6770  -11.8208   36.2406 C   0  0  0  0  0  0  0  0  0  0  0  0
   35.7063  -10.4978   35.7648 C   0  0  0  0  0  0  0  0  0  0  0  0
   34.7430   -9.5987   36.1081 C   0  0  0  0  0  0  0  0  0  0  0  0
   34.7578   -8.3354   35.6628 N   0  0  0  0  0  0  0  0  0  0  0  0
   33.8197   -7.4372   35.9895 C   0  0  0  0  0  0  0  0  0  0  0  0
   32.7870   -7.8162   36.8204 C   0  0  0  0  0  0  0  0  0  0  0  0
   32.7613   -9.0970   37.2792 C   0  0  0  0  0  0  0  0  0  0  0  0
   33.7368  -10.0126   36.9331 C   0  0  0  0  0  0  0  0  0  0  0  0
   33.7134  -11.2951   37.3910 C   0  0  0  0  0  0  0  0  0  0  0  0
 21 22  1  0  0  0
 22 23  1  0  0  0
 23 24  1  0  0  0
 24 25  1  0  0  0
 25 26  1  0  0  0
 26 27  1  0  0  0
 25 15  1  0  0  0
 15 16  2  0  0  0
 16 17  1  0  0  0
 17 18  2  0  0  0
 18 19  1  0  0  0
 19 20  2  0  0  0
 18 11  1  0  0  0
 11 12  2  0  0  0
 11 13  1  0  0  0
 13  1  1  0  0  0
  1  2  1  0  0  0
  2  3  1  0  0  0
  3 28  1  0  0  0
 28 30  1  0  0  0
 30 31  2  0  0  0
 31 32  1  0  0  0
 32 33  2  0  0  0
 33 34  1  0  0  0
 34 35  2  0  0  0
 35 36  1  0  0  0
 36 37  2  0  0  0
 37 38  1  0  0  0
 38 39  2  0  0  0
  3  4  2  0  0  0
  4  5  1  0  0  0
  5  6  1  0  0  0
  6  7  1  0  0  0
  6  8  2  0  0  0
 27 22  1  0  0  0
 20 15  1  0  0  0
  5  1  2  0  0  0
 39 30  1  0  0  0
 38 33  1  0  0  0
 13 14  1  0  0  0
 28 29  1  0  0  0
  7  9  1  0  0  0
  7 10  1  0  0  0
M  END
> <minimizedAffinity>
-7.37648

> <CNNscore>
0.2865631878

> <CNNaffinity>
5.8258504868

> <CNN_VS>
1.6694742441

> <CNNaffinity_variance>
0.1696331501

$$$$
[H]N=C(N([H])[H])N([H])C([H])([H])C([H])([H])C([H])([H])[C@@]([H])(C(=O)N([H])[C@]([H])(C(=O)N([H])[H])C([H])([H])c1c([H])c([H])c([H])c([H])c1[H])N([H])C(=O)[C@@]([H])(N([H])C(=O)OC(C([H])([H])[H])(C([H])([H])[H])C([H])([H])[H])C([H])([H])c1c([H])c([H])c([H])c([H])c1[H]


 50 51  0  0  0  0  0  0  0  0999 V2000
   39.7142  -19.4371   34.9312 C   0  0  0  0  0  0  0  0  0  0  0  0
   37.3261  -19.4769   35.9086 C   0  0  0  0  0  0  0  0  0  0  0  0
   37.2480  -20.6836   36.2000 O   0  0  0  0  0  0  0  0  0  0  0  0
   38.4403  -18.8705   35.3114 N   0  0  0  0  0  0  0  0  0  0  0  0
   38.3050  -17.8056   35.1198 H   0  0  0  0  0  0  0  0  0  0  0  0
   36.1476  -18.5384   36.1993 C   0  0  0  0  0  0  0  0  0  0  0  0
   33.8112  -19.8155   36.8006 C   0  0  0  0  0  0  0  0  0  0  0  0
   33.6810  -20.8699   37.3964 O   0  0  0  0  0  0  0  0  0  0  0  0
   35.0160  -19.1569   36.4905 N   0  0  0  0  0  0  0  0  0  0  0  0
   35.6725  -20.0943   37.2169 H   0  0  0  0  0  0  0  0  0  0  0  0
   32.5998  -19.2165   36.3809 O   0  0  0  0  0  0  0  0  0  0  0  0
   32.7760  -20.5610   34.4142 C   0  0  0  0  0  0  0  0  0  0  0  0
   32.2901  -19.2723   35.0137 C   0  0  0  0  0  0  0  0  0  0  0  0
   30.7979  -19.1412   34.8582 C   0  0  0  0  0  0  0  0  0  0  0  0
   32.9008  -18.1040   34.2559 C   0  0  0  0  0  0  0  0  0  0  0  0
   36.7292  -17.5979   37.2692 C   0  0  0  0  0  0  0  0  0  0  0  0
   36.3693  -16.2019   37.0464 C   0  0  0  0  0  0  0  0  0  0  0  0
   37.0937  -15.1385   37.5639 C   0  0  0  0  0  0  0  0  0  0  0  0
   36.7677  -13.8192   37.3441 C   0  0  0  0  0  0  0  0  0  0  0  0
   35.6720  -13.5383   36.5751 C   0  0  0  0  0  0  0  0  0  0  0  0
   34.9018  -14.5622   36.0257 C   0  0  0  0  0  0  0  0  0  0  0  0
   35.2737  -15.8884   36.2784 C   0  0  0  0  0  0  0  0  0  0  0  0
   40.7422  -18.8202   35.7777 C   0  0  0  0  0  0  0  0  0  0  0  0
   40.3984  -18.7850   37.0356 O   0  0  0  0  0  0  0  0  0  0  0  0
   41.9796  -18.2669   35.4354 N   0  0  0  0  0  0  0  0  0  0  0  0
   42.3430  -18.1986   34.4874 H   0  0  0  0  0  0  0  0  0  0  0  0
   42.8060  -17.6991   36.4916 C   0  0  0  0  0  0  0  0  0  0  0  0
   43.2305  -16.2963   36.1027 C   0  0  0  0  0  0  0  0  0  0  0  0
   43.4331  -15.9122   34.7582 N   0  0  0  0  0  0  0  0  0  0  0  0
   43.4045  -15.4869   37.0315 O   0  0  0  0  0  0  0  0  0  0  0  0
   44.4065  -15.8666   34.3437 H   0  0  0  0  0  0  0  0  0  0  0  0
   42.6469  -15.6671   34.1351 H   0  0  0  0  0  0  0  0  0  0  0  0
   43.9236  -18.5422   36.9513 C   0  0  0  0  0  0  0  0  0  0  0  0
   43.7397  -19.0202   38.3510 C   0  0  0  0  0  0  0  0  0  0  0  0
   42.9794  -18.3084   39.2502 C   0  0  0  0  0  0  0  0  0  0  0  0
   42.7936  -18.7210   40.5601 C   0  0  0  0  0  0  0  0  0  0  0  0
   43.3859  -19.8969   41.0009 C   0  0  0  0  0  0  0  0  0  0  0  0
   44.1465  -20.6224   40.1229 C   0  0  0  0  0  0  0  0  0  0  0  0
   44.3182  -20.1856   38.8148 C   0  0  0  0  0  0  0  0  0  0  0  0
   39.9894  -19.4467   33.4495 C   0  0  0  0  0  0  0  0  0  0  0  0
   40.9227  -20.5348   33.0497 C   0  0  0  0  0  0  0  0  0  0  0  0
   40.9731  -21.6807   34.0677 C   0  0  0  0  0  0  0  0  0  0  0  0
   40.3975  -22.8028   33.3852 N   0  0  0  0  0  0  0  0  0  0  0  0
   40.8407  -23.1618   32.5109 H   0  0  0  0  0  0  0  0  0  0  0  0
   39.2449  -23.4581   33.8367 C   0  0  0  0  0  0  0  0  0  0  0  0
   38.5106  -23.0023   34.9836 N   0  0  0  0  0  0  0  0  0  0  0  0
   38.7991  -24.4842   33.2546 N   0  0  0  0  0  0  0  0  0  0  0  0
   38.8823  -23.1728   35.9378 H   0  0  0  0  0  0  0  0  0  0  0  0
   37.6265  -22.5012   34.7998 H   0  0  0  0  0  0  0  0  0  0  0  0
   39.1614  -24.9582   32.4522 H   0  0  0  0  0  0  0  0  0  0  0  0
 12 13  1  0  0  0
 13 14  1  0  0  0
 13 15  1  0  0  0
 13 11  1  0  0  0
 11  7  1  0  0  0
  7  8  2  0  0  0
  7  9  1  0  0  0
  9  6  1  0  0  0
  6 16  1  0  0  0
 16 17  1  0  0  0
 17 18  2  0  0  0
 18 19  1  0  0  0
 19 20  2  0  0  0
 20 21  1  0  0  0
 21 22  2  0  0  0
  6  2  1  0  0  0
  2  3  2  0  0  0
  2  4  1  0  0  0
  4  1  1  0  0  0
  1 40  1  0  0  0
 40 41  1  0  0  0
 41 42  1  0  0  0
 42 43  1  0  0  0
 43 45  1  0  0  0
 45 46  1  0  0  0
 45 47  2  0  0  0
  1 23  1  0  0  0
 23 24  2  0  0  0
 23 25  1  0  0  0
 25 27  1  0  0  0
 27 33  1  0  0  0
 33 34  1  0  0  0
 34 35  2  0  0  0
 35 36  1  0  0  0
 36 37  2  0  0  0
 37 38  1  0  0  0
 38 39  2  0  0  0
 27 28  1  0  0  0
 28 29  1  0  0  0
 28 30  2  0  0  0
 22 17  1  0  0  0
 39 34  1  0  0  0
  9 10  1  0  0  0
  4  5  1  0  0  0
 43 44  1  0  0  0
 46 48  1  0  0  0
 46 49  1  0  0  0
 47 50  1  0  0  0
 25 26  1  0  0  0
 29 31  1  0  0  0
 29 32  1  0  0  0
M  END
> <minimizedAffinity>
-7.28579

> <CNNscore>
0.7188869715

> <CNNaffinity>
6.6609926224

> <CNN_VS>
4.7885007858

> <CNNaffinity_variance>
0.1410482526

$$$$
[H]N=C(N([H])[H])N([H])C([H])([H])C([H])([H])C([H])([H])[C@@]([H])(C(=O)N([H])[C@]([H])(C(=O)N([H])[H])C([H])([H])c1c([H])c([H])c([H])c([H])c1[H])N([H])C(=O)[C@@]([H])(N([H])C(=O)OC(C([H])([H])[H])(C([H])([H])[H])C([H])([H])[H])C([H])([H])c1c([H])c([H])c([H])c([H])c1[H]


 50 51  0  0  0  0  0  0  0  0999 V2000
   39.5439  -20.2608   35.4074 C   0  0  0  0  0  0  0  0  0  0  0  0
   37.6481  -18.6273   34.7769 C   0  0  0  0  0  0  0  0  0  0  0  0
   38.2241  -17.9874   33.8792 O   0  0  0  0  0  0  0  0  0  0  0  0
   38.2285  -19.6714   35.5109 N   0  0  0  0  0  0  0  0  0  0  0  0
   37.5646  -20.0932   36.2661 H   0  0  0  0  0  0  0  0  0  0  0  0
   36.1984  -18.2915   35.1507 C   0  0  0  0  0  0  0  0  0  0  0  0
   35.7473  -15.6466   35.6530 C   0  0  0  0  0  0  0  0  0  0  0  0
   34.6746  -15.0694   35.6502 O   0  0  0  0  0  0  0  0  0  0  0  0
   35.9800  -17.0105   35.3940 N   0  0  0  0  0  0  0  0  0  0  0  0
   34.6377  -17.1910   35.3385 H   0  0  0  0  0  0  0  0  0  0  0  0
   36.8628  -14.8263   35.9447 O   0  0  0  0  0  0  0  0  0  0  0  0
   36.6041  -15.0741   38.3065 C   0  0  0  0  0  0  0  0  0  0  0  0
   36.8543  -14.1320   37.1637 C   0  0  0  0  0  0  0  0  0  0  0  0
   38.1812  -13.4383   37.3254 C   0  0  0  0  0  0  0  0  0  0  0  0
   35.7984  -13.0378   37.1743 C   0  0  0  0  0  0  0  0  0  0  0  0
   35.4026  -18.9335   34.0010 C   0  0  0  0  0  0  0  0  0  0  0  0
   34.0153  -19.2055   34.3607 C   0  0  0  0  0  0  0  0  0  0  0  0
   33.2926  -18.4218   35.2479 C   0  0  0  0  0  0  0  0  0  0  0  0
   31.9787  -18.6647   35.5791 C   0  0  0  0  0  0  0  0  0  0  0  0
   31.3491  -19.7346   35.0049 C   0  0  0  0  0  0  0  0  0  0  0  0
   32.0201  -20.5613   34.1050 C   0  0  0  0  0  0  0  0  0  0  0  0
   33.3563  -20.2732   33.8003 C   0  0  0  0  0  0  0  0  0  0  0  0
   40.4826  -19.3706   36.1003 C   0  0  0  0  0  0  0  0  0  0  0  0
   39.9244  -18.7281   37.0891 O   0  0  0  0  0  0  0  0  0  0  0  0
   41.8319  -19.1082   35.8455 N   0  0  0  0  0  0  0  0  0  0  0  0
   42.3685  -19.5142   35.0822 H   0  0  0  0  0  0  0  0  0  0  0  0
   42.5289  -18.1518   36.6943 C   0  0  0  0  0  0  0  0  0  0  0  0
   42.7215  -16.8514   35.9387 C   0  0  0  0  0  0  0  0  0  0  0  0
   42.6789  -16.7822   34.5281 N   0  0  0  0  0  0  0  0  0  0  0  0
   42.9308  -15.8330   36.6221 O   0  0  0  0  0  0  0  0  0  0  0  0
   43.5691  -16.7561   33.9551 H   0  0  0  0  0  0  0  0  0  0  0  0
   41.7867  -16.7579   34.0085 H   0  0  0  0  0  0  0  0  0  0  0  0
   43.7615  -18.6449   37.3338 C   0  0  0  0  0  0  0  0  0  0  0  0
   43.5413  -19.0701   38.7453 C   0  0  0  0  0  0  0  0  0  0  0  0
   44.3570  -20.0046   39.3407 C   0  0  0  0  0  0  0  0  0  0  0  0
   44.1761  -20.4267   40.6483 C   0  0  0  0  0  0  0  0  0  0  0  0
   43.1398  -19.8959   41.4047 C   0  0  0  0  0  0  0  0  0  0  0  0
   42.3155  -18.9635   40.8329 C   0  0  0  0  0  0  0  0  0  0  0  0
   42.5179  -18.5583   39.5190 C   0  0  0  0  0  0  0  0  0  0  0  0
   39.9391  -20.6948   34.0194 C   0  0  0  0  0  0  0  0  0  0  0  0
   40.5901  -22.0331   34.0038 C   0  0  0  0  0  0  0  0  0  0  0  0
   41.7143  -22.1368   32.9657 C   0  0  0  0  0  0  0  0  0  0  0  0
   41.4630  -23.3684   32.2754 N   0  0  0  0  0  0  0  0  0  0  0  0
   40.8759  -24.1051   32.7250 H   0  0  0  0  0  0  0  0  0  0  0  0
   41.9756  -23.6445   31.0015 C   0  0  0  0  0  0  0  0  0  0  0  0
   41.7557  -22.7667   29.8864 N   0  0  0  0  0  0  0  0  0  0  0  0
   42.6550  -24.6825   30.7751 N   0  0  0  0  0  0  0  0  0  0  0  0
   40.8289  -22.7452   29.4191 H   0  0  0  0  0  0  0  0  0  0  0  0
   42.5499  -22.1719   29.6000 H   0  0  0  0  0  0  0  0  0  0  0  0
   42.9136  -25.4139   31.4059 H   0  0  0  0  0  0  0  0  0  0  0  0
 12 13  1  0  0  0
 13 14  1  0  0  0
 13 15  1  0  0  0
 13 11  1  0  0  0
 11  7  1  0  0  0
  7  8  2  0  0  0
  7  9  1  0  0  0
  9  6  1  0  0  0
  6 16  1  0  0  0
 16 17  1  0  0  0
 17 18  2  0  0  0
 18 19  1  0  0  0
 19 20  2  0  0  0
 20 21  1  0  0  0
 21 22  2  0  0  0
  6  2  1  0  0  0
  2  3  2  0  0  0
  2  4  1  0  0  0
  4  1  1  0  0  0
  1 40  1  0  0  0
 40 41  1  0  0  0
 41 42  1  0  0  0
 42 43  1  0  0  0
 43 45  1  0  0  0
 45 46  1  0  0  0
 45 47  2  0  0  0
  1 23  1  0  0  0
 23 24  2  0  0  0
 23 25  1  0  0  0
 25 27  1  0  0  0
 27 33  1  0  0  0
 33 34  1  0  0  0
 34 35  2  0  0  0
 35 36  1  0  0  0
 36 37  2  0  0  0
 37 38  1  0  0  0
 38 39  2  0  0  0
 27 28  1  0  0  0
 28 29  1  0  0  0
 28 30  2  0  0  0
 22 17  1  0  0  0
 39 34  1  0  0  0
  9 10  1  0  0  0
  4  5  1  0  0  0
 43 44  1  0  0  0
 46 48  1  0  0  0
 46 49  1  0  0  0
 47 50  1  0  0  0
 25 26  1  0  0  0
 29 31  1  0  0  0
 29 32  1  0  0  0
M  END
> <minimizedAffinity>
-6.99191

> <CNNscore>
0.5057302117

> <CNNaffinity>
6.3289833069

> <CNN_VS>
3.2007579803

> <CNNaffinity_variance>
0.1389636695

$$$$
[H]N=C(N([H])[H])N([H])C([H])([H])C([H])([H])C([H])([H])[C@@]([H])(C(=O)N([H])[C@]([H])(C(=O)N([H])[H])C([H])([H])c1c([H])c([H])c([H])c([H])c1[H])N([H])C(=O)[C@@]([H])(N([H])C(=O)OC(C([H])([H])[H])(C([H])([H])[H])C([H])([H])[H])C([H])([H])c1c([H])c([H])c([H])c([H])c1[H]


 50 51  0  0  0  0  0  0  0  0999 V2000
   36.8635  -17.9096   35.0961 C   0  0  0  0  0  0  0  0  0  0  0  0
   38.4384  -19.2124   36.6718 C   0  0  0  0  0  0  0  0  0  0  0  0
   37.5919  -19.7142   37.4326 O   0  0  0  0  0  0  0  0  0  0  0  0
   38.1410  -18.3664   35.5940 N   0  0  0  0  0  0  0  0  0  0  0  0
   39.0246  -18.0167   35.0592 H   0  0  0  0  0  0  0  0  0  0  0  0
   39.9299  -19.5044   36.8824 C   0  0  0  0  0  0  0  0  0  0  0  0
   40.5181  -20.7083   39.2606 C   0  0  0  0  0  0  0  0  0  0  0  0
   40.1617  -21.8112   39.6352 O   0  0  0  0  0  0  0  0  0  0  0  0
   40.2148  -20.0874   38.0342 N   0  0  0  0  0  0  0  0  0  0  0  0
   39.6167  -21.2387   37.6415 H   0  0  0  0  0  0  0  0  0  0  0  0
   41.3170  -19.9956   40.1860 O   0  0  0  0  0  0  0  0  0  0  0  0
   43.0650  -18.6170   39.3197 C   0  0  0  0  0  0  0  0  0  0  0  0
   42.6965  -19.9353   39.9380 C   0  0  0  0  0  0  0  0  0  0  0  0
   43.4234  -20.1344   41.2419 C   0  0  0  0  0  0  0  0  0  0  0  0
   43.1479  -21.0629   39.0231 C   0  0  0  0  0  0  0  0  0  0  0  0
   40.3027  -20.2663   35.5987 C   0  0  0  0  0  0  0  0  0  0  0  0
   41.7051  -20.6667   35.5696 C   0  0  0  0  0  0  0  0  0  0  0  0
   42.1168  -21.9905   35.5297 C   0  0  0  0  0  0  0  0  0  0  0  0
   43.4383  -22.3738   35.4867 C   0  0  0  0  0  0  0  0  0  0  0  0
   44.3991  -21.4004   35.4829 C   0  0  0  0  0  0  0  0  0  0  0  0
   44.0510  -20.0511   35.5217 C   0  0  0  0  0  0  0  0  0  0  0  0
   42.6930  -19.7115   35.5653 C   0  0  0  0  0  0  0  0  0  0  0  0
   36.5149  -16.6874   35.8299 C   0  0  0  0  0  0  0  0  0  0  0  0
   35.9708  -16.9385   36.9888 O   0  0  0  0  0  0  0  0  0  0  0  0
   36.6582  -15.3452   35.4661 N   0  0  0  0  0  0  0  0  0  0  0  0
   37.0303  -15.0211   34.5763 H   0  0  0  0  0  0  0  0  0  0  0  0
   36.2056  -14.3186   36.3947 C   0  0  0  0  0  0  0  0  0  0  0  0
   37.3221  -13.9872   37.3657 C   0  0  0  0  0  0  0  0  0  0  0  0
   38.3764  -13.1066   37.0348 N   0  0  0  0  0  0  0  0  0  0  0  0
   37.2759  -14.5379   38.4804 O   0  0  0  0  0  0  0  0  0  0  0  0
   39.3215  -13.4754   36.7313 H   0  0  0  0  0  0  0  0  0  0  0  0
   38.2644  -12.0807   37.0732 H   0  0  0  0  0  0  0  0  0  0  0  0
   34.9142  -14.5789   37.0550 C   0  0  0  0  0  0  0  0  0  0  0  0
   34.1525  -13.3281   37.3320 C   0  0  0  0  0  0  0  0  0  0  0  0
   32.9238  -13.3672   37.9501 C   0  0  0  0  0  0  0  0  0  0  0  0
   32.1868  -12.2241   38.2163 C   0  0  0  0  0  0  0  0  0  0  0  0
   32.6914  -10.9816   37.8566 C   0  0  0  0  0  0  0  0  0  0  0  0
   33.9131  -10.9184   37.2408 C   0  0  0  0  0  0  0  0  0  0  0  0
   34.6315  -12.0801   36.9839 C   0  0  0  0  0  0  0  0  0  0  0  0
   35.7943  -18.9690   35.0211 C   0  0  0  0  0  0  0  0  0  0  0  0
   34.7931  -18.6946   33.9547 C   0  0  0  0  0  0  0  0  0  0  0  0
   33.4461  -18.2167   34.5107 C   0  0  0  0  0  0  0  0  0  0  0  0
   32.5978  -19.3718   34.4591 N   0  0  0  0  0  0  0  0  0  0  0  0
   32.8439  -20.1690   33.8317 H   0  0  0  0  0  0  0  0  0  0  0  0
   31.4286  -19.4914   35.2209 C   0  0  0  0  0  0  0  0  0  0  0  0
   30.2426  -18.7407   34.9171 N   0  0  0  0  0  0  0  0  0  0  0  0
   31.3652  -20.2662   36.2139 N   0  0  0  0  0  0  0  0  0  0  0  0
   30.1947  -17.7307   35.1521 H   0  0  0  0  0  0  0  0  0  0  0  0
   29.4743  -19.2534   34.4551 H   0  0  0  0  0  0  0  0  0  0  0  0
   32.0725  -20.8647   36.5897 H   0  0  0  0  0  0  0  0  0  0  0  0
 12 13  1  0  0  0
 13 14  1  0  0  0
 13 15  1  0  0  0
 13 11  1  0  0  0
 11  7  1  0  0  0
  7  8  2  0  0  0
  7  9  1  0  0  0
  9  6  1  0  0  0
  6 16  1  0  0  0
 16 17  1  0  0  0
 17 18  2  0  0  0
 18 19  1  0  0  0
 19 20  2  0  0  0
 20 21  1  0  0  0
 21 22  2  0  0  0
  6  2  1  0  0  0
  2  3  2  0  0  0
  2  4  1  0  0  0
  4  1  1  0  0  0
  1 40  1  0  0  0
 40 41  1  0  0  0
 41 42  1  0  0  0
 42 43  1  0  0  0
 43 45  1  0  0  0
 45 46  1  0  0  0
 45 47  2  0  0  0
  1 23  1  0  0  0
 23 24  2  0  0  0
 23 25  1  0  0  0
 25 27  1  0  0  0
 27 33  1  0  0  0
 33 34  1  0  0  0
 34 35  2  0  0  0
 35 36  1  0  0  0
 36 37  2  0  0  0
 37 38  1  0  0  0
 38 39  2  0  0  0
 27 28  1  0  0  0
 28 29  1  0  0  0
 28 30  2  0  0  0
 22 17  1  0  0  0
 39 34  1  0  0  0
  9 10  1  0  0  0
  4  5  1  0  0  0
 43 44  1  0  0  0
 46 48  1  0  0  0
 46 49  1  0  0  0
 47 50  1  0  0  0
 25 26  1  0  0  0
 29 31  1  0  0  0
 29 32  1  0  0  0
M  END
> <minimizedAffinity>
-6.60799

> <CNNscore>
0.3985030055

> <CNNaffinity>
6.3792419434

> <CNN_VS>
2.5421471596

> <CNNaffinity_variance>
0.3656795621

$$$$
[H]N=C(N([H])[H])N([H])C([H])([H])C([H])([H])C([H])([H])[C@@]([H])(C(=O)N([H])[C@]([H])(C(=O)N([H])[H])C([H])([H])c1c([H])c([H])c([H])c([H])c1[H])N([H])C(=O)[C@@]([H])(N([H])C(=O)OC(C([H])([H])[H])(C([H])([H])[H])C([H])([H])[H])C([H])([H])c1c([H])c([H])c([H])c([H])c1[H]


 50 51  0  0  0  0  0  0  0  0999 V2000
   37.1484  -18.2201   35.5489 C   0  0  0  0  0  0  0  0  0  0  0  0
   39.2760  -19.5055   36.2426 C   0  0  0  0  0  0  0  0  0  0  0  0
   39.7138  -19.7936   35.1145 O   0  0  0  0  0  0  0  0  0  0  0  0
   38.0917  -18.7940   36.4812 N   0  0  0  0  0  0  0  0  0  0  0  0
   37.8719  -18.6587   37.5407 H   0  0  0  0  0  0  0  0  0  0  0  0
   40.0453  -19.9361   37.4983 C   0  0  0  0  0  0  0  0  0  0  0  0
   39.3147  -22.3729   38.4877 C   0  0  0  0  0  0  0  0  0  0  0  0
   38.4904  -23.1394   38.0218 O   0  0  0  0  0  0  0  0  0  0  0  0
   39.6915  -21.1163   37.9776 N   0  0  0  0  0  0  0  0  0  0  0  0
   38.9056  -21.3592   36.9001 H   0  0  0  0  0  0  0  0  0  0  0  0
   39.9381  -22.8213   39.6762 O   0  0  0  0  0  0  0  0  0  0  0  0
   38.1661  -21.6837   40.8043 C   0  0  0  0  0  0  0  0  0  0  0  0
   39.5804  -22.1849   40.8742 C   0  0  0  0  0  0  0  0  0  0  0  0
   39.7419  -23.1692   42.0025 C   0  0  0  0  0  0  0  0  0  0  0  0
   40.5102  -21.0230   41.1871 C   0  0  0  0  0  0  0  0  0  0  0  0
   41.5113  -19.7656   37.0634 C   0  0  0  0  0  0  0  0  0  0  0  0
   42.4400  -19.8090   38.1875 C   0  0  0  0  0  0  0  0  0  0  0  0
   43.2481  -20.9017   38.4638 C   0  0  0  0  0  0  0  0  0  0  0  0
   44.1373  -20.9422   39.5139 C   0  0  0  0  0  0  0  0  0  0  0  0
   44.2317  -19.8489   40.3303 C   0  0  0  0  0  0  0  0  0  0  0  0
   43.4468  -18.7187   40.1063 C   0  0  0  0  0  0  0  0  0  0  0  0
   42.5567  -18.7259   39.0252 C   0  0  0  0  0  0  0  0  0  0  0  0
   36.7214  -16.9257   36.0931 C   0  0  0  0  0  0  0  0  0  0  0  0
   36.2127  -17.0304   37.2898 O   0  0  0  0  0  0  0  0  0  0  0  0
   36.7615  -15.6501   35.5226 N   0  0  0  0  0  0  0  0  0  0  0  0
   37.0971  -15.4437   34.5844 H   0  0  0  0  0  0  0  0  0  0  0  0
   36.2478  -14.5254   36.2920 C   0  0  0  0  0  0  0  0  0  0  0  0
   37.3169  -14.0376   37.2502 C   0  0  0  0  0  0  0  0  0  0  0  0
   38.3613  -13.1768   36.8444 N   0  0  0  0  0  0  0  0  0  0  0  0
   37.2407  -14.4397   38.4251 O   0  0  0  0  0  0  0  0  0  0  0  0
   39.3264  -13.5540   36.6257 H   0  0  0  0  0  0  0  0  0  0  0  0
   38.2227  -12.1584   36.7438 H   0  0  0  0  0  0  0  0  0  0  0  0
   34.9384  -14.7358   36.9344 C   0  0  0  0  0  0  0  0  0  0  0  0
   34.2564  -13.4545   37.2732 C   0  0  0  0  0  0  0  0  0  0  0  0
   33.1348  -13.4362   38.0700 C   0  0  0  0  0  0  0  0  0  0  0  0
   32.4732  -12.2637   38.3987 C   0  0  0  0  0  0  0  0  0  0  0  0
   32.9462  -11.0498   37.9185 C   0  0  0  0  0  0  0  0  0  0  0  0
   34.0617  -11.0437   37.1240 C   0  0  0  0  0  0  0  0  0  0  0  0
   34.7059  -12.2340   36.8081 C   0  0  0  0  0  0  0  0  0  0  0  0
   36.0496  -19.1498   35.1023 C   0  0  0  0  0  0  0  0  0  0  0  0
   34.9432  -18.4344   34.4102 C   0  0  0  0  0  0  0  0  0  0  0  0
   33.7225  -19.3276   34.1568 C   0  0  0  0  0  0  0  0  0  0  0  0
   32.6212  -18.6165   34.7382 N   0  0  0  0  0  0  0  0  0  0  0  0
   32.6201  -17.5726   34.7399 H   0  0  0  0  0  0  0  0  0  0  0  0
   31.5217  -19.2607   35.3193 C   0  0  0  0  0  0  0  0  0  0  0  0
   31.6621  -20.4765   36.0707 N   0  0  0  0  0  0  0  0  0  0  0  0
   30.3529  -18.8007   35.2066 N   0  0  0  0  0  0  0  0  0  0  0  0
   31.8235  -21.3750   35.5764 H   0  0  0  0  0  0  0  0  0  0  0  0
   31.6057  -20.3961   37.0987 H   0  0  0  0  0  0  0  0  0  0  0  0
   30.0447  -17.9797   34.7263 H   0  0  0  0  0  0  0  0  0  0  0  0
 12 13  1  0  0  0
 13 14  1  0  0  0
 13 15  1  0  0  0
 13 11  1  0  0  0
 11  7  1  0  0  0
  7  8  2  0  0  0
  7  9  1  0  0  0
  9  6  1  0  0  0
  6 16  1  0  0  0
 16 17  1  0  0  0
 17 18  2  0  0  0
 18 19  1  0  0  0
 19 20  2  0  0  0
 20 21  1  0  0  0
 21 22  2  0  0  0
  6  2  1  0  0  0
  2  3  2  0  0  0
  2  4  1  0  0  0
  4  1  1  0  0  0
  1 40  1  0  0  0
 40 41  1  0  0  0
 41 42  1  0  0  0
 42 43  1  0  0  0
 43 45  1  0  0  0
 45 46  1  0  0  0
 45 47  2  0  0  0
  1 23  1  0  0  0
 23 24  2  0  0  0
 23 25  1  0  0  0
 25 27  1  0  0  0
 27 33  1  0  0  0
 33 34  1  0  0  0
 34 35  2  0  0  0
 35 36  1  0  0  0
 36 37  2  0  0  0
 37 38  1  0  0  0
 38 39  2  0  0  0
 27 28  1  0  0  0
 28 29  1  0  0  0
 28 30  2  0  0  0
 22 17  1  0  0  0
 39 34  1  0  0  0
  9 10  1  0  0  0
  4  5  1  0  0  0
 43 44  1  0  0  0
 46 48  1  0  0  0
 46 49  1  0  0  0
 47 50  1  0  0  0
 25 26  1  0  0  0
 29 31  1  0  0  0
 29 32  1  0  0  0
M  END
> <minimizedAffinity>
-6.61932

> <CNNscore>
0.3357310891

> <CNNaffinity>
6.2675676346

> <CNN_VS>
2.1042172909

> <CNNaffinity_variance>
0.5056422353

$$$$
[H]N=C(N([H])[H])N([H])C([H])([H])C([H])([H])C([H])([H])[C@@]([H])(C(=O)N([H])[C@]([H])(C(=O)N([H])[H])C([H])([H])c1c([H])c([H])c([H])c([H])c1[H])N([H])C(=O)[C@@]([H])(N([H])C(=O)OC(C([H])([H])[H])(C([H])([H])[H])C([H])([H])[H])C([H])([H])c1c([H])c([H])c([H])c([H])c1[H]


 50 51  0  0  0  0  0  0  0  0999 V2000
   38.5917  -21.1247   35.0752 C   0  0  0  0  0  0  0  0  0  0  0  0
   37.5010  -19.0552   36.1649 C   0  0  0  0  0  0  0  0  0  0  0  0
   38.5027  -18.5677   36.7182 O   0  0  0  0  0  0  0  0  0  0  0  0
   37.5015  -20.2377   35.4117 N   0  0  0  0  0  0  0  0  0  0  0  0
   36.5184  -20.5067   35.0242 H   0  0  0  0  0  0  0  0  0  0  0  0
   36.1407  -18.3554   36.2837 C   0  0  0  0  0  0  0  0  0  0  0  0
   34.0055  -20.0526   36.3907 C   0  0  0  0  0  0  0  0  0  0  0  0
   34.0306  -21.2563   36.5754 O   0  0  0  0  0  0  0  0  0  0  0  0
   35.1065  -19.1774   36.3355 N   0  0  0  0  0  0  0  0  0  0  0  0
   35.9033  -20.2168   36.6851 H   0  0  0  0  0  0  0  0  0  0  0  0
   32.7130  -19.5063   36.2074 O   0  0  0  0  0  0  0  0  0  0  0  0
   30.7868  -19.1791   34.8330 C   0  0  0  0  0  0  0  0  0  0  0  0
   32.2838  -19.2880   34.8898 C   0  0  0  0  0  0  0  0  0  0  0  0
   32.9297  -18.0259   34.3818 C   0  0  0  0  0  0  0  0  0  0  0  0
   32.7418  -20.4029   33.9627 C   0  0  0  0  0  0  0  0  0  0  0  0
   36.3540  -17.4186   37.4855 C   0  0  0  0  0  0  0  0  0  0  0  0
   36.1428  -16.0150   37.1487 C   0  0  0  0  0  0  0  0  0  0  0  0
   35.0613  -15.5663   36.4054 C   0  0  0  0  0  0  0  0  0  0  0  0
   34.8488  -14.2415   36.0978 C   0  0  0  0  0  0  0  0  0  0  0  0
   35.7496  -13.3156   36.5471 C   0  0  0  0  0  0  0  0  0  0  0  0
   36.8580  -13.7020   37.2992 C   0  0  0  0  0  0  0  0  0  0  0  0
   37.0309  -15.0619   37.5858 C   0  0  0  0  0  0  0  0  0  0  0  0
   39.3620  -21.3627   36.3015 C   0  0  0  0  0  0  0  0  0  0  0  0
   40.6332  -21.1114   36.1495 O   0  0  0  0  0  0  0  0  0  0  0  0
   38.9447  -21.8238   37.5535 N   0  0  0  0  0  0  0  0  0  0  0  0
   37.9906  -22.0906   37.7857 H   0  0  0  0  0  0  0  0  0  0  0  0
   39.9398  -21.9858   38.6044 C   0  0  0  0  0  0  0  0  0  0  0  0
   40.2377  -23.4601   38.7961 C   0  0  0  0  0  0  0  0  0  0  0  0
   39.3012  -24.3542   39.3619 N   0  0  0  0  0  0  0  0  0  0  0  0
   41.3616  -23.8549   38.4372 O   0  0  0  0  0  0  0  0  0  0  0  0
   39.3659  -24.6418   40.3790 H   0  0  0  0  0  0  0  0  0  0  0  0
   38.5248  -24.7539   38.8107 H   0  0  0  0  0  0  0  0  0  0  0  0
   39.6584  -21.2770   39.8654 C   0  0  0  0  0  0  0  0  0  0  0  0
   40.7793  -20.3876   40.2825 C   0  0  0  0  0  0  0  0  0  0  0  0
   40.9844  -20.0778   41.6073 C   0  0  0  0  0  0  0  0  0  0  0  0
   42.0125  -19.2492   42.0284 C   0  0  0  0  0  0  0  0  0  0  0  0
   42.8820  -18.7033   41.0935 C   0  0  0  0  0  0  0  0  0  0  0  0
   42.6974  -18.9986   39.7690 C   0  0  0  0  0  0  0  0  0  0  0  0
   41.6575  -19.8314   39.3730 C   0  0  0  0  0  0  0  0  0  0  0  0
   39.3848  -20.7246   33.8578 C   0  0  0  0  0  0  0  0  0  0  0  0
   39.0715  -19.3431   33.4015 C   0  0  0  0  0  0  0  0  0  0  0  0
   40.3173  -18.4559   33.2883 C   0  0  0  0  0  0  0  0  0  0  0  0
   40.8367  -18.3816   34.6228 N   0  0  0  0  0  0  0  0  0  0  0  0
   40.1808  -18.3162   35.4323 H   0  0  0  0  0  0  0  0  0  0  0  0
   42.2082  -18.3902   34.9068 C   0  0  0  0  0  0  0  0  0  0  0  0
   43.1915  -18.0413   33.9200 N   0  0  0  0  0  0  0  0  0  0  0  0
   42.6434  -18.7081   36.0469 N   0  0  0  0  0  0  0  0  0  0  0  0
   43.4272  -18.7124   33.1639 H   0  0  0  0  0  0  0  0  0  0  0  0
   43.6230  -17.1068   34.0046 H   0  0  0  0  0  0  0  0  0  0  0  0
   42.1313  -18.9844   36.8600 H   0  0  0  0  0  0  0  0  0  0  0  0
 12 13  1  0  0  0
 13 14  1  0  0  0
 13 15  1  0  0  0
 13 11  1  0  0  0
 11  7  1  0  0  0
  7  8  2  0  0  0
  7  9  1  0  0  0
  9  6  1  0  0  0
  6 16  1  0  0  0
 16 17  1  0  0  0
 17 18  2  0  0  0
 18 19  1  0  0  0
 19 20  2  0  0  0
 20 21  1  0  0  0
 21 22  2  0  0  0
  6  2  1  0  0  0
  2  3  2  0  0  0
  2  4  1  0  0  0
  4  1  1  0  0  0
  1 40  1  0  0  0
 40 41  1  0  0  0
 41 42  1  0  0  0
 42 43  1  0  0  0
 43 45  1  0  0  0
 45 46  1  0  0  0
 45 47  2  0  0  0
  1 23  1  0  0  0
 23 24  2  0  0  0
 23 25  1  0  0  0
 25 27  1  0  0  0
 27 33  1  0  0  0
 33 34  1  0  0  0
 34 35  2  0  0  0
 35 36  1  0  0  0
 36 37  2  0  0  0
 37 38  1  0  0  0
 38 39  2  0  0  0
 27 28  1  0  0  0
 28 29  1  0  0  0
 28 30  2  0  0  0
 22 17  1  0  0  0
 39 34  1  0  0  0
  9 10  1  0  0  0
  4  5  1  0  0  0
 43 44  1  0  0  0
 46 48  1  0  0  0
 46 49  1  0  0  0
 47 50  1  0  0  0
 25 26  1  0  0  0
 29 31  1  0  0  0
 29 32  1  0  0  0
M  END
> <minimizedAffinity>
-6.69286

> <CNNscore>
0.3279936612

> <CNNaffinity>
6.0505843163

> <CNN_VS>
1.9845533371

> <CNNaffinity_variance>
0.3120424747

$$$$
[H]N=C(N([H])[H])N([H])C([H])([H])C([H])([H])C([H])([H])[C@@]([H])(C(=O)N([H])[C@]([H])(C(=O)N([H])[H])C([H])([H])c1c([H])c([H])c([H])c([H])c1[H])N([H])C(=O)[C@@]([H])(N([H])C(=O)OC(C([H])([H])[H])(C([H])([H])[H])C([H])([H])[H])C([H])([H])c1c([H])c([H])c([H])c([H])c1[H]


 50 51  0  0  0  0  0  0  0  0999 V2000
   36.8737  -18.4809   35.9700 C   0  0  0  0  0  0  0  0  0  0  0  0
   35.4775  -19.6509   37.7980 C   0  0  0  0  0  0  0  0  0  0  0  0
   35.4026  -18.7207   38.6203 O   0  0  0  0  0  0  0  0  0  0  0  0
   36.1574  -19.5812   36.5738 N   0  0  0  0  0  0  0  0  0  0  0  0
   36.1209  -20.5095   36.0029 H   0  0  0  0  0  0  0  0  0  0  0  0
   34.7978  -20.9943   38.0936 C   0  0  0  0  0  0  0  0  0  0  0  0
   32.6079  -21.5139   36.5491 C   0  0  0  0  0  0  0  0  0  0  0  0
   32.3424  -22.5550   35.9750 O   0  0  0  0  0  0  0  0  0  0  0  0
   33.7371  -21.2459   37.3455 N   0  0  0  0  0  0  0  0  0  0  0  0
   34.0932  -22.5472   37.2137 H   0  0  0  0  0  0  0  0  0  0  0  0
   31.6612  -20.4778   36.3690 O   0  0  0  0  0  0  0  0  0  0  0  0
   32.4850  -20.3930   34.1283 C   0  0  0  0  0  0  0  0  0  0  0  0
   31.8147  -19.6488   35.2477 C   0  0  0  0  0  0  0  0  0  0  0  0
   30.4531  -19.1635   34.8249 C   0  0  0  0  0  0  0  0  0  0  0  0
   32.6247  -18.4057   35.5805 C   0  0  0  0  0  0  0  0  0  0  0  0
   35.9710  -21.9858   38.0046 C   0  0  0  0  0  0  0  0  0  0  0  0
   36.9430  -21.8046   39.0772 C   0  0  0  0  0  0  0  0  0  0  0  0
   38.2658  -21.4537   38.8527 C   0  0  0  0  0  0  0  0  0  0  0  0
   39.1834  -21.2663   39.8617 C   0  0  0  0  0  0  0  0  0  0  0  0
   38.7724  -21.4340   41.1554 C   0  0  0  0  0  0  0  0  0  0  0  0
   37.4558  -21.7866   41.4481 C   0  0  0  0  0  0  0  0  0  0  0  0
   36.5598  -21.9665   40.3869 C   0  0  0  0  0  0  0  0  0  0  0  0
   38.2390  -18.9422   35.6921 C   0  0  0  0  0  0  0  0  0  0  0  0
   39.0320  -18.8024   36.7185 O   0  0  0  0  0  0  0  0  0  0  0  0
   38.7922  -19.4688   34.5212 N   0  0  0  0  0  0  0  0  0  0  0  0
   38.2896  -19.5903   33.6449 H   0  0  0  0  0  0  0  0  0  0  0  0
   40.2018  -19.8346   34.5190 C   0  0  0  0  0  0  0  0  0  0  0  0
   41.0010  -18.7646   33.8010 C   0  0  0  0  0  0  0  0  0  0  0  0
   40.3954  -17.8041   32.9600 N   0  0  0  0  0  0  0  0  0  0  0  0
   42.2324  -18.7725   33.9785 O   0  0  0  0  0  0  0  0  0  0  0  0
   40.4013  -17.9184   31.9073 H   0  0  0  0  0  0  0  0  0  0  0  0
   39.9265  -16.9650   33.3374 H   0  0  0  0  0  0  0  0  0  0  0  0
   40.5066  -21.2007   34.0579 C   0  0  0  0  0  0  0  0  0  0  0  0
   40.1902  -22.2335   35.0849 C   0  0  0  0  0  0  0  0  0  0  0  0
   41.0391  -22.4666   36.1424 C   0  0  0  0  0  0  0  0  0  0  0  0
   40.7783  -23.4234   37.1105 C   0  0  0  0  0  0  0  0  0  0  0  0
   39.6196  -24.1843   37.0304 C   0  0  0  0  0  0  0  0  0  0  0  0
   38.7594  -23.9690   35.9866 C   0  0  0  0  0  0  0  0  0  0  0  0
   39.0452  -23.0040   35.0281 C   0  0  0  0  0  0  0  0  0  0  0  0
   36.7500  -17.1662   36.6963 C   0  0  0  0  0  0  0  0  0  0  0  0
   36.2374  -16.0770   35.8211 C   0  0  0  0  0  0  0  0  0  0  0  0
   34.9089  -15.4911   36.3150 C   0  0  0  0  0  0  0  0  0  0  0  0
   35.2695  -14.2691   36.9731 N   0  0  0  0  0  0  0  0  0  0  0  0
   35.8579  -14.2977   37.8349 H   0  0  0  0  0  0  0  0  0  0  0  0
   34.8645  -13.0096   36.5135 C   0  0  0  0  0  0  0  0  0  0  0  0
   33.5027  -12.5649   36.6139 N   0  0  0  0  0  0  0  0  0  0  0  0
   35.6814  -12.2063   35.9865 N   0  0  0  0  0  0  0  0  0  0  0  0
   32.7857  -12.9416   35.9646 H   0  0  0  0  0  0  0  0  0  0  0  0
   33.2918  -11.8792   37.3568 H   0  0  0  0  0  0  0  0  0  0  0  0
   36.6604  -12.3243   35.8211 H   0  0  0  0  0  0  0  0  0  0  0  0
 12 13  1  0  0  0
 13 14  1  0  0  0
 13 15  1  0  0  0
 13 11  1  0  0  0
 11  7  1  0  0  0
  7  8  2  0  0  0
  7  9  1  0  0  0
  9  6  1  0  0  0
  6 16  1  0  0  0
 16 17  1  0  0  0
 17 18  2  0  0  0
 18 19  1  0  0  0
 19 20  2  0  0  0
 20 21  1  0  0  0
 21 22  2  0  0  0
  6  2  1  0  0  0
  2  3  2  0  0  0
  2  4  1  0  0  0
  4  1  1  0  0  0
  1 40  1  0  0  0
 40 41  1  0  0  0
 41 42  1  0  0  0
 42 43  1  0  0  0
 43 45  1  0  0  0
 45 46  1  0  0  0
 45 47  2  0  0  0
  1 23  1  0  0  0
 23 24  2  0  0  0
 23 25  1  0  0  0
 25 27  1  0  0  0
 27 33  1  0  0  0
 33 34  1  0  0  0
 34 35  2  0  0  0
 35 36  1  0  0  0
 36 37  2  0  0  0
 37 38  1  0  0  0
 38 39  2  0  0  0
 27 28  1  0  0  0
 28 29  1  0  0  0
 28 30  2  0  0  0
 22 17  1  0  0  0
 39 34  1  0  0  0
  9 10  1  0  0  0
  4  5  1  0  0  0
 43 44  1  0  0  0
 46 48  1  0  0  0
 46 49  1  0  0  0
 47 50  1  0  0  0
 25 26  1  0  0  0
 29 31  1  0  0  0
 29 32  1  0  0  0
M  END
> <minimizedAffinity>
-5.74604

> <CNNscore>
0.2937232256

> <CNNaffinity>
6.1457352638

> <CNN_VS>
1.8051451445

> <CNNaffinity_variance>
0.4918802381

$$$$
[H]N=C(N([H])[H])N([H])C([H])([H])C([H])([H])C([H])([H])[C@@]([H])(C(=O)N([H])[C@]([H])(C(=O)N([H])[H])C([H])([H])c1c([H])c([H])c([H])c([H])c1[H])N([H])C(=O)[C@@]([H])(N([H])C(=O)OC(C([H])([H])[H])(C([H])([H])[H])C([H])([H])[H])C([H])([H])c1c([H])c([H])c([H])c([H])c1[H]


 50 51  0  0  0  0  0  0  0  0999 V2000
   37.3735  -18.9540   34.7685 C   0  0  0  0  0  0  0  0  0  0  0  0
   36.5150  -20.2889   36.8035 C   0  0  0  0  0  0  0  0  0  0  0  0
   37.2821  -19.8426   37.6750 O   0  0  0  0  0  0  0  0  0  0  0  0
   36.5367  -19.9129   35.4529 N   0  0  0  0  0  0  0  0  0  0  0  0
   35.7945  -20.4318   34.8454 H   0  0  0  0  0  0  0  0  0  0  0  0
   35.4506  -21.3291   37.1764 C   0  0  0  0  0  0  0  0  0  0  0  0
   36.2098  -23.0640   39.1423 C   0  0  0  0  0  0  0  0  0  0  0  0
   36.9972  -23.9884   39.0444 O   0  0  0  0  0  0  0  0  0  0  0  0
   35.8183  -22.1694   38.1286 N   0  0  0  0  0  0  0  0  0  0  0  0
   36.7380  -22.7452   37.3161 H   0  0  0  0  0  0  0  0  0  0  0  0
   35.6379  -22.9039   40.4266 O   0  0  0  0  0  0  0  0  0  0  0  0
   35.2481  -20.6355   41.0663 C   0  0  0  0  0  0  0  0  0  0  0  0
   36.1164  -21.8513   41.2212 C   0  0  0  0  0  0  0  0  0  0  0  0
   36.1397  -22.3104   42.6554 C   0  0  0  0  0  0  0  0  0  0  0  0
   37.5508  -21.4928   40.8662 C   0  0  0  0  0  0  0  0  0  0  0  0
   34.2146  -20.4547   37.4503 C   0  0  0  0  0  0  0  0  0  0  0  0
   33.3746  -20.2830   36.2700 C   0  0  0  0  0  0  0  0  0  0  0  0
   32.9845  -21.3354   35.4554 C   0  0  0  0  0  0  0  0  0  0  0  0
   32.1794  -21.1813   34.3494 C   0  0  0  0  0  0  0  0  0  0  0  0
   31.7389  -19.9254   34.0340 C   0  0  0  0  0  0  0  0  0  0  0  0
   32.0955  -18.8255   34.8127 C   0  0  0  0  0  0  0  0  0  0  0  0
   32.9169  -19.0333   35.9277 C   0  0  0  0  0  0  0  0  0  0  0  0
   38.7468  -19.1430   35.2504 C   0  0  0  0  0  0  0  0  0  0  0  0
   39.2832  -20.2475   34.8097 O   0  0  0  0  0  0  0  0  0  0  0  0
   39.5221  -18.3478   36.0996 N   0  0  0  0  0  0  0  0  0  0  0  0
   39.2051  -17.4864   36.5385 H   0  0  0  0  0  0  0  0  0  0  0  0
   40.8698  -18.7893   36.4309 C   0  0  0  0  0  0  0  0  0  0  0  0
   41.6987  -18.8781   35.1643 C   0  0  0  0  0  0  0  0  0  0  0  0
   41.5720  -17.9460   34.1099 N   0  0  0  0  0  0  0  0  0  0  0  0
   42.5014  -19.8255   35.0864 O   0  0  0  0  0  0  0  0  0  0  0  0
   41.0002  -18.1710   33.2475 H   0  0  0  0  0  0  0  0  0  0  0  0
   42.0254  -17.0187   34.1425 H   0  0  0  0  0  0  0  0  0  0  0  0
   40.9580  -19.9950   37.2735 C   0  0  0  0  0  0  0  0  0  0  0  0
   41.4994  -19.7039   38.6313 C   0  0  0  0  0  0  0  0  0  0  0  0
   40.9281  -20.2531   39.7562 C   0  0  0  0  0  0  0  0  0  0  0  0
   41.4024  -19.9981   41.0331 C   0  0  0  0  0  0  0  0  0  0  0  0
   42.4972  -19.1617   41.2055 C   0  0  0  0  0  0  0  0  0  0  0  0
   43.0826  -18.6042   40.0998 C   0  0  0  0  0  0  0  0  0  0  0  0
   42.5864  -18.8752   38.8302 C   0  0  0  0  0  0  0  0  0  0  0  0
   36.8549  -17.5390   34.7737 C   0  0  0  0  0  0  0  0  0  0  0  0
   36.0104  -17.2452   35.9633 C   0  0  0  0  0  0  0  0  0  0  0  0
   35.7535  -15.7456   36.1562 C   0  0  0  0  0  0  0  0  0  0  0  0
   36.9951  -15.2212   36.6459 N   0  0  0  0  0  0  0  0  0  0  0  0
   37.8223  -15.8505   36.7428 H   0  0  0  0  0  0  0  0  0  0  0  0
   37.1626  -13.8796   37.0116 C   0  0  0  0  0  0  0  0  0  0  0  0
   36.3215  -12.8385   36.4910 N   0  0  0  0  0  0  0  0  0  0  0  0
   38.0654  -13.5237   37.8170 N   0  0  0  0  0  0  0  0  0  0  0  0
   36.4536  -12.5043   35.5171 H   0  0  0  0  0  0  0  0  0  0  0  0
   35.5954  -12.4677   37.1250 H   0  0  0  0  0  0  0  0  0  0  0  0
   38.7495  -14.0855   38.2819 H   0  0  0  0  0  0  0  0  0  0  0  0
 12 13  1  0  0  0
 13 14  1  0  0  0
 13 15  1  0  0  0
 13 11  1  0  0  0
 11  7  1  0  0  0
  7  8  2  0  0  0
  7  9  1  0  0  0
  9  6  1  0  0  0
  6 16  1  0  0  0
 16 17  1  0  0  0
 17 18  2  0  0  0
 18 19  1  0  0  0
 19 20  2  0  0  0
 20 21  1  0  0  0
 21 22  2  0  0  0
  6  2  1  0  0  0
  2  3  2  0  0  0
  2  4  1  0  0  0
  4  1  1  0  0  0
  1 40  1  0  0  0
 40 41  1  0  0  0
 41 42  1  0  0  0
 42 43  1  0  0  0
 43 45  1  0  0  0
 45 46  1  0  0  0
 45 47  2  0  0  0
  1 23  1  0  0  0
 23 24  2  0  0  0
 23 25  1  0  0  0
 25 27  1  0  0  0
 27 33  1  0  0  0
 33 34  1  0  0  0
 34 35  2  0  0  0
 35 36  1  0  0  0
 36 37  2  0  0  0
 37 38  1  0  0  0
 38 39  2  0  0  0
 27 28  1  0  0  0
 28 29  1  0  0  0
 28 30  2  0  0  0
 22 17  1  0  0  0
 39 34  1  0  0  0
  9 10  1  0  0  0
  4  5  1  0  0  0
 43 44  1  0  0  0
 46 48  1  0  0  0
 46 49  1  0  0  0
 47 50  1  0  0  0
 25 26  1  0  0  0
 29 31  1  0  0  0
 29 32  1  0  0  0
M  END
> <minimizedAffinity>
-6.40134

> <CNNscore>
0.2812903225

> <CNNaffinity>
6.1079449654

> <CNN_VS>
1.7181057930

> <CNNaffinity_variance>
0.7436259389

$$$$
[H]N=C(N([H])[H])N([H])C([H])([H])C([H])([H])C([H])([H])[C@@]([H])(C(=O)N([H])[C@]([H])(C(=O)N([H])[H])C([H])([H])c1c([H])c([H])c([H])c([H])c1[H])N([H])C(=O)[C@@]([H])(N([H])C(=O)OC(C([H])([H])[H])(C([H])([H])[H])C([H])([H])[H])C([H])([H])c1c([H])c([H])c([H])c([H])c1[H]


 50 51  0  0  0  0  0  0  0  0999 V2000
   36.2331  -17.4839   35.0920 C   0  0  0  0  0  0  0  0  0  0  0  0
   38.4378  -18.8026   35.3380 C   0  0  0  0  0  0  0  0  0  0  0  0
   38.9150  -18.6097   34.2056 O   0  0  0  0  0  0  0  0  0  0  0  0
   37.2001  -18.3112   35.7767 N   0  0  0  0  0  0  0  0  0  0  0  0
   36.9528  -18.6053   36.7972 H   0  0  0  0  0  0  0  0  0  0  0  0
   39.2151  -19.6323   36.3683 C   0  0  0  0  0  0  0  0  0  0  0  0
   38.0038  -21.9739   37.0757 C   0  0  0  0  0  0  0  0  0  0  0  0
   38.4961  -23.0881   37.0705 O   0  0  0  0  0  0  0  0  0  0  0  0
   38.6283  -20.7664   36.7109 N   0  0  0  0  0  0  0  0  0  0  0  0
   39.7901  -21.4514   36.5743 H   0  0  0  0  0  0  0  0  0  0  0  0
   36.6522  -21.9233   37.4916 O   0  0  0  0  0  0  0  0  0  0  0  0
   37.6527  -21.5317   39.6252 C   0  0  0  0  0  0  0  0  0  0  0  0
   36.3948  -21.5023   38.8049 C   0  0  0  0  0  0  0  0  0  0  0  0
   35.8235  -20.1098   38.7547 C   0  0  0  0  0  0  0  0  0  0  0  0
   35.3398  -22.3710   39.4717 C   0  0  0  0  0  0  0  0  0  0  0  0
   40.6117  -19.7291   35.7299 C   0  0  0  0  0  0  0  0  0  0  0  0
   41.6869  -19.5584   36.7009 C   0  0  0  0  0  0  0  0  0  0  0  0
   41.4697  -19.1723   38.0151 C   0  0  0  0  0  0  0  0  0  0  0  0
   42.4788  -19.0246   38.9397 C   0  0  0  0  0  0  0  0  0  0  0  0
   43.7650  -19.2709   38.5452 C   0  0  0  0  0  0  0  0  0  0  0  0
   44.0501  -19.6623   37.2380 C   0  0  0  0  0  0  0  0  0  0  0  0
   42.9892  -19.7983   36.3340 C   0  0  0  0  0  0  0  0  0  0  0  0
   36.1628  -16.2036   35.8060 C   0  0  0  0  0  0  0  0  0  0  0  0
   35.5634  -16.3076   36.9601 O   0  0  0  0  0  0  0  0  0  0  0  0
   36.6108  -14.9344   35.4281 N   0  0  0  0  0  0  0  0  0  0  0  0
   37.0565  -14.7165   34.5397 H   0  0  0  0  0  0  0  0  0  0  0  0
   36.3928  -13.8183   36.3378 C   0  0  0  0  0  0  0  0  0  0  0  0
   37.4136  -13.8717   37.4577 C   0  0  0  0  0  0  0  0  0  0  0  0
   37.1846  -14.5821   38.6574 N   0  0  0  0  0  0  0  0  0  0  0  0
   38.4745  -13.2471   37.2779 O   0  0  0  0  0  0  0  0  0  0  0  0
   36.8711  -14.0826   39.5369 H   0  0  0  0  0  0  0  0  0  0  0  0
   37.3101  -15.6053   38.7195 H   0  0  0  0  0  0  0  0  0  0  0  0
   35.0096  -13.6438   36.8149 C   0  0  0  0  0  0  0  0  0  0  0  0
   34.6206  -12.2092   36.9251 C   0  0  0  0  0  0  0  0  0  0  0  0
   33.5764  -11.8165   37.7306 C   0  0  0  0  0  0  0  0  0  0  0  0
   33.1848  -10.4926   37.8506 C   0  0  0  0  0  0  0  0  0  0  0  0
   33.8613   -9.5087   37.1419 C   0  0  0  0  0  0  0  0  0  0  0  0
   34.9046   -9.8763   36.3343 C   0  0  0  0  0  0  0  0  0  0  0  0
   35.2764  -11.2114   36.2306 C   0  0  0  0  0  0  0  0  0  0  0  0
   34.9164  -18.1553   34.7977 C   0  0  0  0  0  0  0  0  0  0  0  0
   34.9259  -19.6040   35.1383 C   0  0  0  0  0  0  0  0  0  0  0  0
   33.6562  -20.0519   35.8726 C   0  0  0  0  0  0  0  0  0  0  0  0
   32.6096  -19.9357   34.8991 N   0  0  0  0  0  0  0  0  0  0  0  0
   32.8014  -20.1704   33.9002 H   0  0  0  0  0  0  0  0  0  0  0  0
   31.3141  -19.5128   35.2221 C   0  0  0  0  0  0  0  0  0  0  0  0
   30.1797  -20.3870   35.1153 N   0  0  0  0  0  0  0  0  0  0  0  0
   31.0841  -18.3389   35.6213 N   0  0  0  0  0  0  0  0  0  0  0  0
   29.7854  -20.6120   34.1818 H   0  0  0  0  0  0  0  0  0  0  0  0
   29.8052  -20.7715   35.9976 H   0  0  0  0  0  0  0  0  0  0  0  0
   31.7263  -17.5847   35.7575 H   0  0  0  0  0  0  0  0  0  0  0  0
 12 13  1  0  0  0
 13 14  1  0  0  0
 13 15  1  0  0  0
 13 11  1  0  0  0
 11  7  1  0  0  0
  7  8  2  0  0  0
  7  9  1  0  0  0
  9  6  1  0  0  0
  6 16  1  0  0  0
 16 17  1  0  0  0
 17 18  2  0  0  0
 18 19  1  0  0  0
 19 20  2  0  0  0
 20 21  1  0  0  0
 21 22  2  0  0  0
  6  2  1  0  0  0
  2  3  2  0  0  0
  2  4  1  0  0  0
  4  1  1  0  0  0
  1 40  1  0  0  0
 40 41  1  0  0  0
 41 42  1  0  0  0
 42 43  1  0  0  0
 43 45  1  0  0  0
 45 46  1  0  0  0
 45 47  2  0  0  0
  1 23  1  0  0  0
 23 24  2  0  0  0
 23 25  1  0  0  0
 25 27  1  0  0  0
 27 33  1  0  0  0
 33 34  1  0  0  0
 34 35  2  0  0  0
 35 36  1  0  0  0
 36 37  2  0  0  0
 37 38  1  0  0  0
 38 39  2  0  0  0
 27 28  1  0  0  0
 28 29  1  0  0  0
 28 30  2  0  0  0
 22 17  1  0  0  0
 39 34  1  0  0  0
  9 10  1  0  0  0
  4  5  1  0  0  0
 43 44  1  0  0  0
 46 48  1  0  0  0
 46 49  1  0  0  0
 47 50  1  0  0  0
 25 26  1  0  0  0
 29 31  1  0  0  0
 29 32  1  0  0  0
M  END
> <minimizedAffinity>
-6.32104

> <CNNscore>
0.2768010497

> <CNNaffinity>
6.2556176186

> <CNN_VS>
1.7315615416

> <CNNaffinity_variance>
0.2404670715

$$$$
[H]N=C(N([H])[H])N([H])C([H])([H])C([H])([H])C([H])([H])[C@@]([H])(C(=O)N([H])[C@]([H])(C(=O)N([H])[H])C([H])([H])c1c([H])c([H])c([H])c([H])c1[H])N([H])C(=O)[C@@]([H])(N([H])C(=O)OC(C([H])([H])[H])(C([H])([H])[H])C([H])([H])[H])C([H])([H])c1c([H])c([H])c([H])c([H])c1[H]


 50 51  0  0  0  0  0  0  0  0999 V2000
   39.7484  -19.1768   34.9325 C   0  0  0  0  0  0  0  0  0  0  0  0
   37.1872  -18.8689   35.0075 C   0  0  0  0  0  0  0  0  0  0  0  0
   36.8853  -19.4349   33.9418 O   0  0  0  0  0  0  0  0  0  0  0  0
   38.4955  -18.7195   35.4889 N   0  0  0  0  0  0  0  0  0  0  0  0
   38.5518  -18.1777   36.4335 H   0  0  0  0  0  0  0  0  0  0  0  0
   36.0899  -18.2712   35.8978 C   0  0  0  0  0  0  0  0  0  0  0  0
   34.3686  -20.1083   36.9529 C   0  0  0  0  0  0  0  0  0  0  0  0
   33.1598  -20.0060   37.0632 O   0  0  0  0  0  0  0  0  0  0  0  0
   35.2563  -19.1610   36.4088 N   0  0  0  0  0  0  0  0  0  0  0  0
   34.1829  -18.4100   36.0602 H   0  0  0  0  0  0  0  0  0  0  0  0
   34.9095  -21.3211   37.4418 O   0  0  0  0  0  0  0  0  0  0  0  0
   37.1296  -21.0293   38.2742 C   0  0  0  0  0  0  0  0  0  0  0  0
   35.6838  -21.2597   38.6101 C   0  0  0  0  0  0  0  0  0  0  0  0
   35.1534  -20.1462   39.4744 C   0  0  0  0  0  0  0  0  0  0  0  0
   35.5555  -22.5332   39.4310 C   0  0  0  0  0  0  0  0  0  0  0  0
   36.8973  -17.4151   36.8890 C   0  0  0  0  0  0  0  0  0  0  0  0
   36.4992  -16.0117   36.8741 C   0  0  0  0  0  0  0  0  0  0  0  0
   37.2002  -15.0159   37.5377 C   0  0  0  0  0  0  0  0  0  0  0  0
   36.8380  -13.6880   37.5144 C   0  0  0  0  0  0  0  0  0  0  0  0
   35.7286  -13.3277   36.8000 C   0  0  0  0  0  0  0  0  0  0  0  0
   34.9805  -14.2810   36.1109 C   0  0  0  0  0  0  0  0  0  0  0  0
   35.3891  -15.6194   36.1654 C   0  0  0  0  0  0  0  0  0  0  0  0
   40.8263  -18.6395   35.7712 C   0  0  0  0  0  0  0  0  0  0  0  0
   40.5226  -18.6462   37.0399 O   0  0  0  0  0  0  0  0  0  0  0  0
   42.0746  -18.1216   35.4133 N   0  0  0  0  0  0  0  0  0  0  0  0
   42.4115  -18.0260   34.4579 H   0  0  0  0  0  0  0  0  0  0  0  0
   42.9554  -17.6345   36.4657 C   0  0  0  0  0  0  0  0  0  0  0  0
   43.4517  -16.2470   36.1082 C   0  0  0  0  0  0  0  0  0  0  0  0
   43.6390  -15.8314   34.7707 N   0  0  0  0  0  0  0  0  0  0  0  0
   43.6995  -15.4801   37.0560 O   0  0  0  0  0  0  0  0  0  0  0  0
   44.6013  -15.8295   34.3289 H   0  0  0  0  0  0  0  0  0  0  0  0
   42.8516  -15.5204   34.1794 H   0  0  0  0  0  0  0  0  0  0  0  0
   44.0324  -18.5538   36.8739 C   0  0  0  0  0  0  0  0  0  0  0  0
   43.8724  -19.0335   38.2759 C   0  0  0  0  0  0  0  0  0  0  0  0
   43.1291  -18.3219   39.1894 C   0  0  0  0  0  0  0  0  0  0  0  0
   42.9657  -18.7361   40.5017 C   0  0  0  0  0  0  0  0  0  0  0  0
   43.5639  -19.9135   40.9304 C   0  0  0  0  0  0  0  0  0  0  0  0
   44.3079  -20.6388   40.0381 C   0  0  0  0  0  0  0  0  0  0  0  0
   44.4573  -20.2004   38.7277 C   0  0  0  0  0  0  0  0  0  0  0  0
   39.8966  -18.9735   33.4466 C   0  0  0  0  0  0  0  0  0  0  0  0
   40.8728  -19.9165   32.8364 C   0  0  0  0  0  0  0  0  0  0  0  0
   40.8416  -21.3072   33.4821 C   0  0  0  0  0  0  0  0  0  0  0  0
   42.2177  -21.7008   33.5714 N   0  0  0  0  0  0  0  0  0  0  0  0
   42.9201  -21.0442   33.9780 H   0  0  0  0  0  0  0  0  0  0  0  0
   42.6826  -22.9464   33.1310 C   0  0  0  0  0  0  0  0  0  0  0  0
   42.6886  -24.1012   33.9847 N   0  0  0  0  0  0  0  0  0  0  0  0
   43.1207  -23.1101   31.9599 N   0  0  0  0  0  0  0  0  0  0  0  0
   43.4045  -24.1897   34.7312 H   0  0  0  0  0  0  0  0  0  0  0  0
   41.9516  -24.8054   33.8184 H   0  0  0  0  0  0  0  0  0  0  0  0
   43.2048  -22.4411   31.2216 H   0  0  0  0  0  0  0  0  0  0  0  0
 12 13  1  0  0  0
 13 14  1  0  0  0
 13 15  1  0  0  0
 13 11  1  0  0  0
 11  7  1  0  0  0
  7  8  2  0  0  0
  7  9  1  0  0  0
  9  6  1  0  0  0
  6 16  1  0  0  0
 16 17  1  0  0  0
 17 18  2  0  0  0
 18 19  1  0  0  0
 19 20  2  0  0  0
 20 21  1  0  0  0
 21 22  2  0  0  0
  6  2  1  0  0  0
  2  3  2  0  0  0
  2  4  1  0  0  0
  4  1  1  0  0  0
  1 40  1  0  0  0
 40 41  1  0  0  0
 41 42  1  0  0  0
 42 43  1  0  0  0
 43 45  1  0  0  0
 45 46  1  0  0  0
 45 47  2  0  0  0
  1 23  1  0  0  0
 23 24  2  0  0  0
 23 25  1  0  0  0
 25 27  1  0  0  0
 27 33  1  0  0  0
 33 34  1  0  0  0
 34 35  2  0  0  0
 35 36  1  0  0  0
 36 37  2  0  0  0
 37 38  1  0  0  0
 38 39  2  0  0  0
 27 28  1  0  0  0
 28 29  1  0  0  0
 28 30  2  0  0  0
 22 17  1  0  0  0
 39 34  1  0  0  0
  9 10  1  0  0  0
  4  5  1  0  0  0
 43 44  1  0  0  0
 46 48  1  0  0  0
 46 49  1  0  0  0
 47 50  1  0  0  0
 25 26  1  0  0  0
 29 31  1  0  0  0
 29 32  1  0  0  0
M  END
> <minimizedAffinity>
-6.96791

> <CNNscore>
0.2667599022

> <CNNaffinity>
6.1698312759

> <CNN_VS>
1.6458635330

> <CNNaffinity_variance>
0.2350182235

$$$$
[H]c1c([H])c([H])c(C([H])([H])C(=O)N([H])c2nnc(-c3c([H])c([H])c(-c4c([H])c([H])c(Oc5c([H])c([H])c([N+](=O)[O-])c([H])c5[H])c([H])c4[H])c([H])c3[H])s2)c([H])c1[H]


 38 42  0  0  0  0  0  0  0  0999 V2000
   31.7674  -18.3816   43.6665 C   0  0  0  0  0  0  0  0  0  0  0  0
   33.0645  -17.9949   43.9338 C   0  0  0  0  0  0  0  0  0  0  0  0
   34.0712  -18.9410   44.1095 C   0  0  0  0  0  0  0  0  0  0  0  0
   33.8094  -20.2895   44.0230 C   0  0  0  0  0  0  0  0  0  0  0  0
   32.5140  -20.6671   43.7563 C   0  0  0  0  0  0  0  0  0  0  0  0
   31.5031  -19.7281   43.5796 C   0  0  0  0  0  0  0  0  0  0  0  0
   28.6805  -15.4495   43.1299 C   0  0  0  0  0  0  0  0  0  0  0  0
   28.8255  -16.5158   42.2575 C   0  0  0  0  0  0  0  0  0  0  0  0
   29.8182  -17.4576   42.4310 C   0  0  0  0  0  0  0  0  0  0  0  0
   30.7073  -17.3748   43.4816 C   0  0  0  0  0  0  0  0  0  0  0  0
   30.5715  -16.3176   44.3553 C   0  0  0  0  0  0  0  0  0  0  0  0
   29.5655  -15.3602   44.1824 C   0  0  0  0  0  0  0  0  0  0  0  0
   27.6741  -14.5149   42.9348 O   0  0  0  0  0  0  0  0  0  0  0  0
   28.0493  -11.8081   39.8009 C   0  0  0  0  0  0  0  0  0  0  0  0
   27.1186  -12.8235   39.7247 C   0  0  0  0  0  0  0  0  0  0  0  0
   26.9780  -13.7375   40.7612 C   0  0  0  0  0  0  0  0  0  0  0  0
   27.7803  -13.6241   41.8762 C   0  0  0  0  0  0  0  0  0  0  0  0
   28.7192  -12.6087   41.9656 C   0  0  0  0  0  0  0  0  0  0  0  0
   28.8372  -11.7184   40.9261 C   0  0  0  0  0  0  0  0  0  0  0  0
   28.2466  -11.3026   37.4387 O   0  0  0  0  0  0  0  0  0  0  0  0
   28.1912  -10.8633   38.7244 N   0  0  0  0  0  0  0  0  0  0  0  0
   28.2608   -9.6598   38.9891 O   0  0  0  0  0  0  0  0  0  0  0  0
   34.8676  -21.2726   44.2077 C   0  0  0  0  0  0  0  0  0  0  0  0
   35.0077  -22.1727   45.1729 N   0  0  0  0  0  0  0  0  0  0  0  0
   35.9978  -22.9505   45.1701 N   0  0  0  0  0  0  0  0  0  0  0  0
   36.9099  -22.8839   44.2099 C   0  0  0  0  0  0  0  0  0  0  0  0
   36.2534  -21.5895   43.2599 S   0  0  0  0  0  0  0  0  0  0  0  0
   38.1011  -23.6362   43.9799 N   0  0  0  0  0  0  0  0  0  0  0  0
   39.3863  -23.2016   44.3272 C   0  0  0  0  0  0  0  0  0  0  0  0
   40.3786  -23.9612   44.0723 O   0  0  0  0  0  0  0  0  0  0  0  0
   37.9761  -24.5666   43.5221 H   0  0  0  0  0  0  0  0  0  0  0  0
   39.5947  -21.8856   44.9785 C   0  0  0  0  0  0  0  0  0  0  0  0
   40.4545  -20.9985   44.1692 C   0  0  0  0  0  0  0  0  0  0  0  0
   41.6987  -20.6346   44.6076 C   0  0  0  0  0  0  0  0  0  0  0  0
   42.4637  -19.7928   43.7959 C   0  0  0  0  0  0  0  0  0  0  0  0
   41.9960  -19.3392   42.5985 C   0  0  0  0  0  0  0  0  0  0  0  0
   40.7501  -19.6999   42.1529 C   0  0  0  0  0  0  0  0  0  0  0  0
   39.9795  -20.5426   42.9615 C   0  0  0  0  0  0  0  0  0  0  0  0
 20 21  1  0  0  0
 21 22  2  0  0  0
 21 14  1  0  0  0
 14 15  2  0  0  0
 15 16  1  0  0  0
 16 17  2  0  0  0
 17 13  1  0  0  0
 13  7  1  0  0  0
  7  8  2  0  0  0
  8  9  1  0  0  0
  9 10  2  0  0  0
 10 11  1  0  0  0
 11 12  2  0  0  0
 10  1  1  0  0  0
  1  2  2  0  0  0
  2  3  1  0  0  0
  3  4  2  0  0  0
  4  5  1  0  0  0
  5  6  2  0  0  0
  4 23  1  0  0  0
 23 24  2  0  0  0
 24 25  1  0  0  0
 25 26  2  0  0  0
 26 28  1  0  0  0
 28 29  1  0  0  0
 29 30  2  0  0  0
 29 32  1  0  0  0
 32 33  1  0  0  0
 33 34  2  0  0  0
 34 35  1  0  0  0
 35 36  2  0  0  0
 36 37  1  0  0  0
 37 38  2  0  0  0
 26 27  1  0  0  0
 17 18  1  0  0  0
 18 19  2  0  0  0
 19 14  1  0  0  0
 12  7  1  0  0  0
  6  1  1  0  0  0
 27 23  1  0  0  0
 38 33  1  0  0  0
 28 31  1  0  0  0
M  CHG 1  20  -1
M  CHG 1  21   1
M  END
> <minimizedAffinity>
-5.36437

> <CNNscore>
0.4807614982

> <CNNaffinity>
5.4316015244

> <CNN_VS>
2.6113049984

> <CNNaffinity_variance>
0.2675122619

$$$$
[H]c1c([H])c([H])c(C([H])([H])C(=O)N([H])c2nnc(-c3c([H])c([H])c(-c4c([H])c([H])c(Oc5c([H])c([H])c([N+](=O)[O-])c([H])c5[H])c([H])c4[H])c([H])c3[H])s2)c([H])c1[H]


 38 42  0  0  0  0  0  0  0  0999 V2000
   35.2049  -20.5279   41.1324 C   0  0  0  0  0  0  0  0  0  0  0  0
   35.0355  -20.1985   39.8033 C   0  0  0  0  0  0  0  0  0  0  0  0
   36.0023  -20.5267   38.8561 C   0  0  0  0  0  0  0  0  0  0  0  0
   37.1561  -21.1883   39.2104 C   0  0  0  0  0  0  0  0  0  0  0  0
   37.3177  -21.5131   40.5371 C   0  0  0  0  0  0  0  0  0  0  0  0
   36.3567  -21.1888   41.4889 C   0  0  0  0  0  0  0  0  0  0  0  0
   32.2118  -19.5088   44.0335 C   0  0  0  0  0  0  0  0  0  0  0  0
   33.3181  -18.7025   43.8210 C   0  0  0  0  0  0  0  0  0  0  0  0
   34.2796  -19.0312   42.8882 C   0  0  0  0  0  0  0  0  0  0  0  0
   34.1776  -20.1776   42.1290 C   0  0  0  0  0  0  0  0  0  0  0  0
   33.0805  -20.9867   42.3327 C   0  0  0  0  0  0  0  0  0  0  0  0
   32.1030  -20.6563   43.2782 C   0  0  0  0  0  0  0  0  0  0  0  0
   31.2579  -19.1572   44.9773 O   0  0  0  0  0  0  0  0  0  0  0  0
   29.7872  -15.2684   44.9152 C   0  0  0  0  0  0  0  0  0  0  0  0
   29.8676  -15.9541   46.1094 C   0  0  0  0  0  0  0  0  0  0  0  0
   30.3562  -17.2538   46.1509 C   0  0  0  0  0  0  0  0  0  0  0  0
   30.7637  -17.8605   44.9824 C   0  0  0  0  0  0  0  0  0  0  0  0
   30.6883  -17.1830   43.7758 C   0  0  0  0  0  0  0  0  0  0  0  0
   30.2012  -15.8986   43.7635 C   0  0  0  0  0  0  0  0  0  0  0  0
   29.3912  -13.1867   43.7387 O   0  0  0  0  0  0  0  0  0  0  0  0
   29.2804  -13.9218   44.8772 N   0  0  0  0  0  0  0  0  0  0  0  0
   28.7492  -13.4532   45.8879 O   0  0  0  0  0  0  0  0  0  0  0  0
   38.1622  -21.5281   38.2140 C   0  0  0  0  0  0  0  0  0  0  0  0
   37.9942  -22.0625   37.0108 N   0  0  0  0  0  0  0  0  0  0  0  0
   38.9920  -22.2885   36.2770 N   0  0  0  0  0  0  0  0  0  0  0  0
   40.2179  -21.9985   36.6909 C   0  0  0  0  0  0  0  0  0  0  0  0
   39.8611  -21.3533   38.2611 S   0  0  0  0  0  0  0  0  0  0  0  0
   41.4913  -22.1519   36.0642 N   0  0  0  0  0  0  0  0  0  0  0  0
   42.1215  -21.1561   35.3074 C   0  0  0  0  0  0  0  0  0  0  0  0
   43.2616  -21.4075   34.7940 O   0  0  0  0  0  0  0  0  0  0  0  0
   41.9600  -23.0759   36.1954 H   0  0  0  0  0  0  0  0  0  0  0  0
   41.4804  -19.8343   35.1042 C   0  0  0  0  0  0  0  0  0  0  0  0
   42.2616  -18.7413   35.7174 C   0  0  0  0  0  0  0  0  0  0  0  0
   42.6380  -18.7983   37.0318 C   0  0  0  0  0  0  0  0  0  0  0  0
   43.3758  -17.7323   37.5532 C   0  0  0  0  0  0  0  0  0  0  0  0
   43.7181  -16.6592   36.7853 C   0  0  0  0  0  0  0  0  0  0  0  0
   43.3443  -16.5954   35.4672 C   0  0  0  0  0  0  0  0  0  0  0  0
   42.6052  -17.6599   34.9398 C   0  0  0  0  0  0  0  0  0  0  0  0
 20 21  1  0  0  0
 21 22  2  0  0  0
 21 14  1  0  0  0
 14 15  2  0  0  0
 15 16  1  0  0  0
 16 17  2  0  0  0
 17 13  1  0  0  0
 13  7  1  0  0  0
  7  8  2  0  0  0
  8  9  1  0  0  0
  9 10  2  0  0  0
 10 11  1  0  0  0
 11 12  2  0  0  0
 10  1  1  0  0  0
  1  2  2  0  0  0
  2  3  1  0  0  0
  3  4  2  0  0  0
  4  5  1  0  0  0
  5  6  2  0  0  0
  4 23  1  0  0  0
 23 24  2  0  0  0
 24 25  1  0  0  0
 25 26  2  0  0  0
 26 28  1  0  0  0
 28 29  1  0  0  0
 29 30  2  0  0  0
 29 32  1  0  0  0
 32 33  1  0  0  0
 33 34  2  0  0  0
 34 35  1  0  0  0
 35 36  2  0  0  0
 36 37  1  0  0  0
 37 38  2  0  0  0
 26 27  1  0  0  0
 17 18  1  0  0  0
 18 19  2  0  0  0
 19 14  1  0  0  0
 12  7  1  0  0  0
  6  1  1  0  0  0
 27 23  1  0  0  0
 38 33  1  0  0  0
 28 31  1  0  0  0
M  CHG 1  20  -1
M  CHG 1  21   1
M  END
> <minimizedAffinity>
-5.52043

> <CNNscore>
0.4115140140

> <CNNaffinity>
5.2302584648

> <CNN_VS>
2.1523246765

> <CNNaffinity_variance>
0.1371800601

$$$$
[H]c1c([H])c([H])c(C([H])([H])C(=O)N([H])c2nnc(-c3c([H])c([H])c(-c4c([H])c([H])c(Oc5c([H])c([H])c([N+](=O)[O-])c([H])c5[H])c([H])c4[H])c([H])c3[H])s2)c([H])c1[H]


 38 42  0  0  0  0  0  0  0  0999 V2000
   36.4759  -20.8095   37.3068 C   0  0  0  0  0  0  0  0  0  0  0  0
   35.7125  -19.7644   36.8287 C   0  0  0  0  0  0  0  0  0  0  0  0
   34.3675  -19.9455   36.5161 C   0  0  0  0  0  0  0  0  0  0  0  0
   33.7545  -21.1679   36.6724 C   0  0  0  0  0  0  0  0  0  0  0  0
   34.5220  -22.2047   37.1495 C   0  0  0  0  0  0  0  0  0  0  0  0
   35.8659  -22.0317   37.4638 C   0  0  0  0  0  0  0  0  0  0  0  0
   40.6188  -20.2291   38.2623 C   0  0  0  0  0  0  0  0  0  0  0  0
   39.8387  -21.1444   38.9500 C   0  0  0  0  0  0  0  0  0  0  0  0
   38.5071  -21.3299   38.6419 C   0  0  0  0  0  0  0  0  0  0  0  0
   37.8985  -20.6104   37.6355 C   0  0  0  0  0  0  0  0  0  0  0  0
   38.6660  -19.6972   36.9452 C   0  0  0  0  0  0  0  0  0  0  0  0
   40.0174  -19.5063   37.2550 C   0  0  0  0  0  0  0  0  0  0  0  0
   41.9561  -20.0602   38.5902 O   0  0  0  0  0  0  0  0  0  0  0  0
   43.1032  -20.2089   42.5841 C   0  0  0  0  0  0  0  0  0  0  0  0
   42.4549  -19.0934   42.0960 C   0  0  0  0  0  0  0  0  0  0  0  0
   42.0636  -19.0247   40.7650 C   0  0  0  0  0  0  0  0  0  0  0  0
   42.3288  -20.0861   39.9266 C   0  0  0  0  0  0  0  0  0  0  0  0
   42.9794  -21.2128   40.4040 C   0  0  0  0  0  0  0  0  0  0  0  0
   43.3552  -21.2543   41.7247 C   0  0  0  0  0  0  0  0  0  0  0  0
   42.7686  -19.6475   44.9180 O   0  0  0  0  0  0  0  0  0  0  0  0
   43.5066  -20.2755   43.9641 N   0  0  0  0  0  0  0  0  0  0  0  0
   44.5246  -20.9072   44.2606 O   0  0  0  0  0  0  0  0  0  0  0  0
   32.3475  -21.3492   36.3437 C   0  0  0  0  0  0  0  0  0  0  0  0
   31.3702  -20.4512   36.3463 N   0  0  0  0  0  0  0  0  0  0  0  0
   30.2005  -20.7922   36.0289 N   0  0  0  0  0  0  0  0  0  0  0  0
   29.9278  -22.0446   35.6891 C   0  0  0  0  0  0  0  0  0  0  0  0
   31.5035  -22.7512   35.8526 S   0  0  0  0  0  0  0  0  0  0  0  0
   28.7099  -22.6762   35.2946 N   0  0  0  0  0  0  0  0  0  0  0  0
   27.7586  -23.1808   36.1900 C   0  0  0  0  0  0  0  0  0  0  0  0
   26.7053  -23.7257   35.7207 O   0  0  0  0  0  0  0  0  0  0  0  0
   28.5438  -22.7530   34.2664 H   0  0  0  0  0  0  0  0  0  0  0  0
   27.9669  -23.0858   37.6553 C   0  0  0  0  0  0  0  0  0  0  0  0
   27.0752  -22.0857   38.2764 C   0  0  0  0  0  0  0  0  0  0  0  0
   25.9148  -22.4661   38.8939 C   0  0  0  0  0  0  0  0  0  0  0  0
   25.1139  -21.4721   39.4624 C   0  0  0  0  0  0  0  0  0  0  0  0
   25.4666  -20.1563   39.4107 C   0  0  0  0  0  0  0  0  0  0  0  0
   26.6282  -19.7679   38.7935 C   0  0  0  0  0  0  0  0  0  0  0  0
   27.4340  -20.7589   38.2224 C   0  0  0  0  0  0  0  0  0  0  0  0
 20 21  1  0  0  0
 21 22  2  0  0  0
 21 14  1  0  0  0
 14 15  2  0  0  0
 15 16  1  0  0  0
 16 17  2  0  0  0
 17 13  1  0  0  0
 13  7  1  0  0  0
  7  8  2  0  0  0
  8  9  1  0  0  0
  9 10  2  0  0  0
 10 11  1  0  0  0
 11 12  2  0  0  0
 10  1  1  0  0  0
  1  2  2  0  0  0
  2  3  1  0  0  0
  3  4  2  0  0  0
  4  5  1  0  0  0
  5  6  2  0  0  0
  4 23  1  0  0  0
 23 24  2  0  0  0
 24 25  1  0  0  0
 25 26  2  0  0  0
 26 28  1  0  0  0
 28 29  1  0  0  0
 29 30  2  0  0  0
 29 32  1  0  0  0
 32 33  1  0  0  0
 33 34  2  0  0  0
 34 35  1  0  0  0
 35 36  2  0  0  0
 36 37  1  0  0  0
 37 38  2  0  0  0
 26 27  1  0  0  0
 17 18  1  0  0  0
 18 19  2  0  0  0
 19 14  1  0  0  0
 12  7  1  0  0  0
  6  1  1  0  0  0
 27 23  1  0  0  0
 38 33  1  0  0  0
 28 31  1  0  0  0
M  CHG 1  20  -1
M  CHG 1  21   1
M  END
> <minimizedAffinity>
-5.83330

> <CNNscore>
0.3214730024

> <CNNaffinity>
4.7656621933

> <CNN_VS>
1.5320317745

> <CNNaffinity_variance>
0.2044730484

$$$$
[H]c1c([H])c([H])c(C([H])([H])C(=O)N([H])c2nnc(-c3c([H])c([H])c(-c4c([H])c([H])c(Oc5c([H])c([H])c([N+](=O)[O-])c([H])c5[H])c([H])c4[H])c([H])c3[H])s2)c([H])c1[H]


 38 42  0  0  0  0  0  0  0  0999 V2000
   35.1851  -19.7752   36.2252 C   0  0  0  0  0  0  0  0  0  0  0  0
   35.7855  -20.5378   37.2058 C   0  0  0  0  0  0  0  0  0  0  0  0
   37.1531  -20.4408   37.4505 C   0  0  0  0  0  0  0  0  0  0  0  0
   37.9509  -19.5844   36.7262 C   0  0  0  0  0  0  0  0  0  0  0  0
   37.3452  -18.8276   35.7505 C   0  0  0  0  0  0  0  0  0  0  0  0
   35.9800  -18.9189   35.5003 C   0  0  0  0  0  0  0  0  0  0  0  0
   30.9696  -20.0912   35.4880 C   0  0  0  0  0  0  0  0  0  0  0  0
   31.6929  -18.9790   35.0890 C   0  0  0  0  0  0  0  0  0  0  0  0
   33.0479  -18.8786   35.3266 C   0  0  0  0  0  0  0  0  0  0  0  0
   33.7375  -19.8830   35.9721 C   0  0  0  0  0  0  0  0  0  0  0  0
   33.0270  -20.9939   36.3732 C   0  0  0  0  0  0  0  0  0  0  0  0
   31.6522  -21.0992   36.1337 C   0  0  0  0  0  0  0  0  0  0  0  0
   29.6075  -20.1695   35.2377 O   0  0  0  0  0  0  0  0  0  0  0  0
   27.3092  -22.8580   37.4239 C   0  0  0  0  0  0  0  0  0  0  0  0
   27.8843  -23.2537   36.2341 C   0  0  0  0  0  0  0  0  0  0  0  0
   28.6555  -22.3704   35.4894 C   0  0  0  0  0  0  0  0  0  0  0  0
   28.8449  -21.0849   35.9491 C   0  0  0  0  0  0  0  0  0  0  0  0
   28.2729  -20.6743   37.1428 C   0  0  0  0  0  0  0  0  0  0  0  0
   27.5149  -21.5683   37.8592 C   0  0  0  0  0  0  0  0  0  0  0  0
   25.1761  -23.5610   38.3349 O   0  0  0  0  0  0  0  0  0  0  0  0
   26.5110  -23.7769   38.1921 N   0  0  0  0  0  0  0  0  0  0  0  0
   27.0569  -24.7537   38.7127 O   0  0  0  0  0  0  0  0  0  0  0  0
   39.3802  -19.4885   36.9882 C   0  0  0  0  0  0  0  0  0  0  0  0
   40.2605  -18.6269   36.4942 N   0  0  0  0  0  0  0  0  0  0  0  0
   41.4696  -18.6943   36.8388 N   0  0  0  0  0  0  0  0  0  0  0  0
   41.8804  -19.6202   37.6946 C   0  0  0  0  0  0  0  0  0  0  0  0
   40.3795  -20.4342   38.0012 S   0  0  0  0  0  0  0  0  0  0  0  0
   43.1697  -19.9045   38.2373 N   0  0  0  0  0  0  0  0  0  0  0  0
   43.6430  -19.3926   39.4519 C   0  0  0  0  0  0  0  0  0  0  0  0
   44.8148  -19.7167   39.8372 O   0  0  0  0  0  0  0  0  0  0  0  0
   43.7775  -20.5376   37.6712 H   0  0  0  0  0  0  0  0  0  0  0  0
   42.8026  -18.4916   40.2774 C   0  0  0  0  0  0  0  0  0  0  0  0
   42.2849  -19.1696   41.4830 C   0  0  0  0  0  0  0  0  0  0  0  0
   42.7705  -18.8626   42.7250 C   0  0  0  0  0  0  0  0  0  0  0  0
   42.2397  -19.5394   43.8263 C   0  0  0  0  0  0  0  0  0  0  0  0
   41.2651  -20.4815   43.6820 C   0  0  0  0  0  0  0  0  0  0  0  0
   40.7738  -20.7943   42.4403 C   0  0  0  0  0  0  0  0  0  0  0  0
   41.3015  -20.1199   41.3339 C   0  0  0  0  0  0  0  0  0  0  0  0
 20 21  1  0  0  0
 21 22  2  0  0  0
 21 14  1  0  0  0
 14 15  2  0  0  0
 15 16  1  0  0  0
 16 17  2  0  0  0
 17 13  1  0  0  0
 13  7  1  0  0  0
  7  8  2  0  0  0
  8  9  1  0  0  0
  9 10  2  0  0  0
 10 11  1  0  0  0
 11 12  2  0  0  0
 10  1  1  0  0  0
  1  2  2  0  0  0
  2  3  1  0  0  0
  3  4  2  0  0  0
  4  5  1  0  0  0
  5  6  2  0  0  0
  4 23  1  0  0  0
 23 24  2  0  0  0
 24 25  1  0  0  0
 25 26  2  0  0  0
 26 28  1  0  0  0
 28 29  1  0  0  0
 29 30  2  0  0  0
 29 32  1  0  0  0
 32 33  1  0  0  0
 33 34  2  0  0  0
 34 35  1  0  0  0
 35 36  2  0  0  0
 36 37  1  0  0  0
 37 38  2  0  0  0
 26 27  1  0  0  0
 17 18  1  0  0  0
 18 19  2  0  0  0
 19 14  1  0  0  0
 12  7  1  0  0  0
  6  1  1  0  0  0
 27 23  1  0  0  0
 38 33  1  0  0  0
 28 31  1  0  0  0
M  CHG 1  20  -1
M  CHG 1  21   1
M  END
> <minimizedAffinity>
-6.56230

> <CNNscore>
0.2928364277

> <CNNaffinity>
4.9305586815

> <CNN_VS>
1.4438471794

> <CNNaffinity_variance>
0.2717619836

$$$$
[H]c1c([H])c([H])c(C([H])([H])C(=O)N([H])c2nnc(-c3c([H])c([H])c(-c4c([H])c([H])c(Oc5c([H])c([H])c([N+](=O)[O-])c([H])c5[H])c([H])c4[H])c([H])c3[H])s2)c([H])c1[H]


 38 42  0  0  0  0  0  0  0  0999 V2000
   37.0823  -17.5397   36.0673 C   0  0  0  0  0  0  0  0  0  0  0  0
   37.4091  -16.5623   36.9845 C   0  0  0  0  0  0  0  0  0  0  0  0
   36.5121  -15.5430   37.2940 C   0  0  0  0  0  0  0  0  0  0  0  0
   35.2730  -15.4746   36.6986 C   0  0  0  0  0  0  0  0  0  0  0  0
   34.9545  -16.4525   35.7853 C   0  0  0  0  0  0  0  0  0  0  0  0
   35.8450  -17.4736   35.4711 C   0  0  0  0  0  0  0  0  0  0  0  0
   39.8603  -20.6722   35.1269 C   0  0  0  0  0  0  0  0  0  0  0  0
   39.4330  -20.4494   36.4258 C   0  0  0  0  0  0  0  0  0  0  0  0
   38.5401  -19.4421   36.7267 C   0  0  0  0  0  0  0  0  0  0  0  0
   38.0365  -18.6154   35.7450 C   0  0  0  0  0  0  0  0  0  0  0  0
   38.4553  -18.8288   34.4493 C   0  0  0  0  0  0  0  0  0  0  0  0
   39.3611  -19.8498   34.1403 C   0  0  0  0  0  0  0  0  0  0  0  0
   40.7589  -21.6917   34.8488 O   0  0  0  0  0  0  0  0  0  0  0  0
   39.4431  -25.1386   32.9312 C   0  0  0  0  0  0  0  0  0  0  0  0
   38.6667  -24.5592   33.9132 C   0  0  0  0  0  0  0  0  0  0  0  0
   39.0888  -23.4075   34.5653 C   0  0  0  0  0  0  0  0  0  0  0  0
   40.2981  -22.8416   34.2234 C   0  0  0  0  0  0  0  0  0  0  0  0
   41.0879  -23.4135   33.2386 C   0  0  0  0  0  0  0  0  0  0  0  0
   40.6464  -24.5522   32.6098 C   0  0  0  0  0  0  0  0  0  0  0  0
   39.9146  -27.2162   31.7754 O   0  0  0  0  0  0  0  0  0  0  0  0
   39.0015  -26.3319   32.2583 N   0  0  0  0  0  0  0  0  0  0  0  0
   37.7907  -26.5336   32.1298 O   0  0  0  0  0  0  0  0  0  0  0  0
   34.3404  -14.4057   37.0277 C   0  0  0  0  0  0  0  0  0  0  0  0
   34.2125  -13.7343   38.1654 N   0  0  0  0  0  0  0  0  0  0  0  0
   33.3411  -12.8315   38.2695 N   0  0  0  0  0  0  0  0  0  0  0  0
   32.5428  -12.5387   37.2519 C   0  0  0  0  0  0  0  0  0  0  0  0
   33.1252  -13.6731   36.0760 S   0  0  0  0  0  0  0  0  0  0  0  0
   31.4958  -11.5783   37.1141 N   0  0  0  0  0  0  0  0  0  0  0  0
   31.6445  -10.2092   37.3690 C   0  0  0  0  0  0  0  0  0  0  0  0
   30.6361   -9.4445   37.2110 O   0  0  0  0  0  0  0  0  0  0  0  0
   30.5705  -11.9484   36.8017 H   0  0  0  0  0  0  0  0  0  0  0  0
   32.9462   -9.6547   37.8135 C   0  0  0  0  0  0  0  0  0  0  0  0
   33.5409   -8.7605   36.7997 C   0  0  0  0  0  0  0  0  0  0  0  0
   32.7909   -7.7912   36.1909 C   0  0  0  0  0  0  0  0  0  0  0  0
   33.4117   -6.9772   35.2399 C   0  0  0  0  0  0  0  0  0  0  0  0
   34.7271   -7.1331   34.9179 C   0  0  0  0  0  0  0  0  0  0  0  0
   35.4849   -8.1024   35.5240 C   0  0  0  0  0  0  0  0  0  0  0  0
   34.8685   -8.9206   36.4770 C   0  0  0  0  0  0  0  0  0  0  0  0
 20 21  1  0  0  0
 21 22  2  0  0  0
 21 14  1  0  0  0
 14 15  2  0  0  0
 15 16  1  0  0  0
 16 17  2  0  0  0
 17 13  1  0  0  0
 13  7  1  0  0  0
  7  8  2  0  0  0
  8  9  1  0  0  0
  9 10  2  0  0  0
 10 11  1  0  0  0
 11 12  2  0  0  0
 10  1  1  0  0  0
  1  2  2  0  0  0
  2  3  1  0  0  0
  3  4  2  0  0  0
  4  5  1  0  0  0
  5  6  2  0  0  0
  4 23  1  0  0  0
 23 24  2  0  0  0
 24 25  1  0  0  0
 25 26  2  0  0  0
 26 28  1  0  0  0
 28 29  1  0  0  0
 29 30  2  0  0  0
 29 32  1  0  0  0
 32 33  1  0  0  0
 33 34  2  0  0  0
 34 35  1  0  0  0
 35 36  2  0  0  0
 36 37  1  0  0  0
 37 38  2  0  0  0
 26 27  1  0  0  0
 17 18  1  0  0  0
 18 19  2  0  0  0
 19 14  1  0  0  0
 12  7  1  0  0  0
  6  1  1  0  0  0
 27 23  1  0  0  0
 38 33  1  0  0  0
 28 31  1  0  0  0
M  CHG 1  20  -1
M  CHG 1  21   1
M  END
> <minimizedAffinity>
-9.02096

> <CNNscore>
0.2847319245

> <CNNaffinity>
5.7495484352

> <CNN_VS>
1.6370799541

> <CNNaffinity_variance>
0.4731363654

$$$$
[H]c1c([H])c([H])c(C([H])([H])C(=O)N([H])c2nnc(-c3c([H])c([H])c(-c4c([H])c([H])c(Oc5c([H])c([H])c([N+](=O)[O-])c([H])c5[H])c([H])c4[H])c([H])c3[H])s2)c([H])c1[H]


 38 42  0  0  0  0  0  0  0  0999 V2000
   36.5562  -17.3710   36.5859 C   0  0  0  0  0  0  0  0  0  0  0  0
   36.8809  -16.2101   37.2571 C   0  0  0  0  0  0  0  0  0  0  0  0
   36.0024  -15.1299   37.2843 C   0  0  0  0  0  0  0  0  0  0  0  0
   34.7842  -15.1816   36.6456 C   0  0  0  0  0  0  0  0  0  0  0  0
   34.4677  -16.3421   35.9787 C   0  0  0  0  0  0  0  0  0  0  0  0
   35.3399  -17.4252   35.9470 C   0  0  0  0  0  0  0  0  0  0  0  0
   39.2791  -20.6867   36.5142 C   0  0  0  0  0  0  0  0  0  0  0  0
   37.9082  -20.8744   36.4472 C   0  0  0  0  0  0  0  0  0  0  0  0
   37.0340  -19.8077   36.4704 C   0  0  0  0  0  0  0  0  0  0  0  0
   37.4908  -18.5100   36.5616 C   0  0  0  0  0  0  0  0  0  0  0  0
   38.8532  -18.3126   36.6288 C   0  0  0  0  0  0  0  0  0  0  0  0
   39.7431  -19.3924   36.6054 C   0  0  0  0  0  0  0  0  0  0  0  0
   40.1386  -21.7754   36.4890 O   0  0  0  0  0  0  0  0  0  0  0  0
   40.6200  -24.1081   39.8972 C   0  0  0  0  0  0  0  0  0  0  0  0
   40.5039  -22.7384   40.0123 C   0  0  0  0  0  0  0  0  0  0  0  0
   40.3423  -21.9420   38.8857 C   0  0  0  0  0  0  0  0  0  0  0  0
   40.2983  -22.5323   37.6410 C   0  0  0  0  0  0  0  0  0  0  0  0
   40.4137  -23.9072   37.5112 C   0  0  0  0  0  0  0  0  0  0  0  0
   40.5725  -24.6711   38.6419 C   0  0  0  0  0  0  0  0  0  0  0  0
   41.1621  -26.2297   40.9362 O   0  0  0  0  0  0  0  0  0  0  0  0
   40.7871  -24.9292   41.0675 N   0  0  0  0  0  0  0  0  0  0  0  0
   40.5852  -24.4344   42.1800 O   0  0  0  0  0  0  0  0  0  0  0  0
   33.8709  -14.0479   36.6790 C   0  0  0  0  0  0  0  0  0  0  0  0
   32.9099  -13.7283   35.8212 N   0  0  0  0  0  0  0  0  0  0  0  0
   32.2104  -12.6992   36.0135 N   0  0  0  0  0  0  0  0  0  0  0  0
   32.4208  -11.9236   37.0682 C   0  0  0  0  0  0  0  0  0  0  0  0
   33.7342  -12.7774   37.8131 S   0  0  0  0  0  0  0  0  0  0  0  0
   31.7797  -10.7261   37.5074 N   0  0  0  0  0  0  0  0  0  0  0  0
   30.4365  -10.6492   37.8965 C   0  0  0  0  0  0  0  0  0  0  0  0
   29.9719   -9.5222   38.2715 O   0  0  0  0  0  0  0  0  0  0  0  0
   32.3744   -9.8679   37.5302 H   0  0  0  0  0  0  0  0  0  0  0  0
   29.5678  -11.8510   37.8749 C   0  0  0  0  0  0  0  0  0  0  0  0
   28.4093  -11.7117   38.7801 C   0  0  0  0  0  0  0  0  0  0  0  0
   28.5249  -11.9834   40.1163 C   0  0  0  0  0  0  0  0  0  0  0  0
   27.3920  -11.8327   40.9203 C   0  0  0  0  0  0  0  0  0  0  0  0
   26.1985  -11.4270   40.4013 C   0  0  0  0  0  0  0  0  0  0  0  0
   26.0754  -11.1529   39.0631 C   0  0  0  0  0  0  0  0  0  0  0  0
   27.2065  -11.3022   38.2532 C   0  0  0  0  0  0  0  0  0  0  0  0
 20 21  1  0  0  0
 21 22  2  0  0  0
 21 14  1  0  0  0
 14 15  2  0  0  0
 15 16  1  0  0  0
 16 17  2  0  0  0
 17 13  1  0  0  0
 13  7  1  0  0  0
  7  8  2  0  0  0
  8  9  1  0  0  0
  9 10  2  0  0  0
 10 11  1  0  0  0
 11 12  2  0  0  0
 10  1  1  0  0  0
  1  2  2  0  0  0
  2  3  1  0  0  0
  3  4  2  0  0  0
  4  5  1  0  0  0
  5  6  2  0  0  0
  4 23  1  0  0  0
 23 24  2  0  0  0
 24 25  1  0  0  0
 25 26  2  0  0  0
 26 28  1  0  0  0
 28 29  1  0  0  0
 29 30  2  0  0  0
 29 32  1  0  0  0
 32 33  1  0  0  0
 33 34  2  0  0  0
 34 35  1  0  0  0
 35 36  2  0  0  0
 36 37  1  0  0  0
 37 38  2  0  0  0
 26 27  1  0  0  0
 17 18  1  0  0  0
 18 19  2  0  0  0
 19 14  1  0  0  0
 12  7  1  0  0  0
  6  1  1  0  0  0
 27 23  1  0  0  0
 38 33  1  0  0  0
 28 31  1  0  0  0
M  CHG 1  20  -1
M  CHG 1  21   1
M  END
> <minimizedAffinity>
-6.79011

> <CNNscore>
0.2820112109

> <CNNaffinity>
5.6619248390

> <CNN_VS>
1.5967262983

> <CNNaffinity_variance>
0.3486302495

$$$$
[H]c1c([H])c([H])c(C([H])([H])C(=O)N([H])c2nnc(-c3c([H])c([H])c(-c4c([H])c([H])c(Oc5c([H])c([H])c([N+](=O)[O-])c([H])c5[H])c([H])c4[H])c([H])c3[H])s2)c([H])c1[H]


 38 42  0  0  0  0  0  0  0  0999 V2000
   36.4083  -20.8628   37.3998 C   0  0  0  0  0  0  0  0  0  0  0  0
   35.6863  -19.8240   36.8492 C   0  0  0  0  0  0  0  0  0  0  0  0
   34.3495  -19.9903   36.4958 C   0  0  0  0  0  0  0  0  0  0  0  0
   33.7038  -21.1914   36.6824 C   0  0  0  0  0  0  0  0  0  0  0  0
   34.4302  -22.2221   37.2318 C   0  0  0  0  0  0  0  0  0  0  0  0
   35.7656  -22.0637   37.5872 C   0  0  0  0  0  0  0  0  0  0  0  0
   40.5267  -20.3283   38.4801 C   0  0  0  0  0  0  0  0  0  0  0  0
   39.6834  -21.1400   39.2212 C   0  0  0  0  0  0  0  0  0  0  0  0
   38.3597  -21.3109   38.8729 C   0  0  0  0  0  0  0  0  0  0  0  0
   37.8224  -20.6793   37.7714 C   0  0  0  0  0  0  0  0  0  0  0  0
   38.6532  -19.8695   37.0273 C   0  0  0  0  0  0  0  0  0  0  0  0
   39.9966  -19.6938   37.3777 C   0  0  0  0  0  0  0  0  0  0  0  0
   41.8545  -20.1721   38.8501 O   0  0  0  0  0  0  0  0  0  0  0  0
   44.4542  -18.1962   36.2758 C   0  0  0  0  0  0  0  0  0  0  0  0
   44.1595  -19.5275   36.0670 C   0  0  0  0  0  0  0  0  0  0  0  0
   43.2934  -20.2051   36.9157 C   0  0  0  0  0  0  0  0  0  0  0  0
   42.7248  -19.5347   37.9772 C   0  0  0  0  0  0  0  0  0  0  0  0
   43.0122  -18.1971   38.1985 C   0  0  0  0  0  0  0  0  0  0  0  0
   43.8721  -17.5513   37.3437 C   0  0  0  0  0  0  0  0  0  0  0  0
   46.2395  -16.6008   35.8995 O   0  0  0  0  0  0  0  0  0  0  0  0
   45.3521  -17.4983   35.3936 N   0  0  0  0  0  0  0  0  0  0  0  0
   45.3007  -17.7286   34.1821 O   0  0  0  0  0  0  0  0  0  0  0  0
   32.3057  -21.3574   36.3106 C   0  0  0  0  0  0  0  0  0  0  0  0
   31.3405  -20.4470   36.2755 N   0  0  0  0  0  0  0  0  0  0  0  0
   30.1771  -20.7756   35.9237 N   0  0  0  0  0  0  0  0  0  0  0  0
   29.8990  -22.0271   35.5849 C   0  0  0  0  0  0  0  0  0  0  0  0
   31.4595  -22.7524   35.8036 S   0  0  0  0  0  0  0  0  0  0  0  0
   28.6862  -22.6463   35.1567 N   0  0  0  0  0  0  0  0  0  0  0  0
   27.7215  -23.1723   36.0250 C   0  0  0  0  0  0  0  0  0  0  0  0
   26.6743  -23.7031   35.5266 O   0  0  0  0  0  0  0  0  0  0  0  0
   28.5348  -22.6961   34.1246 H   0  0  0  0  0  0  0  0  0  0  0  0
   27.9088  -23.1157   37.4951 C   0  0  0  0  0  0  0  0  0  0  0  0
   27.0246  -22.1155   38.1266 C   0  0  0  0  0  0  0  0  0  0  0  0
   25.8360  -22.4869   38.6940 C   0  0  0  0  0  0  0  0  0  0  0  0
   25.0440  -21.4933   39.2755 C   0  0  0  0  0  0  0  0  0  0  0  0
   25.4322  -20.1866   39.2844 C   0  0  0  0  0  0  0  0  0  0  0  0
   26.6221  -19.8072   38.7176 C   0  0  0  0  0  0  0  0  0  0  0  0
   27.4193  -20.7978   38.1338 C   0  0  0  0  0  0  0  0  0  0  0  0
 20 21  1  0  0  0
 21 22  2  0  0  0
 21 14  1  0  0  0
 14 15  2  0  0  0
 15 16  1  0  0  0
 16 17  2  0  0  0
 17 13  1  0  0  0
 13  7  1  0  0  0
  7  8  2  0  0  0
  8  9  1  0  0  0
  9 10  2  0  0  0
 10 11  1  0  0  0
 11 12  2  0  0  0
 10  1  1  0  0  0
  1  2  2  0  0  0
  2  3  1  0  0  0
  3  4  2  0  0  0
  4  5  1  0  0  0
  5  6  2  0  0  0
  4 23  1  0  0  0
 23 24  2  0  0  0
 24 25  1  0  0  0
 25 26  2  0  0  0
 26 28  1  0  0  0
 28 29  1  0  0  0
 29 30  2  0  0  0
 29 32  1  0  0  0
 32 33  1  0  0  0
 33 34  2  0  0  0
 34 35  1  0  0  0
 35 36  2  0  0  0
 36 37  1  0  0  0
 37 38  2  0  0  0
 26 27  1  0  0  0
 17 18  1  0  0  0
 18 19  2  0  0  0
 19 14  1  0  0  0
 12  7  1  0  0  0
  6  1  1  0  0  0
 27 23  1  0  0  0
 38 33  1  0  0  0
 28 31  1  0  0  0
M  CHG 1  20  -1
M  CHG 1  21   1
M  END
> <minimizedAffinity>
-5.90261

> <CNNscore>
0.2525784373

> <CNNaffinity>
4.5207281113

> <CNN_VS>
1.1418384314

> <CNNaffinity_variance>
0.5129726529

$$$$
[H]c1c([H])c([H])c(C([H])([H])C(=O)N([H])c2nnc(-c3c([H])c([H])c(-c4c([H])c([H])c(Oc5c([H])c([H])c([N+](=O)[O-])c([H])c5[H])c([H])c4[H])c([H])c3[H])s2)c([H])c1[H]


 38 42  0  0  0  0  0  0  0  0999 V2000
   35.6509  -19.3228   35.0456 C   0  0  0  0  0  0  0  0  0  0  0  0
   36.3562  -18.7830   33.9898 C   0  0  0  0  0  0  0  0  0  0  0  0
   37.7426  -18.6626   34.0427 C   0  0  0  0  0  0  0  0  0  0  0  0
   38.4556  -19.0760   35.1450 C   0  0  0  0  0  0  0  0  0  0  0  0
   37.7455  -19.6130   36.1935 C   0  0  0  0  0  0  0  0  0  0  0  0
   36.3608  -19.7366   36.1481 C   0  0  0  0  0  0  0  0  0  0  0  0
   31.3791  -19.6845   34.8600 C   0  0  0  0  0  0  0  0  0  0  0  0
   32.0354  -19.4638   36.0599 C   0  0  0  0  0  0  0  0  0  0  0  0
   33.4086  -19.3478   36.1182 C   0  0  0  0  0  0  0  0  0  0  0  0
   34.1840  -19.4473   34.9825 C   0  0  0  0  0  0  0  0  0  0  0  0
   33.5406  -19.6668   33.7835 C   0  0  0  0  0  0  0  0  0  0  0  0
   32.1475  -19.7850   33.7206 C   0  0  0  0  0  0  0  0  0  0  0  0
   29.9969  -19.7976   34.8264 O   0  0  0  0  0  0  0  0  0  0  0  0
   28.1361  -22.7688   37.0622 C   0  0  0  0  0  0  0  0  0  0  0  0
   28.9575  -23.1136   36.0091 C   0  0  0  0  0  0  0  0  0  0  0  0
   29.5882  -22.1357   35.2503 C   0  0  0  0  0  0  0  0  0  0  0  0
   29.3873  -20.8072   35.5576 C   0  0  0  0  0  0  0  0  0  0  0  0
   28.5646  -20.4470   36.6130 C   0  0  0  0  0  0  0  0  0  0  0  0
   27.9533  -21.4344   37.3469 C   0  0  0  0  0  0  0  0  0  0  0  0
   27.9684  -24.1091   39.0746 O   0  0  0  0  0  0  0  0  0  0  0  0
   27.4848  -23.7856   37.8456 N   0  0  0  0  0  0  0  0  0  0  0  0
   26.4898  -24.3514   37.3841 O   0  0  0  0  0  0  0  0  0  0  0  0
   39.9053  -18.9470   35.1926 C   0  0  0  0  0  0  0  0  0  0  0  0
   40.7631  -18.8250   34.1871 N   0  0  0  0  0  0  0  0  0  0  0  0
   41.9961  -18.7226   34.4200 N   0  0  0  0  0  0  0  0  0  0  0  0
   42.4548  -18.7348   35.6641 C   0  0  0  0  0  0  0  0  0  0  0  0
   40.9637  -18.9085   36.5333 S   0  0  0  0  0  0  0  0  0  0  0  0
   43.7792  -18.6354   36.1874 N   0  0  0  0  0  0  0  0  0  0  0  0
   44.5593  -19.7339   36.5695 C   0  0  0  0  0  0  0  0  0  0  0  0
   45.7319  -19.5227   37.0247 O   0  0  0  0  0  0  0  0  0  0  0  0
   44.1657  -17.6696   36.2801 H   0  0  0  0  0  0  0  0  0  0  0  0
   44.0374  -21.1168   36.4490 C   0  0  0  0  0  0  0  0  0  0  0  0
   43.8803  -21.7648   37.7668 C   0  0  0  0  0  0  0  0  0  0  0  0
   42.9753  -21.2930   38.6784 C   0  0  0  0  0  0  0  0  0  0  0  0
   42.8742  -21.9496   39.9077 C   0  0  0  0  0  0  0  0  0  0  0  0
   43.6492  -23.0312   40.2039 C   0  0  0  0  0  0  0  0  0  0  0  0
   44.5583  -23.5095   39.2951 C   0  0  0  0  0  0  0  0  0  0  0  0
   44.6640  -22.8559   38.0625 C   0  0  0  0  0  0  0  0  0  0  0  0
 20 21  1  0  0  0
 21 22  2  0  0  0
 21 14  1  0  0  0
 14 15  2  0  0  0
 15 16  1  0  0  0
 16 17  2  0  0  0
 17 13  1  0  0  0
 13  7  1  0  0  0
  7  8  2  0  0  0
  8  9  1  0  0  0
  9 10  2  0  0  0
 10 11  1  0  0  0
 11 12  2  0  0  0
 10  1  1  0  0  0
  1  2  2  0  0  0
  2  3  1  0  0  0
  3  4  2  0  0  0
  4  5  1  0  0  0
  5  6  2  0  0  0
  4 23  1  0  0  0
 23 24  2  0  0  0
 24 25  1  0  0  0
 25 26  2  0  0  0
 26 28  1  0  0  0
 28 29  1  0  0  0
 29 30  2  0  0  0
 29 32  1  0  0  0
 32 33  1  0  0  0
 33 34  2  0  0  0
 34 35  1  0  0  0
 35 36  2  0  0  0
 36 37  1  0  0  0
 37 38  2  0  0  0
 26 27  1  0  0  0
 17 18  1  0  0  0
 18 19  2  0  0  0
 19 14  1  0  0  0
 12  7  1  0  0  0
  6  1  1  0  0  0
 27 23  1  0  0  0
 38 33  1  0  0  0
 28 31  1  0  0  0
M  CHG 1  20  -1
M  CHG 1  21   1
M  END
> <minimizedAffinity>
-5.68695

> <CNNscore>
0.2476939261

> <CNNaffinity>
4.9117193222

> <CNN_VS>
1.2166030407

> <CNNaffinity_variance>
0.2420145273

$$$$
[H]c1c([H])c([H])c(C([H])([H])C(=O)N([H])c2nnc(-c3c([H])c([H])c(-c4c([H])c([H])c(Oc5c([H])c([H])c([N+](=O)[O-])c([H])c5[H])c([H])c4[H])c([H])c3[H])s2)c([H])c1[H]


 38 42  0  0  0  0  0  0  0  0999 V2000
   33.7121  -19.9451   35.4343 C   0  0  0  0  0  0  0  0  0  0  0  0
   34.6666  -20.2732   36.3750 C   0  0  0  0  0  0  0  0  0  0  0  0
   36.0132  -19.9943   36.1550 C   0  0  0  0  0  0  0  0  0  0  0  0
   36.4381  -19.3841   34.9967 C   0  0  0  0  0  0  0  0  0  0  0  0
   35.4806  -19.0601   34.0638 C   0  0  0  0  0  0  0  0  0  0  0  0
   34.1339  -19.3354   34.2763 C   0  0  0  0  0  0  0  0  0  0  0  0
   29.5676  -20.8109   36.1320 C   0  0  0  0  0  0  0  0  0  0  0  0
   30.5725  -21.5233   36.7659 C   0  0  0  0  0  0  0  0  0  0  0  0
   31.9044  -21.2440   36.5407 C   0  0  0  0  0  0  0  0  0  0  0  0
   32.2890  -20.2431   35.6740 C   0  0  0  0  0  0  0  0  0  0  0  0
   31.2967  -19.5284   35.0383 C   0  0  0  0  0  0  0  0  0  0  0  0
   29.9444  -19.8089   35.2644 C   0  0  0  0  0  0  0  0  0  0  0  0
   28.2349  -21.1101   36.3747 O   0  0  0  0  0  0  0  0  0  0  0  0
   26.6299  -20.2507   40.1130 C   0  0  0  0  0  0  0  0  0  0  0  0
   27.1525  -21.5021   39.8603 C   0  0  0  0  0  0  0  0  0  0  0  0
   27.6932  -21.8085   38.6180 C   0  0  0  0  0  0  0  0  0  0  0  0
   27.7051  -20.8475   37.6301 C   0  0  0  0  0  0  0  0  0  0  0  0
   27.1834  -19.5863   37.8706 C   0  0  0  0  0  0  0  0  0  0  0  0
   26.6549  -19.3101   39.1082 C   0  0  0  0  0  0  0  0  0  0  0  0
   26.8354  -20.0559   42.5201 O   0  0  0  0  0  0  0  0  0  0  0  0
   26.0709  -19.9378   41.4019 N   0  0  0  0  0  0  0  0  0  0  0  0
   24.8965  -19.5644   41.4705 O   0  0  0  0  0  0  0  0  0  0  0  0
   37.8479  -19.0956   34.7742 C   0  0  0  0  0  0  0  0  0  0  0  0
   38.5269  -19.0938   33.6338 N   0  0  0  0  0  0  0  0  0  0  0  0
   39.7548  -18.8158   33.6322 N   0  0  0  0  0  0  0  0  0  0  0  0
   40.3854  -18.5223   34.7612 C   0  0  0  0  0  0  0  0  0  0  0  0
   39.0732  -18.6695   35.8862 S   0  0  0  0  0  0  0  0  0  0  0  0
   41.7451  -18.1776   35.0258 N   0  0  0  0  0  0  0  0  0  0  0  0
   42.6456  -18.9987   35.7159 C   0  0  0  0  0  0  0  0  0  0  0  0
   43.8388  -18.5846   35.8931 O   0  0  0  0  0  0  0  0  0  0  0  0
   42.0613  -17.2479   34.6703 H   0  0  0  0  0  0  0  0  0  0  0  0
   42.2253  -20.3240   36.2321 C   0  0  0  0  0  0  0  0  0  0  0  0
   42.3018  -20.3927   37.7054 C   0  0  0  0  0  0  0  0  0  0  0  0
   41.7315  -19.4231   38.4846 C   0  0  0  0  0  0  0  0  0  0  0  0
   41.8385  -19.5449   39.8725 C   0  0  0  0  0  0  0  0  0  0  0  0
   42.4900  -20.5952   40.4477 C   0  0  0  0  0  0  0  0  0  0  0  0
   43.0639  -21.5706   39.6729 C   0  0  0  0  0  0  0  0  0  0  0  0
   42.9600  -21.4537   38.2825 C   0  0  0  0  0  0  0  0  0  0  0  0
 20 21  1  0  0  0
 21 22  2  0  0  0
 21 14  1  0  0  0
 14 15  2  0  0  0
 15 16  1  0  0  0
 16 17  2  0  0  0
 17 13  1  0  0  0
 13  7  1  0  0  0
  7  8  2  0  0  0
  8  9  1  0  0  0
  9 10  2  0  0  0
 10 11  1  0  0  0
 11 12  2  0  0  0
 10  1  1  0  0  0
  1  2  2  0  0  0
  2  3  1  0  0  0
  3  4  2  0  0  0
  4  5  1  0  0  0
  5  6  2  0  0  0
  4 23  1  0  0  0
 23 24  2  0  0  0
 24 25  1  0  0  0
 25 26  2  0  0  0
 26 28  1  0  0  0
 28 29  1  0  0  0
 29 30  2  0  0  0
 29 32  1  0  0  0
 32 33  1  0  0  0
 33 34  2  0  0  0
 34 35  1  0  0  0
 35 36  2  0  0  0
 36 37  1  0  0  0
 37 38  2  0  0  0
 26 27  1  0  0  0
 17 18  1  0  0  0
 18 19  2  0  0  0
 19 14  1  0  0  0
 12  7  1  0  0  0
  6  1  1  0  0  0
 27 23  1  0  0  0
 38 33  1  0  0  0
 28 31  1  0  0  0
M  CHG 1  20  -1
M  CHG 1  21   1
M  END
> <minimizedAffinity>
-5.84557

> <CNNscore>
0.2420876473

> <CNNaffinity>
5.0468077660

> <CNN_VS>
1.2217698097

> <CNNaffinity_variance>
0.2058120668

$$$$
[H]OC([H])([H])N(C(=O)c1c([H])c(Cl)c([H])c(Cl)c1[H])N(C([H])([H])C([H])([H])C([H])([H])[H])C([H])([H])C([H])(O[H])C([H])([H])O[H]


 25 25  0  0  0  0  0  0  0  0999 V2000
   35.5358  -18.3480   36.3955 N   0  0  0  0  0  0  0  0  0  0  0  0
   35.2954  -17.1238   35.8350 C   0  0  0  0  0  0  0  0  0  0  0  0
   34.9037  -17.1947   34.5788 O   0  0  0  0  0  0  0  0  0  0  0  0
   35.3818  -15.7935   36.3390 C   0  0  0  0  0  0  0  0  0  0  0  0
   34.1896  -15.0293   36.3971 C   0  0  0  0  0  0  0  0  0  0  0  0
   34.2152  -13.7524   36.8361 C   0  0  0  0  0  0  0  0  0  0  0  0
   32.7475  -12.8167   36.9033 Cl  0  0  0  0  0  0  0  0  0  0  0  0
   35.3924  -13.1739   37.2328 C   0  0  0  0  0  0  0  0  0  0  0  0
   36.5473  -13.8957   37.1826 C   0  0  0  0  0  0  0  0  0  0  0  0
   38.0694  -13.1885   37.6860 Cl  0  0  0  0  0  0  0  0  0  0  0  0
   36.5579  -15.2196   36.7330 C   0  0  0  0  0  0  0  0  0  0  0  0
   35.9242  -18.6988   37.7115 C   0  0  0  0  0  0  0  0  0  0  0  0
   36.4555  -20.0059   37.8229 O   0  0  0  0  0  0  0  0  0  0  0  0
   36.6227  -20.2215   38.7625 H   0  0  0  0  0  0  0  0  0  0  0  0
   35.3263  -19.4681   35.4628 N   0  0  0  0  0  0  0  0  0  0  0  0
   33.9635  -19.7122   35.2924 C   0  0  0  0  0  0  0  0  0  0  0  0
   31.9682  -19.7277   33.7637 C   0  0  0  0  0  0  0  0  0  0  0  0
   33.4246  -20.0683   33.9631 C   0  0  0  0  0  0  0  0  0  0  0  0
   36.2045  -19.2767   34.4028 C   0  0  0  0  0  0  0  0  0  0  0  0
   37.6655  -19.4500   34.5770 C   0  0  0  0  0  0  0  0  0  0  0  0
   37.9370  -20.8024   34.1775 O   0  0  0  0  0  0  0  0  0  0  0  0
   37.1415  -21.3613   34.3339 H   0  0  0  0  0  0  0  0  0  0  0  0
   38.4422  -18.6297   33.5338 C   0  0  0  0  0  0  0  0  0  0  0  0
   38.8829  -19.4627   32.5042 O   0  0  0  0  0  0  0  0  0  0  0  0
   39.6680  -19.1005   32.0441 H   0  0  0  0  0  0  0  0  0  0  0  0
 17 18  1  0  0  0
 18 16  1  0  0  0
 16 15  1  0  0  0
 15 19  1  0  0  0
 19 20  1  0  0  0
 20 21  1  0  0  0
 20 23  1  0  0  0
 23 24  1  0  0  0
 15  1  1  0  0  0
  1 12  1  0  0  0
 12 13  1  0  0  0
  1  2  1  0  0  0
  2  3  2  0  0  0
  2  4  1  0  0  0
  4  5  2  0  0  0
  5  6  1  0  0  0
  6  7  1  0  0  0
  6  8  2  0  0  0
  8  9  1  0  0  0
  9 10  1  0  0  0
  9 11  2  0  0  0
 11  4  1  0  0  0
 21 22  1  0  0  0
 24 25  1  0  0  0
 13 14  1  0  0  0
M  END
> <minimizedAffinity>
-6.46869

> <CNNscore>
0.6265031695

> <CNNaffinity>
4.5663971901

> <CNN_VS>
2.8608622551

> <CNNaffinity_variance>
0.7743073702

$$$$
[H]OC([H])([H])N(C(=O)c1c([H])c(Cl)c([H])c(Cl)c1[H])N(C([H])([H])C([H])([H])C([H])([H])[H])C([H])([H])C([H])(O[H])C([H])([H])O[H]


 25 25  0  0  0  0  0  0  0  0999 V2000
   35.7295  -17.8842   35.1599 N   0  0  0  0  0  0  0  0  0  0  0  0
   35.1202  -17.0538   36.0598 C   0  0  0  0  0  0  0  0  0  0  0  0
   34.1221  -17.6259   36.7024 O   0  0  0  0  0  0  0  0  0  0  0  0
   35.3518  -15.7000   36.4400 C   0  0  0  0  0  0  0  0  0  0  0  0
   34.2346  -14.8300   36.5028 C   0  0  0  0  0  0  0  0  0  0  0  0
   34.3969  -13.5290   36.8267 C   0  0  0  0  0  0  0  0  0  0  0  0
   33.0208  -12.4636   36.9002 Cl  0  0  0  0  0  0  0  0  0  0  0  0
   35.6426  -13.0276   37.1000 C   0  0  0  0  0  0  0  0  0  0  0  0
   36.7267  -13.8514   37.0435 C   0  0  0  0  0  0  0  0  0  0  0  0
   38.3333  -13.2444   37.3911 Cl  0  0  0  0  0  0  0  0  0  0  0  0
   36.5958  -15.2032   36.7111 C   0  0  0  0  0  0  0  0  0  0  0  0
   36.8470  -17.6686   34.3169 C   0  0  0  0  0  0  0  0  0  0  0  0
   38.0942  -17.8331   34.9654 O   0  0  0  0  0  0  0  0  0  0  0  0
   38.8225  -17.5870   34.3603 H   0  0  0  0  0  0  0  0  0  0  0  0
   35.1184  -19.2223   35.0940 N   0  0  0  0  0  0  0  0  0  0  0  0
   34.5856  -19.4530   33.8256 C   0  0  0  0  0  0  0  0  0  0  0  0
   32.2605  -19.7091   34.7459 C   0  0  0  0  0  0  0  0  0  0  0  0
   33.2546  -20.0771   33.6721 C   0  0  0  0  0  0  0  0  0  0  0  0
   35.9981  -20.0962   35.7215 C   0  0  0  0  0  0  0  0  0  0  0  0
   35.6007  -20.8413   36.9387 C   0  0  0  0  0  0  0  0  0  0  0  0
   34.5785  -21.7535   36.5079 O   0  0  0  0  0  0  0  0  0  0  0  0
   34.1054  -21.3789   35.7297 H   0  0  0  0  0  0  0  0  0  0  0  0
   36.7247  -21.7872   37.3928 C   0  0  0  0  0  0  0  0  0  0  0  0
   37.4747  -22.2002   36.2905 O   0  0  0  0  0  0  0  0  0  0  0  0
   37.9253  -23.0556   36.4476 H   0  0  0  0  0  0  0  0  0  0  0  0
 17 18  1  0  0  0
 18 16  1  0  0  0
 16 15  1  0  0  0
 15 19  1  0  0  0
 19 20  1  0  0  0
 20 21  1  0  0  0
 20 23  1  0  0  0
 23 24  1  0  0  0
 15  1  1  0  0  0
  1 12  1  0  0  0
 12 13  1  0  0  0
  1  2  1  0  0  0
  2  3  2  0  0  0
  2  4  1  0  0  0
  4  5  2  0  0  0
  5  6  1  0  0  0
  6  7  1  0  0  0
  6  8  2  0  0  0
  8  9  1  0  0  0
  9 10  1  0  0  0
  9 11  2  0  0  0
 11  4  1  0  0  0
 21 22  1  0  0  0
 24 25  1  0  0  0
 13 14  1  0  0  0
M  END
> <minimizedAffinity>
-5.29566

> <CNNscore>
0.6052170992

> <CNNaffinity>
4.6150555611

> <CNN_VS>
2.7931106091

> <CNNaffinity_variance>
0.3437648118

$$$$
[H]OC([H])([H])N(C(=O)c1c([H])c(Cl)c([H])c(Cl)c1[H])N(C([H])([H])C([H])([H])C([H])([H])[H])C([H])([H])C([H])(O[H])C([H])([H])O[H]


 25 25  0  0  0  0  0  0  0  0999 V2000
   35.7388  -18.5484   36.7446 N   0  0  0  0  0  0  0  0  0  0  0  0
   35.6088  -17.3696   36.0634 C   0  0  0  0  0  0  0  0  0  0  0  0
   35.4261  -17.5343   34.7688 O   0  0  0  0  0  0  0  0  0  0  0  0
   35.6292  -16.0053   36.4750 C   0  0  0  0  0  0  0  0  0  0  0  0
   34.4217  -15.2687   36.3842 C   0  0  0  0  0  0  0  0  0  0  0  0
   34.3877  -13.9637   36.7302 C   0  0  0  0  0  0  0  0  0  0  0  0
   32.9017  -13.0624   36.6145 Cl  0  0  0  0  0  0  0  0  0  0  0  0
   35.5182  -13.3296   37.1748 C   0  0  0  0  0  0  0  0  0  0  0  0
   36.6870  -14.0242   37.2675 C   0  0  0  0  0  0  0  0  0  0  0  0
   38.1503  -13.2455   37.8359 Cl  0  0  0  0  0  0  0  0  0  0  0  0
   36.7589  -15.3759   36.9172 C   0  0  0  0  0  0  0  0  0  0  0  0
   35.9030  -18.7997   38.1287 C   0  0  0  0  0  0  0  0  0  0  0  0
   34.8319  -19.5181   38.7117 O   0  0  0  0  0  0  0  0  0  0  0  0
   34.9592  -19.5843   39.6794 H   0  0  0  0  0  0  0  0  0  0  0  0
   35.6695  -19.7352   35.8756 N   0  0  0  0  0  0  0  0  0  0  0  0
   36.8500  -20.4731   35.9632 C   0  0  0  0  0  0  0  0  0  0  0  0
   38.1500  -19.8922   33.8917 C   0  0  0  0  0  0  0  0  0  0  0  0
   38.1098  -19.9448   35.3992 C   0  0  0  0  0  0  0  0  0  0  0  0
   34.4084  -20.2907   36.0555 C   0  0  0  0  0  0  0  0  0  0  0  0
   33.3667  -20.1830   35.0077 C   0  0  0  0  0  0  0  0  0  0  0  0
   32.8607  -21.5163   34.8378 O   0  0  0  0  0  0  0  0  0  0  0  0
   33.5622  -22.1693   35.0641 H   0  0  0  0  0  0  0  0  0  0  0  0
   32.1381  -19.4225   35.5334 C   0  0  0  0  0  0  0  0  0  0  0  0
   32.3384  -18.0470   35.4060 O   0  0  0  0  0  0  0  0  0  0  0  0
   31.8002  -17.5330   36.0428 H   0  0  0  0  0  0  0  0  0  0  0  0
 17 18  1  0  0  0
 18 16  1  0  0  0
 16 15  1  0  0  0
 15 19  1  0  0  0
 19 20  1  0  0  0
 20 21  1  0  0  0
 20 23  1  0  0  0
 23 24  1  0  0  0
 15  1  1  0  0  0
  1 12  1  0  0  0
 12 13  1  0  0  0
  1  2  1  0  0  0
  2  3  2  0  0  0
  2  4  1  0  0  0
  4  5  2  0  0  0
  5  6  1  0  0  0
  6  7  1  0  0  0
  6  8  2  0  0  0
  8  9  1  0  0  0
  9 10  1  0  0  0
  9 11  2  0  0  0
 11  4  1  0  0  0
 21 22  1  0  0  0
 24 25  1  0  0  0
 13 14  1  0  0  0
M  END
> <minimizedAffinity>
-5.72469

> <CNNscore>
0.5584642887

> <CNNaffinity>
4.4308028221

> <CNN_VS>
2.4744451046

> <CNNaffinity_variance>
0.5144537091

$$$$
[H]OC([H])([H])N(C(=O)c1c([H])c(Cl)c([H])c(Cl)c1[H])N(C([H])([H])C([H])([H])C([H])([H])[H])C([H])([H])C([H])(O[H])C([H])([H])O[H]


 25 25  0  0  0  0  0  0  0  0999 V2000
   34.9749  -17.9173   35.4024 N   0  0  0  0  0  0  0  0  0  0  0  0
   35.6015  -17.0952   36.2980 C   0  0  0  0  0  0  0  0  0  0  0  0
   36.4511  -17.7296   37.0804 O   0  0  0  0  0  0  0  0  0  0  0  0
   35.5198  -15.6947   36.5495 C   0  0  0  0  0  0  0  0  0  0  0  0
   36.7209  -15.0054   36.8510 C   0  0  0  0  0  0  0  0  0  0  0  0
   36.7010  -13.6840   37.1289 C   0  0  0  0  0  0  0  0  0  0  0  0
   38.1797  -12.8421   37.5011 Cl  0  0  0  0  0  0  0  0  0  0  0  0
   35.5211  -12.9871   37.1240 C   0  0  0  0  0  0  0  0  0  0  0  0
   34.3577  -13.6358   36.8362 C   0  0  0  0  0  0  0  0  0  0  0  0
   32.8317  -12.7747   36.8172 Cl  0  0  0  0  0  0  0  0  0  0  0  0
   34.3410  -15.0032   36.5445 C   0  0  0  0  0  0  0  0  0  0  0  0
   34.0410  -17.6237   34.3790 C   0  0  0  0  0  0  0  0  0  0  0  0
   32.7069  -17.5071   34.8369 O   0  0  0  0  0  0  0  0  0  0  0  0
   32.1002  -17.3921   34.0781 H   0  0  0  0  0  0  0  0  0  0  0  0
   35.3722  -19.3295   35.5297 N   0  0  0  0  0  0  0  0  0  0  0  0
   34.2880  -20.1061   35.9386 C   0  0  0  0  0  0  0  0  0  0  0  0
   33.0323  -21.4673   37.6382 C   0  0  0  0  0  0  0  0  0  0  0  0
   34.0881  -20.4236   37.3681 C   0  0  0  0  0  0  0  0  0  0  0  0
   36.1477  -19.6297   34.4162 C   0  0  0  0  0  0  0  0  0  0  0  0
   37.6268  -19.5668   34.4726 C   0  0  0  0  0  0  0  0  0  0  0  0
   38.0834  -20.6902   33.7033 O   0  0  0  0  0  0  0  0  0  0  0  0
   37.4109  -21.4089   33.7331 H   0  0  0  0  0  0  0  0  0  0  0  0
   38.1550  -18.3700   33.6646 C   0  0  0  0  0  0  0  0  0  0  0  0
   38.9263  -18.8216   32.5925 O   0  0  0  0  0  0  0  0  0  0  0  0
   39.5743  -18.1511   32.2930 H   0  0  0  0  0  0  0  0  0  0  0  0
 17 18  1  0  0  0
 18 16  1  0  0  0
 16 15  1  0  0  0
 15 19  1  0  0  0
 19 20  1  0  0  0
 20 21  1  0  0  0
 20 23  1  0  0  0
 23 24  1  0  0  0
 15  1  1  0  0  0
  1 12  1  0  0  0
 12 13  1  0  0  0
  1  2  1  0  0  0
  2  3  2  0  0  0
  2  4  1  0  0  0
  4  5  2  0  0  0
  5  6  1  0  0  0
  6  7  1  0  0  0
  6  8  2  0  0  0
  8  9  1  0  0  0
  9 10  1  0  0  0
  9 11  2  0  0  0
 11  4  1  0  0  0
 21 22  1  0  0  0
 24 25  1  0  0  0
 13 14  1  0  0  0
M  END
> <minimizedAffinity>
-6.00909

> <CNNscore>
0.5369849801

> <CNNaffinity>
4.5425443649

> <CNN_VS>
2.4392781258

> <CNNaffinity_variance>
0.5626078844

$$$$
[H]OC([H])([H])N(C(=O)c1c([H])c(Cl)c([H])c(Cl)c1[H])N(C([H])([H])C([H])([H])C([H])([H])[H])C([H])([H])C([H])(O[H])C([H])([H])O[H]


 25 25  0  0  0  0  0  0  0  0999 V2000
   35.6992  -18.3034   36.0183 N   0  0  0  0  0  0  0  0  0  0  0  0
   35.9001  -17.0396   35.5357 C   0  0  0  0  0  0  0  0  0  0  0  0
   36.3137  -17.0201   34.2847 O   0  0  0  0  0  0  0  0  0  0  0  0
   35.7488  -15.7460   36.1143 C   0  0  0  0  0  0  0  0  0  0  0  0
   36.9033  -15.1208   36.6482 C   0  0  0  0  0  0  0  0  0  0  0  0
   36.8156  -13.9087   37.2371 C   0  0  0  0  0  0  0  0  0  0  0  0
   38.2372  -13.1458   37.8937 Cl  0  0  0  0  0  0  0  0  0  0  0  0
   35.6107  -13.2624   37.3286 C   0  0  0  0  0  0  0  0  0  0  0  0
   34.4914  -13.8506   36.8202 C   0  0  0  0  0  0  0  0  0  0  0  0
   32.9354  -13.0505   36.9165 Cl  0  0  0  0  0  0  0  0  0  0  0  0
   34.5452  -15.1048   36.2045 C   0  0  0  0  0  0  0  0  0  0  0  0
   35.2246  -18.7443   37.2777 C   0  0  0  0  0  0  0  0  0  0  0  0
   35.6765  -20.0356   37.6403 O   0  0  0  0  0  0  0  0  0  0  0  0
   35.2484  -20.3198   38.4729 H   0  0  0  0  0  0  0  0  0  0  0  0
   36.0131  -19.3583   35.0400 N   0  0  0  0  0  0  0  0  0  0  0  0
   35.1226  -19.3091   33.9674 C   0  0  0  0  0  0  0  0  0  0  0  0
   32.7302  -18.5703   34.1889 C   0  0  0  0  0  0  0  0  0  0  0  0
   33.7123  -19.7149   34.1427 C   0  0  0  0  0  0  0  0  0  0  0  0
   37.3941  -19.3626   34.8844 C   0  0  0  0  0  0  0  0  0  0  0  0
   38.0244  -19.8791   33.6471 C   0  0  0  0  0  0  0  0  0  0  0  0
   38.6520  -18.7401   33.0377 O   0  0  0  0  0  0  0  0  0  0  0  0
   38.1673  -17.9202   33.2876 H   0  0  0  0  0  0  0  0  0  0  0  0
   39.2221  -20.7841   33.9797 C   0  0  0  0  0  0  0  0  0  0  0  0
   38.8372  -22.1245   33.9225 O   0  0  0  0  0  0  0  0  0  0  0  0
   39.4085  -22.6985   34.4735 H   0  0  0  0  0  0  0  0  0  0  0  0
 17 18  1  0  0  0
 18 16  1  0  0  0
 16 15  1  0  0  0
 15 19  1  0  0  0
 19 20  1  0  0  0
 20 21  1  0  0  0
 20 23  1  0  0  0
 23 24  1  0  0  0
 15  1  1  0  0  0
  1 12  1  0  0  0
 12 13  1  0  0  0
  1  2  1  0  0  0
  2  3  2  0  0  0
  2  4  1  0  0  0
  4  5  2  0  0  0
  5  6  1  0  0  0
  6  7  1  0  0  0
  6  8  2  0  0  0
  8  9  1  0  0  0
  9 10  1  0  0  0
  9 11  2  0  0  0
 11  4  1  0  0  0
 21 22  1  0  0  0
 24 25  1  0  0  0
 13 14  1  0  0  0
M  END
> <minimizedAffinity>
-6.01838

> <CNNscore>
0.5064699650

> <CNNaffinity>
4.4036827087

> <CNN_VS>
2.2303330898

> <CNNaffinity_variance>
0.6148775220

$$$$
[H]OC([H])([H])N(C(=O)c1c([H])c(Cl)c([H])c(Cl)c1[H])N(C([H])([H])C([H])([H])C([H])([H])[H])C([H])([H])C([H])(O[H])C([H])([H])O[H]


 25 25  0  0  0  0  0  0  0  0999 V2000
   34.8986  -18.0066   36.2248 N   0  0  0  0  0  0  0  0  0  0  0  0
   34.5712  -16.7397   35.8268 C   0  0  0  0  0  0  0  0  0  0  0  0
   33.8239  -16.7121   34.7419 O   0  0  0  0  0  0  0  0  0  0  0  0
   34.8747  -15.4502   36.3522 C   0  0  0  0  0  0  0  0  0  0  0  0
   33.7967  -14.5598   36.5843 C   0  0  0  0  0  0  0  0  0  0  0  0
   34.0259  -13.3136   37.0516 C   0  0  0  0  0  0  0  0  0  0  0  0
   32.6977  -12.2225   37.3329 Cl  0  0  0  0  0  0  0  0  0  0  0  0
   35.3029  -12.8886   37.3095 C   0  0  0  0  0  0  0  0  0  0  0  0
   36.3501  -13.7329   37.0912 C   0  0  0  0  0  0  0  0  0  0  0  0
   37.9953  -13.2234   37.4141 Cl  0  0  0  0  0  0  0  0  0  0  0  0
   36.1497  -15.0294   36.6074 C   0  0  0  0  0  0  0  0  0  0  0  0
   35.6374  -18.4586   37.3455 C   0  0  0  0  0  0  0  0  0  0  0  0
   37.0334  -18.2560   37.2311 O   0  0  0  0  0  0  0  0  0  0  0  0
   37.4955  -18.6647   37.9905 H   0  0  0  0  0  0  0  0  0  0  0  0
   34.3630  -19.0534   35.3385 N   0  0  0  0  0  0  0  0  0  0  0  0
   35.4019  -19.7261   34.6951 C   0  0  0  0  0  0  0  0  0  0  0  0
   37.7998  -19.5150   33.9711 C   0  0  0  0  0  0  0  0  0  0  0  0
   36.3903  -18.9831   33.8856 C   0  0  0  0  0  0  0  0  0  0  0  0
   33.3580  -19.7021   36.0460 C   0  0  0  0  0  0  0  0  0  0  0  0
   31.9478  -19.6520   35.5946 C   0  0  0  0  0  0  0  0  0  0  0  0
   31.5197  -18.3029   35.8380 O   0  0  0  0  0  0  0  0  0  0  0  0
   32.0284  -17.9235   36.5909 H   0  0  0  0  0  0  0  0  0  0  0  0
   31.8589  -19.7611   34.0635 C   0  0  0  0  0  0  0  0  0  0  0  0
   32.4434  -20.9543   33.6357 O   0  0  0  0  0  0  0  0  0  0  0  0
   32.7544  -20.9036   32.7083 H   0  0  0  0  0  0  0  0  0  0  0  0
 17 18  1  0  0  0
 18 16  1  0  0  0
 16 15  1  0  0  0
 15 19  1  0  0  0
 19 20  1  0  0  0
 20 21  1  0  0  0
 20 23  1  0  0  0
 23 24  1  0  0  0
 15  1  1  0  0  0
  1 12  1  0  0  0
 12 13  1  0  0  0
  1  2  1  0  0  0
  2  3  2  0  0  0
  2  4  1  0  0  0
  4  5  2  0  0  0
  5  6  1  0  0  0
  6  7  1  0  0  0
  6  8  2  0  0  0
  8  9  1  0  0  0
  9 10  1  0  0  0
  9 11  2  0  0  0
 11  4  1  0  0  0
 21 22  1  0  0  0
 24 25  1  0  0  0
 13 14  1  0  0  0
M  END
> <minimizedAffinity>
-6.23714

> <CNNscore>
0.4947306514

> <CNNaffinity>
4.5966587067

> <CNN_VS>
2.2741079330

> <CNNaffinity_variance>
0.3392178416

$$$$
[H]OC([H])([H])N(C(=O)c1c([H])c(Cl)c([H])c(Cl)c1[H])N(C([H])([H])C([H])([H])C([H])([H])[H])C([H])([H])C([H])(O[H])C([H])([H])O[H]


 25 25  0  0  0  0  0  0  0  0999 V2000
   34.8653  -17.9210   36.2223 N   0  0  0  0  0  0  0  0  0  0  0  0
   34.4908  -16.6765   35.7962 C   0  0  0  0  0  0  0  0  0  0  0  0
   33.7440  -16.7011   34.7108 O   0  0  0  0  0  0  0  0  0  0  0  0
   34.7450  -15.3651   36.2929 C   0  0  0  0  0  0  0  0  0  0  0  0
   36.0941  -14.9917   36.5152 C   0  0  0  0  0  0  0  0  0  0  0  0
   36.3943  -13.7733   37.0143 C   0  0  0  0  0  0  0  0  0  0  0  0
   38.0538  -13.3203   37.2878 Cl  0  0  0  0  0  0  0  0  0  0  0  0
   35.4015  -12.8776   37.3141 C   0  0  0  0  0  0  0  0  0  0  0  0
   34.0994  -13.2218   37.1062 C   0  0  0  0  0  0  0  0  0  0  0  0
   32.8052  -12.0994   37.4747 Cl  0  0  0  0  0  0  0  0  0  0  0  0
   33.7522  -14.4746   36.5916 C   0  0  0  0  0  0  0  0  0  0  0  0
   35.6195  -18.3198   37.3528 C   0  0  0  0  0  0  0  0  0  0  0  0
   37.0102  -18.0912   37.2235 O   0  0  0  0  0  0  0  0  0  0  0  0
   37.4850  -18.4647   37.9931 H   0  0  0  0  0  0  0  0  0  0  0  0
   34.3703  -19.0066   35.3593 N   0  0  0  0  0  0  0  0  0  0  0  0
   35.4359  -19.6717   34.7528 C   0  0  0  0  0  0  0  0  0  0  0  0
   37.8202  -19.3551   34.0225 C   0  0  0  0  0  0  0  0  0  0  0  0
   36.3763  -18.9417   33.8769 C   0  0  0  0  0  0  0  0  0  0  0  0
   33.3700  -19.6592   36.0700 C   0  0  0  0  0  0  0  0  0  0  0  0
   31.9649  -19.6493   35.6005 C   0  0  0  0  0  0  0  0  0  0  0  0
   31.4876  -18.3201   35.8612 O   0  0  0  0  0  0  0  0  0  0  0  0
   31.9733  -17.9368   36.6273 H   0  0  0  0  0  0  0  0  0  0  0  0
   31.8996  -19.7344   34.0667 C   0  0  0  0  0  0  0  0  0  0  0  0
   32.4829  -20.9250   33.6300 O   0  0  0  0  0  0  0  0  0  0  0  0
   32.8088  -20.8624   32.7085 H   0  0  0  0  0  0  0  0  0  0  0  0
 17 18  1  0  0  0
 18 16  1  0  0  0
 16 15  1  0  0  0
 15 19  1  0  0  0
 19 20  1  0  0  0
 20 21  1  0  0  0
 20 23  1  0  0  0
 23 24  1  0  0  0
 15  1  1  0  0  0
  1 12  1  0  0  0
 12 13  1  0  0  0
  1  2  1  0  0  0
  2  3  2  0  0  0
  2  4  1  0  0  0
  4  5  2  0  0  0
  5  6  1  0  0  0
  6  7  1  0  0  0
  6  8  2  0  0  0
  8  9  1  0  0  0
  9 10  1  0  0  0
  9 11  2  0  0  0
 11  4  1  0  0  0
 21 22  1  0  0  0
 24 25  1  0  0  0
 13 14  1  0  0  0
M  END
> <minimizedAffinity>
-6.25667

> <CNNscore>
0.4858910739

> <CNNaffinity>
4.5840730667

> <CNN_VS>
2.2273602486

> <CNNaffinity_variance>
0.3799131811

$$$$
[H]OC([H])([H])N(C(=O)c1c([H])c(Cl)c([H])c(Cl)c1[H])N(C([H])([H])C([H])([H])C([H])([H])[H])C([H])([H])C([H])(O[H])C([H])([H])O[H]


 25 25  0  0  0  0  0  0  0  0999 V2000
   36.3032  -18.3923   35.6881 N   0  0  0  0  0  0  0  0  0  0  0  0
   36.0315  -17.5484   36.7296 C   0  0  0  0  0  0  0  0  0  0  0  0
   35.7760  -18.1797   37.8576 O   0  0  0  0  0  0  0  0  0  0  0  0
   35.9730  -16.1284   36.8362 C   0  0  0  0  0  0  0  0  0  0  0  0
   34.7556  -15.4887   36.4934 C   0  0  0  0  0  0  0  0  0  0  0  0
   34.6505  -14.1434   36.5448 C   0  0  0  0  0  0  0  0  0  0  0  0
   33.1528  -13.3621   36.1202 Cl  0  0  0  0  0  0  0  0  0  0  0  0
   35.7174  -13.3738   36.9289 C   0  0  0  0  0  0  0  0  0  0  0  0
   36.8949  -13.9740   37.2613 C   0  0  0  0  0  0  0  0  0  0  0  0
   38.2777  -13.0207   37.7608 Cl  0  0  0  0  0  0  0  0  0  0  0  0
   37.0394  -15.3641   37.2189 C   0  0  0  0  0  0  0  0  0  0  0  0
   36.6624  -18.1147   34.3466 C   0  0  0  0  0  0  0  0  0  0  0  0
   37.0320  -19.2610   33.6034 O   0  0  0  0  0  0  0  0  0  0  0  0
   37.3519  -18.9980   32.7170 H   0  0  0  0  0  0  0  0  0  0  0  0
   36.2255  -19.8162   36.0554 N   0  0  0  0  0  0  0  0  0  0  0  0
   37.2071  -20.1316   36.9950 C   0  0  0  0  0  0  0  0  0  0  0  0
   39.5803  -20.5109   37.7318 C   0  0  0  0  0  0  0  0  0  0  0  0
   38.6338  -20.1605   36.6101 C   0  0  0  0  0  0  0  0  0  0  0  0
   34.8791  -20.1118   36.2315 C   0  0  0  0  0  0  0  0  0  0  0  0
   33.8805  -19.7909   35.1852 C   0  0  0  0  0  0  0  0  0  0  0  0
   33.2455  -21.0402   34.8714 O   0  0  0  0  0  0  0  0  0  0  0  0
   33.8706  -21.7822   35.0395 H   0  0  0  0  0  0  0  0  0  0  0  0
   32.7233  -18.9634   35.7684 C   0  0  0  0  0  0  0  0  0  0  0  0
   32.0459  -18.3019   34.7428 O   0  0  0  0  0  0  0  0  0  0  0  0
   31.5808  -17.5010   35.0615 H   0  0  0  0  0  0  0  0  0  0  0  0
 17 18  1  0  0  0
 18 16  1  0  0  0
 16 15  1  0  0  0
 15 19  1  0  0  0
 19 20  1  0  0  0
 20 21  1  0  0  0
 20 23  1  0  0  0
 23 24  1  0  0  0
 15  1  1  0  0  0
  1 12  1  0  0  0
 12 13  1  0  0  0
  1  2  1  0  0  0
  2  3  2  0  0  0
  2  4  1  0  0  0
  4  5  2  0  0  0
  5  6  1  0  0  0
  6  7  1  0  0  0
  6  8  2  0  0  0
  8  9  1  0  0  0
  9 10  1  0  0  0
  9 11  2  0  0  0
 11  4  1  0  0  0
 21 22  1  0  0  0
 24 25  1  0  0  0
 13 14  1  0  0  0
M  END
> <minimizedAffinity>
-6.06399

> <CNNscore>
0.3819913268

> <CNNaffinity>
4.2823915482

> <CNN_VS>
1.6358364820

> <CNNaffinity_variance>
0.8368111849

$$$$
[H]OC([H])([H])N(C(=O)c1c([H])c(Cl)c([H])c(Cl)c1[H])N(C([H])([H])C([H])([H])C([H])([H])[H])C([H])([H])C([H])(O[H])C([H])([H])O[H]


 25 25  0  0  0  0  0  0  0  0999 V2000
   35.8956  -18.4164   35.8178 N   0  0  0  0  0  0  0  0  0  0  0  0
   35.8898  -17.5109   36.8429 C   0  0  0  0  0  0  0  0  0  0  0  0
   35.8854  -18.0739   38.0343 O   0  0  0  0  0  0  0  0  0  0  0  0
   35.8902  -16.0861   36.8772 C   0  0  0  0  0  0  0  0  0  0  0  0
   34.6791  -15.4166   36.5708 C   0  0  0  0  0  0  0  0  0  0  0  0
   34.6271  -14.0672   36.5567 C   0  0  0  0  0  0  0  0  0  0  0  0
   33.1368  -13.2493   36.1772 Cl  0  0  0  0  0  0  0  0  0  0  0  0
   35.7424  -13.3224   36.8381 C   0  0  0  0  0  0  0  0  0  0  0  0
   36.9144  -13.9515   37.1344 C   0  0  0  0  0  0  0  0  0  0  0  0
   38.3586  -13.0301   37.5031 Cl  0  0  0  0  0  0  0  0  0  0  0  0
   37.0048  -15.3466   37.1575 C   0  0  0  0  0  0  0  0  0  0  0  0
   35.9436  -18.2211   34.4159 C   0  0  0  0  0  0  0  0  0  0  0  0
   37.1501  -17.6388   33.9594 O   0  0  0  0  0  0  0  0  0  0  0  0
   37.0899  -17.4487   33.0016 H   0  0  0  0  0  0  0  0  0  0  0  0
   35.8714  -19.8158   36.2754 N   0  0  0  0  0  0  0  0  0  0  0  0
   34.6577  -20.4170   35.9415 C   0  0  0  0  0  0  0  0  0  0  0  0
   32.4385  -19.2426   35.8216 C   0  0  0  0  0  0  0  0  0  0  0  0
   33.4146  -20.0431   36.6481 C   0  0  0  0  0  0  0  0  0  0  0  0
   37.1072  -20.3641   35.9540 C   0  0  0  0  0  0  0  0  0  0  0  0
   38.3496  -19.8895   36.6067 C   0  0  0  0  0  0  0  0  0  0  0  0
   38.7387  -20.9479   37.4959 O   0  0  0  0  0  0  0  0  0  0  0  0
   37.9417  -21.4481   37.7861 H   0  0  0  0  0  0  0  0  0  0  0  0
   39.5140  -19.8492   35.6034 C   0  0  0  0  0  0  0  0  0  0  0  0
   39.0219  -19.9148   34.2989 O   0  0  0  0  0  0  0  0  0  0  0  0
   39.6834  -20.2702   33.6701 H   0  0  0  0  0  0  0  0  0  0  0  0
 17 18  1  0  0  0
 18 16  1  0  0  0
 16 15  1  0  0  0
 15 19  1  0  0  0
 19 20  1  0  0  0
 20 21  1  0  0  0
 20 23  1  0  0  0
 23 24  1  0  0  0
 15  1  1  0  0  0
  1 12  1  0  0  0
 12 13  1  0  0  0
  1  2  1  0  0  0
  2  3  2  0  0  0
  2  4  1  0  0  0
  4  5  2  0  0  0
  5  6  1  0  0  0
  6  7  1  0  0  0
  6  8  2  0  0  0
  8  9  1  0  0  0
  9 10  1  0  0  0
  9 11  2  0  0  0
 11  4  1  0  0  0
 21 22  1  0  0  0
 24 25  1  0  0  0
 13 14  1  0  0  0
M  END
> <minimizedAffinity>
-5.11835

> <CNNscore>
0.3691396415

> <CNNaffinity>
4.3216609955

> <CNN_VS>
1.5952963829

> <CNNaffinity_variance>
0.5343861580

$$$$
[H]c1nc2c([H])c(OC([H])([H])C([H])([H])C([H])([H])N3C([H])([H])C([H])([H])N(C(=O)C([H])([H])[H])C([H])([H])C3([H])[H])c(OC([H])([H])[H])c([H])c2c(Oc2c([H])c([H])c(N([H])C(=O)N([H])c3c([H])c([H])c(F)c([H])c3[H])c([H])c2[H])c1[H]


 45 49  0  0  0  0  0  0  0  0999 V2000
   36.1401  -14.8193   37.2690 C   0  0  0  0  0  0  0  0  0  0  0  0
   36.6122  -15.9616   36.6723 C   0  0  0  0  0  0  0  0  0  0  0  0
   35.8491  -16.7891   35.8708 C   0  0  0  0  0  0  0  0  0  0  0  0
   36.3697  -17.9395   35.2796 C   0  0  0  0  0  0  0  0  0  0  0  0
   35.6069  -18.7549   34.4772 C   0  0  0  0  0  0  0  0  0  0  0  0
   34.2898  -18.3920   34.2761 C   0  0  0  0  0  0  0  0  0  0  0  0
   33.7711  -17.2758   34.8458 N   0  0  0  0  0  0  0  0  0  0  0  0
   34.5313  -16.4831   35.6329 C   0  0  0  0  0  0  0  0  0  0  0  0
   34.0341  -15.3315   36.2325 C   0  0  0  0  0  0  0  0  0  0  0  0
   34.7824  -14.4967   37.0330 C   0  0  0  0  0  0  0  0  0  0  0  0
   38.1212  -13.4645   37.5512 C   0  0  0  0  0  0  0  0  0  0  0  0
   36.9162  -13.9904   38.0719 O   0  0  0  0  0  0  0  0  0  0  0  0
   37.6875  -18.2116   35.5484 O   0  0  0  0  0  0  0  0  0  0  0  0
   38.1237  -19.1130   36.5291 C   0  0  0  0  0  0  0  0  0  0  0  0
   37.2406  -19.7645   37.3510 C   0  0  0  0  0  0  0  0  0  0  0  0
   37.6970  -20.6305   38.2929 C   0  0  0  0  0  0  0  0  0  0  0  0
   39.0635  -20.9164   38.4910 C   0  0  0  0  0  0  0  0  0  0  0  0
   39.9142  -20.2365   37.6455 C   0  0  0  0  0  0  0  0  0  0  0  0
   39.4660  -19.3519   36.6784 C   0  0  0  0  0  0  0  0  0  0  0  0
   39.4578  -21.8395   39.4470 N   0  0  0  0  0  0  0  0  0  0  0  0
   40.0408  -21.5891   40.7363 C   0  0  0  0  0  0  0  0  0  0  0  0
   40.2425  -20.4200   41.1089 O   0  0  0  0  0  0  0  0  0  0  0  0
   40.3730  -22.6924   41.5527 N   0  0  0  0  0  0  0  0  0  0  0  0
   39.3126  -22.8686   39.1833 H   0  0  0  0  0  0  0  0  0  0  0  0
   40.1494  -23.6497   41.1132 H   0  0  0  0  0  0  0  0  0  0  0  0
   40.9429  -22.6594   42.8322 C   0  0  0  0  0  0  0  0  0  0  0  0
   40.1109  -22.3033   43.9158 C   0  0  0  0  0  0  0  0  0  0  0  0
   40.5766  -22.2369   45.1913 C   0  0  0  0  0  0  0  0  0  0  0  0
   41.8855  -22.5092   45.5078 C   0  0  0  0  0  0  0  0  0  0  0  0
   42.3139  -22.4369   46.7798 F   0  0  0  0  0  0  0  0  0  0  0  0
   42.7257  -22.8590   44.4774 C   0  0  0  0  0  0  0  0  0  0  0  0
   42.2473  -22.9306   43.1524 C   0  0  0  0  0  0  0  0  0  0  0  0
   34.2574  -13.4130   37.5817 O   0  0  0  0  0  0  0  0  0  0  0  0
   33.2617  -12.9815   38.3622 C   0  0  0  0  0  0  0  0  0  0  0  0
   32.5357  -11.7057   37.9682 C   0  0  0  0  0  0  0  0  0  0  0  0
   31.3129  -12.1007   37.1638 C   0  0  0  0  0  0  0  0  0  0  0  0
   30.0647  -11.8573   37.7584 N   0  0  0  0  0  0  0  0  0  0  0  0
   29.6893  -12.5948   38.9059 C   0  0  0  0  0  0  0  0  0  0  0  0
   28.2182  -12.4828   39.2448 C   0  0  0  0  0  0  0  0  0  0  0  0
   27.8487  -11.0730   39.3008 N   0  0  0  0  0  0  0  0  0  0  0  0
   28.8593  -10.1090   38.9143 C   0  0  0  0  0  0  0  0  0  0  0  0
   29.5914  -10.5190   37.6881 C   0  0  0  0  0  0  0  0  0  0  0  0
   26.5764  -10.6291   39.7072 C   0  0  0  0  0  0  0  0  0  0  0  0
   26.1944   -9.2002   39.7598 C   0  0  0  0  0  0  0  0  0  0  0  0
   25.7167  -11.5151   40.0466 O   0  0  0  0  0  0  0  0  0  0  0  0
 11 12  1  0  0  0
 12  1  1  0  0  0
  1  2  2  0  0  0
  2  3  1  0  0  0
  3  4  2  0  0  0
  4 13  1  0  0  0
 13 14  1  0  0  0
 14 15  2  0  0  0
 15 16  1  0  0  0
 16 17  2  0  0  0
 17 20  1  0  0  0
 20 21  1  0  0  0
 21 22  2  0  0  0
 21 23  1  0  0  0
 23 26  1  0  0  0
 26 27  2  0  0  0
 27 28  1  0  0  0
 28 29  2  0  0  0
 29 30  1  0  0  0
 29 31  1  0  0  0
 31 32  2  0  0  0
 17 18  1  0  0  0
 18 19  2  0  0  0
  4  5  1  0  0  0
  5  6  2  0  0  0
  6  7  1  0  0  0
  7  8  2  0  0  0
  8  9  1  0  0  0
  9 10  2  0  0  0
 10 33  1  0  0  0
 33 34  1  0  0  0
 34 35  1  0  0  0
 35 36  1  0  0  0
 36 37  1  0  0  0
 37 38  1  0  0  0
 38 39  1  0  0  0
 39 40  1  0  0  0
 40 41  1  0  0  0
 41 42  1  0  0  0
 40 43  1  0  0  0
 43 44  1  0  0  0
 43 45  2  0  0  0
 10  1  1  0  0  0
 42 37  1  0  0  0
  8  3  1  0  0  0
 19 14  1  0  0  0
 32 26  1  0  0  0
 20 24  1  0  0  0
 23 25  1  0  0  0
M  END
> <minimizedAffinity>
-8.04925

> <CNNscore>
0.5059613585

> <CNNaffinity>
6.5732817650

> <CNN_VS>
3.3258266449

> <CNNaffinity_variance>
0.1573987007

$$$$
[H]c1nc2c([H])c(OC([H])([H])C([H])([H])C([H])([H])N3C([H])([H])C([H])([H])N(C(=O)C([H])([H])[H])C([H])([H])C3([H])[H])c(OC([H])([H])[H])c([H])c2c(Oc2c([H])c([H])c(N([H])C(=O)N([H])c3c([H])c([H])c(F)c([H])c3[H])c([H])c2[H])c1[H]


 45 49  0  0  0  0  0  0  0  0999 V2000
   36.0036  -14.3174   36.9148 C   0  0  0  0  0  0  0  0  0  0  0  0
   36.4618  -15.5311   36.4668 C   0  0  0  0  0  0  0  0  0  0  0  0
   35.6657  -16.4835   35.8596 C   0  0  0  0  0  0  0  0  0  0  0  0
   36.1727  -17.7036   35.4146 C   0  0  0  0  0  0  0  0  0  0  0  0
   35.3765  -18.6442   34.8047 C   0  0  0  0  0  0  0  0  0  0  0  0
   34.0397  -18.3360   34.6481 C   0  0  0  0  0  0  0  0  0  0  0  0
   33.5338  -17.1529   35.0770 N   0  0  0  0  0  0  0  0  0  0  0  0
   34.3269  -16.2372   35.6755 C   0  0  0  0  0  0  0  0  0  0  0  0
   33.8437  -15.0142   36.1269 C   0  0  0  0  0  0  0  0  0  0  0  0
   34.6248  -14.0549   36.7329 C   0  0  0  0  0  0  0  0  0  0  0  0
   38.2097  -13.5784   37.5684 C   0  0  0  0  0  0  0  0  0  0  0  0
   36.8128  -13.3632   37.5222 O   0  0  0  0  0  0  0  0  0  0  0  0
   37.5129  -17.9116   35.6241 O   0  0  0  0  0  0  0  0  0  0  0  0
   38.0353  -18.8711   36.5020 C   0  0  0  0  0  0  0  0  0  0  0  0
   39.3805  -19.1278   36.5692 C   0  0  0  0  0  0  0  0  0  0  0  0
   39.8537  -20.0662   37.4300 C   0  0  0  0  0  0  0  0  0  0  0  0
   39.0292  -20.8209   38.2895 C   0  0  0  0  0  0  0  0  0  0  0  0
   37.6851  -20.5321   38.1851 C   0  0  0  0  0  0  0  0  0  0  0  0
   37.1857  -19.5773   37.3148 C   0  0  0  0  0  0  0  0  0  0  0  0
   39.5827  -21.7373   39.1701 N   0  0  0  0  0  0  0  0  0  0  0  0
   39.7019  -23.1606   39.0123 C   0  0  0  0  0  0  0  0  0  0  0  0
   39.2797  -23.7071   37.9782 O   0  0  0  0  0  0  0  0  0  0  0  0
   40.3020  -23.9069   40.0502 N   0  0  0  0  0  0  0  0  0  0  0  0
   39.9628  -21.3275   40.0852 H   0  0  0  0  0  0  0  0  0  0  0  0
   40.6233  -23.3150   40.8904 H   0  0  0  0  0  0  0  0  0  0  0  0
   40.5117  -25.2917   40.0869 C   0  0  0  0  0  0  0  0  0  0  0  0
   41.8024  -25.7717   39.7760 C   0  0  0  0  0  0  0  0  0  0  0  0
   42.0983  -27.0986   39.7780 C   0  0  0  0  0  0  0  0  0  0  0  0
   41.1614  -28.0571   40.0801 C   0  0  0  0  0  0  0  0  0  0  0  0
   41.4870  -29.3612   40.0757 F   0  0  0  0  0  0  0  0  0  0  0  0
   39.8926  -27.6265   40.3874 C   0  0  0  0  0  0  0  0  0  0  0  0
   39.5806  -26.2509   40.3880 C   0  0  0  0  0  0  0  0  0  0  0  0
   34.1121  -12.9074   37.1467 O   0  0  0  0  0  0  0  0  0  0  0  0
   33.4174  -12.3386   38.1370 C   0  0  0  0  0  0  0  0  0  0  0  0
   32.3541  -11.3137   37.7779 C   0  0  0  0  0  0  0  0  0  0  0  0
   31.1745  -12.0608   37.1871 C   0  0  0  0  0  0  0  0  0  0  0  0
   29.9270  -11.8449   37.7936 N   0  0  0  0  0  0  0  0  0  0  0  0
   29.5768  -12.5943   38.9414 C   0  0  0  0  0  0  0  0  0  0  0  0
   28.1068  -12.5134   39.2936 C   0  0  0  0  0  0  0  0  0  0  0  0
   27.7094  -11.1116   39.3586 N   0  0  0  0  0  0  0  0  0  0  0  0
   28.6969  -10.1259   38.9671 C   0  0  0  0  0  0  0  0  0  0  0  0
   29.4262  -10.5162   37.7329 C   0  0  0  0  0  0  0  0  0  0  0  0
   26.4320  -10.6950   39.7780 C   0  0  0  0  0  0  0  0  0  0  0  0
   26.0217   -9.2744   39.8397 C   0  0  0  0  0  0  0  0  0  0  0  0
   25.5935  -11.5996   40.1213 O   0  0  0  0  0  0  0  0  0  0  0  0
 11 12  1  0  0  0
 12  1  1  0  0  0
  1  2  2  0  0  0
  2  3  1  0  0  0
  3  4  2  0  0  0
  4 13  1  0  0  0
 13 14  1  0  0  0
 14 15  2  0  0  0
 15 16  1  0  0  0
 16 17  2  0  0  0
 17 20  1  0  0  0
 20 21  1  0  0  0
 21 22  2  0  0  0
 21 23  1  0  0  0
 23 26  1  0  0  0
 26 27  2  0  0  0
 27 28  1  0  0  0
 28 29  2  0  0  0
 29 30  1  0  0  0
 29 31  1  0  0  0
 31 32  2  0  0  0
 17 18  1  0  0  0
 18 19  2  0  0  0
  4  5  1  0  0  0
  5  6  2  0  0  0
  6  7  1  0  0  0
  7  8  2  0  0  0
  8  9  1  0  0  0
  9 10  2  0  0  0
 10 33  1  0  0  0
 33 34  1  0  0  0
 34 35  1  0  0  0
 35 36  1  0  0  0
 36 37  1  0  0  0
 37 38  1  0  0  0
 38 39  1  0  0  0
 39 40  1  0  0  0
 40 41  1  0  0  0
 41 42  1  0  0  0
 40 43  1  0  0  0
 43 44  1  0  0  0
 43 45  2  0  0  0
 10  1  1  0  0  0
 42 37  1  0  0  0
  8  3  1  0  0  0
 19 14  1  0  0  0
 32 26  1  0  0  0
 20 24  1  0  0  0
 23 25  1  0  0  0
M  END
> <minimizedAffinity>
-7.61318

> <CNNscore>
0.4677298069

> <CNNaffinity>
6.5241518021

> <CNN_VS>
3.0515403748

> <CNNaffinity_variance>
0.2471299917

$$$$
[H]c1nc2c([H])c(OC([H])([H])C([H])([H])C([H])([H])N3C([H])([H])C([H])([H])N(C(=O)C([H])([H])[H])C([H])([H])C3([H])[H])c(OC([H])([H])[H])c([H])c2c(Oc2c([H])c([H])c(N([H])C(=O)N([H])c3c([H])c([H])c(F)c([H])c3[H])c([H])c2[H])c1[H]


 45 49  0  0  0  0  0  0  0  0999 V2000
   36.0042  -14.0353   36.8650 C   0  0  0  0  0  0  0  0  0  0  0  0
   36.3480  -15.3440   36.6349 C   0  0  0  0  0  0  0  0  0  0  0  0
   35.4697  -16.3062   36.1744 C   0  0  0  0  0  0  0  0  0  0  0  0
   35.8616  -17.6252   35.9495 C   0  0  0  0  0  0  0  0  0  0  0  0
   34.9843  -18.5763   35.4844 C   0  0  0  0  0  0  0  0  0  0  0  0
   33.6844  -18.1758   35.2466 C   0  0  0  0  0  0  0  0  0  0  0  0
   33.2903  -16.8960   35.4618 N   0  0  0  0  0  0  0  0  0  0  0  0
   34.1622  -15.9709   35.9197 C   0  0  0  0  0  0  0  0  0  0  0  0
   33.7942  -14.6503   36.1510 C   0  0  0  0  0  0  0  0  0  0  0  0
   34.6583  -13.6801   36.6089 C   0  0  0  0  0  0  0  0  0  0  0  0
   38.2388  -13.4424   37.5682 C   0  0  0  0  0  0  0  0  0  0  0  0
   36.8956  -13.0725   37.3258 O   0  0  0  0  0  0  0  0  0  0  0  0
   37.1739  -17.9189   36.2229 O   0  0  0  0  0  0  0  0  0  0  0  0
   37.9064  -18.9293   35.5850 C   0  0  0  0  0  0  0  0  0  0  0  0
   38.0711  -18.9484   34.2240 C   0  0  0  0  0  0  0  0  0  0  0  0
   38.7855  -19.9438   33.6373 C   0  0  0  0  0  0  0  0  0  0  0  0
   39.3909  -20.9954   34.3555 C   0  0  0  0  0  0  0  0  0  0  0  0
   39.1961  -20.9375   35.7192 C   0  0  0  0  0  0  0  0  0  0  0  0
   38.4727  -19.9290   36.3341 C   0  0  0  0  0  0  0  0  0  0  0  0
   40.1376  -21.9593   33.6960 N   0  0  0  0  0  0  0  0  0  0  0  0
   39.8339  -23.3530   33.5221 C   0  0  0  0  0  0  0  0  0  0  0  0
   38.7831  -23.8219   33.9935 O   0  0  0  0  0  0  0  0  0  0  0  0
   40.7501  -24.1601   32.8127 N   0  0  0  0  0  0  0  0  0  0  0  0
   41.0599  -21.6174   33.2691 H   0  0  0  0  0  0  0  0  0  0  0  0
   41.6199  -23.6334   32.4584 H   0  0  0  0  0  0  0  0  0  0  0  0
   40.6371  -25.5290   32.5361 C   0  0  0  0  0  0  0  0  0  0  0  0
   41.2695  -26.4339   33.4160 C   0  0  0  0  0  0  0  0  0  0  0  0
   41.2211  -27.7790   33.2246 C   0  0  0  0  0  0  0  0  0  0  0  0
   40.5566  -28.3440   32.1631 C   0  0  0  0  0  0  0  0  0  0  0  0
   40.5255  -29.6783   32.0037 F   0  0  0  0  0  0  0  0  0  0  0  0
   39.9291  -27.4929   31.2845 C   0  0  0  0  0  0  0  0  0  0  0  0
   39.9752  -26.0966   31.4791 C   0  0  0  0  0  0  0  0  0  0  0  0
   34.2541  -12.4370   36.8148 O   0  0  0  0  0  0  0  0  0  0  0  0
   33.6980  -11.6266   37.7208 C   0  0  0  0  0  0  0  0  0  0  0  0
   32.2251  -11.2816   37.5742 C   0  0  0  0  0  0  0  0  0  0  0  0
   31.4233  -12.4117   38.1894 C   0  0  0  0  0  0  0  0  0  0  0  0
   30.1454  -12.0856   38.6703 N   0  0  0  0  0  0  0  0  0  0  0  0
   29.2771  -11.3158   37.8609 C   0  0  0  0  0  0  0  0  0  0  0  0
   28.0851  -10.7583   38.6092 C   0  0  0  0  0  0  0  0  0  0  0  0
   27.4215  -11.8432   39.3231 N   0  0  0  0  0  0  0  0  0  0  0  0
   28.0625  -13.1425   39.2948 C   0  0  0  0  0  0  0  0  0  0  0  0
   29.5299  -13.0532   39.5099 C   0  0  0  0  0  0  0  0  0  0  0  0
   26.2106  -11.6747   40.0206 C   0  0  0  0  0  0  0  0  0  0  0  0
   25.5364  -12.7706   40.7519 C   0  0  0  0  0  0  0  0  0  0  0  0
   25.6759  -10.5113   40.0133 O   0  0  0  0  0  0  0  0  0  0  0  0
 11 12  1  0  0  0
 12  1  1  0  0  0
  1  2  2  0  0  0
  2  3  1  0  0  0
  3  4  2  0  0  0
  4 13  1  0  0  0
 13 14  1  0  0  0
 14 15  2  0  0  0
 15 16  1  0  0  0
 16 17  2  0  0  0
 17 20  1  0  0  0
 20 21  1  0  0  0
 21 22  2  0  0  0
 21 23  1  0  0  0
 23 26  1  0  0  0
 26 27  2  0  0  0
 27 28  1  0  0  0
 28 29  2  0  0  0
 29 30  1  0  0  0
 29 31  1  0  0  0
 31 32  2  0  0  0
 17 18  1  0  0  0
 18 19  2  0  0  0
  4  5  1  0  0  0
  5  6  2  0  0  0
  6  7  1  0  0  0
  7  8  2  0  0  0
  8  9  1  0  0  0
  9 10  2  0  0  0
 10 33  1  0  0  0
 33 34  1  0  0  0
 34 35  1  0  0  0
 35 36  1  0  0  0
 36 37  1  0  0  0
 37 38  1  0  0  0
 38 39  1  0  0  0
 39 40  1  0  0  0
 40 41  1  0  0  0
 41 42  1  0  0  0
 40 43  1  0  0  0
 43 44  1  0  0  0
 43 45  2  0  0  0
 10  1  1  0  0  0
 42 37  1  0  0  0
  8  3  1  0  0  0
 19 14  1  0  0  0
 32 26  1  0  0  0
 20 24  1  0  0  0
 23 25  1  0  0  0
M  END
> <minimizedAffinity>
-7.81064

> <CNNscore>
0.3844678104

> <CNNaffinity>
6.3253378868

> <CNN_VS>
2.4318888187

> <CNNaffinity_variance>
0.1111041903

$$$$
[H]c1nc2c([H])c(OC([H])([H])C([H])([H])C([H])([H])N3C([H])([H])C([H])([H])N(C(=O)C([H])([H])[H])C([H])([H])C3([H])[H])c(OC([H])([H])[H])c([H])c2c(Oc2c([H])c([H])c(N([H])C(=O)N([H])c3c([H])c([H])c(F)c([H])c3[H])c([H])c2[H])c1[H]


 45 49  0  0  0  0  0  0  0  0999 V2000
   36.0042  -14.9297   37.1675 C   0  0  0  0  0  0  0  0  0  0  0  0
   36.4311  -16.1225   36.6397 C   0  0  0  0  0  0  0  0  0  0  0  0
   35.6522  -16.9402   35.8433 C   0  0  0  0  0  0  0  0  0  0  0  0
   36.1268  -18.1436   35.3232 C   0  0  0  0  0  0  0  0  0  0  0  0
   35.3490  -18.9493   34.5254 C   0  0  0  0  0  0  0  0  0  0  0  0
   34.0642  -18.5213   34.2553 C   0  0  0  0  0  0  0  0  0  0  0  0
   33.5903  -17.3531   34.7554 N   0  0  0  0  0  0  0  0  0  0  0  0
   34.3648  -16.5706   35.5387 C   0  0  0  0  0  0  0  0  0  0  0  0
   33.9132  -15.3669   36.0681 C   0  0  0  0  0  0  0  0  0  0  0  0
   34.6778  -14.5411   36.8625 C   0  0  0  0  0  0  0  0  0  0  0  0
   37.9558  -13.5251   37.4081 C   0  0  0  0  0  0  0  0  0  0  0  0
   36.7961  -14.1113   37.9658 O   0  0  0  0  0  0  0  0  0  0  0  0
   37.4151  -18.4780   35.6571 O   0  0  0  0  0  0  0  0  0  0  0  0
   37.9672  -19.7557   35.4927 C   0  0  0  0  0  0  0  0  0  0  0  0
   37.8394  -20.7238   36.4551 C   0  0  0  0  0  0  0  0  0  0  0  0
   38.3887  -21.9516   36.2648 C   0  0  0  0  0  0  0  0  0  0  0  0
   39.1061  -22.3126   35.1058 C   0  0  0  0  0  0  0  0  0  0  0  0
   39.2124  -21.3077   34.1679 C   0  0  0  0  0  0  0  0  0  0  0  0
   38.6568  -20.0513   34.3445 C   0  0  0  0  0  0  0  0  0  0  0  0
   39.6092  -23.5962   34.9610 N   0  0  0  0  0  0  0  0  0  0  0  0
   40.9066  -24.0890   35.3332 C   0  0  0  0  0  0  0  0  0  0  0  0
   41.7327  -23.3234   35.8602 O   0  0  0  0  0  0  0  0  0  0  0  0
   41.2101  -25.4457   35.0853 N   0  0  0  0  0  0  0  0  0  0  0  0
   38.9440  -24.3049   34.5081 H   0  0  0  0  0  0  0  0  0  0  0  0
   40.4102  -25.9995   34.6238 H   0  0  0  0  0  0  0  0  0  0  0  0
   42.4077  -26.1132   35.3739 C   0  0  0  0  0  0  0  0  0  0  0  0
   42.5429  -26.7034   36.6492 C   0  0  0  0  0  0  0  0  0  0  0  0
   43.6707  -27.3648   37.0219 C   0  0  0  0  0  0  0  0  0  0  0  0
   44.7511  -27.4997   36.1839 C   0  0  0  0  0  0  0  0  0  0  0  0
   45.8507  -28.1621   36.5821 F   0  0  0  0  0  0  0  0  0  0  0  0
   44.6555  -26.9367   34.9333 C   0  0  0  0  0  0  0  0  0  0  0  0
   43.4872  -26.2504   34.5412 C   0  0  0  0  0  0  0  0  0  0  0  0
   34.1966  -13.4059   37.3429 O   0  0  0  0  0  0  0  0  0  0  0  0
   33.3856  -12.8941   38.2741 C   0  0  0  0  0  0  0  0  0  0  0  0
   32.5820  -11.6513   37.9284 C   0  0  0  0  0  0  0  0  0  0  0  0
   31.3615  -12.0942   37.1458 C   0  0  0  0  0  0  0  0  0  0  0  0
   30.1135  -11.8675   37.7475 N   0  0  0  0  0  0  0  0  0  0  0  0
   29.7596  -12.6011   38.9043 C   0  0  0  0  0  0  0  0  0  0  0  0
   28.2892  -12.5120   39.2530 C   0  0  0  0  0  0  0  0  0  0  0  0
   27.8953  -11.1085   39.2993 N   0  0  0  0  0  0  0  0  0  0  0  0
   28.8858  -10.1303   38.8967 C   0  0  0  0  0  0  0  0  0  0  0  0
   29.6161  -10.5384   37.6688 C   0  0  0  0  0  0  0  0  0  0  0  0
   26.6183  -10.6833   39.7111 C   0  0  0  0  0  0  0  0  0  0  0  0
   26.2114   -9.2610   39.7538 C   0  0  0  0  0  0  0  0  0  0  0  0
   25.7769  -11.5813   40.0648 O   0  0  0  0  0  0  0  0  0  0  0  0
 11 12  1  0  0  0
 12  1  1  0  0  0
  1  2  2  0  0  0
  2  3  1  0  0  0
  3  4  2  0  0  0
  4 13  1  0  0  0
 13 14  1  0  0  0
 14 15  2  0  0  0
 15 16  1  0  0  0
 16 17  2  0  0  0
 17 20  1  0  0  0
 20 21  1  0  0  0
 21 22  2  0  0  0
 21 23  1  0  0  0
 23 26  1  0  0  0
 26 27  2  0  0  0
 27 28  1  0  0  0
 28 29  2  0  0  0
 29 30  1  0  0  0
 29 31  1  0  0  0
 31 32  2  0  0  0
 17 18  1  0  0  0
 18 19  2  0  0  0
  4  5  1  0  0  0
  5  6  2  0  0  0
  6  7  1  0  0  0
  7  8  2  0  0  0
  8  9  1  0  0  0
  9 10  2  0  0  0
 10 33  1  0  0  0
 33 34  1  0  0  0
 34 35  1  0  0  0
 35 36  1  0  0  0
 36 37  1  0  0  0
 37 38  1  0  0  0
 38 39  1  0  0  0
 39 40  1  0  0  0
 40 41  1  0  0  0
 41 42  1  0  0  0
 40 43  1  0  0  0
 43 44  1  0  0  0
 43 45  2  0  0  0
 10  1  1  0  0  0
 42 37  1  0  0  0
  8  3  1  0  0  0
 19 14  1  0  0  0
 32 26  1  0  0  0
 20 24  1  0  0  0
 23 25  1  0  0  0
M  END
> <minimizedAffinity>
-7.50862

> <CNNscore>
0.3671889007

> <CNNaffinity>
6.3314223289

> <CNN_VS>
2.3248279095

> <CNNaffinity_variance>
0.1787823737

$$$$
[H]c1nc2c([H])c(OC([H])([H])C([H])([H])C([H])([H])N3C([H])([H])C([H])([H])N(C(=O)C([H])([H])[H])C([H])([H])C3([H])[H])c(OC([H])([H])[H])c([H])c2c(Oc2c([H])c([H])c(N([H])C(=O)N([H])c3c([H])c([H])c(F)c([H])c3[H])c([H])c2[H])c1[H]


 45 49  0  0  0  0  0  0  0  0999 V2000
   30.3238  -26.4269   32.0993 C   0  0  0  0  0  0  0  0  0  0  0  0
   30.6151  -25.5933   33.1500 C   0  0  0  0  0  0  0  0  0  0  0  0
   29.7560  -25.3458   34.2036 C   0  0  0  0  0  0  0  0  0  0  0  0
   30.0933  -24.4941   35.2547 C   0  0  0  0  0  0  0  0  0  0  0  0
   29.2367  -24.2576   36.3039 C   0  0  0  0  0  0  0  0  0  0  0  0
   28.0141  -24.8990   36.2796 C   0  0  0  0  0  0  0  0  0  0  0  0
   27.6736  -25.7295   35.2628 N   0  0  0  0  0  0  0  0  0  0  0  0
   28.5244  -25.9530   34.2371 C   0  0  0  0  0  0  0  0  0  0  0  0
   28.2099  -26.7980   33.1788 C   0  0  0  0  0  0  0  0  0  0  0  0
   29.0557  -27.0551   32.1224 C   0  0  0  0  0  0  0  0  0  0  0  0
   32.5728  -26.8416   31.3183 C   0  0  0  0  0  0  0  0  0  0  0  0
   31.1959  -26.6727   31.0442 O   0  0  0  0  0  0  0  0  0  0  0  0
   31.3295  -23.9033   35.1786 O   0  0  0  0  0  0  0  0  0  0  0  0
   31.5422  -22.5184   35.1437 C   0  0  0  0  0  0  0  0  0  0  0  0
   31.0877  -21.6955   36.1418 C   0  0  0  0  0  0  0  0  0  0  0  0
   31.3091  -20.3568   36.0759 C   0  0  0  0  0  0  0  0  0  0  0  0
   31.9980  -19.7327   35.0157 C   0  0  0  0  0  0  0  0  0  0  0  0
   32.4330  -20.5976   34.0341 C   0  0  0  0  0  0  0  0  0  0  0  0
   32.2180  -21.9649   34.0863 C   0  0  0  0  0  0  0  0  0  0  0  0
   32.2208  -18.3645   35.0302 N   0  0  0  0  0  0  0  0  0  0  0  0
   33.2989  -17.6467   35.6525 C   0  0  0  0  0  0  0  0  0  0  0  0
   34.1817  -18.2674   36.2704 O   0  0  0  0  0  0  0  0  0  0  0  0
   33.3242  -16.2390   35.5437 N   0  0  0  0  0  0  0  0  0  0  0  0
   31.4903  -17.7719   34.5157 H   0  0  0  0  0  0  0  0  0  0  0  0
   32.5022  -15.8249   34.9847 H   0  0  0  0  0  0  0  0  0  0  0  0
   34.2823  -15.3646   36.0733 C   0  0  0  0  0  0  0  0  0  0  0  0
   35.6375  -15.7551   36.0107 C   0  0  0  0  0  0  0  0  0  0  0  0
   36.6361  -14.9762   36.5052 C   0  0  0  0  0  0  0  0  0  0  0  0
   36.3914  -13.7616   37.0989 C   0  0  0  0  0  0  0  0  0  0  0  0
   37.4018  -13.0142   37.5757 F   0  0  0  0  0  0  0  0  0  0  0  0
   35.0825  -13.3488   37.1783 C   0  0  0  0  0  0  0  0  0  0  0  0
   34.0428  -14.1525   36.6658 C   0  0  0  0  0  0  0  0  0  0  0  0
   28.7044  -27.8671   31.1384 O   0  0  0  0  0  0  0  0  0  0  0  0
   27.9249  -27.9664   30.0570 C   0  0  0  0  0  0  0  0  0  0  0  0
   28.3430  -27.2304   28.7948 C   0  0  0  0  0  0  0  0  0  0  0  0
   27.4515  -26.0122   28.6546 C   0  0  0  0  0  0  0  0  0  0  0  0
   27.5437  -25.3022   27.4470 N   0  0  0  0  0  0  0  0  0  0  0  0
   28.1706  -25.9095   26.3335 C   0  0  0  0  0  0  0  0  0  0  0  0
   28.4997  -24.9395   25.2189 C   0  0  0  0  0  0  0  0  0  0  0  0
   27.3023  -24.1784   24.8812 N   0  0  0  0  0  0  0  0  0  0  0  0
   26.1328  -24.3833   25.7120 C   0  0  0  0  0  0  0  0  0  0  0  0
   26.4674  -24.4199   27.1592 C   0  0  0  0  0  0  0  0  0  0  0  0
   27.2461  -23.2751   23.8033 C   0  0  0  0  0  0  0  0  0  0  0  0
   26.0356  -22.4958   23.4602 C   0  0  0  0  0  0  0  0  0  0  0  0
   28.3007  -23.1306   23.0917 O   0  0  0  0  0  0  0  0  0  0  0  0
 11 12  1  0  0  0
 12  1  1  0  0  0
  1  2  2  0  0  0
  2  3  1  0  0  0
  3  4  2  0  0  0
  4 13  1  0  0  0
 13 14  1  0  0  0
 14 15  2  0  0  0
 15 16  1  0  0  0
 16 17  2  0  0  0
 17 20  1  0  0  0
 20 21  1  0  0  0
 21 22  2  0  0  0
 21 23  1  0  0  0
 23 26  1  0  0  0
 26 27  2  0  0  0
 27 28  1  0  0  0
 28 29  2  0  0  0
 29 30  1  0  0  0
 29 31  1  0  0  0
 31 32  2  0  0  0
 17 18  1  0  0  0
 18 19  2  0  0  0
  4  5  1  0  0  0
  5  6  2  0  0  0
  6  7  1  0  0  0
  7  8  2  0  0  0
  8  9  1  0  0  0
  9 10  2  0  0  0
 10 33  1  0  0  0
 33 34  1  0  0  0
 34 35  1  0  0  0
 35 36  1  0  0  0
 36 37  1  0  0  0
 37 38  1  0  0  0
 38 39  1  0  0  0
 39 40  1  0  0  0
 40 41  1  0  0  0
 41 42  1  0  0  0
 40 43  1  0  0  0
 43 44  1  0  0  0
 43 45  2  0  0  0
 10  1  1  0  0  0
 42 37  1  0  0  0
  8  3  1  0  0  0
 19 14  1  0  0  0
 32 26  1  0  0  0
 20 24  1  0  0  0
 23 25  1  0  0  0
M  END
> <minimizedAffinity>
-7.72312

> <CNNscore>
0.3668109179

> <CNNaffinity>
5.9131608009

> <CNN_VS>
2.1690118313

> <CNNaffinity_variance>
0.3268195987

$$$$
[H]c1nc2c([H])c(OC([H])([H])C([H])([H])C([H])([H])N3C([H])([H])C([H])([H])N(C(=O)C([H])([H])[H])C([H])([H])C3([H])[H])c(OC([H])([H])[H])c([H])c2c(Oc2c([H])c([H])c(N([H])C(=O)N([H])c3c([H])c([H])c(F)c([H])c3[H])c([H])c2[H])c1[H]


 45 49  0  0  0  0  0  0  0  0999 V2000
   35.4939  -15.4830   37.0474 C   0  0  0  0  0  0  0  0  0  0  0  0
   35.9313  -16.7559   36.7788 C   0  0  0  0  0  0  0  0  0  0  0  0
   35.2969  -17.6266   35.9134 C   0  0  0  0  0  0  0  0  0  0  0  0
   35.7776  -18.9116   35.6652 C   0  0  0  0  0  0  0  0  0  0  0  0
   35.1456  -19.7705   34.7973 C   0  0  0  0  0  0  0  0  0  0  0  0
   34.0022  -19.3119   34.1736 C   0  0  0  0  0  0  0  0  0  0  0  0
   33.5238  -18.0644   34.4067 N   0  0  0  0  0  0  0  0  0  0  0  0
   34.1541  -17.2301   35.2625 C   0  0  0  0  0  0  0  0  0  0  0  0
   33.6934  -15.9449   35.5253 C   0  0  0  0  0  0  0  0  0  0  0  0
   34.3151  -15.0657   36.3844 C   0  0  0  0  0  0  0  0  0  0  0  0
   37.4573  -14.1941   37.6161 C   0  0  0  0  0  0  0  0  0  0  0  0
   36.1405  -14.6121   37.9178 O   0  0  0  0  0  0  0  0  0  0  0  0
   36.9173  -19.2695   36.3406 O   0  0  0  0  0  0  0  0  0  0  0  0
   38.2150  -19.1270   35.8308 C   0  0  0  0  0  0  0  0  0  0  0  0
   38.4456  -18.9410   34.4921 C   0  0  0  0  0  0  0  0  0  0  0  0
   39.7164  -18.8086   34.0307 C   0  0  0  0  0  0  0  0  0  0  0  0
   40.8548  -18.8503   34.8616 C   0  0  0  0  0  0  0  0  0  0  0  0
   40.5756  -19.0426   36.1980 C   0  0  0  0  0  0  0  0  0  0  0  0
   39.2863  -19.1773   36.6859 C   0  0  0  0  0  0  0  0  0  0  0  0
   42.1219  -18.6712   34.3286 N   0  0  0  0  0  0  0  0  0  0  0  0
   43.0904  -17.6627   34.6596 C   0  0  0  0  0  0  0  0  0  0  0  0
   42.8277  -16.8122   35.5279 O   0  0  0  0  0  0  0  0  0  0  0  0
   44.3281  -17.6663   33.9796 N   0  0  0  0  0  0  0  0  0  0  0  0
   42.4075  -19.3730   33.5698 H   0  0  0  0  0  0  0  0  0  0  0  0
   44.4293  -18.4532   33.2516 H   0  0  0  0  0  0  0  0  0  0  0  0
   45.3960  -16.7769   34.1576 C   0  0  0  0  0  0  0  0  0  0  0  0
   46.2299  -16.9643   35.2812 C   0  0  0  0  0  0  0  0  0  0  0  0
   47.2852  -16.1474   35.5404 C   0  0  0  0  0  0  0  0  0  0  0  0
   47.6068  -15.0868   34.7284 C   0  0  0  0  0  0  0  0  0  0  0  0
   48.6586  -14.2992   35.0114 F   0  0  0  0  0  0  0  0  0  0  0  0
   46.8158  -14.8731   33.6245 C   0  0  0  0  0  0  0  0  0  0  0  0
   45.7204  -15.7184   33.3503 C   0  0  0  0  0  0  0  0  0  0  0  0
   33.8315  -13.8531   36.6005 O   0  0  0  0  0  0  0  0  0  0  0  0
   33.7544  -12.8759   37.5093 C   0  0  0  0  0  0  0  0  0  0  0  0
   32.6872  -12.9740   38.5869 C   0  0  0  0  0  0  0  0  0  0  0  0
   31.6654  -11.8852   38.3245 C   0  0  0  0  0  0  0  0  0  0  0  0
   32.0883  -10.8044   37.5346 N   0  0  0  0  0  0  0  0  0  0  0  0
   31.3024   -9.6288   37.4927 C   0  0  0  0  0  0  0  0  0  0  0  0
   31.6793   -8.6866   36.3695 C   0  0  0  0  0  0  0  0  0  0  0  0
   33.1153   -8.4365   36.4197 N   0  0  0  0  0  0  0  0  0  0  0  0
   33.8844   -9.1927   37.3876 C   0  0  0  0  0  0  0  0  0  0  0  0
   33.4939  -10.6257   37.4241 C   0  0  0  0  0  0  0  0  0  0  0  0
   33.7624   -7.5095   35.5813 C   0  0  0  0  0  0  0  0  0  0  0  0
   35.2200   -7.2567   35.6239 C   0  0  0  0  0  0  0  0  0  0  0  0
   33.0429   -6.8586   34.7458 O   0  0  0  0  0  0  0  0  0  0  0  0
 11 12  1  0  0  0
 12  1  1  0  0  0
  1  2  2  0  0  0
  2  3  1  0  0  0
  3  4  2  0  0  0
  4 13  1  0  0  0
 13 14  1  0  0  0
 14 15  2  0  0  0
 15 16  1  0  0  0
 16 17  2  0  0  0
 17 20  1  0  0  0
 20 21  1  0  0  0
 21 22  2  0  0  0
 21 23  1  0  0  0
 23 26  1  0  0  0
 26 27  2  0  0  0
 27 28  1  0  0  0
 28 29  2  0  0  0
 29 30  1  0  0  0
 29 31  1  0  0  0
 31 32  2  0  0  0
 17 18  1  0  0  0
 18 19  2  0  0  0
  4  5  1  0  0  0
  5  6  2  0  0  0
  6  7  1  0  0  0
  7  8  2  0  0  0
  8  9  1  0  0  0
  9 10  2  0  0  0
 10 33  1  0  0  0
 33 34  1  0  0  0
 34 35  1  0  0  0
 35 36  1  0  0  0
 36 37  1  0  0  0
 37 38  1  0  0  0
 38 39  1  0  0  0
 39 40  1  0  0  0
 40 41  1  0  0  0
 41 42  1  0  0  0
 40 43  1  0  0  0
 43 44  1  0  0  0
 43 45  2  0  0  0
 10  1  1  0  0  0
 42 37  1  0  0  0
  8  3  1  0  0  0
 19 14  1  0  0  0
 32 26  1  0  0  0
 20 24  1  0  0  0
 23 25  1  0  0  0
M  END
> <minimizedAffinity>
-8.60845

> <CNNscore>
0.3659321368

> <CNNaffinity>
7.0362496376

> <CNN_VS>
2.5747897625

> <CNNaffinity_variance>
0.1055493504

$$$$
[H]c1nc2c([H])c(OC([H])([H])C([H])([H])C([H])([H])N3C([H])([H])C([H])([H])N(C(=O)C([H])([H])[H])C([H])([H])C3([H])[H])c(OC([H])([H])[H])c([H])c2c(Oc2c([H])c([H])c(N([H])C(=O)N([H])c3c([H])c([H])c(F)c([H])c3[H])c([H])c2[H])c1[H]


 45 49  0  0  0  0  0  0  0  0999 V2000
   39.8874  -20.1447   37.4175 C   0  0  0  0  0  0  0  0  0  0  0  0
   38.7213  -19.5047   37.0794 C   0  0  0  0  0  0  0  0  0  0  0  0
   37.4662  -19.9156   37.4858 C   0  0  0  0  0  0  0  0  0  0  0  0
   36.3057  -19.2332   37.1229 C   0  0  0  0  0  0  0  0  0  0  0  0
   35.0603  -19.6432   37.5366 C   0  0  0  0  0  0  0  0  0  0  0  0
   34.9969  -20.7700   38.3323 C   0  0  0  0  0  0  0  0  0  0  0  0
   36.1181  -21.4431   38.6920 N   0  0  0  0  0  0  0  0  0  0  0  0
   37.3362  -21.0301   38.2782 C   0  0  0  0  0  0  0  0  0  0  0  0
   38.5066  -21.6942   38.6276 C   0  0  0  0  0  0  0  0  0  0  0  0
   39.7644  -21.2963   38.2311 C   0  0  0  0  0  0  0  0  0  0  0  0
   41.2768  -19.0654   35.7608 C   0  0  0  0  0  0  0  0  0  0  0  0
   41.1470  -19.7223   37.0064 O   0  0  0  0  0  0  0  0  0  0  0  0
   36.4799  -18.1299   36.3257 O   0  0  0  0  0  0  0  0  0  0  0  0
   36.0045  -16.8485   36.6360 C   0  0  0  0  0  0  0  0  0  0  0  0
   34.8640  -16.3464   36.0642 C   0  0  0  0  0  0  0  0  0  0  0  0
   34.4319  -15.0992   36.3856 C   0  0  0  0  0  0  0  0  0  0  0  0
   35.0975  -14.2555   37.2984 C   0  0  0  0  0  0  0  0  0  0  0  0
   36.2402  -14.7998   37.8452 C   0  0  0  0  0  0  0  0  0  0  0  0
   36.6939  -16.0702   37.5306 C   0  0  0  0  0  0  0  0  0  0  0  0
   34.5806  -13.0072   37.6085 N   0  0  0  0  0  0  0  0  0  0  0  0
   34.6321  -11.8045   36.8239 C   0  0  0  0  0  0  0  0  0  0  0  0
   35.1928  -11.8121   35.7140 O   0  0  0  0  0  0  0  0  0  0  0  0
   34.0378  -10.6336   37.3435 N   0  0  0  0  0  0  0  0  0  0  0  0
   34.0863  -12.9345   38.5573 H   0  0  0  0  0  0  0  0  0  0  0  0
   33.5876  -10.7604   38.3134 H   0  0  0  0  0  0  0  0  0  0  0  0
   33.9801   -9.3715   36.7378 C   0  0  0  0  0  0  0  0  0  0  0  0
   35.1607   -8.8674   36.1503 C   0  0  0  0  0  0  0  0  0  0  0  0
   35.2030   -7.6500   35.5468 C   0  0  0  0  0  0  0  0  0  0  0  0
   34.1020   -6.8315   35.4716 C   0  0  0  0  0  0  0  0  0  0  0  0
   34.1765   -5.6341   34.8654 F   0  0  0  0  0  0  0  0  0  0  0  0
   32.9341   -7.2894   36.0339 C   0  0  0  0  0  0  0  0  0  0  0  0
   32.8845   -8.5523   36.6602 C   0  0  0  0  0  0  0  0  0  0  0  0
   40.8464  -21.9679   38.5907 O   0  0  0  0  0  0  0  0  0  0  0  0
   41.3349  -23.1998   38.7654 C   0  0  0  0  0  0  0  0  0  0  0  0
   42.7859  -23.4609   38.3962 C   0  0  0  0  0  0  0  0  0  0  0  0
   43.3376  -24.4724   39.3814 C   0  0  0  0  0  0  0  0  0  0  0  0
   44.2538  -23.9903   40.3296 N   0  0  0  0  0  0  0  0  0  0  0  0
   43.8099  -23.7200   41.6455 C   0  0  0  0  0  0  0  0  0  0  0  0
   44.7908  -22.9051   42.4613 C   0  0  0  0  0  0  0  0  0  0  0  0
   46.1034  -23.5377   42.3981 N   0  0  0  0  0  0  0  0  0  0  0  0
   46.2459  -24.6776   41.5147 C   0  0  0  0  0  0  0  0  0  0  0  0
   45.5893  -24.4589   40.2000 C   0  0  0  0  0  0  0  0  0  0  0  0
   47.2076  -23.0898   43.1471 C   0  0  0  0  0  0  0  0  0  0  0  0
   48.5432  -23.7241   43.0818 C   0  0  0  0  0  0  0  0  0  0  0  0
   47.0346  -22.0836   43.9198 O   0  0  0  0  0  0  0  0  0  0  0  0
 11 12  1  0  0  0
 12  1  1  0  0  0
  1  2  2  0  0  0
  2  3  1  0  0  0
  3  4  2  0  0  0
  4 13  1  0  0  0
 13 14  1  0  0  0
 14 15  2  0  0  0
 15 16  1  0  0  0
 16 17  2  0  0  0
 17 20  1  0  0  0
 20 21  1  0  0  0
 21 22  2  0  0  0
 21 23  1  0  0  0
 23 26  1  0  0  0
 26 27  2  0  0  0
 27 28  1  0  0  0
 28 29  2  0  0  0
 29 30  1  0  0  0
 29 31  1  0  0  0
 31 32  2  0  0  0
 17 18  1  0  0  0
 18 19  2  0  0  0
  4  5  1  0  0  0
  5  6  2  0  0  0
  6  7  1  0  0  0
  7  8  2  0  0  0
  8  9  1  0  0  0
  9 10  2  0  0  0
 10 33  1  0  0  0
 33 34  1  0  0  0
 34 35  1  0  0  0
 35 36  1  0  0  0
 36 37  1  0  0  0
 37 38  1  0  0  0
 38 39  1  0  0  0
 39 40  1  0  0  0
 40 41  1  0  0  0
 41 42  1  0  0  0
 40 43  1  0  0  0
 43 44  1  0  0  0
 43 45  2  0  0  0
 10  1  1  0  0  0
 42 37  1  0  0  0
  8  3  1  0  0  0
 19 14  1  0  0  0
 32 26  1  0  0  0
 20 24  1  0  0  0
 23 25  1  0  0  0
M  END
> <minimizedAffinity>
-7.48685

> <CNNscore>
0.3560996056

> <CNNaffinity>
5.9781851768

> <CNN_VS>
2.1288294792

> <CNNaffinity_variance>
0.1173644215

$$$$
[H]c1nc2c([H])c(OC([H])([H])C([H])([H])C([H])([H])N3C([H])([H])C([H])([H])N(C(=O)C([H])([H])[H])C([H])([H])C3([H])[H])c(OC([H])([H])[H])c([H])c2c(Oc2c([H])c([H])c(N([H])C(=O)N([H])c3c([H])c([H])c(F)c([H])c3[H])c([H])c2[H])c1[H]


 45 49  0  0  0  0  0  0  0  0999 V2000
   36.2757  -14.6742   37.4343 C   0  0  0  0  0  0  0  0  0  0  0  0
   36.4110  -16.0100   37.1497 C   0  0  0  0  0  0  0  0  0  0  0  0
   35.4966  -16.7424   36.4170 C   0  0  0  0  0  0  0  0  0  0  0  0
   35.6747  -18.0986   36.1466 C   0  0  0  0  0  0  0  0  0  0  0  0
   34.7645  -18.8201   35.4108 C   0  0  0  0  0  0  0  0  0  0  0  0
   33.6523  -18.1475   34.9447 C   0  0  0  0  0  0  0  0  0  0  0  0
   33.4669  -16.8286   35.2011 N   0  0  0  0  0  0  0  0  0  0  0  0
   34.3688  -16.1310   35.9261 C   0  0  0  0  0  0  0  0  0  0  0  0
   34.2124  -14.7785   36.2079 C   0  0  0  0  0  0  0  0  0  0  0  0
   35.1153  -14.0352   36.9359 C   0  0  0  0  0  0  0  0  0  0  0  0
   38.2956  -13.3491   37.4980 C   0  0  0  0  0  0  0  0  0  0  0  0
   37.2027  -13.9438   38.1701 O   0  0  0  0  0  0  0  0  0  0  0  0
   36.8107  -18.6714   36.6609 O   0  0  0  0  0  0  0  0  0  0  0  0
   37.8686  -19.1628   35.8840 C   0  0  0  0  0  0  0  0  0  0  0  0
   39.1423  -19.2596   36.3821 C   0  0  0  0  0  0  0  0  0  0  0  0
   40.1456  -19.7385   35.6012 C   0  0  0  0  0  0  0  0  0  0  0  0
   39.9619  -20.1578   34.2676 C   0  0  0  0  0  0  0  0  0  0  0  0
   38.6673  -20.0393   33.8083 C   0  0  0  0  0  0  0  0  0  0  0  0
   37.6322  -19.5554   34.5912 C   0  0  0  0  0  0  0  0  0  0  0  0
   41.0235  -20.6712   33.5389 N   0  0  0  0  0  0  0  0  0  0  0  0
   41.3906  -22.0481   33.3539 C   0  0  0  0  0  0  0  0  0  0  0  0
   40.7128  -22.9467   33.8826 O   0  0  0  0  0  0  0  0  0  0  0  0
   42.5256  -22.3444   32.5678 N   0  0  0  0  0  0  0  0  0  0  0  0
   41.6498  -19.9444   33.0601 H   0  0  0  0  0  0  0  0  0  0  0  0
   43.0247  -21.4775   32.1690 H   0  0  0  0  0  0  0  0  0  0  0  0
   43.0424  -23.6118   32.2684 C   0  0  0  0  0  0  0  0  0  0  0  0
   44.0700  -24.1169   33.0943 C   0  0  0  0  0  0  0  0  0  0  0  0
   44.6378  -25.3328   32.8771 C   0  0  0  0  0  0  0  0  0  0  0  0
   44.2508  -26.1468   31.8402 C   0  0  0  0  0  0  0  0  0  0  0  0
   44.8308  -27.3451   31.6542 F   0  0  0  0  0  0  0  0  0  0  0  0
   43.2525  -25.6873   31.0142 C   0  0  0  0  0  0  0  0  0  0  0  0
   42.6592  -24.4269   31.2358 C   0  0  0  0  0  0  0  0  0  0  0  0
   34.9155  -12.7496   37.1775 O   0  0  0  0  0  0  0  0  0  0  0  0
   33.9645  -11.8262   37.3493 C   0  0  0  0  0  0  0  0  0  0  0  0
   32.7348  -12.1979   38.1616 C   0  0  0  0  0  0  0  0  0  0  0  0
   31.5392  -12.1633   37.2301 C   0  0  0  0  0  0  0  0  0  0  0  0
   30.2843  -11.9620   37.8264 N   0  0  0  0  0  0  0  0  0  0  0  0
   29.9882  -12.6073   39.0501 C   0  0  0  0  0  0  0  0  0  0  0  0
   28.5181  -12.5801   39.4102 C   0  0  0  0  0  0  0  0  0  0  0  0
   28.0348  -11.2062   39.3340 N   0  0  0  0  0  0  0  0  0  0  0  0
   28.9567  -10.2082   38.8299 C   0  0  0  0  0  0  0  0  0  0  0  0
   29.7015  -10.6801   37.6341 C   0  0  0  0  0  0  0  0  0  0  0  0
   26.7365  -10.8270   39.7236 C   0  0  0  0  0  0  0  0  0  0  0  0
   26.2391   -9.4355   39.6424 C   0  0  0  0  0  0  0  0  0  0  0  0
   25.9578  -11.7403   40.1696 O   0  0  0  0  0  0  0  0  0  0  0  0
 11 12  1  0  0  0
 12  1  1  0  0  0
  1  2  2  0  0  0
  2  3  1  0  0  0
  3  4  2  0  0  0
  4 13  1  0  0  0
 13 14  1  0  0  0
 14 15  2  0  0  0
 15 16  1  0  0  0
 16 17  2  0  0  0
 17 20  1  0  0  0
 20 21  1  0  0  0
 21 22  2  0  0  0
 21 23  1  0  0  0
 23 26  1  0  0  0
 26 27  2  0  0  0
 27 28  1  0  0  0
 28 29  2  0  0  0
 29 30  1  0  0  0
 29 31  1  0  0  0
 31 32  2  0  0  0
 17 18  1  0  0  0
 18 19  2  0  0  0
  4  5  1  0  0  0
  5  6  2  0  0  0
  6  7  1  0  0  0
  7  8  2  0  0  0
  8  9  1  0  0  0
  9 10  2  0  0  0
 10 33  1  0  0  0
 33 34  1  0  0  0
 34 35  1  0  0  0
 35 36  1  0  0  0
 36 37  1  0  0  0
 37 38  1  0  0  0
 38 39  1  0  0  0
 39 40  1  0  0  0
 40 41  1  0  0  0
 41 42  1  0  0  0
 40 43  1  0  0  0
 43 44  1  0  0  0
 43 45  2  0  0  0
 10  1  1  0  0  0
 42 37  1  0  0  0
  8  3  1  0  0  0
 19 14  1  0  0  0
 32 26  1  0  0  0
 20 24  1  0  0  0
 23 25  1  0  0  0
M  END
> <minimizedAffinity>
-8.74810

> <CNNscore>
0.3437862694

> <CNNaffinity>
6.4554281235

> <CNN_VS>
2.2192876339

> <CNNaffinity_variance>
0.0626059026

$$$$
[H]c1nc2c([H])c(OC([H])([H])C([H])([H])C([H])([H])N3C([H])([H])C([H])([H])N(C(=O)C([H])([H])[H])C([H])([H])C3([H])[H])c(OC([H])([H])[H])c([H])c2c(Oc2c([H])c([H])c(N([H])C(=O)N([H])c3c([H])c([H])c(F)c([H])c3[H])c([H])c2[H])c1[H]


 45 49  0  0  0  0  0  0  0  0999 V2000
   39.8180  -20.1911   37.4337 C   0  0  0  0  0  0  0  0  0  0  0  0
   38.6558  -19.5437   37.0962 C   0  0  0  0  0  0  0  0  0  0  0  0
   37.3987  -19.9435   37.5078 C   0  0  0  0  0  0  0  0  0  0  0  0
   36.2424  -19.2538   37.1453 C   0  0  0  0  0  0  0  0  0  0  0  0
   34.9951  -19.6528   37.5642 C   0  0  0  0  0  0  0  0  0  0  0  0
   34.9255  -20.7757   38.3647 C   0  0  0  0  0  0  0  0  0  0  0  0
   36.0426  -21.4558   38.7241 N   0  0  0  0  0  0  0  0  0  0  0  0
   37.2627  -21.0536   38.3052 C   0  0  0  0  0  0  0  0  0  0  0  0
   38.4290  -21.7251   38.6541 C   0  0  0  0  0  0  0  0  0  0  0  0
   39.6886  -21.3384   38.2523 C   0  0  0  0  0  0  0  0  0  0  0  0
   41.2123  -19.1386   35.7639 C   0  0  0  0  0  0  0  0  0  0  0  0
   41.0796  -19.7799   37.0173 O   0  0  0  0  0  0  0  0  0  0  0  0
   36.4226  -18.1552   36.3431 O   0  0  0  0  0  0  0  0  0  0  0  0
   35.9542  -16.8698   36.6475 C   0  0  0  0  0  0  0  0  0  0  0  0
   34.8125  -16.3669   36.0789 C   0  0  0  0  0  0  0  0  0  0  0  0
   34.3873  -15.1158   36.3943 C   0  0  0  0  0  0  0  0  0  0  0  0
   35.0616  -14.2687   37.2975 C   0  0  0  0  0  0  0  0  0  0  0  0
   36.2052  -14.8141   37.8414 C   0  0  0  0  0  0  0  0  0  0  0  0
   36.6519  -16.0883   37.5328 C   0  0  0  0  0  0  0  0  0  0  0  0
   34.5515  -13.0163   37.6022 N   0  0  0  0  0  0  0  0  0  0  0  0
   34.6161  -11.8155   36.8157 C   0  0  0  0  0  0  0  0  0  0  0  0
   35.1832  -11.8291   35.7091 O   0  0  0  0  0  0  0  0  0  0  0  0
   34.0268  -10.6395   37.3295 N   0  0  0  0  0  0  0  0  0  0  0  0
   34.0522  -12.9383   38.5479 H   0  0  0  0  0  0  0  0  0  0  0  0
   33.5701  -10.7612   38.2969 H   0  0  0  0  0  0  0  0  0  0  0  0
   33.9815   -9.3782   36.7211 C   0  0  0  0  0  0  0  0  0  0  0  0
   35.1718   -8.8785   36.1496 C   0  0  0  0  0  0  0  0  0  0  0  0
   35.2262   -7.6621   35.5449 C   0  0  0  0  0  0  0  0  0  0  0  0
   34.1289   -6.8406   35.4527 C   0  0  0  0  0  0  0  0  0  0  0  0
   34.2155   -5.6444   34.8458 F   0  0  0  0  0  0  0  0  0  0  0  0
   32.9517   -7.2942   35.9990 C   0  0  0  0  0  0  0  0  0  0  0  0
   32.8895   -8.5559   36.6266 C   0  0  0  0  0  0  0  0  0  0  0  0
   40.7665  -22.0165   38.6117 O   0  0  0  0  0  0  0  0  0  0  0  0
   41.6124  -22.2269   39.6252 C   0  0  0  0  0  0  0  0  0  0  0  0
   42.1690  -23.6272   39.8230 C   0  0  0  0  0  0  0  0  0  0  0  0
   43.5793  -23.4909   40.3624 C   0  0  0  0  0  0  0  0  0  0  0  0
   44.6232  -23.7998   39.4760 N   0  0  0  0  0  0  0  0  0  0  0  0
   45.3314  -22.7485   38.8479 C   0  0  0  0  0  0  0  0  0  0  0  0
   46.1882  -23.2034   37.6857 C   0  0  0  0  0  0  0  0  0  0  0  0
   47.0341  -24.3084   38.1220 N   0  0  0  0  0  0  0  0  0  0  0  0
   46.8149  -24.8203   39.4599 C   0  0  0  0  0  0  0  0  0  0  0  0
   45.3713  -24.9699   39.7780 C   0  0  0  0  0  0  0  0  0  0  0  0
   48.0305  -24.8795   37.3082 C   0  0  0  0  0  0  0  0  0  0  0  0
   48.8872  -26.0049   37.7438 C   0  0  0  0  0  0  0  0  0  0  0  0
   48.1942  -24.3912   36.1360 O   0  0  0  0  0  0  0  0  0  0  0  0
 11 12  1  0  0  0
 12  1  1  0  0  0
  1  2  2  0  0  0
  2  3  1  0  0  0
  3  4  2  0  0  0
  4 13  1  0  0  0
 13 14  1  0  0  0
 14 15  2  0  0  0
 15 16  1  0  0  0
 16 17  2  0  0  0
 17 20  1  0  0  0
 20 21  1  0  0  0
 21 22  2  0  0  0
 21 23  1  0  0  0
 23 26  1  0  0  0
 26 27  2  0  0  0
 27 28  1  0  0  0
 28 29  2  0  0  0
 29 30  1  0  0  0
 29 31  1  0  0  0
 31 32  2  0  0  0
 17 18  1  0  0  0
 18 19  2  0  0  0
  4  5  1  0  0  0
  5  6  2  0  0  0
  6  7  1  0  0  0
  7  8  2  0  0  0
  8  9  1  0  0  0
  9 10  2  0  0  0
 10 33  1  0  0  0
 33 34  1  0  0  0
 34 35  1  0  0  0
 35 36  1  0  0  0
 36 37  1  0  0  0
 37 38  1  0  0  0
 38 39  1  0  0  0
 39 40  1  0  0  0
 40 41  1  0  0  0
 41 42  1  0  0  0
 40 43  1  0  0  0
 43 44  1  0  0  0
 43 45  2  0  0  0
 10  1  1  0  0  0
 42 37  1  0  0  0
  8  3  1  0  0  0
 19 14  1  0  0  0
 32 26  1  0  0  0
 20 24  1  0  0  0
 23 25  1  0  0  0
M  END
> <minimizedAffinity>
-7.26881

> <CNNscore>
0.3173977435

> <CNNaffinity>
6.0211353302

> <CNN_VS>
1.9110947847

> <CNNaffinity_variance>
0.0705376714

$$$$
[H]N=C(c1c([H])c([H])c([H])c(C([H])([H])[C@@]([H])(C(=O)N([H])[C@]([H])(C(=O)N2C([H])([H])C([H])([H])N(S(=O)(=O)C([H])([H])[H])C([H])([H])C2([H])[H])C([H])([H])c2c([H])c([H])c([H])c(C(=N[H])N([H])[H])c2[H])N([H])[H])c1[H])N([H])[H]


 47 49  0  0  0  0  0  0  0  0999 V2000
   36.4964  -17.1099   36.4603 C   0  0  0  0  0  0  0  0  0  0  0  0
   37.2007  -18.3137   36.9318 C   0  0  0  0  0  0  0  0  0  0  0  0
   38.4262  -18.3978   36.5620 O   0  0  0  0  0  0  0  0  0  0  0  0
   36.6941  -19.3492   37.7212 N   0  0  0  0  0  0  0  0  0  0  0  0
   37.5401  -20.4664   38.0495 C   0  0  0  0  0  0  0  0  0  0  0  0
   37.0256  -21.2659   39.2194 C   0  0  0  0  0  0  0  0  0  0  0  0
   35.6161  -21.4491   39.2492 N   0  0  0  0  0  0  0  0  0  0  0  0
   34.8629  -20.7551   38.2558 C   0  0  0  0  0  0  0  0  0  0  0  0
   35.3520  -19.3126   38.2363 C   0  0  0  0  0  0  0  0  0  0  0  0
   34.9056  -21.5477   40.7880 S   0  0  0  0  0  0  0  0  0  0  0  0
   34.5492  -23.2126   41.2965 C   0  0  0  0  0  0  0  0  0  0  0  0
   33.6092  -20.7997   40.7954 O   0  0  0  0  0  0  0  0  0  0  0  0
   35.8244  -20.9034   41.7844 O   0  0  0  0  0  0  0  0  0  0  0  0
   34.7373  -18.0629   34.9217 C   0  0  0  0  0  0  0  0  0  0  0  0
   35.5856  -18.4924   34.1154 O   0  0  0  0  0  0  0  0  0  0  0  0
   35.1252  -17.3888   36.0686 N   0  0  0  0  0  0  0  0  0  0  0  0
   34.4006  -17.0338   36.7359 H   0  0  0  0  0  0  0  0  0  0  0  0
   32.6897  -17.2332   33.8771 N   0  0  0  0  0  0  0  0  0  0  0  0
   33.3134  -18.2895   34.6260 C   0  0  0  0  0  0  0  0  0  0  0  0
   33.0792  -17.1296   32.9316 H   0  0  0  0  0  0  0  0  0  0  0  0
   32.5832  -16.3673   34.4203 H   0  0  0  0  0  0  0  0  0  0  0  0
   33.1605  -19.6086   33.8560 C   0  0  0  0  0  0  0  0  0  0  0  0
   32.0544  -20.4174   34.4615 C   0  0  0  0  0  0  0  0  0  0  0  0
   31.0494  -19.7604   35.1177 C   0  0  0  0  0  0  0  0  0  0  0  0
   30.0412  -20.5173   35.6675 C   0  0  0  0  0  0  0  0  0  0  0  0
   30.0183  -21.9104   35.5748 C   0  0  0  0  0  0  0  0  0  0  0  0
   31.0181  -22.5780   34.9211 C   0  0  0  0  0  0  0  0  0  0  0  0
   32.0332  -21.7828   34.3700 C   0  0  0  0  0  0  0  0  0  0  0  0
   31.0776  -24.0271   34.7741 C   0  0  0  0  0  0  0  0  0  0  0  0
   32.3002  -24.7340   35.0885 N   0  0  0  0  0  0  0  0  0  0  0  0
   30.0601  -24.6785   34.3699 N   0  0  0  0  0  0  0  0  0  0  0  0
   32.7226  -24.6128   36.0260 H   0  0  0  0  0  0  0  0  0  0  0  0
   32.7581  -25.3551   34.3984 H   0  0  0  0  0  0  0  0  0  0  0  0
   29.1556  -24.2558   34.1255 H   0  0  0  0  0  0  0  0  0  0  0  0
   36.3767  -16.1517   37.6291 C   0  0  0  0  0  0  0  0  0  0  0  0
   35.9115  -14.8132   37.2993 C   0  0  0  0  0  0  0  0  0  0  0  0
   36.7232  -13.9874   36.5345 C   0  0  0  0  0  0  0  0  0  0  0  0
   36.2599  -12.7359   36.2295 C   0  0  0  0  0  0  0  0  0  0  0  0
   35.0299  -12.2890   36.6574 C   0  0  0  0  0  0  0  0  0  0  0  0
   34.2247  -13.1107   37.4172 C   0  0  0  0  0  0  0  0  0  0  0  0
   34.6731  -14.3641   37.7304 C   0  0  0  0  0  0  0  0  0  0  0  0
   32.9107  -12.6600   37.8859 C   0  0  0  0  0  0  0  0  0  0  0  0
   31.9346  -12.3092   36.9273 N   0  0  0  0  0  0  0  0  0  0  0  0
   32.6843  -12.5973   39.1633 N   0  0  0  0  0  0  0  0  0  0  0  0
   32.1824  -11.7731   36.0756 H   0  0  0  0  0  0  0  0  0  0  0  0
   30.9481  -12.5940   37.0783 H   0  0  0  0  0  0  0  0  0  0  0  0
   31.7306  -12.2697   39.4628 H   0  0  0  0  0  0  0  0  0  0  0  0
 18 19  1  0  0  0
 19 22  1  0  0  0
 22 23  1  0  0  0
 23 24  2  0  0  0
 24 25  1  0  0  0
 25 26  2  0  0  0
 26 27  1  0  0  0
 27 28  2  0  0  0
 27 29  1  0  0  0
 29 30  1  0  0  0
 29 31  2  0  0  0
 19 14  1  0  0  0
 14 15  2  0  0  0
 14 16  1  0  0  0
 16  1  1  0  0  0
  1 35  1  0  0  0
 35 36  1  0  0  0
 36 37  2  0  0  0
 37 38  1  0  0  0
 38 39  2  0  0  0
 39 40  1  0  0  0
 40 41  2  0  0  0
 40 42  1  0  0  0
 42 43  1  0  0  0
 42 44  2  0  0  0
  1  2  1  0  0  0
  2  3  2  0  0  0
  2  4  1  0  0  0
  4  5  1  0  0  0
  5  6  1  0  0  0
  6  7  1  0  0  0
  7  8  1  0  0  0
  8  9  1  0  0  0
  7 10  1  0  0  0
 10 11  1  0  0  0
 10 12  2  0  0  0
 10 13  2  0  0  0
 28 23  1  0  0  0
 41 36  1  0  0  0
  9  4  1  0  0  0
 18 20  1  0  0  0
 18 21  1  0  0  0
 30 32  1  0  0  0
 30 33  1  0  0  0
 31 34  1  0  0  0
 16 17  1  0  0  0
 43 45  1  0  0  0
 43 46  1  0  0  0
 44 47  1  0  0  0
M  END
> <minimizedAffinity>
-8.29049

> <CNNscore>
0.4014835358

> <CNNaffinity>
5.9583115578

> <CNN_VS>
2.3921639919

> <CNNaffinity_variance>
0.3646105230

$$$$
[H]N=C(c1c([H])c([H])c([H])c(C([H])([H])[C@@]([H])(C(=O)N([H])[C@]([H])(C(=O)N2C([H])([H])C([H])([H])N(S(=O)(=O)C([H])([H])[H])C([H])([H])C2([H])[H])C([H])([H])c2c([H])c([H])c([H])c(C(=N[H])N([H])[H])c2[H])N([H])[H])c1[H])N([H])[H]


 47 49  0  0  0  0  0  0  0  0999 V2000
   35.9868  -17.7641   34.8358 C   0  0  0  0  0  0  0  0  0  0  0  0
   37.3468  -18.1688   34.4430 C   0  0  0  0  0  0  0  0  0  0  0  0
   37.7485  -17.6853   33.3247 O   0  0  0  0  0  0  0  0  0  0  0  0
   38.2284  -19.0001   35.1386 N   0  0  0  0  0  0  0  0  0  0  0  0
   39.5127  -19.3057   34.5653 C   0  0  0  0  0  0  0  0  0  0  0  0
   40.4940  -19.8375   35.5785 C   0  0  0  0  0  0  0  0  0  0  0  0
   39.9449  -20.7363   36.5333 N   0  0  0  0  0  0  0  0  0  0  0  0
   38.5305  -20.9196   36.4950 C   0  0  0  0  0  0  0  0  0  0  0  0
   37.8922  -19.5380   36.4291 C   0  0  0  0  0  0  0  0  0  0  0  0
   40.6508  -20.7128   38.0772 S   0  0  0  0  0  0  0  0  0  0  0  0
   41.8836  -21.9712   38.3099 C   0  0  0  0  0  0  0  0  0  0  0  0
   39.5979  -20.9321   39.1181 O   0  0  0  0  0  0  0  0  0  0  0  0
   41.2623  -19.3616   38.3062 O   0  0  0  0  0  0  0  0  0  0  0  0
   33.6850  -18.6741   34.3427 C   0  0  0  0  0  0  0  0  0  0  0  0
   33.2067  -17.5377   34.1582 O   0  0  0  0  0  0  0  0  0  0  0  0
   35.0210  -18.8373   34.6719 N   0  0  0  0  0  0  0  0  0  0  0  0
   35.4077  -19.7985   34.8240 H   0  0  0  0  0  0  0  0  0  0  0  0
   33.2790  -20.8457   33.2978 N   0  0  0  0  0  0  0  0  0  0  0  0
   32.7958  -19.8386   34.2021 C   0  0  0  0  0  0  0  0  0  0  0  0
   34.1468  -21.2911   33.6221 H   0  0  0  0  0  0  0  0  0  0  0  0
   33.2660  -20.5410   32.3164 H   0  0  0  0  0  0  0  0  0  0  0  0
   32.5683  -20.4707   35.5823 C   0  0  0  0  0  0  0  0  0  0  0  0
   31.2303  -21.1437   35.6112 C   0  0  0  0  0  0  0  0  0  0  0  0
   30.1073  -20.3625   35.6399 C   0  0  0  0  0  0  0  0  0  0  0  0
   28.8867  -20.9958   35.6657 C   0  0  0  0  0  0  0  0  0  0  0  0
   28.7674  -22.3871   35.6636 C   0  0  0  0  0  0  0  0  0  0  0  0
   29.8836  -23.1783   35.6352 C   0  0  0  0  0  0  0  0  0  0  0  0
   31.1148  -22.5075   35.6092 C   0  0  0  0  0  0  0  0  0  0  0  0
   29.8564  -24.6358   35.6305 C   0  0  0  0  0  0  0  0  0  0  0  0
   29.9177  -25.3539   34.3760 N   0  0  0  0  0  0  0  0  0  0  0  0
   29.7786  -25.2847   36.7240 N   0  0  0  0  0  0  0  0  0  0  0  0
   30.7055  -25.1687   33.7302 H   0  0  0  0  0  0  0  0  0  0  0  0
   29.1935  -26.0453   34.1131 H   0  0  0  0  0  0  0  0  0  0  0  0
   29.7308  -24.8542   37.6563 H   0  0  0  0  0  0  0  0  0  0  0  0
   35.9971  -17.4781   36.3246 C   0  0  0  0  0  0  0  0  0  0  0  0
   36.0406  -16.0715   36.6941 C   0  0  0  0  0  0  0  0  0  0  0  0
   37.1935  -15.5633   37.2757 C   0  0  0  0  0  0  0  0  0  0  0  0
   37.2137  -14.2350   37.6062 C   0  0  0  0  0  0  0  0  0  0  0  0
   36.1354  -13.4099   37.3777 C   0  0  0  0  0  0  0  0  0  0  0  0
   34.9908  -13.9165   36.7998 C   0  0  0  0  0  0  0  0  0  0  0  0
   34.9546  -15.2416   36.4638 C   0  0  0  0  0  0  0  0  0  0  0  0
   33.8283  -13.0601   36.5456 C   0  0  0  0  0  0  0  0  0  0  0  0
   33.8701  -11.7168   36.9799 N   0  0  0  0  0  0  0  0  0  0  0  0
   32.7992  -13.5600   35.9308 N   0  0  0  0  0  0  0  0  0  0  0  0
   34.2750  -11.4586   37.8983 H   0  0  0  0  0  0  0  0  0  0  0  0
   33.4873  -10.9720   36.3669 H   0  0  0  0  0  0  0  0  0  0  0  0
   31.9837  -12.9164   35.7657 H   0  0  0  0  0  0  0  0  0  0  0  0
 18 19  1  0  0  0
 19 22  1  0  0  0
 22 23  1  0  0  0
 23 24  2  0  0  0
 24 25  1  0  0  0
 25 26  2  0  0  0
 26 27  1  0  0  0
 27 28  2  0  0  0
 27 29  1  0  0  0
 29 30  1  0  0  0
 29 31  2  0  0  0
 19 14  1  0  0  0
 14 15  2  0  0  0
 14 16  1  0  0  0
 16  1  1  0  0  0
  1 35  1  0  0  0
 35 36  1  0  0  0
 36 37  2  0  0  0
 37 38  1  0  0  0
 38 39  2  0  0  0
 39 40  1  0  0  0
 40 41  2  0  0  0
 40 42  1  0  0  0
 42 43  1  0  0  0
 42 44  2  0  0  0
  1  2  1  0  0  0
  2  3  2  0  0  0
  2  4  1  0  0  0
  4  5  1  0  0  0
  5  6  1  0  0  0
  6  7  1  0  0  0
  7  8  1  0  0  0
  8  9  1  0  0  0
  7 10  1  0  0  0
 10 11  1  0  0  0
 10 12  2  0  0  0
 10 13  2  0  0  0
 28 23  1  0  0  0
 41 36  1  0  0  0
  9  4  1  0  0  0
 18 20  1  0  0  0
 18 21  1  0  0  0
 30 32  1  0  0  0
 30 33  1  0  0  0
 31 34  1  0  0  0
 16 17  1  0  0  0
 43 45  1  0  0  0
 43 46  1  0  0  0
 44 47  1  0  0  0
M  END
> <minimizedAffinity>
-8.30040

> <CNNscore>
0.3834434152

> <CNNaffinity>
5.9254884720

> <CNN_VS>
2.2720894814

> <CNNaffinity_variance>
0.4055489600

$$$$
[H]N=C(c1c([H])c([H])c([H])c(C([H])([H])[C@@]([H])(C(=O)N([H])[C@]([H])(C(=O)N2C([H])([H])C([H])([H])N(S(=O)(=O)C([H])([H])[H])C([H])([H])C2([H])[H])C([H])([H])c2c([H])c([H])c([H])c(C(=N[H])N([H])[H])c2[H])N([H])[H])c1[H])N([H])[H]


 47 49  0  0  0  0  0  0  0  0999 V2000
   35.7981  -18.6136   36.3793 C   0  0  0  0  0  0  0  0  0  0  0  0
   35.1145  -19.2241   35.2271 C   0  0  0  0  0  0  0  0  0  0  0  0
   35.8031  -19.2469   34.1450 O   0  0  0  0  0  0  0  0  0  0  0  0
   33.8294  -19.7708   35.1838 N   0  0  0  0  0  0  0  0  0  0  0  0
   33.3250  -20.2928   33.9410 C   0  0  0  0  0  0  0  0  0  0  0  0
   32.1428  -21.2093   34.1283 C   0  0  0  0  0  0  0  0  0  0  0  0
   31.2114  -20.7945   35.1190 N   0  0  0  0  0  0  0  0  0  0  0  0
   31.5710  -19.6500   35.8912 C   0  0  0  0  0  0  0  0  0  0  0  0
   33.0066  -19.8479   36.3606 C   0  0  0  0  0  0  0  0  0  0  0  0
   30.4053  -22.0330   35.9550 S   0  0  0  0  0  0  0  0  0  0  0  0
   28.6468  -22.0299   35.6992 C   0  0  0  0  0  0  0  0  0  0  0  0
   30.6350  -21.8827   37.4264 O   0  0  0  0  0  0  0  0  0  0  0  0
   30.9736  -23.3535   35.5242 O   0  0  0  0  0  0  0  0  0  0  0  0
   36.5739  -20.1486   38.2265 C   0  0  0  0  0  0  0  0  0  0  0  0
   35.5405  -19.9642   38.8990 O   0  0  0  0  0  0  0  0  0  0  0  0
   36.7468  -19.5200   37.0037 N   0  0  0  0  0  0  0  0  0  0  0  0
   37.6206  -19.6848   36.4508 H   0  0  0  0  0  0  0  0  0  0  0  0
   37.1418  -22.3822   39.0394 N   0  0  0  0  0  0  0  0  0  0  0  0
   37.6060  -21.0505   38.7628 C   0  0  0  0  0  0  0  0  0  0  0  0
   36.8503  -22.8879   38.1932 H   0  0  0  0  0  0  0  0  0  0  0  0
   36.4940  -22.4221   39.8362 H   0  0  0  0  0  0  0  0  0  0  0  0
   38.7778  -21.1227   37.7738 C   0  0  0  0  0  0  0  0  0  0  0  0
   39.9909  -20.4928   38.3869 C   0  0  0  0  0  0  0  0  0  0  0  0
   40.2405  -20.7133   39.7141 C   0  0  0  0  0  0  0  0  0  0  0  0
   41.3584  -20.1283   40.2616 C   0  0  0  0  0  0  0  0  0  0  0  0
   42.2267  -19.3316   39.5125 C   0  0  0  0  0  0  0  0  0  0  0  0
   41.9870  -19.1042   38.1845 C   0  0  0  0  0  0  0  0  0  0  0  0
   40.8412  -19.7120   37.6516 C   0  0  0  0  0  0  0  0  0  0  0  0
   42.8362  -18.2884   37.3252 C   0  0  0  0  0  0  0  0  0  0  0  0
   42.2366  -17.3933   36.3595 N   0  0  0  0  0  0  0  0  0  0  0  0
   44.1049  -18.3569   37.4170 N   0  0  0  0  0  0  0  0  0  0  0  0
   41.5514  -16.6893   36.6862 H   0  0  0  0  0  0  0  0  0  0  0  0
   42.4781  -17.4428   35.3541 H   0  0  0  0  0  0  0  0  0  0  0  0
   44.6109  -18.9646   38.0737 H   0  0  0  0  0  0  0  0  0  0  0  0
   36.6430  -17.4646   35.8652 C   0  0  0  0  0  0  0  0  0  0  0  0
   36.3598  -16.1642   36.4530 C   0  0  0  0  0  0  0  0  0  0  0  0
   37.2822  -15.6043   37.3256 C   0  0  0  0  0  0  0  0  0  0  0  0
   36.9977  -14.3760   37.8588 C   0  0  0  0  0  0  0  0  0  0  0  0
   35.8388  -13.6985   37.5528 C   0  0  0  0  0  0  0  0  0  0  0  0
   34.9235  -14.2562   36.6857 C   0  0  0  0  0  0  0  0  0  0  0  0
   35.1929  -15.4828   36.1445 C   0  0  0  0  0  0  0  0  0  0  0  0
   33.6816  -13.5565   36.3430 C   0  0  0  0  0  0  0  0  0  0  0  0
   33.4324  -12.2954   36.9280 N   0  0  0  0  0  0  0  0  0  0  0  0
   32.8513  -14.1147   35.5147 N   0  0  0  0  0  0  0  0  0  0  0  0
   33.6513  -12.1094   37.9238 H   0  0  0  0  0  0  0  0  0  0  0  0
   33.0212  -11.5385   36.3491 H   0  0  0  0  0  0  0  0  0  0  0  0
   31.9709  -13.5837   35.2921 H   0  0  0  0  0  0  0  0  0  0  0  0
 18 19  1  0  0  0
 19 22  1  0  0  0
 22 23  1  0  0  0
 23 24  2  0  0  0
 24 25  1  0  0  0
 25 26  2  0  0  0
 26 27  1  0  0  0
 27 28  2  0  0  0
 27 29  1  0  0  0
 29 30  1  0  0  0
 29 31  2  0  0  0
 19 14  1  0  0  0
 14 15  2  0  0  0
 14 16  1  0  0  0
 16  1  1  0  0  0
  1 35  1  0  0  0
 35 36  1  0  0  0
 36 37  2  0  0  0
 37 38  1  0  0  0
 38 39  2  0  0  0
 39 40  1  0  0  0
 40 41  2  0  0  0
 40 42  1  0  0  0
 42 43  1  0  0  0
 42 44  2  0  0  0
  1  2  1  0  0  0
  2  3  2  0  0  0
  2  4  1  0  0  0
  4  5  1  0  0  0
  5  6  1  0  0  0
  6  7  1  0  0  0
  7  8  1  0  0  0
  8  9  1  0  0  0
  7 10  1  0  0  0
 10 11  1  0  0  0
 10 12  2  0  0  0
 10 13  2  0  0  0
 28 23  1  0  0  0
 41 36  1  0  0  0
  9  4  1  0  0  0
 18 20  1  0  0  0
 18 21  1  0  0  0
 30 32  1  0  0  0
 30 33  1  0  0  0
 31 34  1  0  0  0
 16 17  1  0  0  0
 43 45  1  0  0  0
 43 46  1  0  0  0
 44 47  1  0  0  0
M  END
> <minimizedAffinity>
-7.91542

> <CNNscore>
0.2931423485

> <CNNaffinity>
5.6211471558

> <CNN_VS>
1.6477962732

> <CNNaffinity_variance>
0.4555622935

$$$$
[H]N=C(c1c([H])c([H])c([H])c(C([H])([H])[C@@]([H])(C(=O)N([H])[C@]([H])(C(=O)N2C([H])([H])C([H])([H])N(S(=O)(=O)C([H])([H])[H])C([H])([H])C2([H])[H])C([H])([H])c2c([H])c([H])c([H])c(C(=N[H])N([H])[H])c2[H])N([H])[H])c1[H])N([H])[H]


 47 49  0  0  0  0  0  0  0  0999 V2000
   36.4828  -17.7956   36.4155 C   0  0  0  0  0  0  0  0  0  0  0  0
   37.0718  -19.0344   36.9505 C   0  0  0  0  0  0  0  0  0  0  0  0
   36.2661  -19.7580   37.6382 O   0  0  0  0  0  0  0  0  0  0  0  0
   38.3800  -19.4992   36.7934 N   0  0  0  0  0  0  0  0  0  0  0  0
   38.7744  -20.7285   37.4295 C   0  0  0  0  0  0  0  0  0  0  0  0
   40.0347  -21.3123   36.8434 C   0  0  0  0  0  0  0  0  0  0  0  0
   41.0412  -20.3633   36.5159 N   0  0  0  0  0  0  0  0  0  0  0  0
   40.6900  -18.9879   36.6587 C   0  0  0  0  0  0  0  0  0  0  0  0
   39.3368  -18.7897   35.9879 C   0  0  0  0  0  0  0  0  0  0  0  0
   42.0278  -20.7454   35.1880 S   0  0  0  0  0  0  0  0  0  0  0  0
   41.1118  -21.1982   33.7342 C   0  0  0  0  0  0  0  0  0  0  0  0
   42.9094  -21.9056   35.5301 O   0  0  0  0  0  0  0  0  0  0  0  0
   42.9031  -19.5651   34.8834 O   0  0  0  0  0  0  0  0  0  0  0  0
   35.2419  -18.7171   34.4203 C   0  0  0  0  0  0  0  0  0  0  0  0
   36.2821  -19.1697   33.9033 O   0  0  0  0  0  0  0  0  0  0  0  0
   35.2851  -18.0459   35.6318 N   0  0  0  0  0  0  0  0  0  0  0  0
   34.4026  -17.6713   36.0530 H   0  0  0  0  0  0  0  0  0  0  0  0
   33.6866  -20.2798   33.3660 N   0  0  0  0  0  0  0  0  0  0  0  0
   33.9663  -18.9134   33.7126 C   0  0  0  0  0  0  0  0  0  0  0  0
   33.5570  -20.8825   34.1886 H   0  0  0  0  0  0  0  0  0  0  0  0
   34.3098  -20.6419   32.6333 H   0  0  0  0  0  0  0  0  0  0  0  0
   32.8199  -18.3699   34.5765 C   0  0  0  0  0  0  0  0  0  0  0  0
   32.1520  -19.5029   35.2938 C   0  0  0  0  0  0  0  0  0  0  0  0
   30.9024  -19.8857   34.8886 C   0  0  0  0  0  0  0  0  0  0  0  0
   30.3032  -20.9277   35.5571 C   0  0  0  0  0  0  0  0  0  0  0  0
   30.9253  -21.5907   36.6169 C   0  0  0  0  0  0  0  0  0  0  0  0
   32.1748  -21.2164   37.0308 C   0  0  0  0  0  0  0  0  0  0  0  0
   32.7628  -20.1519   36.3326 C   0  0  0  0  0  0  0  0  0  0  0  0
   32.9005  -21.8490   38.1254 C   0  0  0  0  0  0  0  0  0  0  0  0
   32.8095  -23.2799   38.3188 N   0  0  0  0  0  0  0  0  0  0  0  0
   33.6160  -21.1514   38.9155 N   0  0  0  0  0  0  0  0  0  0  0  0
   33.0504  -23.9086   37.5322 H   0  0  0  0  0  0  0  0  0  0  0  0
   32.5098  -23.6851   39.2231 H   0  0  0  0  0  0  0  0  0  0  0  0
   33.7350  -20.1325   38.8495 H   0  0  0  0  0  0  0  0  0  0  0  0
   36.0091  -16.9600   37.5884 C   0  0  0  0  0  0  0  0  0  0  0  0
   36.1323  -15.5196   37.4243 C   0  0  0  0  0  0  0  0  0  0  0  0
   37.3912  -14.9395   37.4903 C   0  0  0  0  0  0  0  0  0  0  0  0
   37.4826  -13.5838   37.3238 C   0  0  0  0  0  0  0  0  0  0  0  0
   36.3735  -12.8002   37.0967 C   0  0  0  0  0  0  0  0  0  0  0  0
   35.1236  -13.3782   37.0315 C   0  0  0  0  0  0  0  0  0  0  0  0
   35.0152  -14.7315   37.1958 C   0  0  0  0  0  0  0  0  0  0  0  0
   33.9261  -12.5672   36.7910 C   0  0  0  0  0  0  0  0  0  0  0  0
   32.7789  -13.1962   36.2592 N   0  0  0  0  0  0  0  0  0  0  0  0
   33.9558  -11.2997   37.0735 N   0  0  0  0  0  0  0  0  0  0  0  0
   32.8519  -13.9067   35.5082 H   0  0  0  0  0  0  0  0  0  0  0  0
   31.8426  -12.9421   36.6278 H   0  0  0  0  0  0  0  0  0  0  0  0
   33.0786  -10.7495   36.8879 H   0  0  0  0  0  0  0  0  0  0  0  0
 18 19  1  0  0  0
 19 22  1  0  0  0
 22 23  1  0  0  0
 23 24  2  0  0  0
 24 25  1  0  0  0
 25 26  2  0  0  0
 26 27  1  0  0  0
 27 28  2  0  0  0
 27 29  1  0  0  0
 29 30  1  0  0  0
 29 31  2  0  0  0
 19 14  1  0  0  0
 14 15  2  0  0  0
 14 16  1  0  0  0
 16  1  1  0  0  0
  1 35  1  0  0  0
 35 36  1  0  0  0
 36 37  2  0  0  0
 37 38  1  0  0  0
 38 39  2  0  0  0
 39 40  1  0  0  0
 40 41  2  0  0  0
 40 42  1  0  0  0
 42 43  1  0  0  0
 42 44  2  0  0  0
  1  2  1  0  0  0
  2  3  2  0  0  0
  2  4  1  0  0  0
  4  5  1  0  0  0
  5  6  1  0  0  0
  6  7  1  0  0  0
  7  8  1  0  0  0
  8  9  1  0  0  0
  7 10  1  0  0  0
 10 11  1  0  0  0
 10 12  2  0  0  0
 10 13  2  0  0  0
 28 23  1  0  0  0
 41 36  1  0  0  0
  9  4  1  0  0  0
 18 20  1  0  0  0
 18 21  1  0  0  0
 30 32  1  0  0  0
 30 33  1  0  0  0
 31 34  1  0  0  0
 16 17  1  0  0  0
 43 45  1  0  0  0
 43 46  1  0  0  0
 44 47  1  0  0  0
M  END
> <minimizedAffinity>
-8.15589

> <CNNscore>
0.2826697528

> <CNNaffinity>
5.9169263840

> <CNN_VS>
1.6725361347

> <CNNaffinity_variance>
0.3670761585

$$$$
[H]N=C(c1c([H])c([H])c([H])c(C([H])([H])[C@@]([H])(C(=O)N([H])[C@]([H])(C(=O)N2C([H])([H])C([H])([H])N(S(=O)(=O)C([H])([H])[H])C([H])([H])C2([H])[H])C([H])([H])c2c([H])c([H])c([H])c(C(=N[H])N([H])[H])c2[H])N([H])[H])c1[H])N([H])[H]


 47 49  0  0  0  0  0  0  0  0999 V2000
   35.5919  -18.1116   36.0567 C   0  0  0  0  0  0  0  0  0  0  0  0
   34.9417  -18.9154   35.0084 C   0  0  0  0  0  0  0  0  0  0  0  0
   35.6747  -19.1537   33.9830 O   0  0  0  0  0  0  0  0  0  0  0  0
   33.6456  -19.4371   35.0083 N   0  0  0  0  0  0  0  0  0  0  0  0
   33.1805  -20.1742   33.8629 C   0  0  0  0  0  0  0  0  0  0  0  0
   31.9676  -21.0175   34.1631 C   0  0  0  0  0  0  0  0  0  0  0  0
   31.0064  -20.4070   35.0143 N   0  0  0  0  0  0  0  0  0  0  0  0
   31.3632  -19.1444   35.5747 C   0  0  0  0  0  0  0  0  0  0  0  0
   32.7720  -19.2765   36.1391 C   0  0  0  0  0  0  0  0  0  0  0  0
   30.1330  -21.4514   36.0286 S   0  0  0  0  0  0  0  0  0  0  0  0
   31.1527  -22.3159   37.1994 C   0  0  0  0  0  0  0  0  0  0  0  0
   29.4340  -22.4881   35.2059 O   0  0  0  0  0  0  0  0  0  0  0  0
   29.0933  -20.6538   36.7601 O   0  0  0  0  0  0  0  0  0  0  0  0
   36.6816  -19.7083   37.6793 C   0  0  0  0  0  0  0  0  0  0  0  0
   35.5923  -20.0254   38.1961 O   0  0  0  0  0  0  0  0  0  0  0  0
   36.7355  -18.7891   36.6439 N   0  0  0  0  0  0  0  0  0  0  0  0
   37.6583  -18.5328   36.2205 H   0  0  0  0  0  0  0  0  0  0  0  0
   37.6809  -21.3971   39.1361 N   0  0  0  0  0  0  0  0  0  0  0  0
   37.9095  -20.3345   38.1958 C   0  0  0  0  0  0  0  0  0  0  0  0
   37.2017  -22.2047   38.7181 H   0  0  0  0  0  0  0  0  0  0  0  0
   37.3067  -21.0632   40.0332 H   0  0  0  0  0  0  0  0  0  0  0  0
   38.7352  -20.8741   37.0196 C   0  0  0  0  0  0  0  0  0  0  0  0
   39.9834  -20.0598   36.8679 C   0  0  0  0  0  0  0  0  0  0  0  0
   40.7537  -19.8336   37.9759 C   0  0  0  0  0  0  0  0  0  0  0  0
   41.8966  -19.0846   37.8198 C   0  0  0  0  0  0  0  0  0  0  0  0
   42.2824  -18.5602   36.5845 C   0  0  0  0  0  0  0  0  0  0  0  0
   41.5197  -18.7798   35.4696 C   0  0  0  0  0  0  0  0  0  0  0  0
   40.3603  -19.5462   35.6565 C   0  0  0  0  0  0  0  0  0  0  0  0
   41.8428  -18.2734   34.1415 C   0  0  0  0  0  0  0  0  0  0  0  0
   40.7800  -17.9596   33.2113 N   0  0  0  0  0  0  0  0  0  0  0  0
   43.0560  -18.1044   33.7912 N   0  0  0  0  0  0  0  0  0  0  0  0
   40.0396  -17.2965   33.5011 H   0  0  0  0  0  0  0  0  0  0  0  0
   40.7457  -18.3827   32.2672 H   0  0  0  0  0  0  0  0  0  0  0  0
   43.8690  -18.3020   34.3883 H   0  0  0  0  0  0  0  0  0  0  0  0
   36.1712  -16.8727   35.4025 C   0  0  0  0  0  0  0  0  0  0  0  0
   35.9001  -15.6166   36.0848 C   0  0  0  0  0  0  0  0  0  0  0  0
   36.9599  -14.8991   36.6210 C   0  0  0  0  0  0  0  0  0  0  0  0
   36.6806  -13.7158   37.2502 C   0  0  0  0  0  0  0  0  0  0  0  0
   35.3959  -13.2329   37.3594 C   0  0  0  0  0  0  0  0  0  0  0  0
   34.3441  -13.9472   36.8261 C   0  0  0  0  0  0  0  0  0  0  0  0
   34.6064  -15.1313   36.1943 C   0  0  0  0  0  0  0  0  0  0  0  0
   32.9665  -13.4562   36.9283 C   0  0  0  0  0  0  0  0  0  0  0  0
   32.3937  -13.3114   38.2111 N   0  0  0  0  0  0  0  0  0  0  0  0
   32.3168  -13.1697   35.8407 N   0  0  0  0  0  0  0  0  0  0  0  0
   32.5479  -14.0173   38.9541 H   0  0  0  0  0  0  0  0  0  0  0  0
   31.8058  -12.4808   38.4148 H   0  0  0  0  0  0  0  0  0  0  0  0
   31.3309  -12.8202   35.9526 H   0  0  0  0  0  0  0  0  0  0  0  0
 18 19  1  0  0  0
 19 22  1  0  0  0
 22 23  1  0  0  0
 23 24  2  0  0  0
 24 25  1  0  0  0
 25 26  2  0  0  0
 26 27  1  0  0  0
 27 28  2  0  0  0
 27 29  1  0  0  0
 29 30  1  0  0  0
 29 31  2  0  0  0
 19 14  1  0  0  0
 14 15  2  0  0  0
 14 16  1  0  0  0
 16  1  1  0  0  0
  1 35  1  0  0  0
 35 36  1  0  0  0
 36 37  2  0  0  0
 37 38  1  0  0  0
 38 39  2  0  0  0
 39 40  1  0  0  0
 40 41  2  0  0  0
 40 42  1  0  0  0
 42 43  1  0  0  0
 42 44  2  0  0  0
  1  2  1  0  0  0
  2  3  2  0  0  0
  2  4  1  0  0  0
  4  5  1  0  0  0
  5  6  1  0  0  0
  6  7  1  0  0  0
  7  8  1  0  0  0
  8  9  1  0  0  0
  7 10  1  0  0  0
 10 11  1  0  0  0
 10 12  2  0  0  0
 10 13  2  0  0  0
 28 23  1  0  0  0
 41 36  1  0  0  0
  9  4  1  0  0  0
 18 20  1  0  0  0
 18 21  1  0  0  0
 30 32  1  0  0  0
 30 33  1  0  0  0
 31 34  1  0  0  0
 16 17  1  0  0  0
 43 45  1  0  0  0
 43 46  1  0  0  0
 44 47  1  0  0  0
M  END
> <minimizedAffinity>
-8.82121

> <CNNscore>
0.2728800774

> <CNNaffinity>
5.6628313065

> <CNN_VS>
1.5452739000

> <CNNaffinity_variance>
0.9258594513

$$$$
[H]N=C(c1c([H])c([H])c([H])c(C([H])([H])[C@@]([H])(C(=O)N([H])[C@]([H])(C(=O)N2C([H])([H])C([H])([H])N(S(=O)(=O)C([H])([H])[H])C([H])([H])C2([H])[H])C([H])([H])c2c([H])c([H])c([H])c(C(=N[H])N([H])[H])c2[H])N([H])[H])c1[H])N([H])[H]


 47 49  0  0  0  0  0  0  0  0999 V2000
   35.8827  -18.2560   35.9906 C   0  0  0  0  0  0  0  0  0  0  0  0
   35.1491  -19.0063   34.9580 C   0  0  0  0  0  0  0  0  0  0  0  0
   35.8381  -19.2993   33.9163 O   0  0  0  0  0  0  0  0  0  0  0  0
   33.8170  -19.4267   34.9876 N   0  0  0  0  0  0  0  0  0  0  0  0
   33.2707  -20.1247   33.8536 C   0  0  0  0  0  0  0  0  0  0  0  0
   32.0036  -20.8725   34.1818 C   0  0  0  0  0  0  0  0  0  0  0  0
   31.1118  -20.1908   35.0542 N   0  0  0  0  0  0  0  0  0  0  0  0
   31.5773  -18.9599   35.6054 C   0  0  0  0  0  0  0  0  0  0  0  0
   32.9841  -19.2006   36.1378 C   0  0  0  0  0  0  0  0  0  0  0  0
   30.1839  -21.1659   36.0889 S   0  0  0  0  0  0  0  0  0  0  0  0
   29.7188  -22.7211   35.3658 C   0  0  0  0  0  0  0  0  0  0  0  0
   28.9179  -20.4553   36.4531 O   0  0  0  0  0  0  0  0  0  0  0  0
   30.9635  -21.4100   37.3477 O   0  0  0  0  0  0  0  0  0  0  0  0
   37.1584  -19.8852   37.4357 C   0  0  0  0  0  0  0  0  0  0  0  0
   36.1384  -20.2168   38.0713 O   0  0  0  0  0  0  0  0  0  0  0  0
   37.0883  -18.9430   36.4221 N   0  0  0  0  0  0  0  0  0  0  0  0
   37.9540  -18.6748   35.8977 H   0  0  0  0  0  0  0  0  0  0  0  0
   38.5129  -20.9891   39.1443 N   0  0  0  0  0  0  0  0  0  0  0  0
   38.4391  -20.5192   37.7881 C   0  0  0  0  0  0  0  0  0  0  0  0
   37.8495  -21.7493   39.3407 H   0  0  0  0  0  0  0  0  0  0  0  0
   38.5419  -20.2249   39.8310 H   0  0  0  0  0  0  0  0  0  0  0  0
   38.7011  -21.6936   36.8350 C   0  0  0  0  0  0  0  0  0  0  0  0
   39.8734  -21.3757   35.9581 C   0  0  0  0  0  0  0  0  0  0  0  0
   40.5892  -20.2377   36.2126 C   0  0  0  0  0  0  0  0  0  0  0  0
   41.6627  -19.9605   35.3988 C   0  0  0  0  0  0  0  0  0  0  0  0
   42.0325  -20.7940   34.3412 C   0  0  0  0  0  0  0  0  0  0  0  0
   41.3239  -21.9346   34.0773 C   0  0  0  0  0  0  0  0  0  0  0  0
   40.2347  -22.1935   34.9217 C   0  0  0  0  0  0  0  0  0  0  0  0
   41.6355  -22.8629   32.9974 C   0  0  0  0  0  0  0  0  0  0  0  0
   42.9430  -22.8363   32.3786 N   0  0  0  0  0  0  0  0  0  0  0  0
   40.7644  -23.6995   32.5923 N   0  0  0  0  0  0  0  0  0  0  0  0
   43.7826  -22.9387   32.9759 H   0  0  0  0  0  0  0  0  0  0  0  0
   43.0548  -22.7176   31.3564 H   0  0  0  0  0  0  0  0  0  0  0  0
   39.8143  -23.7849   32.9754 H   0  0  0  0  0  0  0  0  0  0  0  0
   36.3762  -16.9652   35.3671 C   0  0  0  0  0  0  0  0  0  0  0  0
   36.1781  -15.7654   36.1659 C   0  0  0  0  0  0  0  0  0  0  0  0
   37.1517  -15.3995   37.0845 C   0  0  0  0  0  0  0  0  0  0  0  0
   36.9470  -14.2618   37.8178 C   0  0  0  0  0  0  0  0  0  0  0  0
   35.8178  -13.4890   37.6655 C   0  0  0  0  0  0  0  0  0  0  0  0
   34.8514  -13.8541   36.7525 C   0  0  0  0  0  0  0  0  0  0  0  0
   35.0410  -14.9880   36.0119 C   0  0  0  0  0  0  0  0  0  0  0  0
   33.6395  -13.0494   36.5703 C   0  0  0  0  0  0  0  0  0  0  0  0
   33.5534  -11.7995   37.2222 N   0  0  0  0  0  0  0  0  0  0  0  0
   32.6853  -13.5078   35.8177 N   0  0  0  0  0  0  0  0  0  0  0  0
   33.8898  -11.6732   38.1944 H   0  0  0  0  0  0  0  0  0  0  0  0
   33.1448  -10.9898   36.7177 H   0  0  0  0  0  0  0  0  0  0  0  0
   31.8311  -12.9034   35.7101 H   0  0  0  0  0  0  0  0  0  0  0  0
 18 19  1  0  0  0
 19 22  1  0  0  0
 22 23  1  0  0  0
 23 24  2  0  0  0
 24 25  1  0  0  0
 25 26  2  0  0  0
 26 27  1  0  0  0
 27 28  2  0  0  0
 27 29  1  0  0  0
 29 30  1  0  0  0
 29 31  2  0  0  0
 19 14  1  0  0  0
 14 15  2  0  0  0
 14 16  1  0  0  0
 16  1  1  0  0  0
  1 35  1  0  0  0
 35 36  1  0  0  0
 36 37  2  0  0  0
 37 38  1  0  0  0
 38 39  2  0  0  0
 39 40  1  0  0  0
 40 41  2  0  0  0
 40 42  1  0  0  0
 42 43  1  0  0  0
 42 44  2  0  0  0
  1  2  1  0  0  0
  2  3  2  0  0  0
  2  4  1  0  0  0
  4  5  1  0  0  0
  5  6  1  0  0  0
  6  7  1  0  0  0
  7  8  1  0  0  0
  8  9  1  0  0  0
  7 10  1  0  0  0
 10 11  1  0  0  0
 10 12  2  0  0  0
 10 13  2  0  0  0
 28 23  1  0  0  0
 41 36  1  0  0  0
  9  4  1  0  0  0
 18 20  1  0  0  0
 18 21  1  0  0  0
 30 32  1  0  0  0
 30 33  1  0  0  0
 31 34  1  0  0  0
 16 17  1  0  0  0
 43 45  1  0  0  0
 43 46  1  0  0  0
 44 47  1  0  0  0
M  END
> <minimizedAffinity>
-8.06534

> <CNNscore>
0.2546931207

> <CNNaffinity>
5.6422147751

> <CNN_VS>
1.4370332956

> <CNNaffinity_variance>
0.4239767194

$$$$
[H]N=C(c1c([H])c([H])c([H])c(C([H])([H])[C@@]([H])(C(=O)N([H])[C@]([H])(C(=O)N2C([H])([H])C([H])([H])N(S(=O)(=O)C([H])([H])[H])C([H])([H])C2([H])[H])C([H])([H])c2c([H])c([H])c([H])c(C(=N[H])N([H])[H])c2[H])N([H])[H])c1[H])N([H])[H]


 47 49  0  0  0  0  0  0  0  0999 V2000
   36.3273  -17.2486   36.5545 C   0  0  0  0  0  0  0  0  0  0  0  0
   36.8810  -18.4939   37.1114 C   0  0  0  0  0  0  0  0  0  0  0  0
   36.1931  -19.0079   38.0645 O   0  0  0  0  0  0  0  0  0  0  0  0
   38.0445  -19.1634   36.7239 N   0  0  0  0  0  0  0  0  0  0  0  0
   38.4376  -20.3591   37.4218 C   0  0  0  0  0  0  0  0  0  0  0  0
   39.4340  -21.1862   36.6500 C   0  0  0  0  0  0  0  0  0  0  0  0
   40.4315  -20.4407   35.9643 N   0  0  0  0  0  0  0  0  0  0  0  0
   40.2914  -19.0210   35.9845 C   0  0  0  0  0  0  0  0  0  0  0  0
   38.8467  -18.6990   35.6245 C   0  0  0  0  0  0  0  0  0  0  0  0
   41.0034  -21.1115   34.5132 S   0  0  0  0  0  0  0  0  0  0  0  0
   41.0568  -19.9492   33.1701 C   0  0  0  0  0  0  0  0  0  0  0  0
   40.1087  -22.2332   34.0874 O   0  0  0  0  0  0  0  0  0  0  0  0
   42.3760  -21.6702   34.7494 O   0  0  0  0  0  0  0  0  0  0  0  0
   34.5027  -18.0344   34.9979 C   0  0  0  0  0  0  0  0  0  0  0  0
   35.3148  -18.5510   34.2055 O   0  0  0  0  0  0  0  0  0  0  0  0
   34.9404  -17.3938   36.1460 N   0  0  0  0  0  0  0  0  0  0  0  0
   34.2458  -16.9645   36.8015 H   0  0  0  0  0  0  0  0  0  0  0  0
   32.6009  -17.1201   33.7651 N   0  0  0  0  0  0  0  0  0  0  0  0
   33.0672  -18.1216   34.6843 C   0  0  0  0  0  0  0  0  0  0  0  0
   33.0186  -17.2098   32.8302 H   0  0  0  0  0  0  0  0  0  0  0  0
   32.5978  -16.1758   34.1708 H   0  0  0  0  0  0  0  0  0  0  0  0
   32.7585  -19.5117   34.1110 C   0  0  0  0  0  0  0  0  0  0  0  0
   32.1857  -20.3821   35.1873 C   0  0  0  0  0  0  0  0  0  0  0  0
   33.0387  -20.9313   36.1054 C   0  0  0  0  0  0  0  0  0  0  0  0
   32.4970  -21.7275   37.0874 C   0  0  0  0  0  0  0  0  0  0  0  0
   31.1268  -21.9840   37.1690 C   0  0  0  0  0  0  0  0  0  0  0  0
   30.2644  -21.4403   36.2562 C   0  0  0  0  0  0  0  0  0  0  0  0
   30.8425  -20.6329   35.2661 C   0  0  0  0  0  0  0  0  0  0  0  0
   28.8221  -21.6519   36.2626 C   0  0  0  0  0  0  0  0  0  0  0  0
   28.2272  -22.5912   35.3369 N   0  0  0  0  0  0  0  0  0  0  0  0
   28.0787  -21.0152   37.0779 N   0  0  0  0  0  0  0  0  0  0  0  0
   28.5703  -23.5680   35.3238 H   0  0  0  0  0  0  0  0  0  0  0  0
   27.4695  -22.3074   34.6911 H   0  0  0  0  0  0  0  0  0  0  0  0
   28.4185  -20.3317   37.7663 H   0  0  0  0  0  0  0  0  0  0  0  0
   36.2969  -16.2149   37.6632 C   0  0  0  0  0  0  0  0  0  0  0  0
   35.8836  -14.8781   37.2649 C   0  0  0  0  0  0  0  0  0  0  0  0
   36.6683  -14.1706   36.3652 C   0  0  0  0  0  0  0  0  0  0  0  0
   36.2539  -12.9184   35.9986 C   0  0  0  0  0  0  0  0  0  0  0  0
   35.0979  -12.3582   36.4942 C   0  0  0  0  0  0  0  0  0  0  0  0
   34.3196  -13.0625   37.3880 C   0  0  0  0  0  0  0  0  0  0  0  0
   34.7197  -14.3149   37.7643 C   0  0  0  0  0  0  0  0  0  0  0  0
   33.0842  -12.4897   37.9311 C   0  0  0  0  0  0  0  0  0  0  0  0
   32.8658  -11.1010   37.7952 N   0  0  0  0  0  0  0  0  0  0  0  0
   32.2307  -13.2732   38.5183 N   0  0  0  0  0  0  0  0  0  0  0  0
   33.6333  -10.4179   37.9311 H   0  0  0  0  0  0  0  0  0  0  0  0
   31.9170  -10.7565   37.5542 H   0  0  0  0  0  0  0  0  0  0  0  0
   31.3558  -12.8274   38.8958 H   0  0  0  0  0  0  0  0  0  0  0  0
 18 19  1  0  0  0
 19 22  1  0  0  0
 22 23  1  0  0  0
 23 24  2  0  0  0
 24 25  1  0  0  0
 25 26  2  0  0  0
 26 27  1  0  0  0
 27 28  2  0  0  0
 27 29  1  0  0  0
 29 30  1  0  0  0
 29 31  2  0  0  0
 19 14  1  0  0  0
 14 15  2  0  0  0
 14 16  1  0  0  0
 16  1  1  0  0  0
  1 35  1  0  0  0
 35 36  1  0  0  0
 36 37  2  0  0  0
 37 38  1  0  0  0
 38 39  2  0  0  0
 39 40  1  0  0  0
 40 41  2  0  0  0
 40 42  1  0  0  0
 42 43  1  0  0  0
 42 44  2  0  0  0
  1  2  1  0  0  0
  2  3  2  0  0  0
  2  4  1  0  0  0
  4  5  1  0  0  0
  5  6  1  0  0  0
  6  7  1  0  0  0
  7  8  1  0  0  0
  8  9  1  0  0  0
  7 10  1  0  0  0
 10 11  1  0  0  0
 10 12  2  0  0  0
 10 13  2  0  0  0
 28 23  1  0  0  0
 41 36  1  0  0  0
  9  4  1  0  0  0
 18 20  1  0  0  0
 18 21  1  0  0  0
 30 32  1  0  0  0
 30 33  1  0  0  0
 31 34  1  0  0  0
 16 17  1  0  0  0
 43 45  1  0  0  0
 43 46  1  0  0  0
 44 47  1  0  0  0
M  END
> <minimizedAffinity>
-7.61877

> <CNNscore>
0.2536585331

> <CNNaffinity>
5.7470541000

> <CNN_VS>
1.4577893019

> <CNNaffinity_variance>
0.4534479976

$$$$
[H]N=C(c1c([H])c([H])c([H])c(C([H])([H])[C@@]([H])(C(=O)N([H])[C@]([H])(C(=O)N2C([H])([H])C([H])([H])N(S(=O)(=O)C([H])([H])[H])C([H])([H])C2([H])[H])C([H])([H])c2c([H])c([H])c([H])c(C(=N[H])N([H])[H])c2[H])N([H])[H])c1[H])N([H])[H]


 47 49  0  0  0  0  0  0  0  0999 V2000
   36.3527  -18.7710   36.5346 C   0  0  0  0  0  0  0  0  0  0  0  0
   37.2677  -19.7451   37.1522 C   0  0  0  0  0  0  0  0  0  0  0  0
   36.7149  -20.5443   37.9896 O   0  0  0  0  0  0  0  0  0  0  0  0
   38.6392  -19.8933   36.9303 N   0  0  0  0  0  0  0  0  0  0  0  0
   39.3701  -20.8922   37.6647 C   0  0  0  0  0  0  0  0  0  0  0  0
   40.6997  -21.2240   37.0365 C   0  0  0  0  0  0  0  0  0  0  0  0
   41.4110  -20.1109   36.5110 N   0  0  0  0  0  0  0  0  0  0  0  0
   40.7314  -18.8565   36.5263 C   0  0  0  0  0  0  0  0  0  0  0  0
   39.3345  -19.0866   35.9641 C   0  0  0  0  0  0  0  0  0  0  0  0
   42.3806  -20.4156   35.1509 S   0  0  0  0  0  0  0  0  0  0  0  0
   43.9870  -21.0571   35.5577 C   0  0  0  0  0  0  0  0  0  0  0  0
   42.5955  -19.1457   34.3883 O   0  0  0  0  0  0  0  0  0  0  0  0
   41.6641  -21.3843   34.2564 O   0  0  0  0  0  0  0  0  0  0  0  0
   34.5908  -19.4198   34.8480 C   0  0  0  0  0  0  0  0  0  0  0  0
   35.2287  -18.9252   33.8979 O   0  0  0  0  0  0  0  0  0  0  0  0
   35.0897  -19.3714   36.1398 N   0  0  0  0  0  0  0  0  0  0  0  0
   34.5418  -19.7910   36.9273 H   0  0  0  0  0  0  0  0  0  0  0  0
   33.2095  -20.6722   33.2681 N   0  0  0  0  0  0  0  0  0  0  0  0
   33.2947  -20.0568   34.5641 C   0  0  0  0  0  0  0  0  0  0  0  0
   33.8537  -21.4658   33.1592 H   0  0  0  0  0  0  0  0  0  0  0  0
   33.1999  -19.9885   32.5009 H   0  0  0  0  0  0  0  0  0  0  0  0
   33.0030  -21.1114   35.6407 C   0  0  0  0  0  0  0  0  0  0  0  0
   31.5472  -21.4637   35.6160 C   0  0  0  0  0  0  0  0  0  0  0  0
   30.6295  -20.4496   35.6562 C   0  0  0  0  0  0  0  0  0  0  0  0
   29.2971  -20.7897   35.6323 C   0  0  0  0  0  0  0  0  0  0  0  0
   28.8665  -22.1165   35.5696 C   0  0  0  0  0  0  0  0  0  0  0  0
   29.7752  -23.1389   35.5291 C   0  0  0  0  0  0  0  0  0  0  0  0
   31.1264  -22.7647   35.5546 C   0  0  0  0  0  0  0  0  0  0  0  0
   29.4193  -24.5510   35.4628 C   0  0  0  0  0  0  0  0  0  0  0  0
   28.3227  -24.9794   34.6220 N   0  0  0  0  0  0  0  0  0  0  0  0
   30.0669  -25.4136   36.1406 N   0  0  0  0  0  0  0  0  0  0  0  0
   28.3347  -24.7311   33.6169 H   0  0  0  0  0  0  0  0  0  0  0  0
   27.5308  -25.5262   35.0034 H   0  0  0  0  0  0  0  0  0  0  0  0
   30.8567  -25.1954   36.7613 H   0  0  0  0  0  0  0  0  0  0  0  0
   35.9806  -17.7471   37.5890 C   0  0  0  0  0  0  0  0  0  0  0  0
   35.9516  -16.3638   37.1391 C   0  0  0  0  0  0  0  0  0  0  0  0
   34.8772  -15.9255   36.3781 C   0  0  0  0  0  0  0  0  0  0  0  0
   34.8679  -14.6175   35.9744 C   0  0  0  0  0  0  0  0  0  0  0  0
   35.8822  -13.7458   36.3015 C   0  0  0  0  0  0  0  0  0  0  0  0
   36.9489  -14.1830   37.0576 C   0  0  0  0  0  0  0  0  0  0  0  0
   36.9731  -15.4869   37.4688 C   0  0  0  0  0  0  0  0  0  0  0  0
   38.0422  -13.2759   37.4199 C   0  0  0  0  0  0  0  0  0  0  0  0
   38.3944  -12.2473   36.5184 N   0  0  0  0  0  0  0  0  0  0  0  0
   38.6515  -13.4442   38.5546 N   0  0  0  0  0  0  0  0  0  0  0  0
   38.4296  -12.4140   35.4961 H   0  0  0  0  0  0  0  0  0  0  0  0
   38.6229  -11.3044   36.8868 H   0  0  0  0  0  0  0  0  0  0  0  0
   39.4307  -12.7748   38.7811 H   0  0  0  0  0  0  0  0  0  0  0  0
 18 19  1  0  0  0
 19 22  1  0  0  0
 22 23  1  0  0  0
 23 24  2  0  0  0
 24 25  1  0  0  0
 25 26  2  0  0  0
 26 27  1  0  0  0
 27 28  2  0  0  0
 27 29  1  0  0  0
 29 30  1  0  0  0
 29 31  2  0  0  0
 19 14  1  0  0  0
 14 15  2  0  0  0
 14 16  1  0  0  0
 16  1  1  0  0  0
  1 35  1  0  0  0
 35 36  1  0  0  0
 36 37  2  0  0  0
 37 38  1  0  0  0
 38 39  2  0  0  0
 39 40  1  0  0  0
 40 41  2  0  0  0
 40 42  1  0  0  0
 42 43  1  0  0  0
 42 44  2  0  0  0
  1  2  1  0  0  0
  2  3  2  0  0  0
  2  4  1  0  0  0
  4  5  1  0  0  0
  5  6  1  0  0  0
  6  7  1  0  0  0
  7  8  1  0  0  0
  8  9  1  0  0  0
  7 10  1  0  0  0
 10 11  1  0  0  0
 10 12  2  0  0  0
 10 13  2  0  0  0
 28 23  1  0  0  0
 41 36  1  0  0  0
  9  4  1  0  0  0
 18 20  1  0  0  0
 18 21  1  0  0  0
 30 32  1  0  0  0
 30 33  1  0  0  0
 31 34  1  0  0  0
 16 17  1  0  0  0
 43 45  1  0  0  0
 43 46  1  0  0  0
 44 47  1  0  0  0
M  END
> <minimizedAffinity>
-7.13016

> <CNNscore>
0.2527324855

> <CNNaffinity>
5.3728504181

> <CNN_VS>
1.3578938246

> <CNNaffinity_variance>
0.6467849612

$$$$
[H]N=C(c1c([H])c([H])c([H])c(C([H])([H])[C@@]([H])(C(=O)N([H])[C@]([H])(C(=O)N2C([H])([H])C([H])([H])N(S(=O)(=O)C([H])([H])[H])C([H])([H])C2([H])[H])C([H])([H])c2c([H])c([H])c([H])c(C(=N[H])N([H])[H])c2[H])N([H])[H])c1[H])N([H])[H]


 47 49  0  0  0  0  0  0  0  0999 V2000
   35.0663  -18.4715   35.4383 C   0  0  0  0  0  0  0  0  0  0  0  0
   34.3488  -19.4637   34.6208 C   0  0  0  0  0  0  0  0  0  0  0  0
   34.9414  -19.7902   33.5308 O   0  0  0  0  0  0  0  0  0  0  0  0
   33.1237  -20.0765   34.8958 N   0  0  0  0  0  0  0  0  0  0  0  0
   32.5676  -21.0029   33.9450 C   0  0  0  0  0  0  0  0  0  0  0  0
   31.5000  -21.8838   34.5421 C   0  0  0  0  0  0  0  0  0  0  0  0
   30.6210  -21.2323   35.4499 N   0  0  0  0  0  0  0  0  0  0  0  0
   30.9330  -19.8792   35.7776 C   0  0  0  0  0  0  0  0  0  0  0  0
   32.4159  -19.8224   36.1214 C   0  0  0  0  0  0  0  0  0  0  0  0
   30.0129  -22.1838   36.7177 S   0  0  0  0  0  0  0  0  0  0  0  0
   28.9496  -23.4972   36.1682 C   0  0  0  0  0  0  0  0  0  0  0  0
   29.2110  -21.3311   37.6504 O   0  0  0  0  0  0  0  0  0  0  0  0
   31.1677  -22.7593   37.4841 O   0  0  0  0  0  0  0  0  0  0  0  0
   37.0820  -19.7166   36.3081 C   0  0  0  0  0  0  0  0  0  0  0  0
   36.3903  -20.4522   37.0392 O   0  0  0  0  0  0  0  0  0  0  0  0
   36.4913  -18.7450   35.5162 N   0  0  0  0  0  0  0  0  0  0  0  0
   37.0859  -18.1347   34.9076 H   0  0  0  0  0  0  0  0  0  0  0  0
   39.1150  -20.0691   34.9985 N   0  0  0  0  0  0  0  0  0  0  0  0
   38.5417  -19.9055   36.3061 C   0  0  0  0  0  0  0  0  0  0  0  0
   39.0182  -19.2307   34.4117 H   0  0  0  0  0  0  0  0  0  0  0  0
   38.8584  -20.9617   34.5584 H   0  0  0  0  0  0  0  0  0  0  0  0
   39.2073  -18.7088   36.9999 C   0  0  0  0  0  0  0  0  0  0  0  0
   40.6962  -18.8266   36.8841 C   0  0  0  0  0  0  0  0  0  0  0  0
   41.3333  -19.7916   37.6155 C   0  0  0  0  0  0  0  0  0  0  0  0
   42.7003  -19.8870   37.4976 C   0  0  0  0  0  0  0  0  0  0  0  0
   43.4387  -19.0411   36.6675 C   0  0  0  0  0  0  0  0  0  0  0  0
   42.8122  -18.0723   35.9315 C   0  0  0  0  0  0  0  0  0  0  0  0
   41.4188  -17.9967   36.0701 C   0  0  0  0  0  0  0  0  0  0  0  0
   43.4993  -17.1460   35.0400 C   0  0  0  0  0  0  0  0  0  0  0  0
   44.2927  -17.6560   33.9429 N   0  0  0  0  0  0  0  0  0  0  0  0
   43.4074  -15.8881   35.2188 N   0  0  0  0  0  0  0  0  0  0  0  0
   43.8510  -18.2968   33.2600 H   0  0  0  0  0  0  0  0  0  0  0  0
   45.2876  -17.3942   33.8279 H   0  0  0  0  0  0  0  0  0  0  0  0
   42.8666  -15.4432   35.9713 H   0  0  0  0  0  0  0  0  0  0  0  0
   34.9682  -17.1309   34.7372 C   0  0  0  0  0  0  0  0  0  0  0  0
   34.9623  -15.9653   35.6078 C   0  0  0  0  0  0  0  0  0  0  0  0
   33.7524  -15.3568   35.9104 C   0  0  0  0  0  0  0  0  0  0  0  0
   33.7715  -14.2672   36.7390 C   0  0  0  0  0  0  0  0  0  0  0  0
   34.9429  -13.7730   37.2675 C   0  0  0  0  0  0  0  0  0  0  0  0
   36.1441  -14.3788   36.9658 C   0  0  0  0  0  0  0  0  0  0  0  0
   36.1420  -15.4684   36.1395 C   0  0  0  0  0  0  0  0  0  0  0  0
   37.4059  -13.8730   37.5148 C   0  0  0  0  0  0  0  0  0  0  0  0
   37.7853  -14.2713   38.8156 N   0  0  0  0  0  0  0  0  0  0  0  0
   38.1344  -13.0774   36.7914 N   0  0  0  0  0  0  0  0  0  0  0  0
   37.0931  -14.3342   39.5845 H   0  0  0  0  0  0  0  0  0  0  0  0
   38.7780  -14.5061   39.0063 H   0  0  0  0  0  0  0  0  0  0  0  0
   39.0329  -12.7344   37.2177 H   0  0  0  0  0  0  0  0  0  0  0  0
 18 19  1  0  0  0
 19 22  1  0  0  0
 22 23  1  0  0  0
 23 24  2  0  0  0
 24 25  1  0  0  0
 25 26  2  0  0  0
 26 27  1  0  0  0
 27 28  2  0  0  0
 27 29  1  0  0  0
 29 30  1  0  0  0
 29 31  2  0  0  0
 19 14  1  0  0  0
 14 15  2  0  0  0
 14 16  1  0  0  0
 16  1  1  0  0  0
  1 35  1  0  0  0
 35 36  1  0  0  0
 36 37  2  0  0  0
 37 38  1  0  0  0
 38 39  2  0  0  0
 39 40  1  0  0  0
 40 41  2  0  0  0
 40 42  1  0  0  0
 42 43  1  0  0  0
 42 44  2  0  0  0
  1  2  1  0  0  0
  2  3  2  0  0  0
  2  4  1  0  0  0
  4  5  1  0  0  0
  5  6  1  0  0  0
  6  7  1  0  0  0
  7  8  1  0  0  0
  8  9  1  0  0  0
  7 10  1  0  0  0
 10 11  1  0  0  0
 10 12  2  0  0  0
 10 13  2  0  0  0
 28 23  1  0  0  0
 41 36  1  0  0  0
  9  4  1  0  0  0
 18 20  1  0  0  0
 18 21  1  0  0  0
 30 32  1  0  0  0
 30 33  1  0  0  0
 31 34  1  0  0  0
 16 17  1  0  0  0
 43 45  1  0  0  0
 43 46  1  0  0  0
 44 47  1  0  0  0
M  END
> <minimizedAffinity>
-7.04464

> <CNNscore>
0.2425592393

> <CNNaffinity>
5.5478334427

> <CNN_VS>
1.3456782103

> <CNNaffinity_variance>
0.7236841321

$$$$
[H]c1nc(C([H])([H])N(C(=O)c2c([H])c([H])c(C([H])([H])[H])c([H])c2[H])C2([H])C([H])([H])C([H])([H])C([H])(N([H])[H])C([H])([H])C2([H])[H])c2c([H])c([H])c(OC([H])([H])C([H])([H])N3C([H])([H])C([H])([H])OC([H])([H])C3([H])[H])c([H])c2n1


 39 43  0  0  0  0  0  0  0  0999 V2000
   37.3304  -17.9804   36.6651 C   0  0  0  0  0  0  0  0  0  0  0  0
   36.0397  -17.5572   36.1275 C   0  0  0  0  0  0  0  0  0  0  0  0
   35.2544  -18.2584   35.3274 N   0  0  0  0  0  0  0  0  0  0  0  0
   34.1039  -17.7587   34.8692 C   0  0  0  0  0  0  0  0  0  0  0  0
   33.6927  -16.5250   35.1988 N   0  0  0  0  0  0  0  0  0  0  0  0
   34.4523  -15.7541   36.0162 C   0  0  0  0  0  0  0  0  0  0  0  0
   34.0292  -14.4866   36.3554 C   0  0  0  0  0  0  0  0  0  0  0  0
   34.7797  -13.6894   37.1797 C   0  0  0  0  0  0  0  0  0  0  0  0
   35.9990  -14.2076   37.6711 C   0  0  0  0  0  0  0  0  0  0  0  0
   36.3848  -15.4734   37.3107 C   0  0  0  0  0  0  0  0  0  0  0  0
   35.6234  -16.2720   36.4782 C   0  0  0  0  0  0  0  0  0  0  0  0
   34.4497  -12.4221   37.5697 O   0  0  0  0  0  0  0  0  0  0  0  0
   33.2539  -11.7810   37.7823 C   0  0  0  0  0  0  0  0  0  0  0  0
   32.3875  -12.5083   38.7821 C   0  0  0  0  0  0  0  0  0  0  0  0
   31.0079  -12.4408   38.4873 N   0  0  0  0  0  0  0  0  0  0  0  0
   30.5807  -11.6534   37.4207 C   0  0  0  0  0  0  0  0  0  0  0  0
   29.3979  -10.7920   37.8866 C   0  0  0  0  0  0  0  0  0  0  0  0
   28.4135  -11.7180   38.2749 O   0  0  0  0  0  0  0  0  0  0  0  0
   28.7470  -12.3754   39.4497 C   0  0  0  0  0  0  0  0  0  0  0  0
   30.1304  -12.9730   39.4278 C   0  0  0  0  0  0  0  0  0  0  0  0
   37.5107  -19.4666   36.6551 N   0  0  0  0  0  0  0  0  0  0  0  0
   36.6625  -20.1464   37.5203 C   0  0  0  0  0  0  0  0  0  0  0  0
   35.9691  -19.3462   38.2986 O   0  0  0  0  0  0  0  0  0  0  0  0
   40.2887  -19.5107   33.3677 C   0  0  0  0  0  0  0  0  0  0  0  0
   41.1516  -18.4138   32.9870 N   0  0  0  0  0  0  0  0  0  0  0  0
   38.8721  -18.9690   33.4452 C   0  0  0  0  0  0  0  0  0  0  0  0
   37.9824  -19.8179   34.2837 C   0  0  0  0  0  0  0  0  0  0  0  0
   38.4807  -19.9974   35.7246 C   0  0  0  0  0  0  0  0  0  0  0  0
   39.8374  -19.3184   35.7883 C   0  0  0  0  0  0  0  0  0  0  0  0
   40.6913  -20.0466   34.7250 C   0  0  0  0  0  0  0  0  0  0  0  0
   40.7896  -17.5552   33.5015 H   0  0  0  0  0  0  0  0  0  0  0  0
   40.9609  -18.2062   31.9665 H   0  0  0  0  0  0  0  0  0  0  0  0
   36.3789  -21.5426   37.7509 C   0  0  0  0  0  0  0  0  0  0  0  0
   35.2649  -22.2330   37.3521 C   0  0  0  0  0  0  0  0  0  0  0  0
   35.1291  -23.6047   37.5612 C   0  0  0  0  0  0  0  0  0  0  0  0
   36.1001  -24.3448   38.1795 C   0  0  0  0  0  0  0  0  0  0  0  0
   35.9067  -25.8057   38.3772 C   0  0  0  0  0  0  0  0  0  0  0  0
   37.2203  -23.6801   38.5889 C   0  0  0  0  0  0  0  0  0  0  0  0
   37.3546  -22.3467   38.3859 C   0  0  0  0  0  0  0  0  0  0  0  0
 24 25  1  0  0  0
 24 26  1  0  0  0
 26 27  1  0  0  0
 27 28  1  0  0  0
 28 21  1  0  0  0
 21 22  1  0  0  0
 22 23  2  0  0  0
 22 33  1  0  0  0
 33 34  2  0  0  0
 34 35  1  0  0  0
 35 36  2  0  0  0
 36 37  1  0  0  0
 36 38  1  0  0  0
 38 39  2  0  0  0
 21  1  1  0  0  0
  1  2  1  0  0  0
  2  3  2  0  0  0
  3  4  1  0  0  0
  4  5  2  0  0  0
  5  6  1  0  0  0
  6  7  2  0  0  0
  7  8  1  0  0  0
  8 12  1  0  0  0
 12 13  1  0  0  0
 13 14  1  0  0  0
 14 15  1  0  0  0
 15 16  1  0  0  0
 16 17  1  0  0  0
 17 18  1  0  0  0
 18 19  1  0  0  0
 19 20  1  0  0  0
  8  9  2  0  0  0
  9 10  1  0  0  0
 10 11  2  0  0  0
 28 29  1  0  0  0
 29 30  1  0  0  0
 30 24  1  0  0  0
 39 33  1  0  0  0
 11  2  1  0  0  0
 11  6  1  0  0  0
 20 15  1  0  0  0
 25 31  1  0  0  0
 25 32  1  0  0  0
M  END
> <minimizedAffinity>
-8.05147

> <CNNscore>
0.5413149595

> <CNNaffinity>
6.4133710861

> <CNN_VS>
3.4716536999

> <CNNaffinity_variance>
0.2000502050

$$$$
[H]c1nc(C([H])([H])N(C(=O)c2c([H])c([H])c(C([H])([H])[H])c([H])c2[H])C2([H])C([H])([H])C([H])([H])C([H])(N([H])[H])C([H])([H])C2([H])[H])c2c([H])c([H])c(OC([H])([H])C([H])([H])N3C([H])([H])C([H])([H])OC([H])([H])C3([H])[H])c([H])c2n1


 39 43  0  0  0  0  0  0  0  0999 V2000
   35.5511  -17.1127   35.9612 C   0  0  0  0  0  0  0  0  0  0  0  0
   36.0875  -15.9066   36.5871 C   0  0  0  0  0  0  0  0  0  0  0  0
   37.3173  -15.7393   37.0433 N   0  0  0  0  0  0  0  0  0  0  0  0
   37.6932  -14.5992   37.6280 C   0  0  0  0  0  0  0  0  0  0  0  0
   36.8424  -13.5730   37.7791 N   0  0  0  0  0  0  0  0  0  0  0  0
   35.5662  -13.6805   37.3326 C   0  0  0  0  0  0  0  0  0  0  0  0
   34.6922  -12.6256   37.4873 C   0  0  0  0  0  0  0  0  0  0  0  0
   33.3981  -12.7109   37.0441 C   0  0  0  0  0  0  0  0  0  0  0  0
   32.9889  -13.9126   36.4234 C   0  0  0  0  0  0  0  0  0  0  0  0
   33.8886  -14.9389   36.2881 C   0  0  0  0  0  0  0  0  0  0  0  0
   35.1923  -14.8466   36.7380 C   0  0  0  0  0  0  0  0  0  0  0  0
   32.4578  -11.7257   37.1541 O   0  0  0  0  0  0  0  0  0  0  0  0
   31.0849  -11.7307   37.1903 C   0  0  0  0  0  0  0  0  0  0  0  0
   30.5201  -10.3839   37.5730 C   0  0  0  0  0  0  0  0  0  0  0  0
   29.2682  -10.4611   38.2222 N   0  0  0  0  0  0  0  0  0  0  0  0
   28.8820   -9.4291   39.0742 C   0  0  0  0  0  0  0  0  0  0  0  0
   28.3578  -10.0397   40.3821 C   0  0  0  0  0  0  0  0  0  0  0  0
   27.2612  -10.8291   39.9928 O   0  0  0  0  0  0  0  0  0  0  0  0
   27.6532  -11.9664   39.3027 C   0  0  0  0  0  0  0  0  0  0  0  0
   28.5955  -11.6784   38.1624 C   0  0  0  0  0  0  0  0  0  0  0  0
   36.4234  -18.3133   36.1589 N   0  0  0  0  0  0  0  0  0  0  0  0
   35.9760  -19.1827   37.1459 C   0  0  0  0  0  0  0  0  0  0  0  0
   34.9564  -18.7102   37.8270 O   0  0  0  0  0  0  0  0  0  0  0  0
   39.7604  -20.1842   34.1865 C   0  0  0  0  0  0  0  0  0  0  0  0
   39.8181  -21.5691   33.7725 N   0  0  0  0  0  0  0  0  0  0  0  0
   39.3771  -20.1645   35.6558 C   0  0  0  0  0  0  0  0  0  0  0  0
   38.8039  -18.8574   36.0779 C   0  0  0  0  0  0  0  0  0  0  0  0
   37.5614  -18.4421   35.2776 C   0  0  0  0  0  0  0  0  0  0  0  0
   37.3900  -19.4905   34.1925 C   0  0  0  0  0  0  0  0  0  0  0  0
   38.7094  -19.4427   33.3883 C   0  0  0  0  0  0  0  0  0  0  0  0
   39.0111  -22.0620   34.2612 H   0  0  0  0  0  0  0  0  0  0  0  0
   40.6850  -21.9902   34.2109 H   0  0  0  0  0  0  0  0  0  0  0  0
   36.3901  -20.4932   37.5866 C   0  0  0  0  0  0  0  0  0  0  0  0
   36.1670  -21.6848   36.9486 C   0  0  0  0  0  0  0  0  0  0  0  0
   36.6821  -22.8889   37.4266 C   0  0  0  0  0  0  0  0  0  0  0  0
   37.4407  -22.9539   38.5638 C   0  0  0  0  0  0  0  0  0  0  0  0
   37.9675  -24.2636   39.0306 C   0  0  0  0  0  0  0  0  0  0  0  0
   37.6763  -21.7801   39.2202 C   0  0  0  0  0  0  0  0  0  0  0  0
   37.1771  -20.6083   38.7568 C   0  0  0  0  0  0  0  0  0  0  0  0
 24 25  1  0  0  0
 24 26  1  0  0  0
 26 27  1  0  0  0
 27 28  1  0  0  0
 28 21  1  0  0  0
 21 22  1  0  0  0
 22 23  2  0  0  0
 22 33  1  0  0  0
 33 34  2  0  0  0
 34 35  1  0  0  0
 35 36  2  0  0  0
 36 37  1  0  0  0
 36 38  1  0  0  0
 38 39  2  0  0  0
 21  1  1  0  0  0
  1  2  1  0  0  0
  2  3  2  0  0  0
  3  4  1  0  0  0
  4  5  2  0  0  0
  5  6  1  0  0  0
  6  7  2  0  0  0
  7  8  1  0  0  0
  8 12  1  0  0  0
 12 13  1  0  0  0
 13 14  1  0  0  0
 14 15  1  0  0  0
 15 16  1  0  0  0
 16 17  1  0  0  0
 17 18  1  0  0  0
 18 19  1  0  0  0
 19 20  1  0  0  0
  8  9  2  0  0  0
  9 10  1  0  0  0
 10 11  2  0  0  0
 28 29  1  0  0  0
 29 30  1  0  0  0
 30 24  1  0  0  0
 39 33  1  0  0  0
 11  2  1  0  0  0
 11  6  1  0  0  0
 20 15  1  0  0  0
 25 31  1  0  0  0
 25 32  1  0  0  0
M  END
> <minimizedAffinity>
-7.24399

> <CNNscore>
0.3891293705

> <CNNaffinity>
6.3986749649

> <CNN_VS>
2.4899122715

> <CNNaffinity_variance>
0.1291091442

$$$$
[H]c1nc(C([H])([H])N(C(=O)c2c([H])c([H])c(C([H])([H])[H])c([H])c2[H])C2([H])C([H])([H])C([H])([H])C([H])(N([H])[H])C([H])([H])C2([H])[H])c2c([H])c([H])c(OC([H])([H])C([H])([H])N3C([H])([H])C([H])([H])OC([H])([H])C3([H])[H])c([H])c2n1


 39 43  0  0  0  0  0  0  0  0999 V2000
   38.0348  -18.6346   36.5622 C   0  0  0  0  0  0  0  0  0  0  0  0
   36.6242  -18.7374   36.1966 C   0  0  0  0  0  0  0  0  0  0  0  0
   35.9642  -19.8490   35.9183 N   0  0  0  0  0  0  0  0  0  0  0  0
   34.6770  -19.8234   35.5641 C   0  0  0  0  0  0  0  0  0  0  0  0
   33.9954  -18.6714   35.4746 N   0  0  0  0  0  0  0  0  0  0  0  0
   34.6144  -17.4958   35.7472 C   0  0  0  0  0  0  0  0  0  0  0  0
   33.9136  -16.3120   35.6558 C   0  0  0  0  0  0  0  0  0  0  0  0
   34.5177  -15.1120   35.9265 C   0  0  0  0  0  0  0  0  0  0  0  0
   35.8796  -15.1265   36.3027 C   0  0  0  0  0  0  0  0  0  0  0  0
   36.5417  -16.3250   36.3824 C   0  0  0  0  0  0  0  0  0  0  0  0
   35.9267  -17.5318   36.1073 C   0  0  0  0  0  0  0  0  0  0  0  0
   33.9120  -13.8889   35.8607 O   0  0  0  0  0  0  0  0  0  0  0  0
   32.9985  -13.2436   36.6577 C   0  0  0  0  0  0  0  0  0  0  0  0
   33.6439  -12.1924   37.5282 C   0  0  0  0  0  0  0  0  0  0  0  0
   32.7999  -11.0947   37.8066 N   0  0  0  0  0  0  0  0  0  0  0  0
   31.4543  -11.3272   38.0809 C   0  0  0  0  0  0  0  0  0  0  0  0
   30.6063  -10.3539   37.2492 C   0  0  0  0  0  0  0  0  0  0  0  0
   31.0095   -9.0759   37.6752 O   0  0  0  0  0  0  0  0  0  0  0  0
   32.2878   -8.7581   37.2411 C   0  0  0  0  0  0  0  0  0  0  0  0
   33.3071   -9.8232   37.5540 C   0  0  0  0  0  0  0  0  0  0  0  0
   38.7218  -19.9633   36.6275 N   0  0  0  0  0  0  0  0  0  0  0  0
   38.5890  -20.6106   37.8497 C   0  0  0  0  0  0  0  0  0  0  0  0
   38.0172  -19.8660   38.7692 O   0  0  0  0  0  0  0  0  0  0  0  0
   41.3035  -22.3306   34.1263 C   0  0  0  0  0  0  0  0  0  0  0  0
   41.5721  -23.7415   34.2994 N   0  0  0  0  0  0  0  0  0  0  0  0
   41.5831  -21.6482   35.4538 C   0  0  0  0  0  0  0  0  0  0  0  0
   40.8953  -20.3340   35.5751 C   0  0  0  0  0  0  0  0  0  0  0  0
   39.3704  -20.4197   35.4196 C   0  0  0  0  0  0  0  0  0  0  0  0
   39.0648  -21.8627   35.0587 C   0  0  0  0  0  0  0  0  0  0  0  0
   39.8523  -22.1161   33.7527 C   0  0  0  0  0  0  0  0  0  0  0  0
   41.2204  -23.9965   35.2712 H   0  0  0  0  0  0  0  0  0  0  0  0
   42.6229  -23.8536   34.3644 H   0  0  0  0  0  0  0  0  0  0  0  0
   38.9451  -21.9245   38.3291 C   0  0  0  0  0  0  0  0  0  0  0  0
   40.1755  -22.3339   38.7711 C   0  0  0  0  0  0  0  0  0  0  0  0
   40.3897  -23.6108   39.2881 C   0  0  0  0  0  0  0  0  0  0  0  0
   39.3839  -24.5339   39.3838 C   0  0  0  0  0  0  0  0  0  0  0  0
   39.6647  -25.8822   39.9440 C   0  0  0  0  0  0  0  0  0  0  0  0
   38.1477  -24.1516   38.9479 C   0  0  0  0  0  0  0  0  0  0  0  0
   37.9370  -22.9105   38.4457 C   0  0  0  0  0  0  0  0  0  0  0  0
 24 25  1  0  0  0
 24 26  1  0  0  0
 26 27  1  0  0  0
 27 28  1  0  0  0
 28 21  1  0  0  0
 21 22  1  0  0  0
 22 23  2  0  0  0
 22 33  1  0  0  0
 33 34  2  0  0  0
 34 35  1  0  0  0
 35 36  2  0  0  0
 36 37  1  0  0  0
 36 38  1  0  0  0
 38 39  2  0  0  0
 21  1  1  0  0  0
  1  2  1  0  0  0
  2  3  2  0  0  0
  3  4  1  0  0  0
  4  5  2  0  0  0
  5  6  1  0  0  0
  6  7  2  0  0  0
  7  8  1  0  0  0
  8 12  1  0  0  0
 12 13  1  0  0  0
 13 14  1  0  0  0
 14 15  1  0  0  0
 15 16  1  0  0  0
 16 17  1  0  0  0
 17 18  1  0  0  0
 18 19  1  0  0  0
 19 20  1  0  0  0
  8  9  2  0  0  0
  9 10  1  0  0  0
 10 11  2  0  0  0
 28 29  1  0  0  0
 29 30  1  0  0  0
 30 24  1  0  0  0
 39 33  1  0  0  0
 11  2  1  0  0  0
 11  6  1  0  0  0
 20 15  1  0  0  0
 25 31  1  0  0  0
 25 32  1  0  0  0
M  END
> <minimizedAffinity>
-5.59413

> <CNNscore>
0.3222041428

> <CNNaffinity>
5.8495264053

> <CNN_VS>
1.8847416639

> <CNNaffinity_variance>
0.3700856864

$$$$
[H]c1nc(C([H])([H])N(C(=O)c2c([H])c([H])c(C([H])([H])[H])c([H])c2[H])C2([H])C([H])([H])C([H])([H])C([H])(N([H])[H])C([H])([H])C2([H])[H])c2c([H])c([H])c(OC([H])([H])C([H])([H])N3C([H])([H])C([H])([H])OC([H])([H])C3([H])[H])c([H])c2n1


 39 43  0  0  0  0  0  0  0  0999 V2000
   37.6710  -18.0214   36.8806 C   0  0  0  0  0  0  0  0  0  0  0  0
   36.3726  -17.8432   36.2352 C   0  0  0  0  0  0  0  0  0  0  0  0
   35.7755  -18.6989   35.4229 N   0  0  0  0  0  0  0  0  0  0  0  0
   34.5966  -18.4186   34.8620 C   0  0  0  0  0  0  0  0  0  0  0  0
   33.9649  -17.2585   35.0961 N   0  0  0  0  0  0  0  0  0  0  0  0
   34.5240  -16.3377   35.9202 C   0  0  0  0  0  0  0  0  0  0  0  0
   33.8743  -15.1458   36.1614 C   0  0  0  0  0  0  0  0  0  0  0  0
   34.4196  -14.2004   36.9903 C   0  0  0  0  0  0  0  0  0  0  0  0
   35.6668  -14.4860   37.5900 C   0  0  0  0  0  0  0  0  0  0  0  0
   36.2810  -15.6833   37.3250 C   0  0  0  0  0  0  0  0  0  0  0  0
   35.7259  -16.6323   36.4874 C   0  0  0  0  0  0  0  0  0  0  0  0
   33.8577  -12.9910   37.2884 O   0  0  0  0  0  0  0  0  0  0  0  0
   32.9675  -12.5743   38.2475 C   0  0  0  0  0  0  0  0  0  0  0  0
   31.9622  -11.5888   37.7021 C   0  0  0  0  0  0  0  0  0  0  0  0
   32.4680  -10.2757   37.5815 N   0  0  0  0  0  0  0  0  0  0  0  0
   31.5766   -9.2195   37.4086 C   0  0  0  0  0  0  0  0  0  0  0  0
   32.0769   -8.3356   36.2568 C   0  0  0  0  0  0  0  0  0  0  0  0
   33.3409   -7.8845   36.6765 O   0  0  0  0  0  0  0  0  0  0  0  0
   34.2877   -8.8979   36.6693 C   0  0  0  0  0  0  0  0  0  0  0  0
   33.8413  -10.1379   37.4002 C   0  0  0  0  0  0  0  0  0  0  0  0
   38.4388  -19.1878   36.3407 N   0  0  0  0  0  0  0  0  0  0  0  0
   38.3274  -20.3426   37.1052 C   0  0  0  0  0  0  0  0  0  0  0  0
   37.6953  -20.1510   38.2413 O   0  0  0  0  0  0  0  0  0  0  0  0
   41.0493  -20.0607   33.0318 C   0  0  0  0  0  0  0  0  0  0  0  0
   41.2433  -21.3671   32.4414 N   0  0  0  0  0  0  0  0  0  0  0  0
   41.2832  -20.1977   34.5260 C   0  0  0  0  0  0  0  0  0  0  0  0
   40.6498  -19.0991   35.3051 C   0  0  0  0  0  0  0  0  0  0  0  0
   39.1340  -18.9855   35.0901 C   0  0  0  0  0  0  0  0  0  0  0  0
   38.7845  -19.9995   34.0151 C   0  0  0  0  0  0  0  0  0  0  0  0
   39.6329  -19.5831   32.7917 C   0  0  0  0  0  0  0  0  0  0  0  0
   40.8256  -22.0693   33.1236 H   0  0  0  0  0  0  0  0  0  0  0  0
   42.2825  -21.5684   32.4634 H   0  0  0  0  0  0  0  0  0  0  0  0
   38.7574  -21.7081   36.9223 C   0  0  0  0  0  0  0  0  0  0  0  0
   38.0623  -22.7143   36.3050 C   0  0  0  0  0  0  0  0  0  0  0  0
   38.6083  -23.9828   36.1139 C   0  0  0  0  0  0  0  0  0  0  0  0
   39.8717  -24.3005   36.5331 C   0  0  0  0  0  0  0  0  0  0  0  0
   40.4077  -25.6683   36.3039 C   0  0  0  0  0  0  0  0  0  0  0  0
   40.5854  -23.3156   37.1536 C   0  0  0  0  0  0  0  0  0  0  0  0
   40.0568  -22.0815   37.3397 C   0  0  0  0  0  0  0  0  0  0  0  0
 24 25  1  0  0  0
 24 26  1  0  0  0
 26 27  1  0  0  0
 27 28  1  0  0  0
 28 21  1  0  0  0
 21 22  1  0  0  0
 22 23  2  0  0  0
 22 33  1  0  0  0
 33 34  2  0  0  0
 34 35  1  0  0  0
 35 36  2  0  0  0
 36 37  1  0  0  0
 36 38  1  0  0  0
 38 39  2  0  0  0
 21  1  1  0  0  0
  1  2  1  0  0  0
  2  3  2  0  0  0
  3  4  1  0  0  0
  4  5  2  0  0  0
  5  6  1  0  0  0
  6  7  2  0  0  0
  7  8  1  0  0  0
  8 12  1  0  0  0
 12 13  1  0  0  0
 13 14  1  0  0  0
 14 15  1  0  0  0
 15 16  1  0  0  0
 16 17  1  0  0  0
 17 18  1  0  0  0
 18 19  1  0  0  0
 19 20  1  0  0  0
  8  9  2  0  0  0
  9 10  1  0  0  0
 10 11  2  0  0  0
 28 29  1  0  0  0
 29 30  1  0  0  0
 30 24  1  0  0  0
 39 33  1  0  0  0
 11  2  1  0  0  0
 11  6  1  0  0  0
 20 15  1  0  0  0
 25 31  1  0  0  0
 25 32  1  0  0  0
M  END
> <minimizedAffinity>
-7.29596

> <CNNscore>
0.3192628324

> <CNNaffinity>
6.1039919853

> <CNN_VS>
1.9487777948

> <CNNaffinity_variance>
0.1213392243

$$$$
[H]c1nc(C([H])([H])N(C(=O)c2c([H])c([H])c(C([H])([H])[H])c([H])c2[H])C2([H])C([H])([H])C([H])([H])C([H])(N([H])[H])C([H])([H])C2([H])[H])c2c([H])c([H])c(OC([H])([H])C([H])([H])N3C([H])([H])C([H])([H])OC([H])([H])C3([H])[H])c([H])c2n1


 39 43  0  0  0  0  0  0  0  0999 V2000
   37.5670  -18.4468   36.9955 C   0  0  0  0  0  0  0  0  0  0  0  0
   36.4041  -18.2241   36.1398 C   0  0  0  0  0  0  0  0  0  0  0  0
   35.9772  -19.0187   35.1728 N   0  0  0  0  0  0  0  0  0  0  0  0
   34.9150  -18.7002   34.4290 C   0  0  0  0  0  0  0  0  0  0  0  0
   34.2333  -17.5620   34.6280 N   0  0  0  0  0  0  0  0  0  0  0  0
   34.6197  -16.7036   35.6044 C   0  0  0  0  0  0  0  0  0  0  0  0
   33.9186  -15.5343   35.8093 C   0  0  0  0  0  0  0  0  0  0  0  0
   34.2902  -14.6516   36.7897 C   0  0  0  0  0  0  0  0  0  0  0  0
   35.4127  -14.9781   37.5835 C   0  0  0  0  0  0  0  0  0  0  0  0
   36.0833  -16.1511   37.3484 C   0  0  0  0  0  0  0  0  0  0  0  0
   35.7037  -17.0367   36.3574 C   0  0  0  0  0  0  0  0  0  0  0  0
   33.6649  -13.4689   37.0676 O   0  0  0  0  0  0  0  0  0  0  0  0
   34.0248  -12.1522   36.9158 C   0  0  0  0  0  0  0  0  0  0  0  0
   33.3073  -11.2494   37.8902 C   0  0  0  0  0  0  0  0  0  0  0  0
   31.9385  -11.0713   37.5910 N   0  0  0  0  0  0  0  0  0  0  0  0
   31.4687   -9.7919   37.3040 C   0  0  0  0  0  0  0  0  0  0  0  0
   30.1893   -9.5429   38.1161 C   0  0  0  0  0  0  0  0  0  0  0  0
   29.2923  -10.5348   37.6814 O   0  0  0  0  0  0  0  0  0  0  0  0
   29.6522  -11.7980   38.1265 C   0  0  0  0  0  0  0  0  0  0  0  0
   31.0894  -12.1468   37.8361 C   0  0  0  0  0  0  0  0  0  0  0  0
   37.8271  -19.8963   37.2656 N   0  0  0  0  0  0  0  0  0  0  0  0
   36.9062  -20.4875   38.1217 C   0  0  0  0  0  0  0  0  0  0  0  0
   36.0704  -19.6257   38.6561 O   0  0  0  0  0  0  0  0  0  0  0  0
   40.5727  -22.9655   36.0138 C   0  0  0  0  0  0  0  0  0  0  0  0
   40.2297  -24.3523   35.7855 N   0  0  0  0  0  0  0  0  0  0  0  0
   40.0816  -22.5985   37.4031 C   0  0  0  0  0  0  0  0  0  0  0  0
   39.9124  -21.1303   37.5784 C   0  0  0  0  0  0  0  0  0  0  0  0
   38.9428  -20.4970   36.5708 C   0  0  0  0  0  0  0  0  0  0  0  0
   38.5508  -21.6058   35.6101 C   0  0  0  0  0  0  0  0  0  0  0  0
   39.8863  -22.0819   34.9941 C   0  0  0  0  0  0  0  0  0  0  0  0
   39.2673  -24.4978   36.2163 H   0  0  0  0  0  0  0  0  0  0  0  0
   40.8760  -24.9368   36.3868 H   0  0  0  0  0  0  0  0  0  0  0  0
   36.6697  -21.8443   38.5528 C   0  0  0  0  0  0  0  0  0  0  0  0
   37.1197  -22.4320   39.7055 C   0  0  0  0  0  0  0  0  0  0  0  0
   36.7644  -23.7322   40.0618 C   0  0  0  0  0  0  0  0  0  0  0  0
   35.9457  -24.5015   39.2803 C   0  0  0  0  0  0  0  0  0  0  0  0
   35.5961  -25.8824   39.7062 C   0  0  0  0  0  0  0  0  0  0  0  0
   35.4848  -23.9399   38.1242 C   0  0  0  0  0  0  0  0  0  0  0  0
   35.8284  -22.6758   37.7763 C   0  0  0  0  0  0  0  0  0  0  0  0
 24 25  1  0  0  0
 24 26  1  0  0  0
 26 27  1  0  0  0
 27 28  1  0  0  0
 28 21  1  0  0  0
 21 22  1  0  0  0
 22 23  2  0  0  0
 22 33  1  0  0  0
 33 34  2  0  0  0
 34 35  1  0  0  0
 35 36  2  0  0  0
 36 37  1  0  0  0
 36 38  1  0  0  0
 38 39  2  0  0  0
 21  1  1  0  0  0
  1  2  1  0  0  0
  2  3  2  0  0  0
  3  4  1  0  0  0
  4  5  2  0  0  0
  5  6  1  0  0  0
  6  7  2  0  0  0
  7  8  1  0  0  0
  8 12  1  0  0  0
 12 13  1  0  0  0
 13 14  1  0  0  0
 14 15  1  0  0  0
 15 16  1  0  0  0
 16 17  1  0  0  0
 17 18  1  0  0  0
 18 19  1  0  0  0
 19 20  1  0  0  0
  8  9  2  0  0  0
  9 10  1  0  0  0
 10 11  2  0  0  0
 28 29  1  0  0  0
 29 30  1  0  0  0
 30 24  1  0  0  0
 39 33  1  0  0  0
 11  2  1  0  0  0
 11  6  1  0  0  0
 20 15  1  0  0  0
 25 31  1  0  0  0
 25 32  1  0  0  0
M  END
> <minimizedAffinity>
-6.09523

> <CNNscore>
0.3129808605

> <CNNaffinity>
5.8633255959

> <CNN_VS>
1.8351086378

> <CNNaffinity_variance>
0.3092396855

$$$$
[H]c1nc(C([H])([H])N(C(=O)c2c([H])c([H])c(C([H])([H])[H])c([H])c2[H])C2([H])C([H])([H])C([H])([H])C([H])(N([H])[H])C([H])([H])C2([H])[H])c2c([H])c([H])c(OC([H])([H])C([H])([H])N3C([H])([H])C([H])([H])OC([H])([H])C3([H])[H])c([H])c2n1


 39 43  0  0  0  0  0  0  0  0999 V2000
   38.7444  -21.1426   37.1004 C   0  0  0  0  0  0  0  0  0  0  0  0
   37.8083  -20.0341   36.9307 C   0  0  0  0  0  0  0  0  0  0  0  0
   38.1219  -18.7662   36.7242 N   0  0  0  0  0  0  0  0  0  0  0  0
   37.1802  -17.8259   36.6134 C   0  0  0  0  0  0  0  0  0  0  0  0
   35.8754  -18.1236   36.7062 N   0  0  0  0  0  0  0  0  0  0  0  0
   35.4870  -19.4058   36.9174 C   0  0  0  0  0  0  0  0  0  0  0  0
   34.1460  -19.7117   37.0119 C   0  0  0  0  0  0  0  0  0  0  0  0
   33.7297  -20.9999   37.2250 C   0  0  0  0  0  0  0  0  0  0  0  0
   34.7172  -22.0036   37.3436 C   0  0  0  0  0  0  0  0  0  0  0  0
   36.0408  -21.6588   37.2433 C   0  0  0  0  0  0  0  0  0  0  0  0
   36.4541  -20.3573   37.0291 C   0  0  0  0  0  0  0  0  0  0  0  0
   32.4287  -21.4024   37.3371 O   0  0  0  0  0  0  0  0  0  0  0  0
   31.3459  -21.3424   36.4944 C   0  0  0  0  0  0  0  0  0  0  0  0
   31.5387  -22.1873   35.2581 C   0  0  0  0  0  0  0  0  0  0  0  0
   30.4725  -23.0807   35.0137 N   0  0  0  0  0  0  0  0  0  0  0  0
   29.2365  -22.8395   35.6087 C   0  0  0  0  0  0  0  0  0  0  0  0
   28.7297  -24.1448   36.2392 C   0  0  0  0  0  0  0  0  0  0  0  0
   28.6208  -25.0423   35.1621 O   0  0  0  0  0  0  0  0  0  0  0  0
   29.8605  -25.4383   34.6829 C   0  0  0  0  0  0  0  0  0  0  0  0
   30.7830  -24.2839   34.3862 C   0  0  0  0  0  0  0  0  0  0  0  0
   39.9415  -20.7783   37.9225 N   0  0  0  0  0  0  0  0  0  0  0  0
   39.7530  -20.9193   39.2918 C   0  0  0  0  0  0  0  0  0  0  0  0
   38.5102  -21.1970   39.6162 O   0  0  0  0  0  0  0  0  0  0  0  0
   42.3415  -18.8931   34.8874 C   0  0  0  0  0  0  0  0  0  0  0  0
   42.0722  -17.6040   34.2889 N   0  0  0  0  0  0  0  0  0  0  0  0
   41.0786  -19.7267   34.7594 C   0  0  0  0  0  0  0  0  0  0  0  0
   41.0336  -20.8471   35.7381 C   0  0  0  0  0  0  0  0  0  0  0  0
   41.1325  -20.3921   37.2009 C   0  0  0  0  0  0  0  0  0  0  0  0
   41.3742  -18.8935   37.1599 C   0  0  0  0  0  0  0  0  0  0  0  0
   42.6826  -18.7287   36.3532 C   0  0  0  0  0  0  0  0  0  0  0  0
   41.0731  -17.3523   34.5563 H   0  0  0  0  0  0  0  0  0  0  0  0
   42.0333  -17.7483   33.2408 H   0  0  0  0  0  0  0  0  0  0  0  0
   40.6271  -20.8250   40.4363 C   0  0  0  0  0  0  0  0  0  0  0  0
   40.9989  -21.8432   41.2741 C   0  0  0  0  0  0  0  0  0  0  0  0
   41.9151  -21.6547   42.3079 C   0  0  0  0  0  0  0  0  0  0  0  0
   42.4975  -20.4402   42.5499 C   0  0  0  0  0  0  0  0  0  0  0  0
   43.4699  -20.2923   43.6649 C   0  0  0  0  0  0  0  0  0  0  0  0
   42.1423  -19.4076   41.7302 C   0  0  0  0  0  0  0  0  0  0  0  0
   41.2524  -19.5888   40.7241 C   0  0  0  0  0  0  0  0  0  0  0  0
 24 25  1  0  0  0
 24 26  1  0  0  0
 26 27  1  0  0  0
 27 28  1  0  0  0
 28 21  1  0  0  0
 21 22  1  0  0  0
 22 23  2  0  0  0
 22 33  1  0  0  0
 33 34  2  0  0  0
 34 35  1  0  0  0
 35 36  2  0  0  0
 36 37  1  0  0  0
 36 38  1  0  0  0
 38 39  2  0  0  0
 21  1  1  0  0  0
  1  2  1  0  0  0
  2  3  2  0  0  0
  3  4  1  0  0  0
  4  5  2  0  0  0
  5  6  1  0  0  0
  6  7  2  0  0  0
  7  8  1  0  0  0
  8 12  1  0  0  0
 12 13  1  0  0  0
 13 14  1  0  0  0
 14 15  1  0  0  0
 15 16  1  0  0  0
 16 17  1  0  0  0
 17 18  1  0  0  0
 18 19  1  0  0  0
 19 20  1  0  0  0
  8  9  2  0  0  0
  9 10  1  0  0  0
 10 11  2  0  0  0
 28 29  1  0  0  0
 29 30  1  0  0  0
 30 24  1  0  0  0
 39 33  1  0  0  0
 11  2  1  0  0  0
 11  6  1  0  0  0
 20 15  1  0  0  0
 25 31  1  0  0  0
 25 32  1  0  0  0
M  END
> <minimizedAffinity>
-5.34389

> <CNNscore>
0.3111774027

> <CNNaffinity>
5.2480440140

> <CNN_VS>
1.6330727339

> <CNNaffinity_variance>
0.3075567484

$$$$
[H]c1nc(C([H])([H])N(C(=O)c2c([H])c([H])c(C([H])([H])[H])c([H])c2[H])C2([H])C([H])([H])C([H])([H])C([H])(N([H])[H])C([H])([H])C2([H])[H])c2c([H])c([H])c(OC([H])([H])C([H])([H])N3C([H])([H])C([H])([H])OC([H])([H])C3([H])[H])c([H])c2n1


 39 43  0  0  0  0  0  0  0  0999 V2000
   36.8927  -19.3453   37.3978 C   0  0  0  0  0  0  0  0  0  0  0  0
   35.8506  -18.7178   36.5888 C   0  0  0  0  0  0  0  0  0  0  0  0
   34.9825  -19.3384   35.8078 N   0  0  0  0  0  0  0  0  0  0  0  0
   34.0878  -18.6596   35.0854 C   0  0  0  0  0  0  0  0  0  0  0  0
   34.0283  -17.3198   35.1187 N   0  0  0  0  0  0  0  0  0  0  0  0
   34.8907  -16.6232   35.9000 C   0  0  0  0  0  0  0  0  0  0  0  0
   34.8290  -15.2464   35.9347 C   0  0  0  0  0  0  0  0  0  0  0  0
   35.6899  -14.5212   36.7165 C   0  0  0  0  0  0  0  0  0  0  0  0
   36.6410  -15.2285   37.4857 C   0  0  0  0  0  0  0  0  0  0  0  0
   36.6700  -16.5983   37.4239 C   0  0  0  0  0  0  0  0  0  0  0  0
   35.7993  -17.3238   36.6327 C   0  0  0  0  0  0  0  0  0  0  0  0
   35.7110  -13.1585   36.8158 O   0  0  0  0  0  0  0  0  0  0  0  0
   34.7395  -12.1910   36.7370 C   0  0  0  0  0  0  0  0  0  0  0  0
   33.4842  -12.5824   37.4790 C   0  0  0  0  0  0  0  0  0  0  0  0
   32.6524  -11.4863   37.7974 N   0  0  0  0  0  0  0  0  0  0  0  0
   31.2862  -11.6990   37.9658 C   0  0  0  0  0  0  0  0  0  0  0  0
   30.5195  -10.6330   37.1694 C   0  0  0  0  0  0  0  0  0  0  0  0
   30.9269   -9.4087   37.7284 O   0  0  0  0  0  0  0  0  0  0  0  0
   32.2385   -9.0955   37.4043 C   0  0  0  0  0  0  0  0  0  0  0  0
   33.2075  -10.2144   37.6876 C   0  0  0  0  0  0  0  0  0  0  0  0
   37.9560  -20.0043   36.5753 N   0  0  0  0  0  0  0  0  0  0  0  0
   38.1526  -21.3470   36.8733 C   0  0  0  0  0  0  0  0  0  0  0  0
   37.4768  -21.7465   37.9272 O   0  0  0  0  0  0  0  0  0  0  0  0
   40.5451  -19.0276   33.2785 C   0  0  0  0  0  0  0  0  0  0  0  0
   40.8625  -19.9076   32.1750 N   0  0  0  0  0  0  0  0  0  0  0  0
   40.8376  -19.7844   34.5622 C   0  0  0  0  0  0  0  0  0  0  0  0
   40.1120  -19.2217   35.7335 C   0  0  0  0  0  0  0  0  0  0  0  0
   38.5871  -19.1939   35.5587 C   0  0  0  0  0  0  0  0  0  0  0  0
   38.3179  -19.6597   34.1387 C   0  0  0  0  0  0  0  0  0  0  0  0
   39.0785  -18.6538   33.2446 C   0  0  0  0  0  0  0  0  0  0  0  0
   40.5446  -20.8807   32.4666 H   0  0  0  0  0  0  0  0  0  0  0  0
   41.9176  -19.9810   32.1278 H   0  0  0  0  0  0  0  0  0  0  0  0
   38.9403  -22.3988   36.2764 C   0  0  0  0  0  0  0  0  0  0  0  0
   38.6587  -23.0858   35.1252 C   0  0  0  0  0  0  0  0  0  0  0  0
   39.5334  -24.0332   34.5951 C   0  0  0  0  0  0  0  0  0  0  0  0
   40.7261  -24.3359   35.1939 C   0  0  0  0  0  0  0  0  0  0  0  0
   41.6240  -25.3538   34.5869 C   0  0  0  0  0  0  0  0  0  0  0  0
   41.0301  -23.6665   36.3444 C   0  0  0  0  0  0  0  0  0  0  0  0
   40.1815  -22.7445   36.8611 C   0  0  0  0  0  0  0  0  0  0  0  0
 24 25  1  0  0  0
 24 26  1  0  0  0
 26 27  1  0  0  0
 27 28  1  0  0  0
 28 21  1  0  0  0
 21 22  1  0  0  0
 22 23  2  0  0  0
 22 33  1  0  0  0
 33 34  2  0  0  0
 34 35  1  0  0  0
 35 36  2  0  0  0
 36 37  1  0  0  0
 36 38  1  0  0  0
 38 39  2  0  0  0
 21  1  1  0  0  0
  1  2  1  0  0  0
  2  3  2  0  0  0
  3  4  1  0  0  0
  4  5  2  0  0  0
  5  6  1  0  0  0
  6  7  2  0  0  0
  7  8  1  0  0  0
  8 12  1  0  0  0
 12 13  1  0  0  0
 13 14  1  0  0  0
 14 15  1  0  0  0
 15 16  1  0  0  0
 16 17  1  0  0  0
 17 18  1  0  0  0
 18 19  1  0  0  0
 19 20  1  0  0  0
  8  9  2  0  0  0
  9 10  1  0  0  0
 10 11  2  0  0  0
 28 29  1  0  0  0
 29 30  1  0  0  0
 30 24  1  0  0  0
 39 33  1  0  0  0
 11  2  1  0  0  0
 11  6  1  0  0  0
 20 15  1  0  0  0
 25 31  1  0  0  0
 25 32  1  0  0  0
M  END
> <minimizedAffinity>
-7.85801

> <CNNscore>
0.2941750586

> <CNNaffinity>
6.1911683083

> <CNN_VS>
1.8212872744

> <CNNaffinity_variance>
0.1820943803

$$$$
[H]c1nc(C([H])([H])N(C(=O)c2c([H])c([H])c(C([H])([H])[H])c([H])c2[H])C2([H])C([H])([H])C([H])([H])C([H])(N([H])[H])C([H])([H])C2([H])[H])c2c([H])c([H])c(OC([H])([H])C([H])([H])N3C([H])([H])C([H])([H])OC([H])([H])C3([H])[H])c([H])c2n1


 39 43  0  0  0  0  0  0  0  0999 V2000
   38.8702  -21.3087   37.0229 C   0  0  0  0  0  0  0  0  0  0  0  0
   37.7870  -20.3286   37.0249 C   0  0  0  0  0  0  0  0  0  0  0  0
   37.9093  -19.0229   36.8555 N   0  0  0  0  0  0  0  0  0  0  0  0
   36.8492  -18.2126   36.9069 C   0  0  0  0  0  0  0  0  0  0  0  0
   35.6139  -18.6847   37.1323 N   0  0  0  0  0  0  0  0  0  0  0  0
   35.4203  -20.0147   37.3141 C   0  0  0  0  0  0  0  0  0  0  0  0
   34.1507  -20.4999   37.5449 C   0  0  0  0  0  0  0  0  0  0  0  0
   33.9306  -21.8397   37.7315 C   0  0  0  0  0  0  0  0  0  0  0  0
   35.0448  -22.7071   37.6789 C   0  0  0  0  0  0  0  0  0  0  0  0
   36.2918  -22.1854   37.4466 C   0  0  0  0  0  0  0  0  0  0  0  0
   36.5070  -20.8329   37.2600 C   0  0  0  0  0  0  0  0  0  0  0  0
   32.7147  -22.4160   37.9696 O   0  0  0  0  0  0  0  0  0  0  0  0
   31.4372  -22.1306   37.5543 C   0  0  0  0  0  0  0  0  0  0  0  0
   31.1587  -22.6556   36.1664 C   0  0  0  0  0  0  0  0  0  0  0  0
   31.2333  -21.6645   35.1630 N   0  0  0  0  0  0  0  0  0  0  0  0
   32.2648  -21.7222   34.2289 C   0  0  0  0  0  0  0  0  0  0  0  0
   32.8969  -20.3281   34.1056 C   0  0  0  0  0  0  0  0  0  0  0  0
   31.8484  -19.4984   33.6702 O   0  0  0  0  0  0  0  0  0  0  0  0
   30.9061  -19.2799   34.6641 C   0  0  0  0  0  0  0  0  0  0  0  0
   30.4127  -20.5495   35.3091 C   0  0  0  0  0  0  0  0  0  0  0  0
   40.0443  -20.8865   37.8504 N   0  0  0  0  0  0  0  0  0  0  0  0
   39.8699  -21.0692   39.2167 C   0  0  0  0  0  0  0  0  0  0  0  0
   38.6485  -21.4330   39.5374 O   0  0  0  0  0  0  0  0  0  0  0  0
   42.3069  -18.8559   34.8036 C   0  0  0  0  0  0  0  0  0  0  0  0
   41.9305  -17.6096   34.1730 N   0  0  0  0  0  0  0  0  0  0  0  0
   41.1267  -19.8034   34.6788 C   0  0  0  0  0  0  0  0  0  0  0  0
   41.1694  -20.9022   35.6818 C   0  0  0  0  0  0  0  0  0  0  0  0
   41.2056  -20.4090   37.1351 C   0  0  0  0  0  0  0  0  0  0  0  0
   41.3111  -18.8959   37.0634 C   0  0  0  0  0  0  0  0  0  0  0  0
   42.6106  -18.6300   36.2694 C   0  0  0  0  0  0  0  0  0  0  0  0
   40.9089  -17.4442   34.4222 H   0  0  0  0  0  0  0  0  0  0  0  0
   41.9199  -17.7792   33.1280 H   0  0  0  0  0  0  0  0  0  0  0  0
   40.7401  -20.9441   40.3612 C   0  0  0  0  0  0  0  0  0  0  0  0
   41.2559  -21.9626   41.1183 C   0  0  0  0  0  0  0  0  0  0  0  0
   42.1537  -21.7306   42.1593 C   0  0  0  0  0  0  0  0  0  0  0  0
   42.5730  -20.4705   42.4896 C   0  0  0  0  0  0  0  0  0  0  0  0
   43.5330  -20.2771   43.6084 C   0  0  0  0  0  0  0  0  0  0  0  0
   42.0720  -19.4367   41.7516 C   0  0  0  0  0  0  0  0  0  0  0  0
   41.1996  -19.6602   40.7386 C   0  0  0  0  0  0  0  0  0  0  0  0
 24 25  1  0  0  0
 24 26  1  0  0  0
 26 27  1  0  0  0
 27 28  1  0  0  0
 28 21  1  0  0  0
 21 22  1  0  0  0
 22 23  2  0  0  0
 22 33  1  0  0  0
 33 34  2  0  0  0
 34 35  1  0  0  0
 35 36  2  0  0  0
 36 37  1  0  0  0
 36 38  1  0  0  0
 38 39  2  0  0  0
 21  1  1  0  0  0
  1  2  1  0  0  0
  2  3  2  0  0  0
  3  4  1  0  0  0
  4  5  2  0  0  0
  5  6  1  0  0  0
  6  7  2  0  0  0
  7  8  1  0  0  0
  8 12  1  0  0  0
 12 13  1  0  0  0
 13 14  1  0  0  0
 14 15  1  0  0  0
 15 16  1  0  0  0
 16 17  1  0  0  0
 17 18  1  0  0  0
 18 19  1  0  0  0
 19 20  1  0  0  0
  8  9  2  0  0  0
  9 10  1  0  0  0
 10 11  2  0  0  0
 28 29  1  0  0  0
 29 30  1  0  0  0
 30 24  1  0  0  0
 39 33  1  0  0  0
 11  2  1  0  0  0
 11  6  1  0  0  0
 20 15  1  0  0  0
 25 31  1  0  0  0
 25 32  1  0  0  0
M  END
> <minimizedAffinity>
-5.62636

> <CNNscore>
0.2895682156

> <CNNaffinity>
5.2628240585

> <CNN_VS>
1.5239465237

> <CNNaffinity_variance>
0.3933894038

$$$$
[H]c1nc(C([H])([H])N(C(=O)c2c([H])c([H])c(C([H])([H])[H])c([H])c2[H])C2([H])C([H])([H])C([H])([H])C([H])(N([H])[H])C([H])([H])C2([H])[H])c2c([H])c([H])c(OC([H])([H])C([H])([H])N3C([H])([H])C([H])([H])OC([H])([H])C3([H])[H])c([H])c2n1


 39 43  0  0  0  0  0  0  0  0999 V2000
   35.9414  -19.9268   36.4582 C   0  0  0  0  0  0  0  0  0  0  0  0
   34.7266  -20.4039   35.8018 C   0  0  0  0  0  0  0  0  0  0  0  0
   34.2002  -19.9308   34.6848 N   0  0  0  0  0  0  0  0  0  0  0  0
   33.0635  -20.4248   34.1880 C   0  0  0  0  0  0  0  0  0  0  0  0
   32.4045  -21.4217   34.7977 N   0  0  0  0  0  0  0  0  0  0  0  0
   32.8917  -21.9514   35.9473 C   0  0  0  0  0  0  0  0  0  0  0  0
   32.2148  -22.9764   36.5734 C   0  0  0  0  0  0  0  0  0  0  0  0
   32.6877  -23.5275   37.7357 C   0  0  0  0  0  0  0  0  0  0  0  0
   33.8901  -23.0131   38.2709 C   0  0  0  0  0  0  0  0  0  0  0  0
   34.5338  -21.9932   37.6178 C   0  0  0  0  0  0  0  0  0  0  0  0
   34.0511  -21.4413   36.4462 C   0  0  0  0  0  0  0  0  0  0  0  0
   32.0898  -24.5401   38.4316 O   0  0  0  0  0  0  0  0  0  0  0  0
   30.8238  -25.0725   38.4228 C   0  0  0  0  0  0  0  0  0  0  0  0
   29.7924  -24.0982   38.9388 C   0  0  0  0  0  0  0  0  0  0  0  0
   28.9959  -23.5285   37.9210 N   0  0  0  0  0  0  0  0  0  0  0  0
   28.5328  -24.3407   36.8886 C   0  0  0  0  0  0  0  0  0  0  0  0
   28.7978  -23.6360   35.5502 C   0  0  0  0  0  0  0  0  0  0  0  0
   28.0722  -22.4341   35.6303 O   0  0  0  0  0  0  0  0  0  0  0  0
   28.6399  -21.5379   36.5236 C   0  0  0  0  0  0  0  0  0  0  0  0
   28.9190  -22.1393   37.8771 C   0  0  0  0  0  0  0  0  0  0  0  0
   36.3039  -18.5260   36.0738 N   0  0  0  0  0  0  0  0  0  0  0  0
   35.4433  -17.5590   36.5783 C   0  0  0  0  0  0  0  0  0  0  0  0
   34.3847  -18.0669   37.1686 O   0  0  0  0  0  0  0  0  0  0  0  0
   39.9477  -19.6175   34.0595 C   0  0  0  0  0  0  0  0  0  0  0  0
   40.1771  -20.8643   33.3627 N   0  0  0  0  0  0  0  0  0  0  0  0
   39.4608  -19.9603   35.4565 C   0  0  0  0  0  0  0  0  0  0  0  0
   38.7275  -18.8345   36.0967 C   0  0  0  0  0  0  0  0  0  0  0  0
   37.5089  -18.3570   35.2942 C   0  0  0  0  0  0  0  0  0  0  0  0
   37.5241  -19.1461   33.9970 C   0  0  0  0  0  0  0  0  0  0  0  0
   38.8854  -18.8076   33.3472 C   0  0  0  0  0  0  0  0  0  0  0  0
   39.3924  -21.5207   33.6566 H   0  0  0  0  0  0  0  0  0  0  0  0
   41.0493  -21.2980   33.7775 H   0  0  0  0  0  0  0  0  0  0  0  0
   35.4593  -16.1159   36.5931 C   0  0  0  0  0  0  0  0  0  0  0  0
   36.5106  -15.3079   36.9374 C   0  0  0  0  0  0  0  0  0  0  0  0
   36.4402  -13.9189   36.8402 C   0  0  0  0  0  0  0  0  0  0  0  0
   35.3154  -13.2779   36.3967 C   0  0  0  0  0  0  0  0  0  0  0  0
   35.2922  -11.7937   36.3106 C   0  0  0  0  0  0  0  0  0  0  0  0
   34.2519  -14.0604   36.0490 C   0  0  0  0  0  0  0  0  0  0  0  0
   34.3185  -15.4110   36.1419 C   0  0  0  0  0  0  0  0  0  0  0  0
 24 25  1  0  0  0
 24 26  1  0  0  0
 26 27  1  0  0  0
 27 28  1  0  0  0
 28 21  1  0  0  0
 21 22  1  0  0  0
 22 23  2  0  0  0
 22 33  1  0  0  0
 33 34  2  0  0  0
 34 35  1  0  0  0
 35 36  2  0  0  0
 36 37  1  0  0  0
 36 38  1  0  0  0
 38 39  2  0  0  0
 21  1  1  0  0  0
  1  2  1  0  0  0
  2  3  2  0  0  0
  3  4  1  0  0  0
  4  5  2  0  0  0
  5  6  1  0  0  0
  6  7  2  0  0  0
  7  8  1  0  0  0
  8 12  1  0  0  0
 12 13  1  0  0  0
 13 14  1  0  0  0
 14 15  1  0  0  0
 15 16  1  0  0  0
 16 17  1  0  0  0
 17 18  1  0  0  0
 18 19  1  0  0  0
 19 20  1  0  0  0
  8  9  2  0  0  0
  9 10  1  0  0  0
 10 11  2  0  0  0
 28 29  1  0  0  0
 29 30  1  0  0  0
 30 24  1  0  0  0
 39 33  1  0  0  0
 11  2  1  0  0  0
 11  6  1  0  0  0
 20 15  1  0  0  0
 25 31  1  0  0  0
 25 32  1  0  0  0
M  END
> <minimizedAffinity>
-6.06245

> <CNNscore>
0.2763446569

> <CNNaffinity>
5.7747802734

> <CNN_VS>
1.5958297253

> <CNNaffinity_variance>
0.1016851440

$$$$
[H]C(=O)C([H])(C(=O)N(C([H])([H])[H])C([H])([H])[H])c1nc(C([H])(B2C([H])([H])C([H])([H])N(C([H])([H])[H])C([H])([H])C2([H])[H])c2c([H])c([H])c([H])c([H])c2[H])nc([H])c1[H]


 28 30  0  0  0  0  0  0  0  0999 V2000
   34.8993  -14.2740   36.8503 C   0  0  0  0  0  0  0  0  0  0  0  0
   35.8145  -14.2541   37.8757 C   0  0  0  0  0  0  0  0  0  0  0  0
   36.8543  -15.1501   37.9198 C   0  0  0  0  0  0  0  0  0  0  0  0
   36.9254  -16.0421   36.9086 N   0  0  0  0  0  0  0  0  0  0  0  0
   36.0548  -16.0950   35.8912 C   0  0  0  0  0  0  0  0  0  0  0  0
   35.0538  -15.1981   35.8909 N   0  0  0  0  0  0  0  0  0  0  0  0
   33.7754  -13.2860   36.8319 C   0  0  0  0  0  0  0  0  0  0  0  0
   32.1383  -10.8169   37.5046 C   0  0  0  0  0  0  0  0  0  0  0  0
   33.5214  -10.7611   37.1283 N   0  0  0  0  0  0  0  0  0  0  0  0
   34.1483   -9.4345   37.0820 C   0  0  0  0  0  0  0  0  0  0  0  0
   34.3141  -11.8947   36.8043 C   0  0  0  0  0  0  0  0  0  0  0  0
   35.5033  -11.7318   36.4841 O   0  0  0  0  0  0  0  0  0  0  0  0
   32.8526  -13.5169   37.9779 C   0  0  0  0  0  0  0  0  0  0  0  0
   33.0416  -13.1063   39.1084 O   0  0  0  0  0  0  0  0  0  0  0  0
   36.2522  -17.1222   34.8551 C   0  0  0  0  0  0  0  0  0  0  0  0
   37.6632  -17.8410   34.9341 B   0  0  0  0  0  0  0  0  0  0  0  0
   37.8660  -18.8002   36.2101 C   0  0  0  0  0  0  0  0  0  0  0  0
   37.6922  -20.2076   35.6186 C   0  0  0  0  0  0  0  0  0  0  0  0
   38.8355  -20.4633   34.8133 N   0  0  0  0  0  0  0  0  0  0  0  0
   38.8087  -21.8654   34.4348 C   0  0  0  0  0  0  0  0  0  0  0  0
   39.0658  -19.6231   33.7040 C   0  0  0  0  0  0  0  0  0  0  0  0
   38.3166  -18.3586   33.5932 C   0  0  0  0  0  0  0  0  0  0  0  0
   35.2129  -18.1640   35.0674 C   0  0  0  0  0  0  0  0  0  0  0  0
   34.7077  -18.8544   33.9598 C   0  0  0  0  0  0  0  0  0  0  0  0
   33.7454  -19.8298   34.1064 C   0  0  0  0  0  0  0  0  0  0  0  0
   33.2579  -20.1467   35.3561 C   0  0  0  0  0  0  0  0  0  0  0  0
   33.7571  -19.4630   36.4597 C   0  0  0  0  0  0  0  0  0  0  0  0
   34.7178  -18.4903   36.3073 C   0  0  0  0  0  0  0  0  0  0  0  0
  8  9  1  0  0  0
  9 10  1  0  0  0
  9 11  1  0  0  0
 11 12  2  0  0  0
 11  7  1  0  0  0
  7  1  1  0  0  0
  1  2  2  0  0  0
  2  3  1  0  0  0
  3  4  2  0  0  0
  4  5  1  0  0  0
  5  6  2  0  0  0
  5 15  1  0  0  0
 15 23  1  0  0  0
 23 24  2  0  0  0
 24 25  1  0  0  0
 25 26  2  0  0  0
 26 27  1  0  0  0
 27 28  2  0  0  0
 15 16  1  0  0  0
 16 17  1  0  0  0
 17 18  1  0  0  0
 18 19  1  0  0  0
 19 20  1  0  0  0
 19 21  1  0  0  0
 21 22  1  0  0  0
  7 13  1  0  0  0
 13 14  2  0  0  0
  6  1  1  0  0  0
 28 23  1  0  0  0
 22 16  1  0  0  0
M  END
> <minimizedAffinity>
-6.63808

> <CNNscore>
0.7237337232

> <CNNaffinity>
6.1428446770

> <CNN_VS>
4.4457836151

> <CNNaffinity_variance>
0.0615309998

$$$$
[H]C(=O)C([H])(C(=O)N(C([H])([H])[H])C([H])([H])[H])c1nc(C([H])(B2C([H])([H])C([H])([H])N(C([H])([H])[H])C([H])([H])C2([H])[H])c2c([H])c([H])c([H])c([H])c2[H])nc([H])c1[H]


 28 30  0  0  0  0  0  0  0  0999 V2000
   32.9659  -19.9322   35.5006 C   0  0  0  0  0  0  0  0  0  0  0  0
   32.4939  -19.3508   34.3479 C   0  0  0  0  0  0  0  0  0  0  0  0
   32.9994  -18.1575   33.8936 C   0  0  0  0  0  0  0  0  0  0  0  0
   33.9764  -17.5942   34.6362 N   0  0  0  0  0  0  0  0  0  0  0  0
   34.4644  -18.1278   35.7645 C   0  0  0  0  0  0  0  0  0  0  0  0
   33.9386  -19.2964   36.1698 N   0  0  0  0  0  0  0  0  0  0  0  0
   32.3926  -21.2319   35.9714 C   0  0  0  0  0  0  0  0  0  0  0  0
   30.6159  -23.5385   35.1039 C   0  0  0  0  0  0  0  0  0  0  0  0
   30.0996  -22.2735   35.5413 N   0  0  0  0  0  0  0  0  0  0  0  0
   28.6398  -22.1202   35.5662 C   0  0  0  0  0  0  0  0  0  0  0  0
   30.9016  -21.1743   35.9496 C   0  0  0  0  0  0  0  0  0  0  0  0
   30.3496  -20.1194   36.3041 O   0  0  0  0  0  0  0  0  0  0  0  0
   32.9292  -21.5886   37.3140 C   0  0  0  0  0  0  0  0  0  0  0  0
   32.2431  -21.9069   38.2682 O   0  0  0  0  0  0  0  0  0  0  0  0
   35.5310  -17.4038   36.4756 C   0  0  0  0  0  0  0  0  0  0  0  0
   36.9672  -17.5961   35.8322 B   0  0  0  0  0  0  0  0  0  0  0  0
   37.9956  -18.4642   36.7143 C   0  0  0  0  0  0  0  0  0  0  0  0
   37.9969  -19.8276   36.0058 C   0  0  0  0  0  0  0  0  0  0  0  0
   38.6726  -19.6512   34.7675 N   0  0  0  0  0  0  0  0  0  0  0  0
   38.8922  -20.9654   34.1891 C   0  0  0  0  0  0  0  0  0  0  0  0
   38.1194  -18.7508   33.8334 C   0  0  0  0  0  0  0  0  0  0  0  0
   37.0659  -17.8181   34.2721 C   0  0  0  0  0  0  0  0  0  0  0  0
   35.2031  -15.9555   36.4000 C   0  0  0  0  0  0  0  0  0  0  0  0
   36.2419  -15.0200   36.4667 C   0  0  0  0  0  0  0  0  0  0  0  0
   35.9880  -13.6673   36.3988 C   0  0  0  0  0  0  0  0  0  0  0  0
   34.6964  -13.2058   36.2630 C   0  0  0  0  0  0  0  0  0  0  0  0
   33.6608  -14.1320   36.1965 C   0  0  0  0  0  0  0  0  0  0  0  0
   33.9203  -15.4812   36.2647 C   0  0  0  0  0  0  0  0  0  0  0  0
  8  9  1  0  0  0
  9 10  1  0  0  0
  9 11  1  0  0  0
 11 12  2  0  0  0
 11  7  1  0  0  0
  7  1  1  0  0  0
  1  2  2  0  0  0
  2  3  1  0  0  0
  3  4  2  0  0  0
  4  5  1  0  0  0
  5  6  2  0  0  0
  5 15  1  0  0  0
 15 23  1  0  0  0
 23 24  2  0  0  0
 24 25  1  0  0  0
 25 26  2  0  0  0
 26 27  1  0  0  0
 27 28  2  0  0  0
 15 16  1  0  0  0
 16 17  1  0  0  0
 17 18  1  0  0  0
 18 19  1  0  0  0
 19 20  1  0  0  0
 19 21  1  0  0  0
 21 22  1  0  0  0
  7 13  1  0  0  0
 13 14  2  0  0  0
  6  1  1  0  0  0
 28 23  1  0  0  0
 22 16  1  0  0  0
M  END
> <minimizedAffinity>
-7.24845

> <CNNscore>
0.6524533629

> <CNNaffinity>
5.4387993813

> <CNN_VS>
3.5485630035

> <CNNaffinity_variance>
0.4923281670

$$$$
[H]C(=O)C([H])(C(=O)N(C([H])([H])[H])C([H])([H])[H])c1nc(C([H])(B2C([H])([H])C([H])([H])N(C([H])([H])[H])C([H])([H])C2([H])[H])c2c([H])c([H])c([H])c([H])c2[H])nc([H])c1[H]


 28 30  0  0  0  0  0  0  0  0999 V2000
   35.2901  -13.9065   36.7046 C   0  0  0  0  0  0  0  0  0  0  0  0
   36.1785  -13.6159   37.7124 C   0  0  0  0  0  0  0  0  0  0  0  0
   37.2193  -14.4610   38.0099 C   0  0  0  0  0  0  0  0  0  0  0  0
   37.3190  -15.5817   37.2633 N   0  0  0  0  0  0  0  0  0  0  0  0
   36.4750  -15.9016   36.2727 C   0  0  0  0  0  0  0  0  0  0  0  0
   35.4719  -15.0441   36.0182 N   0  0  0  0  0  0  0  0  0  0  0  0
   34.1643  -12.9668   36.4064 C   0  0  0  0  0  0  0  0  0  0  0  0
   32.9061  -10.5579   37.7641 C   0  0  0  0  0  0  0  0  0  0  0  0
   34.0684  -10.4676   36.9282 N   0  0  0  0  0  0  0  0  0  0  0  0
   34.6583   -9.1357   36.7456 C   0  0  0  0  0  0  0  0  0  0  0  0
   34.6791  -11.5722   36.2762 C   0  0  0  0  0  0  0  0  0  0  0  0
   35.6813  -11.3801   35.5677 O   0  0  0  0  0  0  0  0  0  0  0  0
   33.0933  -13.0849   37.4345 C   0  0  0  0  0  0  0  0  0  0  0  0
   33.2453  -13.5870   38.5333 O   0  0  0  0  0  0  0  0  0  0  0  0
   36.7020  -17.1581   35.5398 C   0  0  0  0  0  0  0  0  0  0  0  0
   37.4821  -18.2523   36.3813 B   0  0  0  0  0  0  0  0  0  0  0  0
   36.6373  -18.9178   37.5783 C   0  0  0  0  0  0  0  0  0  0  0  0
   36.2487  -20.2908   37.0086 C   0  0  0  0  0  0  0  0  0  0  0  0
   37.4371  -21.0691   36.9547 N   0  0  0  0  0  0  0  0  0  0  0  0
   37.0596  -22.4368   36.6435 C   0  0  0  0  0  0  0  0  0  0  0  0
   38.4903  -20.6142   36.1342 C   0  0  0  0  0  0  0  0  0  0  0  0
   38.4524  -19.2350   35.6160 C   0  0  0  0  0  0  0  0  0  0  0  0
   35.3656  -17.7220   35.2126 C   0  0  0  0  0  0  0  0  0  0  0  0
   35.2498  -18.6164   34.1424 C   0  0  0  0  0  0  0  0  0  0  0  0
   34.0332  -19.1668   33.8022 C   0  0  0  0  0  0  0  0  0  0  0  0
   32.8981  -18.8448   34.5148 C   0  0  0  0  0  0  0  0  0  0  0  0
   33.0085  -17.9562   35.5791 C   0  0  0  0  0  0  0  0  0  0  0  0
   34.2257  -17.4099   35.9141 C   0  0  0  0  0  0  0  0  0  0  0  0
  8  9  1  0  0  0
  9 10  1  0  0  0
  9 11  1  0  0  0
 11 12  2  0  0  0
 11  7  1  0  0  0
  7  1  1  0  0  0
  1  2  2  0  0  0
  2  3  1  0  0  0
  3  4  2  0  0  0
  4  5  1  0  0  0
  5  6  2  0  0  0
  5 15  1  0  0  0
 15 23  1  0  0  0
 23 24  2  0  0  0
 24 25  1  0  0  0
 25 26  2  0  0  0
 26 27  1  0  0  0
 27 28  2  0  0  0
 15 16  1  0  0  0
 16 17  1  0  0  0
 17 18  1  0  0  0
 18 19  1  0  0  0
 19 20  1  0  0  0
 19 21  1  0  0  0
 21 22  1  0  0  0
  7 13  1  0  0  0
 13 14  2  0  0  0
  6  1  1  0  0  0
 28 23  1  0  0  0
 22 16  1  0  0  0
M  END
> <minimizedAffinity>
-6.31007

> <CNNscore>
0.6354988217

> <CNNaffinity>
6.0742449760

> <CNN_VS>
3.8601756096

> <CNNaffinity_variance>
0.0866277218

$$$$
[H]C(=O)C([H])(C(=O)N(C([H])([H])[H])C([H])([H])[H])c1nc(C([H])(B2C([H])([H])C([H])([H])N(C([H])([H])[H])C([H])([H])C2([H])[H])c2c([H])c([H])c([H])c([H])c2[H])nc([H])c1[H]


 28 30  0  0  0  0  0  0  0  0999 V2000
   34.9486  -14.3487   36.9488 C   0  0  0  0  0  0  0  0  0  0  0  0
   35.9808  -14.3590   37.8564 C   0  0  0  0  0  0  0  0  0  0  0  0
   36.9266  -15.3547   37.8480 C   0  0  0  0  0  0  0  0  0  0  0  0
   36.7858  -16.3128   36.9070 N   0  0  0  0  0  0  0  0  0  0  0  0
   35.7953  -16.3394   36.0046 C   0  0  0  0  0  0  0  0  0  0  0  0
   34.8934  -15.3440   36.0517 N   0  0  0  0  0  0  0  0  0  0  0  0
   33.9318  -13.2513   36.9853 C   0  0  0  0  0  0  0  0  0  0  0  0
   32.8367  -10.5364   37.7972 C   0  0  0  0  0  0  0  0  0  0  0  0
   34.0277  -10.6984   37.0142 N   0  0  0  0  0  0  0  0  0  0  0  0
   34.7314   -9.4758   36.6076 C   0  0  0  0  0  0  0  0  0  0  0  0
   34.5643  -11.9516   36.6147 C   0  0  0  0  0  0  0  0  0  0  0  0
   35.6004  -11.9771   35.9296 O   0  0  0  0  0  0  0  0  0  0  0  0
   33.2602  -13.1996   38.3135 C   0  0  0  0  0  0  0  0  0  0  0  0
   32.1022  -13.5185   38.5132 O   0  0  0  0  0  0  0  0  0  0  0  0
   35.7632  -17.4464   35.0347 C   0  0  0  0  0  0  0  0  0  0  0  0
   36.8490  -18.5675   35.3141 B   0  0  0  0  0  0  0  0  0  0  0  0
   37.3843  -19.3354   34.0052 C   0  0  0  0  0  0  0  0  0  0  0  0
   38.7634  -18.7007   33.7690 C   0  0  0  0  0  0  0  0  0  0  0  0
   39.6161  -19.1618   34.8089 N   0  0  0  0  0  0  0  0  0  0  0  0
   40.9745  -18.7672   34.4786 C   0  0  0  0  0  0  0  0  0  0  0  0
   39.2799  -18.8292   36.1377 C   0  0  0  0  0  0  0  0  0  0  0  0
   37.9361  -18.2972   36.4268 C   0  0  0  0  0  0  0  0  0  0  0  0
   34.4266  -18.0881   35.1463 C   0  0  0  0  0  0  0  0  0  0  0  0
   34.1885  -18.9823   36.1962 C   0  0  0  0  0  0  0  0  0  0  0  0
   32.9655  -19.6002   36.3425 C   0  0  0  0  0  0  0  0  0  0  0  0
   31.9452  -19.3476   35.4509 C   0  0  0  0  0  0  0  0  0  0  0  0
   32.1774  -18.4596   34.4058 C   0  0  0  0  0  0  0  0  0  0  0  0
   33.4004  -17.8458   34.2648 C   0  0  0  0  0  0  0  0  0  0  0  0
  8  9  1  0  0  0
  9 10  1  0  0  0
  9 11  1  0  0  0
 11 12  2  0  0  0
 11  7  1  0  0  0
  7  1  1  0  0  0
  1  2  2  0  0  0
  2  3  1  0  0  0
  3  4  2  0  0  0
  4  5  1  0  0  0
  5  6  2  0  0  0
  5 15  1  0  0  0
 15 23  1  0  0  0
 23 24  2  0  0  0
 24 25  1  0  0  0
 25 26  2  0  0  0
 26 27  1  0  0  0
 27 28  2  0  0  0
 15 16  1  0  0  0
 16 17  1  0  0  0
 17 18  1  0  0  0
 18 19  1  0  0  0
 19 20  1  0  0  0
 19 21  1  0  0  0
 21 22  1  0  0  0
  7 13  1  0  0  0
 13 14  2  0  0  0
  6  1  1  0  0  0
 28 23  1  0  0  0
 22 16  1  0  0  0
M  END
> <minimizedAffinity>
-6.86514

> <CNNscore>
0.5713571310

> <CNNaffinity>
5.9963445663

> <CNN_VS>
3.4260542393

> <CNNaffinity_variance>
0.1420711279

$$$$
[H]C(=O)C([H])(C(=O)N(C([H])([H])[H])C([H])([H])[H])c1nc(C([H])(B2C([H])([H])C([H])([H])N(C([H])([H])[H])C([H])([H])C2([H])[H])c2c([H])c([H])c([H])c([H])c2[H])nc([H])c1[H]


 28 30  0  0  0  0  0  0  0  0999 V2000
   35.1000  -13.9168   36.9477 C   0  0  0  0  0  0  0  0  0  0  0  0
   36.3413  -13.6472   37.4729 C   0  0  0  0  0  0  0  0  0  0  0  0
   37.2895  -14.6322   37.6015 C   0  0  0  0  0  0  0  0  0  0  0  0
   36.9361  -15.8677   37.1867 N   0  0  0  0  0  0  0  0  0  0  0  0
   35.7380  -16.1721   36.6693 C   0  0  0  0  0  0  0  0  0  0  0  0
   34.8426  -15.1754   36.5631 N   0  0  0  0  0  0  0  0  0  0  0  0
   34.0871  -12.8222   36.8231 C   0  0  0  0  0  0  0  0  0  0  0  0
   33.2973  -10.0265   37.7116 C   0  0  0  0  0  0  0  0  0  0  0  0
   34.3454  -10.2811   36.7657 N   0  0  0  0  0  0  0  0  0  0  0  0
   35.0553   -9.1153   36.2253 C   0  0  0  0  0  0  0  0  0  0  0  0
   34.7370  -11.5741   36.3266 C   0  0  0  0  0  0  0  0  0  0  0  0
   35.6553  -11.6805   35.4967 O   0  0  0  0  0  0  0  0  0  0  0  0
   33.3717  -12.6174   38.1132 C   0  0  0  0  0  0  0  0  0  0  0  0
   32.4977  -13.3496   38.5404 O   0  0  0  0  0  0  0  0  0  0  0  0
   35.4873  -17.5633   36.2581 C   0  0  0  0  0  0  0  0  0  0  0  0
   34.2556  -17.7223   35.2725 B   0  0  0  0  0  0  0  0  0  0  0  0
   34.5581  -18.5712   33.9393 C   0  0  0  0  0  0  0  0  0  0  0  0
   33.9099  -19.9317   34.2385 C   0  0  0  0  0  0  0  0  0  0  0  0
   32.5021  -19.7364   34.2077 N   0  0  0  0  0  0  0  0  0  0  0  0
   31.8703  -21.0436   34.2542 C   0  0  0  0  0  0  0  0  0  0  0  0
   31.9363  -18.8450   35.1429 C   0  0  0  0  0  0  0  0  0  0  0  0
   32.8205  -17.9367   35.8950 C   0  0  0  0  0  0  0  0  0  0  0  0
   36.6977  -18.0304   35.5318 C   0  0  0  0  0  0  0  0  0  0  0  0
   37.5558  -18.9415   36.1581 C   0  0  0  0  0  0  0  0  0  0  0  0
   38.6885  -19.4049   35.5246 C   0  0  0  0  0  0  0  0  0  0  0  0
   39.0007  -18.9766   34.2522 C   0  0  0  0  0  0  0  0  0  0  0  0
   38.1508  -18.0710   33.6260 C   0  0  0  0  0  0  0  0  0  0  0  0
   37.0215  -17.6120   34.2633 C   0  0  0  0  0  0  0  0  0  0  0  0
  8  9  1  0  0  0
  9 10  1  0  0  0
  9 11  1  0  0  0
 11 12  2  0  0  0
 11  7  1  0  0  0
  7  1  1  0  0  0
  1  2  2  0  0  0
  2  3  1  0  0  0
  3  4  2  0  0  0
  4  5  1  0  0  0
  5  6  2  0  0  0
  5 15  1  0  0  0
 15 23  1  0  0  0
 23 24  2  0  0  0
 24 25  1  0  0  0
 25 26  2  0  0  0
 26 27  1  0  0  0
 27 28  2  0  0  0
 15 16  1  0  0  0
 16 17  1  0  0  0
 17 18  1  0  0  0
 18 19  1  0  0  0
 19 20  1  0  0  0
 19 21  1  0  0  0
 21 22  1  0  0  0
  7 13  1  0  0  0
 13 14  2  0  0  0
  6  1  1  0  0  0
 28 23  1  0  0  0
 22 16  1  0  0  0
M  END
> <minimizedAffinity>
-6.92907

> <CNNscore>
0.5705655813

> <CNNaffinity>
6.1850252151

> <CNN_VS>
3.5289626122

> <CNNaffinity_variance>
0.0651767924

$$$$
[H]C(=O)C([H])(C(=O)N(C([H])([H])[H])C([H])([H])[H])c1nc(C([H])(B2C([H])([H])C([H])([H])N(C([H])([H])[H])C([H])([H])C2([H])[H])c2c([H])c([H])c([H])c([H])c2[H])nc([H])c1[H]


 28 30  0  0  0  0  0  0  0  0999 V2000
   32.7585  -19.4723   35.7122 C   0  0  0  0  0  0  0  0  0  0  0  0
   32.4366  -18.7938   34.5609 C   0  0  0  0  0  0  0  0  0  0  0  0
   33.2421  -17.7933   34.0750 C   0  0  0  0  0  0  0  0  0  0  0  0
   34.3568  -17.5175   34.7854 N   0  0  0  0  0  0  0  0  0  0  0  0
   34.7068  -18.1548   35.9112 C   0  0  0  0  0  0  0  0  0  0  0  0
   33.8873  -19.1264   36.3482 N   0  0  0  0  0  0  0  0  0  0  0  0
   31.8586  -20.5558   36.2179 C   0  0  0  0  0  0  0  0  0  0  0  0
   33.2898  -22.1237   38.3911 C   0  0  0  0  0  0  0  0  0  0  0  0
   33.1500  -22.5993   37.0450 N   0  0  0  0  0  0  0  0  0  0  0  0
   33.7306  -23.9119   36.7364 C   0  0  0  0  0  0  0  0  0  0  0  0
   32.4909  -21.8906   36.0050 C   0  0  0  0  0  0  0  0  0  0  0  0
   32.4334  -22.3933   34.8704 O   0  0  0  0  0  0  0  0  0  0  0  0
   30.5115  -20.4571   35.5906 C   0  0  0  0  0  0  0  0  0  0  0  0
   29.4800  -20.2469   36.2025 O   0  0  0  0  0  0  0  0  0  0  0  0
   35.9513  -17.7500   36.5854 C   0  0  0  0  0  0  0  0  0  0  0  0
   37.2588  -18.0549   35.7419 B   0  0  0  0  0  0  0  0  0  0  0  0
   38.4622  -18.7254   36.5735 C   0  0  0  0  0  0  0  0  0  0  0  0
   38.3966  -20.2014   36.1519 C   0  0  0  0  0  0  0  0  0  0  0  0
   38.8358  -20.2671   34.8014 N   0  0  0  0  0  0  0  0  0  0  0  0
   39.0056  -21.6679   34.4563 C   0  0  0  0  0  0  0  0  0  0  0  0
   38.0891  -19.5720   33.8274 C   0  0  0  0  0  0  0  0  0  0  0  0
   37.0907  -18.5787   34.2619 C   0  0  0  0  0  0  0  0  0  0  0  0
   35.8848  -16.2775   36.7808 C   0  0  0  0  0  0  0  0  0  0  0  0
   36.9830  -15.6172   37.3436 C   0  0  0  0  0  0  0  0  0  0  0  0
   36.9694  -14.2537   37.5425 C   0  0  0  0  0  0  0  0  0  0  0  0
   35.8655  -13.5081   37.1884 C   0  0  0  0  0  0  0  0  0  0  0  0
   34.7718  -14.1602   36.6289 C   0  0  0  0  0  0  0  0  0  0  0  0
   34.7911  -15.5216   36.4326 C   0  0  0  0  0  0  0  0  0  0  0  0
  8  9  1  0  0  0
  9 10  1  0  0  0
  9 11  1  0  0  0
 11 12  2  0  0  0
 11  7  1  0  0  0
  7  1  1  0  0  0
  1  2  2  0  0  0
  2  3  1  0  0  0
  3  4  2  0  0  0
  4  5  1  0  0  0
  5  6  2  0  0  0
  5 15  1  0  0  0
 15 23  1  0  0  0
 23 24  2  0  0  0
 24 25  1  0  0  0
 25 26  2  0  0  0
 26 27  1  0  0  0
 27 28  2  0  0  0
 15 16  1  0  0  0
 16 17  1  0  0  0
 17 18  1  0  0  0
 18 19  1  0  0  0
 19 20  1  0  0  0
 19 21  1  0  0  0
 21 22  1  0  0  0
  7 13  1  0  0  0
 13 14  2  0  0  0
  6  1  1  0  0  0
 28 23  1  0  0  0
 22 16  1  0  0  0
M  END
> <minimizedAffinity>
-7.36435

> <CNNscore>
0.4545082152

> <CNNaffinity>
5.1483054161

> <CNN_VS>
2.3399472237

> <CNNaffinity_variance>
0.5809174180

$$$$
[H]C(=O)C([H])(C(=O)N(C([H])([H])[H])C([H])([H])[H])c1nc(C([H])(B2C([H])([H])C([H])([H])N(C([H])([H])[H])C([H])([H])C2([H])[H])c2c([H])c([H])c([H])c([H])c2[H])nc([H])c1[H]


 28 30  0  0  0  0  0  0  0  0999 V2000
   36.6988  -21.6816   38.3867 C   0  0  0  0  0  0  0  0  0  0  0  0
   36.2090  -21.6353   39.6702 C   0  0  0  0  0  0  0  0  0  0  0  0
   35.2967  -20.6819   40.0504 C   0  0  0  0  0  0  0  0  0  0  0  0
   34.9123  -19.8020   39.1010 N   0  0  0  0  0  0  0  0  0  0  0  0
   35.3649  -19.8127   37.8397 C   0  0  0  0  0  0  0  0  0  0  0  0
   36.2566  -20.7642   37.5142 N   0  0  0  0  0  0  0  0  0  0  0  0
   37.6945  -22.7311   38.0038 C   0  0  0  0  0  0  0  0  0  0  0  0
   39.4962  -24.8113   39.2906 C   0  0  0  0  0  0  0  0  0  0  0  0
   39.8436  -23.4224   39.1999 N   0  0  0  0  0  0  0  0  0  0  0  0
   41.1404  -23.0202   39.7583 C   0  0  0  0  0  0  0  0  0  0  0  0
   39.0236  -22.4243   38.6087 C   0  0  0  0  0  0  0  0  0  0  0  0
   39.4196  -21.2469   38.5897 O   0  0  0  0  0  0  0  0  0  0  0  0
   37.7626  -22.8771   36.5232 C   0  0  0  0  0  0  0  0  0  0  0  0
   38.7893  -23.0630   35.8955 O   0  0  0  0  0  0  0  0  0  0  0  0
   34.8602  -18.7912   36.9074 C   0  0  0  0  0  0  0  0  0  0  0  0
   35.9358  -18.3142   35.8447 B   0  0  0  0  0  0  0  0  0  0  0  0
   37.2156  -17.5614   36.4651 C   0  0  0  0  0  0  0  0  0  0  0  0
   38.3111  -18.6375   36.4135 C   0  0  0  0  0  0  0  0  0  0  0  0
   38.6508  -18.8186   35.0449 N   0  0  0  0  0  0  0  0  0  0  0  0
   39.8385  -19.6530   34.9878 C   0  0  0  0  0  0  0  0  0  0  0  0
   37.6449  -19.2741   34.1673 C   0  0  0  0  0  0  0  0  0  0  0  0
   36.2401  -19.2538   34.6129 C   0  0  0  0  0  0  0  0  0  0  0  0
   33.7351  -19.4042   36.1529 C   0  0  0  0  0  0  0  0  0  0  0  0
   32.8540  -18.5720   35.4530 C   0  0  0  0  0  0  0  0  0  0  0  0
   31.7979  -19.0934   34.7377 C   0  0  0  0  0  0  0  0  0  0  0  0
   31.5872  -20.4549   34.6974 C   0  0  0  0  0  0  0  0  0  0  0  0
   32.4603  -21.2858   35.3916 C   0  0  0  0  0  0  0  0  0  0  0  0
   33.5129  -20.7596   36.1039 C   0  0  0  0  0  0  0  0  0  0  0  0
  8  9  1  0  0  0
  9 10  1  0  0  0
  9 11  1  0  0  0
 11 12  2  0  0  0
 11  7  1  0  0  0
  7  1  1  0  0  0
  1  2  2  0  0  0
  2  3  1  0  0  0
  3  4  2  0  0  0
  4  5  1  0  0  0
  5  6  2  0  0  0
  5 15  1  0  0  0
 15 23  1  0  0  0
 23 24  2  0  0  0
 24 25  1  0  0  0
 25 26  2  0  0  0
 26 27  1  0  0  0
 27 28  2  0  0  0
 15 16  1  0  0  0
 16 17  1  0  0  0
 17 18  1  0  0  0
 18 19  1  0  0  0
 19 20  1  0  0  0
 19 21  1  0  0  0
 21 22  1  0  0  0
  7 13  1  0  0  0
 13 14  2  0  0  0
  6  1  1  0  0  0
 28 23  1  0  0  0
 22 16  1  0  0  0
M  END
> <minimizedAffinity>
-4.36574

> <CNNscore>
0.4250638187

> <CNNaffinity>
4.7519683838

> <CNN_VS>
2.0198898315

> <CNNaffinity_variance>
0.2798482478

$$$$
[H]C(=O)C([H])(C(=O)N(C([H])([H])[H])C([H])([H])[H])c1nc(C([H])(B2C([H])([H])C([H])([H])N(C([H])([H])[H])C([H])([H])C2([H])[H])c2c([H])c([H])c([H])c([H])c2[H])nc([H])c1[H]


 28 30  0  0  0  0  0  0  0  0999 V2000
   33.7497  -21.2469   37.1501 C   0  0  0  0  0  0  0  0  0  0  0  0
   33.7617  -21.3371   38.5217 C   0  0  0  0  0  0  0  0  0  0  0  0
   34.7076  -20.6807   39.2703 C   0  0  0  0  0  0  0  0  0  0  0  0
   35.6153  -19.9492   38.5889 N   0  0  0  0  0  0  0  0  0  0  0  0
   35.6383  -19.8350   37.2538 C   0  0  0  0  0  0  0  0  0  0  0  0
   34.6929  -20.4954   36.5636 N   0  0  0  0  0  0  0  0  0  0  0  0
   32.7074  -21.9764   36.3620 C   0  0  0  0  0  0  0  0  0  0  0  0
   32.2544  -20.1542   33.9738 C   0  0  0  0  0  0  0  0  0  0  0  0
   31.3182  -20.2778   35.0536 N   0  0  0  0  0  0  0  0  0  0  0  0
   30.0899  -19.4783   34.9678 C   0  0  0  0  0  0  0  0  0  0  0  0
   31.5006  -21.1167   36.1855 C   0  0  0  0  0  0  0  0  0  0  0  0
   30.6271  -21.1425   37.0685 O   0  0  0  0  0  0  0  0  0  0  0  0
   32.3867  -23.2847   36.9973 C   0  0  0  0  0  0  0  0  0  0  0  0
   32.7342  -24.3667   36.5601 O   0  0  0  0  0  0  0  0  0  0  0  0
   36.6875  -19.0034   36.6415 C   0  0  0  0  0  0  0  0  0  0  0  0
   37.1194  -19.4887   35.1952 B   0  0  0  0  0  0  0  0  0  0  0  0
   37.5283  -18.3109   34.1779 C   0  0  0  0  0  0  0  0  0  0  0  0
   39.0631  -18.3818   34.1622 C   0  0  0  0  0  0  0  0  0  0  0  0
   39.4165  -19.5713   33.4684 N   0  0  0  0  0  0  0  0  0  0  0  0
   40.8502  -19.5420   33.2366 C   0  0  0  0  0  0  0  0  0  0  0  0
   38.9960  -20.8039   34.0099 C   0  0  0  0  0  0  0  0  0  0  0  0
   37.9746  -20.8103   35.0725 C   0  0  0  0  0  0  0  0  0  0  0  0
   36.1323  -17.6314   36.4998 C   0  0  0  0  0  0  0  0  0  0  0  0
   36.8815  -16.5446   36.9647 C   0  0  0  0  0  0  0  0  0  0  0  0
   36.4100  -15.2545   36.8537 C   0  0  0  0  0  0  0  0  0  0  0  0
   35.1821  -15.0076   36.2784 C   0  0  0  0  0  0  0  0  0  0  0  0
   34.4340  -16.0848   35.8151 C   0  0  0  0  0  0  0  0  0  0  0  0
   34.9098  -17.3705   35.9285 C   0  0  0  0  0  0  0  0  0  0  0  0
  8  9  1  0  0  0
  9 10  1  0  0  0
  9 11  1  0  0  0
 11 12  2  0  0  0
 11  7  1  0  0  0
  7  1  1  0  0  0
  1  2  2  0  0  0
  2  3  1  0  0  0
  3  4  2  0  0  0
  4  5  1  0  0  0
  5  6  2  0  0  0
  5 15  1  0  0  0
 15 23  1  0  0  0
 23 24  2  0  0  0
 24 25  1  0  0  0
 25 26  2  0  0  0
 26 27  1  0  0  0
 27 28  2  0  0  0
 15 16  1  0  0  0
 16 17  1  0  0  0
 17 18  1  0  0  0
 18 19  1  0  0  0
 19 20  1  0  0  0
 19 21  1  0  0  0
 21 22  1  0  0  0
  7 13  1  0  0  0
 13 14  2  0  0  0
  6  1  1  0  0  0
 28 23  1  0  0  0
 22 16  1  0  0  0
M  END
> <minimizedAffinity>
-6.01351

> <CNNscore>
0.4002979100

> <CNNaffinity>
5.0429253578

> <CNN_VS>
2.0186724663

> <CNNaffinity_variance>
0.2972907722

$$$$
[H]C(=O)C([H])(C(=O)N(C([H])([H])[H])C([H])([H])[H])c1nc(C([H])(B2C([H])([H])C([H])([H])N(C([H])([H])[H])C([H])([H])C2([H])[H])c2c([H])c([H])c([H])c([H])c2[H])nc([H])c1[H]


 28 30  0  0  0  0  0  0  0  0999 V2000
   35.8635  -13.6038   37.0971 C   0  0  0  0  0  0  0  0  0  0  0  0
   37.1781  -13.5254   37.4911 C   0  0  0  0  0  0  0  0  0  0  0  0
   37.9372  -14.6561   37.6678 C   0  0  0  0  0  0  0  0  0  0  0  0
   37.3247  -15.8367   37.4345 N   0  0  0  0  0  0  0  0  0  0  0  0
   36.0468  -15.9565   37.0492 C   0  0  0  0  0  0  0  0  0  0  0  0
   35.3436  -14.8224   36.8894 N   0  0  0  0  0  0  0  0  0  0  0  0
   35.0615  -12.3534   36.9159 C   0  0  0  0  0  0  0  0  0  0  0  0
   32.9690  -10.4086   37.9495 C   0  0  0  0  0  0  0  0  0  0  0  0
   32.6502  -11.7268   37.4820 N   0  0  0  0  0  0  0  0  0  0  0  0
   31.2367  -12.1222   37.5106 C   0  0  0  0  0  0  0  0  0  0  0  0
   33.6036  -12.6613   36.9963 C   0  0  0  0  0  0  0  0  0  0  0  0
   33.2186  -13.7814   36.6216 O   0  0  0  0  0  0  0  0  0  0  0  0
   35.4302  -11.6709   35.6445 C   0  0  0  0  0  0  0  0  0  0  0  0
   35.7190  -10.4916   35.5541 O   0  0  0  0  0  0  0  0  0  0  0  0
   35.5065  -17.3085   36.8310 C   0  0  0  0  0  0  0  0  0  0  0  0
   34.9014  -17.5244   35.3815 B   0  0  0  0  0  0  0  0  0  0  0  0
   35.3229  -18.9040   34.6685 C   0  0  0  0  0  0  0  0  0  0  0  0
   34.0670  -19.7749   34.8259 C   0  0  0  0  0  0  0  0  0  0  0  0
   33.0754  -19.2330   33.9632 N   0  0  0  0  0  0  0  0  0  0  0  0
   31.9656  -20.1691   33.9173 C   0  0  0  0  0  0  0  0  0  0  0  0
   32.6404  -17.9125   34.2010 C   0  0  0  0  0  0  0  0  0  0  0  0
   33.4192  -17.0528   35.1102 C   0  0  0  0  0  0  0  0  0  0  0  0
   36.6369  -18.2621   36.9846 C   0  0  0  0  0  0  0  0  0  0  0  0
   36.4884  -19.3583   37.8419 C   0  0  0  0  0  0  0  0  0  0  0  0
   37.5068  -20.2703   38.0154 C   0  0  0  0  0  0  0  0  0  0  0  0
   38.7005  -20.1193   37.3430 C   0  0  0  0  0  0  0  0  0  0  0  0
   38.8525  -19.0312   36.4901 C   0  0  0  0  0  0  0  0  0  0  0  0
   37.8324  -18.1241   36.3208 C   0  0  0  0  0  0  0  0  0  0  0  0
  8  9  1  0  0  0
  9 10  1  0  0  0
  9 11  1  0  0  0
 11 12  2  0  0  0
 11  7  1  0  0  0
  7  1  1  0  0  0
  1  2  2  0  0  0
  2  3  1  0  0  0
  3  4  2  0  0  0
  4  5  1  0  0  0
  5  6  2  0  0  0
  5 15  1  0  0  0
 15 23  1  0  0  0
 23 24  2  0  0  0
 24 25  1  0  0  0
 25 26  2  0  0  0
 26 27  1  0  0  0
 27 28  2  0  0  0
 15 16  1  0  0  0
 16 17  1  0  0  0
 17 18  1  0  0  0
 18 19  1  0  0  0
 19 20  1  0  0  0
 19 21  1  0  0  0
 21 22  1  0  0  0
  7 13  1  0  0  0
 13 14  2  0  0  0
  6  1  1  0  0  0
 28 23  1  0  0  0
 22 16  1  0  0  0
M  END
> <minimizedAffinity>
-6.92712

> <CNNscore>
0.3857319355

> <CNNaffinity>
6.0085678101

> <CNN_VS>
2.3176965714

> <CNNaffinity_variance>
0.0123267183

$$$$
[H]c1nc(S(=O)(=O)N([H])C([H])([H])C(=O)[C@@]([H])(N([H])C(=O)O[C@]([H])(C([H])([H])n2nc(-c3c([H])c([H])c(C(F)(F)F)c([H])c3[H])c([H])c2[H])C(C([H])([H])[H])(C([H])([H])[H])C([H])([H])[H])C([H])([H])C([H])([H])C([H])([H])C([H])([H])[H])c([H])c([H])c1[H]


 45 47  0  0  0  0  0  0  0  0999 V2000
   37.8301  -19.6725   37.5324 N   0  0  0  0  0  0  0  0  0  0  0  0
   39.0556  -20.2663   37.3384 C   0  0  0  0  0  0  0  0  0  0  0  0
   39.8617  -20.6595   38.2255 O   0  0  0  0  0  0  0  0  0  0  0  0
   38.0523  -19.8018   38.8862 H   0  0  0  0  0  0  0  0  0  0  0  0
   36.6347  -19.0883   37.8165 C   0  0  0  0  0  0  0  0  0  0  0  0
   35.4026  -19.8608   38.1107 C   0  0  0  0  0  0  0  0  0  0  0  0
   34.8908  -19.7696   39.2432 O   0  0  0  0  0  0  0  0  0  0  0  0
   34.6797  -20.7544   37.1880 C   0  0  0  0  0  0  0  0  0  0  0  0
   33.3037  -20.7888   37.5948 N   0  0  0  0  0  0  0  0  0  0  0  0
   32.6691  -20.1543   37.1013 H   0  0  0  0  0  0  0  0  0  0  0  0
   32.6843  -22.3436   37.9123 S   0  0  0  0  0  0  0  0  0  0  0  0
   31.9325  -22.4273   39.2205 O   0  0  0  0  0  0  0  0  0  0  0  0
   31.6892  -22.7478   36.8440 O   0  0  0  0  0  0  0  0  0  0  0  0
   33.9939  -23.4975   37.8842 C   0  0  0  0  0  0  0  0  0  0  0  0
   34.8031  -23.7344   38.9691 C   0  0  0  0  0  0  0  0  0  0  0  0
   35.8506  -24.6572   38.9058 C   0  0  0  0  0  0  0  0  0  0  0  0
   36.0868  -25.3462   37.7402 C   0  0  0  0  0  0  0  0  0  0  0  0
   35.2493  -25.0810   36.6663 C   0  0  0  0  0  0  0  0  0  0  0  0
   34.2367  -24.1847   36.7404 N   0  0  0  0  0  0  0  0  0  0  0  0
   36.2999  -17.8415   37.0120 C   0  0  0  0  0  0  0  0  0  0  0  0
   36.2487  -16.6258   37.8678 C   0  0  0  0  0  0  0  0  0  0  0  0
   36.1753  -14.9210   36.0669 C   0  0  0  0  0  0  0  0  0  0  0  0
   36.9382  -15.4191   37.2756 C   0  0  0  0  0  0  0  0  0  0  0  0
   39.5317  -20.4743   36.0091 O   0  0  0  0  0  0  0  0  0  0  0  0
   39.9383  -19.3335   35.1966 C   0  0  0  0  0  0  0  0  0  0  0  0
   41.4038  -19.4352   35.0765 C   0  0  0  0  0  0  0  0  0  0  0  0
   41.8445  -18.8854   33.6904 C   0  0  0  0  0  0  0  0  0  0  0  0
   41.9776  -20.8327   35.1154 C   0  0  0  0  0  0  0  0  0  0  0  0
   42.1478  -18.6010   36.0962 C   0  0  0  0  0  0  0  0  0  0  0  0
   39.1211  -19.5685   33.9406 C   0  0  0  0  0  0  0  0  0  0  0  0
   37.8161  -19.0553   33.8592 N   0  0  0  0  0  0  0  0  0  0  0  0
   37.5006  -17.8534   33.3585 C   0  0  0  0  0  0  0  0  0  0  0  0
   36.1702  -17.6496   33.4176 C   0  0  0  0  0  0  0  0  0  0  0  0
   35.6129  -18.8058   33.9943 C   0  0  0  0  0  0  0  0  0  0  0  0
   36.6578  -19.5977   34.2306 N   0  0  0  0  0  0  0  0  0  0  0  0
   34.1905  -18.9699   34.2309 C   0  0  0  0  0  0  0  0  0  0  0  0
   33.5155  -20.0403   33.6905 C   0  0  0  0  0  0  0  0  0  0  0  0
   32.1655  -20.2124   33.8887 C   0  0  0  0  0  0  0  0  0  0  0  0
   31.4306  -19.3213   34.6358 C   0  0  0  0  0  0  0  0  0  0  0  0
   32.0845  -18.2356   35.1931 C   0  0  0  0  0  0  0  0  0  0  0  0
   33.4562  -18.0880   34.9747 C   0  0  0  0  0  0  0  0  0  0  0  0
   29.9684  -19.4796   34.8354 C   0  0  0  0  0  0  0  0  0  0  0  0
   29.4690  -18.4710   35.6131 F   0  0  0  0  0  0  0  0  0  0  0  0
   29.3868  -19.5090   33.5872 F   0  0  0  0  0  0  0  0  0  0  0  0
   29.7244  -20.7209   35.4055 F   0  0  0  0  0  0  0  0  0  0  0  0
 22 23  1  0  0  0
 23 21  1  0  0  0
 21 20  1  0  0  0
 20  5  1  0  0  0
  5  1  1  0  0  0
  1  2  1  0  0  0
  2  3  2  0  0  0
  2 24  1  0  0  0
 24 25  1  0  0  0
 25 30  1  0  0  0
 30 31  1  0  0  0
 31 32  1  0  0  0
 32 33  2  0  0  0
 33 34  1  0  0  0
 34 35  2  0  0  0
 34 36  1  0  0  0
 36 37  2  0  0  0
 37 38  1  0  0  0
 38 39  2  0  0  0
 39 40  1  0  0  0
 40 41  2  0  0  0
 39 42  1  0  0  0
 42 43  1  0  0  0
 42 44  1  0  0  0
 42 45  1  0  0  0
 25 26  1  0  0  0
 26 27  1  0  0  0
 26 28  1  0  0  0
 26 29  1  0  0  0
  5  6  1  0  0  0
  6  7  2  0  0  0
  6  8  1  0  0  0
  8  9  1  0  0  0
  9 11  1  0  0  0
 11 12  2  0  0  0
 11 13  2  0  0  0
 11 14  1  0  0  0
 14 15  2  0  0  0
 15 16  1  0  0  0
 16 17  2  0  0  0
 17 18  1  0  0  0
 18 19  2  0  0  0
 35 31  1  0  0  0
 41 36  1  0  0  0
 19 14  1  0  0  0
  1  4  1  0  0  0
  9 10  1  0  0  0
M  END
> <minimizedAffinity>
-5.67193

> <CNNscore>
0.1888161302

> <CNNaffinity>
6.0435361862

> <CNN_VS>
1.1411170959

> <CNNaffinity_variance>
0.5347660184

$$$$
[H]c1nc(S(=O)(=O)N([H])C([H])([H])C(=O)[C@@]([H])(N([H])C(=O)O[C@]([H])(C([H])([H])n2nc(-c3c([H])c([H])c(C(F)(F)F)c([H])c3[H])c([H])c2[H])C(C([H])([H])[H])(C([H])([H])[H])C([H])([H])[H])C([H])([H])C([H])([H])C([H])([H])C([H])([H])[H])c([H])c([H])c1[H]


 45 47  0  0  0  0  0  0  0  0999 V2000
   37.8660  -19.9807   37.5996 N   0  0  0  0  0  0  0  0  0  0  0  0
   39.1782  -20.2781   37.3136 C   0  0  0  0  0  0  0  0  0  0  0  0
   40.1253  -20.4173   38.1351 O   0  0  0  0  0  0  0  0  0  0  0  0
   38.2233  -19.9748   38.9304 H   0  0  0  0  0  0  0  0  0  0  0  0
   36.5926  -19.6802   37.9728 C   0  0  0  0  0  0  0  0  0  0  0  0
   35.5057  -20.6880   38.0368 C   0  0  0  0  0  0  0  0  0  0  0  0
   34.6655  -20.7267   37.1173 O   0  0  0  0  0  0  0  0  0  0  0  0
   35.2936  -21.6915   39.0954 C   0  0  0  0  0  0  0  0  0  0  0  0
   36.0138  -21.2623   40.2604 N   0  0  0  0  0  0  0  0  0  0  0  0
   36.8383  -20.6782   40.0941 H   0  0  0  0  0  0  0  0  0  0  0  0
   35.0405  -20.7970   41.5788 S   0  0  0  0  0  0  0  0  0  0  0  0
   35.8407  -20.4307   42.8072 O   0  0  0  0  0  0  0  0  0  0  0  0
   34.2341  -19.5617   41.2346 O   0  0  0  0  0  0  0  0  0  0  0  0
   33.9166  -22.0826   41.9416 C   0  0  0  0  0  0  0  0  0  0  0  0
   34.3189  -23.3445   42.3073 C   0  0  0  0  0  0  0  0  0  0  0  0
   33.3900  -24.3527   42.5781 C   0  0  0  0  0  0  0  0  0  0  0  0
   32.0447  -24.0892   42.4786 C   0  0  0  0  0  0  0  0  0  0  0  0
   31.6763  -22.8041   42.1073 C   0  0  0  0  0  0  0  0  0  0  0  0
   32.5864  -21.8351   41.8481 N   0  0  0  0  0  0  0  0  0  0  0  0
   36.0533  -18.3490   37.4719 C   0  0  0  0  0  0  0  0  0  0  0  0
   37.1468  -17.4092   37.1063 C   0  0  0  0  0  0  0  0  0  0  0  0
   35.4859  -15.6219   36.6571 C   0  0  0  0  0  0  0  0  0  0  0  0
   36.8092  -15.9514   37.3140 C   0  0  0  0  0  0  0  0  0  0  0  0
   39.5795  -20.4447   35.9541 O   0  0  0  0  0  0  0  0  0  0  0  0
   39.9138  -19.2766   35.1475 C   0  0  0  0  0  0  0  0  0  0  0  0
   41.3753  -19.3281   34.9627 C   0  0  0  0  0  0  0  0  0  0  0  0
   41.8534  -20.8044   35.0620 C   0  0  0  0  0  0  0  0  0  0  0  0
   42.2015  -18.6050   36.0010 C   0  0  0  0  0  0  0  0  0  0  0  0
   41.8239  -18.8500   33.5991 C   0  0  0  0  0  0  0  0  0  0  0  0
   39.0508  -19.5152   33.9232 C   0  0  0  0  0  0  0  0  0  0  0  0
   37.7376  -19.0173   33.8958 N   0  0  0  0  0  0  0  0  0  0  0  0
   37.3998  -17.7823   33.5014 C   0  0  0  0  0  0  0  0  0  0  0  0
   36.0671  -17.6050   33.5880 C   0  0  0  0  0  0  0  0  0  0  0  0
   35.5323  -18.8144   34.0686 C   0  0  0  0  0  0  0  0  0  0  0  0
   36.5909  -19.6071   34.2287 N   0  0  0  0  0  0  0  0  0  0  0  0
   34.1146  -19.0201   34.3014 C   0  0  0  0  0  0  0  0  0  0  0  0
   33.4069  -18.1459   35.0939 C   0  0  0  0  0  0  0  0  0  0  0  0
   32.0659  -18.3249   35.3408 C   0  0  0  0  0  0  0  0  0  0  0  0
   31.3732  -19.3865   34.8065 C   0  0  0  0  0  0  0  0  0  0  0  0
   32.0600  -20.2813   34.0036 C   0  0  0  0  0  0  0  0  0  0  0  0
   33.4214  -20.0727   33.7706 C   0  0  0  0  0  0  0  0  0  0  0  0
   29.9325  -19.6073   35.0865 C   0  0  0  0  0  0  0  0  0  0  0  0
   29.3621  -18.4874   35.6271 F   0  0  0  0  0  0  0  0  0  0  0  0
   29.3369  -19.9713   33.8991 F   0  0  0  0  0  0  0  0  0  0  0  0
   29.8015  -20.6971   35.9354 F   0  0  0  0  0  0  0  0  0  0  0  0
 22 23  1  0  0  0
 23 21  1  0  0  0
 21 20  1  0  0  0
 20  5  1  0  0  0
  5  1  1  0  0  0
  1  2  1  0  0  0
  2  3  2  0  0  0
  2 24  1  0  0  0
 24 25  1  0  0  0
 25 30  1  0  0  0
 30 31  1  0  0  0
 31 32  1  0  0  0
 32 33  2  0  0  0
 33 34  1  0  0  0
 34 35  2  0  0  0
 34 36  1  0  0  0
 36 37  2  0  0  0
 37 38  1  0  0  0
 38 39  2  0  0  0
 39 40  1  0  0  0
 40 41  2  0  0  0
 39 42  1  0  0  0
 42 43  1  0  0  0
 42 44  1  0  0  0
 42 45  1  0  0  0
 25 26  1  0  0  0
 26 27  1  0  0  0
 26 28  1  0  0  0
 26 29  1  0  0  0
  5  6  1  0  0  0
  6  7  2  0  0  0
  6  8  1  0  0  0
  8  9  1  0  0  0
  9 11  1  0  0  0
 11 12  2  0  0  0
 11 13  2  0  0  0
 11 14  1  0  0  0
 14 15  2  0  0  0
 15 16  1  0  0  0
 16 17  2  0  0  0
 17 18  1  0  0  0
 18 19  2  0  0  0
 35 31  1  0  0  0
 41 36  1  0  0  0
 19 14  1  0  0  0
  1  4  1  0  0  0
  9 10  1  0  0  0
M  END
> <minimizedAffinity>
-5.57737

> <CNNscore>
0.1858789623

> <CNNaffinity>
6.0743150711

> <CNN_VS>
1.1290873289

> <CNNaffinity_variance>
0.3117187619

$$$$
[H]c1nc(S(=O)(=O)N([H])C([H])([H])C(=O)[C@@]([H])(N([H])C(=O)O[C@]([H])(C([H])([H])n2nc(-c3c([H])c([H])c(C(F)(F)F)c([H])c3[H])c([H])c2[H])C(C([H])([H])[H])(C([H])([H])[H])C([H])([H])[H])C([H])([H])C([H])([H])C([H])([H])C([H])([H])[H])c([H])c([H])c1[H]


 45 47  0  0  0  0  0  0  0  0999 V2000
   39.8790  -21.4289   40.5449 N   0  0  0  0  0  0  0  0  0  0  0  0
   40.4450  -21.3235   39.2957 C   0  0  0  0  0  0  0  0  0  0  0  0
   41.3379  -20.5114   38.9289 O   0  0  0  0  0  0  0  0  0  0  0  0
   40.7094  -20.4022   40.9386 H   0  0  0  0  0  0  0  0  0  0  0  0
   39.3710  -21.4595   41.8067 C   0  0  0  0  0  0  0  0  0  0  0  0
   37.9607  -21.8100   42.1062 C   0  0  0  0  0  0  0  0  0  0  0  0
   37.5563  -21.7272   43.2820 O   0  0  0  0  0  0  0  0  0  0  0  0
   36.9387  -22.2573   41.1429 C   0  0  0  0  0  0  0  0  0  0  0  0
   36.4433  -21.0987   40.4557 N   0  0  0  0  0  0  0  0  0  0  0  0
   36.9711  -20.8011   39.6301 H   0  0  0  0  0  0  0  0  0  0  0  0
   34.7480  -21.0169   40.3098 S   0  0  0  0  0  0  0  0  0  0  0  0
   34.2936  -20.3639   39.0251 O   0  0  0  0  0  0  0  0  0  0  0  0
   34.1480  -22.4079   40.2942 O   0  0  0  0  0  0  0  0  0  0  0  0
   34.0955  -20.1709   41.6904 C   0  0  0  0  0  0  0  0  0  0  0  0
   34.8045  -19.2234   42.3885 C   0  0  0  0  0  0  0  0  0  0  0  0
   34.2538  -18.5753   43.4972 C   0  0  0  0  0  0  0  0  0  0  0  0
   32.9792  -18.8846   43.9080 C   0  0  0  0  0  0  0  0  0  0  0  0
   32.2938  -19.8457   43.1787 C   0  0  0  0  0  0  0  0  0  0  0  0
   32.8384  -20.4663   42.1052 N   0  0  0  0  0  0  0  0  0  0  0  0
   39.8550  -20.3615   42.7415 C   0  0  0  0  0  0  0  0  0  0  0  0
   41.0085  -20.8057   43.5691 C   0  0  0  0  0  0  0  0  0  0  0  0
   42.7549  -19.4579   44.7043 C   0  0  0  0  0  0  0  0  0  0  0  0
   41.3106  -19.9088   44.7467 C   0  0  0  0  0  0  0  0  0  0  0  0
   40.0053  -22.1906   38.2509 O   0  0  0  0  0  0  0  0  0  0  0  0
   39.7232  -21.6475   36.9271 C   0  0  0  0  0  0  0  0  0  0  0  0
   40.0040  -22.7429   35.9817 C   0  0  0  0  0  0  0  0  0  0  0  0
   41.1591  -22.3175   35.0317 C   0  0  0  0  0  0  0  0  0  0  0  0
   38.8784  -23.1164   35.0451 C   0  0  0  0  0  0  0  0  0  0  0  0
   40.4833  -24.0091   36.6571 C   0  0  0  0  0  0  0  0  0  0  0  0
   38.2753  -21.2264   37.0909 C   0  0  0  0  0  0  0  0  0  0  0  0
   37.8592  -19.9776   36.6004 N   0  0  0  0  0  0  0  0  0  0  0  0
   38.1900  -19.4826   35.4002 C   0  0  0  0  0  0  0  0  0  0  0  0
   37.6377  -18.2670   35.2204 C   0  0  0  0  0  0  0  0  0  0  0  0
   36.9084  -17.9812   36.3892 C   0  0  0  0  0  0  0  0  0  0  0  0
   37.0897  -19.0489   37.1650 N   0  0  0  0  0  0  0  0  0  0  0  0
   36.1666  -16.7488   36.5823 C   0  0  0  0  0  0  0  0  0  0  0  0
   34.9885  -16.5339   35.9048 C   0  0  0  0  0  0  0  0  0  0  0  0
   34.2728  -15.3698   36.0600 C   0  0  0  0  0  0  0  0  0  0  0  0
   34.7039  -14.3688   36.8993 C   0  0  0  0  0  0  0  0  0  0  0  0
   35.8857  -14.5589   37.5951 C   0  0  0  0  0  0  0  0  0  0  0  0
   36.5900  -15.7520   37.4173 C   0  0  0  0  0  0  0  0  0  0  0  0
   33.9561  -13.0963   37.0557 C   0  0  0  0  0  0  0  0  0  0  0  0
   33.7229  -12.8253   38.3763 F   0  0  0  0  0  0  0  0  0  0  0  0
   34.6985  -12.1090   36.4467 F   0  0  0  0  0  0  0  0  0  0  0  0
   32.7683  -13.1826   36.3436 F   0  0  0  0  0  0  0  0  0  0  0  0
 22 23  1  0  0  0
 23 21  1  0  0  0
 21 20  1  0  0  0
 20  5  1  0  0  0
  5  1  1  0  0  0
  1  2  1  0  0  0
  2  3  2  0  0  0
  2 24  1  0  0  0
 24 25  1  0  0  0
 25 30  1  0  0  0
 30 31  1  0  0  0
 31 32  1  0  0  0
 32 33  2  0  0  0
 33 34  1  0  0  0
 34 35  2  0  0  0
 34 36  1  0  0  0
 36 37  2  0  0  0
 37 38  1  0  0  0
 38 39  2  0  0  0
 39 40  1  0  0  0
 40 41  2  0  0  0
 39 42  1  0  0  0
 42 43  1  0  0  0
 42 44  1  0  0  0
 42 45  1  0  0  0
 25 26  1  0  0  0
 26 27  1  0  0  0
 26 28  1  0  0  0
 26 29  1  0  0  0
  5  6  1  0  0  0
  6  7  2  0  0  0
  6  8  1  0  0  0
  8  9  1  0  0  0
  9 11  1  0  0  0
 11 12  2  0  0  0
 11 13  2  0  0  0
 11 14  1  0  0  0
 14 15  2  0  0  0
 15 16  1  0  0  0
 16 17  2  0  0  0
 17 18  1  0  0  0
 18 19  2  0  0  0
 35 31  1  0  0  0
 41 36  1  0  0  0
 19 14  1  0  0  0
  1  4  1  0  0  0
  9 10  1  0  0  0
M  END
> <minimizedAffinity>
-5.98804

> <CNNscore>
0.1508415788

> <CNNaffinity>
6.0631799698

> <CNN_VS>
0.9145796299

> <CNNaffinity_variance>
0.4053429663

$$$$
[H]c1nc(S(=O)(=O)N([H])C([H])([H])C(=O)[C@@]([H])(N([H])C(=O)O[C@]([H])(C([H])([H])n2nc(-c3c([H])c([H])c(C(F)(F)F)c([H])c3[H])c([H])c2[H])C(C([H])([H])[H])(C([H])([H])[H])C([H])([H])[H])C([H])([H])C([H])([H])C([H])([H])C([H])([H])[H])c([H])c([H])c1[H]


 45 47  0  0  0  0  0  0  0  0999 V2000
   37.9075  -20.1431   37.7087 N   0  0  0  0  0  0  0  0  0  0  0  0
   39.2554  -20.2734   37.4675 C   0  0  0  0  0  0  0  0  0  0  0  0
   40.1877  -20.2541   38.3171 O   0  0  0  0  0  0  0  0  0  0  0  0
   38.2211  -20.0395   39.0465 H   0  0  0  0  0  0  0  0  0  0  0  0
   36.5950  -20.0011   38.0378 C   0  0  0  0  0  0  0  0  0  0  0  0
   35.6130  -21.1105   37.9578 C   0  0  0  0  0  0  0  0  0  0  0  0
   35.8124  -22.1407   38.6300 O   0  0  0  0  0  0  0  0  0  0  0  0
   34.3796  -21.1410   37.1515 C   0  0  0  0  0  0  0  0  0  0  0  0
   33.2656  -20.9884   38.0436 N   0  0  0  0  0  0  0  0  0  0  0  0
   32.7047  -20.1395   37.9275 H   0  0  0  0  0  0  0  0  0  0  0  0
   32.3829  -22.4138   38.3452 S   0  0  0  0  0  0  0  0  0  0  0  0
   30.9285  -22.3063   37.9495 O   0  0  0  0  0  0  0  0  0  0  0  0
   32.9412  -23.5663   37.5358 O   0  0  0  0  0  0  0  0  0  0  0  0
   32.5282  -22.8298   40.0344 C   0  0  0  0  0  0  0  0  0  0  0  0
   32.0588  -24.0116   40.5550 C   0  0  0  0  0  0  0  0  0  0  0  0
   32.1816  -24.3051   41.9156 C   0  0  0  0  0  0  0  0  0  0  0  0
   32.7805  -23.4009   42.7600 C   0  0  0  0  0  0  0  0  0  0  0  0
   33.2424  -22.2191   42.1987 C   0  0  0  0  0  0  0  0  0  0  0  0
   33.1181  -21.9465   40.8778 N   0  0  0  0  0  0  0  0  0  0  0  0
   35.9475  -18.6884   37.6241 C   0  0  0  0  0  0  0  0  0  0  0  0
   36.9598  -17.6569   37.2718 C   0  0  0  0  0  0  0  0  0  0  0  0
   36.9283  -15.2137   37.7018 C   0  0  0  0  0  0  0  0  0  0  0  0
   36.3742  -16.3315   36.8446 C   0  0  0  0  0  0  0  0  0  0  0  0
   39.7155  -20.4360   36.1263 O   0  0  0  0  0  0  0  0  0  0  0  0
   39.9949  -19.2621   35.3072 C   0  0  0  0  0  0  0  0  0  0  0  0
   41.4593  -19.2341   35.1420 C   0  0  0  0  0  0  0  0  0  0  0  0
   41.8051  -18.7180   33.7165 C   0  0  0  0  0  0  0  0  0  0  0  0
   42.1628  -20.5687   35.2289 C   0  0  0  0  0  0  0  0  0  0  0  0
   42.1515  -18.2832   36.0938 C   0  0  0  0  0  0  0  0  0  0  0  0
   39.1633  -19.5656   34.0756 C   0  0  0  0  0  0  0  0  0  0  0  0
   37.8594  -19.0523   33.9786 N   0  0  0  0  0  0  0  0  0  0  0  0
   37.5539  -17.8330   33.5150 C   0  0  0  0  0  0  0  0  0  0  0  0
   36.2217  -17.6342   33.5460 C   0  0  0  0  0  0  0  0  0  0  0  0
   35.6527  -18.8123   34.0638 C   0  0  0  0  0  0  0  0  0  0  0  0
   36.6932  -19.6104   34.2982 N   0  0  0  0  0  0  0  0  0  0  0  0
   34.2249  -18.9880   34.2559 C   0  0  0  0  0  0  0  0  0  0  0  0
   33.5260  -18.1398   35.0837 C   0  0  0  0  0  0  0  0  0  0  0  0
   32.1753  -18.2920   35.2930 C   0  0  0  0  0  0  0  0  0  0  0  0
   31.4637  -19.2995   34.6839 C   0  0  0  0  0  0  0  0  0  0  0  0
   32.1414  -20.1669   33.8441 C   0  0  0  0  0  0  0  0  0  0  0  0
   33.5130  -19.9866   33.6508 C   0  0  0  0  0  0  0  0  0  0  0  0
   30.0114  -19.4922   34.9218 C   0  0  0  0  0  0  0  0  0  0  0  0
   29.5192  -18.5234   35.7529 F   0  0  0  0  0  0  0  0  0  0  0  0
   29.3918  -19.4847   33.6918 F   0  0  0  0  0  0  0  0  0  0  0  0
   29.8069  -20.7587   35.4507 F   0  0  0  0  0  0  0  0  0  0  0  0
 22 23  1  0  0  0
 23 21  1  0  0  0
 21 20  1  0  0  0
 20  5  1  0  0  0
  5  1  1  0  0  0
  1  2  1  0  0  0
  2  3  2  0  0  0
  2 24  1  0  0  0
 24 25  1  0  0  0
 25 30  1  0  0  0
 30 31  1  0  0  0
 31 32  1  0  0  0
 32 33  2  0  0  0
 33 34  1  0  0  0
 34 35  2  0  0  0
 34 36  1  0  0  0
 36 37  2  0  0  0
 37 38  1  0  0  0
 38 39  2  0  0  0
 39 40  1  0  0  0
 40 41  2  0  0  0
 39 42  1  0  0  0
 42 43  1  0  0  0
 42 44  1  0  0  0
 42 45  1  0  0  0
 25 26  1  0  0  0
 26 27  1  0  0  0
 26 28  1  0  0  0
 26 29  1  0  0  0
  5  6  1  0  0  0
  6  7  2  0  0  0
  6  8  1  0  0  0
  8  9  1  0  0  0
  9 11  1  0  0  0
 11 12  2  0  0  0
 11 13  2  0  0  0
 11 14  1  0  0  0
 14 15  2  0  0  0
 15 16  1  0  0  0
 16 17  2  0  0  0
 17 18  1  0  0  0
 18 19  2  0  0  0
 35 31  1  0  0  0
 41 36  1  0  0  0
 19 14  1  0  0  0
  1  4  1  0  0  0
  9 10  1  0  0  0
M  END
> <minimizedAffinity>
-5.64970

> <CNNscore>
0.1500308663

> <CNNaffinity>
5.8601164818

> <CNN_VS>
0.8791983724

> <CNNaffinity_variance>
0.4605770707

$$$$
[H]c1nc(S(=O)(=O)N([H])C([H])([H])C(=O)[C@@]([H])(N([H])C(=O)O[C@]([H])(C([H])([H])n2nc(-c3c([H])c([H])c(C(F)(F)F)c([H])c3[H])c([H])c2[H])C(C([H])([H])[H])(C([H])([H])[H])C([H])([H])[H])C([H])([H])C([H])([H])C([H])([H])C([H])([H])[H])c([H])c([H])c1[H]


 45 47  0  0  0  0  0  0  0  0999 V2000
   39.7165  -21.3743   38.3779 N   0  0  0  0  0  0  0  0  0  0  0  0
   40.5936  -20.4308   37.8957 C   0  0  0  0  0  0  0  0  0  0  0  0
   41.1522  -19.5055   38.5462 O   0  0  0  0  0  0  0  0  0  0  0  0
   39.8679  -20.7901   39.6167 H   0  0  0  0  0  0  0  0  0  0  0  0
   38.8541  -22.2650   38.9384 C   0  0  0  0  0  0  0  0  0  0  0  0
   37.4046  -22.3001   38.6237 C   0  0  0  0  0  0  0  0  0  0  0  0
   36.6479  -22.9773   39.3461 O   0  0  0  0  0  0  0  0  0  0  0  0
   36.7238  -21.5999   37.5198 C   0  0  0  0  0  0  0  0  0  0  0  0
   35.3560  -22.0344   37.4989 N   0  0  0  0  0  0  0  0  0  0  0  0
   35.1640  -22.9477   37.9205 H   0  0  0  0  0  0  0  0  0  0  0  0
   34.2084  -20.8195   37.8292 S   0  0  0  0  0  0  0  0  0  0  0  0
   33.2625  -21.1852   38.9495 O   0  0  0  0  0  0  0  0  0  0  0  0
   34.8961  -19.5458   38.2761 O   0  0  0  0  0  0  0  0  0  0  0  0
   33.3194  -20.4609   36.3702 C   0  0  0  0  0  0  0  0  0  0  0  0
   32.8912  -19.1954   36.0493 C   0  0  0  0  0  0  0  0  0  0  0  0
   32.1704  -18.9480   34.8780 C   0  0  0  0  0  0  0  0  0  0  0  0
   31.8766  -19.9833   34.0231 C   0  0  0  0  0  0  0  0  0  0  0  0
   32.3255  -21.2468   34.3799 C   0  0  0  0  0  0  0  0  0  0  0  0
   33.0240  -21.4736   35.5178 N   0  0  0  0  0  0  0  0  0  0  0  0
   39.0855  -22.5737   40.4097 C   0  0  0  0  0  0  0  0  0  0  0  0
   39.0802  -21.3414   41.2430 C   0  0  0  0  0  0  0  0  0  0  0  0
   38.4897  -20.2189   43.3751 C   0  0  0  0  0  0  0  0  0  0  0  0
   38.5747  -21.5458   42.6519 C   0  0  0  0  0  0  0  0  0  0  0  0
   40.9382  -20.4364   36.5107 O   0  0  0  0  0  0  0  0  0  0  0  0
   40.4184  -19.3976   35.6289 C   0  0  0  0  0  0  0  0  0  0  0  0
   41.3928  -19.2884   34.5283 C   0  0  0  0  0  0  0  0  0  0  0  0
   41.6042  -20.6901   33.8892 C   0  0  0  0  0  0  0  0  0  0  0  0
   42.7856  -18.8488   34.9160 C   0  0  0  0  0  0  0  0  0  0  0  0
   40.9237  -18.3972   33.3992 C   0  0  0  0  0  0  0  0  0  0  0  0
   39.0517  -19.9626   35.2923 C   0  0  0  0  0  0  0  0  0  0  0  0
   37.9481  -19.0977   35.2081 N   0  0  0  0  0  0  0  0  0  0  0  0
   36.9777  -19.1892   34.2889 C   0  0  0  0  0  0  0  0  0  0  0  0
   36.0608  -18.2187   34.4696 C   0  0  0  0  0  0  0  0  0  0  0  0
   36.4856  -17.4677   35.5810 C   0  0  0  0  0  0  0  0  0  0  0  0
   37.6187  -18.0532   35.9659 N   0  0  0  0  0  0  0  0  0  0  0  0
   35.7565  -16.3217   36.0920 C   0  0  0  0  0  0  0  0  0  0  0  0
   34.5247  -15.9947   35.5735 C   0  0  0  0  0  0  0  0  0  0  0  0
   33.8187  -14.9067   36.0310 C   0  0  0  0  0  0  0  0  0  0  0  0
   34.3136  -14.0971   37.0269 C   0  0  0  0  0  0  0  0  0  0  0  0
   35.5506  -14.4036   37.5683 C   0  0  0  0  0  0  0  0  0  0  0  0
   36.2435  -15.5154   37.0835 C   0  0  0  0  0  0  0  0  0  0  0  0
   33.5753  -12.9042   37.5113 C   0  0  0  0  0  0  0  0  0  0  0  0
   33.2800  -13.0190   38.8422 F   0  0  0  0  0  0  0  0  0  0  0  0
   34.3596  -11.8034   37.2469 F   0  0  0  0  0  0  0  0  0  0  0  0
   32.4234  -12.7501   36.7530 F   0  0  0  0  0  0  0  0  0  0  0  0
 22 23  1  0  0  0
 23 21  1  0  0  0
 21 20  1  0  0  0
 20  5  1  0  0  0
  5  1  1  0  0  0
  1  2  1  0  0  0
  2  3  2  0  0  0
  2 24  1  0  0  0
 24 25  1  0  0  0
 25 30  1  0  0  0
 30 31  1  0  0  0
 31 32  1  0  0  0
 32 33  2  0  0  0
 33 34  1  0  0  0
 34 35  2  0  0  0
 34 36  1  0  0  0
 36 37  2  0  0  0
 37 38  1  0  0  0
 38 39  2  0  0  0
 39 40  1  0  0  0
 40 41  2  0  0  0
 39 42  1  0  0  0
 42 43  1  0  0  0
 42 44  1  0  0  0
 42 45  1  0  0  0
 25 26  1  0  0  0
 26 27  1  0  0  0
 26 28  1  0  0  0
 26 29  1  0  0  0
  5  6  1  0  0  0
  6  7  2  0  0  0
  6  8  1  0  0  0
  8  9  1  0  0  0
  9 11  1  0  0  0
 11 12  2  0  0  0
 11 13  2  0  0  0
 11 14  1  0  0  0
 14 15  2  0  0  0
 15 16  1  0  0  0
 16 17  2  0  0  0
 17 18  1  0  0  0
 18 19  2  0  0  0
 35 31  1  0  0  0
 41 36  1  0  0  0
 19 14  1  0  0  0
  1  4  1  0  0  0
  9 10  1  0  0  0
M  END
> <minimizedAffinity>
-6.72124

> <CNNscore>
0.1383938640

> <CNNaffinity>
6.4374365807

> <CNN_VS>
0.8909017444

> <CNNaffinity_variance>
0.3702217042

$$$$
[H]c1nc(S(=O)(=O)N([H])C([H])([H])C(=O)[C@@]([H])(N([H])C(=O)O[C@]([H])(C([H])([H])n2nc(-c3c([H])c([H])c(C(F)(F)F)c([H])c3[H])c([H])c2[H])C(C([H])([H])[H])(C([H])([H])[H])C([H])([H])[H])C([H])([H])C([H])([H])C([H])([H])C([H])([H])[H])c([H])c([H])c1[H]


 45 47  0  0  0  0  0  0  0  0999 V2000
   34.7442  -13.3742   36.9989 N   0  0  0  0  0  0  0  0  0  0  0  0
   35.5704  -14.3359   36.4655 C   0  0  0  0  0  0  0  0  0  0  0  0
   36.5068  -14.1635   35.6380 O   0  0  0  0  0  0  0  0  0  0  0  0
   35.4475  -12.4492   36.2583 H   0  0  0  0  0  0  0  0  0  0  0  0
   33.9704  -12.3601   37.4721 C   0  0  0  0  0  0  0  0  0  0  0  0
   32.5656  -12.5472   37.9114 C   0  0  0  0  0  0  0  0  0  0  0  0
   31.6577  -12.5064   37.0589 O   0  0  0  0  0  0  0  0  0  0  0  0
   32.0960  -12.7897   39.2873 C   0  0  0  0  0  0  0  0  0  0  0  0
   30.9350  -13.6305   39.2152 N   0  0  0  0  0  0  0  0  0  0  0  0
   31.0926  -14.5961   38.9126 H   0  0  0  0  0  0  0  0  0  0  0  0
   29.8229  -13.4350   40.4908 S   0  0  0  0  0  0  0  0  0  0  0  0
   28.9865  -14.6680   40.7433 O   0  0  0  0  0  0  0  0  0  0  0  0
   30.5489  -13.1617   41.7920 O   0  0  0  0  0  0  0  0  0  0  0  0
   28.8007  -12.0609   40.1526 C   0  0  0  0  0  0  0  0  0  0  0  0
   28.1095  -11.9172   38.9738 C   0  0  0  0  0  0  0  0  0  0  0  0
   27.3102  -10.7966   38.7329 C   0  0  0  0  0  0  0  0  0  0  0  0
   27.2068   -9.8115   39.6857 C   0  0  0  0  0  0  0  0  0  0  0  0
   27.9185   -9.9912   40.8631 C   0  0  0  0  0  0  0  0  0  0  0  0
   28.6894  -11.0824   41.0851 N   0  0  0  0  0  0  0  0  0  0  0  0
   34.1328  -11.0208   36.7694 C   0  0  0  0  0  0  0  0  0  0  0  0
   33.8418   -9.8788   37.6772 C   0  0  0  0  0  0  0  0  0  0  0  0
   31.5442   -8.9825   37.4073 C   0  0  0  0  0  0  0  0  0  0  0  0
   33.0031   -8.7875   37.0542 C   0  0  0  0  0  0  0  0  0  0  0  0
   35.3889  -15.7017   36.8380 O   0  0  0  0  0  0  0  0  0  0  0  0
   35.0921  -16.6995   35.8167 C   0  0  0  0  0  0  0  0  0  0  0  0
   35.9167  -17.8727   36.1578 C   0  0  0  0  0  0  0  0  0  0  0  0
   37.2718  -17.3927   36.7502 C   0  0  0  0  0  0  0  0  0  0  0  0
   36.3163  -18.7616   35.0028 C   0  0  0  0  0  0  0  0  0  0  0  0
   35.2985  -18.7497   37.2244 C   0  0  0  0  0  0  0  0  0  0  0  0
   33.5900  -16.8371   35.9762 C   0  0  0  0  0  0  0  0  0  0  0  0
   32.9348  -17.9479   35.4195 N   0  0  0  0  0  0  0  0  0  0  0  0
   33.0242  -18.3195   34.1354 C   0  0  0  0  0  0  0  0  0  0  0  0
   32.2832  -19.4215   33.9083 C   0  0  0  0  0  0  0  0  0  0  0  0
   31.6895  -19.7654   35.1367 C   0  0  0  0  0  0  0  0  0  0  0  0
   32.1256  -18.8391   35.9890 N   0  0  0  0  0  0  0  0  0  0  0  0
   30.8071  -20.9058   35.3018 C   0  0  0  0  0  0  0  0  0  0  0  0
   31.2879  -22.1849   35.1412 C   0  0  0  0  0  0  0  0  0  0  0  0
   30.4703  -23.2822   35.2795 C   0  0  0  0  0  0  0  0  0  0  0  0
   29.1355  -23.1487   35.5841 C   0  0  0  0  0  0  0  0  0  0  0  0
   28.6249  -21.8729   35.7529 C   0  0  0  0  0  0  0  0  0  0  0  0
   29.4801  -20.7781   35.6067 C   0  0  0  0  0  0  0  0  0  0  0  0
   28.2357  -24.3224   35.7095 C   0  0  0  0  0  0  0  0  0  0  0  0
   26.9297  -23.9593   35.5243 F   0  0  0  0  0  0  0  0  0  0  0  0
   28.6508  -25.2556   34.7856 F   0  0  0  0  0  0  0  0  0  0  0  0
   28.4237  -24.9016   36.9563 F   0  0  0  0  0  0  0  0  0  0  0  0
 22 23  1  0  0  0
 23 21  1  0  0  0
 21 20  1  0  0  0
 20  5  1  0  0  0
  5  1  1  0  0  0
  1  2  1  0  0  0
  2  3  2  0  0  0
  2 24  1  0  0  0
 24 25  1  0  0  0
 25 30  1  0  0  0
 30 31  1  0  0  0
 31 32  1  0  0  0
 32 33  2  0  0  0
 33 34  1  0  0  0
 34 35  2  0  0  0
 34 36  1  0  0  0
 36 37  2  0  0  0
 37 38  1  0  0  0
 38 39  2  0  0  0
 39 40  1  0  0  0
 40 41  2  0  0  0
 39 42  1  0  0  0
 42 43  1  0  0  0
 42 44  1  0  0  0
 42 45  1  0  0  0
 25 26  1  0  0  0
 26 27  1  0  0  0
 26 28  1  0  0  0
 26 29  1  0  0  0
  5  6  1  0  0  0
  6  7  2  0  0  0
  6  8  1  0  0  0
  8  9  1  0  0  0
  9 11  1  0  0  0
 11 12  2  0  0  0
 11 13  2  0  0  0
 11 14  1  0  0  0
 14 15  2  0  0  0
 15 16  1  0  0  0
 16 17  2  0  0  0
 17 18  1  0  0  0
 18 19  2  0  0  0
 35 31  1  0  0  0
 41 36  1  0  0  0
 19 14  1  0  0  0
  1  4  1  0  0  0
  9 10  1  0  0  0
M  END
> <minimizedAffinity>
-8.15811

> <CNNscore>
0.1365249902

> <CNNaffinity>
6.6184511185

> <CNN_VS>
0.9035840034

> <CNNaffinity_variance>
0.6798835993

$$$$
[H]c1nc(S(=O)(=O)N([H])C([H])([H])C(=O)[C@@]([H])(N([H])C(=O)O[C@]([H])(C([H])([H])n2nc(-c3c([H])c([H])c(C(F)(F)F)c([H])c3[H])c([H])c2[H])C(C([H])([H])[H])(C([H])([H])[H])C([H])([H])[H])C([H])([H])C([H])([H])C([H])([H])C([H])([H])[H])c([H])c([H])c1[H]


 45 47  0  0  0  0  0  0  0  0999 V2000
   37.4664  -19.8935   37.7812 N   0  0  0  0  0  0  0  0  0  0  0  0
   38.7344  -20.3704   37.5432 C   0  0  0  0  0  0  0  0  0  0  0  0
   39.6075  -20.6769   38.4007 O   0  0  0  0  0  0  0  0  0  0  0  0
   37.7513  -19.9881   39.1260 H   0  0  0  0  0  0  0  0  0  0  0  0
   36.2325  -19.4224   38.1080 C   0  0  0  0  0  0  0  0  0  0  0  0
   35.0284  -20.2855   38.1875 C   0  0  0  0  0  0  0  0  0  0  0  0
   34.3174  -20.2346   39.2097 O   0  0  0  0  0  0  0  0  0  0  0  0
   34.5498  -21.2296   37.1617 C   0  0  0  0  0  0  0  0  0  0  0  0
   33.1171  -21.2717   37.2352 N   0  0  0  0  0  0  0  0  0  0  0  0
   32.6103  -20.8528   36.4500 H   0  0  0  0  0  0  0  0  0  0  0  0
   32.4682  -22.7296   37.8313 S   0  0  0  0  0  0  0  0  0  0  0  0
   33.5204  -23.6718   38.3685 O   0  0  0  0  0  0  0  0  0  0  0  0
   31.5323  -22.4599   38.9917 O   0  0  0  0  0  0  0  0  0  0  0  0
   31.5423  -23.5019   36.5689 C   0  0  0  0  0  0  0  0  0  0  0  0
   30.4491  -24.2942   36.8235 C   0  0  0  0  0  0  0  0  0  0  0  0
   29.7393  -24.9069   35.7874 C   0  0  0  0  0  0  0  0  0  0  0  0
   30.1342  -24.7220   34.4839 C   0  0  0  0  0  0  0  0  0  0  0  0
   31.2419  -23.9155   34.2655 C   0  0  0  0  0  0  0  0  0  0  0  0
   31.9211  -23.3265   35.2784 N   0  0  0  0  0  0  0  0  0  0  0  0
   35.8720  -18.0597   37.5363 C   0  0  0  0  0  0  0  0  0  0  0  0
   37.0782  -17.2971   37.1163 C   0  0  0  0  0  0  0  0  0  0  0  0
   36.4835  -15.0106   37.8733 C   0  0  0  0  0  0  0  0  0  0  0  0
   36.7953  -15.8804   36.6744 C   0  0  0  0  0  0  0  0  0  0  0  0
   39.1772  -20.5451   36.1977 O   0  0  0  0  0  0  0  0  0  0  0  0
   39.8114  -19.4374   35.4924 C   0  0  0  0  0  0  0  0  0  0  0  0
   41.2560  -19.7290   35.5146 C   0  0  0  0  0  0  0  0  0  0  0  0
   41.8955  -19.2568   34.1782 C   0  0  0  0  0  0  0  0  0  0  0  0
   41.6372  -21.1884   35.6074 C   0  0  0  0  0  0  0  0  0  0  0  0
   42.0005  -18.9862   36.6023 C   0  0  0  0  0  0  0  0  0  0  0  0
   39.1092  -19.5108   34.1499 C   0  0  0  0  0  0  0  0  0  0  0  0
   37.7976  -19.0229   34.0286 N   0  0  0  0  0  0  0  0  0  0  0  0
   37.4721  -17.8411   33.4879 C   0  0  0  0  0  0  0  0  0  0  0  0
   36.1374  -17.6589   33.5153 C   0  0  0  0  0  0  0  0  0  0  0  0
   35.5883  -18.8081   34.1134 C   0  0  0  0  0  0  0  0  0  0  0  0
   36.6414  -19.5747   34.3924 N   0  0  0  0  0  0  0  0  0  0  0  0
   34.1644  -18.9903   34.3267 C   0  0  0  0  0  0  0  0  0  0  0  0
   33.4902  -20.0039   33.6854 C   0  0  0  0  0  0  0  0  0  0  0  0
   32.1389  -20.1906   33.8601 C   0  0  0  0  0  0  0  0  0  0  0  0
   31.4018  -19.3715   34.6836 C   0  0  0  0  0  0  0  0  0  0  0  0
   32.0549  -18.3440   35.3431 C   0  0  0  0  0  0  0  0  0  0  0  0
   33.4280  -18.1800   35.1461 C   0  0  0  0  0  0  0  0  0  0  0  0
   29.9383  -19.5443   34.8604 C   0  0  0  0  0  0  0  0  0  0  0  0
   29.4349  -18.6044   35.7176 F   0  0  0  0  0  0  0  0  0  0  0  0
   29.3643  -19.4673   33.6108 F   0  0  0  0  0  0  0  0  0  0  0  0
   29.6900  -20.8291   35.3220 F   0  0  0  0  0  0  0  0  0  0  0  0
 22 23  1  0  0  0
 23 21  1  0  0  0
 21 20  1  0  0  0
 20  5  1  0  0  0
  5  1  1  0  0  0
  1  2  1  0  0  0
  2  3  2  0  0  0
  2 24  1  0  0  0
 24 25  1  0  0  0
 25 30  1  0  0  0
 30 31  1  0  0  0
 31 32  1  0  0  0
 32 33  2  0  0  0
 33 34  1  0  0  0
 34 35  2  0  0  0
 34 36  1  0  0  0
 36 37  2  0  0  0
 37 38  1  0  0  0
 38 39  2  0  0  0
 39 40  1  0  0  0
 40 41  2  0  0  0
 39 42  1  0  0  0
 42 43  1  0  0  0
 42 44  1  0  0  0
 42 45  1  0  0  0
 25 26  1  0  0  0
 26 27  1  0  0  0
 26 28  1  0  0  0
 26 29  1  0  0  0
  5  6  1  0  0  0
  6  7  2  0  0  0
  6  8  1  0  0  0
  8  9  1  0  0  0
  9 11  1  0  0  0
 11 12  2  0  0  0
 11 13  2  0  0  0
 11 14  1  0  0  0
 14 15  2  0  0  0
 15 16  1  0  0  0
 16 17  2  0  0  0
 17 18  1  0  0  0
 18 19  2  0  0  0
 35 31  1  0  0  0
 41 36  1  0  0  0
 19 14  1  0  0  0
  1  4  1  0  0  0
  9 10  1  0  0  0
M  END
> <minimizedAffinity>
-5.89459

> <CNNscore>
0.1317403615

> <CNNaffinity>
6.0435090065

> <CNN_VS>
0.7961740494

> <CNNaffinity_variance>
0.6134323478

$$$$
[H]c1nc(S(=O)(=O)N([H])C([H])([H])C(=O)[C@@]([H])(N([H])C(=O)O[C@]([H])(C([H])([H])n2nc(-c3c([H])c([H])c(C(F)(F)F)c([H])c3[H])c([H])c2[H])C(C([H])([H])[H])(C([H])([H])[H])C([H])([H])[H])C([H])([H])C([H])([H])C([H])([H])C([H])([H])[H])c([H])c([H])c1[H]


 45 47  0  0  0  0  0  0  0  0999 V2000
   37.0764  -20.2823   37.4979 N   0  0  0  0  0  0  0  0  0  0  0  0
   38.0108  -21.0652   36.8607 C   0  0  0  0  0  0  0  0  0  0  0  0
   38.6926  -22.0004   37.3628 O   0  0  0  0  0  0  0  0  0  0  0  0
   37.3317  -21.0149   38.6367 H   0  0  0  0  0  0  0  0  0  0  0  0
   36.1731  -19.5532   38.2075 C   0  0  0  0  0  0  0  0  0  0  0  0
   35.0736  -20.1651   38.9937 C   0  0  0  0  0  0  0  0  0  0  0  0
   33.9809  -20.3799   38.4345 O   0  0  0  0  0  0  0  0  0  0  0  0
   35.1205  -20.5696   40.4102 C   0  0  0  0  0  0  0  0  0  0  0  0
   33.7781  -20.8504   40.8334 N   0  0  0  0  0  0  0  0  0  0  0  0
   33.4077  -21.7722   40.5844 H   0  0  0  0  0  0  0  0  0  0  0  0
   33.3854  -20.3014   42.3975 S   0  0  0  0  0  0  0  0  0  0  0  0
   33.2043  -18.8031   42.4726 O   0  0  0  0  0  0  0  0  0  0  0  0
   32.0683  -20.8944   42.8540 O   0  0  0  0  0  0  0  0  0  0  0  0
   34.6208  -20.8252   43.5142 C   0  0  0  0  0  0  0  0  0  0  0  0
   34.6702  -22.0981   44.0290 C   0  0  0  0  0  0  0  0  0  0  0  0
   35.6673  -22.4782   44.9312 C   0  0  0  0  0  0  0  0  0  0  0  0
   36.6220  -21.5690   45.3199 C   0  0  0  0  0  0  0  0  0  0  0  0
   36.5402  -20.2938   44.7792 C   0  0  0  0  0  0  0  0  0  0  0  0
   35.5691  -19.9378   43.9049 N   0  0  0  0  0  0  0  0  0  0  0  0
   35.7031  -18.2634   37.5523 C   0  0  0  0  0  0  0  0  0  0  0  0
   36.8278  -17.3190   37.3159 C   0  0  0  0  0  0  0  0  0  0  0  0
   36.9624  -14.9057   37.8751 C   0  0  0  0  0  0  0  0  0  0  0  0
   36.3974  -15.9282   36.9126 C   0  0  0  0  0  0  0  0  0  0  0  0
   38.2975  -20.8335   35.4819 O   0  0  0  0  0  0  0  0  0  0  0  0
   38.5728  -19.4795   35.0152 C   0  0  0  0  0  0  0  0  0  0  0  0
   40.0208  -19.4416   34.7423 C   0  0  0  0  0  0  0  0  0  0  0  0
   40.7687  -18.9368   36.0087 C   0  0  0  0  0  0  0  0  0  0  0  0
   40.4663  -18.4945   33.6522 C   0  0  0  0  0  0  0  0  0  0  0  0
   40.6097  -20.8026   34.4421 C   0  0  0  0  0  0  0  0  0  0  0  0
   37.6395  -19.3903   33.8229 C   0  0  0  0  0  0  0  0  0  0  0  0
   36.2716  -19.1495   34.0328 N   0  0  0  0  0  0  0  0  0  0  0  0
   35.6671  -17.9704   33.8348 C   0  0  0  0  0  0  0  0  0  0  0  0
   34.3536  -18.0571   34.1220 C   0  0  0  0  0  0  0  0  0  0  0  0
   34.1185  -19.3841   34.5266 C   0  0  0  0  0  0  0  0  0  0  0  0
   35.3108  -19.9732   34.4475 N   0  0  0  0  0  0  0  0  0  0  0  0
   32.8119  -19.8744   34.9245 C   0  0  0  0  0  0  0  0  0  0  0  0
   31.6929  -19.0943   34.7443 C   0  0  0  0  0  0  0  0  0  0  0  0
   30.4449  -19.5298   35.1241 C   0  0  0  0  0  0  0  0  0  0  0  0
   30.2608  -20.7647   35.7016 C   0  0  0  0  0  0  0  0  0  0  0  0
   31.3693  -21.5717   35.8935 C   0  0  0  0  0  0  0  0  0  0  0  0
   32.6237  -21.1021   35.4968 C   0  0  0  0  0  0  0  0  0  0  0  0
   28.9240  -21.2366   36.1413 C   0  0  0  0  0  0  0  0  0  0  0  0
   28.3033  -21.9425   35.1473 F   0  0  0  0  0  0  0  0  0  0  0  0
   29.1114  -21.9939   37.2763 F   0  0  0  0  0  0  0  0  0  0  0  0
   28.1654  -20.1408   36.5278 F   0  0  0  0  0  0  0  0  0  0  0  0
 22 23  1  0  0  0
 23 21  1  0  0  0
 21 20  1  0  0  0
 20  5  1  0  0  0
  5  1  1  0  0  0
  1  2  1  0  0  0
  2  3  2  0  0  0
  2 24  1  0  0  0
 24 25  1  0  0  0
 25 30  1  0  0  0
 30 31  1  0  0  0
 31 32  1  0  0  0
 32 33  2  0  0  0
 33 34  1  0  0  0
 34 35  2  0  0  0
 34 36  1  0  0  0
 36 37  2  0  0  0
 37 38  1  0  0  0
 38 39  2  0  0  0
 39 40  1  0  0  0
 40 41  2  0  0  0
 39 42  1  0  0  0
 42 43  1  0  0  0
 42 44  1  0  0  0
 42 45  1  0  0  0
 25 26  1  0  0  0
 26 27  1  0  0  0
 26 28  1  0  0  0
 26 29  1  0  0  0
  5  6  1  0  0  0
  6  7  2  0  0  0
  6  8  1  0  0  0
  8  9  1  0  0  0
  9 11  1  0  0  0
 11 12  2  0  0  0
 11 13  2  0  0  0
 11 14  1  0  0  0
 14 15  2  0  0  0
 15 16  1  0  0  0
 16 17  2  0  0  0
 17 18  1  0  0  0
 18 19  2  0  0  0
 35 31  1  0  0  0
 41 36  1  0  0  0
 19 14  1  0  0  0
  1  4  1  0  0  0
  9 10  1  0  0  0
M  END
> <minimizedAffinity>
-6.06188

> <CNNscore>
0.1283895969

> <CNNaffinity>
5.8368620872

> <CNN_VS>
0.7493923903

> <CNNaffinity_variance>
0.9166806936

$$$$
[H]c1nc(S(=O)(=O)N([H])C([H])([H])C(=O)[C@@]([H])(N([H])C(=O)O[C@]([H])(C([H])([H])n2nc(-c3c([H])c([H])c(C(F)(F)F)c([H])c3[H])c([H])c2[H])C(C([H])([H])[H])(C([H])([H])[H])C([H])([H])[H])C([H])([H])C([H])([H])C([H])([H])C([H])([H])[H])c([H])c([H])c1[H]


 45 47  0  0  0  0  0  0  0  0999 V2000
   35.1889  -21.1778   38.1279 N   0  0  0  0  0  0  0  0  0  0  0  0
   36.4202  -21.3432   38.7183 C   0  0  0  0  0  0  0  0  0  0  0  0
   36.6751  -21.3815   39.9532 O   0  0  0  0  0  0  0  0  0  0  0  0
   34.6569  -21.1282   39.3981 H   0  0  0  0  0  0  0  0  0  0  0  0
   33.9347  -21.0048   37.6299 C   0  0  0  0  0  0  0  0  0  0  0  0
   32.7823  -21.8550   38.0179 C   0  0  0  0  0  0  0  0  0  0  0  0
   31.6726  -21.6413   37.4928 O   0  0  0  0  0  0  0  0  0  0  0  0
   32.7925  -22.9684   38.9837 C   0  0  0  0  0  0  0  0  0  0  0  0
   32.2922  -22.4722   40.2341 N   0  0  0  0  0  0  0  0  0  0  0  0
   31.2826  -22.5562   40.3839 H   0  0  0  0  0  0  0  0  0  0  0  0
   33.2649  -22.8195   41.5887 S   0  0  0  0  0  0  0  0  0  0  0  0
   32.5998  -23.7530   42.5735 O   0  0  0  0  0  0  0  0  0  0  0  0
   34.5399  -23.5179   41.1628 O   0  0  0  0  0  0  0  0  0  0  0  0
   33.7125  -21.3239   42.3699 C   0  0  0  0  0  0  0  0  0  0  0  0
   34.1404  -20.2182   41.6754 C   0  0  0  0  0  0  0  0  0  0  0  0
   34.5027  -19.0413   42.3359 C   0  0  0  0  0  0  0  0  0  0  0  0
   34.4353  -18.9770   43.7072 C   0  0  0  0  0  0  0  0  0  0  0  0
   33.9986  -20.1125   44.3743 C   0  0  0  0  0  0  0  0  0  0  0  0
   33.6494  -21.2472   43.7225 N   0  0  0  0  0  0  0  0  0  0  0  0
   33.8528  -20.6406   36.1553 C   0  0  0  0  0  0  0  0  0  0  0  0
   33.6056  -19.1874   35.9554 C   0  0  0  0  0  0  0  0  0  0  0  0
   32.0924  -19.4510   34.0071 C   0  0  0  0  0  0  0  0  0  0  0  0
   32.2423  -18.8603   35.3927 C   0  0  0  0  0  0  0  0  0  0  0  0
   37.5798  -21.4764   37.8969 O   0  0  0  0  0  0  0  0  0  0  0  0
   38.4654  -20.3345   37.7005 C   0  0  0  0  0  0  0  0  0  0  0  0
   39.8128  -20.8120   38.0597 C   0  0  0  0  0  0  0  0  0  0  0  0
   40.0400  -22.2205   37.4413 C   0  0  0  0  0  0  0  0  0  0  0  0
   40.0745  -21.0131   39.5345 C   0  0  0  0  0  0  0  0  0  0  0  0
   40.9228  -19.9452   37.5067 C   0  0  0  0  0  0  0  0  0  0  0  0
   38.2080  -20.0181   36.2395 C   0  0  0  0  0  0  0  0  0  0  0  0
   37.5213  -18.8414   35.8980 N   0  0  0  0  0  0  0  0  0  0  0  0
   37.3365  -18.4043   34.6451 C   0  0  0  0  0  0  0  0  0  0  0  0
   36.6416  -17.2500   34.6434 C   0  0  0  0  0  0  0  0  0  0  0  0
   36.3706  -16.9435   35.9896 C   0  0  0  0  0  0  0  0  0  0  0  0
   36.9279  -17.9391   36.6773 N   0  0  0  0  0  0  0  0  0  0  0  0
   35.6364  -15.7621   36.4039 C   0  0  0  0  0  0  0  0  0  0  0  0
   34.3300  -15.5830   36.0110 C   0  0  0  0  0  0  0  0  0  0  0  0
   33.6159  -14.4668   36.3791 C   0  0  0  0  0  0  0  0  0  0  0  0
   34.1768  -13.4799   37.1560 C   0  0  0  0  0  0  0  0  0  0  0  0
   35.4898  -13.6348   37.5673 C   0  0  0  0  0  0  0  0  0  0  0  0
   36.1892  -14.7796   37.1781 C   0  0  0  0  0  0  0  0  0  0  0  0
   33.4270  -12.2573   37.5380 C   0  0  0  0  0  0  0  0  0  0  0  0
   34.1746  -11.1343   37.3111 F   0  0  0  0  0  0  0  0  0  0  0  0
   32.2546  -12.2550   36.8153 F   0  0  0  0  0  0  0  0  0  0  0  0
   33.0591  -12.3543   38.8725 F   0  0  0  0  0  0  0  0  0  0  0  0
 22 23  1  0  0  0
 23 21  1  0  0  0
 21 20  1  0  0  0
 20  5  1  0  0  0
  5  1  1  0  0  0
  1  2  1  0  0  0
  2  3  2  0  0  0
  2 24  1  0  0  0
 24 25  1  0  0  0
 25 30  1  0  0  0
 30 31  1  0  0  0
 31 32  1  0  0  0
 32 33  2  0  0  0
 33 34  1  0  0  0
 34 35  2  0  0  0
 34 36  1  0  0  0
 36 37  2  0  0  0
 37 38  1  0  0  0
 38 39  2  0  0  0
 39 40  1  0  0  0
 40 41  2  0  0  0
 39 42  1  0  0  0
 42 43  1  0  0  0
 42 44  1  0  0  0
 42 45  1  0  0  0
 25 26  1  0  0  0
 26 27  1  0  0  0
 26 28  1  0  0  0
 26 29  1  0  0  0
  5  6  1  0  0  0
  6  7  2  0  0  0
  6  8  1  0  0  0
  8  9  1  0  0  0
  9 11  1  0  0  0
 11 12  2  0  0  0
 11 13  2  0  0  0
 11 14  1  0  0  0
 14 15  2  0  0  0
 15 16  1  0  0  0
 16 17  2  0  0  0
 17 18  1  0  0  0
 18 19  2  0  0  0
 35 31  1  0  0  0
 41 36  1  0  0  0
 19 14  1  0  0  0
  1  4  1  0  0  0
  9 10  1  0  0  0
M  END
> <minimizedAffinity>
-6.50321

> <CNNscore>
0.1189841330

> <CNNaffinity>
6.2708101273

> <CNN_VS>
0.7461268902

> <CNNaffinity_variance>
0.5806775093

$$$$
[H]c1c([H])c([H])c(-c2c(N([H])c3c([H])c([H])c(N(C(=O)C([H])([H])N4C([H])([H])C([H])([H])OC([H])([H])C4([H])[H])C([H])([H])[H])c([H])c3[H])c(=O)n([H])c3c([H])c(C(=O)OC([H])([H])[H])c([H])c([H])c23)c([H])c1[H]


 41 45  0  0  0  0  0  0  0  0999 V2000
   42.5965  -20.8873   40.7590 C   0  0  0  0  0  0  0  0  0  0  0  0
   41.5278  -20.4834   41.5304 C   0  0  0  0  0  0  0  0  0  0  0  0
   40.3381  -21.1755   41.5332 C   0  0  0  0  0  0  0  0  0  0  0  0
   40.2009  -22.2997   40.7503 C   0  0  0  0  0  0  0  0  0  0  0  0
   39.0087  -23.0180   40.7335 C   0  0  0  0  0  0  0  0  0  0  0  0
   38.8446  -24.1404   39.9623 C   0  0  0  0  0  0  0  0  0  0  0  0
   39.9369  -24.5219   39.1977 C   0  0  0  0  0  0  0  0  0  0  0  0
   39.8631  -25.5385   38.4671 O   0  0  0  0  0  0  0  0  0  0  0  0
   41.0891  -23.8349   39.2089 N   0  0  0  0  0  0  0  0  0  0  0  0
   41.2586  -22.7261   39.9667 C   0  0  0  0  0  0  0  0  0  0  0  0
   42.4406  -22.0117   39.9843 C   0  0  0  0  0  0  0  0  0  0  0  0
   41.8980  -24.1376   38.6283 H   0  0  0  0  0  0  0  0  0  0  0  0
   37.9516  -22.5364   41.5943 C   0  0  0  0  0  0  0  0  0  0  0  0
   37.7676  -22.9944   42.8871 C   0  0  0  0  0  0  0  0  0  0  0  0
   36.7390  -22.4694   43.6387 C   0  0  0  0  0  0  0  0  0  0  0  0
   35.8811  -21.5005   43.1512 C   0  0  0  0  0  0  0  0  0  0  0  0
   36.0603  -21.0405   41.8629 C   0  0  0  0  0  0  0  0  0  0  0  0
   37.0922  -21.5719   41.1188 C   0  0  0  0  0  0  0  0  0  0  0  0
   43.8655  -20.1544   40.7517 C   0  0  0  0  0  0  0  0  0  0  0  0
   44.8374  -20.6112   41.4039 O   0  0  0  0  0  0  0  0  0  0  0  0
   43.1897  -18.5742   38.9822 C   0  0  0  0  0  0  0  0  0  0  0  0
   44.0400  -18.9798   40.0569 O   0  0  0  0  0  0  0  0  0  0  0  0
   37.6143  -24.8192   39.9761 N   0  0  0  0  0  0  0  0  0  0  0  0
   37.5611  -25.6687   40.6062 H   0  0  0  0  0  0  0  0  0  0  0  0
   36.4592  -24.4716   39.2336 C   0  0  0  0  0  0  0  0  0  0  0  0
   36.5425  -23.6781   38.1062 C   0  0  0  0  0  0  0  0  0  0  0  0
   35.3927  -23.3301   37.3909 C   0  0  0  0  0  0  0  0  0  0  0  0
   34.1528  -23.7654   37.7866 C   0  0  0  0  0  0  0  0  0  0  0  0
   34.0585  -24.5552   38.9062 C   0  0  0  0  0  0  0  0  0  0  0  0
   35.2080  -24.9052   39.6246 C   0  0  0  0  0  0  0  0  0  0  0  0
   32.9646  -23.3838   37.0211 N   0  0  0  0  0  0  0  0  0  0  0  0
   32.6138  -24.2952   35.9724 C   0  0  0  0  0  0  0  0  0  0  0  0
   32.2272  -22.2558   37.3801 C   0  0  0  0  0  0  0  0  0  0  0  0
   32.5629  -21.7802   38.5639 O   0  0  0  0  0  0  0  0  0  0  0  0
   31.1726  -21.5496   36.6693 C   0  0  0  0  0  0  0  0  0  0  0  0
   29.9452  -22.1973   36.5532 N   0  0  0  0  0  0  0  0  0  0  0  0
   28.8489  -21.4361   36.0036 C   0  0  0  0  0  0  0  0  0  0  0  0
   27.9500  -20.8214   37.0249 C   0  0  0  0  0  0  0  0  0  0  0  0
   28.5014  -20.9846   38.2857 O   0  0  0  0  0  0  0  0  0  0  0  0
   28.5200  -22.3700   38.5345 C   0  0  0  0  0  0  0  0  0  0  0  0
   29.5513  -23.0443   37.6491 C   0  0  0  0  0  0  0  0  0  0  0  0
 21 22  1  0  0  0
 22 19  1  0  0  0
 19 20  2  0  0  0
 19  1  1  0  0  0
  1  2  2  0  0  0
  2  3  1  0  0  0
  3  4  2  0  0  0
  4  5  1  0  0  0
  5  6  2  0  0  0
  6 23  1  0  0  0
 23 25  1  0  0  0
 25 26  2  0  0  0
 26 27  1  0  0  0
 27 28  2  0  0  0
 28 29  1  0  0  0
 29 30  2  0  0  0
 28 31  1  0  0  0
 31 32  1  0  0  0
 31 33  1  0  0  0
 33 34  2  0  0  0
 33 35  1  0  0  0
 35 36  1  0  0  0
 36 37  1  0  0  0
 37 38  1  0  0  0
 38 39  1  0  0  0
 39 40  1  0  0  0
 40 41  1  0  0  0
  6  7  1  0  0  0
  7  8  2  0  0  0
  7  9  1  0  0  0
  9 10  1  0  0  0
 10 11  2  0  0  0
  5 13  1  0  0  0
 13 14  2  0  0  0
 14 15  1  0  0  0
 15 16  2  0  0  0
 16 17  1  0  0  0
 17 18  2  0  0  0
 11  1  1  0  0  0
 18 13  1  0  0  0
 10  4  1  0  0  0
 30 25  1  0  0  0
 41 36  1  0  0  0
 23 24  1  0  0  0
  9 12  1  0  0  0
M  END
> <minimizedAffinity>
-3.79439

> <CNNscore>
0.6053321958

> <CNNaffinity>
5.5366716385

> <CNN_VS>
3.3515255451

> <CNNaffinity_variance>
0.1657171249

$$$$
[H]c1c([H])c([H])c(-c2c(N([H])c3c([H])c([H])c(N(C(=O)C([H])([H])N4C([H])([H])C([H])([H])OC([H])([H])C4([H])[H])C([H])([H])[H])c([H])c3[H])c(=O)n([H])c3c([H])c(C(=O)OC([H])([H])[H])c([H])c([H])c23)c([H])c1[H]


 41 45  0  0  0  0  0  0  0  0999 V2000
   32.0977  -11.4840   37.1317 C   0  0  0  0  0  0  0  0  0  0  0  0
   33.3733  -11.1980   37.5693 C   0  0  0  0  0  0  0  0  0  0  0  0
   34.4159  -12.0752   37.3748 C   0  0  0  0  0  0  0  0  0  0  0  0
   34.1909  -13.2702   36.7290 C   0  0  0  0  0  0  0  0  0  0  0  0
   35.2270  -14.1759   36.5198 C   0  0  0  0  0  0  0  0  0  0  0  0
   35.0304  -15.3735   35.8806 C   0  0  0  0  0  0  0  0  0  0  0  0
   33.7373  -15.6328   35.4520 C   0  0  0  0  0  0  0  0  0  0  0  0
   33.4797  -16.7074   34.8590 O   0  0  0  0  0  0  0  0  0  0  0  0
   32.7337  -14.7647   35.6499 N   0  0  0  0  0  0  0  0  0  0  0  0
   32.9195  -13.5813   36.2801 C   0  0  0  0  0  0  0  0  0  0  0  0
   31.8927  -12.6815   36.4893 C   0  0  0  0  0  0  0  0  0  0  0  0
   31.7699  -14.9773   35.3201 H   0  0  0  0  0  0  0  0  0  0  0  0
   36.5362  -13.7801   36.9886 C   0  0  0  0  0  0  0  0  0  0  0  0
   37.2673  -12.7609   36.4041 C   0  0  0  0  0  0  0  0  0  0  0  0
   38.5029  -12.4450   36.9257 C   0  0  0  0  0  0  0  0  0  0  0  0
   39.0427  -13.1077   38.0128 C   0  0  0  0  0  0  0  0  0  0  0  0
   38.3178  -14.1247   38.5991 C   0  0  0  0  0  0  0  0  0  0  0  0
   37.0826  -14.4332   38.0700 C   0  0  0  0  0  0  0  0  0  0  0  0
   30.9836  -10.5542   37.3361 C   0  0  0  0  0  0  0  0  0  0  0  0
   31.2317   -9.3708   37.6780 O   0  0  0  0  0  0  0  0  0  0  0  0
   28.6913  -10.8229   38.2065 C   0  0  0  0  0  0  0  0  0  0  0  0
   29.6689  -10.9232   37.1688 O   0  0  0  0  0  0  0  0  0  0  0  0
   36.1114  -16.2545   35.7076 N   0  0  0  0  0  0  0  0  0  0  0  0
   36.9405  -15.8707   35.1720 H   0  0  0  0  0  0  0  0  0  0  0  0
   36.1873  -17.5878   36.1798 C   0  0  0  0  0  0  0  0  0  0  0  0
   36.5494  -18.6257   35.3435 C   0  0  0  0  0  0  0  0  0  0  0  0
   36.6060  -19.9395   35.8186 C   0  0  0  0  0  0  0  0  0  0  0  0
   36.3048  -20.2346   37.1247 C   0  0  0  0  0  0  0  0  0  0  0  0
   35.9437  -19.2100   37.9649 C   0  0  0  0  0  0  0  0  0  0  0  0
   35.8860  -17.8935   37.4920 C   0  0  0  0  0  0  0  0  0  0  0  0
   36.3691  -21.6194   37.5955 N   0  0  0  0  0  0  0  0  0  0  0  0
   37.5249  -21.9269   38.3848 C   0  0  0  0  0  0  0  0  0  0  0  0
   35.3216  -22.5021   37.3337 C   0  0  0  0  0  0  0  0  0  0  0  0
   34.2417  -21.8950   36.8804 O   0  0  0  0  0  0  0  0  0  0  0  0
   35.2418  -23.9467   37.4855 C   0  0  0  0  0  0  0  0  0  0  0  0
   34.8434  -24.4306   38.7289 N   0  0  0  0  0  0  0  0  0  0  0  0
   34.1251  -25.6824   38.7485 C   0  0  0  0  0  0  0  0  0  0  0  0
   32.6395  -25.5419   38.7990 C   0  0  0  0  0  0  0  0  0  0  0  0
   32.2941  -24.2106   38.6295 O   0  0  0  0  0  0  0  0  0  0  0  0
   32.8106  -23.5216   39.7430 C   0  0  0  0  0  0  0  0  0  0  0  0
   34.3250  -23.4672   39.6654 C   0  0  0  0  0  0  0  0  0  0  0  0
 21 22  1  0  0  0
 22 19  1  0  0  0
 19 20  2  0  0  0
 19  1  1  0  0  0
  1  2  2  0  0  0
  2  3  1  0  0  0
  3  4  2  0  0  0
  4  5  1  0  0  0
  5  6  2  0  0  0
  6 23  1  0  0  0
 23 25  1  0  0  0
 25 26  2  0  0  0
 26 27  1  0  0  0
 27 28  2  0  0  0
 28 29  1  0  0  0
 29 30  2  0  0  0
 28 31  1  0  0  0
 31 32  1  0  0  0
 31 33  1  0  0  0
 33 34  2  0  0  0
 33 35  1  0  0  0
 35 36  1  0  0  0
 36 37  1  0  0  0
 37 38  1  0  0  0
 38 39  1  0  0  0
 39 40  1  0  0  0
 40 41  1  0  0  0
  6  7  1  0  0  0
  7  8  2  0  0  0
  7  9  1  0  0  0
  9 10  1  0  0  0
 10 11  2  0  0  0
  5 13  1  0  0  0
 13 14  2  0  0  0
 14 15  1  0  0  0
 15 16  2  0  0  0
 16 17  1  0  0  0
 17 18  2  0  0  0
 11  1  1  0  0  0
 18 13  1  0  0  0
 10  4  1  0  0  0
 30 25  1  0  0  0
 41 36  1  0  0  0
 23 24  1  0  0  0
  9 12  1  0  0  0
M  END
> <minimizedAffinity>
-4.69861

> <CNNscore>
0.5651476383

> <CNNaffinity>
6.2153825760

> <CNN_VS>
3.5126087666

> <CNNaffinity_variance>
0.3169372976

$$$$
[H]c1c([H])c([H])c(-c2c(N([H])c3c([H])c([H])c(N(C(=O)C([H])([H])N4C([H])([H])C([H])([H])OC([H])([H])C4([H])[H])C([H])([H])[H])c([H])c3[H])c(=O)n([H])c3c([H])c(C(=O)OC([H])([H])[H])c([H])c([H])c23)c([H])c1[H]


 41 45  0  0  0  0  0  0  0  0999 V2000
   32.0445  -11.7421   37.1693 C   0  0  0  0  0  0  0  0  0  0  0  0
   33.3046  -11.4323   37.6348 C   0  0  0  0  0  0  0  0  0  0  0  0
   34.3799  -12.2619   37.4115 C   0  0  0  0  0  0  0  0  0  0  0  0
   34.2043  -13.4321   36.7077 C   0  0  0  0  0  0  0  0  0  0  0  0
   35.2743  -14.2897   36.4682 C   0  0  0  0  0  0  0  0  0  0  0  0
   35.1272  -15.4619   35.7712 C   0  0  0  0  0  0  0  0  0  0  0  0
   33.8485  -15.7461   35.3158 C   0  0  0  0  0  0  0  0  0  0  0  0
   33.6356  -16.7997   34.6699 O   0  0  0  0  0  0  0  0  0  0  0  0
   32.8125  -14.9244   35.5424 N   0  0  0  0  0  0  0  0  0  0  0  0
   32.9495  -13.7663   36.2298 C   0  0  0  0  0  0  0  0  0  0  0  0
   31.8890  -12.9142   36.4689 C   0  0  0  0  0  0  0  0  0  0  0  0
   31.8603  -15.1549   35.1917 H   0  0  0  0  0  0  0  0  0  0  0  0
   36.5637  -13.8706   36.9704 C   0  0  0  0  0  0  0  0  0  0  0  0
   37.3394  -12.9121   36.3424 C   0  0  0  0  0  0  0  0  0  0  0  0
   38.5514  -12.5674   36.9000 C   0  0  0  0  0  0  0  0  0  0  0  0
   39.0244  -13.1427   38.0652 C   0  0  0  0  0  0  0  0  0  0  0  0
   38.2548  -14.0988   38.6951 C   0  0  0  0  0  0  0  0  0  0  0  0
   37.0437  -14.4369   38.1296 C   0  0  0  0  0  0  0  0  0  0  0  0
   30.8959  -10.8629   37.4041 C   0  0  0  0  0  0  0  0  0  0  0  0
   29.7357  -11.3259   37.2687 O   0  0  0  0  0  0  0  0  0  0  0  0
   30.0163   -8.8133   38.4576 C   0  0  0  0  0  0  0  0  0  0  0  0
   31.0335   -9.5435   37.7689 O   0  0  0  0  0  0  0  0  0  0  0  0
   36.2407  -16.2949   35.5697 N   0  0  0  0  0  0  0  0  0  0  0  0
   37.0008  -15.9082   34.9418 H   0  0  0  0  0  0  0  0  0  0  0  0
   36.4317  -17.5843   36.1243 C   0  0  0  0  0  0  0  0  0  0  0  0
   35.9543  -17.9031   37.3806 C   0  0  0  0  0  0  0  0  0  0  0  0
   36.1627  -19.1751   37.9224 C   0  0  0  0  0  0  0  0  0  0  0  0
   36.8448  -20.1399   37.2243 C   0  0  0  0  0  0  0  0  0  0  0  0
   37.3237  -19.8336   35.9742 C   0  0  0  0  0  0  0  0  0  0  0  0
   37.1168  -18.5608   35.4290 C   0  0  0  0  0  0  0  0  0  0  0  0
   37.0517  -21.4628   37.8164 N   0  0  0  0  0  0  0  0  0  0  0  0
   36.0976  -22.4523   37.4113 C   0  0  0  0  0  0  0  0  0  0  0  0
   38.1522  -21.7027   38.6388 C   0  0  0  0  0  0  0  0  0  0  0  0
   39.0470  -20.7345   38.5918 O   0  0  0  0  0  0  0  0  0  0  0  0
   38.4546  -22.8278   39.5099 C   0  0  0  0  0  0  0  0  0  0  0  0
   39.5187  -23.6461   39.1394 N   0  0  0  0  0  0  0  0  0  0  0  0
   39.6223  -23.9990   37.7437 C   0  0  0  0  0  0  0  0  0  0  0  0
   39.0323  -25.3258   37.3961 C   0  0  0  0  0  0  0  0  0  0  0  0
   38.3511  -25.8312   38.4920 O   0  0  0  0  0  0  0  0  0  0  0  0
   39.3176  -26.0593   39.4896 C   0  0  0  0  0  0  0  0  0  0  0  0
   39.8375  -24.7375   40.0231 C   0  0  0  0  0  0  0  0  0  0  0  0
 21 22  1  0  0  0
 22 19  1  0  0  0
 19 20  2  0  0  0
 19  1  1  0  0  0
  1  2  2  0  0  0
  2  3  1  0  0  0
  3  4  2  0  0  0
  4  5  1  0  0  0
  5  6  2  0  0  0
  6 23  1  0  0  0
 23 25  1  0  0  0
 25 26  2  0  0  0
 26 27  1  0  0  0
 27 28  2  0  0  0
 28 29  1  0  0  0
 29 30  2  0  0  0
 28 31  1  0  0  0
 31 32  1  0  0  0
 31 33  1  0  0  0
 33 34  2  0  0  0
 33 35  1  0  0  0
 35 36  1  0  0  0
 36 37  1  0  0  0
 37 38  1  0  0  0
 38 39  1  0  0  0
 39 40  1  0  0  0
 40 41  1  0  0  0
  6  7  1  0  0  0
  7  8  2  0  0  0
  7  9  1  0  0  0
  9 10  1  0  0  0
 10 11  2  0  0  0
  5 13  1  0  0  0
 13 14  2  0  0  0
 14 15  1  0  0  0
 15 16  2  0  0  0
 16 17  1  0  0  0
 17 18  2  0  0  0
 11  1  1  0  0  0
 18 13  1  0  0  0
 10  4  1  0  0  0
 30 25  1  0  0  0
 41 36  1  0  0  0
 23 24  1  0  0  0
  9 12  1  0  0  0
M  END
> <minimizedAffinity>
-3.93152

> <CNNscore>
0.5649936795

> <CNNaffinity>
6.2142310143

> <CNN_VS>
3.5110013485

> <CNNaffinity_variance>
0.3400975764

$$$$
[H]c1c([H])c([H])c(-c2c(N([H])c3c([H])c([H])c(N(C(=O)C([H])([H])N4C([H])([H])C([H])([H])OC([H])([H])C4([H])[H])C([H])([H])[H])c([H])c3[H])c(=O)n([H])c3c([H])c(C(=O)OC([H])([H])[H])c([H])c([H])c23)c([H])c1[H]


 41 45  0  0  0  0  0  0  0  0999 V2000
   32.0910  -11.6084   37.1174 C   0  0  0  0  0  0  0  0  0  0  0  0
   33.3503  -11.3433   37.6117 C   0  0  0  0  0  0  0  0  0  0  0  0
   34.3989  -12.2134   37.4179 C   0  0  0  0  0  0  0  0  0  0  0  0
   34.1967  -13.3798   36.7148 C   0  0  0  0  0  0  0  0  0  0  0  0
   35.2393  -14.2778   36.5048 C   0  0  0  0  0  0  0  0  0  0  0  0
   35.0653  -15.4472   35.8092 C   0  0  0  0  0  0  0  0  0  0  0  0
   33.7882  -15.6859   35.3243 C   0  0  0  0  0  0  0  0  0  0  0  0
   33.5516  -16.7342   34.6779 O   0  0  0  0  0  0  0  0  0  0  0  0
   32.7785  -14.8251   35.5226 N   0  0  0  0  0  0  0  0  0  0  0  0
   32.9421  -13.6695   36.2083 C   0  0  0  0  0  0  0  0  0  0  0  0
   31.9086  -12.7774   36.4183 C   0  0  0  0  0  0  0  0  0  0  0  0
   31.8270  -15.0219   35.1501 H   0  0  0  0  0  0  0  0  0  0  0  0
   36.5311  -13.9044   37.0361 C   0  0  0  0  0  0  0  0  0  0  0  0
   37.0850  -14.5020   38.1546 C   0  0  0  0  0  0  0  0  0  0  0  0
   38.3276  -14.0887   38.5830 C   0  0  0  0  0  0  0  0  0  0  0  0
   39.0450  -13.0979   37.9380 C   0  0  0  0  0  0  0  0  0  0  0  0
   38.4972  -12.4990   36.8224 C   0  0  0  0  0  0  0  0  0  0  0  0
   37.2534  -12.9194   36.4016 C   0  0  0  0  0  0  0  0  0  0  0  0
   30.9706  -10.6859   37.3208 C   0  0  0  0  0  0  0  0  0  0  0  0
   31.2057   -9.5222   37.7322 O   0  0  0  0  0  0  0  0  0  0  0  0
   28.6908  -11.1915   38.1152 C   0  0  0  0  0  0  0  0  0  0  0  0
   29.6637  -11.0411   37.0792 O   0  0  0  0  0  0  0  0  0  0  0  0
   36.1515  -16.3221   35.6381 N   0  0  0  0  0  0  0  0  0  0  0  0
   36.9122  -15.9925   34.9791 H   0  0  0  0  0  0  0  0  0  0  0  0
   36.3147  -17.5842   36.2600 C   0  0  0  0  0  0  0  0  0  0  0  0
   37.0262  -18.5985   35.6496 C   0  0  0  0  0  0  0  0  0  0  0  0
   37.1672  -19.8446   36.2678 C   0  0  0  0  0  0  0  0  0  0  0  0
   36.6050  -20.0949   37.4945 C   0  0  0  0  0  0  0  0  0  0  0  0
   35.8955  -19.0933   38.1105 C   0  0  0  0  0  0  0  0  0  0  0  0
   35.7525  -17.8446   37.4939 C   0  0  0  0  0  0  0  0  0  0  0  0
   36.7653  -21.4097   38.1183 N   0  0  0  0  0  0  0  0  0  0  0  0
   37.7584  -21.4622   39.1500 C   0  0  0  0  0  0  0  0  0  0  0  0
   35.9352  -22.4691   37.7529 C   0  0  0  0  0  0  0  0  0  0  0  0
   34.9009  -22.0834   37.0304 O   0  0  0  0  0  0  0  0  0  0  0  0
   36.0328  -23.8911   38.0439 C   0  0  0  0  0  0  0  0  0  0  0  0
   36.7543  -24.6722   37.1448 N   0  0  0  0  0  0  0  0  0  0  0  0
   37.2308  -25.9499   37.6180 C   0  0  0  0  0  0  0  0  0  0  0  0
   38.6454  -25.9437   38.0954 C   0  0  0  0  0  0  0  0  0  0  0  0
   39.1146  -24.6404   38.1375 O   0  0  0  0  0  0  0  0  0  0  0  0
   39.1272  -24.1800   36.8073 C   0  0  0  0  0  0  0  0  0  0  0  0
   37.7070  -23.9885   36.3088 C   0  0  0  0  0  0  0  0  0  0  0  0
 21 22  1  0  0  0
 22 19  1  0  0  0
 19 20  2  0  0  0
 19  1  1  0  0  0
  1  2  2  0  0  0
  2  3  1  0  0  0
  3  4  2  0  0  0
  4  5  1  0  0  0
  5  6  2  0  0  0
  6 23  1  0  0  0
 23 25  1  0  0  0
 25 26  2  0  0  0
 26 27  1  0  0  0
 27 28  2  0  0  0
 28 29  1  0  0  0
 29 30  2  0  0  0
 28 31  1  0  0  0
 31 32  1  0  0  0
 31 33  1  0  0  0
 33 34  2  0  0  0
 33 35  1  0  0  0
 35 36  1  0  0  0
 36 37  1  0  0  0
 37 38  1  0  0  0
 38 39  1  0  0  0
 39 40  1  0  0  0
 40 41  1  0  0  0
  6  7  1  0  0  0
  7  8  2  0  0  0
  7  9  1  0  0  0
  9 10  1  0  0  0
 10 11  2  0  0  0
  5 13  1  0  0  0
 13 14  2  0  0  0
 14 15  1  0  0  0
 15 16  2  0  0  0
 16 17  1  0  0  0
 17 18  2  0  0  0
 11  1  1  0  0  0
 18 13  1  0  0  0
 10  4  1  0  0  0
 30 25  1  0  0  0
 41 36  1  0  0  0
 23 24  1  0  0  0
  9 12  1  0  0  0
M  END
> <minimizedAffinity>
-4.66420

> <CNNscore>
0.5633937120

> <CNNaffinity>
6.2826223373

> <CNN_VS>
3.5395898819

> <CNNaffinity_variance>
0.4015382826

$$$$
[H]c1c([H])c([H])c(-c2c(N([H])c3c([H])c([H])c(N(C(=O)C([H])([H])N4C([H])([H])C([H])([H])OC([H])([H])C4([H])[H])C([H])([H])[H])c([H])c3[H])c(=O)n([H])c3c([H])c(C(=O)OC([H])([H])[H])c([H])c([H])c23)c([H])c1[H]


 41 45  0  0  0  0  0  0  0  0999 V2000
   32.0912  -11.5801   37.1252 C   0  0  0  0  0  0  0  0  0  0  0  0
   33.3534  -11.3197   37.6144 C   0  0  0  0  0  0  0  0  0  0  0  0
   34.3979  -12.1938   37.4167 C   0  0  0  0  0  0  0  0  0  0  0  0
   34.1885  -13.3597   36.7149 C   0  0  0  0  0  0  0  0  0  0  0  0
   35.2268  -14.2618   36.5010 C   0  0  0  0  0  0  0  0  0  0  0  0
   35.0456  -15.4307   35.8066 C   0  0  0  0  0  0  0  0  0  0  0  0
   33.7656  -15.6647   35.3269 C   0  0  0  0  0  0  0  0  0  0  0  0
   33.5224  -16.7123   34.6818 O   0  0  0  0  0  0  0  0  0  0  0  0
   32.7600  -14.8000   35.5288 N   0  0  0  0  0  0  0  0  0  0  0  0
   32.9307  -13.6448   36.2134 C   0  0  0  0  0  0  0  0  0  0  0  0
   31.9016  -12.7487   36.4272 C   0  0  0  0  0  0  0  0  0  0  0  0
   31.8063  -14.9932   35.1602 H   0  0  0  0  0  0  0  0  0  0  0  0
   36.5221  -13.8931   37.0271 C   0  0  0  0  0  0  0  0  0  0  0  0
   37.0835  -14.5009   38.1364 C   0  0  0  0  0  0  0  0  0  0  0  0
   38.3289  -14.0914   38.5602 C   0  0  0  0  0  0  0  0  0  0  0  0
   39.0420  -13.0947   37.9194 C   0  0  0  0  0  0  0  0  0  0  0  0
   38.4867  -12.4856   36.8131 C   0  0  0  0  0  0  0  0  0  0  0  0
   37.2401  -12.9023   36.3967 C   0  0  0  0  0  0  0  0  0  0  0  0
   30.9752  -10.6533   37.3328 C   0  0  0  0  0  0  0  0  0  0  0  0
   31.2166   -9.4893   37.7398 O   0  0  0  0  0  0  0  0  0  0  0  0
   28.7056  -11.1779   38.1441 C   0  0  0  0  0  0  0  0  0  0  0  0
   29.6656  -11.0047   37.0996 O   0  0  0  0  0  0  0  0  0  0  0  0
   36.1277  -16.3098   35.6314 N   0  0  0  0  0  0  0  0  0  0  0  0
   36.9055  -15.9667   34.9999 H   0  0  0  0  0  0  0  0  0  0  0  0
   36.2663  -17.5924   36.2164 C   0  0  0  0  0  0  0  0  0  0  0  0
   36.9108  -18.6180   35.5528 C   0  0  0  0  0  0  0  0  0  0  0  0
   37.0277  -19.8836   36.1354 C   0  0  0  0  0  0  0  0  0  0  0  0
   36.5076  -20.1424   37.3788 C   0  0  0  0  0  0  0  0  0  0  0  0
   35.8649  -19.1297   38.0476 C   0  0  0  0  0  0  0  0  0  0  0  0
   35.7461  -17.8613   37.4668 C   0  0  0  0  0  0  0  0  0  0  0  0
   36.6413  -21.4775   37.9646 N   0  0  0  0  0  0  0  0  0  0  0  0
   35.6680  -22.4267   37.5117 C   0  0  0  0  0  0  0  0  0  0  0  0
   37.6985  -21.7660   38.8272 C   0  0  0  0  0  0  0  0  0  0  0  0
   38.6299  -20.8318   38.8258 O   0  0  0  0  0  0  0  0  0  0  0  0
   37.9239  -22.9096   39.6976 C   0  0  0  0  0  0  0  0  0  0  0  0
   37.4867  -22.7971   41.0150 N   0  0  0  0  0  0  0  0  0  0  0  0
   37.2255  -24.0242   41.7286 C   0  0  0  0  0  0  0  0  0  0  0  0
   35.7925  -24.4431   41.7341 C   0  0  0  0  0  0  0  0  0  0  0  0
   35.0682  -23.6274   40.8795 O   0  0  0  0  0  0  0  0  0  0  0  0
   35.1203  -22.3321   41.4280 C   0  0  0  0  0  0  0  0  0  0  0  0
   36.5214  -21.7654   41.2934 C   0  0  0  0  0  0  0  0  0  0  0  0
 21 22  1  0  0  0
 22 19  1  0  0  0
 19 20  2  0  0  0
 19  1  1  0  0  0
  1  2  2  0  0  0
  2  3  1  0  0  0
  3  4  2  0  0  0
  4  5  1  0  0  0
  5  6  2  0  0  0
  6 23  1  0  0  0
 23 25  1  0  0  0
 25 26  2  0  0  0
 26 27  1  0  0  0
 27 28  2  0  0  0
 28 29  1  0  0  0
 29 30  2  0  0  0
 28 31  1  0  0  0
 31 32  1  0  0  0
 31 33  1  0  0  0
 33 34  2  0  0  0
 33 35  1  0  0  0
 35 36  1  0  0  0
 36 37  1  0  0  0
 37 38  1  0  0  0
 38 39  1  0  0  0
 39 40  1  0  0  0
 40 41  1  0  0  0
  6  7  1  0  0  0
  7  8  2  0  0  0
  7  9  1  0  0  0
  9 10  1  0  0  0
 10 11  2  0  0  0
  5 13  1  0  0  0
 13 14  2  0  0  0
 14 15  1  0  0  0
 15 16  2  0  0  0
 16 17  1  0  0  0
 17 18  2  0  0  0
 11  1  1  0  0  0
 18 13  1  0  0  0
 10  4  1  0  0  0
 30 25  1  0  0  0
 41 36  1  0  0  0
 23 24  1  0  0  0
  9 12  1  0  0  0
M  END
> <minimizedAffinity>
-4.74971

> <CNNscore>
0.5592913032

> <CNNaffinity>
6.2591419220

> <CNN_VS>
3.5006835461

> <CNNaffinity_variance>
0.3160392642

$$$$
[H]c1c([H])c([H])c(-c2c(N([H])c3c([H])c([H])c(N(C(=O)C([H])([H])N4C([H])([H])C([H])([H])OC([H])([H])C4([H])[H])C([H])([H])[H])c([H])c3[H])c(=O)n([H])c3c([H])c(C(=O)OC([H])([H])[H])c([H])c([H])c23)c([H])c1[H]


 41 45  0  0  0  0  0  0  0  0999 V2000
   42.5053  -20.8781   40.9890 C   0  0  0  0  0  0  0  0  0  0  0  0
   41.4357  -20.5360   41.7886 C   0  0  0  0  0  0  0  0  0  0  0  0
   40.2396  -21.2136   41.7218 C   0  0  0  0  0  0  0  0  0  0  0  0
   40.0967  -22.2601   40.8385 C   0  0  0  0  0  0  0  0  0  0  0  0
   38.8979  -22.9620   40.7497 C   0  0  0  0  0  0  0  0  0  0  0  0
   38.7280  -24.0074   39.8781 C   0  0  0  0  0  0  0  0  0  0  0  0
   39.8213  -24.3280   39.0875 C   0  0  0  0  0  0  0  0  0  0  0  0
   39.7424  -25.2727   38.2665 O   0  0  0  0  0  0  0  0  0  0  0  0
   40.9798  -23.6564   39.1675 N   0  0  0  0  0  0  0  0  0  0  0  0
   41.1551  -22.6234   40.0246 C   0  0  0  0  0  0  0  0  0  0  0  0
   42.3436  -21.9253   40.1138 C   0  0  0  0  0  0  0  0  0  0  0  0
   41.7893  -23.9126   38.5659 H   0  0  0  0  0  0  0  0  0  0  0  0
   37.8401  -22.5507   41.6455 C   0  0  0  0  0  0  0  0  0  0  0  0
   37.6217  -23.1475   42.8747 C   0  0  0  0  0  0  0  0  0  0  0  0
   36.5955  -22.6816   43.6674 C   0  0  0  0  0  0  0  0  0  0  0  0
   35.7731  -21.6387   43.2823 C   0  0  0  0  0  0  0  0  0  0  0  0
   35.9866  -21.0403   42.0577 C   0  0  0  0  0  0  0  0  0  0  0  0
   37.0159  -21.5135   41.2718 C   0  0  0  0  0  0  0  0  0  0  0  0
   43.7811  -20.1602   41.0555 C   0  0  0  0  0  0  0  0  0  0  0  0
   44.7188  -20.6447   41.7372 O   0  0  0  0  0  0  0  0  0  0  0  0
   43.1062  -18.4489   39.4122 C   0  0  0  0  0  0  0  0  0  0  0  0
   43.9982  -18.9706   40.3994 O   0  0  0  0  0  0  0  0  0  0  0  0
   37.4913  -24.6723   39.8232 N   0  0  0  0  0  0  0  0  0  0  0  0
   37.4191  -25.5634   40.3909 H   0  0  0  0  0  0  0  0  0  0  0  0
   36.3527  -24.2612   39.0877 C   0  0  0  0  0  0  0  0  0  0  0  0
   36.4316  -23.2528   38.1471 C   0  0  0  0  0  0  0  0  0  0  0  0
   35.2968  -22.8464   37.4386 C   0  0  0  0  0  0  0  0  0  0  0  0
   34.0765  -23.4354   37.6563 C   0  0  0  0  0  0  0  0  0  0  0  0
   33.9868  -24.4392   38.5893 C   0  0  0  0  0  0  0  0  0  0  0  0
   35.1213  -24.8483   39.3004 C   0  0  0  0  0  0  0  0  0  0  0  0
   32.9035  -22.9886   36.9028 N   0  0  0  0  0  0  0  0  0  0  0  0
   32.4703  -23.8961   35.8819 C   0  0  0  0  0  0  0  0  0  0  0  0
   32.2533  -21.8041   37.2481 C   0  0  0  0  0  0  0  0  0  0  0  0
   32.6436  -21.3271   38.4145 O   0  0  0  0  0  0  0  0  0  0  0  0
   31.2371  -21.0417   36.5393 C   0  0  0  0  0  0  0  0  0  0  0  0
   31.6254  -19.8167   36.0028 N   0  0  0  0  0  0  0  0  0  0  0  0
   31.0581  -19.4472   34.7280 C   0  0  0  0  0  0  0  0  0  0  0  0
   31.9245  -19.7579   33.5525 C   0  0  0  0  0  0  0  0  0  0  0  0
   33.0141  -20.5081   33.9654 O   0  0  0  0  0  0  0  0  0  0  0  0
   33.7642  -19.6804   34.8221 C   0  0  0  0  0  0  0  0  0  0  0  0
   33.0167  -19.4656   36.1249 C   0  0  0  0  0  0  0  0  0  0  0  0
 21 22  1  0  0  0
 22 19  1  0  0  0
 19 20  2  0  0  0
 19  1  1  0  0  0
  1  2  2  0  0  0
  2  3  1  0  0  0
  3  4  2  0  0  0
  4  5  1  0  0  0
  5  6  2  0  0  0
  6 23  1  0  0  0
 23 25  1  0  0  0
 25 26  2  0  0  0
 26 27  1  0  0  0
 27 28  2  0  0  0
 28 29  1  0  0  0
 29 30  2  0  0  0
 28 31  1  0  0  0
 31 32  1  0  0  0
 31 33  1  0  0  0
 33 34  2  0  0  0
 33 35  1  0  0  0
 35 36  1  0  0  0
 36 37  1  0  0  0
 37 38  1  0  0  0
 38 39  1  0  0  0
 39 40  1  0  0  0
 40 41  1  0  0  0
  6  7  1  0  0  0
  7  8  2  0  0  0
  7  9  1  0  0  0
  9 10  1  0  0  0
 10 11  2  0  0  0
  5 13  1  0  0  0
 13 14  2  0  0  0
 14 15  1  0  0  0
 15 16  2  0  0  0
 16 17  1  0  0  0
 17 18  2  0  0  0
 11  1  1  0  0  0
 18 13  1  0  0  0
 10  4  1  0  0  0
 30 25  1  0  0  0
 41 36  1  0  0  0
 23 24  1  0  0  0
  9 12  1  0  0  0
M  END
> <minimizedAffinity>
-4.20558

> <CNNscore>
0.5394739509

> <CNNaffinity>
5.6936378479

> <CNN_VS>
3.0715692043

> <CNNaffinity_variance>
0.0370730609

$$$$
[H]c1c([H])c([H])c(-c2c(N([H])c3c([H])c([H])c(N(C(=O)C([H])([H])N4C([H])([H])C([H])([H])OC([H])([H])C4([H])[H])C([H])([H])[H])c([H])c3[H])c(=O)n([H])c3c([H])c(C(=O)OC([H])([H])[H])c([H])c([H])c23)c([H])c1[H]


 41 45  0  0  0  0  0  0  0  0999 V2000
   41.1260  -20.7052   36.2282 C   0  0  0  0  0  0  0  0  0  0  0  0
   41.0255  -21.6030   37.2695 C   0  0  0  0  0  0  0  0  0  0  0  0
   39.8865  -21.6926   38.0369 C   0  0  0  0  0  0  0  0  0  0  0  0
   38.8156  -20.8704   37.7671 C   0  0  0  0  0  0  0  0  0  0  0  0
   37.6519  -20.9394   38.5278 C   0  0  0  0  0  0  0  0  0  0  0  0
   36.5709  -20.1317   38.2815 C   0  0  0  0  0  0  0  0  0  0  0  0
   36.7019  -19.2394   37.2280 C   0  0  0  0  0  0  0  0  0  0  0  0
   35.7553  -18.4683   36.9416 O   0  0  0  0  0  0  0  0  0  0  0  0
   37.8201  -19.1673   36.4903 N   0  0  0  0  0  0  0  0  0  0  0  0
   38.8911  -19.9605   36.7274 C   0  0  0  0  0  0  0  0  0  0  0  0
   40.0469  -19.8932   35.9741 C   0  0  0  0  0  0  0  0  0  0  0  0
   37.8988  -18.4913   35.7031 H   0  0  0  0  0  0  0  0  0  0  0  0
   37.6263  -21.9288   39.5818 C   0  0  0  0  0  0  0  0  0  0  0  0
   37.8846  -21.6227   40.9064 C   0  0  0  0  0  0  0  0  0  0  0  0
   37.8267  -22.6295   41.8452 C   0  0  0  0  0  0  0  0  0  0  0  0
   37.5200  -23.9370   41.5155 C   0  0  0  0  0  0  0  0  0  0  0  0
   37.2616  -24.2474   40.1963 C   0  0  0  0  0  0  0  0  0  0  0  0
   37.3219  -23.2331   39.2644 C   0  0  0  0  0  0  0  0  0  0  0  0
   42.3362  -20.6051   35.4078 C   0  0  0  0  0  0  0  0  0  0  0  0
   43.4412  -20.4076   35.9724 O   0  0  0  0  0  0  0  0  0  0  0  0
   41.5125  -21.6781   33.3451 C   0  0  0  0  0  0  0  0  0  0  0  0
   42.3149  -20.7189   34.0369 O   0  0  0  0  0  0  0  0  0  0  0  0
   35.4263  -20.2370   39.0898 N   0  0  0  0  0  0  0  0  0  0  0  0
   35.3947  -19.5976   39.9334 H   0  0  0  0  0  0  0  0  0  0  0  0
   34.3300  -21.1085   38.8775 C   0  0  0  0  0  0  0  0  0  0  0  0
   33.5419  -21.0084   37.7477 C   0  0  0  0  0  0  0  0  0  0  0  0
   32.4536  -21.8653   37.5576 C   0  0  0  0  0  0  0  0  0  0  0  0
   32.1383  -22.8272   38.4844 C   0  0  0  0  0  0  0  0  0  0  0  0
   32.9155  -22.9355   39.6115 C   0  0  0  0  0  0  0  0  0  0  0  0
   34.0058  -22.0788   39.8048 C   0  0  0  0  0  0  0  0  0  0  0  0
   30.9914  -23.7095   38.2621 N   0  0  0  0  0  0  0  0  0  0  0  0
   31.2415  -24.7957   37.3616 C   0  0  0  0  0  0  0  0  0  0  0  0
   29.8007  -23.5069   38.9594 C   0  0  0  0  0  0  0  0  0  0  0  0
   29.9306  -22.6540   39.9574 O   0  0  0  0  0  0  0  0  0  0  0  0
   28.4789  -24.0811   38.7609 C   0  0  0  0  0  0  0  0  0  0  0  0
   27.5889  -23.3598   37.9691 N   0  0  0  0  0  0  0  0  0  0  0  0
   26.6226  -24.1161   37.2090 C   0  0  0  0  0  0  0  0  0  0  0  0
   27.0155  -24.3736   35.7919 C   0  0  0  0  0  0  0  0  0  0  0  0
   28.3260  -23.9689   35.5936 O   0  0  0  0  0  0  0  0  0  0  0  0
   28.3427  -22.5735   35.7781 C   0  0  0  0  0  0  0  0  0  0  0  0
   28.1270  -22.2391   37.2423 C   0  0  0  0  0  0  0  0  0  0  0  0
 21 22  1  0  0  0
 22 19  1  0  0  0
 19 20  2  0  0  0
 19  1  1  0  0  0
  1  2  2  0  0  0
  2  3  1  0  0  0
  3  4  2  0  0  0
  4  5  1  0  0  0
  5  6  2  0  0  0
  6 23  1  0  0  0
 23 25  1  0  0  0
 25 26  2  0  0  0
 26 27  1  0  0  0
 27 28  2  0  0  0
 28 29  1  0  0  0
 29 30  2  0  0  0
 28 31  1  0  0  0
 31 32  1  0  0  0
 31 33  1  0  0  0
 33 34  2  0  0  0
 33 35  1  0  0  0
 35 36  1  0  0  0
 36 37  1  0  0  0
 37 38  1  0  0  0
 38 39  1  0  0  0
 39 40  1  0  0  0
 40 41  1  0  0  0
  6  7  1  0  0  0
  7  8  2  0  0  0
  7  9  1  0  0  0
  9 10  1  0  0  0
 10 11  2  0  0  0
  5 13  1  0  0  0
 13 14  2  0  0  0
 14 15  1  0  0  0
 15 16  2  0  0  0
 16 17  1  0  0  0
 17 18  2  0  0  0
 11  1  1  0  0  0
 18 13  1  0  0  0
 10  4  1  0  0  0
 30 25  1  0  0  0
 41 36  1  0  0  0
 23 24  1  0  0  0
  9 12  1  0  0  0
M  END
> <minimizedAffinity>
-4.12028

> <CNNscore>
0.4738871753

> <CNNaffinity>
5.6852941513

> <CNN_VS>
2.6941878796

> <CNNaffinity_variance>
0.0863427296

$$$$
[H]c1c([H])c([H])c(-c2c(N([H])c3c([H])c([H])c(N(C(=O)C([H])([H])N4C([H])([H])C([H])([H])OC([H])([H])C4([H])[H])C([H])([H])[H])c([H])c3[H])c(=O)n([H])c3c([H])c(C(=O)OC([H])([H])[H])c([H])c([H])c23)c([H])c1[H]


 41 45  0  0  0  0  0  0  0  0999 V2000
   42.4317  -19.7836   39.1178 C   0  0  0  0  0  0  0  0  0  0  0  0
   41.7185  -19.8619   40.2949 C   0  0  0  0  0  0  0  0  0  0  0  0
   40.5534  -20.5889   40.3850 C   0  0  0  0  0  0  0  0  0  0  0  0
   40.0792  -21.2579   39.2790 C   0  0  0  0  0  0  0  0  0  0  0  0
   38.9031  -21.9999   39.3420 C   0  0  0  0  0  0  0  0  0  0  0  0
   38.4079  -22.6749   38.2555 C   0  0  0  0  0  0  0  0  0  0  0  0
   39.1471  -22.5774   37.0862 C   0  0  0  0  0  0  0  0  0  0  0  0
   38.7579  -23.1678   36.0505 O   0  0  0  0  0  0  0  0  0  0  0  0
   40.2815  -21.8645   37.0178 N   0  0  0  0  0  0  0  0  0  0  0  0
   40.7764  -21.1953   38.0854 C   0  0  0  0  0  0  0  0  0  0  0  0
   41.9428  -20.4581   38.0247 C   0  0  0  0  0  0  0  0  0  0  0  0
   40.8226  -21.8040   36.1310 H   0  0  0  0  0  0  0  0  0  0  0  0
   38.2366  -22.0473   40.6242 C   0  0  0  0  0  0  0  0  0  0  0  0
   37.2028  -21.1933   40.9659 C   0  0  0  0  0  0  0  0  0  0  0  0
   36.6191  -21.3189   42.2076 C   0  0  0  0  0  0  0  0  0  0  0  0
   37.0264  -22.2669   43.1284 C   0  0  0  0  0  0  0  0  0  0  0  0
   38.0568  -23.1207   42.7926 C   0  0  0  0  0  0  0  0  0  0  0  0
   38.6344  -22.9872   41.5478 C   0  0  0  0  0  0  0  0  0  0  0  0
   43.6727  -19.0109   39.0157 C   0  0  0  0  0  0  0  0  0  0  0  0
   44.4367  -18.9496   40.0114 O   0  0  0  0  0  0  0  0  0  0  0  0
   43.2458  -17.3168   37.2744 C   0  0  0  0  0  0  0  0  0  0  0  0
   44.0402  -18.3452   37.8691 O   0  0  0  0  0  0  0  0  0  0  0  0
   37.2093  -23.3985   38.3742 N   0  0  0  0  0  0  0  0  0  0  0  0
   37.2603  -24.2885   38.9460 H   0  0  0  0  0  0  0  0  0  0  0  0
   35.9604  -23.0469   37.8059 C   0  0  0  0  0  0  0  0  0  0  0  0
   35.1450  -23.9962   37.2213 C   0  0  0  0  0  0  0  0  0  0  0  0
   33.9213  -23.6333   36.6507 C   0  0  0  0  0  0  0  0  0  0  0  0
   33.4964  -22.3283   36.6549 C   0  0  0  0  0  0  0  0  0  0  0  0
   34.2993  -21.3762   37.2337 C   0  0  0  0  0  0  0  0  0  0  0  0
   35.5252  -21.7365   37.8058 C   0  0  0  0  0  0  0  0  0  0  0  0
   32.2119  -21.9751   36.0476 N   0  0  0  0  0  0  0  0  0  0  0  0
   32.2436  -21.8447   34.6210 C   0  0  0  0  0  0  0  0  0  0  0  0
   31.0663  -21.8657   36.8354 C   0  0  0  0  0  0  0  0  0  0  0  0
   31.2331  -22.3491   38.0515 O   0  0  0  0  0  0  0  0  0  0  0  0
   29.7539  -21.3201   36.5254 C   0  0  0  0  0  0  0  0  0  0  0  0
   28.8044  -22.2051   36.0210 N   0  0  0  0  0  0  0  0  0  0  0  0
   27.5289  -22.2561   36.6946 C   0  0  0  0  0  0  0  0  0  0  0  0
   27.4028  -23.3551   37.6973 C   0  0  0  0  0  0  0  0  0  0  0  0
   28.6344  -23.9657   37.8727 O   0  0  0  0  0  0  0  0  0  0  0  0
   28.9583  -24.5669   36.6418 C   0  0  0  0  0  0  0  0  0  0  0  0
   29.2782  -23.5015   35.6099 C   0  0  0  0  0  0  0  0  0  0  0  0
 21 22  1  0  0  0
 22 19  1  0  0  0
 19 20  2  0  0  0
 19  1  1  0  0  0
  1  2  2  0  0  0
  2  3  1  0  0  0
  3  4  2  0  0  0
  4  5  1  0  0  0
  5  6  2  0  0  0
  6 23  1  0  0  0
 23 25  1  0  0  0
 25 26  2  0  0  0
 26 27  1  0  0  0
 27 28  2  0  0  0
 28 29  1  0  0  0
 29 30  2  0  0  0
 28 31  1  0  0  0
 31 32  1  0  0  0
 31 33  1  0  0  0
 33 34  2  0  0  0
 33 35  1  0  0  0
 35 36  1  0  0  0
 36 37  1  0  0  0
 37 38  1  0  0  0
 38 39  1  0  0  0
 39 40  1  0  0  0
 40 41  1  0  0  0
  6  7  1  0  0  0
  7  8  2  0  0  0
  7  9  1  0  0  0
  9 10  1  0  0  0
 10 11  2  0  0  0
  5 13  1  0  0  0
 13 14  2  0  0  0
 14 15  1  0  0  0
 15 16  2  0  0  0
 16 17  1  0  0  0
 17 18  2  0  0  0
 11  1  1  0  0  0
 18 13  1  0  0  0
 10  4  1  0  0  0
 30 25  1  0  0  0
 41 36  1  0  0  0
 23 24  1  0  0  0
  9 12  1  0  0  0
M  END
> <minimizedAffinity>
-4.50014

> <CNNscore>
0.4485462308

> <CNNaffinity>
5.4927225113

> <CNN_VS>
2.4637398720

> <CNNaffinity_variance>
0.1475617588

$$$$
[H]c1c([H])c([H])c(-c2c(N([H])c3c([H])c([H])c(N(C(=O)C([H])([H])N4C([H])([H])C([H])([H])OC([H])([H])C4([H])[H])C([H])([H])[H])c([H])c3[H])c(=O)n([H])c3c([H])c(C(=O)OC([H])([H])[H])c([H])c([H])c23)c([H])c1[H]


 41 45  0  0  0  0  0  0  0  0999 V2000
   41.9046  -18.8646   36.4898 C   0  0  0  0  0  0  0  0  0  0  0  0
   41.6371  -19.0099   37.8343 C   0  0  0  0  0  0  0  0  0  0  0  0
   40.8416  -20.0296   38.3052 C   0  0  0  0  0  0  0  0  0  0  0  0
   40.2943  -20.9320   37.4211 C   0  0  0  0  0  0  0  0  0  0  0  0
   39.4856  -21.9722   37.8700 C   0  0  0  0  0  0  0  0  0  0  0  0
   38.9270  -22.8842   37.0112 C   0  0  0  0  0  0  0  0  0  0  0  0
   39.2142  -22.7122   35.6654 C   0  0  0  0  0  0  0  0  0  0  0  0
   38.7398  -23.5070   34.8192 O   0  0  0  0  0  0  0  0  0  0  0  0
   39.9929  -21.7124   35.2252 N   0  0  0  0  0  0  0  0  0  0  0  0
   40.5473  -20.8082   36.0663 C   0  0  0  0  0  0  0  0  0  0  0  0
   41.3496  -19.7750   35.6227 C   0  0  0  0  0  0  0  0  0  0  0  0
   40.1973  -21.6005   34.2110 H   0  0  0  0  0  0  0  0  0  0  0  0
   39.2819  -22.0622   39.2986 C   0  0  0  0  0  0  0  0  0  0  0  0
   38.2289  -21.4423   39.9482 C   0  0  0  0  0  0  0  0  0  0  0  0
   38.1079  -21.5926   41.3124 C   0  0  0  0  0  0  0  0  0  0  0  0
   38.9991  -22.3403   42.0602 C   0  0  0  0  0  0  0  0  0  0  0  0
   40.0506  -22.9603   41.4173 C   0  0  0  0  0  0  0  0  0  0  0  0
   40.1631  -22.8040   40.0521 C   0  0  0  0  0  0  0  0  0  0  0  0
   42.7505  -17.7809   35.9825 C   0  0  0  0  0  0  0  0  0  0  0  0
   42.5697  -17.3632   34.8113 O   0  0  0  0  0  0  0  0  0  0  0  0
   44.5258  -16.0942   36.2792 C   0  0  0  0  0  0  0  0  0  0  0  0
   43.7409  -17.1969   36.7381 O   0  0  0  0  0  0  0  0  0  0  0  0
   38.1088  -23.9071   37.5198 N   0  0  0  0  0  0  0  0  0  0  0  0
   38.6124  -24.7616   37.8907 H   0  0  0  0  0  0  0  0  0  0  0  0
   36.6936  -23.8944   37.5788 C   0  0  0  0  0  0  0  0  0  0  0  0
   35.9852  -24.9827   38.0495 C   0  0  0  0  0  0  0  0  0  0  0  0
   34.5877  -24.9628   38.0886 C   0  0  0  0  0  0  0  0  0  0  0  0
   33.8821  -23.8656   37.6622 C   0  0  0  0  0  0  0  0  0  0  0  0
   34.5766  -22.7779   37.1924 C   0  0  0  0  0  0  0  0  0  0  0  0
   35.9760  -22.7949   37.1519 C   0  0  0  0  0  0  0  0  0  0  0  0
   32.4189  -23.8722   37.7111 N   0  0  0  0  0  0  0  0  0  0  0  0
   31.8538  -23.0542   38.7430 C   0  0  0  0  0  0  0  0  0  0  0  0
   31.6850  -24.5734   36.7546 C   0  0  0  0  0  0  0  0  0  0  0  0
   32.4206  -24.9681   35.7331 O   0  0  0  0  0  0  0  0  0  0  0  0
   30.2727  -24.9197   36.7130 C   0  0  0  0  0  0  0  0  0  0  0  0
   29.5184  -24.3746   35.6772 N   0  0  0  0  0  0  0  0  0  0  0  0
   29.6322  -22.9525   35.4581 C   0  0  0  0  0  0  0  0  0  0  0  0
   28.5578  -22.1399   36.1019 C   0  0  0  0  0  0  0  0  0  0  0  0
   27.7929  -22.9517   36.9243 O   0  0  0  0  0  0  0  0  0  0  0  0
   27.1560  -23.8825   36.0821 C   0  0  0  0  0  0  0  0  0  0  0  0
   28.1721  -24.8632   35.5270 C   0  0  0  0  0  0  0  0  0  0  0  0
 21 22  1  0  0  0
 22 19  1  0  0  0
 19 20  2  0  0  0
 19  1  1  0  0  0
  1  2  2  0  0  0
  2  3  1  0  0  0
  3  4  2  0  0  0
  4  5  1  0  0  0
  5  6  2  0  0  0
  6 23  1  0  0  0
 23 25  1  0  0  0
 25 26  2  0  0  0
 26 27  1  0  0  0
 27 28  2  0  0  0
 28 29  1  0  0  0
 29 30  2  0  0  0
 28 31  1  0  0  0
 31 32  1  0  0  0
 31 33  1  0  0  0
 33 34  2  0  0  0
 33 35  1  0  0  0
 35 36  1  0  0  0
 36 37  1  0  0  0
 37 38  1  0  0  0
 38 39  1  0  0  0
 39 40  1  0  0  0
 40 41  1  0  0  0
  6  7  1  0  0  0
  7  8  2  0  0  0
  7  9  1  0  0  0
  9 10  1  0  0  0
 10 11  2  0  0  0
  5 13  1  0  0  0
 13 14  2  0  0  0
 14 15  1  0  0  0
 15 16  2  0  0  0
 16 17  1  0  0  0
 17 18  2  0  0  0
 11  1  1  0  0  0
 18 13  1  0  0  0
 10  4  1  0  0  0
 30 25  1  0  0  0
 41 36  1  0  0  0
 23 24  1  0  0  0
  9 12  1  0  0  0
M  END
> <minimizedAffinity>
-4.01014

> <CNNscore>
0.4466769099

> <CNNaffinity>
5.6343560219

> <CNN_VS>
2.5167367458

> <CNNaffinity_variance>
0.1553152353

$$$$
[H]c1c([H])c([H])c(C([H])([H])[C@@]([H])(C(=O)N([H])[H])N([H])C(=O)[C@@]([H])(N([H])C(=O)[C@@]([H])(N([H])C(=O)[C@@]([H])(N([H])[H])C([H])([H])C([H])(C([H])([H])[H])C([H])([H])[H])C([H])([H])c2c([H])c([H])c([H])c([H])c2[H])C([H])([H])c2c([H])c([H])c([H])c([H])c2[H])c([H])c1[H]


 49 51  0  0  0  0  0  0  0  0999 V2000
   39.4631  -19.3199   35.4440 C   0  0  0  0  0  0  0  0  0  0  0  0
   37.2739  -18.4826   36.3513 C   0  0  0  0  0  0  0  0  0  0  0  0
   37.2567  -19.3731   37.2676 O   0  0  0  0  0  0  0  0  0  0  0  0
   38.3342  -18.4020   35.4214 N   0  0  0  0  0  0  0  0  0  0  0  0
   38.2756  -17.6372   34.6904 H   0  0  0  0  0  0  0  0  0  0  0  0
   36.1242  -17.5595   36.3321 C   0  0  0  0  0  0  0  0  0  0  0  0
   34.6972  -18.5652   34.5179 C   0  0  0  0  0  0  0  0  0  0  0  0
   35.5969  -18.4084   33.6694 O   0  0  0  0  0  0  0  0  0  0  0  0
   34.9093  -18.1584   35.8489 N   0  0  0  0  0  0  0  0  0  0  0  0
   34.0855  -18.3203   36.5196 H   0  0  0  0  0  0  0  0  0  0  0  0
   33.4104  -19.1794   34.1132 C   0  0  0  0  0  0  0  0  0  0  0  0
   33.6310  -20.3801   33.3807 N   0  0  0  0  0  0  0  0  0  0  0  0
   34.1531  -20.1723   32.5176 H   0  0  0  0  0  0  0  0  0  0  0  0
   34.1165  -21.1279   33.8995 H   0  0  0  0  0  0  0  0  0  0  0  0
   32.4957  -19.2745   35.2875 C   0  0  0  0  0  0  0  0  0  0  0  0
   30.0994  -19.2668   34.9162 C   0  0  0  0  0  0  0  0  0  0  0  0
   31.3351  -20.1777   35.0059 C   0  0  0  0  0  0  0  0  0  0  0  0
   31.1272  -21.1200   36.1722 C   0  0  0  0  0  0  0  0  0  0  0  0
   35.9901  -16.6982   37.5515 C   0  0  0  0  0  0  0  0  0  0  0  0
   35.9230  -15.2510   37.2211 C   0  0  0  0  0  0  0  0  0  0  0  0
   36.9724  -14.3715   37.2979 C   0  0  0  0  0  0  0  0  0  0  0  0
   36.7695  -13.0241   36.9699 C   0  0  0  0  0  0  0  0  0  0  0  0
   35.5487  -12.5297   36.5672 C   0  0  0  0  0  0  0  0  0  0  0  0
   34.4964  -13.4103   36.4898 C   0  0  0  0  0  0  0  0  0  0  0  0
   34.6911  -14.7331   36.8109 C   0  0  0  0  0  0  0  0  0  0  0  0
   40.5484  -18.7641   36.2389 C   0  0  0  0  0  0  0  0  0  0  0  0
   40.5126  -18.9297   37.5049 O   0  0  0  0  0  0  0  0  0  0  0  0
   41.6322  -18.0634   35.6955 N   0  0  0  0  0  0  0  0  0  0  0  0
   41.7082  -17.8729   34.6749 H   0  0  0  0  0  0  0  0  0  0  0  0
   42.6923  -17.5819   36.5946 C   0  0  0  0  0  0  0  0  0  0  0  0
   43.3078  -16.3407   36.1226 C   0  0  0  0  0  0  0  0  0  0  0  0
   43.4378  -16.1136   34.7204 N   0  0  0  0  0  0  0  0  0  0  0  0
   43.7574  -15.4167   36.8543 O   0  0  0  0  0  0  0  0  0  0  0  0
   43.6036  -15.1797   34.2936 H   0  0  0  0  0  0  0  0  0  0  0  0
   43.3686  -16.9276   34.0391 H   0  0  0  0  0  0  0  0  0  0  0  0
   43.6304  -18.7518   36.7160 C   0  0  0  0  0  0  0  0  0  0  0  0
   43.8670  -19.2839   38.0534 C   0  0  0  0  0  0  0  0  0  0  0  0
   43.4874  -18.5674   39.1725 C   0  0  0  0  0  0  0  0  0  0  0  0
   43.6650  -19.0534   40.4649 C   0  0  0  0  0  0  0  0  0  0  0  0
   44.2341  -20.2858   40.6911 C   0  0  0  0  0  0  0  0  0  0  0  0
   44.6211  -21.0178   39.5712 C   0  0  0  0  0  0  0  0  0  0  0  0
   44.4409  -20.5281   38.3007 C   0  0  0  0  0  0  0  0  0  0  0  0
   39.8084  -19.8351   34.1010 C   0  0  0  0  0  0  0  0  0  0  0  0
   40.2746  -21.2139   34.0033 C   0  0  0  0  0  0  0  0  0  0  0  0
   41.5125  -21.4485   33.4631 C   0  0  0  0  0  0  0  0  0  0  0  0
   42.0494  -22.6988   33.2939 C   0  0  0  0  0  0  0  0  0  0  0  0
   41.2667  -23.7772   33.7044 C   0  0  0  0  0  0  0  0  0  0  0  0
   40.0214  -23.5517   34.2481 C   0  0  0  0  0  0  0  0  0  0  0  0
   39.5146  -22.2824   34.4026 C   0  0  0  0  0  0  0  0  0  0  0  0
 16 17  1  0  0  0
 17 18  1  0  0  0
 17 15  1  0  0  0
 15 11  1  0  0  0
 11 12  1  0  0  0
 11  7  1  0  0  0
  7  8  2  0  0  0
  7  9  1  0  0  0
  9  6  1  0  0  0
  6 19  1  0  0  0
 19 20  1  0  0  0
 20 21  2  0  0  0
 21 22  1  0  0  0
 22 23  2  0  0  0
 23 24  1  0  0  0
 24 25  2  0  0  0
  6  2  1  0  0  0
  2  3  2  0  0  0
  2  4  1  0  0  0
  4  1  1  0  0  0
  1 43  1  0  0  0
 43 44  1  0  0  0
 44 45  2  0  0  0
 45 46  1  0  0  0
 46 47  2  0  0  0
 47 48  1  0  0  0
 48 49  2  0  0  0
  1 26  1  0  0  0
 26 27  2  0  0  0
 26 28  1  0  0  0
 28 30  1  0  0  0
 30 36  1  0  0  0
 36 37  1  0  0  0
 37 38  2  0  0  0
 38 39  1  0  0  0
 39 40  2  0  0  0
 40 41  1  0  0  0
 41 42  2  0  0  0
 30 31  1  0  0  0
 31 32  1  0  0  0
 31 33  2  0  0  0
 25 20  1  0  0  0
 49 44  1  0  0  0
 42 37  1  0  0  0
 12 13  1  0  0  0
 12 14  1  0  0  0
  9 10  1  0  0  0
  4  5  1  0  0  0
 28 29  1  0  0  0
 32 34  1  0  0  0
 32 35  1  0  0  0
M  END
> <minimizedAffinity>
-7.90260

> <CNNscore>
0.5731197000

> <CNNaffinity>
6.7965416908

> <CNN_VS>
3.8952319622

> <CNNaffinity_variance>
0.0953822583

$$$$
[H]c1c([H])c([H])c(C([H])([H])[C@@]([H])(C(=O)N([H])[H])N([H])C(=O)[C@@]([H])(N([H])C(=O)[C@@]([H])(N([H])C(=O)[C@@]([H])(N([H])[H])C([H])([H])C([H])(C([H])([H])[H])C([H])([H])[H])C([H])([H])c2c([H])c([H])c([H])c([H])c2[H])C([H])([H])c2c([H])c([H])c([H])c([H])c2[H])c([H])c1[H]


 49 51  0  0  0  0  0  0  0  0999 V2000
   39.6724  -19.4103   35.0261 C   0  0  0  0  0  0  0  0  0  0  0  0
   37.2243  -18.9873   35.4067 C   0  0  0  0  0  0  0  0  0  0  0  0
   37.1154  -20.0092   36.1662 O   0  0  0  0  0  0  0  0  0  0  0  0
   38.4580  -18.6370   34.8145 N   0  0  0  0  0  0  0  0  0  0  0  0
   38.4675  -17.7769   34.1958 H   0  0  0  0  0  0  0  0  0  0  0  0
   35.9884  -18.2119   35.1932 C   0  0  0  0  0  0  0  0  0  0  0  0
   36.2125  -16.2777   36.7893 C   0  0  0  0  0  0  0  0  0  0  0  0
   36.1664  -17.0368   37.7771 O   0  0  0  0  0  0  0  0  0  0  0  0
   36.1256  -16.8113   35.4895 N   0  0  0  0  0  0  0  0  0  0  0  0
   36.1662  -16.0939   34.6906 H   0  0  0  0  0  0  0  0  0  0  0  0
   36.3580  -14.8173   36.9966 C   0  0  0  0  0  0  0  0  0  0  0  0
   37.6959  -14.4878   37.3547 N   0  0  0  0  0  0  0  0  0  0  0  0
   37.9434  -14.9467   38.2429 H   0  0  0  0  0  0  0  0  0  0  0  0
   38.4090  -14.7150   36.6448 H   0  0  0  0  0  0  0  0  0  0  0  0
   35.7759  -14.0748   35.8413 C   0  0  0  0  0  0  0  0  0  0  0  0
   35.2889  -11.7425   36.2921 C   0  0  0  0  0  0  0  0  0  0  0  0
   34.6791  -13.1540   36.2786 C   0  0  0  0  0  0  0  0  0  0  0  0
   34.2661  -13.4894   37.6958 C   0  0  0  0  0  0  0  0  0  0  0  0
   35.2474  -18.5456   33.9337 C   0  0  0  0  0  0  0  0  0  0  0  0
   33.8841  -19.0739   34.1988 C   0  0  0  0  0  0  0  0  0  0  0  0
   33.4024  -20.2799   33.7579 C   0  0  0  0  0  0  0  0  0  0  0  0
   32.0874  -20.6530   34.0677 C   0  0  0  0  0  0  0  0  0  0  0  0
   31.2397  -19.8566   34.8052 C   0  0  0  0  0  0  0  0  0  0  0  0
   31.7216  -18.6479   35.2476 C   0  0  0  0  0  0  0  0  0  0  0  0
   33.0111  -18.2778   34.9458 C   0  0  0  0  0  0  0  0  0  0  0  0
   40.5631  -18.7095   35.9394 C   0  0  0  0  0  0  0  0  0  0  0  0
   40.1915  -18.5702   37.1535 O   0  0  0  0  0  0  0  0  0  0  0  0
   41.8061  -18.1841   35.5654 N   0  0  0  0  0  0  0  0  0  0  0  0
   42.1559  -18.2422   34.5867 H   0  0  0  0  0  0  0  0  0  0  0  0
   42.6395  -17.5301   36.5861 C   0  0  0  0  0  0  0  0  0  0  0  0
   43.3424  -16.3554   36.0684 C   0  0  0  0  0  0  0  0  0  0  0  0
   43.3346  -16.0973   34.6656 N   0  0  0  0  0  0  0  0  0  0  0  0
   43.9838  -15.5170   36.7591 O   0  0  0  0  0  0  0  0  0  0  0  0
   43.5621  -15.1757   34.2407 H   0  0  0  0  0  0  0  0  0  0  0  0
   43.0875  -16.8735   33.9814 H   0  0  0  0  0  0  0  0  0  0  0  0
   43.5291  -18.6316   37.0948 C   0  0  0  0  0  0  0  0  0  0  0  0
   43.2194  -19.1901   38.4063 C   0  0  0  0  0  0  0  0  0  0  0  0
   43.2545  -18.3942   39.5356 C   0  0  0  0  0  0  0  0  0  0  0  0
   42.9340  -18.8796   40.8004 C   0  0  0  0  0  0  0  0  0  0  0  0
   42.5626  -20.1914   40.9874 C   0  0  0  0  0  0  0  0  0  0  0  0
   42.5233  -21.0040   39.8569 C   0  0  0  0  0  0  0  0  0  0  0  0
   42.8416  -20.5140   38.6138 C   0  0  0  0  0  0  0  0  0  0  0  0
   40.2602  -19.9092   33.7636 C   0  0  0  0  0  0  0  0  0  0  0  0
   40.4807  -21.3459   33.6399 C   0  0  0  0  0  0  0  0  0  0  0  0
   39.5589  -22.1985   34.1900 C   0  0  0  0  0  0  0  0  0  0  0  0
   39.6680  -23.5649   34.1626 C   0  0  0  0  0  0  0  0  0  0  0  0
   40.7944  -24.0907   33.5311 C   0  0  0  0  0  0  0  0  0  0  0  0
   41.7265  -23.2422   32.9756 C   0  0  0  0  0  0  0  0  0  0  0  0
   41.5841  -21.8749   33.0223 C   0  0  0  0  0  0  0  0  0  0  0  0
 16 17  1  0  0  0
 17 18  1  0  0  0
 17 15  1  0  0  0
 15 11  1  0  0  0
 11 12  1  0  0  0
 11  7  1  0  0  0
  7  8  2  0  0  0
  7  9  1  0  0  0
  9  6  1  0  0  0
  6 19  1  0  0  0
 19 20  1  0  0  0
 20 21  2  0  0  0
 21 22  1  0  0  0
 22 23  2  0  0  0
 23 24  1  0  0  0
 24 25  2  0  0  0
  6  2  1  0  0  0
  2  3  2  0  0  0
  2  4  1  0  0  0
  4  1  1  0  0  0
  1 43  1  0  0  0
 43 44  1  0  0  0
 44 45  2  0  0  0
 45 46  1  0  0  0
 46 47  2  0  0  0
 47 48  1  0  0  0
 48 49  2  0  0  0
  1 26  1  0  0  0
 26 27  2  0  0  0
 26 28  1  0  0  0
 28 30  1  0  0  0
 30 36  1  0  0  0
 36 37  1  0  0  0
 37 38  2  0  0  0
 38 39  1  0  0  0
 39 40  2  0  0  0
 40 41  1  0  0  0
 41 42  2  0  0  0
 30 31  1  0  0  0
 31 32  1  0  0  0
 31 33  2  0  0  0
 25 20  1  0  0  0
 49 44  1  0  0  0
 42 37  1  0  0  0
 12 13  1  0  0  0
 12 14  1  0  0  0
  9 10  1  0  0  0
  4  5  1  0  0  0
 28 29  1  0  0  0
 32 34  1  0  0  0
 32 35  1  0  0  0
M  END
> <minimizedAffinity>
-7.62316

> <CNNscore>
0.3666912913

> <CNNaffinity>
6.6902666092

> <CNN_VS>
2.4532625675

> <CNNaffinity_variance>
0.2313797027

$$$$
[H]c1c([H])c([H])c(C([H])([H])[C@@]([H])(C(=O)N([H])[H])N([H])C(=O)[C@@]([H])(N([H])C(=O)[C@@]([H])(N([H])C(=O)[C@@]([H])(N([H])[H])C([H])([H])C([H])(C([H])([H])[H])C([H])([H])[H])C([H])([H])c2c([H])c([H])c([H])c([H])c2[H])C([H])([H])c2c([H])c([H])c([H])c([H])c2[H])c([H])c1[H]


 49 51  0  0  0  0  0  0  0  0999 V2000
   35.2993  -18.5536   36.1733 C   0  0  0  0  0  0  0  0  0  0  0  0
   36.4344  -20.3021   37.5773 C   0  0  0  0  0  0  0  0  0  0  0  0
   36.7333  -21.0025   36.5512 O   0  0  0  0  0  0  0  0  0  0  0  0
   35.7293  -19.0838   37.4584 N   0  0  0  0  0  0  0  0  0  0  0  0
   35.5172  -18.5614   38.3554 H   0  0  0  0  0  0  0  0  0  0  0  0
   36.8693  -20.8485   38.8760 C   0  0  0  0  0  0  0  0  0  0  0  0
   34.8168  -20.8630   40.3342 C   0  0  0  0  0  0  0  0  0  0  0  0
   34.7981  -19.6176   40.3873 O   0  0  0  0  0  0  0  0  0  0  0  0
   35.8238  -21.5190   39.6009 N   0  0  0  0  0  0  0  0  0  0  0  0
   35.7769  -22.5925   39.6078 H   0  0  0  0  0  0  0  0  0  0  0  0
   33.7753  -21.6403   41.0469 C   0  0  0  0  0  0  0  0  0  0  0  0
   32.9336  -20.7800   41.8074 N   0  0  0  0  0  0  0  0  0  0  0  0
   33.4893  -20.2897   42.5226 H   0  0  0  0  0  0  0  0  0  0  0  0
   32.4014  -20.0882   41.2577 H   0  0  0  0  0  0  0  0  0  0  0  0
   33.0949  -22.5727   40.1023 C   0  0  0  0  0  0  0  0  0  0  0  0
   33.8588  -24.8730   40.1749 C   0  0  0  0  0  0  0  0  0  0  0  0
   32.8166  -23.8963   40.7447 C   0  0  0  0  0  0  0  0  0  0  0  0
   31.4481  -24.3892   40.3255 C   0  0  0  0  0  0  0  0  0  0  0  0
   38.1983  -21.5412   38.8524 C   0  0  0  0  0  0  0  0  0  0  0  0
   38.6614  -21.9297   40.2098 C   0  0  0  0  0  0  0  0  0  0  0  0
   39.1403  -21.0656   41.1609 C   0  0  0  0  0  0  0  0  0  0  0  0
   39.5593  -21.5668   42.4009 C   0  0  0  0  0  0  0  0  0  0  0  0
   39.5135  -22.9062   42.7185 C   0  0  0  0  0  0  0  0  0  0  0  0
   39.0335  -23.7731   41.7661 C   0  0  0  0  0  0  0  0  0  0  0  0
   38.6216  -23.2855   40.5481 C   0  0  0  0  0  0  0  0  0  0  0  0
   35.9981  -17.3104   35.8820 C   0  0  0  0  0  0  0  0  0  0  0  0
   36.8038  -17.2914   34.8910 O   0  0  0  0  0  0  0  0  0  0  0  0
   35.8341  -16.1328   36.6217 N   0  0  0  0  0  0  0  0  0  0  0  0
   35.2120  -16.0888   37.4552 H   0  0  0  0  0  0  0  0  0  0  0  0
   36.5640  -14.9243   36.2086 C   0  0  0  0  0  0  0  0  0  0  0  0
   37.2874  -14.2991   37.3167 C   0  0  0  0  0  0  0  0  0  0  0  0
   38.2232  -13.2581   37.0424 N   0  0  0  0  0  0  0  0  0  0  0  0
   37.1691  -14.5992   38.5362 O   0  0  0  0  0  0  0  0  0  0  0  0
   38.5730  -12.5856   37.7545 H   0  0  0  0  0  0  0  0  0  0  0  0
   38.6107  -13.1340   36.0595 H   0  0  0  0  0  0  0  0  0  0  0  0
   35.5120  -14.0610   35.5672 C   0  0  0  0  0  0  0  0  0  0  0  0
   34.6324  -13.3077   36.4541 C   0  0  0  0  0  0  0  0  0  0  0  0
   33.6492  -13.9509   37.1818 C   0  0  0  0  0  0  0  0  0  0  0  0
   32.8110  -13.2744   38.0637 C   0  0  0  0  0  0  0  0  0  0  0  0
   32.9239  -11.9161   38.2543 C   0  0  0  0  0  0  0  0  0  0  0  0
   33.9111  -11.2562   37.5265 C   0  0  0  0  0  0  0  0  0  0  0  0
   34.7325  -11.9342   36.6592 C   0  0  0  0  0  0  0  0  0  0  0  0
   33.8281  -18.5502   36.0193 C   0  0  0  0  0  0  0  0  0  0  0  0
   33.1762  -19.8177   35.7087 C   0  0  0  0  0  0  0  0  0  0  0  0
   32.7797  -20.6204   36.7468 C   0  0  0  0  0  0  0  0  0  0  0  0
   32.1821  -21.8436   36.5837 C   0  0  0  0  0  0  0  0  0  0  0  0
   31.9784  -22.2710   35.2723 C   0  0  0  0  0  0  0  0  0  0  0  0
   32.3736  -21.4718   34.2224 C   0  0  0  0  0  0  0  0  0  0  0  0
   32.9710  -20.2494   34.4241 C   0  0  0  0  0  0  0  0  0  0  0  0
 16 17  1  0  0  0
 17 18  1  0  0  0
 17 15  1  0  0  0
 15 11  1  0  0  0
 11 12  1  0  0  0
 11  7  1  0  0  0
  7  8  2  0  0  0
  7  9  1  0  0  0
  9  6  1  0  0  0
  6 19  1  0  0  0
 19 20  1  0  0  0
 20 21  2  0  0  0
 21 22  1  0  0  0
 22 23  2  0  0  0
 23 24  1  0  0  0
 24 25  2  0  0  0
  6  2  1  0  0  0
  2  3  2  0  0  0
  2  4  1  0  0  0
  4  1  1  0  0  0
  1 43  1  0  0  0
 43 44  1  0  0  0
 44 45  2  0  0  0
 45 46  1  0  0  0
 46 47  2  0  0  0
 47 48  1  0  0  0
 48 49  2  0  0  0
  1 26  1  0  0  0
 26 27  2  0  0  0
 26 28  1  0  0  0
 28 30  1  0  0  0
 30 36  1  0  0  0
 36 37  1  0  0  0
 37 38  2  0  0  0
 38 39  1  0  0  0
 39 40  2  0  0  0
 40 41  1  0  0  0
 41 42  2  0  0  0
 30 31  1  0  0  0
 31 32  1  0  0  0
 31 33  2  0  0  0
 25 20  1  0  0  0
 49 44  1  0  0  0
 42 37  1  0  0  0
 12 13  1  0  0  0
 12 14  1  0  0  0
  9 10  1  0  0  0
  4  5  1  0  0  0
 28 29  1  0  0  0
 32 34  1  0  0  0
 32 35  1  0  0  0
M  END
> <minimizedAffinity>
-6.24708

> <CNNscore>
0.3554356396

> <CNNaffinity>
5.8639445305

> <CNN_VS>
2.0842549801

> <CNNaffinity_variance>
0.3370268047

$$$$
[H]c1c([H])c([H])c(C([H])([H])[C@@]([H])(C(=O)N([H])[H])N([H])C(=O)[C@@]([H])(N([H])C(=O)[C@@]([H])(N([H])C(=O)[C@@]([H])(N([H])[H])C([H])([H])C([H])(C([H])([H])[H])C([H])([H])[H])C([H])([H])c2c([H])c([H])c([H])c([H])c2[H])C([H])([H])c2c([H])c([H])c([H])c([H])c2[H])c([H])c1[H]


 49 51  0  0  0  0  0  0  0  0999 V2000
   40.0700  -19.5273   35.1859 C   0  0  0  0  0  0  0  0  0  0  0  0
   37.6824  -18.8745   35.6220 C   0  0  0  0  0  0  0  0  0  0  0  0
   37.4845  -19.9007   36.3573 O   0  0  0  0  0  0  0  0  0  0  0  0
   38.9354  -18.6321   35.0163 N   0  0  0  0  0  0  0  0  0  0  0  0
   39.0206  -17.7608   34.4196 H   0  0  0  0  0  0  0  0  0  0  0  0
   36.5266  -17.9750   35.4511 C   0  0  0  0  0  0  0  0  0  0  0  0
   36.5021  -16.1745   37.2108 C   0  0  0  0  0  0  0  0  0  0  0  0
   36.0233  -16.9542   38.0575 O   0  0  0  0  0  0  0  0  0  0  0  0
   36.7663  -16.6319   35.9058 N   0  0  0  0  0  0  0  0  0  0  0  0
   37.1721  -15.9000   35.2318 H   0  0  0  0  0  0  0  0  0  0  0  0
   36.7875  -14.7703   37.5897 C   0  0  0  0  0  0  0  0  0  0  0  0
   37.7779  -14.2070   36.7360 N   0  0  0  0  0  0  0  0  0  0  0  0
   38.6592  -14.7318   36.8289 H   0  0  0  0  0  0  0  0  0  0  0  0
   37.5186  -14.1525   35.7391 H   0  0  0  0  0  0  0  0  0  0  0  0
   35.5135  -14.0067   37.7258 C   0  0  0  0  0  0  0  0  0  0  0  0
   34.8804  -12.0416   36.4539 C   0  0  0  0  0  0  0  0  0  0  0  0
   34.9891  -13.5743   36.3916 C   0  0  0  0  0  0  0  0  0  0  0  0
   33.5940  -14.1257   36.1887 C   0  0  0  0  0  0  0  0  0  0  0  0
   35.8190  -18.1049   34.1361 C   0  0  0  0  0  0  0  0  0  0  0  0
   34.4074  -18.5428   34.2906 C   0  0  0  0  0  0  0  0  0  0  0  0
   33.4272  -17.8407   34.9440 C   0  0  0  0  0  0  0  0  0  0  0  0
   32.1348  -18.3760   35.0296 C   0  0  0  0  0  0  0  0  0  0  0  0
   31.7930  -19.5923   34.4812 C   0  0  0  0  0  0  0  0  0  0  0  0
   32.7746  -20.2967   33.8260 C   0  0  0  0  0  0  0  0  0  0  0  0
   34.0440  -19.7752   33.7399 C   0  0  0  0  0  0  0  0  0  0  0  0
   41.1108  -18.8785   35.9699 C   0  0  0  0  0  0  0  0  0  0  0  0
   40.9221  -18.7447   37.2262 O   0  0  0  0  0  0  0  0  0  0  0  0
   42.3089  -18.3976   35.4276 N   0  0  0  0  0  0  0  0  0  0  0  0
   42.5129  -18.4534   34.4084 H   0  0  0  0  0  0  0  0  0  0  0  0
   43.3062  -17.7951   36.3256 C   0  0  0  0  0  0  0  0  0  0  0  0
   43.5439  -16.3811   36.0324 C   0  0  0  0  0  0  0  0  0  0  0  0
   43.5527  -15.9398   34.6760 N   0  0  0  0  0  0  0  0  0  0  0  0
   43.7549  -15.4770   36.8864 O   0  0  0  0  0  0  0  0  0  0  0  0
   43.4428  -14.9474   34.3846 H   0  0  0  0  0  0  0  0  0  0  0  0
   43.6799  -16.6419   33.8871 H   0  0  0  0  0  0  0  0  0  0  0  0
   44.5109  -18.6855   36.1866 C   0  0  0  0  0  0  0  0  0  0  0  0
   44.3315  -20.1042   36.4747 C   0  0  0  0  0  0  0  0  0  0  0  0
   44.5906  -21.0564   35.5072 C   0  0  0  0  0  0  0  0  0  0  0  0
   44.4638  -22.4211   35.7511 C   0  0  0  0  0  0  0  0  0  0  0  0
   44.0695  -22.8915   36.9828 C   0  0  0  0  0  0  0  0  0  0  0  0
   43.8052  -21.9417   37.9665 C   0  0  0  0  0  0  0  0  0  0  0  0
   43.9338  -20.5976   37.7145 C   0  0  0  0  0  0  0  0  0  0  0  0
   40.4843  -20.1719   33.9206 C   0  0  0  0  0  0  0  0  0  0  0  0
   40.9431  -21.5551   33.9831 C   0  0  0  0  0  0  0  0  0  0  0  0
   41.7415  -22.0252   32.9727 C   0  0  0  0  0  0  0  0  0  0  0  0
   42.2136  -23.3107   32.9052 C   0  0  0  0  0  0  0  0  0  0  0  0
   41.8432  -24.1690   33.9397 C   0  0  0  0  0  0  0  0  0  0  0  0
   41.0410  -23.7061   34.9592 C   0  0  0  0  0  0  0  0  0  0  0  0
   40.5854  -22.4088   34.9940 C   0  0  0  0  0  0  0  0  0  0  0  0
 16 17  1  0  0  0
 17 18  1  0  0  0
 17 15  1  0  0  0
 15 11  1  0  0  0
 11 12  1  0  0  0
 11  7  1  0  0  0
  7  8  2  0  0  0
  7  9  1  0  0  0
  9  6  1  0  0  0
  6 19  1  0  0  0
 19 20  1  0  0  0
 20 21  2  0  0  0
 21 22  1  0  0  0
 22 23  2  0  0  0
 23 24  1  0  0  0
 24 25  2  0  0  0
  6  2  1  0  0  0
  2  3  2  0  0  0
  2  4  1  0  0  0
  4  1  1  0  0  0
  1 43  1  0  0  0
 43 44  1  0  0  0
 44 45  2  0  0  0
 45 46  1  0  0  0
 46 47  2  0  0  0
 47 48  1  0  0  0
 48 49  2  0  0  0
  1 26  1  0  0  0
 26 27  2  0  0  0
 26 28  1  0  0  0
 28 30  1  0  0  0
 30 36  1  0  0  0
 36 37  1  0  0  0
 37 38  2  0  0  0
 38 39  1  0  0  0
 39 40  2  0  0  0
 40 41  1  0  0  0
 41 42  2  0  0  0
 30 31  1  0  0  0
 31 32  1  0  0  0
 31 33  2  0  0  0
 25 20  1  0  0  0
 49 44  1  0  0  0
 42 37  1  0  0  0
 12 13  1  0  0  0
 12 14  1  0  0  0
  9 10  1  0  0  0
  4  5  1  0  0  0
 28 29  1  0  0  0
 32 34  1  0  0  0
 32 35  1  0  0  0
M  END
> <minimizedAffinity>
-6.93008

> <CNNscore>
0.3451484442

> <CNNaffinity>
6.5340547562

> <CNN_VS>
2.2552187443

> <CNNaffinity_variance>
0.2148195207

$$$$
[H]c1c([H])c([H])c(C([H])([H])[C@@]([H])(C(=O)N([H])[H])N([H])C(=O)[C@@]([H])(N([H])C(=O)[C@@]([H])(N([H])C(=O)[C@@]([H])(N([H])[H])C([H])([H])C([H])(C([H])([H])[H])C([H])([H])[H])C([H])([H])c2c([H])c([H])c([H])c([H])c2[H])C([H])([H])c2c([H])c([H])c([H])c([H])c2[H])c([H])c1[H]


 49 51  0  0  0  0  0  0  0  0999 V2000
   39.2092  -19.5326   35.8681 C   0  0  0  0  0  0  0  0  0  0  0  0
   37.2597  -18.1408   36.6290 C   0  0  0  0  0  0  0  0  0  0  0  0
   36.9533  -18.9805   37.5421 O   0  0  0  0  0  0  0  0  0  0  0  0
   38.3615  -18.3539   35.7711 N   0  0  0  0  0  0  0  0  0  0  0  0
   38.5504  -17.6128   35.0378 H   0  0  0  0  0  0  0  0  0  0  0  0
   36.3930  -16.9516   36.5339 C   0  0  0  0  0  0  0  0  0  0  0  0
   34.6699  -17.8935   34.9584 C   0  0  0  0  0  0  0  0  0  0  0  0
   35.5472  -18.2366   34.1419 O   0  0  0  0  0  0  0  0  0  0  0  0
   35.0383  -17.2516   36.1559 N   0  0  0  0  0  0  0  0  0  0  0  0
   34.2260  -16.9808   36.8052 H   0  0  0  0  0  0  0  0  0  0  0  0
   33.2445  -18.1660   34.6566 C   0  0  0  0  0  0  0  0  0  0  0  0
   32.6765  -17.1051   33.8959 N   0  0  0  0  0  0  0  0  0  0  0  0
   32.7104  -16.2295   34.4371 H   0  0  0  0  0  0  0  0  0  0  0  0
   33.1058  -16.9493   32.9710 H   0  0  0  0  0  0  0  0  0  0  0  0
   33.0921  -19.5409   34.0989 C   0  0  0  0  0  0  0  0  0  0  0  0
   32.2650  -21.8056   34.3584 C   0  0  0  0  0  0  0  0  0  0  0  0
   32.2545  -20.4040   34.9909 C   0  0  0  0  0  0  0  0  0  0  0  0
   30.8244  -19.9080   34.9844 C   0  0  0  0  0  0  0  0  0  0  0  0
   36.5586  -15.9633   37.6486 C   0  0  0  0  0  0  0  0  0  0  0  0
   35.8787  -14.6719   37.3695 C   0  0  0  0  0  0  0  0  0  0  0  0
   34.6345  -14.3170   37.8244 C   0  0  0  0  0  0  0  0  0  0  0  0
   34.1014  -13.0690   37.4745 C   0  0  0  0  0  0  0  0  0  0  0  0
   34.7751  -12.1649   36.6836 C   0  0  0  0  0  0  0  0  0  0  0  0
   36.0221  -12.5194   36.2272 C   0  0  0  0  0  0  0  0  0  0  0  0
   36.5488  -13.7430   36.5680 C   0  0  0  0  0  0  0  0  0  0  0  0
   40.5857  -19.1425   36.1360 C   0  0  0  0  0  0  0  0  0  0  0  0
   40.8346  -18.5256   37.2264 O   0  0  0  0  0  0  0  0  0  0  0  0
   41.6535  -19.4092   35.2702 N   0  0  0  0  0  0  0  0  0  0  0  0
   41.5140  -19.8859   34.3553 H   0  0  0  0  0  0  0  0  0  0  0  0
   43.0105  -19.0019   35.6658 C   0  0  0  0  0  0  0  0  0  0  0  0
   43.4414  -17.7689   35.0056 C   0  0  0  0  0  0  0  0  0  0  0  0
   42.8136  -16.5351   35.3493 N   0  0  0  0  0  0  0  0  0  0  0  0
   44.3417  -17.6799   34.1264 O   0  0  0  0  0  0  0  0  0  0  0  0
   43.2182  -15.5985   35.1474 H   0  0  0  0  0  0  0  0  0  0  0  0
   41.8706  -16.5350   35.8416 H   0  0  0  0  0  0  0  0  0  0  0  0
   43.8569  -20.2107   35.3726 C   0  0  0  0  0  0  0  0  0  0  0  0
   43.2917  -21.5170   35.6918 C   0  0  0  0  0  0  0  0  0  0  0  0
   43.1278  -22.4719   34.7063 C   0  0  0  0  0  0  0  0  0  0  0  0
   42.6233  -23.7414   34.9747 C   0  0  0  0  0  0  0  0  0  0  0  0
   42.2597  -24.1091   36.2499 C   0  0  0  0  0  0  0  0  0  0  0  0
   42.4200  -23.1553   37.2521 C   0  0  0  0  0  0  0  0  0  0  0  0
   42.9189  -21.9059   36.9757 C   0  0  0  0  0  0  0  0  0  0  0  0
   38.9844  -20.4913   34.7642 C   0  0  0  0  0  0  0  0  0  0  0  0
   38.9089  -21.9084   35.1021 C   0  0  0  0  0  0  0  0  0  0  0  0
   39.1091  -22.8293   34.1065 C   0  0  0  0  0  0  0  0  0  0  0  0
   39.0379  -24.1858   34.2928 C   0  0  0  0  0  0  0  0  0  0  0  0
   38.7424  -24.6261   35.5823 C   0  0  0  0  0  0  0  0  0  0  0  0
   38.5393  -23.7086   36.5894 C   0  0  0  0  0  0  0  0  0  0  0  0
   38.6185  -22.3538   36.3654 C   0  0  0  0  0  0  0  0  0  0  0  0
 16 17  1  0  0  0
 17 18  1  0  0  0
 17 15  1  0  0  0
 15 11  1  0  0  0
 11 12  1  0  0  0
 11  7  1  0  0  0
  7  8  2  0  0  0
  7  9  1  0  0  0
  9  6  1  0  0  0
  6 19  1  0  0  0
 19 20  1  0  0  0
 20 21  2  0  0  0
 21 22  1  0  0  0
 22 23  2  0  0  0
 23 24  1  0  0  0
 24 25  2  0  0  0
  6  2  1  0  0  0
  2  3  2  0  0  0
  2  4  1  0  0  0
  4  1  1  0  0  0
  1 43  1  0  0  0
 43 44  1  0  0  0
 44 45  2  0  0  0
 45 46  1  0  0  0
 46 47  2  0  0  0
 47 48  1  0  0  0
 48 49  2  0  0  0
  1 26  1  0  0  0
 26 27  2  0  0  0
 26 28  1  0  0  0
 28 30  1  0  0  0
 30 36  1  0  0  0
 36 37  1  0  0  0
 37 38  2  0  0  0
 38 39  1  0  0  0
 39 40  2  0  0  0
 40 41  1  0  0  0
 41 42  2  0  0  0
 30 31  1  0  0  0
 31 32  1  0  0  0
 31 33  2  0  0  0
 25 20  1  0  0  0
 49 44  1  0  0  0
 42 37  1  0  0  0
 12 13  1  0  0  0
 12 14  1  0  0  0
  9 10  1  0  0  0
  4  5  1  0  0  0
 28 29  1  0  0  0
 32 34  1  0  0  0
 32 35  1  0  0  0
M  END
> <minimizedAffinity>
-6.23862

> <CNNscore>
0.3087565005

> <CNNaffinity>
6.3215646744

> <CNN_VS>
1.9518241882

> <CNNaffinity_variance>
0.1151671261

$$$$
[H]c1c([H])c([H])c(C([H])([H])[C@@]([H])(C(=O)N([H])[H])N([H])C(=O)[C@@]([H])(N([H])C(=O)[C@@]([H])(N([H])C(=O)[C@@]([H])(N([H])[H])C([H])([H])C([H])(C([H])([H])[H])C([H])([H])[H])C([H])([H])c2c([H])c([H])c([H])c([H])c2[H])C([H])([H])c2c([H])c([H])c([H])c([H])c2[H])c([H])c1[H]


 49 51  0  0  0  0  0  0  0  0999 V2000
   39.4843  -19.4486   35.6379 C   0  0  0  0  0  0  0  0  0  0  0  0
   37.4981  -18.1663   36.4910 C   0  0  0  0  0  0  0  0  0  0  0  0
   37.2733  -19.0280   37.4074 O   0  0  0  0  0  0  0  0  0  0  0  0
   38.5734  -18.3149   35.5870 N   0  0  0  0  0  0  0  0  0  0  0  0
   38.6935  -17.5593   34.8541 H   0  0  0  0  0  0  0  0  0  0  0  0
   36.5680  -17.0231   36.4430 C   0  0  0  0  0  0  0  0  0  0  0  0
   34.8271  -18.0116   34.9161 C   0  0  0  0  0  0  0  0  0  0  0  0
   35.6817  -18.2731   34.0469 O   0  0  0  0  0  0  0  0  0  0  0  0
   35.2160  -17.3905   36.1181 N   0  0  0  0  0  0  0  0  0  0  0  0
   34.4223  -17.1915   36.8145 H   0  0  0  0  0  0  0  0  0  0  0  0
   33.4070  -18.3583   34.6717 C   0  0  0  0  0  0  0  0  0  0  0  0
   32.7408  -17.3065   33.9813 N   0  0  0  0  0  0  0  0  0  0  0  0
   32.7502  -16.4508   34.5545 H   0  0  0  0  0  0  0  0  0  0  0  0
   33.1138  -17.0913   33.0439 H   0  0  0  0  0  0  0  0  0  0  0  0
   33.3077  -19.7185   34.0679 C   0  0  0  0  0  0  0  0  0  0  0  0
   32.0169  -20.2436   36.0524 C   0  0  0  0  0  0  0  0  0  0  0  0
   32.0748  -20.4331   34.5275 C   0  0  0  0  0  0  0  0  0  0  0  0
   32.2124  -21.9156   34.2539 C   0  0  0  0  0  0  0  0  0  0  0  0
   36.7283  -16.0359   37.5593 C   0  0  0  0  0  0  0  0  0  0  0  0
   35.9889  -14.7712   37.3108 C   0  0  0  0  0  0  0  0  0  0  0  0
   34.7702  -14.4471   37.8499 C   0  0  0  0  0  0  0  0  0  0  0  0
   34.1733  -13.2224   37.5208 C   0  0  0  0  0  0  0  0  0  0  0  0
   34.7585  -12.3121   36.6690 C   0  0  0  0  0  0  0  0  0  0  0  0
   35.9799  -12.6358   36.1283 C   0  0  0  0  0  0  0  0  0  0  0  0
   36.5689  -13.8364   36.4484 C   0  0  0  0  0  0  0  0  0  0  0  0
   40.8628  -18.9850   35.6960 C   0  0  0  0  0  0  0  0  0  0  0  0
   41.3640  -18.4557   34.6471 O   0  0  0  0  0  0  0  0  0  0  0  0
   41.6693  -19.0806   36.8367 N   0  0  0  0  0  0  0  0  0  0  0  0
   41.3293  -19.5235   37.7153 H   0  0  0  0  0  0  0  0  0  0  0  0
   43.0368  -18.5405   36.7898 C   0  0  0  0  0  0  0  0  0  0  0  0
   44.0172  -19.5324   36.3461 C   0  0  0  0  0  0  0  0  0  0  0  0
   44.4023  -19.5698   34.9732 N   0  0  0  0  0  0  0  0  0  0  0  0
   44.5757  -20.3948   37.0781 O   0  0  0  0  0  0  0  0  0  0  0  0
   45.2625  -20.0365   34.6210 H   0  0  0  0  0  0  0  0  0  0  0  0
   43.7942  -19.1036   34.2353 H   0  0  0  0  0  0  0  0  0  0  0  0
   43.2641  -17.9953   38.1735 C   0  0  0  0  0  0  0  0  0  0  0  0
   43.0045  -18.8896   39.2962 C   0  0  0  0  0  0  0  0  0  0  0  0
   44.0330  -19.2921   40.1269 C   0  0  0  0  0  0  0  0  0  0  0  0
   43.8228  -20.1177   41.2279 C   0  0  0  0  0  0  0  0  0  0  0  0
   42.5649  -20.5774   41.5444 C   0  0  0  0  0  0  0  0  0  0  0  0
   41.5196  -20.1788   40.7147 C   0  0  0  0  0  0  0  0  0  0  0  0
   41.7389  -19.3639   39.6311 C   0  0  0  0  0  0  0  0  0  0  0  0
   39.1649  -20.4846   34.6314 C   0  0  0  0  0  0  0  0  0  0  0  0
   38.9799  -21.8528   35.1023 C   0  0  0  0  0  0  0  0  0  0  0  0
   38.6492  -22.0523   36.4177 C   0  0  0  0  0  0  0  0  0  0  0  0
   38.4749  -23.2886   36.9842 C   0  0  0  0  0  0  0  0  0  0  0  0
   38.6512  -24.3908   36.1486 C   0  0  0  0  0  0  0  0  0  0  0  0
   38.9838  -24.2007   34.8256 C   0  0  0  0  0  0  0  0  0  0  0  0
   39.1510  -22.9444   34.2912 C   0  0  0  0  0  0  0  0  0  0  0  0
 16 17  1  0  0  0
 17 18  1  0  0  0
 17 15  1  0  0  0
 15 11  1  0  0  0
 11 12  1  0  0  0
 11  7  1  0  0  0
  7  8  2  0  0  0
  7  9  1  0  0  0
  9  6  1  0  0  0
  6 19  1  0  0  0
 19 20  1  0  0  0
 20 21  2  0  0  0
 21 22  1  0  0  0
 22 23  2  0  0  0
 23 24  1  0  0  0
 24 25  2  0  0  0
  6  2  1  0  0  0
  2  3  2  0  0  0
  2  4  1  0  0  0
  4  1  1  0  0  0
  1 43  1  0  0  0
 43 44  1  0  0  0
 44 45  2  0  0  0
 45 46  1  0  0  0
 46 47  2  0  0  0
 47 48  1  0  0  0
 48 49  2  0  0  0
  1 26  1  0  0  0
 26 27  2  0  0  0
 26 28  1  0  0  0
 28 30  1  0  0  0
 30 36  1  0  0  0
 36 37  1  0  0  0
 37 38  2  0  0  0
 38 39  1  0  0  0
 39 40  2  0  0  0
 40 41  1  0  0  0
 41 42  2  0  0  0
 30 31  1  0  0  0
 31 32  1  0  0  0
 31 33  2  0  0  0
 25 20  1  0  0  0
 49 44  1  0  0  0
 42 37  1  0  0  0
 12 13  1  0  0  0
 12 14  1  0  0  0
  9 10  1  0  0  0
  4  5  1  0  0  0
 28 29  1  0  0  0
 32 34  1  0  0  0
 32 35  1  0  0  0
M  END
> <minimizedAffinity>
-6.83188

> <CNNscore>
0.2490237951

> <CNNaffinity>
6.0427656174

> <CNN_VS>
1.5047924519

> <CNNaffinity_variance>
0.2169175595

$$$$
[H]c1c([H])c([H])c(C([H])([H])[C@@]([H])(C(=O)N([H])[H])N([H])C(=O)[C@@]([H])(N([H])C(=O)[C@@]([H])(N([H])C(=O)[C@@]([H])(N([H])[H])C([H])([H])C([H])(C([H])([H])[H])C([H])([H])[H])C([H])([H])c2c([H])c([H])c([H])c([H])c2[H])C([H])([H])c2c([H])c([H])c([H])c([H])c2[H])c([H])c1[H]


 49 51  0  0  0  0  0  0  0  0999 V2000
   34.8915  -18.0826   35.6329 C   0  0  0  0  0  0  0  0  0  0  0  0
   36.3008  -19.7755   36.8435 C   0  0  0  0  0  0  0  0  0  0  0  0
   37.0435  -19.9616   35.8204 O   0  0  0  0  0  0  0  0  0  0  0  0
   35.2239  -18.8616   36.8162 N   0  0  0  0  0  0  0  0  0  0  0  0
   34.6533  -18.7642   37.7036 H   0  0  0  0  0  0  0  0  0  0  0  0
   36.6409  -20.5720   38.0368 C   0  0  0  0  0  0  0  0  0  0  0  0
   34.5431  -21.1656   39.2962 C   0  0  0  0  0  0  0  0  0  0  0  0
   34.4579  -20.0171   39.7733 O   0  0  0  0  0  0  0  0  0  0  0  0
   35.6074  -21.4900   38.4336 N   0  0  0  0  0  0  0  0  0  0  0  0
   35.6162  -22.5006   38.0686 H   0  0  0  0  0  0  0  0  0  0  0  0
   33.5196  -22.1793   39.6450 C   0  0  0  0  0  0  0  0  0  0  0  0
   32.8793  -21.8501   40.8732 N   0  0  0  0  0  0  0  0  0  0  0  0
   33.5706  -21.8413   41.6367 H   0  0  0  0  0  0  0  0  0  0  0  0
   32.3621  -20.9576   40.8732 H   0  0  0  0  0  0  0  0  0  0  0  0
   32.6281  -22.4313   38.4761 C   0  0  0  0  0  0  0  0  0  0  0  0
   33.6913  -23.9712   36.9339 C   0  0  0  0  0  0  0  0  0  0  0  0
   32.6559  -23.8712   38.0664 C   0  0  0  0  0  0  0  0  0  0  0  0
   31.3108  -24.2651   37.4948 C   0  0  0  0  0  0  0  0  0  0  0  0
   38.0389  -21.1125   38.0534 C   0  0  0  0  0  0  0  0  0  0  0  0
   38.0827  -22.5832   37.8460 C   0  0  0  0  0  0  0  0  0  0  0  0
   37.8371  -23.2233   36.6583 C   0  0  0  0  0  0  0  0  0  0  0  0
   37.8978  -24.6224   36.6025 C   0  0  0  0  0  0  0  0  0  0  0  0
   38.1970  -25.4007   37.6987 C   0  0  0  0  0  0  0  0  0  0  0  0
   38.4434  -24.7601   38.8895 C   0  0  0  0  0  0  0  0  0  0  0  0
   38.3847  -23.3876   38.9486 C   0  0  0  0  0  0  0  0  0  0  0  0
   35.7247  -16.8910   35.5639 C   0  0  0  0  0  0  0  0  0  0  0  0
   36.7233  -16.9007   34.7675 O   0  0  0  0  0  0  0  0  0  0  0  0
   35.4916  -15.7330   36.3158 N   0  0  0  0  0  0  0  0  0  0  0  0
   34.7101  -15.6697   37.0006 H   0  0  0  0  0  0  0  0  0  0  0  0
   36.3786  -14.5739   36.1325 C   0  0  0  0  0  0  0  0  0  0  0  0
   37.1232  -14.2392   37.3473 C   0  0  0  0  0  0  0  0  0  0  0  0
   36.9012  -14.9973   38.5350 N   0  0  0  0  0  0  0  0  0  0  0  0
   37.9702  -13.3112   37.4600 O   0  0  0  0  0  0  0  0  0  0  0  0
   37.5538  -15.0177   39.3445 H   0  0  0  0  0  0  0  0  0  0  0  0
   36.0226  -15.5886   38.6345 H   0  0  0  0  0  0  0  0  0  0  0  0
   35.4665  -13.4899   35.6258 C   0  0  0  0  0  0  0  0  0  0  0  0
   34.4970  -12.9375   36.5652 C   0  0  0  0  0  0  0  0  0  0  0  0
   33.5405  -13.7482   37.1465 C   0  0  0  0  0  0  0  0  0  0  0  0
   32.6184  -13.2679   38.0723 C   0  0  0  0  0  0  0  0  0  0  0  0
   32.6165  -11.9465   38.4567 C   0  0  0  0  0  0  0  0  0  0  0  0
   33.5757  -11.1190   37.8778 C   0  0  0  0  0  0  0  0  0  0  0  0
   34.4806  -11.6041   36.9655 C   0  0  0  0  0  0  0  0  0  0  0  0
   33.4342  -17.8952   35.4621 C   0  0  0  0  0  0  0  0  0  0  0  0
   32.6129  -19.0885   35.2901 C   0  0  0  0  0  0  0  0  0  0  0  0
   33.2154  -20.2389   34.8509 C   0  0  0  0  0  0  0  0  0  0  0  0
   32.5475  -21.4150   34.6258 C   0  0  0  0  0  0  0  0  0  0  0  0
   31.1741  -21.4111   34.8661 C   0  0  0  0  0  0  0  0  0  0  0  0
   30.5596  -20.2601   35.3073 C   0  0  0  0  0  0  0  0  0  0  0  0
   31.2621  -19.0973   35.5223 C   0  0  0  0  0  0  0  0  0  0  0  0
 16 17  1  0  0  0
 17 18  1  0  0  0
 17 15  1  0  0  0
 15 11  1  0  0  0
 11 12  1  0  0  0
 11  7  1  0  0  0
  7  8  2  0  0  0
  7  9  1  0  0  0
  9  6  1  0  0  0
  6 19  1  0  0  0
 19 20  1  0  0  0
 20 21  2  0  0  0
 21 22  1  0  0  0
 22 23  2  0  0  0
 23 24  1  0  0  0
 24 25  2  0  0  0
  6  2  1  0  0  0
  2  3  2  0  0  0
  2  4  1  0  0  0
  4  1  1  0  0  0
  1 43  1  0  0  0
 43 44  1  0  0  0
 44 45  2  0  0  0
 45 46  1  0  0  0
 46 47  2  0  0  0
 47 48  1  0  0  0
 48 49  2  0  0  0
  1 26  1  0  0  0
 26 27  2  0  0  0
 26 28  1  0  0  0
 28 30  1  0  0  0
 30 36  1  0  0  0
 36 37  1  0  0  0
 37 38  2  0  0  0
 38 39  1  0  0  0
 39 40  2  0  0  0
 40 41  1  0  0  0
 41 42  2  0  0  0
 30 31  1  0  0  0
 31 32  1  0  0  0
 31 33  2  0  0  0
 25 20  1  0  0  0
 49 44  1  0  0  0
 42 37  1  0  0  0
 12 13  1  0  0  0
 12 14  1  0  0  0
  9 10  1  0  0  0
  4  5  1  0  0  0
 28 29  1  0  0  0
 32 34  1  0  0  0
 32 35  1  0  0  0
M  END
> <minimizedAffinity>
-6.18680

> <CNNscore>
0.2219088227

> <CNNaffinity>
5.7204232216

> <CNN_VS>
1.2694123983

> <CNNaffinity_variance>
0.4563372731

$$$$
[H]c1c([H])c([H])c(C([H])([H])[C@@]([H])(C(=O)N([H])[H])N([H])C(=O)[C@@]([H])(N([H])C(=O)[C@@]([H])(N([H])C(=O)[C@@]([H])(N([H])[H])C([H])([H])C([H])(C([H])([H])[H])C([H])([H])[H])C([H])([H])c2c([H])c([H])c([H])c([H])c2[H])C([H])([H])c2c([H])c([H])c([H])c([H])c2[H])c([H])c1[H]


 49 51  0  0  0  0  0  0  0  0999 V2000
   36.4856  -19.6441   34.9102 C   0  0  0  0  0  0  0  0  0  0  0  0
   36.6720  -20.4252   37.2918 C   0  0  0  0  0  0  0  0  0  0  0  0
   37.1077  -19.2890   37.6820 O   0  0  0  0  0  0  0  0  0  0  0  0
   36.3458  -20.6643   35.9383 N   0  0  0  0  0  0  0  0  0  0  0  0
   35.9924  -21.6324   35.6926 H   0  0  0  0  0  0  0  0  0  0  0  0
   36.5378  -21.4550   38.3386 C   0  0  0  0  0  0  0  0  0  0  0  0
   34.0406  -21.6340   38.6042 C   0  0  0  0  0  0  0  0  0  0  0  0
   33.9556  -20.4464   38.9740 O   0  0  0  0  0  0  0  0  0  0  0  0
   35.2973  -22.1801   38.2812 N   0  0  0  0  0  0  0  0  0  0  0  0
   35.2901  -23.2108   37.9775 H   0  0  0  0  0  0  0  0  0  0  0  0
   32.8130  -22.4592   38.5098 C   0  0  0  0  0  0  0  0  0  0  0  0
   32.1528  -22.5302   39.7692 N   0  0  0  0  0  0  0  0  0  0  0  0
   32.7684  -22.9795   40.4620 H   0  0  0  0  0  0  0  0  0  0  0  0
   31.8228  -21.6273   40.1433 H   0  0  0  0  0  0  0  0  0  0  0  0
   31.9868  -22.0185   37.3490 C   0  0  0  0  0  0  0  0  0  0  0  0
   30.6819  -23.6523   36.1208 C   0  0  0  0  0  0  0  0  0  0  0  0
   30.6561  -22.7050   37.3318 C   0  0  0  0  0  0  0  0  0  0  0  0
   29.5603  -21.6877   37.0958 C   0  0  0  0  0  0  0  0  0  0  0  0
   37.7683  -22.2791   38.5700 C   0  0  0  0  0  0  0  0  0  0  0  0
   38.6936  -21.6564   39.5518 C   0  0  0  0  0  0  0  0  0  0  0  0
   39.9274  -21.1351   39.2573 C   0  0  0  0  0  0  0  0  0  0  0  0
   40.7087  -20.5876   40.2840 C   0  0  0  0  0  0  0  0  0  0  0  0
   40.2932  -20.5455   41.5964 C   0  0  0  0  0  0  0  0  0  0  0  0
   39.0568  -21.0675   41.8926 C   0  0  0  0  0  0  0  0  0  0  0  0
   38.2871  -21.6058   40.8883 C   0  0  0  0  0  0  0  0  0  0  0  0
   37.8739  -19.2189   34.8079 C   0  0  0  0  0  0  0  0  0  0  0  0
   38.1098  -17.9824   34.5911 O   0  0  0  0  0  0  0  0  0  0  0  0
   38.9657  -20.0859   34.9389 N   0  0  0  0  0  0  0  0  0  0  0  0
   38.8413  -21.1081   35.0915 H   0  0  0  0  0  0  0  0  0  0  0  0
   40.3271  -19.5347   34.8567 C   0  0  0  0  0  0  0  0  0  0  0  0
   40.7145  -19.1978   33.4861 C   0  0  0  0  0  0  0  0  0  0  0  0
   40.7497  -17.8293   33.0855 N   0  0  0  0  0  0  0  0  0  0  0  0
   41.0281  -20.0232   32.5852 O   0  0  0  0  0  0  0  0  0  0  0  0
   41.2573  -17.4795   32.2478 H   0  0  0  0  0  0  0  0  0  0  0  0
   40.2335  -17.0932   33.6541 H   0  0  0  0  0  0  0  0  0  0  0  0
   41.1854  -20.5749   35.5236 C   0  0  0  0  0  0  0  0  0  0  0  0
   42.0970  -20.1211   36.5681 C   0  0  0  0  0  0  0  0  0  0  0  0
   42.0137  -18.8336   37.0634 C   0  0  0  0  0  0  0  0  0  0  0  0
   42.8421  -18.3715   38.0823 C   0  0  0  0  0  0  0  0  0  0  0  0
   43.7948  -19.1856   38.6510 C   0  0  0  0  0  0  0  0  0  0  0  0
   43.8888  -20.4857   38.1604 C   0  0  0  0  0  0  0  0  0  0  0  0
   43.0659  -20.9308   37.1547 C   0  0  0  0  0  0  0  0  0  0  0  0
   35.4626  -18.5809   35.0164 C   0  0  0  0  0  0  0  0  0  0  0  0
   34.0692  -18.9574   34.8047 C   0  0  0  0  0  0  0  0  0  0  0  0
   33.1150  -18.4231   35.6313 C   0  0  0  0  0  0  0  0  0  0  0  0
   31.7788  -18.7194   35.5498 C   0  0  0  0  0  0  0  0  0  0  0  0
   31.3968  -19.6214   34.5575 C   0  0  0  0  0  0  0  0  0  0  0  0
   32.3482  -20.1638   33.7222 C   0  0  0  0  0  0  0  0  0  0  0  0
   33.6811  -19.8433   33.8335 C   0  0  0  0  0  0  0  0  0  0  0  0
 16 17  1  0  0  0
 17 18  1  0  0  0
 17 15  1  0  0  0
 15 11  1  0  0  0
 11 12  1  0  0  0
 11  7  1  0  0  0
  7  8  2  0  0  0
  7  9  1  0  0  0
  9  6  1  0  0  0
  6 19  1  0  0  0
 19 20  1  0  0  0
 20 21  2  0  0  0
 21 22  1  0  0  0
 22 23  2  0  0  0
 23 24  1  0  0  0
 24 25  2  0  0  0
  6  2  1  0  0  0
  2  3  2  0  0  0
  2  4  1  0  0  0
  4  1  1  0  0  0
  1 43  1  0  0  0
 43 44  1  0  0  0
 44 45  2  0  0  0
 45 46  1  0  0  0
 46 47  2  0  0  0
 47 48  1  0  0  0
 48 49  2  0  0  0
  1 26  1  0  0  0
 26 27  2  0  0  0
 26 28  1  0  0  0
 28 30  1  0  0  0
 30 36  1  0  0  0
 36 37  1  0  0  0
 37 38  2  0  0  0
 38 39  1  0  0  0
 39 40  2  0  0  0
 40 41  1  0  0  0
 41 42  2  0  0  0
 30 31  1  0  0  0
 31 32  1  0  0  0
 31 33  2  0  0  0
 25 20  1  0  0  0
 49 44  1  0  0  0
 42 37  1  0  0  0
 12 13  1  0  0  0
 12 14  1  0  0  0
  9 10  1  0  0  0
  4  5  1  0  0  0
 28 29  1  0  0  0
 32 34  1  0  0  0
 32 35  1  0  0  0
M  END
> <minimizedAffinity>
-5.51955

> <CNNscore>
0.2009041905

> <CNNaffinity>
5.6709947586

> <CNN_VS>
1.1393265724

> <CNNaffinity_variance>
0.3989739120

$$$$
[H]c1c([H])c([H])c(C([H])([H])[C@@]([H])(C(=O)N([H])[H])N([H])C(=O)[C@@]([H])(N([H])C(=O)[C@@]([H])(N([H])C(=O)[C@@]([H])(N([H])[H])C([H])([H])C([H])(C([H])([H])[H])C([H])([H])[H])C([H])([H])c2c([H])c([H])c([H])c([H])c2[H])C([H])([H])c2c([H])c([H])c([H])c([H])c2[H])c([H])c1[H]


 49 51  0  0  0  0  0  0  0  0999 V2000
   35.7695  -18.6496   36.2321 C   0  0  0  0  0  0  0  0  0  0  0  0
   38.1832  -18.8624   35.5645 C   0  0  0  0  0  0  0  0  0  0  0  0
   38.5809  -18.2878   36.6343 O   0  0  0  0  0  0  0  0  0  0  0  0
   36.8102  -19.0721   35.3069 N   0  0  0  0  0  0  0  0  0  0  0  0
   36.5597  -19.5539   34.3972 H   0  0  0  0  0  0  0  0  0  0  0  0
   39.2434  -19.2831   34.6300 C   0  0  0  0  0  0  0  0  0  0  0  0
   41.6842  -18.7897   34.2587 C   0  0  0  0  0  0  0  0  0  0  0  0
   41.5485  -18.8513   33.0210 O   0  0  0  0  0  0  0  0  0  0  0  0
   40.5733  -18.9989   35.0978 N   0  0  0  0  0  0  0  0  0  0  0  0
   40.7709  -18.9361   36.1521 H   0  0  0  0  0  0  0  0  0  0  0  0
   43.0186  -18.4967   34.8336 C   0  0  0  0  0  0  0  0  0  0  0  0
   43.7916  -17.7028   33.9395 N   0  0  0  0  0  0  0  0  0  0  0  0
   43.9458  -18.2162   33.0601 H   0  0  0  0  0  0  0  0  0  0  0  0
   43.3984  -16.7735   33.7257 H   0  0  0  0  0  0  0  0  0  0  0  0
   42.8754  -17.9826   36.2263 C   0  0  0  0  0  0  0  0  0  0  0  0
   43.4649  -20.2151   36.9671 C   0  0  0  0  0  0  0  0  0  0  0  0
   43.7653  -18.7217   37.1771 C   0  0  0  0  0  0  0  0  0  0  0  0
   43.3904  -18.3738   38.6019 C   0  0  0  0  0  0  0  0  0  0  0  0
   39.0397  -20.6357   34.0171 C   0  0  0  0  0  0  0  0  0  0  0  0
   39.5389  -21.7342   34.8842 C   0  0  0  0  0  0  0  0  0  0  0  0
   38.9539  -22.1488   36.0533 C   0  0  0  0  0  0  0  0  0  0  0  0
   39.5376  -23.1915   36.7856 C   0  0  0  0  0  0  0  0  0  0  0  0
   40.6886  -23.8323   36.3839 C   0  0  0  0  0  0  0  0  0  0  0  0
   41.2756  -23.4177   35.2124 C   0  0  0  0  0  0  0  0  0  0  0  0
   40.7064  -22.3949   34.4909 C   0  0  0  0  0  0  0  0  0  0  0  0
   35.3609  -19.7645   37.0740 C   0  0  0  0  0  0  0  0  0  0  0  0
   34.8413  -19.5008   38.2107 O   0  0  0  0  0  0  0  0  0  0  0  0
   35.4994  -21.1089   36.7076 N   0  0  0  0  0  0  0  0  0  0  0  0
   35.9372  -21.3912   35.8064 H   0  0  0  0  0  0  0  0  0  0  0  0
   35.0128  -22.1511   37.6247 C   0  0  0  0  0  0  0  0  0  0  0  0
   36.0810  -22.7145   38.4514 C   0  0  0  0  0  0  0  0  0  0  0  0
   36.3480  -24.1144   38.3908 N   0  0  0  0  0  0  0  0  0  0  0  0
   36.8160  -22.0676   39.2468 O   0  0  0  0  0  0  0  0  0  0  0  0
   37.2316  -24.5545   38.7182 H   0  0  0  0  0  0  0  0  0  0  0  0
   35.6192  -24.7801   37.9942 H   0  0  0  0  0  0  0  0  0  0  0  0
   34.3169  -23.1361   36.7253 C   0  0  0  0  0  0  0  0  0  0  0  0
   32.8761  -22.9850   36.5550 C   0  0  0  0  0  0  0  0  0  0  0  0
   32.1461  -22.1879   37.4163 C   0  0  0  0  0  0  0  0  0  0  0  0
   30.7759  -21.9907   37.2691 C   0  0  0  0  0  0  0  0  0  0  0  0
   30.0755  -22.5881   36.2462 C   0  0  0  0  0  0  0  0  0  0  0  0
   30.8000  -23.3941   35.3713 C   0  0  0  0  0  0  0  0  0  0  0  0
   32.1518  -23.5813   35.5262 C   0  0  0  0  0  0  0  0  0  0  0  0
   34.6953  -17.8772   35.5706 C   0  0  0  0  0  0  0  0  0  0  0  0
   33.5159  -18.6069   35.1182 C   0  0  0  0  0  0  0  0  0  0  0  0
   33.6710  -19.5627   34.1479 C   0  0  0  0  0  0  0  0  0  0  0  0
   32.6378  -20.2953   33.6228 C   0  0  0  0  0  0  0  0  0  0  0  0
   31.3641  -20.0305   34.1245 C   0  0  0  0  0  0  0  0  0  0  0  0
   31.1980  -19.0717   35.0994 C   0  0  0  0  0  0  0  0  0  0  0  0
   32.2587  -18.3554   35.6029 C   0  0  0  0  0  0  0  0  0  0  0  0
 16 17  1  0  0  0
 17 18  1  0  0  0
 17 15  1  0  0  0
 15 11  1  0  0  0
 11 12  1  0  0  0
 11  7  1  0  0  0
  7  8  2  0  0  0
  7  9  1  0  0  0
  9  6  1  0  0  0
  6 19  1  0  0  0
 19 20  1  0  0  0
 20 21  2  0  0  0
 21 22  1  0  0  0
 22 23  2  0  0  0
 23 24  1  0  0  0
 24 25  2  0  0  0
  6  2  1  0  0  0
  2  3  2  0  0  0
  2  4  1  0  0  0
  4  1  1  0  0  0
  1 43  1  0  0  0
 43 44  1  0  0  0
 44 45  2  0  0  0
 45 46  1  0  0  0
 46 47  2  0  0  0
 47 48  1  0  0  0
 48 49  2  0  0  0
  1 26  1  0  0  0
 26 27  2  0  0  0
 26 28  1  0  0  0
 28 30  1  0  0  0
 30 36  1  0  0  0
 36 37  1  0  0  0
 37 38  2  0  0  0
 38 39  1  0  0  0
 39 40  2  0  0  0
 40 41  1  0  0  0
 41 42  2  0  0  0
 30 31  1  0  0  0
 31 32  1  0  0  0
 31 33  2  0  0  0
 25 20  1  0  0  0
 49 44  1  0  0  0
 42 37  1  0  0  0
 12 13  1  0  0  0
 12 14  1  0  0  0
  9 10  1  0  0  0
  4  5  1  0  0  0
 28 29  1  0  0  0
 32 34  1  0  0  0
 32 35  1  0  0  0
M  END
> <minimizedAffinity>
-5.35188

> <CNNscore>
0.1454089582

> <CNNaffinity>
5.5775933266

> <CNN_VS>
0.8110320568

> <CNNaffinity_variance>
0.3041528463

$$$$
[H]Oc1c([H])c2c(c([H])c1O[H])C([H])([H])C([H])([H])N(C(=O)c1c([H])c(C([H])(C([H])([H])[H])C([H])([H])[H])c(O[H])c([H])c1O[H])C2([H])[H]


 29 31  0  0  0  0  0  0  0  0999 V2000
   33.9270  -19.6459   36.2011 C   0  0  0  0  0  0  0  0  0  0  0  0
   34.7652  -20.4817   36.7025 O   0  0  0  0  0  0  0  0  0  0  0  0
   34.4992  -18.3934   35.9043 N   0  0  0  0  0  0  0  0  0  0  0  0
   35.9488  -18.2710   36.1539 C   0  0  0  0  0  0  0  0  0  0  0  0
   36.5617  -17.1133   35.4016 C   0  0  0  0  0  0  0  0  0  0  0  0
   35.8380  -15.8526   35.7550 C   0  0  0  0  0  0  0  0  0  0  0  0
   36.4466  -14.6651   36.0550 C   0  0  0  0  0  0  0  0  0  0  0  0
   35.6682  -13.5774   36.3852 C   0  0  0  0  0  0  0  0  0  0  0  0
   36.2464  -12.3513   36.6971 O   0  0  0  0  0  0  0  0  0  0  0  0
   34.2905  -13.6511   36.4221 C   0  0  0  0  0  0  0  0  0  0  0  0
   33.5303  -12.5149   36.7652 O   0  0  0  0  0  0  0  0  0  0  0  0
   33.6818  -14.8488   36.1189 C   0  0  0  0  0  0  0  0  0  0  0  0
   34.4674  -15.9386   35.7875 C   0  0  0  0  0  0  0  0  0  0  0  0
   33.7984  -17.2326   35.4360 C   0  0  0  0  0  0  0  0  0  0  0  0
   35.7163  -11.5376   36.9421 H   0  0  0  0  0  0  0  0  0  0  0  0
   32.5403  -12.5607   36.7937 H   0  0  0  0  0  0  0  0  0  0  0  0
   30.7457  -21.6350   36.6582 C   0  0  0  0  0  0  0  0  0  0  0  0
   32.0659  -21.2116   36.7392 C   0  0  0  0  0  0  0  0  0  0  0  0
   32.5760  -20.1178   36.0356 C   0  0  0  0  0  0  0  0  0  0  0  0
   31.7052  -19.4056   35.2008 C   0  0  0  0  0  0  0  0  0  0  0  0
   32.0953  -18.3321   34.4701 O   0  0  0  0  0  0  0  0  0  0  0  0
   30.3714  -19.8409   35.1270 C   0  0  0  0  0  0  0  0  0  0  0  0
   29.9230  -20.9159   35.8338 C   0  0  0  0  0  0  0  0  0  0  0  0
   28.6032  -21.3207   35.7392 O   0  0  0  0  0  0  0  0  0  0  0  0
   32.8256  -17.7875   34.2504 H   0  0  0  0  0  0  0  0  0  0  0  0
   27.9867  -20.7989   35.1347 H   0  0  0  0  0  0  0  0  0  0  0  0
   30.2255  -24.0593   36.5851 C   0  0  0  0  0  0  0  0  0  0  0  0
   30.2136  -22.7838   37.3953 C   0  0  0  0  0  0  0  0  0  0  0  0
   31.0587  -23.0030   38.6254 C   0  0  0  0  0  0  0  0  0  0  0  0
 27 28  1  0  0  0
 28 29  1  0  0  0
 28 17  1  0  0  0
 17 18  2  0  0  0
 18 19  1  0  0  0
 19  1  1  0  0  0
  1  2  2  0  0  0
  1  3  1  0  0  0
  3  4  1  0  0  0
  4  5  1  0  0  0
  5  6  1  0  0  0
  6  7  2  0  0  0
  7  8  1  0  0  0
  8  9  1  0  0  0
  8 10  2  0  0  0
 10 11  1  0  0  0
 10 12  1  0  0  0
 12 13  2  0  0  0
 13 14  1  0  0  0
 19 20  2  0  0  0
 20 21  1  0  0  0
 20 22  1  0  0  0
 22 23  2  0  0  0
 23 24  1  0  0  0
 23 17  1  0  0  0
 14  3  1  0  0  0
 13  6  1  0  0  0
  9 15  1  0  0  0
 11 16  1  0  0  0
 21 25  1  0  0  0
 24 26  1  0  0  0
M  END
> <minimizedAffinity>
-7.74143

> <CNNscore>
0.4351180792

> <CNNaffinity>
4.6263532639

> <CNN_VS>
2.0130100250

> <CNNaffinity_variance>
0.6822400093

$$$$
[H]Oc1c([H])c2c(c([H])c1O[H])C([H])([H])C([H])([H])N(C(=O)c1c([H])c(C([H])(C([H])([H])[H])C([H])([H])[H])c(O[H])c([H])c1O[H])C2([H])[H]


 29 31  0  0  0  0  0  0  0  0999 V2000
   35.5254  -18.8332   37.2531 C   0  0  0  0  0  0  0  0  0  0  0  0
   36.4139  -19.1621   38.1219 O   0  0  0  0  0  0  0  0  0  0  0  0
   35.5993  -17.4810   36.8652 N   0  0  0  0  0  0  0  0  0  0  0  0
   36.7003  -16.6985   37.4601 C   0  0  0  0  0  0  0  0  0  0  0  0
   36.9983  -15.4435   36.6741 C   0  0  0  0  0  0  0  0  0  0  0  0
   35.7512  -14.6264   36.5518 C   0  0  0  0  0  0  0  0  0  0  0  0
   35.6852  -13.2746   36.7489 C   0  0  0  0  0  0  0  0  0  0  0  0
   34.4698  -12.6376   36.6262 C   0  0  0  0  0  0  0  0  0  0  0  0
   34.3584  -11.2644   36.8183 O   0  0  0  0  0  0  0  0  0  0  0  0
   33.3153  -13.3246   36.3098 C   0  0  0  0  0  0  0  0  0  0  0  0
   32.0913  -12.6354   36.1941 O   0  0  0  0  0  0  0  0  0  0  0  0
   33.3864  -14.6858   36.1119 C   0  0  0  0  0  0  0  0  0  0  0  0
   34.6092  -15.3213   36.2358 C   0  0  0  0  0  0  0  0  0  0  0  0
   34.6841  -16.7987   35.9964 C   0  0  0  0  0  0  0  0  0  0  0  0
   33.4942  -10.7645   36.7385 H   0  0  0  0  0  0  0  0  0  0  0  0
   31.2581  -13.1225   35.9671 H   0  0  0  0  0  0  0  0  0  0  0  0
   32.7051  -20.6430   35.5048 C   0  0  0  0  0  0  0  0  0  0  0  0
   33.5397  -19.6425   35.9855 C   0  0  0  0  0  0  0  0  0  0  0  0
   34.6230  -19.8759   36.8362 C   0  0  0  0  0  0  0  0  0  0  0  0
   34.8835  -21.1959   37.2264 C   0  0  0  0  0  0  0  0  0  0  0  0
   35.9048  -21.5344   38.0514 O   0  0  0  0  0  0  0  0  0  0  0  0
   34.0343  -22.2008   36.7335 C   0  0  0  0  0  0  0  0  0  0  0  0
   32.9891  -21.9206   35.9057 C   0  0  0  0  0  0  0  0  0  0  0  0
   32.1700  -22.9327   35.4376 O   0  0  0  0  0  0  0  0  0  0  0  0
   36.6175  -21.1953   38.5568 H   0  0  0  0  0  0  0  0  0  0  0  0
   32.3689  -23.8788   35.7259 H   0  0  0  0  0  0  0  0  0  0  0  0
   30.4043  -19.7353   35.3161 C   0  0  0  0  0  0  0  0  0  0  0  0
   31.5683  -20.3956   34.6144 C   0  0  0  0  0  0  0  0  0  0  0  0
   32.0176  -19.4870   33.4973 C   0  0  0  0  0  0  0  0  0  0  0  0
 27 28  1  0  0  0
 28 29  1  0  0  0
 28 17  1  0  0  0
 17 18  2  0  0  0
 18 19  1  0  0  0
 19  1  1  0  0  0
  1  2  2  0  0  0
  1  3  1  0  0  0
  3  4  1  0  0  0
  4  5  1  0  0  0
  5  6  1  0  0  0
  6  7  2  0  0  0
  7  8  1  0  0  0
  8  9  1  0  0  0
  8 10  2  0  0  0
 10 11  1  0  0  0
 10 12  1  0  0  0
 12 13  2  0  0  0
 13 14  1  0  0  0
 19 20  2  0  0  0
 20 21  1  0  0  0
 20 22  1  0  0  0
 22 23  2  0  0  0
 23 24  1  0  0  0
 23 17  1  0  0  0
 14  3  1  0  0  0
 13  6  1  0  0  0
  9 15  1  0  0  0
 11 16  1  0  0  0
 21 25  1  0  0  0
 24 26  1  0  0  0
M  END
> <minimizedAffinity>
-7.76719

> <CNNscore>
0.4193400443

> <CNNaffinity>
4.9780325890

> <CNN_VS>
2.0874884129

> <CNNaffinity_variance>
0.1489991248

$$$$
[H]Oc1c([H])c2c(c([H])c1O[H])C([H])([H])C([H])([H])N(C(=O)c1c([H])c(C([H])(C([H])([H])[H])C([H])([H])[H])c(O[H])c([H])c1O[H])C2([H])[H]


 29 31  0  0  0  0  0  0  0  0999 V2000
   34.2808  -18.7354   35.8331 C   0  0  0  0  0  0  0  0  0  0  0  0
   34.1681  -17.4723   35.6223 O   0  0  0  0  0  0  0  0  0  0  0  0
   33.0707  -19.4376   35.6692 N   0  0  0  0  0  0  0  0  0  0  0  0
   31.9129  -18.6341   35.2306 C   0  0  0  0  0  0  0  0  0  0  0  0
   30.8161  -19.4884   34.6399 C   0  0  0  0  0  0  0  0  0  0  0  0
   30.4120  -20.5332   35.6315 C   0  0  0  0  0  0  0  0  0  0  0  0
   29.1186  -20.8614   35.9312 C   0  0  0  0  0  0  0  0  0  0  0  0
   28.8752  -21.8300   36.8802 C   0  0  0  0  0  0  0  0  0  0  0  0
   27.5752  -22.1939   37.2150 O   0  0  0  0  0  0  0  0  0  0  0  0
   29.8999  -22.4796   37.5383 C   0  0  0  0  0  0  0  0  0  0  0  0
   29.6085  -23.4647   38.5032 O   0  0  0  0  0  0  0  0  0  0  0  0
   31.2010  -22.1462   37.2331 C   0  0  0  0  0  0  0  0  0  0  0  0
   31.4407  -21.1731   36.2790 C   0  0  0  0  0  0  0  0  0  0  0  0
   32.8585  -20.8313   35.9347 C   0  0  0  0  0  0  0  0  0  0  0  0
   27.3564  -22.8923   37.8987 H   0  0  0  0  0  0  0  0  0  0  0  0
   30.3395  -23.9353   38.9798 H   0  0  0  0  0  0  0  0  0  0  0  0
   37.9476  -19.6311   35.6383 C   0  0  0  0  0  0  0  0  0  0  0  0
   36.6556  -19.2575   35.2923 C   0  0  0  0  0  0  0  0  0  0  0  0
   35.5922  -19.2077   36.1970 C   0  0  0  0  0  0  0  0  0  0  0  0
   35.8437  -19.5534   37.5310 C   0  0  0  0  0  0  0  0  0  0  0  0
   34.8851  -19.5440   38.4899 O   0  0  0  0  0  0  0  0  0  0  0  0
   37.1543  -19.9285   37.8711 C   0  0  0  0  0  0  0  0  0  0  0  0
   38.1575  -19.9618   36.9499 C   0  0  0  0  0  0  0  0  0  0  0  0
   39.4382  -20.3364   37.3160 O   0  0  0  0  0  0  0  0  0  0  0  0
   33.9762  -19.3850   38.6540 H   0  0  0  0  0  0  0  0  0  0  0  0
   39.6057  -20.5825   38.2799 H   0  0  0  0  0  0  0  0  0  0  0  0
   39.1824  -21.0243   33.9989 C   0  0  0  0  0  0  0  0  0  0  0  0
   39.0608  -19.6847   34.6874 C   0  0  0  0  0  0  0  0  0  0  0  0
   38.8435  -18.6325   33.6285 C   0  0  0  0  0  0  0  0  0  0  0  0
 27 28  1  0  0  0
 28 29  1  0  0  0
 28 17  1  0  0  0
 17 18  2  0  0  0
 18 19  1  0  0  0
 19  1  1  0  0  0
  1  2  2  0  0  0
  1  3  1  0  0  0
  3  4  1  0  0  0
  4  5  1  0  0  0
  5  6  1  0  0  0
  6  7  2  0  0  0
  7  8  1  0  0  0
  8  9  1  0  0  0
  8 10  2  0  0  0
 10 11  1  0  0  0
 10 12  1  0  0  0
 12 13  2  0  0  0
 13 14  1  0  0  0
 19 20  2  0  0  0
 20 21  1  0  0  0
 20 22  1  0  0  0
 22 23  2  0  0  0
 23 24  1  0  0  0
 23 17  1  0  0  0
 14  3  1  0  0  0
 13  6  1  0  0  0
  9 15  1  0  0  0
 11 16  1  0  0  0
 21 25  1  0  0  0
 24 26  1  0  0  0
M  END
> <minimizedAffinity>
-5.96441

> <CNNscore>
0.3954876363

> <CNNaffinity>
4.3265500069

> <CNN_VS>
1.7110970020

> <CNNaffinity_variance>
0.1538851112

$$$$
[H]Oc1c([H])c2c(c([H])c1O[H])C([H])([H])C([H])([H])N(C(=O)c1c([H])c(C([H])(C([H])([H])[H])C([H])([H])[H])c(O[H])c([H])c1O[H])C2([H])[H]


 29 31  0  0  0  0  0  0  0  0999 V2000
   35.4394  -12.8811   36.9689 C   0  0  0  0  0  0  0  0  0  0  0  0
   36.6248  -12.3889   36.8975 O   0  0  0  0  0  0  0  0  0  0  0  0
   35.4010  -14.2737   36.7594 N   0  0  0  0  0  0  0  0  0  0  0  0
   36.7067  -14.9322   36.5596 C   0  0  0  0  0  0  0  0  0  0  0  0
   36.6387  -16.4209   36.8063 C   0  0  0  0  0  0  0  0  0  0  0  0
   35.5843  -17.0216   35.9315 C   0  0  0  0  0  0  0  0  0  0  0  0
   35.7378  -18.1710   35.2064 C   0  0  0  0  0  0  0  0  0  0  0  0
   34.6960  -18.6122   34.4203 C   0  0  0  0  0  0  0  0  0  0  0  0
   34.8101  -19.7761   33.6672 O   0  0  0  0  0  0  0  0  0  0  0  0
   33.5002  -17.9272   34.3430 C   0  0  0  0  0  0  0  0  0  0  0  0
   32.4588  -18.4121   33.5264 O   0  0  0  0  0  0  0  0  0  0  0  0
   33.3498  -16.7703   35.0751 C   0  0  0  0  0  0  0  0  0  0  0  0
   34.3986  -16.3311   35.8635 C   0  0  0  0  0  0  0  0  0  0  0  0
   34.2205  -15.0844   36.6756 C   0  0  0  0  0  0  0  0  0  0  0  0
   34.0770  -20.1299   33.0838 H   0  0  0  0  0  0  0  0  0  0  0  0
   31.5973  -17.9252   33.4660 H   0  0  0  0  0  0  0  0  0  0  0  0
   33.3945   -9.7034   37.0461 C   0  0  0  0  0  0  0  0  0  0  0  0
   34.4380  -10.6026   36.8695 C   0  0  0  0  0  0  0  0  0  0  0  0
   34.3757  -11.9482   37.2398 C   0  0  0  0  0  0  0  0  0  0  0  0
   33.1915  -12.4185   37.8219 C   0  0  0  0  0  0  0  0  0  0  0  0
   33.0246  -13.7032   38.2221 O   0  0  0  0  0  0  0  0  0  0  0  0
   32.1414  -11.5014   37.9948 C   0  0  0  0  0  0  0  0  0  0  0  0
   32.2526  -10.1971   37.6171 C   0  0  0  0  0  0  0  0  0  0  0  0
   31.2003   -9.3178   37.8015 O   0  0  0  0  0  0  0  0  0  0  0  0
   33.4441  -14.5386   38.2893 H   0  0  0  0  0  0  0  0  0  0  0  0
   30.3531   -9.6696   38.2214 H   0  0  0  0  0  0  0  0  0  0  0  0
   34.7868   -7.9169   36.0346 C   0  0  0  0  0  0  0  0  0  0  0  0
   33.4629   -8.2921   36.6590 C   0  0  0  0  0  0  0  0  0  0  0  0
   32.3749   -8.0134   35.6519 C   0  0  0  0  0  0  0  0  0  0  0  0
 27 28  1  0  0  0
 28 29  1  0  0  0
 28 17  1  0  0  0
 17 18  2  0  0  0
 18 19  1  0  0  0
 19  1  1  0  0  0
  1  2  2  0  0  0
  1  3  1  0  0  0
  3  4  1  0  0  0
  4  5  1  0  0  0
  5  6  1  0  0  0
  6  7  2  0  0  0
  7  8  1  0  0  0
  8  9  1  0  0  0
  8 10  2  0  0  0
 10 11  1  0  0  0
 10 12  1  0  0  0
 12 13  2  0  0  0
 13 14  1  0  0  0
 19 20  2  0  0  0
 20 21  1  0  0  0
 20 22  1  0  0  0
 22 23  2  0  0  0
 23 24  1  0  0  0
 23 17  1  0  0  0
 14  3  1  0  0  0
 13  6  1  0  0  0
  9 15  1  0  0  0
 11 16  1  0  0  0
 21 25  1  0  0  0
 24 26  1  0  0  0
M  END
> <minimizedAffinity>
-8.71527

> <CNNscore>
0.3201774359

> <CNNaffinity>
5.4923524857

> <CNN_VS>
1.7585272789

> <CNNaffinity_variance>
0.0631336123

$$$$
[H]Oc1c([H])c2c(c([H])c1O[H])C([H])([H])C([H])([H])N(C(=O)c1c([H])c(C([H])(C([H])([H])[H])C([H])([H])[H])c(O[H])c([H])c1O[H])C2([H])[H]


 29 31  0  0  0  0  0  0  0  0999 V2000
   36.4144  -19.1514   37.0754 C   0  0  0  0  0  0  0  0  0  0  0  0
   36.1530  -19.6737   38.2206 O   0  0  0  0  0  0  0  0  0  0  0  0
   37.4908  -19.7728   36.4124 N   0  0  0  0  0  0  0  0  0  0  0  0
   38.0868  -20.9354   37.0991 C   0  0  0  0  0  0  0  0  0  0  0  0
   38.8840  -21.8072   36.1578 C   0  0  0  0  0  0  0  0  0  0  0  0
   39.9286  -20.9792   35.4788 C   0  0  0  0  0  0  0  0  0  0  0  0
   41.2334  -21.3551   35.3152 C   0  0  0  0  0  0  0  0  0  0  0  0
   42.1062  -20.4927   34.6887 C   0  0  0  0  0  0  0  0  0  0  0  0
   43.4413  -20.8356   34.5019 O   0  0  0  0  0  0  0  0  0  0  0  0
   41.7019  -19.2588   34.2207 C   0  0  0  0  0  0  0  0  0  0  0  0
   42.6265  -18.4056   33.5855 O   0  0  0  0  0  0  0  0  0  0  0  0
   40.3869  -18.8844   34.3873 C   0  0  0  0  0  0  0  0  0  0  0  0
   39.5137  -19.7538   35.0167 C   0  0  0  0  0  0  0  0  0  0  0  0
   38.0792  -19.3504   35.1741 C   0  0  0  0  0  0  0  0  0  0  0  0
   44.1068  -20.2375   34.0520 H   0  0  0  0  0  0  0  0  0  0  0  0
   42.3430  -17.5179   33.2469 H   0  0  0  0  0  0  0  0  0  0  0  0
   35.2140  -15.6264   36.4281 C   0  0  0  0  0  0  0  0  0  0  0  0
   35.9558  -16.7111   36.8773 C   0  0  0  0  0  0  0  0  0  0  0  0
   35.5859  -18.0430   36.6749 C   0  0  0  0  0  0  0  0  0  0  0  0
   34.3985  -18.2997   35.9774 C   0  0  0  0  0  0  0  0  0  0  0  0
   33.9438  -19.5526   35.7291 O   0  0  0  0  0  0  0  0  0  0  0  0
   33.6562  -17.1956   35.5260 C   0  0  0  0  0  0  0  0  0  0  0  0
   34.0602  -15.9139   35.7501 C   0  0  0  0  0  0  0  0  0  0  0  0
   33.3064  -14.8473   35.2933 O   0  0  0  0  0  0  0  0  0  0  0  0
   34.1186  -20.4641   35.8596 H   0  0  0  0  0  0  0  0  0  0  0  0
   32.4537  -15.0462   34.7921 H   0  0  0  0  0  0  0  0  0  0  0  0
   34.7137  -13.5186   37.6366 C   0  0  0  0  0  0  0  0  0  0  0  0
   35.6027  -14.2304   36.6435 C   0  0  0  0  0  0  0  0  0  0  0  0
   37.0150  -14.1975   37.1724 C   0  0  0  0  0  0  0  0  0  0  0  0
 27 28  1  0  0  0
 28 29  1  0  0  0
 28 17  1  0  0  0
 17 18  2  0  0  0
 18 19  1  0  0  0
 19  1  1  0  0  0
  1  2  2  0  0  0
  1  3  1  0  0  0
  3  4  1  0  0  0
  4  5  1  0  0  0
  5  6  1  0  0  0
  6  7  2  0  0  0
  7  8  1  0  0  0
  8  9  1  0  0  0
  8 10  2  0  0  0
 10 11  1  0  0  0
 10 12  1  0  0  0
 12 13  2  0  0  0
 13 14  1  0  0  0
 19 20  2  0  0  0
 20 21  1  0  0  0
 20 22  1  0  0  0
 22 23  2  0  0  0
 23 24  1  0  0  0
 23 17  1  0  0  0
 14  3  1  0  0  0
 13  6  1  0  0  0
  9 15  1  0  0  0
 11 16  1  0  0  0
 21 25  1  0  0  0
 24 26  1  0  0  0
M  END
> <minimizedAffinity>
-7.44656

> <CNNscore>
0.3167637587

> <CNNaffinity>
4.6586618423

> <CNN_VS>
1.4756952524

> <CNNaffinity_variance>
0.1826489717

$$$$
[H]Oc1c([H])c2c(c([H])c1O[H])C([H])([H])C([H])([H])N(C(=O)c1c([H])c(C([H])(C([H])([H])[H])C([H])([H])[H])c(O[H])c([H])c1O[H])C2([H])[H]


 29 31  0  0  0  0  0  0  0  0999 V2000
   38.3913  -20.6092   35.2024 C   0  0  0  0  0  0  0  0  0  0  0  0
   38.6867  -20.8902   33.9833 O   0  0  0  0  0  0  0  0  0  0  0  0
   37.5477  -19.4879   35.3269 N   0  0  0  0  0  0  0  0  0  0  0  0
   37.1014  -18.8728   34.0616 C   0  0  0  0  0  0  0  0  0  0  0  0
   35.8746  -18.0113   34.2473 C   0  0  0  0  0  0  0  0  0  0  0  0
   36.1485  -16.9757   35.2915 C   0  0  0  0  0  0  0  0  0  0  0  0
   35.8199  -15.6529   35.1792 C   0  0  0  0  0  0  0  0  0  0  0  0
   36.1446  -14.7919   36.2046 C   0  0  0  0  0  0  0  0  0  0  0  0
   35.8288  -13.4393   36.1310 O   0  0  0  0  0  0  0  0  0  0  0  0
   36.7928  -15.2258   37.3433 C   0  0  0  0  0  0  0  0  0  0  0  0
   37.1076  -14.3125   38.3695 O   0  0  0  0  0  0  0  0  0  0  0  0
   37.1216  -16.5589   37.4522 C   0  0  0  0  0  0  0  0  0  0  0  0
   36.7932  -17.4201   36.4202 C   0  0  0  0  0  0  0  0  0  0  0  0
   37.1328  -18.8734   36.5549 C   0  0  0  0  0  0  0  0  0  0  0  0
   36.0474  -12.7815   36.8539 H   0  0  0  0  0  0  0  0  0  0  0  0
   37.5730  -14.6172   39.1901 H   0  0  0  0  0  0  0  0  0  0  0  0
   38.7524  -23.2974   37.8347 C   0  0  0  0  0  0  0  0  0  0  0  0
   38.2105  -22.4069   36.9171 C   0  0  0  0  0  0  0  0  0  0  0  0
   38.9623  -21.4643   36.2114 C   0  0  0  0  0  0  0  0  0  0  0  0
   40.3432  -21.4150   36.4416 C   0  0  0  0  0  0  0  0  0  0  0  0
   41.1657  -20.5378   35.8152 O   0  0  0  0  0  0  0  0  0  0  0  0
   40.8818  -22.3210   37.3706 C   0  0  0  0  0  0  0  0  0  0  0  0
   40.1045  -23.2217   38.0344 C   0  0  0  0  0  0  0  0  0  0  0  0
   40.6648  -24.1007   38.9443 O   0  0  0  0  0  0  0  0  0  0  0  0
   41.1962  -19.8315   35.1999 H   0  0  0  0  0  0  0  0  0  0  0  0
   41.6605  -24.0548   39.1003 H   0  0  0  0  0  0  0  0  0  0  0  0
   36.7975  -23.6678   39.3160 C   0  0  0  0  0  0  0  0  0  0  0  0
   37.9617  -24.2836   38.5753 C   0  0  0  0  0  0  0  0  0  0  0  0
   37.4132  -25.2950   37.5997 C   0  0  0  0  0  0  0  0  0  0  0  0
 27 28  1  0  0  0
 28 29  1  0  0  0
 28 17  1  0  0  0
 17 18  2  0  0  0
 18 19  1  0  0  0
 19  1  1  0  0  0
  1  2  2  0  0  0
  1  3  1  0  0  0
  3  4  1  0  0  0
  4  5  1  0  0  0
  5  6  1  0  0  0
  6  7  2  0  0  0
  7  8  1  0  0  0
  8  9  1  0  0  0
  8 10  2  0  0  0
 10 11  1  0  0  0
 10 12  1  0  0  0
 12 13  2  0  0  0
 13 14  1  0  0  0
 19 20  2  0  0  0
 20 21  1  0  0  0
 20 22  1  0  0  0
 22 23  2  0  0  0
 23 24  1  0  0  0
 23 17  1  0  0  0
 14  3  1  0  0  0
 13  6  1  0  0  0
  9 15  1  0  0  0
 11 16  1  0  0  0
 21 25  1  0  0  0
 24 26  1  0  0  0
M  END
> <minimizedAffinity>
-4.91744

> <CNNscore>
0.3128868639

> <CNNaffinity>
4.4501981735

> <CNN_VS>
1.3924086094

> <CNNaffinity_variance>
0.0784273595

$$$$
[H]Oc1c([H])c2c(c([H])c1O[H])C([H])([H])C([H])([H])N(C(=O)c1c([H])c(C([H])(C([H])([H])[H])C([H])([H])[H])c(O[H])c([H])c1O[H])C2([H])[H]


 29 31  0  0  0  0  0  0  0  0999 V2000
   35.9864  -15.3860   36.4197 C   0  0  0  0  0  0  0  0  0  0  0  0
   37.0141  -15.4684   37.1875 O   0  0  0  0  0  0  0  0  0  0  0  0
   35.3550  -14.1276   36.4673 N   0  0  0  0  0  0  0  0  0  0  0  0
   36.0006  -13.1140   37.3242 C   0  0  0  0  0  0  0  0  0  0  0  0
   35.5662  -11.7102   36.9741 C   0  0  0  0  0  0  0  0  0  0  0  0
   34.0749  -11.6188   37.0484 C   0  0  0  0  0  0  0  0  0  0  0  0
   33.3875  -10.5984   37.6456 C   0  0  0  0  0  0  0  0  0  0  0  0
   32.0106  -10.6391   37.6661 C   0  0  0  0  0  0  0  0  0  0  0  0
   31.2728   -9.6221   38.2629 O   0  0  0  0  0  0  0  0  0  0  0  0
   31.3036  -11.6810   37.1007 C   0  0  0  0  0  0  0  0  0  0  0  0
   29.8948  -11.6852   37.1432 O   0  0  0  0  0  0  0  0  0  0  0  0
   31.9998  -12.7064   36.5001 C   0  0  0  0  0  0  0  0  0  0  0  0
   33.3826  -12.6612   36.4816 C   0  0  0  0  0  0  0  0  0  0  0  0
   34.1337  -13.7681   35.8062 C   0  0  0  0  0  0  0  0  0  0  0  0
   30.2719   -9.6146   38.2988 H   0  0  0  0  0  0  0  0  0  0  0  0
   29.3805  -12.4303   36.7392 H   0  0  0  0  0  0  0  0  0  0  0  0
   36.3420  -18.5986   34.4606 C   0  0  0  0  0  0  0  0  0  0  0  0
   36.6311  -17.4131   35.1238 C   0  0  0  0  0  0  0  0  0  0  0  0
   35.6588  -16.5666   35.6620 C   0  0  0  0  0  0  0  0  0  0  0  0
   34.3142  -16.9352   35.5262 C   0  0  0  0  0  0  0  0  0  0  0  0
   33.2908  -16.1865   36.0064 O   0  0  0  0  0  0  0  0  0  0  0  0
   34.0324  -18.1369   34.8551 C   0  0  0  0  0  0  0  0  0  0  0  0
   35.0183  -18.9280   34.3468 C   0  0  0  0  0  0  0  0  0  0  0  0
   34.7085  -20.1058   33.6900 O   0  0  0  0  0  0  0  0  0  0  0  0
   33.0759  -15.3926   36.4559 H   0  0  0  0  0  0  0  0  0  0  0  0
   33.7363  -20.3596   33.5995 H   0  0  0  0  0  0  0  0  0  0  0  0
   38.4867  -18.7307   33.2212 C   0  0  0  0  0  0  0  0  0  0  0  0
   37.3633  -19.4838   33.8950 C   0  0  0  0  0  0  0  0  0  0  0  0
   37.9564  -20.3114   35.0080 C   0  0  0  0  0  0  0  0  0  0  0  0
 27 28  1  0  0  0
 28 29  1  0  0  0
 28 17  1  0  0  0
 17 18  2  0  0  0
 18 19  1  0  0  0
 19  1  1  0  0  0
  1  2  2  0  0  0
  1  3  1  0  0  0
  3  4  1  0  0  0
  4  5  1  0  0  0
  5  6  1  0  0  0
  6  7  2  0  0  0
  7  8  1  0  0  0
  8  9  1  0  0  0
  8 10  2  0  0  0
 10 11  1  0  0  0
 10 12  1  0  0  0
 12 13  2  0  0  0
 13 14  1  0  0  0
 19 20  2  0  0  0
 20 21  1  0  0  0
 20 22  1  0  0  0
 22 23  2  0  0  0
 23 24  1  0  0  0
 23 17  1  0  0  0
 14  3  1  0  0  0
 13  6  1  0  0  0
  9 15  1  0  0  0
 11 16  1  0  0  0
 21 25  1  0  0  0
 24 26  1  0  0  0
M  END
> <minimizedAffinity>
-7.51676

> <CNNscore>
0.3089073002

> <CNNaffinity>
5.2123417854

> <CNN_VS>
1.6101304293

> <CNNaffinity_variance>
0.0212437473

$$$$
[H]Oc1c([H])c2c(c([H])c1O[H])C([H])([H])C([H])([H])N(C(=O)c1c([H])c(C([H])(C([H])([H])[H])C([H])([H])[H])c(O[H])c([H])c1O[H])C2([H])[H]


 29 31  0  0  0  0  0  0  0  0999 V2000
   36.7513  -19.1569   36.8819 C   0  0  0  0  0  0  0  0  0  0  0  0
   36.8041  -17.8755   36.9698 O   0  0  0  0  0  0  0  0  0  0  0  0
   37.9914  -19.7451   36.5646 N   0  0  0  0  0  0  0  0  0  0  0  0
   39.1344  -18.8184   36.4502 C   0  0  0  0  0  0  0  0  0  0  0  0
   40.4609  -19.5301   36.5750 C   0  0  0  0  0  0  0  0  0  0  0  0
   40.5373  -20.6206   35.5538 C   0  0  0  0  0  0  0  0  0  0  0  0
   41.6250  -20.8703   34.7632 C   0  0  0  0  0  0  0  0  0  0  0  0
   41.5646  -21.8942   33.8433 C   0  0  0  0  0  0  0  0  0  0  0  0
   42.6479  -22.1819   33.0198 O   0  0  0  0  0  0  0  0  0  0  0  0
   40.4369  -22.6763   33.6962 C   0  0  0  0  0  0  0  0  0  0  0  0
   40.4154  -23.7142   32.7427 O   0  0  0  0  0  0  0  0  0  0  0  0
   39.3439  -22.4216   34.4946 C   0  0  0  0  0  0  0  0  0  0  0  0
   39.4092  -21.3925   35.4173 C   0  0  0  0  0  0  0  0  0  0  0  0
   38.2252  -21.1353   36.2991 C   0  0  0  0  0  0  0  0  0  0  0  0
   42.6439  -22.9167   32.3392 H   0  0  0  0  0  0  0  0  0  0  0  0
   39.6088  -24.2798   32.6316 H   0  0  0  0  0  0  0  0  0  0  0  0
   33.2072  -20.3535   36.3406 C   0  0  0  0  0  0  0  0  0  0  0  0
   34.4276  -19.7114   36.1766 C   0  0  0  0  0  0  0  0  0  0  0  0
   35.4637  -19.7604   37.1124 C   0  0  0  0  0  0  0  0  0  0  0  0
   35.2606  -20.5012   38.2839 C   0  0  0  0  0  0  0  0  0  0  0  0
   36.1959  -20.6122   39.2591 O   0  0  0  0  0  0  0  0  0  0  0  0
   34.0233  -21.1482   38.4395 C   0  0  0  0  0  0  0  0  0  0  0  0
   33.0434  -21.0685   37.4963 C   0  0  0  0  0  0  0  0  0  0  0  0
   31.8347  -21.7167   37.6792 O   0  0  0  0  0  0  0  0  0  0  0  0
   37.0569  -20.3490   39.5196 H   0  0  0  0  0  0  0  0  0  0  0  0
   31.7017  -22.2470   38.5270 H   0  0  0  0  0  0  0  0  0  0  0  0
   31.9350  -18.9226   34.7635 C   0  0  0  0  0  0  0  0  0  0  0  0
   32.1212  -20.2989   35.3587 C   0  0  0  0  0  0  0  0  0  0  0  0
   32.4358  -21.2556   34.2357 C   0  0  0  0  0  0  0  0  0  0  0  0
 27 28  1  0  0  0
 28 29  1  0  0  0
 28 17  1  0  0  0
 17 18  2  0  0  0
 18 19  1  0  0  0
 19  1  1  0  0  0
  1  2  2  0  0  0
  1  3  1  0  0  0
  3  4  1  0  0  0
  4  5  1  0  0  0
  5  6  1  0  0  0
  6  7  2  0  0  0
  7  8  1  0  0  0
  8  9  1  0  0  0
  8 10  2  0  0  0
 10 11  1  0  0  0
 10 12  1  0  0  0
 12 13  2  0  0  0
 13 14  1  0  0  0
 19 20  2  0  0  0
 20 21  1  0  0  0
 20 22  1  0  0  0
 22 23  2  0  0  0
 23 24  1  0  0  0
 23 17  1  0  0  0
 14  3  1  0  0  0
 13  6  1  0  0  0
  9 15  1  0  0  0
 11 16  1  0  0  0
 21 25  1  0  0  0
 24 26  1  0  0  0
M  END
> <minimizedAffinity>
-5.51710

> <CNNscore>
0.2811678648

> <CNNaffinity>
4.4347691536

> <CNN_VS>
1.2469146252

> <CNNaffinity_variance>
0.0173392259

$$$$
[H]Oc1c([H])c2c(c([H])c1O[H])C([H])([H])C([H])([H])N(C(=O)c1c([H])c(C([H])(C([H])([H])[H])C([H])([H])[H])c(O[H])c([H])c1O[H])C2([H])[H]


 29 31  0  0  0  0  0  0  0  0999 V2000
   36.3250  -19.4426   36.1333 C   0  0  0  0  0  0  0  0  0  0  0  0
   35.9100  -18.3324   35.6358 O   0  0  0  0  0  0  0  0  0  0  0  0
   37.6440  -19.7633   35.7565 N   0  0  0  0  0  0  0  0  0  0  0  0
   38.3380  -18.7626   34.9226 C   0  0  0  0  0  0  0  0  0  0  0  0
   39.8381  -18.9375   34.9510 C   0  0  0  0  0  0  0  0  0  0  0  0
   40.1835  -20.3316   34.5326 C   0  0  0  0  0  0  0  0  0  0  0  0
   41.1771  -20.6547   33.6500 C   0  0  0  0  0  0  0  0  0  0  0  0
   41.3846  -21.9783   33.3290 C   0  0  0  0  0  0  0  0  0  0  0  0
   42.3841  -22.3504   32.4361 O   0  0  0  0  0  0  0  0  0  0  0  0
   40.6182  -22.9892   33.8728 C   0  0  0  0  0  0  0  0  0  0  0  0
   40.8625  -24.3311   33.5178 O   0  0  0  0  0  0  0  0  0  0  0  0
   39.6188  -22.6594   34.7613 C   0  0  0  0  0  0  0  0  0  0  0  0
   39.4142  -21.3288   35.0811 C   0  0  0  0  0  0  0  0  0  0  0  0
   38.3407  -20.9784   36.0663 C   0  0  0  0  0  0  0  0  0  0  0  0
   42.5667  -23.3004   32.1768 H   0  0  0  0  0  0  0  0  0  0  0  0
   40.3159  -25.0623   33.9045 H   0  0  0  0  0  0  0  0  0  0  0  0
   34.6490  -20.9179   39.1829 C   0  0  0  0  0  0  0  0  0  0  0  0
   35.5721  -20.3056   38.3453 C   0  0  0  0  0  0  0  0  0  0  0  0
   35.3928  -20.1567   36.9678 C   0  0  0  0  0  0  0  0  0  0  0  0
   34.2130  -20.6526   36.3983 C   0  0  0  0  0  0  0  0  0  0  0  0
   33.9390  -20.5655   35.0732 O   0  0  0  0  0  0  0  0  0  0  0  0
   33.2850  -21.2689   37.2543 C   0  0  0  0  0  0  0  0  0  0  0  0
   33.5077  -21.3902   38.5929 C   0  0  0  0  0  0  0  0  0  0  0  0
   32.5743  -22.0033   39.4100 O   0  0  0  0  0  0  0  0  0  0  0  0
   34.2692  -20.2716   34.2468 H   0  0  0  0  0  0  0  0  0  0  0  0
   31.7289  -22.3556   38.9870 H   0  0  0  0  0  0  0  0  0  0  0  0
   36.1746  -21.6894   40.9803 C   0  0  0  0  0  0  0  0  0  0  0  0
   34.8401  -21.0749   40.6269 C   0  0  0  0  0  0  0  0  0  0  0  0
   34.7648  -19.7150   41.2755 C   0  0  0  0  0  0  0  0  0  0  0  0
 27 28  1  0  0  0
 28 29  1  0  0  0
 28 17  1  0  0  0
 17 18  2  0  0  0
 18 19  1  0  0  0
 19  1  1  0  0  0
  1  2  2  0  0  0
  1  3  1  0  0  0
  3  4  1  0  0  0
  4  5  1  0  0  0
  5  6  1  0  0  0
  6  7  2  0  0  0
  7  8  1  0  0  0
  8  9  1  0  0  0
  8 10  2  0  0  0
 10 11  1  0  0  0
 10 12  1  0  0  0
 12 13  2  0  0  0
 13 14  1  0  0  0
 19 20  2  0  0  0
 20 21  1  0  0  0
 20 22  1  0  0  0
 22 23  2  0  0  0
 23 24  1  0  0  0
 23 17  1  0  0  0
 14  3  1  0  0  0
 13  6  1  0  0  0
  9 15  1  0  0  0
 11 16  1  0  0  0
 21 25  1  0  0  0
 24 26  1  0  0  0
M  END
> <minimizedAffinity>
-5.10032

> <CNNscore>
0.2722838819

> <CNNaffinity>
4.2844481468

> <CNN_VS>
1.1665861607

> <CNNaffinity_variance>
0.0174892917

$$$$
[H]OC([H])([H])[C@]([H])(O[H])[C@@]([H])(O[H])c1nc(N([H])[H])sc1-c1c([H])c([H])c(N([H])C(=O)c2nc([H])c([H])c([H])c2[H])c([H])c1OC([H])([H])[H]


 35 37  0  0  0  0  0  0  0  0999 V2000
   34.9543  -14.0856   36.6252 C   0  0  0  0  0  0  0  0  0  0  0  0
   36.1543  -14.4841   37.2658 C   0  0  0  0  0  0  0  0  0  0  0  0
   36.5132  -15.7793   37.2265 C   0  0  0  0  0  0  0  0  0  0  0  0
   35.7872  -16.7777   36.5956 C   0  0  0  0  0  0  0  0  0  0  0  0
   34.6381  -16.3660   35.9865 C   0  0  0  0  0  0  0  0  0  0  0  0
   34.2386  -15.0347   36.0082 C   0  0  0  0  0  0  0  0  0  0  0  0
   33.7439  -11.9329   37.4652 C   0  0  0  0  0  0  0  0  0  0  0  0
   33.7891  -10.6225   37.3301 N   0  0  0  0  0  0  0  0  0  0  0  0
   34.6486  -10.0449   36.5389 C   0  0  0  0  0  0  0  0  0  0  0  0
   34.8357   -8.6287   36.2750 N   0  0  0  0  0  0  0  0  0  0  0  0
   35.4831  -11.3787   35.9095 S   0  0  0  0  0  0  0  0  0  0  0  0
   34.6428  -12.6543   36.7354 C   0  0  0  0  0  0  0  0  0  0  0  0
   34.5373   -8.1806   35.4051 H   0  0  0  0  0  0  0  0  0  0  0  0
   35.3000   -8.0979   37.0431 H   0  0  0  0  0  0  0  0  0  0  0  0
   32.6876  -12.5181   38.3848 C   0  0  0  0  0  0  0  0  0  0  0  0
   32.5211  -13.8548   38.0363 O   0  0  0  0  0  0  0  0  0  0  0  0
   31.9819  -14.3395   38.7074 H   0  0  0  0  0  0  0  0  0  0  0  0
   31.3577  -11.7795   38.1534 C   0  0  0  0  0  0  0  0  0  0  0  0
   31.0059  -11.8640   36.8072 O   0  0  0  0  0  0  0  0  0  0  0  0
   30.5587  -12.7208   36.6675 H   0  0  0  0  0  0  0  0  0  0  0  0
   30.2452  -12.4641   38.9177 C   0  0  0  0  0  0  0  0  0  0  0  0
   30.7115  -12.7009   40.2244 O   0  0  0  0  0  0  0  0  0  0  0  0
   29.9805  -12.5225   40.8687 H   0  0  0  0  0  0  0  0  0  0  0  0
   36.2574  -18.1047   36.6578 N   0  0  0  0  0  0  0  0  0  0  0  0
   37.1118  -18.7806   35.7940 C   0  0  0  0  0  0  0  0  0  0  0  0
   37.5935  -18.2102   34.7862 O   0  0  0  0  0  0  0  0  0  0  0  0
   35.9036  -18.6868   37.4857 H   0  0  0  0  0  0  0  0  0  0  0  0
   37.4887  -20.1557   35.9979 C   0  0  0  0  0  0  0  0  0  0  0  0
   38.5234  -20.7545   35.3351 C   0  0  0  0  0  0  0  0  0  0  0  0
   38.8796  -22.0785   35.5545 C   0  0  0  0  0  0  0  0  0  0  0  0
   38.1815  -22.8143   36.4580 C   0  0  0  0  0  0  0  0  0  0  0  0
   37.1235  -22.2097   37.1386 C   0  0  0  0  0  0  0  0  0  0  0  0
   36.8175  -20.9303   36.8932 N   0  0  0  0  0  0  0  0  0  0  0  0
   36.9151  -13.5232   37.9108 O   0  0  0  0  0  0  0  0  0  0  0  0
   38.2628  -13.3303   37.7036 C   0  0  0  0  0  0  0  0  0  0  0  0
  7 15  1  0  0  0
 15 16  1  0  0  0
 15 18  1  0  0  0
 18 21  1  0  0  0
 21 22  1  0  0  0
 18 19  1  0  0  0
  7  8  1  0  0  0
  8  9  2  0  0  0
  9 10  1  0  0  0
  9 11  1  0  0  0
 11 12  1  0  0  0
 12  1  1  0  0  0
  1  2  2  0  0  0
  2 34  1  0  0  0
 34 35  1  0  0  0
  2  3  1  0  0  0
  3  4  2  0  0  0
  4 24  1  0  0  0
 24 25  1  0  0  0
 25 26  2  0  0  0
 25 28  1  0  0  0
 28 29  2  0  0  0
 29 30  1  0  0  0
 30 31  2  0  0  0
 31 32  1  0  0  0
 32 33  2  0  0  0
  4  5  1  0  0  0
  5  6  2  0  0  0
 12  7  2  0  0  0
  6  1  1  0  0  0
 33 28  1  0  0  0
 16 17  1  0  0  0
 22 23  1  0  0  0
 19 20  1  0  0  0
 10 13  1  0  0  0
 10 14  1  0  0  0
 24 27  1  0  0  0
M  END
> <minimizedAffinity>
-7.15468

> <CNNscore>
0.4682322443

> <CNNaffinity>
6.2449083328

> <CNN_VS>
2.9240674973

> <CNNaffinity_variance>
0.0624973066

$$$$
[H]OC([H])([H])[C@]([H])(O[H])[C@@]([H])(O[H])c1nc(N([H])[H])sc1-c1c([H])c([H])c(N([H])C(=O)c2nc([H])c([H])c([H])c2[H])c([H])c1OC([H])([H])[H]


 35 37  0  0  0  0  0  0  0  0999 V2000
   37.7394  -20.2645   37.3699 C   0  0  0  0  0  0  0  0  0  0  0  0
   36.5360  -20.0082   38.0737 C   0  0  0  0  0  0  0  0  0  0  0  0
   35.9474  -18.8067   37.9391 C   0  0  0  0  0  0  0  0  0  0  0  0
   36.4346  -17.7764   37.1498 C   0  0  0  0  0  0  0  0  0  0  0  0
   37.5926  -18.0509   36.4832 C   0  0  0  0  0  0  0  0  0  0  0  0
   38.2262  -19.2827   36.6001 C   0  0  0  0  0  0  0  0  0  0  0  0
   39.1387  -22.1309   38.5375 C   0  0  0  0  0  0  0  0  0  0  0  0
   39.4063  -23.4173   38.4327 N   0  0  0  0  0  0  0  0  0  0  0  0
   38.9058  -24.1449   37.4743 C   0  0  0  0  0  0  0  0  0  0  0  0
   39.0925  -25.5617   37.2132 N   0  0  0  0  0  0  0  0  0  0  0  0
   37.9850  -23.0038   36.6247 S   0  0  0  0  0  0  0  0  0  0  0  0
   38.3109  -21.5993   37.5924 C   0  0  0  0  0  0  0  0  0  0  0  0
   39.6802  -25.9148   36.4539 H   0  0  0  0  0  0  0  0  0  0  0  0
   38.5798  -26.1975   37.8613 H   0  0  0  0  0  0  0  0  0  0  0  0
   39.7928  -21.3572   39.6678 C   0  0  0  0  0  0  0  0  0  0  0  0
   40.8798  -20.6720   39.1340 O   0  0  0  0  0  0  0  0  0  0  0  0
   41.2410  -20.0114   39.7737 H   0  0  0  0  0  0  0  0  0  0  0  0
   40.3077  -22.3519   40.7229 C   0  0  0  0  0  0  0  0  0  0  0  0
   41.6847  -22.1980   40.8757 O   0  0  0  0  0  0  0  0  0  0  0  0
   41.8367  -21.4576   41.4940 H   0  0  0  0  0  0  0  0  0  0  0  0
   39.7015  -22.0351   42.0729 C   0  0  0  0  0  0  0  0  0  0  0  0
   38.3088  -22.2061   41.9634 O   0  0  0  0  0  0  0  0  0  0  0  0
   37.9673  -22.6365   42.7877 H   0  0  0  0  0  0  0  0  0  0  0  0
   35.7383  -16.5514   37.1228 N   0  0  0  0  0  0  0  0  0  0  0  0
   36.1926  -15.2705   37.4158 C   0  0  0  0  0  0  0  0  0  0  0  0
   37.3829  -15.0708   37.7570 O   0  0  0  0  0  0  0  0  0  0  0  0
   34.7049  -16.6081   36.8432 H   0  0  0  0  0  0  0  0  0  0  0  0
   35.3384  -14.1128   37.3490 C   0  0  0  0  0  0  0  0  0  0  0  0
   35.7698  -12.8877   36.9230 C   0  0  0  0  0  0  0  0  0  0  0  0
   34.9277  -11.7858   36.8538 C   0  0  0  0  0  0  0  0  0  0  0  0
   33.6265  -11.9190   37.2202 C   0  0  0  0  0  0  0  0  0  0  0  0
   33.1787  -13.1669   37.6565 C   0  0  0  0  0  0  0  0  0  0  0  0
   34.0280  -14.1998   37.7060 N   0  0  0  0  0  0  0  0  0  0  0  0
   36.0090  -21.0062   38.8765 O   0  0  0  0  0  0  0  0  0  0  0  0
   34.6622  -21.2138   39.0759 C   0  0  0  0  0  0  0  0  0  0  0  0
  7 15  1  0  0  0
 15 16  1  0  0  0
 15 18  1  0  0  0
 18 21  1  0  0  0
 21 22  1  0  0  0
 18 19  1  0  0  0
  7  8  1  0  0  0
  8  9  2  0  0  0
  9 10  1  0  0  0
  9 11  1  0  0  0
 11 12  1  0  0  0
 12  1  1  0  0  0
  1  2  2  0  0  0
  2 34  1  0  0  0
 34 35  1  0  0  0
  2  3  1  0  0  0
  3  4  2  0  0  0
  4 24  1  0  0  0
 24 25  1  0  0  0
 25 26  2  0  0  0
 25 28  1  0  0  0
 28 29  2  0  0  0
 29 30  1  0  0  0
 30 31  2  0  0  0
 31 32  1  0  0  0
 32 33  2  0  0  0
  4  5  1  0  0  0
  5  6  2  0  0  0
 12  7  2  0  0  0
  6  1  1  0  0  0
 33 28  1  0  0  0
 16 17  1  0  0  0
 22 23  1  0  0  0
 19 20  1  0  0  0
 10 13  1  0  0  0
 10 14  1  0  0  0
 24 27  1  0  0  0
M  END
> <minimizedAffinity>
-4.84599

> <CNNscore>
0.4546101689

> <CNNaffinity>
4.9249906540

> <CNN_VS>
2.2389507294

> <CNNaffinity_variance>
0.1558416635

$$$$
[H]OC([H])([H])[C@]([H])(O[H])[C@@]([H])(O[H])c1nc(N([H])[H])sc1-c1c([H])c([H])c(N([H])C(=O)c2nc([H])c([H])c([H])c2[H])c([H])c1OC([H])([H])[H]


 35 37  0  0  0  0  0  0  0  0999 V2000
   35.1638  -21.8595   38.0850 C   0  0  0  0  0  0  0  0  0  0  0  0
   35.5894  -20.9231   39.0602 C   0  0  0  0  0  0  0  0  0  0  0  0
   36.9059  -20.7816   39.2948 C   0  0  0  0  0  0  0  0  0  0  0  0
   37.9015  -21.4943   38.6447 C   0  0  0  0  0  0  0  0  0  0  0  0
   37.4637  -22.3871   37.7108 C   0  0  0  0  0  0  0  0  0  0  0  0
   36.1101  -22.5574   37.4439 C   0  0  0  0  0  0  0  0  0  0  0  0
   32.8111  -21.3333   37.0887 C   0  0  0  0  0  0  0  0  0  0  0  0
   31.5538  -21.7153   37.1932 N   0  0  0  0  0  0  0  0  0  0  0  0
   31.1857  -22.6350   38.0400 C   0  0  0  0  0  0  0  0  0  0  0  0
   29.8577  -23.1717   38.2822 N   0  0  0  0  0  0  0  0  0  0  0  0
   32.6605  -23.0340   38.7730 S   0  0  0  0  0  0  0  0  0  0  0  0
   33.7079  -21.9496   37.9114 C   0  0  0  0  0  0  0  0  0  0  0  0
   29.3059  -22.9382   39.1114 H   0  0  0  0  0  0  0  0  0  0  0  0
   29.5051  -23.8174   37.5433 H   0  0  0  0  0  0  0  0  0  0  0  0
   33.1409  -20.2323   36.0973 C   0  0  0  0  0  0  0  0  0  0  0  0
   33.5484  -19.1191   36.8258 O   0  0  0  0  0  0  0  0  0  0  0  0
   33.9466  -18.4296   36.2410 H   0  0  0  0  0  0  0  0  0  0  0  0
   31.8686  -19.8681   35.3122 C   0  0  0  0  0  0  0  0  0  0  0  0
   31.3968  -18.6277   35.7388 O   0  0  0  0  0  0  0  0  0  0  0  0
   31.8944  -17.9371   35.2602 H   0  0  0  0  0  0  0  0  0  0  0  0
   32.1949  -19.7061   33.8432 C   0  0  0  0  0  0  0  0  0  0  0  0
   33.1253  -20.7057   33.5026 O   0  0  0  0  0  0  0  0  0  0  0  0
   32.9025  -21.0671   32.6075 H   0  0  0  0  0  0  0  0  0  0  0  0
   39.2450  -21.2750   39.0093 N   0  0  0  0  0  0  0  0  0  0  0  0
   40.1976  -20.4523   38.4188 C   0  0  0  0  0  0  0  0  0  0  0  0
   39.9155  -19.7576   37.4133 O   0  0  0  0  0  0  0  0  0  0  0  0
   39.5929  -21.8246   39.8615 H   0  0  0  0  0  0  0  0  0  0  0  0
   41.5457  -20.3499   38.9152 C   0  0  0  0  0  0  0  0  0  0  0  0
   42.1317  -19.1615   39.2510 C   0  0  0  0  0  0  0  0  0  0  0  0
   43.4290  -19.0843   39.7399 C   0  0  0  0  0  0  0  0  0  0  0  0
   44.1508  -20.2247   39.8939 C   0  0  0  0  0  0  0  0  0  0  0  0
   43.5593  -21.4420   39.5529 C   0  0  0  0  0  0  0  0  0  0  0  0
   42.3056  -21.4661   39.0856 N   0  0  0  0  0  0  0  0  0  0  0  0
   34.6322  -20.1864   39.7380 O   0  0  0  0  0  0  0  0  0  0  0  0
   34.6011  -20.0224   41.1050 C   0  0  0  0  0  0  0  0  0  0  0  0
  7 15  1  0  0  0
 15 16  1  0  0  0
 15 18  1  0  0  0
 18 21  1  0  0  0
 21 22  1  0  0  0
 18 19  1  0  0  0
  7  8  1  0  0  0
  8  9  2  0  0  0
  9 10  1  0  0  0
  9 11  1  0  0  0
 11 12  1  0  0  0
 12  1  1  0  0  0
  1  2  2  0  0  0
  2 34  1  0  0  0
 34 35  1  0  0  0
  2  3  1  0  0  0
  3  4  2  0  0  0
  4 24  1  0  0  0
 24 25  1  0  0  0
 25 26  2  0  0  0
 25 28  1  0  0  0
 28 29  2  0  0  0
 29 30  1  0  0  0
 30 31  2  0  0  0
 31 32  1  0  0  0
 32 33  2  0  0  0
  4  5  1  0  0  0
  5  6  2  0  0  0
 12  7  2  0  0  0
  6  1  1  0  0  0
 33 28  1  0  0  0
 16 17  1  0  0  0
 22 23  1  0  0  0
 19 20  1  0  0  0
 10 13  1  0  0  0
 10 14  1  0  0  0
 24 27  1  0  0  0
M  END
> <minimizedAffinity>
-4.69165

> <CNNscore>
0.3769211173

> <CNNaffinity>
4.3385000229

> <CNN_VS>
1.6352722645

> <CNNaffinity_variance>
0.3096655011

$$$$
[H]OC([H])([H])[C@]([H])(O[H])[C@@]([H])(O[H])c1nc(N([H])[H])sc1-c1c([H])c([H])c(N([H])C(=O)c2nc([H])c([H])c([H])c2[H])c([H])c1OC([H])([H])[H]


 35 37  0  0  0  0  0  0  0  0999 V2000
   35.4715  -16.9706   35.6681 C   0  0  0  0  0  0  0  0  0  0  0  0
   35.9013  -15.8170   36.3707 C   0  0  0  0  0  0  0  0  0  0  0  0
   35.0342  -14.8054   36.5518 C   0  0  0  0  0  0  0  0  0  0  0  0
   33.7250  -14.8007   36.0961 C   0  0  0  0  0  0  0  0  0  0  0  0
   33.3379  -15.9234   35.4248 C   0  0  0  0  0  0  0  0  0  0  0  0
   34.2093  -16.9871   35.2207 C   0  0  0  0  0  0  0  0  0  0  0  0
   36.8317  -19.1257   36.2251 C   0  0  0  0  0  0  0  0  0  0  0  0
   37.8064  -19.8674   35.7380 N   0  0  0  0  0  0  0  0  0  0  0  0
   38.4175  -19.5538   34.6305 C   0  0  0  0  0  0  0  0  0  0  0  0
   39.4991  -20.2519   33.9573 N   0  0  0  0  0  0  0  0  0  0  0  0
   37.6155  -18.1274   34.1902 S   0  0  0  0  0  0  0  0  0  0  0  0
   36.4943  -18.0133   35.5112 C   0  0  0  0  0  0  0  0  0  0  0  0
   40.4657  -19.9166   33.9621 H   0  0  0  0  0  0  0  0  0  0  0  0
   39.2163  -21.1265   33.4651 H   0  0  0  0  0  0  0  0  0  0  0  0
   36.2003  -19.5520   37.5380 C   0  0  0  0  0  0  0  0  0  0  0  0
   37.1733  -20.2201   38.2748 O   0  0  0  0  0  0  0  0  0  0  0  0
   36.8837  -20.3667   39.2079 H   0  0  0  0  0  0  0  0  0  0  0  0
   35.0475  -20.5283   37.2451 C   0  0  0  0  0  0  0  0  0  0  0  0
   35.5668  -21.7395   36.7906 O   0  0  0  0  0  0  0  0  0  0  0  0
   35.8214  -22.2682   37.5711 H   0  0  0  0  0  0  0  0  0  0  0  0
   34.3028  -20.8487   38.5231 C   0  0  0  0  0  0  0  0  0  0  0  0
   34.7199  -19.9254   39.5001 O   0  0  0  0  0  0  0  0  0  0  0  0
   33.9378  -19.6466   40.0403 H   0  0  0  0  0  0  0  0  0  0  0  0
   32.9288  -13.6603   36.3231 N   0  0  0  0  0  0  0  0  0  0  0  0
   32.7230  -12.9463   37.4981 C   0  0  0  0  0  0  0  0  0  0  0  0
   33.2900  -13.2831   38.5650 O   0  0  0  0  0  0  0  0  0  0  0  0
   32.3950  -13.2868   35.4717 H   0  0  0  0  0  0  0  0  0  0  0  0
   31.8587  -11.7960   37.5629 C   0  0  0  0  0  0  0  0  0  0  0  0
   32.3182  -10.5100   37.5038 C   0  0  0  0  0  0  0  0  0  0  0  0
   31.4677   -9.4137   37.5554 C   0  0  0  0  0  0  0  0  0  0  0  0
   30.1291   -9.6149   37.6687 C   0  0  0  0  0  0  0  0  0  0  0  0
   29.6524  -10.9253   37.7298 C   0  0  0  0  0  0  0  0  0  0  0  0
   30.5112  -11.9501   37.6763 N   0  0  0  0  0  0  0  0  0  0  0  0
   37.2015  -15.7731   36.8459 O   0  0  0  0  0  0  0  0  0  0  0  0
   37.7320  -14.7246   37.5640 C   0  0  0  0  0  0  0  0  0  0  0  0
  7 15  1  0  0  0
 15 16  1  0  0  0
 15 18  1  0  0  0
 18 21  1  0  0  0
 21 22  1  0  0  0
 18 19  1  0  0  0
  7  8  1  0  0  0
  8  9  2  0  0  0
  9 10  1  0  0  0
  9 11  1  0  0  0
 11 12  1  0  0  0
 12  1  1  0  0  0
  1  2  2  0  0  0
  2 34  1  0  0  0
 34 35  1  0  0  0
  2  3  1  0  0  0
  3  4  2  0  0  0
  4 24  1  0  0  0
 24 25  1  0  0  0
 25 26  2  0  0  0
 25 28  1  0  0  0
 28 29  2  0  0  0
 29 30  1  0  0  0
 30 31  2  0  0  0
 31 32  1  0  0  0
 32 33  2  0  0  0
  4  5  1  0  0  0
  5  6  2  0  0  0
 12  7  2  0  0  0
  6  1  1  0  0  0
 33 28  1  0  0  0
 16 17  1  0  0  0
 22 23  1  0  0  0
 19 20  1  0  0  0
 10 13  1  0  0  0
 10 14  1  0  0  0
 24 27  1  0  0  0
M  END
> <minimizedAffinity>
-7.00262

> <CNNscore>
0.3542992175

> <CNNaffinity>
5.4684925079

> <CNN_VS>
1.9374825954

> <CNNaffinity_variance>
0.1264454275

$$$$
[H]OC([H])([H])[C@]([H])(O[H])[C@@]([H])(O[H])c1nc(N([H])[H])sc1-c1c([H])c([H])c(N([H])C(=O)c2nc([H])c([H])c([H])c2[H])c([H])c1OC([H])([H])[H]


 35 37  0  0  0  0  0  0  0  0999 V2000
   36.2299  -16.9296   36.5293 C   0  0  0  0  0  0  0  0  0  0  0  0
   35.0100  -16.6847   35.8503 C   0  0  0  0  0  0  0  0  0  0  0  0
   34.4448  -15.4685   35.9472 C   0  0  0  0  0  0  0  0  0  0  0  0
   34.9715  -14.4122   36.6744 C   0  0  0  0  0  0  0  0  0  0  0  0
   36.1460  -14.6754   37.3163 C   0  0  0  0  0  0  0  0  0  0  0  0
   36.7568  -15.9216   37.2364 C   0  0  0  0  0  0  0  0  0  0  0  0
   36.4243  -19.5051   36.8955 C   0  0  0  0  0  0  0  0  0  0  0  0
   37.1203  -20.5424   36.4747 N   0  0  0  0  0  0  0  0  0  0  0  0
   38.0810  -20.4146   35.6035 C   0  0  0  0  0  0  0  0  0  0  0  0
   38.9385  -21.4404   35.0354 N   0  0  0  0  0  0  0  0  0  0  0  0
   38.0581  -18.7453   35.3126 S   0  0  0  0  0  0  0  0  0  0  0  0
   36.7600  -18.2906   36.3725 C   0  0  0  0  0  0  0  0  0  0  0  0
   39.9181  -21.5590   35.3056 H   0  0  0  0  0  0  0  0  0  0  0  0
   38.4791  -22.0518   34.3267 H   0  0  0  0  0  0  0  0  0  0  0  0
   35.3456  -19.7458   37.9359 C   0  0  0  0  0  0  0  0  0  0  0  0
   35.8768  -20.5928   38.9035 O   0  0  0  0  0  0  0  0  0  0  0  0
   35.2919  -20.6467   39.6980 H   0  0  0  0  0  0  0  0  0  0  0  0
   34.1526  -20.4500   37.2662 C   0  0  0  0  0  0  0  0  0  0  0  0
   34.3631  -20.5159   35.8898 O   0  0  0  0  0  0  0  0  0  0  0  0
   34.9274  -21.2922   35.7098 H   0  0  0  0  0  0  0  0  0  0  0  0
   34.0637  -21.8838   37.7424 C   0  0  0  0  0  0  0  0  0  0  0  0
   34.8437  -22.6689   36.8728 O   0  0  0  0  0  0  0  0  0  0  0  0
   35.3339  -23.3498   37.3994 H   0  0  0  0  0  0  0  0  0  0  0  0
   34.2603  -13.1966   36.7222 N   0  0  0  0  0  0  0  0  0  0  0  0
   33.4303  -12.6973   37.7196 C   0  0  0  0  0  0  0  0  0  0  0  0
   33.2264  -13.3461   38.7735 O   0  0  0  0  0  0  0  0  0  0  0  0
   34.3637  -12.5614   35.8647 H   0  0  0  0  0  0  0  0  0  0  0  0
   32.7623  -11.4264   37.6057 C   0  0  0  0  0  0  0  0  0  0  0  0
   33.4272  -10.2333   37.5531 C   0  0  0  0  0  0  0  0  0  0  0  0
   32.7658   -9.0185   37.4307 C   0  0  0  0  0  0  0  0  0  0  0  0
   31.4094   -9.0038   37.3598 C   0  0  0  0  0  0  0  0  0  0  0  0
   30.7235  -10.2182   37.4130 C   0  0  0  0  0  0  0  0  0  0  0  0
   31.4048  -11.3638   37.5314 N   0  0  0  0  0  0  0  0  0  0  0  0
   34.4430  -17.7090   35.1103 O   0  0  0  0  0  0  0  0  0  0  0  0
   33.3413  -17.5630   34.2970 C   0  0  0  0  0  0  0  0  0  0  0  0
  7 15  1  0  0  0
 15 16  1  0  0  0
 15 18  1  0  0  0
 18 21  1  0  0  0
 21 22  1  0  0  0
 18 19  1  0  0  0
  7  8  1  0  0  0
  8  9  2  0  0  0
  9 10  1  0  0  0
  9 11  1  0  0  0
 11 12  1  0  0  0
 12  1  1  0  0  0
  1  2  2  0  0  0
  2 34  1  0  0  0
 34 35  1  0  0  0
  2  3  1  0  0  0
  3  4  2  0  0  0
  4 24  1  0  0  0
 24 25  1  0  0  0
 25 26  2  0  0  0
 25 28  1  0  0  0
 28 29  2  0  0  0
 29 30  1  0  0  0
 30 31  2  0  0  0
 31 32  1  0  0  0
 32 33  2  0  0  0
  4  5  1  0  0  0
  5  6  2  0  0  0
 12  7  2  0  0  0
  6  1  1  0  0  0
 33 28  1  0  0  0
 16 17  1  0  0  0
 22 23  1  0  0  0
 19 20  1  0  0  0
 10 13  1  0  0  0
 10 14  1  0  0  0
 24 27  1  0  0  0
M  END
> <minimizedAffinity>
-7.99327

> <CNNscore>
0.3449625075

> <CNNaffinity>
5.2627887726

> <CNN_VS>
1.8154648542

> <CNNaffinity_variance>
0.1338374615

$$$$
[H]OC([H])([H])[C@]([H])(O[H])[C@@]([H])(O[H])c1nc(N([H])[H])sc1-c1c([H])c([H])c(N([H])C(=O)c2nc([H])c([H])c([H])c2[H])c([H])c1OC([H])([H])[H]


 35 37  0  0  0  0  0  0  0  0999 V2000
   34.9740  -21.5858   37.4209 C   0  0  0  0  0  0  0  0  0  0  0  0
   34.9100  -21.4170   38.8268 C   0  0  0  0  0  0  0  0  0  0  0  0
   36.0502  -21.2135   39.5098 C   0  0  0  0  0  0  0  0  0  0  0  0
   37.3108  -21.1544   38.9359 C   0  0  0  0  0  0  0  0  0  0  0  0
   37.3427  -21.3187   37.5821 C   0  0  0  0  0  0  0  0  0  0  0  0
   36.1825  -21.5305   36.8462 C   0  0  0  0  0  0  0  0  0  0  0  0
   32.7676  -21.0038   36.1567 C   0  0  0  0  0  0  0  0  0  0  0  0
   31.7103  -21.5914   35.6330 N   0  0  0  0  0  0  0  0  0  0  0  0
   31.5427  -22.8822   35.6964 C   0  0  0  0  0  0  0  0  0  0  0  0
   30.4497  -23.6858   35.1768 N   0  0  0  0  0  0  0  0  0  0  0  0
   32.9318  -23.3659   36.5379 S   0  0  0  0  0  0  0  0  0  0  0  0
   33.6781  -21.8151   36.7681 C   0  0  0  0  0  0  0  0  0  0  0  0
   29.7289  -24.0978   35.7746 H   0  0  0  0  0  0  0  0  0  0  0  0
   30.4535  -23.8131   34.1419 H   0  0  0  0  0  0  0  0  0  0  0  0
   32.8618  -19.4917   36.0626 C   0  0  0  0  0  0  0  0  0  0  0  0
   31.5833  -19.0063   35.8067 O   0  0  0  0  0  0  0  0  0  0  0  0
   31.5411  -18.0247   35.9108 H   0  0  0  0  0  0  0  0  0  0  0  0
   33.7753  -19.1197   34.8815 C   0  0  0  0  0  0  0  0  0  0  0  0
   33.7022  -20.1121   33.9053 O   0  0  0  0  0  0  0  0  0  0  0  0
   32.9141  -19.9350   33.3565 H   0  0  0  0  0  0  0  0  0  0  0  0
   33.2791  -17.8508   34.2226 C   0  0  0  0  0  0  0  0  0  0  0  0
   33.2554  -16.8437   35.2055 O   0  0  0  0  0  0  0  0  0  0  0  0
   33.5723  -15.9932   34.8085 H   0  0  0  0  0  0  0  0  0  0  0  0
   38.4311  -20.9694   39.7705 N   0  0  0  0  0  0  0  0  0  0  0  0
   39.3004  -21.9138   40.3046 C   0  0  0  0  0  0  0  0  0  0  0  0
   39.1543  -23.1354   40.0608 O   0  0  0  0  0  0  0  0  0  0  0  0
   38.6471  -19.9554   40.0436 H   0  0  0  0  0  0  0  0  0  0  0  0
   40.4030  -21.5545   41.1587 C   0  0  0  0  0  0  0  0  0  0  0  0
   40.6696  -20.2679   41.5356 C   0  0  0  0  0  0  0  0  0  0  0  0
   41.7306  -19.9425   42.3702 C   0  0  0  0  0  0  0  0  0  0  0  0
   42.5390  -20.9305   42.8346 C   0  0  0  0  0  0  0  0  0  0  0  0
   42.2731  -22.2468   42.4538 C   0  0  0  0  0  0  0  0  0  0  0  0
   41.2385  -22.5112   41.6474 N   0  0  0  0  0  0  0  0  0  0  0  0
   33.6730  -21.4682   39.4476 O   0  0  0  0  0  0  0  0  0  0  0  0
   33.4777  -21.8214   40.7642 C   0  0  0  0  0  0  0  0  0  0  0  0
  7 15  1  0  0  0
 15 16  1  0  0  0
 15 18  1  0  0  0
 18 21  1  0  0  0
 21 22  1  0  0  0
 18 19  1  0  0  0
  7  8  1  0  0  0
  8  9  2  0  0  0
  9 10  1  0  0  0
  9 11  1  0  0  0
 11 12  1  0  0  0
 12  1  1  0  0  0
  1  2  2  0  0  0
  2 34  1  0  0  0
 34 35  1  0  0  0
  2  3  1  0  0  0
  3  4  2  0  0  0
  4 24  1  0  0  0
 24 25  1  0  0  0
 25 26  2  0  0  0
 25 28  1  0  0  0
 28 29  2  0  0  0
 29 30  1  0  0  0
 30 31  2  0  0  0
 31 32  1  0  0  0
 32 33  2  0  0  0
  4  5  1  0  0  0
  5  6  2  0  0  0
 12  7  2  0  0  0
  6  1  1  0  0  0
 33 28  1  0  0  0
 16 17  1  0  0  0
 22 23  1  0  0  0
 19 20  1  0  0  0
 10 13  1  0  0  0
 10 14  1  0  0  0
 24 27  1  0  0  0
M  END
> <minimizedAffinity>
-4.26155

> <CNNscore>
0.3446746767

> <CNNaffinity>
4.2957425117

> <CNN_VS>
1.4806336164

> <CNNaffinity_variance>
0.1940939426

$$$$
[H]OC([H])([H])[C@]([H])(O[H])[C@@]([H])(O[H])c1nc(N([H])[H])sc1-c1c([H])c([H])c(N([H])C(=O)c2nc([H])c([H])c([H])c2[H])c([H])c1OC([H])([H])[H]


 35 37  0  0  0  0  0  0  0  0999 V2000
   32.4774  -21.0795   35.3980 C   0  0  0  0  0  0  0  0  0  0  0  0
   31.4778  -20.0752   35.3593 C   0  0  0  0  0  0  0  0  0  0  0  0
   31.8468  -18.7863   35.4630 C   0  0  0  0  0  0  0  0  0  0  0  0
   33.1554  -18.3522   35.6080 C   0  0  0  0  0  0  0  0  0  0  0  0
   34.0963  -19.3394   35.6408 C   0  0  0  0  0  0  0  0  0  0  0  0
   33.7486  -20.6812   35.5359 C   0  0  0  0  0  0  0  0  0  0  0  0
   31.6975  -23.4374   36.1959 C   0  0  0  0  0  0  0  0  0  0  0  0
   31.2018  -24.5608   35.7164 N   0  0  0  0  0  0  0  0  0  0  0  0
   30.9865  -24.7252   34.4417 C   0  0  0  0  0  0  0  0  0  0  0  0
   30.4496  -25.8845   33.7502 N   0  0  0  0  0  0  0  0  0  0  0  0
   31.4942  -23.2349   33.8148 S   0  0  0  0  0  0  0  0  0  0  0  0
   31.9733  -22.4551   35.2904 C   0  0  0  0  0  0  0  0  0  0  0  0
   31.0285  -26.5171   33.1923 H   0  0  0  0  0  0  0  0  0  0  0  0
   29.4229  -26.0260   33.8650 H   0  0  0  0  0  0  0  0  0  0  0  0
   31.9447  -23.3488   37.6909 C   0  0  0  0  0  0  0  0  0  0  0  0
   32.1000  -22.0040   38.0120 O   0  0  0  0  0  0  0  0  0  0  0  0
   32.0854  -21.8611   38.9895 H   0  0  0  0  0  0  0  0  0  0  0  0
   33.2509  -24.0894   38.0269 C   0  0  0  0  0  0  0  0  0  0  0  0
   33.3204  -25.2699   37.2888 O   0  0  0  0  0  0  0  0  0  0  0  0
   33.6686  -25.0497   36.4034 H   0  0  0  0  0  0  0  0  0  0  0  0
   34.4418  -23.2599   37.5976 C   0  0  0  0  0  0  0  0  0  0  0  0
   35.0048  -23.8795   36.4663 O   0  0  0  0  0  0  0  0  0  0  0  0
   35.2800  -23.1840   35.8167 H   0  0  0  0  0  0  0  0  0  0  0  0
   33.4042  -16.9714   35.7406 N   0  0  0  0  0  0  0  0  0  0  0  0
   34.5357  -16.3195   36.2177 C   0  0  0  0  0  0  0  0  0  0  0  0
   35.5380  -16.9669   36.6042 O   0  0  0  0  0  0  0  0  0  0  0  0
   32.6064  -16.3224   35.4378 H   0  0  0  0  0  0  0  0  0  0  0  0
   34.6250  -14.8843   36.2986 C   0  0  0  0  0  0  0  0  0  0  0  0
   33.5614  -14.0845   36.6109 C   0  0  0  0  0  0  0  0  0  0  0  0
   33.6701  -12.7028   36.6963 C   0  0  0  0  0  0  0  0  0  0  0  0
   34.8720  -12.1145   36.4630 C   0  0  0  0  0  0  0  0  0  0  0  0
   35.9627  -12.9247   36.1434 C   0  0  0  0  0  0  0  0  0  0  0  0
   35.8089  -14.2521   36.0729 N   0  0  0  0  0  0  0  0  0  0  0  0
   30.1546  -20.4584   35.2163 O   0  0  0  0  0  0  0  0  0  0  0  0
   29.2659  -20.5898   36.2600 C   0  0  0  0  0  0  0  0  0  0  0  0
  7 15  1  0  0  0
 15 16  1  0  0  0
 15 18  1  0  0  0
 18 21  1  0  0  0
 21 22  1  0  0  0
 18 19  1  0  0  0
  7  8  1  0  0  0
  8  9  2  0  0  0
  9 10  1  0  0  0
  9 11  1  0  0  0
 11 12  1  0  0  0
 12  1  1  0  0  0
  1  2  2  0  0  0
  2 34  1  0  0  0
 34 35  1  0  0  0
  2  3  1  0  0  0
  3  4  2  0  0  0
  4 24  1  0  0  0
 24 25  1  0  0  0
 25 26  2  0  0  0
 25 28  1  0  0  0
 28 29  2  0  0  0
 29 30  1  0  0  0
 30 31  2  0  0  0
 31 32  1  0  0  0
 32 33  2  0  0  0
  4  5  1  0  0  0
  5  6  2  0  0  0
 12  7  2  0  0  0
  6  1  1  0  0  0
 33 28  1  0  0  0
 16 17  1  0  0  0
 22 23  1  0  0  0
 19 20  1  0  0  0
 10 13  1  0  0  0
 10 14  1  0  0  0
 24 27  1  0  0  0
M  END
> <minimizedAffinity>
-5.16235

> <CNNscore>
0.3421612382

> <CNNaffinity>
4.6383728981

> <CNN_VS>
1.5870714188

> <CNNaffinity_variance>
0.3931942880

$$$$
[H]OC([H])([H])[C@]([H])(O[H])[C@@]([H])(O[H])c1nc(N([H])[H])sc1-c1c([H])c([H])c(N([H])C(=O)c2nc([H])c([H])c([H])c2[H])c([H])c1OC([H])([H])[H]


 35 37  0  0  0  0  0  0  0  0999 V2000
   34.3811  -17.1499   35.7704 C   0  0  0  0  0  0  0  0  0  0  0  0
   34.6728  -18.3357   36.4901 C   0  0  0  0  0  0  0  0  0  0  0  0
   34.0139  -19.4652   36.1768 C   0  0  0  0  0  0  0  0  0  0  0  0
   33.0510  -19.5644   35.1843 C   0  0  0  0  0  0  0  0  0  0  0  0
   32.7914  -18.4090   34.5072 C   0  0  0  0  0  0  0  0  0  0  0  0
   33.4548  -17.2245   34.8059 C   0  0  0  0  0  0  0  0  0  0  0  0
   34.7961  -14.7253   36.6386 C   0  0  0  0  0  0  0  0  0  0  0  0
   35.7843  -13.9222   36.9790 N   0  0  0  0  0  0  0  0  0  0  0  0
   37.0300  -14.2960   36.8959 C   0  0  0  0  0  0  0  0  0  0  0  0
   38.2301  -13.5476   37.2276 N   0  0  0  0  0  0  0  0  0  0  0  0
   36.8734  -15.8766   36.3052 S   0  0  0  0  0  0  0  0  0  0  0  0
   35.1428  -15.9680   36.1953 C   0  0  0  0  0  0  0  0  0  0  0  0
   38.8548  -13.1553   36.5188 H   0  0  0  0  0  0  0  0  0  0  0  0
   38.4096  -13.4384   38.2489 H   0  0  0  0  0  0  0  0  0  0  0  0
   33.3784  -14.1920   36.7380 C   0  0  0  0  0  0  0  0  0  0  0  0
   32.9423  -13.9145   35.4462 O   0  0  0  0  0  0  0  0  0  0  0  0
   31.9712  -13.7345   35.4228 H   0  0  0  0  0  0  0  0  0  0  0  0
   33.3920  -12.8820   37.5452 C   0  0  0  0  0  0  0  0  0  0  0  0
   33.9062  -11.8540   36.7566 O   0  0  0  0  0  0  0  0  0  0  0  0
   33.1798  -11.5095   36.2023 H   0  0  0  0  0  0  0  0  0  0  0  0
   31.9768  -12.4723   37.8915 C   0  0  0  0  0  0  0  0  0  0  0  0
   31.3650  -12.0181   36.7082 O   0  0  0  0  0  0  0  0  0  0  0  0
   30.4287  -12.3405   36.6808 H   0  0  0  0  0  0  0  0  0  0  0  0
   32.4095  -20.8022   34.9790 N   0  0  0  0  0  0  0  0  0  0  0  0
   31.2405  -21.2962   35.5469 C   0  0  0  0  0  0  0  0  0  0  0  0
   30.5841  -20.6129   36.3687 O   0  0  0  0  0  0  0  0  0  0  0  0
   32.8907  -21.4688   34.2910 H   0  0  0  0  0  0  0  0  0  0  0  0
   30.7206  -22.6024   35.2339 C   0  0  0  0  0  0  0  0  0  0  0  0
   31.3767  -23.4980   34.4367 C   0  0  0  0  0  0  0  0  0  0  0  0
   30.8648  -24.7579   34.1563 C   0  0  0  0  0  0  0  0  0  0  0  0
   29.6697  -25.1239   34.6882 C   0  0  0  0  0  0  0  0  0  0  0  0
   28.9936  -24.2145   35.5032 C   0  0  0  0  0  0  0  0  0  0  0  0
   29.5272  -23.0113   35.7447 N   0  0  0  0  0  0  0  0  0  0  0  0
   35.6274  -18.2880   37.4924 O   0  0  0  0  0  0  0  0  0  0  0  0
   36.2988  -19.3872   37.9798 C   0  0  0  0  0  0  0  0  0  0  0  0
  7 15  1  0  0  0
 15 16  1  0  0  0
 15 18  1  0  0  0
 18 21  1  0  0  0
 21 22  1  0  0  0
 18 19  1  0  0  0
  7  8  1  0  0  0
  8  9  2  0  0  0
  9 10  1  0  0  0
  9 11  1  0  0  0
 11 12  1  0  0  0
 12  1  1  0  0  0
  1  2  2  0  0  0
  2 34  1  0  0  0
 34 35  1  0  0  0
  2  3  1  0  0  0
  3  4  2  0  0  0
  4 24  1  0  0  0
 24 25  1  0  0  0
 25 26  2  0  0  0
 25 28  1  0  0  0
 28 29  2  0  0  0
 29 30  1  0  0  0
 30 31  2  0  0  0
 31 32  1  0  0  0
 32 33  2  0  0  0
  4  5  1  0  0  0
  5  6  2  0  0  0
 12  7  2  0  0  0
  6  1  1  0  0  0
 33 28  1  0  0  0
 16 17  1  0  0  0
 22 23  1  0  0  0
 19 20  1  0  0  0
 10 13  1  0  0  0
 10 14  1  0  0  0
 24 27  1  0  0  0
M  END
> <minimizedAffinity>
-7.22840

> <CNNscore>
0.3260606527

> <CNNaffinity>
4.9720830917

> <CNN_VS>
1.6212006807

> <CNNaffinity_variance>
1.0203859806

$$$$
[H]OC([H])([H])[C@]([H])(O[H])[C@@]([H])(O[H])c1nc(N([H])[H])sc1-c1c([H])c([H])c(N([H])C(=O)c2nc([H])c([H])c([H])c2[H])c([H])c1OC([H])([H])[H]


 35 37  0  0  0  0  0  0  0  0999 V2000
   35.4227  -22.1935   37.8896 C   0  0  0  0  0  0  0  0  0  0  0  0
   35.6423  -20.9165   38.4644 C   0  0  0  0  0  0  0  0  0  0  0  0
   36.8175  -20.2997   38.2485 C   0  0  0  0  0  0  0  0  0  0  0  0
   37.8539  -20.8247   37.4921 C   0  0  0  0  0  0  0  0  0  0  0  0
   37.6149  -22.0535   36.9500 C   0  0  0  0  0  0  0  0  0  0  0  0
   36.4110  -22.7180   37.1535 C   0  0  0  0  0  0  0  0  0  0  0  0
   32.8614  -22.6400   37.6771 C   0  0  0  0  0  0  0  0  0  0  0  0
   31.9153  -23.3992   38.1928 N   0  0  0  0  0  0  0  0  0  0  0  0
   32.1644  -24.2495   39.1484 C   0  0  0  0  0  0  0  0  0  0  0  0
   31.2510  -25.1555   39.8232 N   0  0  0  0  0  0  0  0  0  0  0  0
   33.8260  -24.0175   39.3871 S   0  0  0  0  0  0  0  0  0  0  0  0
   34.1151  -22.7895   38.1939 C   0  0  0  0  0  0  0  0  0  0  0  0
   30.9121  -24.9968   40.7753 H   0  0  0  0  0  0  0  0  0  0  0  0
   30.9638  -25.9859   39.2618 H   0  0  0  0  0  0  0  0  0  0  0  0
   32.4712  -21.6557   36.5896 C   0  0  0  0  0  0  0  0  0  0  0  0
   32.1441  -20.4534   37.2087 O   0  0  0  0  0  0  0  0  0  0  0  0
   32.0542  -19.7207   36.5521 H   0  0  0  0  0  0  0  0  0  0  0  0
   31.2266  -22.1868   35.8569 C   0  0  0  0  0  0  0  0  0  0  0  0
   30.4383  -21.1152   35.4405 O   0  0  0  0  0  0  0  0  0  0  0  0
   30.8007  -20.7873   34.5951 H   0  0  0  0  0  0  0  0  0  0  0  0
   31.6392  -22.9144   34.5956 C   0  0  0  0  0  0  0  0  0  0  0  0
   32.5054  -22.0663   33.8806 O   0  0  0  0  0  0  0  0  0  0  0  0
   33.2418  -22.6039   33.4933 H   0  0  0  0  0  0  0  0  0  0  0  0
   39.0499  -20.0892   37.3720 N   0  0  0  0  0  0  0  0  0  0  0  0
   40.2140  -20.1661   38.1282 C   0  0  0  0  0  0  0  0  0  0  0  0
   40.3157  -20.9836   39.0740 O   0  0  0  0  0  0  0  0  0  0  0  0
   39.0704  -19.3562   36.5899 H   0  0  0  0  0  0  0  0  0  0  0  0
   41.3558  -19.3245   37.8782 C   0  0  0  0  0  0  0  0  0  0  0  0
   42.3788  -19.1661   38.7707 C   0  0  0  0  0  0  0  0  0  0  0  0
   43.4777  -18.3595   38.5064 C   0  0  0  0  0  0  0  0  0  0  0  0
   43.5488  -17.6995   37.3213 C   0  0  0  0  0  0  0  0  0  0  0  0
   42.5077  -17.8562   36.4049 C   0  0  0  0  0  0  0  0  0  0  0  0
   41.4689  -18.6446   36.7046 N   0  0  0  0  0  0  0  0  0  0  0  0
   34.6369  -20.3493   39.2296 O   0  0  0  0  0  0  0  0  0  0  0  0
   34.6826  -20.2177   40.5997 C   0  0  0  0  0  0  0  0  0  0  0  0
  7 15  1  0  0  0
 15 16  1  0  0  0
 15 18  1  0  0  0
 18 21  1  0  0  0
 21 22  1  0  0  0
 18 19  1  0  0  0
  7  8  1  0  0  0
  8  9  2  0  0  0
  9 10  1  0  0  0
  9 11  1  0  0  0
 11 12  1  0  0  0
 12  1  1  0  0  0
  1  2  2  0  0  0
  2 34  1  0  0  0
 34 35  1  0  0  0
  2  3  1  0  0  0
  3  4  2  0  0  0
  4 24  1  0  0  0
 24 25  1  0  0  0
 25 26  2  0  0  0
 25 28  1  0  0  0
 28 29  2  0  0  0
 29 30  1  0  0  0
 30 31  2  0  0  0
 31 32  1  0  0  0
 32 33  2  0  0  0
  4  5  1  0  0  0
  5  6  2  0  0  0
 12  7  2  0  0  0
  6  1  1  0  0  0
 33 28  1  0  0  0
 16 17  1  0  0  0
 22 23  1  0  0  0
 19 20  1  0  0  0
 10 13  1  0  0  0
 10 14  1  0  0  0
 24 27  1  0  0  0
M  END
> <minimizedAffinity>
-4.17234

> <CNNscore>
0.3126518726

> <CNNaffinity>
4.3313088417

> <CNN_VS>
1.3541917801

> <CNNaffinity_variance>
0.2125189304

$$$$
[H]OC(=O)C([H])([H])Oc1c([H])c([H])c2c(N([H])c3c([H])c([H])c(F)c([H])c3[H])nc([H])c([H])c2c1[H]


 25 27  0  0  0  0  0  0  0  0999 V2000
   32.6336  -22.1028   36.5916 C   0  0  0  0  0  0  0  0  0  0  0  0
   33.6197  -21.6505   37.4401 C   0  0  0  0  0  0  0  0  0  0  0  0
   34.1845  -20.4085   37.2259 C   0  0  0  0  0  0  0  0  0  0  0  0
   33.7610  -19.6320   36.1702 C   0  0  0  0  0  0  0  0  0  0  0  0
   34.2945  -18.3592   35.9001 C   0  0  0  0  0  0  0  0  0  0  0  0
   33.8603  -17.6173   34.8600 N   0  0  0  0  0  0  0  0  0  0  0  0
   32.9059  -18.0739   34.0527 C   0  0  0  0  0  0  0  0  0  0  0  0
   32.3390  -19.3091   34.2561 C   0  0  0  0  0  0  0  0  0  0  0  0
   32.7672  -20.0883   35.3157 C   0  0  0  0  0  0  0  0  0  0  0  0
   32.2096  -21.3314   35.5389 C   0  0  0  0  0  0  0  0  0  0  0  0
   35.3391  -17.8920   36.7385 N   0  0  0  0  0  0  0  0  0  0  0  0
   35.8807  -18.5287   37.3948 H   0  0  0  0  0  0  0  0  0  0  0  0
   35.7185  -16.5169   36.7371 C   0  0  0  0  0  0  0  0  0  0  0  0
   35.3597  -15.5884   35.7969 C   0  0  0  0  0  0  0  0  0  0  0  0
   35.8477  -14.2859   35.9209 C   0  0  0  0  0  0  0  0  0  0  0  0
   36.6735  -13.9027   36.9524 C   0  0  0  0  0  0  0  0  0  0  0  0
   37.1623  -12.6511   37.1006 F   0  0  0  0  0  0  0  0  0  0  0  0
   37.0200  -14.8526   37.8863 C   0  0  0  0  0  0  0  0  0  0  0  0
   36.5635  -16.1336   37.7976 C   0  0  0  0  0  0  0  0  0  0  0  0
   32.0991  -23.3661   36.8565 O   0  0  0  0  0  0  0  0  0  0  0  0
   32.8876  -24.5414   36.7613 C   0  0  0  0  0  0  0  0  0  0  0  0
   34.1957  -25.3657   38.7573 O   0  0  0  0  0  0  0  0  0  0  0  0
   32.9879  -25.1237   38.1177 C   0  0  0  0  0  0  0  0  0  0  0  0
   31.9440  -25.4253   38.7492 O   0  0  0  0  0  0  0  0  0  0  0  0
   34.8632  -24.5948   38.7602 H   0  0  0  0  0  0  0  0  0  0  0  0
 22 23  1  0  0  0
 23 24  2  0  0  0
 23 21  1  0  0  0
 21 20  1  0  0  0
 20  1  1  0  0  0
  1  2  2  0  0  0
  2  3  1  0  0  0
  3  4  2  0  0  0
  4  5  1  0  0  0
  5 11  1  0  0  0
 11 13  1  0  0  0
 13 14  2  0  0  0
 14 15  1  0  0  0
 15 16  2  0  0  0
 16 17  1  0  0  0
 16 18  1  0  0  0
 18 19  2  0  0  0
  5  6  2  0  0  0
  6  7  1  0  0  0
  7  8  2  0  0  0
  8  9  1  0  0  0
  9 10  2  0  0  0
 10  1  1  0  0  0
  9  4  1  0  0  0
 19 13  1  0  0  0
 22 25  1  0  0  0
 11 12  1  0  0  0
M  END
> <minimizedAffinity>
-5.16331

> <CNNscore>
0.4831726253

> <CNNaffinity>
4.1677236557

> <CNN_VS>
2.0137300491

> <CNNaffinity_variance>
0.4139779210

$$$$
[H]OC(=O)C([H])([H])Oc1c([H])c([H])c2c(N([H])c3c([H])c([H])c(F)c([H])c3[H])nc([H])c([H])c2c1[H]


 25 27  0  0  0  0  0  0  0  0999 V2000
   32.0751  -19.8473   35.2569 C   0  0  0  0  0  0  0  0  0  0  0  0
   32.4023  -18.7396   34.5069 C   0  0  0  0  0  0  0  0  0  0  0  0
   33.5330  -18.0127   34.8245 C   0  0  0  0  0  0  0  0  0  0  0  0
   34.3239  -18.3973   35.8844 C   0  0  0  0  0  0  0  0  0  0  0  0
   35.4875  -17.7011   36.2570 C   0  0  0  0  0  0  0  0  0  0  0  0
   36.2466  -18.1003   37.2989 N   0  0  0  0  0  0  0  0  0  0  0  0
   35.9117  -19.1742   38.0099 C   0  0  0  0  0  0  0  0  0  0  0  0
   34.7878  -19.9030   37.7032 C   0  0  0  0  0  0  0  0  0  0  0  0
   33.9936  -19.5138   36.6396 C   0  0  0  0  0  0  0  0  0  0  0  0
   32.8612  -20.2330   36.3134 C   0  0  0  0  0  0  0  0  0  0  0  0
   35.8201  -16.5341   35.5221 N   0  0  0  0  0  0  0  0  0  0  0  0
   36.2760  -16.5669   34.5626 H   0  0  0  0  0  0  0  0  0  0  0  0
   35.5504  -15.2363   36.0490 C   0  0  0  0  0  0  0  0  0  0  0  0
   36.4861  -14.3480   36.5074 C   0  0  0  0  0  0  0  0  0  0  0  0
   36.0527  -13.1273   37.0287 C   0  0  0  0  0  0  0  0  0  0  0  0
   34.7219  -12.7853   37.0971 C   0  0  0  0  0  0  0  0  0  0  0  0
   34.2702  -11.6128   37.5956 F   0  0  0  0  0  0  0  0  0  0  0  0
   33.7991  -13.6933   36.6295 C   0  0  0  0  0  0  0  0  0  0  0  0
   34.1849  -14.8947   36.1144 C   0  0  0  0  0  0  0  0  0  0  0  0
   30.9208  -20.5435   34.8898 O   0  0  0  0  0  0  0  0  0  0  0  0
   29.6308  -20.1019   35.2810 C   0  0  0  0  0  0  0  0  0  0  0  0
   28.9731  -21.0216   37.5385 O   0  0  0  0  0  0  0  0  0  0  0  0
   29.0491  -21.1420   36.1579 C   0  0  0  0  0  0  0  0  0  0  0  0
   28.5921  -22.2003   35.6572 O   0  0  0  0  0  0  0  0  0  0  0  0
   28.5882  -20.1457   37.8910 H   0  0  0  0  0  0  0  0  0  0  0  0
 22 23  1  0  0  0
 23 24  2  0  0  0
 23 21  1  0  0  0
 21 20  1  0  0  0
 20  1  1  0  0  0
  1  2  2  0  0  0
  2  3  1  0  0  0
  3  4  2  0  0  0
  4  5  1  0  0  0
  5 11  1  0  0  0
 11 13  1  0  0  0
 13 14  2  0  0  0
 14 15  1  0  0  0
 15 16  2  0  0  0
 16 17  1  0  0  0
 16 18  1  0  0  0
 18 19  2  0  0  0
  5  6  2  0  0  0
  6  7  1  0  0  0
  7  8  2  0  0  0
  8  9  1  0  0  0
  9 10  2  0  0  0
 10  1  1  0  0  0
  9  4  1  0  0  0
 19 13  1  0  0  0
 22 25  1  0  0  0
 11 12  1  0  0  0
M  END
> <minimizedAffinity>
-7.08632

> <CNNscore>
0.4814000428

> <CNNaffinity>
4.4497623444

> <CNN_VS>
2.1421158314

> <CNNaffinity_variance>
0.7411931157

$$$$
[H]OC(=O)C([H])([H])Oc1c([H])c([H])c2c(N([H])c3c([H])c([H])c(F)c([H])c3[H])nc([H])c([H])c2c1[H]


 25 27  0  0  0  0  0  0  0  0999 V2000
   34.6379  -20.7066   38.1361 C   0  0  0  0  0  0  0  0  0  0  0  0
   35.6155  -19.7405   38.2238 C   0  0  0  0  0  0  0  0  0  0  0  0
   35.6031  -18.6780   37.3416 C   0  0  0  0  0  0  0  0  0  0  0  0
   34.6181  -18.5901   36.3829 C   0  0  0  0  0  0  0  0  0  0  0  0
   34.5494  -17.5335   35.4577 C   0  0  0  0  0  0  0  0  0  0  0  0
   33.5721  -17.4697   34.5293 N   0  0  0  0  0  0  0  0  0  0  0  0
   32.6371  -18.4144   34.4627 C   0  0  0  0  0  0  0  0  0  0  0  0
   32.6418  -19.4765   35.3347 C   0  0  0  0  0  0  0  0  0  0  0  0
   33.6332  -19.5640   36.2953 C   0  0  0  0  0  0  0  0  0  0  0  0
   33.6552  -20.6218   37.1821 C   0  0  0  0  0  0  0  0  0  0  0  0
   35.5698  -16.5492   35.5056 N   0  0  0  0  0  0  0  0  0  0  0  0
   36.5585  -16.7257   35.1579 H   0  0  0  0  0  0  0  0  0  0  0  0
   35.3085  -15.2498   36.0328 C   0  0  0  0  0  0  0  0  0  0  0  0
   36.2537  -14.3267   36.3922 C   0  0  0  0  0  0  0  0  0  0  0  0
   35.8312  -13.1091   36.9295 C   0  0  0  0  0  0  0  0  0  0  0  0
   34.5018  -12.8038   37.1093 C   0  0  0  0  0  0  0  0  0  0  0  0
   34.0605  -11.6353   37.6263 F   0  0  0  0  0  0  0  0  0  0  0  0
   33.5693  -13.7465   36.7399 C   0  0  0  0  0  0  0  0  0  0  0  0
   33.9443  -14.9460   36.2126 C   0  0  0  0  0  0  0  0  0  0  0  0
   34.7008  -21.7578   39.0542 O   0  0  0  0  0  0  0  0  0  0  0  0
   35.7505  -22.7114   39.0213 C   0  0  0  0  0  0  0  0  0  0  0  0
   35.6336  -23.6361   36.6749 O   0  0  0  0  0  0  0  0  0  0  0  0
   35.3803  -23.7500   38.0347 C   0  0  0  0  0  0  0  0  0  0  0  0
   34.8057  -24.8006   38.4162 O   0  0  0  0  0  0  0  0  0  0  0  0
   36.5824  -23.3657   36.4173 H   0  0  0  0  0  0  0  0  0  0  0  0
 22 23  1  0  0  0
 23 24  2  0  0  0
 23 21  1  0  0  0
 21 20  1  0  0  0
 20  1  1  0  0  0
  1  2  2  0  0  0
  2  3  1  0  0  0
  3  4  2  0  0  0
  4  5  1  0  0  0
  5 11  1  0  0  0
 11 13  1  0  0  0
 13 14  2  0  0  0
 14 15  1  0  0  0
 15 16  2  0  0  0
 16 17  1  0  0  0
 16 18  1  0  0  0
 18 19  2  0  0  0
  5  6  2  0  0  0
  6  7  1  0  0  0
  7  8  2  0  0  0
  8  9  1  0  0  0
  9 10  2  0  0  0
 10  1  1  0  0  0
  9  4  1  0  0  0
 19 13  1  0  0  0
 22 25  1  0  0  0
 11 12  1  0  0  0
M  END
> <minimizedAffinity>
-6.11401

> <CNNscore>
0.4778032899

> <CNNaffinity>
4.4878492355

> <CNN_VS>
2.1443090439

> <CNNaffinity_variance>
0.3718250394

$$$$
[H]OC(=O)C([H])([H])Oc1c([H])c([H])c2c(N([H])c3c([H])c([H])c(F)c([H])c3[H])nc([H])c([H])c2c1[H]


 25 27  0  0  0  0  0  0  0  0999 V2000
   35.5732  -21.3450   39.3031 C   0  0  0  0  0  0  0  0  0  0  0  0
   34.6554  -20.5926   38.6043 C   0  0  0  0  0  0  0  0  0  0  0  0
   35.0923  -19.7312   37.6171 C   0  0  0  0  0  0  0  0  0  0  0  0
   36.4371  -19.6293   37.3375 C   0  0  0  0  0  0  0  0  0  0  0  0
   36.9446  -18.7730   36.3442 C   0  0  0  0  0  0  0  0  0  0  0  0
   38.2672  -18.6935   36.0883 N   0  0  0  0  0  0  0  0  0  0  0  0
   39.1366  -19.4302   36.7758 C   0  0  0  0  0  0  0  0  0  0  0  0
   38.7121  -20.2887   37.7612 C   0  0  0  0  0  0  0  0  0  0  0  0
   37.3613  -20.3880   38.0419 C   0  0  0  0  0  0  0  0  0  0  0  0
   36.9137  -21.2457   39.0267 C   0  0  0  0  0  0  0  0  0  0  0  0
   36.0194  -17.9600   35.6404 N   0  0  0  0  0  0  0  0  0  0  0  0
   35.5997  -18.2405   34.7051 H   0  0  0  0  0  0  0  0  0  0  0  0
   35.6008  -16.7028   36.1687 C   0  0  0  0  0  0  0  0  0  0  0  0
   34.4435  -16.0451   35.8482 C   0  0  0  0  0  0  0  0  0  0  0  0
   34.1980  -14.7990   36.4286 C   0  0  0  0  0  0  0  0  0  0  0  0
   35.0749  -14.2102   37.3101 C   0  0  0  0  0  0  0  0  0  0  0  0
   34.8667  -13.0063   37.8886 F   0  0  0  0  0  0  0  0  0  0  0  0
   36.2312  -14.8903   37.6185 C   0  0  0  0  0  0  0  0  0  0  0  0
   36.5049  -16.1080   37.0712 C   0  0  0  0  0  0  0  0  0  0  0  0
   35.0739  -22.1985   40.2899 O   0  0  0  0  0  0  0  0  0  0  0  0
   34.2377  -21.7212   41.3316 C   0  0  0  0  0  0  0  0  0  0  0  0
   32.7303  -23.5159   40.3928 O   0  0  0  0  0  0  0  0  0  0  0  0
   32.9375  -22.4178   41.2160 C   0  0  0  0  0  0  0  0  0  0  0  0
   31.9510  -22.0189   41.8845 O   0  0  0  0  0  0  0  0  0  0  0  0
   33.4167  -24.2664   40.4662 H   0  0  0  0  0  0  0  0  0  0  0  0
 22 23  1  0  0  0
 23 24  2  0  0  0
 23 21  1  0  0  0
 21 20  1  0  0  0
 20  1  1  0  0  0
  1  2  2  0  0  0
  2  3  1  0  0  0
  3  4  2  0  0  0
  4  5  1  0  0  0
  5 11  1  0  0  0
 11 13  1  0  0  0
 13 14  2  0  0  0
 14 15  1  0  0  0
 15 16  2  0  0  0
 16 17  1  0  0  0
 16 18  1  0  0  0
 18 19  2  0  0  0
  5  6  2  0  0  0
  6  7  1  0  0  0
  7  8  2  0  0  0
  8  9  1  0  0  0
  9 10  2  0  0  0
 10  1  1  0  0  0
  9  4  1  0  0  0
 19 13  1  0  0  0
 22 25  1  0  0  0
 11 12  1  0  0  0
M  END
> <minimizedAffinity>
-5.29554

> <CNNscore>
0.4704521596

> <CNNaffinity>
4.1236839294

> <CNN_VS>
1.9399960041

> <CNNaffinity_variance>
0.4422652125

$$$$
[H]OC(=O)C([H])([H])Oc1c([H])c([H])c2c(N([H])c3c([H])c([H])c(F)c([H])c3[H])nc([H])c([H])c2c1[H]


 25 27  0  0  0  0  0  0  0  0999 V2000
   31.1624  -21.2450   36.1113 C   0  0  0  0  0  0  0  0  0  0  0  0
   31.0973  -19.9986   35.5291 C   0  0  0  0  0  0  0  0  0  0  0  0
   32.1962  -19.1637   35.5843 C   0  0  0  0  0  0  0  0  0  0  0  0
   33.3461  -19.5796   36.2183 C   0  0  0  0  0  0  0  0  0  0  0  0
   34.4980  -18.7780   36.3070 C   0  0  0  0  0  0  0  0  0  0  0  0
   35.6131  -19.2102   36.9321 N   0  0  0  0  0  0  0  0  0  0  0  0
   35.6540  -20.4188   37.4877 C   0  0  0  0  0  0  0  0  0  0  0  0
   34.5654  -21.2562   37.4398 C   0  0  0  0  0  0  0  0  0  0  0  0
   33.4109  -20.8358   36.8045 C   0  0  0  0  0  0  0  0  0  0  0  0
   32.3066  -21.6622   36.7435 C   0  0  0  0  0  0  0  0  0  0  0  0
   34.4381  -17.4753   35.7485 N   0  0  0  0  0  0  0  0  0  0  0  0
   33.8015  -17.2250   34.9351 H   0  0  0  0  0  0  0  0  0  0  0  0
   35.2461  -16.4198   36.2660 C   0  0  0  0  0  0  0  0  0  0  0  0
   36.3112  -16.5686   37.1133 C   0  0  0  0  0  0  0  0  0  0  0  0
   36.9778  -15.4256   37.5593 C   0  0  0  0  0  0  0  0  0  0  0  0
   36.6040  -14.1577   37.1777 C   0  0  0  0  0  0  0  0  0  0  0  0
   37.2278  -13.0320   37.5913 F   0  0  0  0  0  0  0  0  0  0  0  0
   35.5312  -14.0323   36.3245 C   0  0  0  0  0  0  0  0  0  0  0  0
   34.8561  -15.1251   35.8691 C   0  0  0  0  0  0  0  0  0  0  0  0
   30.0210  -22.0459   36.0245 O   0  0  0  0  0  0  0  0  0  0  0  0
   28.7179  -21.4977   36.1410 C   0  0  0  0  0  0  0  0  0  0  0  0
   28.0942  -23.7791   37.0245 O   0  0  0  0  0  0  0  0  0  0  0  0
   27.9285  -22.4012   37.0068 C   0  0  0  0  0  0  0  0  0  0  0  0
   27.0554  -21.9274   37.7766 O   0  0  0  0  0  0  0  0  0  0  0  0
   29.0534  -24.1136   37.1134 H   0  0  0  0  0  0  0  0  0  0  0  0
 22 23  1  0  0  0
 23 24  2  0  0  0
 23 21  1  0  0  0
 21 20  1  0  0  0
 20  1  1  0  0  0
  1  2  2  0  0  0
  2  3  1  0  0  0
  3  4  2  0  0  0
  4  5  1  0  0  0
  5 11  1  0  0  0
 11 13  1  0  0  0
 13 14  2  0  0  0
 14 15  1  0  0  0
 15 16  2  0  0  0
 16 17  1  0  0  0
 16 18  1  0  0  0
 18 19  2  0  0  0
  5  6  2  0  0  0
  6  7  1  0  0  0
  7  8  2  0  0  0
  8  9  1  0  0  0
  9 10  2  0  0  0
 10  1  1  0  0  0
  9  4  1  0  0  0
 19 13  1  0  0  0
 22 25  1  0  0  0
 11 12  1  0  0  0
M  END
> <minimizedAffinity>
-5.65636

> <CNNscore>
0.4399611652

> <CNNaffinity>
4.1363425255

> <CNN_VS>
1.8198300600

> <CNNaffinity_variance>
0.4903387427

$$$$
[H]OC(=O)C([H])([H])Oc1c([H])c([H])c2c(N([H])c3c([H])c([H])c(F)c([H])c3[H])nc([H])c([H])c2c1[H]


 25 27  0  0  0  0  0  0  0  0999 V2000
   34.7620  -20.6133   38.3150 C   0  0  0  0  0  0  0  0  0  0  0  0
   35.6193  -19.5424   38.4376 C   0  0  0  0  0  0  0  0  0  0  0  0
   35.5827  -18.5308   37.4981 C   0  0  0  0  0  0  0  0  0  0  0  0
   34.6937  -18.5974   36.4483 C   0  0  0  0  0  0  0  0  0  0  0  0
   34.6063  -17.5998   35.4611 C   0  0  0  0  0  0  0  0  0  0  0  0
   33.7245  -17.6880   34.4435 N   0  0  0  0  0  0  0  0  0  0  0  0
   32.9050  -18.7319   34.3447 C   0  0  0  0  0  0  0  0  0  0  0  0
   32.9349  -19.7445   35.2733 C   0  0  0  0  0  0  0  0  0  0  0  0
   33.8300  -19.6767   36.3256 C   0  0  0  0  0  0  0  0  0  0  0  0
   33.8750  -20.6825   37.2703 C   0  0  0  0  0  0  0  0  0  0  0  0
   35.5081  -16.5080   35.5471 N   0  0  0  0  0  0  0  0  0  0  0  0
   36.5278  -16.5776   35.2557 H   0  0  0  0  0  0  0  0  0  0  0  0
   35.0767  -15.2399   36.0377 C   0  0  0  0  0  0  0  0  0  0  0  0
   33.7760  -14.8461   36.2040 C   0  0  0  0  0  0  0  0  0  0  0  0
   33.5208  -13.5519   36.6620 C   0  0  0  0  0  0  0  0  0  0  0  0
   34.5276  -12.6604   36.9525 C   0  0  0  0  0  0  0  0  0  0  0  0
   34.3139  -11.4018   37.3971 F   0  0  0  0  0  0  0  0  0  0  0  0
   35.8274  -13.0785   36.7789 C   0  0  0  0  0  0  0  0  0  0  0  0
   36.1148  -14.3339   36.3333 C   0  0  0  0  0  0  0  0  0  0  0  0
   34.8437  -21.6065   39.2942 O   0  0  0  0  0  0  0  0  0  0  0  0
   33.6964  -22.0486   40.0017 C   0  0  0  0  0  0  0  0  0  0  0  0
   33.2746  -20.1736   41.6390 O   0  0  0  0  0  0  0  0  0  0  0  0
   33.7452  -21.4475   41.3527 C   0  0  0  0  0  0  0  0  0  0  0  0
   34.2318  -22.0985   42.3113 O   0  0  0  0  0  0  0  0  0  0  0  0
   32.3402  -19.9536   41.2951 H   0  0  0  0  0  0  0  0  0  0  0  0
 22 23  1  0  0  0
 23 24  2  0  0  0
 23 21  1  0  0  0
 21 20  1  0  0  0
 20  1  1  0  0  0
  1  2  2  0  0  0
  2  3  1  0  0  0
  3  4  2  0  0  0
  4  5  1  0  0  0
  5 11  1  0  0  0
 11 13  1  0  0  0
 13 14  2  0  0  0
 14 15  1  0  0  0
 15 16  2  0  0  0
 16 17  1  0  0  0
 16 18  1  0  0  0
 18 19  2  0  0  0
  5  6  2  0  0  0
  6  7  1  0  0  0
  7  8  2  0  0  0
  8  9  1  0  0  0
  9 10  2  0  0  0
 10  1  1  0  0  0
  9  4  1  0  0  0
 19 13  1  0  0  0
 22 25  1  0  0  0
 11 12  1  0  0  0
M  END
> <minimizedAffinity>
-6.34868

> <CNNscore>
0.4298109114

> <CNNaffinity>
4.4616737366

> <CNN_VS>
1.9176760912

> <CNNaffinity_variance>
0.4746167660

$$$$
[H]OC(=O)C([H])([H])Oc1c([H])c([H])c2c(N([H])c3c([H])c([H])c(F)c([H])c3[H])nc([H])c([H])c2c1[H]


 25 27  0  0  0  0  0  0  0  0999 V2000
   32.6922  -19.1074   34.3202 C   0  0  0  0  0  0  0  0  0  0  0  0
   33.8206  -19.6908   33.7881 C   0  0  0  0  0  0  0  0  0  0  0  0
   35.0513  -19.0957   33.9847 C   0  0  0  0  0  0  0  0  0  0  0  0
   35.1438  -17.9274   34.7083 C   0  0  0  0  0  0  0  0  0  0  0  0
   36.3663  -17.2741   34.9449 C   0  0  0  0  0  0  0  0  0  0  0  0
   36.4299  -16.1311   35.6595 N   0  0  0  0  0  0  0  0  0  0  0  0
   35.3266  -15.5848   36.1648 C   0  0  0  0  0  0  0  0  0  0  0  0
   34.0972  -16.1682   35.9732 C   0  0  0  0  0  0  0  0  0  0  0  0
   34.0063  -17.3402   35.2443 C   0  0  0  0  0  0  0  0  0  0  0  0
   32.7811  -17.9435   35.0417 C   0  0  0  0  0  0  0  0  0  0  0  0
   37.5353  -17.8373   34.3717 N   0  0  0  0  0  0  0  0  0  0  0  0
   37.9844  -17.4574   33.4865 H   0  0  0  0  0  0  0  0  0  0  0  0
   38.1751  -18.9623   34.9715 C   0  0  0  0  0  0  0  0  0  0  0  0
   38.5376  -20.1148   34.3273 C   0  0  0  0  0  0  0  0  0  0  0  0
   39.1244  -21.1416   35.0697 C   0  0  0  0  0  0  0  0  0  0  0  0
   39.3519  -21.0365   36.4225 C   0  0  0  0  0  0  0  0  0  0  0  0
   39.9173  -22.0113   37.1691 F   0  0  0  0  0  0  0  0  0  0  0  0
   38.9803  -19.8685   37.0488 C   0  0  0  0  0  0  0  0  0  0  0  0
   38.4046  -18.8452   36.3569 C   0  0  0  0  0  0  0  0  0  0  0  0
   31.4752  -19.7534   34.0893 O   0  0  0  0  0  0  0  0  0  0  0  0
   30.2972  -19.3927   34.7925 C   0  0  0  0  0  0  0  0  0  0  0  0
   30.6905  -20.8859   36.7900 O   0  0  0  0  0  0  0  0  0  0  0  0
   29.9420  -20.5227   35.6791 C   0  0  0  0  0  0  0  0  0  0  0  0
   28.9160  -21.2080   35.4406 O   0  0  0  0  0  0  0  0  0  0  0  0
   30.9418  -20.1305   37.4271 H   0  0  0  0  0  0  0  0  0  0  0  0
 22 23  1  0  0  0
 23 24  2  0  0  0
 23 21  1  0  0  0
 21 20  1  0  0  0
 20  1  1  0  0  0
  1  2  2  0  0  0
  2  3  1  0  0  0
  3  4  2  0  0  0
  4  5  1  0  0  0
  5 11  1  0  0  0
 11 13  1  0  0  0
 13 14  2  0  0  0
 14 15  1  0  0  0
 15 16  2  0  0  0
 16 17  1  0  0  0
 16 18  1  0  0  0
 18 19  2  0  0  0
  5  6  2  0  0  0
  6  7  1  0  0  0
  7  8  2  0  0  0
  8  9  1  0  0  0
  9 10  2  0  0  0
 10  1  1  0  0  0
  9  4  1  0  0  0
 19 13  1  0  0  0
 22 25  1  0  0  0
 11 12  1  0  0  0
M  END
> <minimizedAffinity>
-6.20235

> <CNNscore>
0.4180058837

> <CNNaffinity>
4.4245958328

> <CNN_VS>
1.8495070934

> <CNNaffinity_variance>
0.5406532288

$$$$
[H]OC(=O)C([H])([H])Oc1c([H])c([H])c2c(N([H])c3c([H])c([H])c(F)c([H])c3[H])nc([H])c([H])c2c1[H]


 25 27  0  0  0  0  0  0  0  0999 V2000
   32.7104  -18.9351   34.4138 C   0  0  0  0  0  0  0  0  0  0  0  0
   33.8229  -19.6390   34.0094 C   0  0  0  0  0  0  0  0  0  0  0  0
   35.0809  -19.1460   34.2956 C   0  0  0  0  0  0  0  0  0  0  0  0
   35.2162  -17.9587   34.9804 C   0  0  0  0  0  0  0  0  0  0  0  0
   36.4679  -17.4053   35.3034 C   0  0  0  0  0  0  0  0  0  0  0  0
   36.5729  -16.2411   35.9776 N   0  0  0  0  0  0  0  0  0  0  0  0
   35.4842  -15.5775   36.3590 C   0  0  0  0  0  0  0  0  0  0  0  0
   34.2281  -16.0587   36.0775 C   0  0  0  0  0  0  0  0  0  0  0  0
   34.0945  -17.2501   35.3877 C   0  0  0  0  0  0  0  0  0  0  0  0
   32.8418  -17.7520   35.0964 C   0  0  0  0  0  0  0  0  0  0  0  0
   37.6262  -18.0946   34.8610 N   0  0  0  0  0  0  0  0  0  0  0  0
   37.9503  -18.0878   33.8489 H   0  0  0  0  0  0  0  0  0  0  0  0
   38.4259  -18.8427   35.7751 C   0  0  0  0  0  0  0  0  0  0  0  0
   39.7846  -18.9980   35.7086 C   0  0  0  0  0  0  0  0  0  0  0  0
   40.4156  -19.7966   36.6647 C   0  0  0  0  0  0  0  0  0  0  0  0
   39.7224  -20.4308   37.6697 C   0  0  0  0  0  0  0  0  0  0  0  0
   40.3030  -21.2099   38.6095 F   0  0  0  0  0  0  0  0  0  0  0  0
   38.3575  -20.2595   37.7175 C   0  0  0  0  0  0  0  0  0  0  0  0
   37.7073  -19.4879   36.8013 C   0  0  0  0  0  0  0  0  0  0  0  0
   31.4643  -19.4816   34.0967 O   0  0  0  0  0  0  0  0  0  0  0  0
   30.4198  -19.5548   35.0537 C   0  0  0  0  0  0  0  0  0  0  0  0
   31.1874  -21.9545   35.2159 O   0  0  0  0  0  0  0  0  0  0  0  0
   30.5508  -20.8480   35.7605 C   0  0  0  0  0  0  0  0  0  0  0  0
   30.0716  -20.9831   36.9144 O   0  0  0  0  0  0  0  0  0  0  0  0
   32.1100  -21.7880   34.8147 H   0  0  0  0  0  0  0  0  0  0  0  0
 22 23  1  0  0  0
 23 24  2  0  0  0
 23 21  1  0  0  0
 21 20  1  0  0  0
 20  1  1  0  0  0
  1  2  2  0  0  0
  2  3  1  0  0  0
  3  4  2  0  0  0
  4  5  1  0  0  0
  5 11  1  0  0  0
 11 13  1  0  0  0
 13 14  2  0  0  0
 14 15  1  0  0  0
 15 16  2  0  0  0
 16 17  1  0  0  0
 16 18  1  0  0  0
 18 19  2  0  0  0
  5  6  2  0  0  0
  6  7  1  0  0  0
  7  8  2  0  0  0
  8  9  1  0  0  0
  9 10  2  0  0  0
 10  1  1  0  0  0
  9  4  1  0  0  0
 19 13  1  0  0  0
 22 25  1  0  0  0
 11 12  1  0  0  0
M  END
> <minimizedAffinity>
-5.86239

> <CNNscore>
0.4130152762

> <CNNaffinity>
4.3707175255

> <CNN_VS>
1.8051731586

> <CNNaffinity_variance>
0.5060015917

$$$$
[H]OC(=O)C([H])([H])Oc1c([H])c([H])c2c(N([H])c3c([H])c([H])c(F)c([H])c3[H])nc([H])c([H])c2c1[H]


 25 27  0  0  0  0  0  0  0  0999 V2000
   34.4273  -13.7872   37.3649 C   0  0  0  0  0  0  0  0  0  0  0  0
   33.5188  -14.1752   36.4054 C   0  0  0  0  0  0  0  0  0  0  0  0
   33.7209  -15.3537   35.7142 C   0  0  0  0  0  0  0  0  0  0  0  0
   34.8245  -16.1314   35.9865 C   0  0  0  0  0  0  0  0  0  0  0  0
   35.0855  -17.3415   35.3195 C   0  0  0  0  0  0  0  0  0  0  0  0
   36.1735  -18.0863   35.6069 N   0  0  0  0  0  0  0  0  0  0  0  0
   37.0384  -17.6923   36.5384 C   0  0  0  0  0  0  0  0  0  0  0  0
   36.8473  -16.5205   37.2303 C   0  0  0  0  0  0  0  0  0  0  0  0
   35.7394  -15.7398   36.9538 C   0  0  0  0  0  0  0  0  0  0  0  0
   35.5277  -14.5599   37.6386 C   0  0  0  0  0  0  0  0  0  0  0  0
   34.1831  -17.7389   34.2996 N   0  0  0  0  0  0  0  0  0  0  0  0
   34.0869  -17.2170   33.3789 H   0  0  0  0  0  0  0  0  0  0  0  0
   33.3472  -18.8825   34.4675 C   0  0  0  0  0  0  0  0  0  0  0  0
   33.4779  -20.0739   33.8055 C   0  0  0  0  0  0  0  0  0  0  0  0
   32.5503  -21.0865   34.0583 C   0  0  0  0  0  0  0  0  0  0  0  0
   31.5123  -20.9307   34.9477 C   0  0  0  0  0  0  0  0  0  0  0  0
   30.5985  -21.8905   35.2144 F   0  0  0  0  0  0  0  0  0  0  0  0
   31.4011  -19.7250   35.6024 C   0  0  0  0  0  0  0  0  0  0  0  0
   32.2874  -18.7137   35.3809 C   0  0  0  0  0  0  0  0  0  0  0  0
   34.1717  -12.5864   38.0317 O   0  0  0  0  0  0  0  0  0  0  0  0
   33.2296  -11.6480   37.5375 C   0  0  0  0  0  0  0  0  0  0  0  0
   31.6797  -12.5085   39.3352 O   0  0  0  0  0  0  0  0  0  0  0  0
   31.8973  -12.0417   38.0464 C   0  0  0  0  0  0  0  0  0  0  0  0
   30.8913  -11.9608   37.2975 O   0  0  0  0  0  0  0  0  0  0  0  0
   32.0865  -11.9529   40.0873 H   0  0  0  0  0  0  0  0  0  0  0  0
 22 23  1  0  0  0
 23 24  2  0  0  0
 23 21  1  0  0  0
 21 20  1  0  0  0
 20  1  1  0  0  0
  1  2  2  0  0  0
  2  3  1  0  0  0
  3  4  2  0  0  0
  4  5  1  0  0  0
  5 11  1  0  0  0
 11 13  1  0  0  0
 13 14  2  0  0  0
 14 15  1  0  0  0
 15 16  2  0  0  0
 16 17  1  0  0  0
 16 18  1  0  0  0
 18 19  2  0  0  0
  5  6  2  0  0  0
  6  7  1  0  0  0
  7  8  2  0  0  0
  8  9  1  0  0  0
  9 10  2  0  0  0
 10  1  1  0  0  0
  9  4  1  0  0  0
 19 13  1  0  0  0
 22 25  1  0  0  0
 11 12  1  0  0  0
M  END
> <minimizedAffinity>
-7.35797

> <CNNscore>
0.3449515700

> <CNNaffinity>
4.8408803940

> <CNN_VS>
1.6698693037

> <CNNaffinity_variance>
0.2408353984

$$$$
[H]c1nc([H])c(C2([H])C([H])([H])C3([H])N(C([H])([H])[H])C([H])(C([H])([H])C3([H])[H])C2([H])[H])c([H])c1[H]


 15 17  0  0  0  0  0  0  0  0999 V2000
   32.8022  -20.2662   36.3718 C   0  0  0  0  0  0  0  0  0  0  0  0
   33.5810  -19.0566   36.3447 N   0  0  0  0  0  0  0  0  0  0  0  0
   34.9526  -19.2624   35.9841 C   0  0  0  0  0  0  0  0  0  0  0  0
   34.9854  -19.3155   34.4660 C   0  0  0  0  0  0  0  0  0  0  0  0
   33.7235  -18.6446   34.0258 C   0  0  0  0  0  0  0  0  0  0  0  0
   33.1394  -18.1259   35.3218 C   0  0  0  0  0  0  0  0  0  0  0  0
   33.7239  -16.7670   35.5833 C   0  0  0  0  0  0  0  0  0  0  0  0
   35.2281  -16.7908   35.6887 C   0  0  0  0  0  0  0  0  0  0  0  0
   35.7279  -18.0320   36.4010 C   0  0  0  0  0  0  0  0  0  0  0  0
   35.7848  -15.5672   36.2863 C   0  0  0  0  0  0  0  0  0  0  0  0
   36.8146  -15.6451   37.2027 C   0  0  0  0  0  0  0  0  0  0  0  0
   37.3648  -14.5047   37.7876 C   0  0  0  0  0  0  0  0  0  0  0  0
   36.8630  -13.2662   37.4381 C   0  0  0  0  0  0  0  0  0  0  0  0
   35.8613  -13.2049   36.5455 N   0  0  0  0  0  0  0  0  0  0  0  0
   35.3381  -14.3024   35.9882 C   0  0  0  0  0  0  0  0  0  0  0  0
  1  2  1  0  0  0
  2  3  1  0  0  0
  3  4  1  0  0  0
  4  5  1  0  0  0
  5  6  1  0  0  0
  6  7  1  0  0  0
  7  8  1  0  0  0
  8  9  1  0  0  0
  8 10  1  0  0  0
 10 11  2  0  0  0
 11 12  1  0  0  0
 12 13  2  0  0  0
 13 14  1  0  0  0
 14 15  2  0  0  0
  6  2  1  0  0  0
 15 10  1  0  0  0
  9  3  1  0  0  0
M  END
> <minimizedAffinity>
-5.59095

> <CNNscore>
0.8616197109

> <CNNaffinity>
4.4080352783

> <CNN_VS>
3.7980501652

> <CNNaffinity_variance>
0.5025345683

$$$$
[H]c1nc([H])c(C2([H])C([H])([H])C3([H])N(C([H])([H])[H])C([H])(C([H])([H])C3([H])[H])C2([H])[H])c([H])c1[H]


 15 17  0  0  0  0  0  0  0  0999 V2000
   30.0018  -19.1411   34.7442 C   0  0  0  0  0  0  0  0  0  0  0  0
   31.0003  -19.6657   35.6376 N   0  0  0  0  0  0  0  0  0  0  0  0
   31.0656  -21.0972   35.6517 C   0  0  0  0  0  0  0  0  0  0  0  0
   31.9251  -21.4914   34.4624 C   0  0  0  0  0  0  0  0  0  0  0  0
   32.7109  -20.2642   34.1264 C   0  0  0  0  0  0  0  0  0  0  0  0
   32.3512  -19.3087   35.2435 C   0  0  0  0  0  0  0  0  0  0  0  0
   33.2961  -19.5531   36.3855 C   0  0  0  0  0  0  0  0  0  0  0  0
   33.2326  -20.9690   36.9008 C   0  0  0  0  0  0  0  0  0  0  0  0
   31.8172  -21.5115   36.8977 C   0  0  0  0  0  0  0  0  0  0  0  0
   33.8686  -21.1338   38.2170 C   0  0  0  0  0  0  0  0  0  0  0  0
   34.9524  -20.3546   38.5701 C   0  0  0  0  0  0  0  0  0  0  0  0
   35.5782  -20.4857   39.8097 C   0  0  0  0  0  0  0  0  0  0  0  0
   35.0978  -21.4212   40.7050 C   0  0  0  0  0  0  0  0  0  0  0  0
   34.0430  -22.1726   40.3487 N   0  0  0  0  0  0  0  0  0  0  0  0
   33.4474  -22.0418   39.1584 C   0  0  0  0  0  0  0  0  0  0  0  0
  1  2  1  0  0  0
  2  3  1  0  0  0
  3  4  1  0  0  0
  4  5  1  0  0  0
  5  6  1  0  0  0
  6  7  1  0  0  0
  7  8  1  0  0  0
  8  9  1  0  0  0
  8 10  1  0  0  0
 10 11  2  0  0  0
 11 12  1  0  0  0
 12 13  2  0  0  0
 13 14  1  0  0  0
 14 15  2  0  0  0
  6  2  1  0  0  0
 15 10  1  0  0  0
  9  3  1  0  0  0
M  END
> <minimizedAffinity>
-3.90761

> <CNNscore>
0.7935681343

> <CNNaffinity>
3.7106750011

> <CNN_VS>
2.9446735382

> <CNNaffinity_variance>
0.4558674693

$$$$
[H]c1nc([H])c(C2([H])C([H])([H])C3([H])N(C([H])([H])[H])C([H])(C([H])([H])C3([H])[H])C2([H])[H])c([H])c1[H]


 15 17  0  0  0  0  0  0  0  0999 V2000
   32.1999  -22.1038   34.0943 C   0  0  0  0  0  0  0  0  0  0  0  0
   32.7103  -20.8164   34.4848 N   0  0  0  0  0  0  0  0  0  0  0  0
   32.0619  -19.7175   33.8325 C   0  0  0  0  0  0  0  0  0  0  0  0
   30.7906  -19.4506   34.6206 C   0  0  0  0  0  0  0  0  0  0  0  0
   31.0250  -20.0736   35.9598 C   0  0  0  0  0  0  0  0  0  0  0  0
   32.4699  -20.5170   35.8849 C   0  0  0  0  0  0  0  0  0  0  0  0
   33.3320  -19.3641   36.3143 C   0  0  0  0  0  0  0  0  0  0  0  0
   33.1405  -18.1414   35.4526 C   0  0  0  0  0  0  0  0  0  0  0  0
   32.9459  -18.5003   33.9928 C   0  0  0  0  0  0  0  0  0  0  0  0
   34.2063  -17.1418   35.6231 C   0  0  0  0  0  0  0  0  0  0  0  0
   33.8915  -15.8315   35.9236 C   0  0  0  0  0  0  0  0  0  0  0  0
   34.8776  -14.8595   36.0916 C   0  0  0  0  0  0  0  0  0  0  0  0
   36.2032  -15.2216   35.9528 C   0  0  0  0  0  0  0  0  0  0  0  0
   36.4953  -16.4995   35.6604 N   0  0  0  0  0  0  0  0  0  0  0  0
   35.5448  -17.4269   35.5005 C   0  0  0  0  0  0  0  0  0  0  0  0
  1  2  1  0  0  0
  2  3  1  0  0  0
  3  4  1  0  0  0
  4  5  1  0  0  0
  5  6  1  0  0  0
  6  7  1  0  0  0
  7  8  1  0  0  0
  8  9  1  0  0  0
  8 10  1  0  0  0
 10 11  2  0  0  0
 11 12  1  0  0  0
 12 13  2  0  0  0
 13 14  1  0  0  0
 14 15  2  0  0  0
  6  2  1  0  0  0
 15 10  1  0  0  0
  9  3  1  0  0  0
M  END
> <minimizedAffinity>
-5.05521

> <CNNscore>
0.7845861316

> <CNNaffinity>
4.2227387428

> <CNN_VS>
3.3131022453

> <CNNaffinity_variance>
0.3478647768

$$$$
[H]c1nc([H])c(C2([H])C([H])([H])C3([H])N(C([H])([H])[H])C([H])(C([H])([H])C3([H])[H])C2([H])[H])c([H])c1[H]


 15 17  0  0  0  0  0  0  0  0999 V2000
   31.8718  -22.6418   34.3994 C   0  0  0  0  0  0  0  0  0  0  0  0
   32.5414  -21.4330   34.8006 N   0  0  0  0  0  0  0  0  0  0  0  0
   32.3121  -20.3274   33.9182 C   0  0  0  0  0  0  0  0  0  0  0  0
   30.9804  -19.7257   34.3342 C   0  0  0  0  0  0  0  0  0  0  0  0
   30.7597  -20.2002   35.7351 C   0  0  0  0  0  0  0  0  0  0  0  0
   32.0534  -20.9126   36.0650 C   0  0  0  0  0  0  0  0  0  0  0  0
   33.0190  -19.8956   36.6036 C   0  0  0  0  0  0  0  0  0  0  0  0
   33.2983  -18.7827   35.6251 C   0  0  0  0  0  0  0  0  0  0  0  0
   33.3746  -19.2872   34.1978 C   0  0  0  0  0  0  0  0  0  0  0  0
   34.4843  -17.9871   35.9782 C   0  0  0  0  0  0  0  0  0  0  0  0
   35.5287  -18.5634   36.6735 C   0  0  0  0  0  0  0  0  0  0  0  0
   36.6669  -17.8373   37.0236 C   0  0  0  0  0  0  0  0  0  0  0  0
   36.7475  -16.5065   36.6632 C   0  0  0  0  0  0  0  0  0  0  0  0
   35.7244  -15.9584   35.9871 N   0  0  0  0  0  0  0  0  0  0  0  0
   34.6356  -16.6604   35.6544 C   0  0  0  0  0  0  0  0  0  0  0  0
  1  2  1  0  0  0
  2  3  1  0  0  0
  3  4  1  0  0  0
  4  5  1  0  0  0
  5  6  1  0  0  0
  6  7  1  0  0  0
  7  8  1  0  0  0
  8  9  1  0  0  0
  8 10  1  0  0  0
 10 11  2  0  0  0
 11 12  1  0  0  0
 12 13  2  0  0  0
 13 14  1  0  0  0
 14 15  2  0  0  0
  6  2  1  0  0  0
 15 10  1  0  0  0
  9  3  1  0  0  0
M  END
> <minimizedAffinity>
-4.62216

> <CNNscore>
0.7836450934

> <CNNaffinity>
4.0983195305

> <CNN_VS>
3.2116279602

> <CNNaffinity_variance>
0.3512114882

$$$$
[H]c1nc([H])c(C2([H])C([H])([H])C3([H])N(C([H])([H])[H])C([H])(C([H])([H])C3([H])[H])C2([H])[H])c([H])c1[H]


 15 17  0  0  0  0  0  0  0  0999 V2000
   30.0826  -20.4214   35.6384 C   0  0  0  0  0  0  0  0  0  0  0  0
   31.3117  -19.6782   35.7239 N   0  0  0  0  0  0  0  0  0  0  0  0
   32.4352  -20.4680   36.1334 C   0  0  0  0  0  0  0  0  0  0  0  0
   32.9428  -21.1601   34.8796 C   0  0  0  0  0  0  0  0  0  0  0  0
   32.4033  -20.3515   33.7432 C   0  0  0  0  0  0  0  0  0  0  0  0
   31.7545  -19.1733   34.4368 C   0  0  0  0  0  0  0  0  0  0  0  0
   32.8042  -18.1175   34.6379 C   0  0  0  0  0  0  0  0  0  0  0  0
   33.9679  -18.6036   35.4646 C   0  0  0  0  0  0  0  0  0  0  0  0
   33.5234  -19.5201   36.5873 C   0  0  0  0  0  0  0  0  0  0  0  0
   34.8164  -17.5116   35.9662 C   0  0  0  0  0  0  0  0  0  0  0  0
   36.0202  -17.7907   36.5823 C   0  0  0  0  0  0  0  0  0  0  0  0
   36.8479  -16.7790   37.0687 C   0  0  0  0  0  0  0  0  0  0  0  0
   36.4492  -15.4641   36.9284 C   0  0  0  0  0  0  0  0  0  0  0  0
   35.2760  -15.2068   36.3271 N   0  0  0  0  0  0  0  0  0  0  0  0
   34.4868  -16.1817   35.8628 C   0  0  0  0  0  0  0  0  0  0  0  0
  1  2  1  0  0  0
  2  3  1  0  0  0
  3  4  1  0  0  0
  4  5  1  0  0  0
  5  6  1  0  0  0
  6  7  1  0  0  0
  7  8  1  0  0  0
  8  9  1  0  0  0
  8 10  1  0  0  0
 10 11  2  0  0  0
 11 12  1  0  0  0
 12 13  2  0  0  0
 13 14  1  0  0  0
 14 15  2  0  0  0
  6  2  1  0  0  0
 15 10  1  0  0  0
  9  3  1  0  0  0
M  END
> <minimizedAffinity>
-5.06056

> <CNNscore>
0.7565765381

> <CNNaffinity>
4.1330461502

> <CNN_VS>
3.1269657612

> <CNNaffinity_variance>
0.4691018462

$$$$
[H]c1nc([H])c(C2([H])C([H])([H])C3([H])N(C([H])([H])[H])C([H])(C([H])([H])C3([H])[H])C2([H])[H])c([H])c1[H]


 15 17  0  0  0  0  0  0  0  0999 V2000
   38.2213  -19.1765   34.5784 C   0  0  0  0  0  0  0  0  0  0  0  0
   36.8141  -19.2060   34.8773 N   0  0  0  0  0  0  0  0  0  0  0  0
   36.5205  -19.1191   36.2773 C   0  0  0  0  0  0  0  0  0  0  0  0
   36.5617  -17.6407   36.6252 C   0  0  0  0  0  0  0  0  0  0  0  0
   36.3832  -16.9291   35.3221 C   0  0  0  0  0  0  0  0  0  0  0  0
   36.1029  -18.0551   34.3507 C   0  0  0  0  0  0  0  0  0  0  0  0
   34.6244  -18.3211   34.3627 C   0  0  0  0  0  0  0  0  0  0  0  0
   34.1126  -18.7024   35.7290 C   0  0  0  0  0  0  0  0  0  0  0  0
   35.0942  -19.5817   36.4781 C   0  0  0  0  0  0  0  0  0  0  0  0
   32.7698  -19.3025   35.6963 C   0  0  0  0  0  0  0  0  0  0  0  0
   31.7933  -18.7815   34.8708 C   0  0  0  0  0  0  0  0  0  0  0  0
   30.5107  -19.3266   34.8160 C   0  0  0  0  0  0  0  0  0  0  0  0
   30.2135  -20.4167   35.6103 C   0  0  0  0  0  0  0  0  0  0  0  0
   31.1727  -20.9135   36.4086 N   0  0  0  0  0  0  0  0  0  0  0  0
   32.4008  -20.3860   36.4564 C   0  0  0  0  0  0  0  0  0  0  0  0
  1  2  1  0  0  0
  2  3  1  0  0  0
  3  4  1  0  0  0
  4  5  1  0  0  0
  5  6  1  0  0  0
  6  7  1  0  0  0
  7  8  1  0  0  0
  8  9  1  0  0  0
  8 10  1  0  0  0
 10 11  2  0  0  0
 11 12  1  0  0  0
 12 13  2  0  0  0
 13 14  1  0  0  0
 14 15  2  0  0  0
  6  2  1  0  0  0
 15 10  1  0  0  0
  9  3  1  0  0  0
M  END
> <minimizedAffinity>
-4.85397

> <CNNscore>
0.7473746538

> <CNNaffinity>
4.0667157173

> <CNN_VS>
3.0393602848

> <CNNaffinity_variance>
0.5703155398

$$$$
[H]c1nc([H])c(C2([H])C([H])([H])C3([H])N(C([H])([H])[H])C([H])(C([H])([H])C3([H])[H])C2([H])[H])c([H])c1[H]


 15 17  0  0  0  0  0  0  0  0999 V2000
   34.8184  -18.8837   34.3595 C   0  0  0  0  0  0  0  0  0  0  0  0
   33.9340  -19.9068   34.8510 N   0  0  0  0  0  0  0  0  0  0  0  0
   33.1729  -19.5080   35.9979 C   0  0  0  0  0  0  0  0  0  0  0  0
   31.9790  -18.7352   35.4632 C   0  0  0  0  0  0  0  0  0  0  0  0
   31.8516  -19.1560   34.0339 C   0  0  0  0  0  0  0  0  0  0  0  0
   32.8890  -20.2500   33.9034 C   0  0  0  0  0  0  0  0  0  0  0  0
   32.2470  -21.5484   34.3017 C   0  0  0  0  0  0  0  0  0  0  0  0
   31.7194  -21.5277   35.7142 C   0  0  0  0  0  0  0  0  0  0  0  0
   32.6327  -20.7615   36.6505 C   0  0  0  0  0  0  0  0  0  0  0  0
   31.4159  -22.8688   36.2373 C   0  0  0  0  0  0  0  0  0  0  0  0
   31.4096  -23.9614   35.3932 C   0  0  0  0  0  0  0  0  0  0  0  0
   31.1260  -25.2458   35.8570 C   0  0  0  0  0  0  0  0  0  0  0  0
   30.8445  -25.4253   37.1972 C   0  0  0  0  0  0  0  0  0  0  0  0
   30.8541  -24.3539   38.0071 N   0  0  0  0  0  0  0  0  0  0  0  0
   31.1268  -23.1247   37.5560 C   0  0  0  0  0  0  0  0  0  0  0  0
  1  2  1  0  0  0
  2  3  1  0  0  0
  3  4  1  0  0  0
  4  5  1  0  0  0
  5  6  1  0  0  0
  6  7  1  0  0  0
  7  8  1  0  0  0
  8  9  1  0  0  0
  8 10  1  0  0  0
 10 11  2  0  0  0
 11 12  1  0  0  0
 12 13  2  0  0  0
 13 14  1  0  0  0
 14 15  2  0  0  0
  6  2  1  0  0  0
 15 10  1  0  0  0
  9  3  1  0  0  0
M  END
> <minimizedAffinity>
-3.55402

> <CNNscore>
0.6999422908

> <CNNaffinity>
3.7032935619

> <CNN_VS>
2.5920917988

> <CNNaffinity_variance>
0.4007283151

$$$$
[H]c1nc([H])c(C2([H])C([H])([H])C3([H])N(C([H])([H])[H])C([H])(C([H])([H])C3([H])[H])C2([H])[H])c([H])c1[H]


 15 17  0  0  0  0  0  0  0  0999 V2000
   27.5500  -25.6030   37.3080 C   0  0  0  0  0  0  0  0  0  0  0  0
   28.3125  -24.4728   36.8477 N   0  0  0  0  0  0  0  0  0  0  0  0
   27.5050  -23.3717   36.4129 C   0  0  0  0  0  0  0  0  0  0  0  0
   27.1284  -22.6039   37.6687 C   0  0  0  0  0  0  0  0  0  0  0  0
   28.1403  -23.0109   38.6918 C   0  0  0  0  0  0  0  0  0  0  0  0
   29.1068  -23.8641   37.8994 C   0  0  0  0  0  0  0  0  0  0  0  0
   30.1404  -22.9561   37.2959 C   0  0  0  0  0  0  0  0  0  0  0  0
   29.5394  -21.9111   36.3898 C   0  0  0  0  0  0  0  0  0  0  0  0
   28.3799  -22.4592   35.5817 C   0  0  0  0  0  0  0  0  0  0  0  0
   30.5332  -21.2542   35.5267 C   0  0  0  0  0  0  0  0  0  0  0  0
   30.4051  -19.9167   35.2090 C   0  0  0  0  0  0  0  0  0  0  0  0
   31.3295  -19.2639   34.3937 C   0  0  0  0  0  0  0  0  0  0  0  0
   32.4002  -19.9782   33.8928 C   0  0  0  0  0  0  0  0  0  0  0  0
   32.5127  -21.2786   34.2097 N   0  0  0  0  0  0  0  0  0  0  0  0
   31.6227  -21.8986   34.9922 C   0  0  0  0  0  0  0  0  0  0  0  0
  1  2  1  0  0  0
  2  3  1  0  0  0
  3  4  1  0  0  0
  4  5  1  0  0  0
  5  6  1  0  0  0
  6  7  1  0  0  0
  7  8  1  0  0  0
  8  9  1  0  0  0
  8 10  1  0  0  0
 10 11  2  0  0  0
 11 12  1  0  0  0
 12 13  2  0  0  0
 13 14  1  0  0  0
 14 15  2  0  0  0
  6  2  1  0  0  0
 15 10  1  0  0  0
  9  3  1  0  0  0
M  END
> <minimizedAffinity>
-3.71558

> <CNNscore>
0.6945689321

> <CNNaffinity>
3.5490632057

> <CNN_VS>
2.4650690556

> <CNNaffinity_variance>
0.3857907355

$$$$
[H]c1nc([H])c(C2([H])C([H])([H])C3([H])N(C([H])([H])[H])C([H])(C([H])([H])C3([H])[H])C2([H])[H])c([H])c1[H]


 15 17  0  0  0  0  0  0  0  0999 V2000
   36.0202  -18.8577   34.6201 C   0  0  0  0  0  0  0  0  0  0  0  0
   34.7089  -19.4173   34.8145 N   0  0  0  0  0  0  0  0  0  0  0  0
   34.0623  -18.9676   36.0117 C   0  0  0  0  0  0  0  0  0  0  0  0
   33.4372  -17.6247   35.6737 C   0  0  0  0  0  0  0  0  0  0  0  0
   33.3310  -17.6093   34.1821 C   0  0  0  0  0  0  0  0  0  0  0  0
   33.7642  -19.0057   33.7919 C   0  0  0  0  0  0  0  0  0  0  0  0
   32.5538  -19.8948   33.8294 C   0  0  0  0  0  0  0  0  0  0  0  0
   31.9040  -19.9363   35.1896 C   0  0  0  0  0  0  0  0  0  0  0  0
   32.9268  -19.9225   36.3083 C   0  0  0  0  0  0  0  0  0  0  0  0
   30.9549  -21.0498   35.3427 C   0  0  0  0  0  0  0  0  0  0  0  0
   29.6379  -20.8025   35.6754 C   0  0  0  0  0  0  0  0  0  0  0  0
   28.7129  -21.8352   35.8281 C   0  0  0  0  0  0  0  0  0  0  0  0
   29.1296  -23.1386   35.6406 C   0  0  0  0  0  0  0  0  0  0  0  0
   30.4134  -23.3649   35.3173 N   0  0  0  0  0  0  0  0  0  0  0  0
   31.2955  -22.3700   35.1724 C   0  0  0  0  0  0  0  0  0  0  0  0
  1  2  1  0  0  0
  2  3  1  0  0  0
  3  4  1  0  0  0
  4  5  1  0  0  0
  5  6  1  0  0  0
  6  7  1  0  0  0
  7  8  1  0  0  0
  8  9  1  0  0  0
  8 10  1  0  0  0
 10 11  2  0  0  0
 11 12  1  0  0  0
 12 13  2  0  0  0
 13 14  1  0  0  0
 14 15  2  0  0  0
  6  2  1  0  0  0
 15 10  1  0  0  0
  9  3  1  0  0  0
M  END
> <minimizedAffinity>
-4.51734

> <CNNscore>
0.6870511174

> <CNNaffinity>
3.9941928387

> <CNN_VS>
2.7442145348

> <CNNaffinity_variance>
0.5071448088

$$$$
[H]c1nc([H])n([H])c1C#Cc1c([H])c(C(=O)N([H])c2c([H])c([H])c(C([H])([H])N3C([H])([H])C([H])([H])N(C([H])([H])[H])C([H])([H])C3([H])[H])c(C(F)(F)F)c2[H])c([H])c([H])c1C([H])([H])[H]


 37 40  0  0  0  0  0  0  0  0999 V2000
   38.9811  -23.2170   36.7659 N   0  0  0  0  0  0  0  0  0  0  0  0
   38.5219  -23.8579   37.9276 C   0  0  0  0  0  0  0  0  0  0  0  0
   39.0597  -24.8109   38.5224 O   0  0  0  0  0  0  0  0  0  0  0  0
   38.4393  -22.4023   36.3476 H   0  0  0  0  0  0  0  0  0  0  0  0
   37.2560  -23.3500   38.5206 C   0  0  0  0  0  0  0  0  0  0  0  0
   37.0675  -23.4584   39.8835 C   0  0  0  0  0  0  0  0  0  0  0  0
   35.9226  -23.0190   40.5029 C   0  0  0  0  0  0  0  0  0  0  0  0
   34.9519  -22.4570   39.7041 C   0  0  0  0  0  0  0  0  0  0  0  0
   33.7126  -21.9804   40.3675 C   0  0  0  0  0  0  0  0  0  0  0  0
   35.0777  -22.3204   38.3452 C   0  0  0  0  0  0  0  0  0  0  0  0
   36.2581  -22.7817   37.7646 C   0  0  0  0  0  0  0  0  0  0  0  0
   34.0449  -21.7268   37.5249 C   0  0  0  0  0  0  0  0  0  0  0  0
   33.1725  -21.2273   36.8584 C   0  0  0  0  0  0  0  0  0  0  0  0
   32.1200  -20.6302   36.0859 C   0  0  0  0  0  0  0  0  0  0  0  0
   32.3348  -19.6746   35.1161 C   0  0  0  0  0  0  0  0  0  0  0  0
   31.1469  -19.3277   34.5862 N   0  0  0  0  0  0  0  0  0  0  0  0
   30.1847  -20.0435   35.2001 C   0  0  0  0  0  0  0  0  0  0  0  0
   30.7932  -20.8432   36.1224 N   0  0  0  0  0  0  0  0  0  0  0  0
   30.3471  -21.5251   36.7734 H   0  0  0  0  0  0  0  0  0  0  0  0
   42.4636  -24.5080   34.6279 C   0  0  0  0  0  0  0  0  0  0  0  0
   41.1929  -25.0127   34.3923 C   0  0  0  0  0  0  0  0  0  0  0  0
   40.0853  -24.5804   35.0855 C   0  0  0  0  0  0  0  0  0  0  0  0
   40.1637  -23.5934   36.0841 C   0  0  0  0  0  0  0  0  0  0  0  0
   41.4146  -23.1043   36.3081 C   0  0  0  0  0  0  0  0  0  0  0  0
   42.5570  -23.5409   35.6027 C   0  0  0  0  0  0  0  0  0  0  0  0
   43.8753  -22.9369   35.9460 C   0  0  0  0  0  0  0  0  0  0  0  0
   44.6011  -22.5612   34.8338 F   0  0  0  0  0  0  0  0  0  0  0  0
   43.7361  -21.8706   36.8484 F   0  0  0  0  0  0  0  0  0  0  0  0
   44.6061  -23.8857   36.6865 F   0  0  0  0  0  0  0  0  0  0  0  0
   43.6491  -24.9295   33.8810 C   0  0  0  0  0  0  0  0  0  0  0  0
   41.7718  -24.1201   29.1990 C   0  0  0  0  0  0  0  0  0  0  0  0
   41.5373  -24.5049   30.5752 N   0  0  0  0  0  0  0  0  0  0  0  0
   41.8691  -23.4681   31.4938 C   0  0  0  0  0  0  0  0  0  0  0  0
   43.2820  -23.4673   31.9756 C   0  0  0  0  0  0  0  0  0  0  0  0
   43.6131  -24.7461   32.4717 N   0  0  0  0  0  0  0  0  0  0  0  0
   43.2335  -25.8837   31.7334 C   0  0  0  0  0  0  0  0  0  0  0  0
   42.0435  -25.7991   30.8802 C   0  0  0  0  0  0  0  0  0  0  0  0
 31 32  1  0  0  0
 32 33  1  0  0  0
 33 34  1  0  0  0
 34 35  1  0  0  0
 35 30  1  0  0  0
 30 20  1  0  0  0
 20 21  2  0  0  0
 21 22  1  0  0  0
 22 23  2  0  0  0
 23  1  1  0  0  0
  1  2  1  0  0  0
  2  3  2  0  0  0
  2  5  1  0  0  0
  5  6  2  0  0  0
  6  7  1  0  0  0
  7  8  2  0  0  0
  8  9  1  0  0  0
  8 10  1  0  0  0
 10 11  2  0  0  0
 10 12  1  0  0  0
 12 13  3  0  0  0
 13 14  1  0  0  0
 14 15  2  0  0  0
 15 16  1  0  0  0
 16 17  2  0  0  0
 17 18  1  0  0  0
 23 24  1  0  0  0
 24 25  2  0  0  0
 25 26  1  0  0  0
 26 27  1  0  0  0
 26 28  1  0  0  0
 26 29  1  0  0  0
 35 36  1  0  0  0
 36 37  1  0  0  0
 37 32  1  0  0  0
 25 20  1  0  0  0
 11  5  1  0  0  0
 18 14  1  0  0  0
  1  4  1  0  0  0
 18 19  1  0  0  0
M  END
> <minimizedAffinity>
-2.82195

> <CNNscore>
0.5660792589

> <CNNaffinity>
5.5134334564

> <CNN_VS>
3.1210403442

> <CNNaffinity_variance>
0.3294686675

$$$$
[H]c1nc([H])n([H])c1C#Cc1c([H])c(C(=O)N([H])c2c([H])c([H])c(C([H])([H])N3C([H])([H])C([H])([H])N(C([H])([H])[H])C([H])([H])C3([H])[H])c(C(F)(F)F)c2[H])c([H])c([H])c1C([H])([H])[H]


 37 40  0  0  0  0  0  0  0  0999 V2000
   34.7527  -22.5170   37.1190 N   0  0  0  0  0  0  0  0  0  0  0  0
   33.5926  -23.0416   36.5272 C   0  0  0  0  0  0  0  0  0  0  0  0
   33.3640  -24.2341   36.2498 O   0  0  0  0  0  0  0  0  0  0  0  0
   34.8346  -21.4749   37.3177 H   0  0  0  0  0  0  0  0  0  0  0  0
   32.5126  -22.0755   36.1917 C   0  0  0  0  0  0  0  0  0  0  0  0
   31.1996  -22.4966   36.2501 C   0  0  0  0  0  0  0  0  0  0  0  0
   30.1485  -21.6650   35.9478 C   0  0  0  0  0  0  0  0  0  0  0  0
   30.4544  -20.3743   35.5780 C   0  0  0  0  0  0  0  0  0  0  0  0
   29.3231  -19.4711   35.2502 C   0  0  0  0  0  0  0  0  0  0  0  0
   31.7370  -19.8947   35.5004 C   0  0  0  0  0  0  0  0  0  0  0  0
   32.7682  -20.7777   35.8169 C   0  0  0  0  0  0  0  0  0  0  0  0
   32.0357  -18.5346   35.1093 C   0  0  0  0  0  0  0  0  0  0  0  0
   32.2684  -17.3936   34.7948 C   0  0  0  0  0  0  0  0  0  0  0  0
   32.5242  -16.0283   34.4323 C   0  0  0  0  0  0  0  0  0  0  0  0
   33.5228  -15.2644   34.9973 C   0  0  0  0  0  0  0  0  0  0  0  0
   33.4927  -14.0397   34.4391 N   0  0  0  0  0  0  0  0  0  0  0  0
   32.4963  -14.0123   33.5329 C   0  0  0  0  0  0  0  0  0  0  0  0
   31.9051  -15.2414   33.5353 N   0  0  0  0  0  0  0  0  0  0  0  0
   31.1017  -15.5675   32.9557 H   0  0  0  0  0  0  0  0  0  0  0  0
   38.0114  -25.0097   38.3574 C   0  0  0  0  0  0  0  0  0  0  0  0
   36.6895  -25.2564   38.6987 C   0  0  0  0  0  0  0  0  0  0  0  0
   35.6556  -24.4472   38.2858 C   0  0  0  0  0  0  0  0  0  0  0  0
   35.8670  -23.3100   37.4858 C   0  0  0  0  0  0  0  0  0  0  0  0
   37.1672  -23.0763   37.1560 C   0  0  0  0  0  0  0  0  0  0  0  0
   38.2348  -23.9000   37.5745 C   0  0  0  0  0  0  0  0  0  0  0  0
   39.6177  -23.5338   37.1574 C   0  0  0  0  0  0  0  0  0  0  0  0
   40.3923  -24.6310   36.8395 F   0  0  0  0  0  0  0  0  0  0  0  0
   39.6114  -22.5944   36.1142 F   0  0  0  0  0  0  0  0  0  0  0  0
   40.2163  -22.8264   38.2176 F   0  0  0  0  0  0  0  0  0  0  0  0
   39.1217  -25.8742   38.7581 C   0  0  0  0  0  0  0  0  0  0  0  0
   41.0591  -23.6252   42.9161 C   0  0  0  0  0  0  0  0  0  0  0  0
   40.8361  -23.5961   41.4856 N   0  0  0  0  0  0  0  0  0  0  0  0
   39.4517  -23.6007   41.1507 C   0  0  0  0  0  0  0  0  0  0  0  0
   38.8368  -24.9511   40.9874 C   0  0  0  0  0  0  0  0  0  0  0  0
   39.6066  -25.7152   40.0850 N   0  0  0  0  0  0  0  0  0  0  0  0
   41.0095  -25.7077   40.2085 C   0  0  0  0  0  0  0  0  0  0  0  0
   41.6552  -24.5215   40.7805 C   0  0  0  0  0  0  0  0  0  0  0  0
 31 32  1  0  0  0
 32 33  1  0  0  0
 33 34  1  0  0  0
 34 35  1  0  0  0
 35 30  1  0  0  0
 30 20  1  0  0  0
 20 21  2  0  0  0
 21 22  1  0  0  0
 22 23  2  0  0  0
 23  1  1  0  0  0
  1  2  1  0  0  0
  2  3  2  0  0  0
  2  5  1  0  0  0
  5  6  2  0  0  0
  6  7  1  0  0  0
  7  8  2  0  0  0
  8  9  1  0  0  0
  8 10  1  0  0  0
 10 11  2  0  0  0
 10 12  1  0  0  0
 12 13  3  0  0  0
 13 14  1  0  0  0
 14 15  2  0  0  0
 15 16  1  0  0  0
 16 17  2  0  0  0
 17 18  1  0  0  0
 23 24  1  0  0  0
 24 25  2  0  0  0
 25 26  1  0  0  0
 26 27  1  0  0  0
 26 28  1  0  0  0
 26 29  1  0  0  0
 35 36  1  0  0  0
 36 37  1  0  0  0
 37 32  1  0  0  0
 25 20  1  0  0  0
 11  5  1  0  0  0
 18 14  1  0  0  0
  1  4  1  0  0  0
 18 19  1  0  0  0
M  END
> <minimizedAffinity>
6.47605

> <CNNscore>
0.5128493905

> <CNNaffinity>
5.2267222404

> <CNN_VS>
2.6805212498

> <CNNaffinity_variance>
0.1638980657

$$$$
[H]c1nc([H])n([H])c1C#Cc1c([H])c(C(=O)N([H])c2c([H])c([H])c(C([H])([H])N3C([H])([H])C([H])([H])N(C([H])([H])[H])C([H])([H])C3([H])[H])c(C(F)(F)F)c2[H])c([H])c([H])c1C([H])([H])[H]


 37 40  0  0  0  0  0  0  0  0999 V2000
   37.1560  -18.6144   37.6519 N   0  0  0  0  0  0  0  0  0  0  0  0
   35.9038  -17.9826   37.5894 C   0  0  0  0  0  0  0  0  0  0  0  0
   34.8048  -18.4574   37.9331 O   0  0  0  0  0  0  0  0  0  0  0  0
   38.0350  -18.1052   37.3353 H   0  0  0  0  0  0  0  0  0  0  0  0
   35.8764  -16.5943   37.0565 C   0  0  0  0  0  0  0  0  0  0  0  0
   35.6462  -15.5498   37.9287 C   0  0  0  0  0  0  0  0  0  0  0  0
   35.5992  -14.2419   37.5106 C   0  0  0  0  0  0  0  0  0  0  0  0
   35.7929  -14.0038   36.1681 C   0  0  0  0  0  0  0  0  0  0  0  0
   35.7434  -12.5928   35.7104 C   0  0  0  0  0  0  0  0  0  0  0  0
   36.0257  -14.9965   35.2509 C   0  0  0  0  0  0  0  0  0  0  0  0
   36.0638  -16.3068   35.7252 C   0  0  0  0  0  0  0  0  0  0  0  0
   36.2264  -14.7237   33.8447 C   0  0  0  0  0  0  0  0  0  0  0  0
   36.4070  -14.5128   32.6709 C   0  0  0  0  0  0  0  0  0  0  0  0
   36.6399  -14.2797   31.2736 C   0  0  0  0  0  0  0  0  0  0  0  0
   36.9495  -15.2788   30.3759 C   0  0  0  0  0  0  0  0  0  0  0  0
   37.1039  -14.7270   29.1577 N   0  0  0  0  0  0  0  0  0  0  0  0
   36.8984  -13.3999   29.2654 C   0  0  0  0  0  0  0  0  0  0  0  0
   36.6132  -13.1333   30.5722 N   0  0  0  0  0  0  0  0  0  0  0  0
   36.4019  -12.2089   31.0065 H   0  0  0  0  0  0  0  0  0  0  0  0
   37.8384  -22.6426   38.9457 C   0  0  0  0  0  0  0  0  0  0  0  0
   38.6411  -21.9923   38.0195 C   0  0  0  0  0  0  0  0  0  0  0  0
   38.4092  -20.6955   37.6212 C   0  0  0  0  0  0  0  0  0  0  0  0
   37.3392  -19.9357   38.1269 C   0  0  0  0  0  0  0  0  0  0  0  0
   36.5574  -20.5823   39.0350 C   0  0  0  0  0  0  0  0  0  0  0  0
   36.7867  -21.9121   39.4501 C   0  0  0  0  0  0  0  0  0  0  0  0
   35.8536  -22.5152   40.4432 C   0  0  0  0  0  0  0  0  0  0  0  0
   35.2550  -23.6718   39.9862 F   0  0  0  0  0  0  0  0  0  0  0  0
   36.4801  -22.7205   41.6827 F   0  0  0  0  0  0  0  0  0  0  0  0
   34.8638  -21.5596   40.7427 F   0  0  0  0  0  0  0  0  0  0  0  0
   38.0855  -24.0089   39.4072 C   0  0  0  0  0  0  0  0  0  0  0  0
   42.3231  -24.6332   42.1917 C   0  0  0  0  0  0  0  0  0  0  0  0
   41.6611  -24.7375   40.9080 N   0  0  0  0  0  0  0  0  0  0  0  0
   41.1951  -23.4783   40.4325 C   0  0  0  0  0  0  0  0  0  0  0  0
   39.8133  -23.1051   40.8566 C   0  0  0  0  0  0  0  0  0  0  0  0
   38.9236  -24.1552   40.5461 N   0  0  0  0  0  0  0  0  0  0  0  0
   39.3022  -25.4796   40.8397 C   0  0  0  0  0  0  0  0  0  0  0  0
   40.7306  -25.8124   40.8528 C   0  0  0  0  0  0  0  0  0  0  0  0
 31 32  1  0  0  0
 32 33  1  0  0  0
 33 34  1  0  0  0
 34 35  1  0  0  0
 35 30  1  0  0  0
 30 20  1  0  0  0
 20 21  2  0  0  0
 21 22  1  0  0  0
 22 23  2  0  0  0
 23  1  1  0  0  0
  1  2  1  0  0  0
  2  3  2  0  0  0
  2  5  1  0  0  0
  5  6  2  0  0  0
  6  7  1  0  0  0
  7  8  2  0  0  0
  8  9  1  0  0  0
  8 10  1  0  0  0
 10 11  2  0  0  0
 10 12  1  0  0  0
 12 13  3  0  0  0
 13 14  1  0  0  0
 14 15  2  0  0  0
 15 16  1  0  0  0
 16 17  2  0  0  0
 17 18  1  0  0  0
 23 24  1  0  0  0
 24 25  2  0  0  0
 25 26  1  0  0  0
 26 27  1  0  0  0
 26 28  1  0  0  0
 26 29  1  0  0  0
 35 36  1  0  0  0
 36 37  1  0  0  0
 37 32  1  0  0  0
 25 20  1  0  0  0
 11  5  1  0  0  0
 18 14  1  0  0  0
  1  4  1  0  0  0
 18 19  1  0  0  0
M  END
> <minimizedAffinity>
17.54828

> <CNNscore>
0.4671967626

> <CNNaffinity>
5.4315094948

> <CNN_VS>
2.5375835896

> <CNNaffinity_variance>
0.3283924460

$$$$
[H]c1nc([H])n([H])c1C#Cc1c([H])c(C(=O)N([H])c2c([H])c([H])c(C([H])([H])N3C([H])([H])C([H])([H])N(C([H])([H])[H])C([H])([H])C3([H])[H])c(C(F)(F)F)c2[H])c([H])c([H])c1C([H])([H])[H]


 37 40  0  0  0  0  0  0  0  0999 V2000
   32.6533  -21.1333   36.0213 N   0  0  0  0  0  0  0  0  0  0  0  0
   32.7665  -22.5045   36.3010 C   0  0  0  0  0  0  0  0  0  0  0  0
   33.8172  -23.1574   36.4462 O   0  0  0  0  0  0  0  0  0  0  0  0
   31.6963  -20.6782   35.9254 H   0  0  0  0  0  0  0  0  0  0  0  0
   31.4988  -23.2695   36.4416 C   0  0  0  0  0  0  0  0  0  0  0  0
   30.8121  -23.6373   35.3024 C   0  0  0  0  0  0  0  0  0  0  0  0
   29.6314  -24.3382   35.3517 C   0  0  0  0  0  0  0  0  0  0  0  0
   29.1474  -24.6672   36.5983 C   0  0  0  0  0  0  0  0  0  0  0  0
   27.8723  -25.4244   36.6581 C   0  0  0  0  0  0  0  0  0  0  0  0
   29.7812  -24.3315   37.7673 C   0  0  0  0  0  0  0  0  0  0  0  0
   30.9757  -23.6205   37.6637 C   0  0  0  0  0  0  0  0  0  0  0  0
   29.2546  -24.6873   39.0666 C   0  0  0  0  0  0  0  0  0  0  0  0
   28.8162  -24.9636   40.1558 C   0  0  0  0  0  0  0  0  0  0  0  0
   28.2981  -25.2685   41.4595 C   0  0  0  0  0  0  0  0  0  0  0  0
   29.0844  -25.6769   42.5154 C   0  0  0  0  0  0  0  0  0  0  0  0
   28.2931  -25.8781   43.5857 N   0  0  0  0  0  0  0  0  0  0  0  0
   27.0226  -25.6058   43.2297 C   0  0  0  0  0  0  0  0  0  0  0  0
   27.0351  -25.2310   41.9183 N   0  0  0  0  0  0  0  0  0  0  0  0
   26.2250  -24.9518   41.3237 H   0  0  0  0  0  0  0  0  0  0  0  0
   36.1425  -18.6834   35.5861 C   0  0  0  0  0  0  0  0  0  0  0  0
   36.1931  -20.0361   35.8905 C   0  0  0  0  0  0  0  0  0  0  0  0
   35.0608  -20.8078   36.0200 C   0  0  0  0  0  0  0  0  0  0  0  0
   33.7690  -20.2780   35.8518 C   0  0  0  0  0  0  0  0  0  0  0  0
   33.7297  -18.9501   35.5533 C   0  0  0  0  0  0  0  0  0  0  0  0
   34.8850  -18.1498   35.4184 C   0  0  0  0  0  0  0  0  0  0  0  0
   34.7123  -16.7044   35.0999 C   0  0  0  0  0  0  0  0  0  0  0  0
   35.7952  -15.9368   35.4782 F   0  0  0  0  0  0  0  0  0  0  0  0
   34.3954  -16.5075   33.7465 F   0  0  0  0  0  0  0  0  0  0  0  0
   33.5577  -16.2497   35.7654 F   0  0  0  0  0  0  0  0  0  0  0  0
   37.3337  -17.8518   35.4120 C   0  0  0  0  0  0  0  0  0  0  0  0
   40.9666  -21.1488   36.8375 C   0  0  0  0  0  0  0  0  0  0  0  0
   39.6006  -20.9219   36.4140 N   0  0  0  0  0  0  0  0  0  0  0  0
   39.5235  -20.3264   35.1224 C   0  0  0  0  0  0  0  0  0  0  0  0
   39.5345  -18.8338   35.1036 C   0  0  0  0  0  0  0  0  0  0  0  0
   38.5420  -18.3426   35.9779 N   0  0  0  0  0  0  0  0  0  0  0  0
   38.4080  -18.9238   37.2537 C   0  0  0  0  0  0  0  0  0  0  0  0
   38.8001  -20.3263   37.4283 C   0  0  0  0  0  0  0  0  0  0  0  0
 31 32  1  0  0  0
 32 33  1  0  0  0
 33 34  1  0  0  0
 34 35  1  0  0  0
 35 30  1  0  0  0
 30 20  1  0  0  0
 20 21  2  0  0  0
 21 22  1  0  0  0
 22 23  2  0  0  0
 23  1  1  0  0  0
  1  2  1  0  0  0
  2  3  2  0  0  0
  2  5  1  0  0  0
  5  6  2  0  0  0
  6  7  1  0  0  0
  7  8  2  0  0  0
  8  9  1  0  0  0
  8 10  1  0  0  0
 10 11  2  0  0  0
 10 12  1  0  0  0
 12 13  3  0  0  0
 13 14  1  0  0  0
 14 15  2  0  0  0
 15 16  1  0  0  0
 16 17  2  0  0  0
 17 18  1  0  0  0
 23 24  1  0  0  0
 24 25  2  0  0  0
 25 26  1  0  0  0
 26 27  1  0  0  0
 26 28  1  0  0  0
 26 29  1  0  0  0
 35 36  1  0  0  0
 36 37  1  0  0  0
 37 32  1  0  0  0
 25 20  1  0  0  0
 11  5  1  0  0  0
 18 14  1  0  0  0
  1  4  1  0  0  0
 18 19  1  0  0  0
M  END
> <minimizedAffinity>
-2.31425

> <CNNscore>
0.4180402458

> <CNNaffinity>
5.6507201195

> <CNN_VS>
2.3622283936

> <CNNaffinity_variance>
1.2945399284

$$$$
[H]c1nc([H])n([H])c1C#Cc1c([H])c(C(=O)N([H])c2c([H])c([H])c(C([H])([H])N3C([H])([H])C([H])([H])N(C([H])([H])[H])C([H])([H])C3([H])[H])c(C(F)(F)F)c2[H])c([H])c([H])c1C([H])([H])[H]


 37 40  0  0  0  0  0  0  0  0999 V2000
   37.7783  -19.9771   37.5722 N   0  0  0  0  0  0  0  0  0  0  0  0
   38.9368  -20.5581   37.0323 C   0  0  0  0  0  0  0  0  0  0  0  0
   39.0079  -21.3154   36.0460 O   0  0  0  0  0  0  0  0  0  0  0  0
   37.8393  -19.3352   38.4187 H   0  0  0  0  0  0  0  0  0  0  0  0
   40.2250  -20.2397   37.7041 C   0  0  0  0  0  0  0  0  0  0  0  0
   40.8926  -19.0840   37.3526 C   0  0  0  0  0  0  0  0  0  0  0  0
   42.0900  -18.7262   37.9233 C   0  0  0  0  0  0  0  0  0  0  0  0
   42.6113  -19.5745   38.8746 C   0  0  0  0  0  0  0  0  0  0  0  0
   43.9048  -19.1933   39.4948 C   0  0  0  0  0  0  0  0  0  0  0  0
   41.9981  -20.7367   39.2676 C   0  0  0  0  0  0  0  0  0  0  0  0
   40.7852  -21.0552   38.6588 C   0  0  0  0  0  0  0  0  0  0  0  0
   42.5639  -21.6135   40.2691 C   0  0  0  0  0  0  0  0  0  0  0  0
   43.0432  -22.3278   41.1147 C   0  0  0  0  0  0  0  0  0  0  0  0
   43.6248  -23.1578   42.1315 C   0  0  0  0  0  0  0  0  0  0  0  0
   43.7772  -24.5220   42.0064 C   0  0  0  0  0  0  0  0  0  0  0  0
   44.3514  -24.9934   43.1290 N   0  0  0  0  0  0  0  0  0  0  0  0
   44.5656  -23.9565   43.9621 C   0  0  0  0  0  0  0  0  0  0  0  0
   44.1149  -22.8297   43.3395 N   0  0  0  0  0  0  0  0  0  0  0  0
   44.1261  -21.8507   43.6989 H   0  0  0  0  0  0  0  0  0  0  0  0
   33.8706  -20.8207   36.0282 C   0  0  0  0  0  0  0  0  0  0  0  0
   34.5984  -21.7193   36.7949 C   0  0  0  0  0  0  0  0  0  0  0  0
   35.8501  -21.4272   37.2872 C   0  0  0  0  0  0  0  0  0  0  0  0
   36.4810  -20.1934   37.0474 C   0  0  0  0  0  0  0  0  0  0  0  0
   35.7590  -19.3185   36.2943 C   0  0  0  0  0  0  0  0  0  0  0  0
   34.4747  -19.6083   35.7846 C   0  0  0  0  0  0  0  0  0  0  0  0
   33.7880  -18.5719   34.9632 C   0  0  0  0  0  0  0  0  0  0  0  0
   33.3898  -19.0410   33.7278 F   0  0  0  0  0  0  0  0  0  0  0  0
   32.7160  -17.9889   35.6572 F   0  0  0  0  0  0  0  0  0  0  0  0
   34.6787  -17.4948   34.7928 F   0  0  0  0  0  0  0  0  0  0  0  0
   32.5260  -21.0979   35.5222 C   0  0  0  0  0  0  0  0  0  0  0  0
   28.0842  -22.0442   37.8621 C   0  0  0  0  0  0  0  0  0  0  0  0
   28.9183  -22.1908   36.6875 N   0  0  0  0  0  0  0  0  0  0  0  0
   30.1316  -22.8833   36.9651 C   0  0  0  0  0  0  0  0  0  0  0  0
   31.2767  -22.0243   37.3887 C   0  0  0  0  0  0  0  0  0  0  0  0
   31.4582  -20.9833   36.4537 N   0  0  0  0  0  0  0  0  0  0  0  0
   30.3295  -20.2856   35.9817 C   0  0  0  0  0  0  0  0  0  0  0  0
   29.0405  -20.9843   35.9434 C   0  0  0  0  0  0  0  0  0  0  0  0
 31 32  1  0  0  0
 32 33  1  0  0  0
 33 34  1  0  0  0
 34 35  1  0  0  0
 35 30  1  0  0  0
 30 20  1  0  0  0
 20 21  2  0  0  0
 21 22  1  0  0  0
 22 23  2  0  0  0
 23  1  1  0  0  0
  1  2  1  0  0  0
  2  3  2  0  0  0
  2  5  1  0  0  0
  5  6  2  0  0  0
  6  7  1  0  0  0
  7  8  2  0  0  0
  8  9  1  0  0  0
  8 10  1  0  0  0
 10 11  2  0  0  0
 10 12  1  0  0  0
 12 13  3  0  0  0
 13 14  1  0  0  0
 14 15  2  0  0  0
 15 16  1  0  0  0
 16 17  2  0  0  0
 17 18  1  0  0  0
 23 24  1  0  0  0
 24 25  2  0  0  0
 25 26  1  0  0  0
 26 27  1  0  0  0
 26 28  1  0  0  0
 26 29  1  0  0  0
 35 36  1  0  0  0
 36 37  1  0  0  0
 37 32  1  0  0  0
 25 20  1  0  0  0
 11  5  1  0  0  0
 18 14  1  0  0  0
  1  4  1  0  0  0
 18 19  1  0  0  0
M  END
> <minimizedAffinity>
-4.46583

> <CNNscore>
0.4052785337

> <CNNaffinity>
4.9629449844

> <CNN_VS>
2.0113749504

> <CNNaffinity_variance>
0.0345132388

$$$$
[H]c1nc([H])n([H])c1C#Cc1c([H])c(C(=O)N([H])c2c([H])c([H])c(C([H])([H])N3C([H])([H])C([H])([H])N(C([H])([H])[H])C([H])([H])C3([H])[H])c(C(F)(F)F)c2[H])c([H])c([H])c1C([H])([H])[H]


 37 40  0  0  0  0  0  0  0  0999 V2000
   36.9715  -20.6916   35.7812 N   0  0  0  0  0  0  0  0  0  0  0  0
   37.6628  -19.6587   35.1282 C   0  0  0  0  0  0  0  0  0  0  0  0
   37.1687  -18.6714   34.5516 O   0  0  0  0  0  0  0  0  0  0  0  0
   37.5024  -21.4863   36.2489 H   0  0  0  0  0  0  0  0  0  0  0  0
   39.1476  -19.7435   35.1193 C   0  0  0  0  0  0  0  0  0  0  0  0
   39.8724  -18.8235   35.8494 C   0  0  0  0  0  0  0  0  0  0  0  0
   41.2458  -18.8331   35.8846 C   0  0  0  0  0  0  0  0  0  0  0  0
   41.8865  -19.8089   35.1540 C   0  0  0  0  0  0  0  0  0  0  0  0
   43.3703  -19.8244   35.1882 C   0  0  0  0  0  0  0  0  0  0  0  0
   41.2250  -20.7511   34.4087 C   0  0  0  0  0  0  0  0  0  0  0  0
   39.8319  -20.6987   34.4056 C   0  0  0  0  0  0  0  0  0  0  0  0
   41.9183  -21.7675   33.6483 C   0  0  0  0  0  0  0  0  0  0  0  0
   42.4887  -22.6067   32.9962 C   0  0  0  0  0  0  0  0  0  0  0  0
   43.1561  -23.5970   32.1993 C   0  0  0  0  0  0  0  0  0  0  0  0
   42.6987  -24.8885   32.0488 C   0  0  0  0  0  0  0  0  0  0  0  0
   43.5493  -25.5529   31.2444 N   0  0  0  0  0  0  0  0  0  0  0  0
   44.5354  -24.7093   30.8825 C   0  0  0  0  0  0  0  0  0  0  0  0
   44.2851  -23.5068   31.4753 N   0  0  0  0  0  0  0  0  0  0  0  0
   44.8466  -22.6303   31.4093 H   0  0  0  0  0  0  0  0  0  0  0  0
   32.6876  -20.7783   35.8668 C   0  0  0  0  0  0  0  0  0  0  0  0
   33.4212  -20.4139   34.7470 C   0  0  0  0  0  0  0  0  0  0  0  0
   34.7974  -20.3984   34.7373 C   0  0  0  0  0  0  0  0  0  0  0  0
   35.5592  -20.7524   35.8651 C   0  0  0  0  0  0  0  0  0  0  0  0
   34.8306  -21.1084   36.9589 C   0  0  0  0  0  0  0  0  0  0  0  0
   33.4190  -21.1275   36.9792 C   0  0  0  0  0  0  0  0  0  0  0  0
   32.7339  -21.5253   38.2413 C   0  0  0  0  0  0  0  0  0  0  0  0
   33.2102  -22.7118   38.7613 F   0  0  0  0  0  0  0  0  0  0  0  0
   32.7729  -20.4975   39.1968 F   0  0  0  0  0  0  0  0  0  0  0  0
   31.3587  -21.6505   37.9661 F   0  0  0  0  0  0  0  0  0  0  0  0
   31.2257  -20.8329   35.8894 C   0  0  0  0  0  0  0  0  0  0  0  0
   30.7984  -25.8733   36.6048 C   0  0  0  0  0  0  0  0  0  0  0  0
   31.6510  -24.7248   36.3792 N   0  0  0  0  0  0  0  0  0  0  0  0
   31.5476  -23.7579   37.4200 C   0  0  0  0  0  0  0  0  0  0  0  0
   30.4901  -22.7218   37.2288 C   0  0  0  0  0  0  0  0  0  0  0  0
   30.6370  -22.1251   35.9587 N   0  0  0  0  0  0  0  0  0  0  0  0
   30.8767  -22.9484   34.8415 C   0  0  0  0  0  0  0  0  0  0  0  0
   31.5653  -24.2267   35.0493 C   0  0  0  0  0  0  0  0  0  0  0  0
 31 32  1  0  0  0
 32 33  1  0  0  0
 33 34  1  0  0  0
 34 35  1  0  0  0
 35 30  1  0  0  0
 30 20  1  0  0  0
 20 21  2  0  0  0
 21 22  1  0  0  0
 22 23  2  0  0  0
 23  1  1  0  0  0
  1  2  1  0  0  0
  2  3  2  0  0  0
  2  5  1  0  0  0
  5  6  2  0  0  0
  6  7  1  0  0  0
  7  8  2  0  0  0
  8  9  1  0  0  0
  8 10  1  0  0  0
 10 11  2  0  0  0
 10 12  1  0  0  0
 12 13  3  0  0  0
 13 14  1  0  0  0
 14 15  2  0  0  0
 15 16  1  0  0  0
 16 17  2  0  0  0
 17 18  1  0  0  0
 23 24  1  0  0  0
 24 25  2  0  0  0
 25 26  1  0  0  0
 26 27  1  0  0  0
 26 28  1  0  0  0
 26 29  1  0  0  0
 35 36  1  0  0  0
 36 37  1  0  0  0
 37 32  1  0  0  0
 25 20  1  0  0  0
 11  5  1  0  0  0
 18 14  1  0  0  0
  1  4  1  0  0  0
 18 19  1  0  0  0
M  END
> <minimizedAffinity>
-1.09426

> <CNNscore>
0.4038674533

> <CNNaffinity>
5.4404044151

> <CNN_VS>
2.1972022057

> <CNNaffinity_variance>
0.8269677162

$$$$
[H]c1nc([H])n([H])c1C#Cc1c([H])c(C(=O)N([H])c2c([H])c([H])c(C([H])([H])N3C([H])([H])C([H])([H])N(C([H])([H])[H])C([H])([H])C3([H])[H])c(C(F)(F)F)c2[H])c([H])c([H])c1C([H])([H])[H]


 37 40  0  0  0  0  0  0  0  0999 V2000
   37.4436  -20.1002   35.2389 N   0  0  0  0  0  0  0  0  0  0  0  0
   38.2860  -19.2339   35.9539 C   0  0  0  0  0  0  0  0  0  0  0  0
   37.9463  -18.3788   36.7933 O   0  0  0  0  0  0  0  0  0  0  0  0
   37.8489  -20.8004   34.5479 H   0  0  0  0  0  0  0  0  0  0  0  0
   39.7452  -19.3421   35.6871 C   0  0  0  0  0  0  0  0  0  0  0  0
   40.5621  -18.2762   36.0053 C   0  0  0  0  0  0  0  0  0  0  0  0
   41.9175  -18.2986   35.7820 C   0  0  0  0  0  0  0  0  0  0  0  0
   42.4431  -19.4405   35.2199 C   0  0  0  0  0  0  0  0  0  0  0  0
   43.9070  -19.4707   34.9762 C   0  0  0  0  0  0  0  0  0  0  0  0
   41.6863  -20.5329   34.8809 C   0  0  0  0  0  0  0  0  0  0  0  0
   40.3161  -20.4606   35.1274 C   0  0  0  0  0  0  0  0  0  0  0  0
   42.2594  -21.7226   34.2910 C   0  0  0  0  0  0  0  0  0  0  0  0
   42.7398  -22.7231   33.8185 C   0  0  0  0  0  0  0  0  0  0  0  0
   43.3167  -23.9221   33.2795 C   0  0  0  0  0  0  0  0  0  0  0  0
   42.8419  -24.5555   32.1511 C   0  0  0  0  0  0  0  0  0  0  0  0
   43.6015  -25.6422   31.9185 N   0  0  0  0  0  0  0  0  0  0  0  0
   44.5470  -25.7102   32.8757 C   0  0  0  0  0  0  0  0  0  0  0  0
   44.3641  -24.6466   33.7098 N   0  0  0  0  0  0  0  0  0  0  0  0
   44.9185  -24.3928   34.5559 H   0  0  0  0  0  0  0  0  0  0  0  0
   33.1868  -20.3189   35.6842 C   0  0  0  0  0  0  0  0  0  0  0  0
   34.0392  -21.3757   35.9699 C   0  0  0  0  0  0  0  0  0  0  0  0
   35.4049  -21.2838   35.8264 C   0  0  0  0  0  0  0  0  0  0  0  0
   36.0345  -20.1085   35.3792 C   0  0  0  0  0  0  0  0  0  0  0  0
   35.1900  -19.0772   35.1015 C   0  0  0  0  0  0  0  0  0  0  0  0
   33.7880  -19.1612   35.2453 C   0  0  0  0  0  0  0  0  0  0  0  0
   32.9674  -17.9666   34.8988 C   0  0  0  0  0  0  0  0  0  0  0  0
   33.4005  -17.3299   33.7534 F   0  0  0  0  0  0  0  0  0  0  0  0
   31.6017  -18.2823   34.8216 F   0  0  0  0  0  0  0  0  0  0  0  0
   33.0252  -17.0723   35.9849 F   0  0  0  0  0  0  0  0  0  0  0  0
   31.7358  -20.3841   35.8603 C   0  0  0  0  0  0  0  0  0  0  0  0
   31.5991  -24.8239   38.3842 C   0  0  0  0  0  0  0  0  0  0  0  0
   32.2273  -23.9926   37.3785 N   0  0  0  0  0  0  0  0  0  0  0  0
   32.7440  -22.7807   37.9200 C   0  0  0  0  0  0  0  0  0  0  0  0
   31.7905  -21.6323   37.9441 C   0  0  0  0  0  0  0  0  0  0  0  0
   31.2378  -21.4497   36.6588 N   0  0  0  0  0  0  0  0  0  0  0  0
   30.7981  -22.5772   35.9385 C   0  0  0  0  0  0  0  0  0  0  0  0
   31.4441  -23.8684   36.1973 C   0  0  0  0  0  0  0  0  0  0  0  0
 31 32  1  0  0  0
 32 33  1  0  0  0
 33 34  1  0  0  0
 34 35  1  0  0  0
 35 30  1  0  0  0
 30 20  1  0  0  0
 20 21  2  0  0  0
 21 22  1  0  0  0
 22 23  2  0  0  0
 23  1  1  0  0  0
  1  2  1  0  0  0
  2  3  2  0  0  0
  2  5  1  0  0  0
  5  6  2  0  0  0
  6  7  1  0  0  0
  7  8  2  0  0  0
  8  9  1  0  0  0
  8 10  1  0  0  0
 10 11  2  0  0  0
 10 12  1  0  0  0
 12 13  3  0  0  0
 13 14  1  0  0  0
 14 15  2  0  0  0
 15 16  1  0  0  0
 16 17  2  0  0  0
 17 18  1  0  0  0
 23 24  1  0  0  0
 24 25  2  0  0  0
 25 26  1  0  0  0
 26 27  1  0  0  0
 26 28  1  0  0  0
 26 29  1  0  0  0
 35 36  1  0  0  0
 36 37  1  0  0  0
 37 32  1  0  0  0
 25 20  1  0  0  0
 11  5  1  0  0  0
 18 14  1  0  0  0
  1  4  1  0  0  0
 18 19  1  0  0  0
M  END
> <minimizedAffinity>
-2.27500

> <CNNscore>
0.4036962986

> <CNNaffinity>
5.5802035332

> <CNN_VS>
2.2527074814

> <CNNaffinity_variance>
1.2725781202

$$$$
[H]c1nc([H])n([H])c1C#Cc1c([H])c(C(=O)N([H])c2c([H])c([H])c(C([H])([H])N3C([H])([H])C([H])([H])N(C([H])([H])[H])C([H])([H])C3([H])[H])c(C(F)(F)F)c2[H])c([H])c([H])c1C([H])([H])[H]


 37 40  0  0  0  0  0  0  0  0999 V2000
   36.8321  -20.4573   38.3348 N   0  0  0  0  0  0  0  0  0  0  0  0
   35.9732  -21.5001   38.7168 C   0  0  0  0  0  0  0  0  0  0  0  0
   34.7495  -21.5831   38.5001 O   0  0  0  0  0  0  0  0  0  0  0  0
   37.8692  -20.4975   38.5693 H   0  0  0  0  0  0  0  0  0  0  0  0
   36.5819  -22.6345   39.4617 C   0  0  0  0  0  0  0  0  0  0  0  0
   35.7853  -23.3828   40.3045 C   0  0  0  0  0  0  0  0  0  0  0  0
   36.2766  -24.4404   41.0308 C   0  0  0  0  0  0  0  0  0  0  0  0
   37.6143  -24.7341   40.8873 C   0  0  0  0  0  0  0  0  0  0  0  0
   38.1509  -25.8758   41.6695 C   0  0  0  0  0  0  0  0  0  0  0  0
   38.4584  -24.0300   40.0672 C   0  0  0  0  0  0  0  0  0  0  0  0
   37.9116  -22.9659   39.3516 C   0  0  0  0  0  0  0  0  0  0  0  0
   39.8610  -24.3559   39.9316 C   0  0  0  0  0  0  0  0  0  0  0  0
   41.0255  -24.6476   39.8136 C   0  0  0  0  0  0  0  0  0  0  0  0
   42.4048  -25.0191   39.6700 C   0  0  0  0  0  0  0  0  0  0  0  0
   43.2131  -24.5673   38.6490 C   0  0  0  0  0  0  0  0  0  0  0  0
   44.4391  -25.1005   38.8057 N   0  0  0  0  0  0  0  0  0  0  0  0
   44.4240  -25.8803   39.9042 C   0  0  0  0  0  0  0  0  0  0  0  0
   43.1669  -25.8242   40.4303 N   0  0  0  0  0  0  0  0  0  0  0  0
   42.8058  -26.3078   41.2808 H   0  0  0  0  0  0  0  0  0  0  0  0
   35.3858  -16.9504   36.3407 C   0  0  0  0  0  0  0  0  0  0  0  0
   35.0559  -17.2752   37.6486 C   0  0  0  0  0  0  0  0  0  0  0  0
   35.5359  -18.4034   38.2740 C   0  0  0  0  0  0  0  0  0  0  0  0
   36.3976  -19.3088   37.6294 C   0  0  0  0  0  0  0  0  0  0  0  0
   36.7156  -18.9816   36.3466 C   0  0  0  0  0  0  0  0  0  0  0  0
   36.2286  -17.8270   35.6961 C   0  0  0  0  0  0  0  0  0  0  0  0
   36.6399  -17.5823   34.2849 C   0  0  0  0  0  0  0  0  0  0  0  0
   37.0151  -16.2745   34.0527 F   0  0  0  0  0  0  0  0  0  0  0  0
   37.6383  -18.4799   33.8744 F   0  0  0  0  0  0  0  0  0  0  0  0
   35.5532  -17.9148   33.4536 F   0  0  0  0  0  0  0  0  0  0  0  0
   34.9133  -15.7403   35.6675 C   0  0  0  0  0  0  0  0  0  0  0  0
   34.0844  -10.8977   37.0685 C   0  0  0  0  0  0  0  0  0  0  0  0
   33.9591  -11.9322   36.0630 N   0  0  0  0  0  0  0  0  0  0  0  0
   33.1849  -13.0390   36.5150 C   0  0  0  0  0  0  0  0  0  0  0  0
   33.9524  -14.1197   37.2016 C   0  0  0  0  0  0  0  0  0  0  0  0
   35.0337  -14.5212   36.3889 N   0  0  0  0  0  0  0  0  0  0  0  0
   35.8197  -13.5347   35.7626 C   0  0  0  0  0  0  0  0  0  0  0  0
   35.1977  -12.2467   35.4376 C   0  0  0  0  0  0  0  0  0  0  0  0
 31 32  1  0  0  0
 32 33  1  0  0  0
 33 34  1  0  0  0
 34 35  1  0  0  0
 35 30  1  0  0  0
 30 20  1  0  0  0
 20 21  2  0  0  0
 21 22  1  0  0  0
 22 23  2  0  0  0
 23  1  1  0  0  0
  1  2  1  0  0  0
  2  3  2  0  0  0
  2  5  1  0  0  0
  5  6  2  0  0  0
  6  7  1  0  0  0
  7  8  2  0  0  0
  8  9  1  0  0  0
  8 10  1  0  0  0
 10 11  2  0  0  0
 10 12  1  0  0  0
 12 13  3  0  0  0
 13 14  1  0  0  0
 14 15  2  0  0  0
 15 16  1  0  0  0
 16 17  2  0  0  0
 17 18  1  0  0  0
 23 24  1  0  0  0
 24 25  2  0  0  0
 25 26  1  0  0  0
 26 27  1  0  0  0
 26 28  1  0  0  0
 26 29  1  0  0  0
 35 36  1  0  0  0
 36 37  1  0  0  0
 37 32  1  0  0  0
 25 20  1  0  0  0
 11  5  1  0  0  0
 18 14  1  0  0  0
  1  4  1  0  0  0
 18 19  1  0  0  0
M  END
> <minimizedAffinity>
-0.65886

> <CNNscore>
0.4013691843

> <CNNaffinity>
5.7580628395

> <CNN_VS>
2.3111090660

> <CNNaffinity_variance>
1.3615322113

$$$$
[H]c1nc([H])n([H])c1C#Cc1c([H])c(C(=O)N([H])c2c([H])c([H])c(C([H])([H])N3C([H])([H])C([H])([H])N(C([H])([H])[H])C([H])([H])C3([H])[H])c(C(F)(F)F)c2[H])c([H])c([H])c1C([H])([H])[H]


 37 40  0  0  0  0  0  0  0  0999 V2000
   36.0990  -17.1353   35.6791 N   0  0  0  0  0  0  0  0  0  0  0  0
   37.2253  -17.3946   36.4763 C   0  0  0  0  0  0  0  0  0  0  0  0
   37.6698  -16.6886   37.4011 O   0  0  0  0  0  0  0  0  0  0  0  0
   35.8066  -17.8184   34.9176 H   0  0  0  0  0  0  0  0  0  0  0  0
   37.9758  -18.6471   36.1934 C   0  0  0  0  0  0  0  0  0  0  0  0
   37.7640  -19.2948   34.9933 C   0  0  0  0  0  0  0  0  0  0  0  0
   38.4141  -20.4594   34.6635 C   0  0  0  0  0  0  0  0  0  0  0  0
   39.2998  -20.9680   35.5872 C   0  0  0  0  0  0  0  0  0  0  0  0
   40.0052  -22.2260   35.2367 C   0  0  0  0  0  0  0  0  0  0  0  0
   39.5546  -20.3733   36.7965 C   0  0  0  0  0  0  0  0  0  0  0  0
   38.8697  -19.1936   37.0838 C   0  0  0  0  0  0  0  0  0  0  0  0
   40.4893  -20.9252   37.7523 C   0  0  0  0  0  0  0  0  0  0  0  0
   41.2664  -21.4045   38.5405 C   0  0  0  0  0  0  0  0  0  0  0  0
   42.1861  -21.9981   39.4694 C   0  0  0  0  0  0  0  0  0  0  0  0
   41.9569  -23.1987   40.1065 C   0  0  0  0  0  0  0  0  0  0  0  0
   43.0075  -23.4675   40.9041 N   0  0  0  0  0  0  0  0  0  0  0  0
   43.8968  -22.4626   40.7853 C   0  0  0  0  0  0  0  0  0  0  0  0
   43.3826  -21.5618   39.8996 N   0  0  0  0  0  0  0  0  0  0  0  0
   43.8084  -20.6664   39.5759 H   0  0  0  0  0  0  0  0  0  0  0  0
   33.5254  -13.7231   35.9944 C   0  0  0  0  0  0  0  0  0  0  0  0
   33.1347  -14.9227   35.4171 C   0  0  0  0  0  0  0  0  0  0  0  0
   33.9743  -16.0099   35.3308 C   0  0  0  0  0  0  0  0  0  0  0  0
   35.2911  -15.9814   35.8238 C   0  0  0  0  0  0  0  0  0  0  0  0
   35.6651  -14.8001   36.3885 C   0  0  0  0  0  0  0  0  0  0  0  0
   34.8117  -13.6793   36.4817 C   0  0  0  0  0  0  0  0  0  0  0  0
   35.3403  -12.4370   37.1126 C   0  0  0  0  0  0  0  0  0  0  0  0
   34.8138  -12.2045   38.3671 F   0  0  0  0  0  0  0  0  0  0  0  0
   36.7439  -12.4274   37.1387 F   0  0  0  0  0  0  0  0  0  0  0  0
   35.0314  -11.3561   36.2648 F   0  0  0  0  0  0  0  0  0  0  0  0
   32.6393  -12.5661   36.1256 C   0  0  0  0  0  0  0  0  0  0  0  0
   29.4108  -11.1944   39.8398 C   0  0  0  0  0  0  0  0  0  0  0  0
   29.7457  -11.1950   38.4310 N   0  0  0  0  0  0  0  0  0  0  0  0
   29.8332  -12.5110   37.8933 C   0  0  0  0  0  0  0  0  0  0  0  0
   31.1799  -13.1494   37.9784 C   0  0  0  0  0  0  0  0  0  0  0  0
   32.1492  -12.2832   37.4297 N   0  0  0  0  0  0  0  0  0  0  0  0
   32.1126  -10.9165   37.7678 C   0  0  0  0  0  0  0  0  0  0  0  0
   30.8209  -10.3170   38.1190 C   0  0  0  0  0  0  0  0  0  0  0  0
 31 32  1  0  0  0
 32 33  1  0  0  0
 33 34  1  0  0  0
 34 35  1  0  0  0
 35 30  1  0  0  0
 30 20  1  0  0  0
 20 21  2  0  0  0
 21 22  1  0  0  0
 22 23  2  0  0  0
 23  1  1  0  0  0
  1  2  1  0  0  0
  2  3  2  0  0  0
  2  5  1  0  0  0
  5  6  2  0  0  0
  6  7  1  0  0  0
  7  8  2  0  0  0
  8  9  1  0  0  0
  8 10  1  0  0  0
 10 11  2  0  0  0
 10 12  1  0  0  0
 12 13  3  0  0  0
 13 14  1  0  0  0
 14 15  2  0  0  0
 15 16  1  0  0  0
 16 17  2  0  0  0
 17 18  1  0  0  0
 23 24  1  0  0  0
 24 25  2  0  0  0
 25 26  1  0  0  0
 26 27  1  0  0  0
 26 28  1  0  0  0
 26 29  1  0  0  0
 35 36  1  0  0  0
 36 37  1  0  0  0
 37 32  1  0  0  0
 25 20  1  0  0  0
 11  5  1  0  0  0
 18 14  1  0  0  0
  1  4  1  0  0  0
 18 19  1  0  0  0
M  END
> <minimizedAffinity>
-2.71325

> <CNNscore>
0.3924594522

> <CNNaffinity>
5.8416657448

> <CNN_VS>
2.2926168442

> <CNNaffinity_variance>
0.9531486630

$$$$
[H]OC(=O)[C@]1([H])C([H])([H])C([H])([H])c2c(n([H])c3c([H])c([H])c([H])c([H])c23)[C@@]([H])(O[H])C([H])([H])[C@]2([H])[C@]([H])(N([H])[H])C([H])([H])[C@]21[H]


 28 31  0  0  0  0  0  0  0  0999 V2000
   38.2470  -18.3855   32.9007 N   0  0  0  0  0  0  0  0  0  0  0  0
   38.3387  -18.1894   34.3300 C   0  0  0  0  0  0  0  0  0  0  0  0
   38.8484  -19.4570   34.9869 C   0  0  0  0  0  0  0  0  0  0  0  0
   37.4018  -19.8922   35.0819 C   0  0  0  0  0  0  0  0  0  0  0  0
   36.9944  -20.4493   36.4209 C   0  0  0  0  0  0  0  0  0  0  0  0
   35.5237  -20.8087   36.3384 C   0  0  0  0  0  0  0  0  0  0  0  0
   34.6627  -19.7287   36.9536 C   0  0  0  0  0  0  0  0  0  0  0  0
   33.5418  -19.3150   36.0716 C   0  0  0  0  0  0  0  0  0  0  0  0
   33.5550  -18.2986   35.1840 C   0  0  0  0  0  0  0  0  0  0  0  0
   32.3379  -18.2501   34.5781 N   0  0  0  0  0  0  0  0  0  0  0  0
   31.5347  -19.2147   35.0546 C   0  0  0  0  0  0  0  0  0  0  0  0
   30.2373  -19.6013   34.7942 C   0  0  0  0  0  0  0  0  0  0  0  0
   29.6505  -20.6665   35.4595 C   0  0  0  0  0  0  0  0  0  0  0  0
   30.3833  -21.3549   36.4039 C   0  0  0  0  0  0  0  0  0  0  0  0
   31.6800  -20.9529   36.6505 C   0  0  0  0  0  0  0  0  0  0  0  0
   32.2624  -19.8855   35.9812 C   0  0  0  0  0  0  0  0  0  0  0  0
   34.7365  -17.4023   34.9414 C   0  0  0  0  0  0  0  0  0  0  0  0
   35.0842  -16.7650   36.1127 O   0  0  0  0  0  0  0  0  0  0  0  0
   35.8594  -18.1227   34.2581 C   0  0  0  0  0  0  0  0  0  0  0  0
   37.0424  -18.4096   35.0831 C   0  0  0  0  0  0  0  0  0  0  0  0
   38.1652  -17.4975   32.3728 H   0  0  0  0  0  0  0  0  0  0  0  0
   39.1408  -18.8358   32.5852 H   0  0  0  0  0  0  0  0  0  0  0  0
   32.0307  -17.5745   33.8419 H   0  0  0  0  0  0  0  0  0  0  0  0
   35.5260  -15.9024   36.0020 H   0  0  0  0  0  0  0  0  0  0  0  0
   37.8519  -21.5922   36.7434 C   0  0  0  0  0  0  0  0  0  0  0  0
   37.9155  -22.7000   35.9009 O   0  0  0  0  0  0  0  0  0  0  0  0
   38.5707  -21.6418   37.7827 O   0  0  0  0  0  0  0  0  0  0  0  0
   38.1589  -23.6190   36.2483 H   0  0  0  0  0  0  0  0  0  0  0  0
  1  2  1  0  0  0
  2  3  1  0  0  0
  3  4  1  0  0  0
  4  5  1  0  0  0
  5  6  1  0  0  0
  6  7  1  0  0  0
  7  8  1  0  0  0
  8  9  2  0  0  0
  9 10  1  0  0  0
 10 11  1  0  0  0
 11 12  2  0  0  0
 12 13  1  0  0  0
 13 14  2  0  0  0
 14 15  1  0  0  0
 15 16  2  0  0  0
  9 17  1  0  0  0
 17 18  1  0  0  0
 17 19  1  0  0  0
 19 20  1  0  0  0
  5 25  1  0  0  0
 25 26  1  0  0  0
 25 27  2  0  0  0
 20  2  1  0  0  0
 20  4  1  0  0  0
 16  8  1  0  0  0
 16 11  1  0  0  0
  1 21  1  0  0  0
  1 22  1  0  0  0
 10 23  1  0  0  0
 18 24  1  0  0  0
 26 28  1  0  0  0
M  END
> <minimizedAffinity>
-6.19042

> <CNNscore>
0.8086832166

> <CNNaffinity>
4.8441896439

> <CNN_VS>
3.9174149036

> <CNNaffinity_variance>
0.2772869468

$$$$
[H]OC(=O)[C@]1([H])C([H])([H])C([H])([H])c2c(n([H])c3c([H])c([H])c([H])c([H])c23)[C@@]([H])(O[H])C([H])([H])[C@]2([H])[C@]([H])(N([H])[H])C([H])([H])[C@]21[H]


 28 31  0  0  0  0  0  0  0  0999 V2000
   30.4226  -20.7498   36.3484 N   0  0  0  0  0  0  0  0  0  0  0  0
   31.6062  -21.2447   35.6820 C   0  0  0  0  0  0  0  0  0  0  0  0
   32.4490  -22.0373   36.6615 C   0  0  0  0  0  0  0  0  0  0  0  0
   33.1245  -20.7291   37.0131 C   0  0  0  0  0  0  0  0  0  0  0  0
   34.6283  -20.7897   37.0770 C   0  0  0  0  0  0  0  0  0  0  0  0
   35.1280  -19.3991   37.4169 C   0  0  0  0  0  0  0  0  0  0  0  0
   35.5910  -18.6675   36.1773 C   0  0  0  0  0  0  0  0  0  0  0  0
   35.0158  -17.3029   36.0664 C   0  0  0  0  0  0  0  0  0  0  0  0
   33.8869  -16.9610   35.4107 C   0  0  0  0  0  0  0  0  0  0  0  0
   33.7074  -15.6196   35.5484 N   0  0  0  0  0  0  0  0  0  0  0  0
   34.6971  -15.0836   36.2804 C   0  0  0  0  0  0  0  0  0  0  0  0
   34.9931  -13.8072   36.7091 C   0  0  0  0  0  0  0  0  0  0  0  0
   36.1171  -13.5420   37.4759 C   0  0  0  0  0  0  0  0  0  0  0  0
   36.9581  -14.5807   37.8171 C   0  0  0  0  0  0  0  0  0  0  0  0
   36.6450  -15.8510   37.3785 C   0  0  0  0  0  0  0  0  0  0  0  0
   35.5181  -16.1106   36.6110 C   0  0  0  0  0  0  0  0  0  0  0  0
   33.0112  -17.9322   34.6705 C   0  0  0  0  0  0  0  0  0  0  0  0
   33.7409  -18.5545   33.6808 O   0  0  0  0  0  0  0  0  0  0  0  0
   32.2886  -18.8605   35.5995 C   0  0  0  0  0  0  0  0  0  0  0  0
   32.7523  -20.2560   35.6114 C   0  0  0  0  0  0  0  0  0  0  0  0
   29.6864  -20.4360   35.6900 H   0  0  0  0  0  0  0  0  0  0  0  0
   30.0111  -21.5457   36.8948 H   0  0  0  0  0  0  0  0  0  0  0  0
   32.9245  -15.0485   35.1563 H   0  0  0  0  0  0  0  0  0  0  0  0
   33.2231  -18.8648   32.9145 H   0  0  0  0  0  0  0  0  0  0  0  0
   35.0240  -21.8024   38.0585 C   0  0  0  0  0  0  0  0  0  0  0  0
   35.7382  -22.9343   37.6715 O   0  0  0  0  0  0  0  0  0  0  0  0
   34.7477  -21.7129   39.2894 O   0  0  0  0  0  0  0  0  0  0  0  0
   35.6901  -23.7985   38.1961 H   0  0  0  0  0  0  0  0  0  0  0  0
  1  2  1  0  0  0
  2  3  1  0  0  0
  3  4  1  0  0  0
  4  5  1  0  0  0
  5  6  1  0  0  0
  6  7  1  0  0  0
  7  8  1  0  0  0
  8  9  2  0  0  0
  9 10  1  0  0  0
 10 11  1  0  0  0
 11 12  2  0  0  0
 12 13  1  0  0  0
 13 14  2  0  0  0
 14 15  1  0  0  0
 15 16  2  0  0  0
  9 17  1  0  0  0
 17 18  1  0  0  0
 17 19  1  0  0  0
 19 20  1  0  0  0
  5 25  1  0  0  0
 25 26  1  0  0  0
 25 27  2  0  0  0
 20  2  1  0  0  0
 20  4  1  0  0  0
 16  8  1  0  0  0
 16 11  1  0  0  0
  1 21  1  0  0  0
  1 22  1  0  0  0
 10 23  1  0  0  0
 18 24  1  0  0  0
 26 28  1  0  0  0
M  END
> <minimizedAffinity>
-7.56300

> <CNNscore>
0.7104880214

> <CNNaffinity>
4.8891501427

> <CNN_VS>
3.4736826420

> <CNNaffinity_variance>
0.1845087856

$$$$
[H]OC(=O)[C@]1([H])C([H])([H])C([H])([H])c2c(n([H])c3c([H])c([H])c([H])c([H])c23)[C@@]([H])(O[H])C([H])([H])[C@]2([H])[C@]([H])(N([H])[H])C([H])([H])[C@]21[H]


 28 31  0  0  0  0  0  0  0  0999 V2000
   31.5608  -21.2255   37.1709 N   0  0  0  0  0  0  0  0  0  0  0  0
   32.7658  -21.4975   36.4198 C   0  0  0  0  0  0  0  0  0  0  0  0
   33.8608  -21.9574   37.3617 C   0  0  0  0  0  0  0  0  0  0  0  0
   34.2230  -20.4966   37.5232 C   0  0  0  0  0  0  0  0  0  0  0  0
   35.6952  -20.1940   37.4224 C   0  0  0  0  0  0  0  0  0  0  0  0
   35.8664  -18.6963   37.5851 C   0  0  0  0  0  0  0  0  0  0  0  0
   36.0238  -18.0161   36.2438 C   0  0  0  0  0  0  0  0  0  0  0  0
   35.1237  -16.8458   36.0834 C   0  0  0  0  0  0  0  0  0  0  0  0
   33.8919  -16.8532   35.5323 C   0  0  0  0  0  0  0  0  0  0  0  0
   33.4016  -15.5850   35.5754 N   0  0  0  0  0  0  0  0  0  0  0  0
   34.2904  -14.7543   36.1435 C   0  0  0  0  0  0  0  0  0  0  0  0
   34.3008  -13.4051   36.4266 C   0  0  0  0  0  0  0  0  0  0  0  0
   35.3889  -12.8006   37.0369 C   0  0  0  0  0  0  0  0  0  0  0  0
   36.4860  -13.5683   37.3679 C   0  0  0  0  0  0  0  0  0  0  0  0
   36.4565  -14.9167   37.0764 C   0  0  0  0  0  0  0  0  0  0  0  0
   35.3643  -15.5166   36.4652 C   0  0  0  0  0  0  0  0  0  0  0  0
   33.2193  -18.0782   34.9801 C   0  0  0  0  0  0  0  0  0  0  0  0
   33.9885  -18.6154   33.9708 O   0  0  0  0  0  0  0  0  0  0  0  0
   32.8320  -19.0434   36.0597 C   0  0  0  0  0  0  0  0  0  0  0  0
   33.6232  -20.2805   36.1373 C   0  0  0  0  0  0  0  0  0  0  0  0
   30.7147  -21.1678   36.5753 H   0  0  0  0  0  0  0  0  0  0  0  0
   31.4075  -22.0313   37.8254 H   0  0  0  0  0  0  0  0  0  0  0  0
   32.4708  -15.2607   35.2270 H   0  0  0  0  0  0  0  0  0  0  0  0
   33.4969  -19.1207   33.2966 H   0  0  0  0  0  0  0  0  0  0  0  0
   36.4129  -20.9715   38.4353 C   0  0  0  0  0  0  0  0  0  0  0  0
   36.1177  -20.8291   39.7894 O   0  0  0  0  0  0  0  0  0  0  0  0
   37.3235  -21.8009   38.1487 O   0  0  0  0  0  0  0  0  0  0  0  0
   36.8046  -21.0240   40.5067 H   0  0  0  0  0  0  0  0  0  0  0  0
  1  2  1  0  0  0
  2  3  1  0  0  0
  3  4  1  0  0  0
  4  5  1  0  0  0
  5  6  1  0  0  0
  6  7  1  0  0  0
  7  8  1  0  0  0
  8  9  2  0  0  0
  9 10  1  0  0  0
 10 11  1  0  0  0
 11 12  2  0  0  0
 12 13  1  0  0  0
 13 14  2  0  0  0
 14 15  1  0  0  0
 15 16  2  0  0  0
  9 17  1  0  0  0
 17 18  1  0  0  0
 17 19  1  0  0  0
 19 20  1  0  0  0
  5 25  1  0  0  0
 25 26  1  0  0  0
 25 27  2  0  0  0
 20  2  1  0  0  0
 20  4  1  0  0  0
 16  8  1  0  0  0
 16 11  1  0  0  0
  1 21  1  0  0  0
  1 22  1  0  0  0
 10 23  1  0  0  0
 18 24  1  0  0  0
 26 28  1  0  0  0
M  END
> <minimizedAffinity>
-7.74750

> <CNNscore>
0.7101520300

> <CNNaffinity>
4.8597946167

> <CNN_VS>
3.4511930943

> <CNNaffinity_variance>
0.1800873131

$$$$
[H]OC(=O)[C@]1([H])C([H])([H])C([H])([H])c2c(n([H])c3c([H])c([H])c([H])c([H])c23)[C@@]([H])(O[H])C([H])([H])[C@]2([H])[C@]([H])(N([H])[H])C([H])([H])[C@]21[H]


 28 31  0  0  0  0  0  0  0  0999 V2000
   27.0905  -21.9161   39.7102 N   0  0  0  0  0  0  0  0  0  0  0  0
   27.4509  -23.0597   38.9026 C   0  0  0  0  0  0  0  0  0  0  0  0
   28.4817  -23.8962   39.6343 C   0  0  0  0  0  0  0  0  0  0  0  0
   29.5332  -23.0286   38.9766 C   0  0  0  0  0  0  0  0  0  0  0  0
   30.6883  -23.7823   38.3709 C   0  0  0  0  0  0  0  0  0  0  0  0
   31.6212  -22.7639   37.7452 C   0  0  0  0  0  0  0  0  0  0  0  0
   31.3991  -22.6649   36.2528 C   0  0  0  0  0  0  0  0  0  0  0  0
   31.2423  -21.2637   35.7864 C   0  0  0  0  0  0  0  0  0  0  0  0
   30.0798  -20.5937   35.6418 C   0  0  0  0  0  0  0  0  0  0  0  0
   30.3662  -19.3412   35.1947 N   0  0  0  0  0  0  0  0  0  0  0  0
   31.6914  -19.1846   35.0461 C   0  0  0  0  0  0  0  0  0  0  0  0
   32.4963  -18.1440   34.6339 C   0  0  0  0  0  0  0  0  0  0  0  0
   33.8755  -18.2721   34.5783 C   0  0  0  0  0  0  0  0  0  0  0  0
   34.4545  -19.4692   34.9444 C   0  0  0  0  0  0  0  0  0  0  0  0
   33.6322  -20.4988   35.3541 C   0  0  0  0  0  0  0  0  0  0  0  0
   32.2518  -20.3648   35.4078 C   0  0  0  0  0  0  0  0  0  0  0  0
   28.7259  -21.1745   35.9378 C   0  0  0  0  0  0  0  0  0  0  0  0
   28.5158  -22.2869   35.1519 O   0  0  0  0  0  0  0  0  0  0  0  0
   28.5141  -21.3905   37.4059 C   0  0  0  0  0  0  0  0  0  0  0  0
   28.5190  -22.7883   37.8626 C   0  0  0  0  0  0  0  0  0  0  0  0
   26.2148  -21.4579   39.3985 H   0  0  0  0  0  0  0  0  0  0  0  0
   26.9132  -22.2608   40.6853 H   0  0  0  0  0  0  0  0  0  0  0  0
   29.6822  -18.5791   34.9843 H   0  0  0  0  0  0  0  0  0  0  0  0
   27.5817  -22.4864   34.9539 H   0  0  0  0  0  0  0  0  0  0  0  0
   31.3287  -24.5908   39.4110 C   0  0  0  0  0  0  0  0  0  0  0  0
   31.8915  -23.9940   40.5370 O   0  0  0  0  0  0  0  0  0  0  0  0
   31.4077  -25.8516   39.3515 O   0  0  0  0  0  0  0  0  0  0  0  0
   32.6459  -24.4322   41.0501 H   0  0  0  0  0  0  0  0  0  0  0  0
  1  2  1  0  0  0
  2  3  1  0  0  0
  3  4  1  0  0  0
  4  5  1  0  0  0
  5  6  1  0  0  0
  6  7  1  0  0  0
  7  8  1  0  0  0
  8  9  2  0  0  0
  9 10  1  0  0  0
 10 11  1  0  0  0
 11 12  2  0  0  0
 12 13  1  0  0  0
 13 14  2  0  0  0
 14 15  1  0  0  0
 15 16  2  0  0  0
  9 17  1  0  0  0
 17 18  1  0  0  0
 17 19  1  0  0  0
 19 20  1  0  0  0
  5 25  1  0  0  0
 25 26  1  0  0  0
 25 27  2  0  0  0
 20  2  1  0  0  0
 20  4  1  0  0  0
 16  8  1  0  0  0
 16 11  1  0  0  0
  1 21  1  0  0  0
  1 22  1  0  0  0
 10 23  1  0  0  0
 18 24  1  0  0  0
 26 28  1  0  0  0
M  END
> <minimizedAffinity>
-4.41883

> <CNNscore>
0.6625391841

> <CNNaffinity>
3.9587178230

> <CNN_VS>
2.6228055954

> <CNNaffinity_variance>
0.2161322087

$$$$
[H]OC(=O)[C@]1([H])C([H])([H])C([H])([H])c2c(n([H])c3c([H])c([H])c([H])c([H])c23)[C@@]([H])(O[H])C([H])([H])[C@]2([H])[C@]([H])(N([H])[H])C([H])([H])[C@]21[H]


 28 31  0  0  0  0  0  0  0  0999 V2000
   38.8677  -18.0171   32.9958 N   0  0  0  0  0  0  0  0  0  0  0  0
   38.5572  -19.3957   33.3006 C   0  0  0  0  0  0  0  0  0  0  0  0
   37.2128  -19.4737   33.9966 C   0  0  0  0  0  0  0  0  0  0  0  0
   37.9672  -19.2966   35.2968 C   0  0  0  0  0  0  0  0  0  0  0  0
   37.5664  -20.2453   36.3961 C   0  0  0  0  0  0  0  0  0  0  0  0
   38.4321  -19.9391   37.6026 C   0  0  0  0  0  0  0  0  0  0  0  0
   39.5864  -20.9102   37.7065 C   0  0  0  0  0  0  0  0  0  0  0  0
   40.8932  -20.2316   37.9001 C   0  0  0  0  0  0  0  0  0  0  0  0
   41.7564  -19.8656   36.9295 C   0  0  0  0  0  0  0  0  0  0  0  0
   42.8306  -19.2750   37.5194 N   0  0  0  0  0  0  0  0  0  0  0  0
   42.6820  -19.2500   38.8536 C   0  0  0  0  0  0  0  0  0  0  0  0
   43.4500  -18.7809   39.8979 C   0  0  0  0  0  0  0  0  0  0  0  0
   43.0312  -18.8948   41.2144 C   0  0  0  0  0  0  0  0  0  0  0  0
   41.8173  -19.4917   41.4842 C   0  0  0  0  0  0  0  0  0  0  0  0
   41.0632  -19.9549   40.4256 C   0  0  0  0  0  0  0  0  0  0  0  0
   41.4876  -19.8382   39.1093 C   0  0  0  0  0  0  0  0  0  0  0  0
   41.5256  -20.0926   35.4621 C   0  0  0  0  0  0  0  0  0  0  0  0
   41.3746  -21.4406   35.2187 O   0  0  0  0  0  0  0  0  0  0  0  0
   40.4259  -19.2276   34.9242 C   0  0  0  0  0  0  0  0  0  0  0  0
   39.1690  -19.9124   34.5870 C   0  0  0  0  0  0  0  0  0  0  0  0
   39.6263  -17.9159   32.2971 H   0  0  0  0  0  0  0  0  0  0  0  0
   38.0116  -17.5873   32.5673 H   0  0  0  0  0  0  0  0  0  0  0  0
   43.6725  -18.8830   37.0393 H   0  0  0  0  0  0  0  0  0  0  0  0
   41.6279  -21.7329   34.3232 H   0  0  0  0  0  0  0  0  0  0  0  0
   36.1334  -20.0933   36.6590 C   0  0  0  0  0  0  0  0  0  0  0  0
   35.2340  -21.1059   36.3324 O   0  0  0  0  0  0  0  0  0  0  0  0
   35.6366  -19.0569   37.1866 O   0  0  0  0  0  0  0  0  0  0  0  0
   34.2615  -20.9093   36.1328 H   0  0  0  0  0  0  0  0  0  0  0  0
  1  2  1  0  0  0
  2  3  1  0  0  0
  3  4  1  0  0  0
  4  5  1  0  0  0
  5  6  1  0  0  0
  6  7  1  0  0  0
  7  8  1  0  0  0
  8  9  2  0  0  0
  9 10  1  0  0  0
 10 11  1  0  0  0
 11 12  2  0  0  0
 12 13  1  0  0  0
 13 14  2  0  0  0
 14 15  1  0  0  0
 15 16  2  0  0  0
  9 17  1  0  0  0
 17 18  1  0  0  0
 17 19  1  0  0  0
 19 20  1  0  0  0
  5 25  1  0  0  0
 25 26  1  0  0  0
 25 27  2  0  0  0
 20  2  1  0  0  0
 20  4  1  0  0  0
 16  8  1  0  0  0
 16 11  1  0  0  0
  1 21  1  0  0  0
  1 22  1  0  0  0
 10 23  1  0  0  0
 18 24  1  0  0  0
 26 28  1  0  0  0
M  END
> <minimizedAffinity>
-5.91668

> <CNNscore>
0.6344996095

> <CNNaffinity>
4.4633536339

> <CNN_VS>
2.8319962025

> <CNNaffinity_variance>
0.2355831414

$$$$
[H]OC(=O)[C@]1([H])C([H])([H])C([H])([H])c2c(n([H])c3c([H])c([H])c([H])c([H])c23)[C@@]([H])(O[H])C([H])([H])[C@]2([H])[C@]([H])(N([H])[H])C([H])([H])[C@]21[H]


 28 31  0  0  0  0  0  0  0  0999 V2000
   33.5173  -16.9557   35.1845 N   0  0  0  0  0  0  0  0  0  0  0  0
   33.5305  -18.3503   34.8037 C   0  0  0  0  0  0  0  0  0  0  0  0
   32.8697  -19.1807   35.8861 C   0  0  0  0  0  0  0  0  0  0  0  0
   34.2366  -19.2840   36.5278 C   0  0  0  0  0  0  0  0  0  0  0  0
   34.6239  -20.6695   36.9743 C   0  0  0  0  0  0  0  0  0  0  0  0
   36.0169  -20.5864   37.5671 C   0  0  0  0  0  0  0  0  0  0  0  0
   37.0622  -21.0296   36.5684 C   0  0  0  0  0  0  0  0  0  0  0  0
   38.1856  -20.0660   36.4461 C   0  0  0  0  0  0  0  0  0  0  0  0
   38.2804  -19.0560   35.5561 C   0  0  0  0  0  0  0  0  0  0  0  0
   39.4577  -18.4099   35.7732 N   0  0  0  0  0  0  0  0  0  0  0  0
   40.1293  -18.9802   36.7863 C   0  0  0  0  0  0  0  0  0  0  0  0
   41.3380  -18.7297   37.4002 C   0  0  0  0  0  0  0  0  0  0  0  0
   41.7905  -19.5070   38.4551 C   0  0  0  0  0  0  0  0  0  0  0  0
   41.0119  -20.5552   38.8998 C   0  0  0  0  0  0  0  0  0  0  0  0
   39.8055  -20.7899   38.2725 C   0  0  0  0  0  0  0  0  0  0  0  0
   39.3575  -20.0083   37.2167 C   0  0  0  0  0  0  0  0  0  0  0  0
   37.2372  -18.7386   34.5221 C   0  0  0  0  0  0  0  0  0  0  0  0
   37.0511  -19.8290   33.7002 O   0  0  0  0  0  0  0  0  0  0  0  0
   35.9843  -18.1902   35.1356 C   0  0  0  0  0  0  0  0  0  0  0  0
   34.8159  -19.0831   35.1308 C   0  0  0  0  0  0  0  0  0  0  0  0
   33.7052  -16.3158   34.3914 H   0  0  0  0  0  0  0  0  0  0  0  0
   32.5505  -16.7298   35.5243 H   0  0  0  0  0  0  0  0  0  0  0  0
   39.8251  -17.5834   35.2489 H   0  0  0  0  0  0  0  0  0  0  0  0
   36.7398  -19.6227   32.7990 H   0  0  0  0  0  0  0  0  0  0  0  0
   33.6211  -21.1637   37.9208 C   0  0  0  0  0  0  0  0  0  0  0  0
   32.6032  -22.0189   37.5043 O   0  0  0  0  0  0  0  0  0  0  0  0
   33.6185  -20.8513   39.1463 O   0  0  0  0  0  0  0  0  0  0  0  0
   31.7157  -22.0648   37.9887 H   0  0  0  0  0  0  0  0  0  0  0  0
  1  2  1  0  0  0
  2  3  1  0  0  0
  3  4  1  0  0  0
  4  5  1  0  0  0
  5  6  1  0  0  0
  6  7  1  0  0  0
  7  8  1  0  0  0
  8  9  2  0  0  0
  9 10  1  0  0  0
 10 11  1  0  0  0
 11 12  2  0  0  0
 12 13  1  0  0  0
 13 14  2  0  0  0
 14 15  1  0  0  0
 15 16  2  0  0  0
  9 17  1  0  0  0
 17 18  1  0  0  0
 17 19  1  0  0  0
 19 20  1  0  0  0
  5 25  1  0  0  0
 25 26  1  0  0  0
 25 27  2  0  0  0
 20  2  1  0  0  0
 20  4  1  0  0  0
 16  8  1  0  0  0
 16 11  1  0  0  0
  1 21  1  0  0  0
  1 22  1  0  0  0
 10 23  1  0  0  0
 18 24  1  0  0  0
 26 28  1  0  0  0
M  END
> <minimizedAffinity>
-6.49878

> <CNNscore>
0.6041957736

> <CNNaffinity>
4.7423515320

> <CNN_VS>
2.8653087616

> <CNNaffinity_variance>
0.2067361176

$$$$
[H]OC(=O)[C@]1([H])C([H])([H])C([H])([H])c2c(n([H])c3c([H])c([H])c([H])c([H])c23)[C@@]([H])(O[H])C([H])([H])[C@]2([H])[C@]([H])(N([H])[H])C([H])([H])[C@]21[H]


 28 31  0  0  0  0  0  0  0  0999 V2000
   41.5272  -19.5129   32.5514 N   0  0  0  0  0  0  0  0  0  0  0  0
   41.5715  -18.4995   33.5814 C   0  0  0  0  0  0  0  0  0  0  0  0
   42.8243  -18.6757   34.4165 C   0  0  0  0  0  0  0  0  0  0  0  0
   42.0129  -19.6087   35.2895 C   0  0  0  0  0  0  0  0  0  0  0  0
   42.1580  -19.3767   36.7708 C   0  0  0  0  0  0  0  0  0  0  0  0
   41.2667  -20.3775   37.4800 C   0  0  0  0  0  0  0  0  0  0  0  0
   39.9581  -19.7442   37.8957 C   0  0  0  0  0  0  0  0  0  0  0  0
   38.7764  -20.5486   37.4929 C   0  0  0  0  0  0  0  0  0  0  0  0
   38.0670  -20.4131   36.3529 C   0  0  0  0  0  0  0  0  0  0  0  0
   37.0678  -21.3362   36.3643 N   0  0  0  0  0  0  0  0  0  0  0  0
   37.1143  -22.0684   37.4888 C   0  0  0  0  0  0  0  0  0  0  0  0
   36.3596  -23.1065   37.9920 C   0  0  0  0  0  0  0  0  0  0  0  0
   36.6490  -23.6858   39.2177 C   0  0  0  0  0  0  0  0  0  0  0  0
   37.7175  -23.2114   39.9497 C   0  0  0  0  0  0  0  0  0  0  0  0
   38.4608  -22.1718   39.4292 C   0  0  0  0  0  0  0  0  0  0  0  0
   38.1663  -21.5956   38.2013 C   0  0  0  0  0  0  0  0  0  0  0  0
   38.3686  -19.4013   35.2837 C   0  0  0  0  0  0  0  0  0  0  0  0
   38.3041  -18.1312   35.8146 O   0  0  0  0  0  0  0  0  0  0  0  0
   39.6391  -19.7155   34.5529 C   0  0  0  0  0  0  0  0  0  0  0  0
   40.7819  -18.8329   34.8310 C   0  0  0  0  0  0  0  0  0  0  0  0
   40.8539  -19.2944   31.7945 H   0  0  0  0  0  0  0  0  0  0  0  0
   42.4751  -19.5494   32.1026 H   0  0  0  0  0  0  0  0  0  0  0  0
   36.3457  -21.4874   35.6236 H   0  0  0  0  0  0  0  0  0  0  0  0
   38.0747  -17.4262   35.1808 H   0  0  0  0  0  0  0  0  0  0  0  0
   43.5709  -19.4994   37.1371 C   0  0  0  0  0  0  0  0  0  0  0  0
   44.2914  -18.3968   37.5912 O   0  0  0  0  0  0  0  0  0  0  0  0
   44.2085  -20.5892   37.0650 O   0  0  0  0  0  0  0  0  0  0  0  0
   45.2956  -18.3357   37.4810 H   0  0  0  0  0  0  0  0  0  0  0  0
  1  2  1  0  0  0
  2  3  1  0  0  0
  3  4  1  0  0  0
  4  5  1  0  0  0
  5  6  1  0  0  0
  6  7  1  0  0  0
  7  8  1  0  0  0
  8  9  2  0  0  0
  9 10  1  0  0  0
 10 11  1  0  0  0
 11 12  2  0  0  0
 12 13  1  0  0  0
 13 14  2  0  0  0
 14 15  1  0  0  0
 15 16  2  0  0  0
  9 17  1  0  0  0
 17 18  1  0  0  0
 17 19  1  0  0  0
 19 20  1  0  0  0
  5 25  1  0  0  0
 25 26  1  0  0  0
 25 27  2  0  0  0
 20  2  1  0  0  0
 20  4  1  0  0  0
 16  8  1  0  0  0
 16 11  1  0  0  0
  1 21  1  0  0  0
  1 22  1  0  0  0
 10 23  1  0  0  0
 18 24  1  0  0  0
 26 28  1  0  0  0
M  END
> <minimizedAffinity>
-4.83766

> <CNNscore>
0.5932701230

> <CNNaffinity>
4.3745470047

> <CNN_VS>
2.5952880383

> <CNNaffinity_variance>
0.0537006445

$$$$
[H]OC(=O)[C@]1([H])C([H])([H])C([H])([H])c2c(n([H])c3c([H])c([H])c([H])c([H])c23)[C@@]([H])(O[H])C([H])([H])[C@]2([H])[C@]([H])(N([H])[H])C([H])([H])[C@]21[H]


 28 31  0  0  0  0  0  0  0  0999 V2000
   39.1261  -20.0837   34.5555 N   0  0  0  0  0  0  0  0  0  0  0  0
   38.9555  -19.9698   35.9865 C   0  0  0  0  0  0  0  0  0  0  0  0
   38.9835  -21.3490   36.6148 C   0  0  0  0  0  0  0  0  0  0  0  0
   37.4885  -21.3957   36.3829 C   0  0  0  0  0  0  0  0  0  0  0  0
   36.6794  -21.8751   37.5596 C   0  0  0  0  0  0  0  0  0  0  0  0
   35.2183  -21.8361   37.1565 C   0  0  0  0  0  0  0  0  0  0  0  0
   34.5399  -20.5919   37.6838 C   0  0  0  0  0  0  0  0  0  0  0  0
   33.7713  -19.8692   36.6385 C   0  0  0  0  0  0  0  0  0  0  0  0
   34.2249  -18.8601   35.8656 C   0  0  0  0  0  0  0  0  0  0  0  0
   33.2161  -18.4748   35.0382 N   0  0  0  0  0  0  0  0  0  0  0  0
   32.1167  -19.2134   35.2583 C   0  0  0  0  0  0  0  0  0  0  0  0
   30.8508  -19.2392   34.7132 C   0  0  0  0  0  0  0  0  0  0  0  0
   29.8907  -20.1381   35.1514 C   0  0  0  0  0  0  0  0  0  0  0  0
   30.2112  -21.0269   36.1563 C   0  0  0  0  0  0  0  0  0  0  0  0
   31.4833  -20.9855   36.6891 C   0  0  0  0  0  0  0  0  0  0  0  0
   32.4406  -20.0833   36.2464 C   0  0  0  0  0  0  0  0  0  0  0  0
   35.6148  -18.2943   35.9425 C   0  0  0  0  0  0  0  0  0  0  0  0
   35.8504  -17.8120   37.2117 O   0  0  0  0  0  0  0  0  0  0  0  0
   36.6442  -19.2572   35.4326 C   0  0  0  0  0  0  0  0  0  0  0  0
   37.5149  -19.8717   36.4459 C   0  0  0  0  0  0  0  0  0  0  0  0
   39.3810  -19.1867   34.1036 H   0  0  0  0  0  0  0  0  0  0  0  0
   39.9270  -20.7397   34.3837 H   0  0  0  0  0  0  0  0  0  0  0  0
   33.2502  -17.7165   34.3193 H   0  0  0  0  0  0  0  0  0  0  0  0
   36.5047  -17.0908   37.2682 H   0  0  0  0  0  0  0  0  0  0  0  0
   37.1385  -23.2128   37.9413 C   0  0  0  0  0  0  0  0  0  0  0  0
   37.0449  -24.2825   37.0537 O   0  0  0  0  0  0  0  0  0  0  0  0
   37.6366  -23.4721   39.0744 O   0  0  0  0  0  0  0  0  0  0  0  0
   36.9757  -25.2385   37.3785 H   0  0  0  0  0  0  0  0  0  0  0  0
  1  2  1  0  0  0
  2  3  1  0  0  0
  3  4  1  0  0  0
  4  5  1  0  0  0
  5  6  1  0  0  0
  6  7  1  0  0  0
  7  8  1  0  0  0
  8  9  2  0  0  0
  9 10  1  0  0  0
 10 11  1  0  0  0
 11 12  2  0  0  0
 12 13  1  0  0  0
 13 14  2  0  0  0
 14 15  1  0  0  0
 15 16  2  0  0  0
  9 17  1  0  0  0
 17 18  1  0  0  0
 17 19  1  0  0  0
 19 20  1  0  0  0
  5 25  1  0  0  0
 25 26  1  0  0  0
 25 27  2  0  0  0
 20  2  1  0  0  0
 20  4  1  0  0  0
 16  8  1  0  0  0
 16 11  1  0  0  0
  1 21  1  0  0  0
  1 22  1  0  0  0
 10 23  1  0  0  0
 18 24  1  0  0  0
 26 28  1  0  0  0
M  END
> <minimizedAffinity>
-4.70733

> <CNNscore>
0.5835168958

> <CNNaffinity>
4.2225532532

> <CNN_VS>
2.4639310837

> <CNNaffinity_variance>
0.2327076495

$$$$
[H]OC(=O)[C@]1([H])C([H])([H])C([H])([H])c2c(n([H])c3c([H])c([H])c([H])c([H])c23)[C@@]([H])(O[H])C([H])([H])[C@]2([H])[C@]([H])(N([H])[H])C([H])([H])[C@]21[H]


 28 31  0  0  0  0  0  0  0  0999 V2000
   41.4758  -22.1031   32.2012 N   0  0  0  0  0  0  0  0  0  0  0  0
   41.8402  -21.6366   33.5201 C   0  0  0  0  0  0  0  0  0  0  0  0
   41.6754  -22.7617   34.5225 C   0  0  0  0  0  0  0  0  0  0  0  0
   40.2457  -22.2938   34.6897 C   0  0  0  0  0  0  0  0  0  0  0  0
   39.7798  -22.1781   36.1176 C   0  0  0  0  0  0  0  0  0  0  0  0
   38.3475  -21.6813   36.0925 C   0  0  0  0  0  0  0  0  0  0  0  0
   38.2816  -20.1930   36.3517 C   0  0  0  0  0  0  0  0  0  0  0  0
   37.4513  -19.4718   35.3537 C   0  0  0  0  0  0  0  0  0  0  0  0
   37.8902  -18.8914   34.2171 C   0  0  0  0  0  0  0  0  0  0  0  0
   36.8202  -18.3396   33.5835 N   0  0  0  0  0  0  0  0  0  0  0  0
   35.6955  -18.5500   34.2859 C   0  0  0  0  0  0  0  0  0  0  0  0
   34.3709  -18.2144   34.1033 C   0  0  0  0  0  0  0  0  0  0  0  0
   33.3978  -18.5761   35.0220 C   0  0  0  0  0  0  0  0  0  0  0  0
   33.7651  -19.2885   36.1446 C   0  0  0  0  0  0  0  0  0  0  0  0
   35.0956  -19.6148   36.3095 C   0  0  0  0  0  0  0  0  0  0  0  0
   36.0656  -19.2500   35.3863 C   0  0  0  0  0  0  0  0  0  0  0  0
   39.3249  -18.8834   33.7704 C   0  0  0  0  0  0  0  0  0  0  0  0
   40.1054  -18.2698   34.7260 O   0  0  0  0  0  0  0  0  0  0  0  0
   39.7927  -20.2451   33.3532 C   0  0  0  0  0  0  0  0  0  0  0  0
   40.7351  -20.9134   34.2629 C   0  0  0  0  0  0  0  0  0  0  0  0
   41.8128  -21.4825   31.4428 H   0  0  0  0  0  0  0  0  0  0  0  0
   41.9431  -23.0311   32.0537 H   0  0  0  0  0  0  0  0  0  0  0  0
   36.8289  -17.8177   32.6777 H   0  0  0  0  0  0  0  0  0  0  0  0
   40.9204  -17.8508   34.3916 H   0  0  0  0  0  0  0  0  0  0  0  0
   39.9294  -23.4784   36.7753 C   0  0  0  0  0  0  0  0  0  0  0  0
   39.2455  -24.5993   36.3099 O   0  0  0  0  0  0  0  0  0  0  0  0
   40.6719  -23.6584   37.7831 O   0  0  0  0  0  0  0  0  0  0  0  0
   39.0119  -25.3715   36.9211 H   0  0  0  0  0  0  0  0  0  0  0  0
  1  2  1  0  0  0
  2  3  1  0  0  0
  3  4  1  0  0  0
  4  5  1  0  0  0
  5  6  1  0  0  0
  6  7  1  0  0  0
  7  8  1  0  0  0
  8  9  2  0  0  0
  9 10  1  0  0  0
 10 11  1  0  0  0
 11 12  2  0  0  0
 12 13  1  0  0  0
 13 14  2  0  0  0
 14 15  1  0  0  0
 15 16  2  0  0  0
  9 17  1  0  0  0
 17 18  1  0  0  0
 17 19  1  0  0  0
 19 20  1  0  0  0
  5 25  1  0  0  0
 25 26  1  0  0  0
 25 27  2  0  0  0
 20  2  1  0  0  0
 20  4  1  0  0  0
 16  8  1  0  0  0
 16 11  1  0  0  0
  1 21  1  0  0  0
  1 22  1  0  0  0
 10 23  1  0  0  0
 18 24  1  0  0  0
 26 28  1  0  0  0
M  END
> <minimizedAffinity>
-5.55189

> <CNNscore>
0.5804565549

> <CNNaffinity>
4.3555250168

> <CNN_VS>
2.5281929970

> <CNNaffinity_variance>
0.2484952658

$$$$
[H]OC(=O)[C@@]([H])(N([H])C(=O)[C@@]([H])(N([H])[H])C([H])([H])c1c([H])c([H])c([H])c([H])c1[H])C([H])([H])c1c([H])c([H])c([H])c([H])c1[H]


 27 28  0  0  0  0  0  0  0  0999 V2000
   33.0529  -18.6314   35.6865 C   0  0  0  0  0  0  0  0  0  0  0  0
   31.8487  -18.3884   35.8499 O   0  0  0  0  0  0  0  0  0  0  0  0
   33.6638  -19.8474   36.0901 N   0  0  0  0  0  0  0  0  0  0  0  0
   34.6460  -20.0944   35.9791 H   0  0  0  0  0  0  0  0  0  0  0  0
   33.1740  -16.5354   34.5760 N   0  0  0  0  0  0  0  0  0  0  0  0
   33.9744  -17.6402   35.0372 C   0  0  0  0  0  0  0  0  0  0  0  0
   32.4374  -16.2678   35.2601 H   0  0  0  0  0  0  0  0  0  0  0  0
   32.7088  -16.8108   33.6676 H   0  0  0  0  0  0  0  0  0  0  0  0
   34.9141  -17.1642   36.1198 C   0  0  0  0  0  0  0  0  0  0  0  0
   34.9477  -15.6700   36.1887 C   0  0  0  0  0  0  0  0  0  0  0  0
   36.0837  -14.9564   35.9572 C   0  0  0  0  0  0  0  0  0  0  0  0
   36.1495  -13.5745   36.0127 C   0  0  0  0  0  0  0  0  0  0  0  0
   34.9851  -12.8948   36.3225 C   0  0  0  0  0  0  0  0  0  0  0  0
   33.8159  -13.5991   36.5623 C   0  0  0  0  0  0  0  0  0  0  0  0
   33.7894  -14.9582   36.4987 C   0  0  0  0  0  0  0  0  0  0  0  0
   32.7858  -20.8455   36.7324 C   0  0  0  0  0  0  0  0  0  0  0  0
   33.5243  -21.4816   37.8329 C   0  0  0  0  0  0  0  0  0  0  0  0
   34.4874  -22.2766   37.5578 O   0  0  0  0  0  0  0  0  0  0  0  0
   33.2794  -21.3017   39.1736 O   0  0  0  0  0  0  0  0  0  0  0  0
   33.3587  -20.4101   39.6540 H   0  0  0  0  0  0  0  0  0  0  0  0
   32.3743  -21.7541   35.6135 C   0  0  0  0  0  0  0  0  0  0  0  0
   30.9594  -22.1029   35.6644 C   0  0  0  0  0  0  0  0  0  0  0  0
   29.9776  -21.2083   35.9812 C   0  0  0  0  0  0  0  0  0  0  0  0
   28.6757  -21.6013   36.0090 C   0  0  0  0  0  0  0  0  0  0  0  0
   28.3283  -22.9039   35.7186 C   0  0  0  0  0  0  0  0  0  0  0  0
   29.3266  -23.8025   35.3993 C   0  0  0  0  0  0  0  0  0  0  0  0
   30.6353  -23.4334   35.3649 C   0  0  0  0  0  0  0  0  0  0  0  0
  5  6  1  0  0  0
  6  9  1  0  0  0
  9 10  1  0  0  0
 10 11  2  0  0  0
 11 12  1  0  0  0
 12 13  2  0  0  0
 13 14  1  0  0  0
 14 15  2  0  0  0
  6  1  1  0  0  0
  1  2  2  0  0  0
  1  3  1  0  0  0
  3 16  1  0  0  0
 16 17  1  0  0  0
 17 18  2  0  0  0
 17 19  1  0  0  0
 16 21  1  0  0  0
 21 22  1  0  0  0
 22 23  2  0  0  0
 23 24  1  0  0  0
 24 25  2  0  0  0
 25 26  1  0  0  0
 26 27  2  0  0  0
 15 10  1  0  0  0
 27 22  1  0  0  0
  5  7  1  0  0  0
  5  8  1  0  0  0
  3  4  1  0  0  0
 19 20  1  0  0  0
M  END
> <minimizedAffinity>
-6.07971

> <CNNscore>
0.4983368218

> <CNNaffinity>
4.2611551285

> <CNN_VS>
2.1234905720

> <CNNaffinity_variance>
0.3922827244

$$$$
[H]OC(=O)[C@@]([H])(N([H])C(=O)[C@@]([H])(N([H])[H])C([H])([H])c1c([H])c([H])c([H])c([H])c1[H])C([H])([H])c1c([H])c([H])c([H])c([H])c1[H]


 27 28  0  0  0  0  0  0  0  0999 V2000
   32.8961  -12.7823   37.7555 C   0  0  0  0  0  0  0  0  0  0  0  0
   32.9590  -13.0115   38.9719 O   0  0  0  0  0  0  0  0  0  0  0  0
   31.9552  -11.8896   37.1789 N   0  0  0  0  0  0  0  0  0  0  0  0
   31.8629  -11.6681   36.1887 H   0  0  0  0  0  0  0  0  0  0  0  0
   34.4749  -12.4055   36.0217 N   0  0  0  0  0  0  0  0  0  0  0  0
   33.8272  -13.4435   36.7813 C   0  0  0  0  0  0  0  0  0  0  0  0
   34.7484  -11.5945   36.6130 H   0  0  0  0  0  0  0  0  0  0  0  0
   33.8094  -12.0694   35.2723 H   0  0  0  0  0  0  0  0  0  0  0  0
   34.8549  -14.1774   37.6100 C   0  0  0  0  0  0  0  0  0  0  0  0
   35.3161  -15.4229   36.9212 C   0  0  0  0  0  0  0  0  0  0  0  0
   34.5510  -16.0712   36.0006 C   0  0  0  0  0  0  0  0  0  0  0  0
   34.9471  -17.2248   35.3452 C   0  0  0  0  0  0  0  0  0  0  0  0
   36.1951  -17.7350   35.6551 C   0  0  0  0  0  0  0  0  0  0  0  0
   36.9925  -17.0929   36.5891 C   0  0  0  0  0  0  0  0  0  0  0  0
   36.5693  -15.9602   37.2134 C   0  0  0  0  0  0  0  0  0  0  0  0
   31.0237  -11.2213   38.1092 C   0  0  0  0  0  0  0  0  0  0  0  0
   29.7937  -12.0217   38.1976 C   0  0  0  0  0  0  0  0  0  0  0  0
   28.7610  -11.6493   37.5419 O   0  0  0  0  0  0  0  0  0  0  0  0
   29.6348  -13.1702   38.9362 O   0  0  0  0  0  0  0  0  0  0  0  0
   30.1634  -14.0244   38.7846 H   0  0  0  0  0  0  0  0  0  0  0  0
   30.8632   -9.8409   37.5476 C   0  0  0  0  0  0  0  0  0  0  0  0
   32.1193   -9.2829   37.0605 C   0  0  0  0  0  0  0  0  0  0  0  0
   33.3313   -9.5582   37.6259 C   0  0  0  0  0  0  0  0  0  0  0  0
   34.4653   -9.0035   37.1196 C   0  0  0  0  0  0  0  0  0  0  0  0
   34.4090   -8.1581   36.0316 C   0  0  0  0  0  0  0  0  0  0  0  0
   33.1799   -7.8845   35.4653 C   0  0  0  0  0  0  0  0  0  0  0  0
   32.0322   -8.4270   35.9538 C   0  0  0  0  0  0  0  0  0  0  0  0
  5  6  1  0  0  0
  6  9  1  0  0  0
  9 10  1  0  0  0
 10 11  2  0  0  0
 11 12  1  0  0  0
 12 13  2  0  0  0
 13 14  1  0  0  0
 14 15  2  0  0  0
  6  1  1  0  0  0
  1  2  2  0  0  0
  1  3  1  0  0  0
  3 16  1  0  0  0
 16 17  1  0  0  0
 17 18  2  0  0  0
 17 19  1  0  0  0
 16 21  1  0  0  0
 21 22  1  0  0  0
 22 23  2  0  0  0
 23 24  1  0  0  0
 24 25  2  0  0  0
 25 26  1  0  0  0
 26 27  2  0  0  0
 15 10  1  0  0  0
 27 22  1  0  0  0
  5  7  1  0  0  0
  5  8  1  0  0  0
  3  4  1  0  0  0
 19 20  1  0  0  0
M  END
> <minimizedAffinity>
-7.79548

> <CNNscore>
0.4380100369

> <CNNaffinity>
5.3385744095

> <CNN_VS>
2.3383491039

> <CNNaffinity_variance>
0.2338012457

$$$$
[H]OC(=O)[C@@]([H])(N([H])C(=O)[C@@]([H])(N([H])[H])C([H])([H])c1c([H])c([H])c([H])c([H])c1[H])C([H])([H])c1c([H])c([H])c([H])c([H])c1[H]


 27 28  0  0  0  0  0  0  0  0999 V2000
   37.3465  -18.7559   34.5458 C   0  0  0  0  0  0  0  0  0  0  0  0
   36.2059  -19.1339   34.2420 O   0  0  0  0  0  0  0  0  0  0  0  0
   37.6223  -17.9442   35.6771 N   0  0  0  0  0  0  0  0  0  0  0  0
   38.5388  -17.6078   35.9685 H   0  0  0  0  0  0  0  0  0  0  0  0
   38.6323  -18.2098   32.6251 N   0  0  0  0  0  0  0  0  0  0  0  0
   38.5453  -19.1346   33.7257 C   0  0  0  0  0  0  0  0  0  0  0  0
   38.4220  -17.2323   32.9121 H   0  0  0  0  0  0  0  0  0  0  0  0
   37.9389  -18.5016   31.8825 H   0  0  0  0  0  0  0  0  0  0  0  0
   39.7456  -18.9607   34.6260 C   0  0  0  0  0  0  0  0  0  0  0  0
   40.6641  -20.1384   34.5366 C   0  0  0  0  0  0  0  0  0  0  0  0
   41.3182  -20.6350   35.6223 C   0  0  0  0  0  0  0  0  0  0  0  0
   42.1743  -21.7221   35.5747 C   0  0  0  0  0  0  0  0  0  0  0  0
   42.3652  -22.3272   34.3454 C   0  0  0  0  0  0  0  0  0  0  0  0
   41.7105  -21.8400   33.2254 C   0  0  0  0  0  0  0  0  0  0  0  0
   40.8758  -20.7685   33.3108 C   0  0  0  0  0  0  0  0  0  0  0  0
   36.4653  -17.5533   36.5066 C   0  0  0  0  0  0  0  0  0  0  0  0
   35.8475  -18.7698   37.0540 C   0  0  0  0  0  0  0  0  0  0  0  0
   36.5077  -19.4824   37.8855 O   0  0  0  0  0  0  0  0  0  0  0  0
   34.5887  -19.2349   36.7556 O   0  0  0  0  0  0  0  0  0  0  0  0
   33.7309  -18.7273   36.9522 H   0  0  0  0  0  0  0  0  0  0  0  0
   35.6036  -16.7433   35.5855 C   0  0  0  0  0  0  0  0  0  0  0  0
   35.2981  -15.4213   36.1195 C   0  0  0  0  0  0  0  0  0  0  0  0
   34.0289  -14.9277   36.2189 C   0  0  0  0  0  0  0  0  0  0  0  0
   33.8150  -13.6849   36.7284 C   0  0  0  0  0  0  0  0  0  0  0  0
   34.8724  -12.9069   37.1510 C   0  0  0  0  0  0  0  0  0  0  0  0
   36.1528  -13.4128   37.0472 C   0  0  0  0  0  0  0  0  0  0  0  0
   36.3919  -14.6526   36.5412 C   0  0  0  0  0  0  0  0  0  0  0  0
  5  6  1  0  0  0
  6  9  1  0  0  0
  9 10  1  0  0  0
 10 11  2  0  0  0
 11 12  1  0  0  0
 12 13  2  0  0  0
 13 14  1  0  0  0
 14 15  2  0  0  0
  6  1  1  0  0  0
  1  2  2  0  0  0
  1  3  1  0  0  0
  3 16  1  0  0  0
 16 17  1  0  0  0
 17 18  2  0  0  0
 17 19  1  0  0  0
 16 21  1  0  0  0
 21 22  1  0  0  0
 22 23  2  0  0  0
 23 24  1  0  0  0
 24 25  2  0  0  0
 25 26  1  0  0  0
 26 27  2  0  0  0
 15 10  1  0  0  0
 27 22  1  0  0  0
  5  7  1  0  0  0
  5  8  1  0  0  0
  3  4  1  0  0  0
 19 20  1  0  0  0
M  END
> <minimizedAffinity>
-6.17807

> <CNNscore>
0.3477908671

> <CNNaffinity>
4.4049625397

> <CNN_VS>
1.5320057869

> <CNNaffinity_variance>
0.3981850147

$$$$
[H]OC(=O)[C@@]([H])(N([H])C(=O)[C@@]([H])(N([H])[H])C([H])([H])c1c([H])c([H])c([H])c([H])c1[H])C([H])([H])c1c([H])c([H])c([H])c([H])c1[H]


 27 28  0  0  0  0  0  0  0  0999 V2000
   33.7040  -11.7681   37.2080 C   0  0  0  0  0  0  0  0  0  0  0  0
   33.8377  -10.6160   37.6446 O   0  0  0  0  0  0  0  0  0  0  0  0
   32.5811  -12.5860   37.4994 N   0  0  0  0  0  0  0  0  0  0  0  0
   32.4250  -13.5363   37.1668 H   0  0  0  0  0  0  0  0  0  0  0  0
   35.4643  -11.3369   35.6729 N   0  0  0  0  0  0  0  0  0  0  0  0
   34.7384  -12.3983   36.3214 C   0  0  0  0  0  0  0  0  0  0  0  0
   35.6691  -10.5464   36.3173 H   0  0  0  0  0  0  0  0  0  0  0  0
   34.8852  -10.9750   34.8661 H   0  0  0  0  0  0  0  0  0  0  0  0
   35.6695  -13.1612   37.2339 C   0  0  0  0  0  0  0  0  0  0  0  0
   35.6824  -14.6190   36.8977 C   0  0  0  0  0  0  0  0  0  0  0  0
   34.6845  -15.2103   36.1853 C   0  0  0  0  0  0  0  0  0  0  0  0
   34.6653  -16.5553   35.8572 C   0  0  0  0  0  0  0  0  0  0  0  0
   35.7290  -17.3291   36.2856 C   0  0  0  0  0  0  0  0  0  0  0  0
   36.7571  -16.7501   37.0124 C   0  0  0  0  0  0  0  0  0  0  0  0
   36.7417  -15.4236   37.3162 C   0  0  0  0  0  0  0  0  0  0  0  0
   31.5437  -11.9969   38.3691 C   0  0  0  0  0  0  0  0  0  0  0  0
   31.2512  -12.9414   39.4571 C   0  0  0  0  0  0  0  0  0  0  0  0
   31.8883  -12.8354   40.5607 O   0  0  0  0  0  0  0  0  0  0  0  0
   30.3297  -13.9604   39.4093 O   0  0  0  0  0  0  0  0  0  0  0  0
   29.3316  -13.8222   39.2794 H   0  0  0  0  0  0  0  0  0  0  0  0
   30.4048  -11.6997   37.4411 C   0  0  0  0  0  0  0  0  0  0  0  0
   29.3046  -11.0101   38.1046 C   0  0  0  0  0  0  0  0  0  0  0  0
   29.4500   -9.8179   38.7544 C   0  0  0  0  0  0  0  0  0  0  0  0
   28.3797   -9.2283   39.3518 C   0  0  0  0  0  0  0  0  0  0  0  0
   27.1360   -9.8229   39.3108 C   0  0  0  0  0  0  0  0  0  0  0  0
   26.9970  -11.0282   38.6521 C   0  0  0  0  0  0  0  0  0  0  0  0
   28.0522  -11.6371   38.0471 C   0  0  0  0  0  0  0  0  0  0  0  0
  5  6  1  0  0  0
  6  9  1  0  0  0
  9 10  1  0  0  0
 10 11  2  0  0  0
 11 12  1  0  0  0
 12 13  2  0  0  0
 13 14  1  0  0  0
 14 15  2  0  0  0
  6  1  1  0  0  0
  1  2  2  0  0  0
  1  3  1  0  0  0
  3 16  1  0  0  0
 16 17  1  0  0  0
 17 18  2  0  0  0
 17 19  1  0  0  0
 16 21  1  0  0  0
 21 22  1  0  0  0
 22 23  2  0  0  0
 23 24  1  0  0  0
 24 25  2  0  0  0
 25 26  1  0  0  0
 26 27  2  0  0  0
 15 10  1  0  0  0
 27 22  1  0  0  0
  5  7  1  0  0  0
  5  8  1  0  0  0
  3  4  1  0  0  0
 19 20  1  0  0  0
M  END
> <minimizedAffinity>
-8.29086

> <CNNscore>
0.3226115108

> <CNNaffinity>
5.0425524712

> <CNN_VS>
1.6267855167

> <CNNaffinity_variance>
0.1853541136

$$$$
[H]OC(=O)[C@@]([H])(N([H])C(=O)[C@@]([H])(N([H])[H])C([H])([H])c1c([H])c([H])c([H])c([H])c1[H])C([H])([H])c1c([H])c([H])c([H])c([H])c1[H]


 27 28  0  0  0  0  0  0  0  0999 V2000
   36.6691  -19.1782   36.7093 C   0  0  0  0  0  0  0  0  0  0  0  0
   37.1439  -20.2058   36.2046 O   0  0  0  0  0  0  0  0  0  0  0  0
   35.7066  -19.1960   37.7524 N   0  0  0  0  0  0  0  0  0  0  0  0
   35.2867  -18.3822   38.1989 H   0  0  0  0  0  0  0  0  0  0  0  0
   38.1544  -17.9757   35.2990 N   0  0  0  0  0  0  0  0  0  0  0  0
   37.0832  -17.8113   36.2475 C   0  0  0  0  0  0  0  0  0  0  0  0
   37.9899  -18.7723   34.6506 H   0  0  0  0  0  0  0  0  0  0  0  0
   39.0519  -18.1503   35.8294 H   0  0  0  0  0  0  0  0  0  0  0  0
   35.8810  -17.2177   35.5520 C   0  0  0  0  0  0  0  0  0  0  0  0
   35.5145  -15.8923   36.1415 C   0  0  0  0  0  0  0  0  0  0  0  0
   34.2368  -15.4225   36.1377 C   0  0  0  0  0  0  0  0  0  0  0  0
   33.8637  -14.2018   36.6741 C   0  0  0  0  0  0  0  0  0  0  0  0
   34.8585  -13.4270   37.2430 C   0  0  0  0  0  0  0  0  0  0  0  0
   36.1668  -13.8836   37.2591 C   0  0  0  0  0  0  0  0  0  0  0  0
   36.4962  -15.0897   36.7218 C   0  0  0  0  0  0  0  0  0  0  0  0
   35.2768  -20.5248   38.2311 C   0  0  0  0  0  0  0  0  0  0  0  0
   34.1118  -20.9534   37.4435 C   0  0  0  0  0  0  0  0  0  0  0  0
   32.9421  -20.8274   37.9445 O   0  0  0  0  0  0  0  0  0  0  0  0
   34.1516  -21.4921   36.1794 O   0  0  0  0  0  0  0  0  0  0  0  0
   34.5076  -21.0050   35.3620 H   0  0  0  0  0  0  0  0  0  0  0  0
   35.0359  -20.3321   39.6979 C   0  0  0  0  0  0  0  0  0  0  0  0
   35.6986  -21.3428   40.5137 C   0  0  0  0  0  0  0  0  0  0  0  0
   35.0291  -22.1842   41.3553 C   0  0  0  0  0  0  0  0  0  0  0  0
   35.7106  -23.1059   42.0875 C   0  0  0  0  0  0  0  0  0  0  0  0
   37.0827  -23.2047   41.9917 C   0  0  0  0  0  0  0  0  0  0  0  0
   37.7526  -22.3505   41.1387 C   0  0  0  0  0  0  0  0  0  0  0  0
   37.0933  -21.4207   40.3964 C   0  0  0  0  0  0  0  0  0  0  0  0
  5  6  1  0  0  0
  6  9  1  0  0  0
  9 10  1  0  0  0
 10 11  2  0  0  0
 11 12  1  0  0  0
 12 13  2  0  0  0
 13 14  1  0  0  0
 14 15  2  0  0  0
  6  1  1  0  0  0
  1  2  2  0  0  0
  1  3  1  0  0  0
  3 16  1  0  0  0
 16 17  1  0  0  0
 17 18  2  0  0  0
 17 19  1  0  0  0
 16 21  1  0  0  0
 21 22  1  0  0  0
 22 23  2  0  0  0
 23 24  1  0  0  0
 24 25  2  0  0  0
 25 26  1  0  0  0
 26 27  2  0  0  0
 15 10  1  0  0  0
 27 22  1  0  0  0
  5  7  1  0  0  0
  5  8  1  0  0  0
  3  4  1  0  0  0
 19 20  1  0  0  0
M  END
> <minimizedAffinity>
-5.30413

> <CNNscore>
0.2973547578

> <CNNaffinity>
3.9966514111

> <CNN_VS>
1.1884232759

> <CNNaffinity_variance>
0.5990332365

$$$$
[H]OC(=O)[C@@]([H])(N([H])C(=O)[C@@]([H])(N([H])[H])C([H])([H])c1c([H])c([H])c([H])c([H])c1[H])C([H])([H])c1c([H])c([H])c([H])c([H])c1[H]


 27 28  0  0  0  0  0  0  0  0999 V2000
   39.0807  -19.0202   35.0274 C   0  0  0  0  0  0  0  0  0  0  0  0
   39.4566  -19.1672   36.1992 O   0  0  0  0  0  0  0  0  0  0  0  0
   37.8348  -18.4379   34.6764 N   0  0  0  0  0  0  0  0  0  0  0  0
   37.4808  -18.2956   33.7317 H   0  0  0  0  0  0  0  0  0  0  0  0
   39.0677  -19.6008   32.7244 N   0  0  0  0  0  0  0  0  0  0  0  0
   39.9301  -19.4549   33.8685 C   0  0  0  0  0  0  0  0  0  0  0  0
   38.3616  -18.8394   32.6615 H   0  0  0  0  0  0  0  0  0  0  0  0
   38.5623  -20.5263   32.7977 H   0  0  0  0  0  0  0  0  0  0  0  0
   40.9117  -18.3341   33.6199 C   0  0  0  0  0  0  0  0  0  0  0  0
   42.1399  -18.4944   34.4592 C   0  0  0  0  0  0  0  0  0  0  0  0
   42.8272  -17.4286   34.9541 C   0  0  0  0  0  0  0  0  0  0  0  0
   43.9661  -17.5414   35.7332 C   0  0  0  0  0  0  0  0  0  0  0  0
   44.4187  -18.8176   36.0161 C   0  0  0  0  0  0  0  0  0  0  0  0
   43.7361  -19.9186   35.5237 C   0  0  0  0  0  0  0  0  0  0  0  0
   42.6193  -19.7687   34.7606 C   0  0  0  0  0  0  0  0  0  0  0  0
   36.9740  -17.9986   35.7925 C   0  0  0  0  0  0  0  0  0  0  0  0
   36.4514  -19.1890   36.4790 C   0  0  0  0  0  0  0  0  0  0  0  0
   36.4638  -19.2253   37.7571 O   0  0  0  0  0  0  0  0  0  0  0  0
   35.9304  -20.3044   35.8673 O   0  0  0  0  0  0  0  0  0  0  0  0
   35.1034  -20.2985   35.2773 H   0  0  0  0  0  0  0  0  0  0  0  0
   35.9483  -17.1166   35.1467 C   0  0  0  0  0  0  0  0  0  0  0  0
   35.5789  -15.9798   35.9819 C   0  0  0  0  0  0  0  0  0  0  0  0
   34.3549  -15.3769   35.9289 C   0  0  0  0  0  0  0  0  0  0  0  0
   34.0762  -14.3199   36.7383 C   0  0  0  0  0  0  0  0  0  0  0  0
   35.0216  -13.8426   37.6216 C   0  0  0  0  0  0  0  0  0  0  0  0
   36.2568  -14.4574   37.6694 C   0  0  0  0  0  0  0  0  0  0  0  0
   36.5590  -15.5157   36.8701 C   0  0  0  0  0  0  0  0  0  0  0  0
  5  6  1  0  0  0
  6  9  1  0  0  0
  9 10  1  0  0  0
 10 11  2  0  0  0
 11 12  1  0  0  0
 12 13  2  0  0  0
 13 14  1  0  0  0
 14 15  2  0  0  0
  6  1  1  0  0  0
  1  2  2  0  0  0
  1  3  1  0  0  0
  3 16  1  0  0  0
 16 17  1  0  0  0
 17 18  2  0  0  0
 17 19  1  0  0  0
 16 21  1  0  0  0
 21 22  1  0  0  0
 22 23  2  0  0  0
 23 24  1  0  0  0
 24 25  2  0  0  0
 25 26  1  0  0  0
 26 27  2  0  0  0
 15 10  1  0  0  0
 27 22  1  0  0  0
  5  7  1  0  0  0
  5  8  1  0  0  0
  3  4  1  0  0  0
 19 20  1  0  0  0
M  END
> <minimizedAffinity>
-6.21380

> <CNNscore>
0.2514498234

> <CNNaffinity>
4.1280241013

> <CNN_VS>
1.0379909277

> <CNNaffinity_variance>
0.4236765504

$$$$
[H]OC(=O)[C@@]([H])(N([H])C(=O)[C@@]([H])(N([H])[H])C([H])([H])c1c([H])c([H])c([H])c([H])c1[H])C([H])([H])c1c([H])c([H])c([H])c([H])c1[H]


 27 28  0  0  0  0  0  0  0  0999 V2000
   36.3584  -16.4623   36.8559 C   0  0  0  0  0  0  0  0  0  0  0  0
   36.0221  -17.3502   37.6525 O   0  0  0  0  0  0  0  0  0  0  0  0
   36.6668  -16.7144   35.4935 N   0  0  0  0  0  0  0  0  0  0  0  0
   36.9476  -16.0219   34.8010 H   0  0  0  0  0  0  0  0  0  0  0  0
   37.8623  -14.6689   37.2597 N   0  0  0  0  0  0  0  0  0  0  0  0
   36.4673  -15.0261   37.2787 C   0  0  0  0  0  0  0  0  0  0  0  0
   38.3599  -15.0608   36.4345 H   0  0  0  0  0  0  0  0  0  0  0  0
   38.3184  -15.0399   38.1381 H   0  0  0  0  0  0  0  0  0  0  0  0
   35.7268  -14.2213   36.2368 C   0  0  0  0  0  0  0  0  0  0  0  0
   34.7368  -13.2958   36.8708 C   0  0  0  0  0  0  0  0  0  0  0  0
   34.8304  -11.9424   36.7583 C   0  0  0  0  0  0  0  0  0  0  0  0
   33.9323  -11.0582   37.3317 C   0  0  0  0  0  0  0  0  0  0  0  0
   32.8853  -11.5973   38.0576 C   0  0  0  0  0  0  0  0  0  0  0  0
   32.7687  -12.9722   38.1865 C   0  0  0  0  0  0  0  0  0  0  0  0
   33.6712  -13.8107   37.6083 C   0  0  0  0  0  0  0  0  0  0  0  0
   36.5696  -18.1171   35.0436 C   0  0  0  0  0  0  0  0  0  0  0  0
   37.9178  -18.5967   34.7065 C   0  0  0  0  0  0  0  0  0  0  0  0
   38.0837  -19.2904   33.6452 O   0  0  0  0  0  0  0  0  0  0  0  0
   39.0582  -18.3659   35.4386 O   0  0  0  0  0  0  0  0  0  0  0  0
   39.4456  -17.4438   35.6168 H   0  0  0  0  0  0  0  0  0  0  0  0
   35.5902  -18.0773   33.9095 C   0  0  0  0  0  0  0  0  0  0  0  0
   34.3160  -18.7019   34.2453 C   0  0  0  0  0  0  0  0  0  0  0  0
   33.9167  -19.9074   33.7435 C   0  0  0  0  0  0  0  0  0  0  0  0
   32.7141  -20.4334   34.1001 C   0  0  0  0  0  0  0  0  0  0  0  0
   31.8827  -19.7603   34.9705 C   0  0  0  0  0  0  0  0  0  0  0  0
   32.2935  -18.5419   35.4736 C   0  0  0  0  0  0  0  0  0  0  0  0
   33.4914  -17.9956   35.1319 C   0  0  0  0  0  0  0  0  0  0  0  0
  5  6  1  0  0  0
  6  9  1  0  0  0
  9 10  1  0  0  0
 10 11  2  0  0  0
 11 12  1  0  0  0
 12 13  2  0  0  0
 13 14  1  0  0  0
 14 15  2  0  0  0
  6  1  1  0  0  0
  1  2  2  0  0  0
  1  3  1  0  0  0
  3 16  1  0  0  0
 16 17  1  0  0  0
 17 18  2  0  0  0
 17 19  1  0  0  0
 16 21  1  0  0  0
 21 22  1  0  0  0
 22 23  2  0  0  0
 23 24  1  0  0  0
 24 25  2  0  0  0
 25 26  1  0  0  0
 26 27  2  0  0  0
 15 10  1  0  0  0
 27 22  1  0  0  0
  5  7  1  0  0  0
  5  8  1  0  0  0
  3  4  1  0  0  0
 19 20  1  0  0  0
M  END
> <minimizedAffinity>
-7.29171

> <CNNscore>
0.2484036982

> <CNNaffinity>
4.2311382294

> <CNN_VS>
1.0510303974

> <CNNaffinity_variance>
0.9365376234

$$$$
[H]OC(=O)[C@@]([H])(N([H])C(=O)[C@@]([H])(N([H])[H])C([H])([H])c1c([H])c([H])c([H])c([H])c1[H])C([H])([H])c1c([H])c([H])c([H])c([H])c1[H]


 27 28  0  0  0  0  0  0  0  0999 V2000
   37.7272  -18.8442   35.1155 C   0  0  0  0  0  0  0  0  0  0  0  0
   38.3746  -18.6339   36.1512 O   0  0  0  0  0  0  0  0  0  0  0  0
   36.3181  -18.6947   35.0340 N   0  0  0  0  0  0  0  0  0  0  0  0
   35.7416  -18.8551   34.2094 H   0  0  0  0  0  0  0  0  0  0  0  0
   38.2936  -18.1979   32.9013 N   0  0  0  0  0  0  0  0  0  0  0  0
   38.3962  -19.2812   33.8447 C   0  0  0  0  0  0  0  0  0  0  0  0
   38.4578  -17.2709   33.3439 H   0  0  0  0  0  0  0  0  0  0  0  0
   37.3236  -18.2059   32.4814 H   0  0  0  0  0  0  0  0  0  0  0  0
   39.8484  -19.5133   34.1895 C   0  0  0  0  0  0  0  0  0  0  0  0
   40.2456  -20.9325   33.9315 C   0  0  0  0  0  0  0  0  0  0  0  0
   39.4907  -21.9864   34.3470 C   0  0  0  0  0  0  0  0  0  0  0  0
   39.8288  -23.3106   34.1250 C   0  0  0  0  0  0  0  0  0  0  0  0
   41.0045  -23.5600   33.4400 C   0  0  0  0  0  0  0  0  0  0  0  0
   41.7901  -22.5038   33.0068 C   0  0  0  0  0  0  0  0  0  0  0  0
   41.4254  -21.2142   33.2435 C   0  0  0  0  0  0  0  0  0  0  0  0
   35.6278  -18.2655   36.2665 C   0  0  0  0  0  0  0  0  0  0  0  0
   34.7530  -19.3569   36.7190 C   0  0  0  0  0  0  0  0  0  0  0  0
   34.0662  -20.0024   35.8549 O   0  0  0  0  0  0  0  0  0  0  0  0
   34.5936  -19.7709   38.0202 O   0  0  0  0  0  0  0  0  0  0  0  0
   35.3410  -20.1502   38.5944 H   0  0  0  0  0  0  0  0  0  0  0  0
   34.9352  -16.9931   35.8814 C   0  0  0  0  0  0  0  0  0  0  0  0
   35.5860  -15.8103   36.4325 C   0  0  0  0  0  0  0  0  0  0  0  0
   36.6011  -15.8690   37.3439 C   0  0  0  0  0  0  0  0  0  0  0  0
   37.1646  -14.7248   37.8164 C   0  0  0  0  0  0  0  0  0  0  0  0
   36.7216  -13.4925   37.3840 C   0  0  0  0  0  0  0  0  0  0  0  0
   35.6948  -13.4412   36.4625 C   0  0  0  0  0  0  0  0  0  0  0  0
   35.1155  -14.5714   35.9754 C   0  0  0  0  0  0  0  0  0  0  0  0
  5  6  1  0  0  0
  6  9  1  0  0  0
  9 10  1  0  0  0
 10 11  2  0  0  0
 11 12  1  0  0  0
 12 13  2  0  0  0
 13 14  1  0  0  0
 14 15  2  0  0  0
  6  1  1  0  0  0
  1  2  2  0  0  0
  1  3  1  0  0  0
  3 16  1  0  0  0
 16 17  1  0  0  0
 17 18  2  0  0  0
 17 19  1  0  0  0
 16 21  1  0  0  0
 21 22  1  0  0  0
 22 23  2  0  0  0
 23 24  1  0  0  0
 24 25  2  0  0  0
 25 26  1  0  0  0
 26 27  2  0  0  0
 15 10  1  0  0  0
 27 22  1  0  0  0
  5  7  1  0  0  0
  5  8  1  0  0  0
  3  4  1  0  0  0
 19 20  1  0  0  0
M  END
> <minimizedAffinity>
-6.06259

> <CNNscore>
0.2475945204

> <CNNaffinity>
4.1711864471

> <CNN_VS>
1.0327628851

> <CNNaffinity_variance>
0.4302292764

$$$$
[H]OC(=O)[C@@]([H])(N([H])C(=O)[C@@]([H])(N([H])[H])C([H])([H])c1c([H])c([H])c([H])c([H])c1[H])C([H])([H])c1c([H])c([H])c([H])c([H])c1[H]


 27 28  0  0  0  0  0  0  0  0999 V2000
   33.5772  -18.5612   34.2791 C   0  0  0  0  0  0  0  0  0  0  0  0
   33.1693  -17.4077   34.0816 O   0  0  0  0  0  0  0  0  0  0  0  0
   34.9016  -18.8585   34.6942 N   0  0  0  0  0  0  0  0  0  0  0  0
   35.2846  -19.7863   34.8689 H   0  0  0  0  0  0  0  0  0  0  0  0
   33.3764  -20.6868   33.2386 N   0  0  0  0  0  0  0  0  0  0  0  0
   32.6855  -19.7540   34.0909 C   0  0  0  0  0  0  0  0  0  0  0  0
   34.3878  -20.7605   33.4706 H   0  0  0  0  0  0  0  0  0  0  0  0
   33.2813  -20.3639   32.2366 H   0  0  0  0  0  0  0  0  0  0  0  0
   32.5008  -20.3641   35.4603 C   0  0  0  0  0  0  0  0  0  0  0  0
   31.2506  -21.1835   35.5235 C   0  0  0  0  0  0  0  0  0  0  0  0
   30.0209  -20.6231   35.6883 C   0  0  0  0  0  0  0  0  0  0  0  0
   28.8450  -21.3514   35.7508 C   0  0  0  0  0  0  0  0  0  0  0  0
   28.9426  -22.7267   35.6378 C   0  0  0  0  0  0  0  0  0  0  0  0
   30.1833  -23.3207   35.4695 C   0  0  0  0  0  0  0  0  0  0  0  0
   31.3182  -22.5719   35.4125 C   0  0  0  0  0  0  0  0  0  0  0  0
   35.8059  -17.7079   34.8891 C   0  0  0  0  0  0  0  0  0  0  0  0
   37.1521  -18.0866   34.4358 C   0  0  0  0  0  0  0  0  0  0  0  0
   37.9856  -18.5547   35.2851 O   0  0  0  0  0  0  0  0  0  0  0  0
   37.6227  -17.9883   33.1479 O   0  0  0  0  0  0  0  0  0  0  0  0
   37.2300  -18.4900   32.3565 H   0  0  0  0  0  0  0  0  0  0  0  0
   35.6785  -17.3769   36.3455 C   0  0  0  0  0  0  0  0  0  0  0  0
   35.8358  -15.9522   36.6137 C   0  0  0  0  0  0  0  0  0  0  0  0
   34.9844  -15.0000   36.1312 C   0  0  0  0  0  0  0  0  0  0  0  0
   35.1896  -13.6871   36.4214 C   0  0  0  0  0  0  0  0  0  0  0  0
   36.2562  -13.2987   37.2045 C   0  0  0  0  0  0  0  0  0  0  0  0
   37.1127  -14.2673   37.6887 C   0  0  0  0  0  0  0  0  0  0  0  0
   36.9283  -15.5863   37.4121 C   0  0  0  0  0  0  0  0  0  0  0  0
  5  6  1  0  0  0
  6  9  1  0  0  0
  9 10  1  0  0  0
 10 11  2  0  0  0
 11 12  1  0  0  0
 12 13  2  0  0  0
 13 14  1  0  0  0
 14 15  2  0  0  0
  6  1  1  0  0  0
  1  2  2  0  0  0
  1  3  1  0  0  0
  3 16  1  0  0  0
 16 17  1  0  0  0
 17 18  2  0  0  0
 17 19  1  0  0  0
 16 21  1  0  0  0
 21 22  1  0  0  0
 22 23  2  0  0  0
 23 24  1  0  0  0
 24 25  2  0  0  0
 25 26  1  0  0  0
 26 27  2  0  0  0
 15 10  1  0  0  0
 27 22  1  0  0  0
  5  7  1  0  0  0
  5  8  1  0  0  0
  3  4  1  0  0  0
 19 20  1  0  0  0
M  END
> <minimizedAffinity>
-7.21102

> <CNNscore>
0.2017574310

> <CNNaffinity>
4.1377158165

> <CNN_VS>
0.8348149061

> <CNNaffinity_variance>
0.6398411989

$$$$
[H]c1c([H])c([H])c2c(c1[H])c1c3c(c4c5c([H])c([H])c([H])c([H])c5n5c4c1n2[C@@]1([H])O[C@@]5(C([H])([H])[H])[C@@]([H])(N([H])C([H])([H])[H])C1([H])[H])C([H])([H])N([H])C3=O


 34 41  0  0  0  0  0  0  0  0999 V2000
   39.1798  -18.6299   34.1564 C   0  0  0  0  0  0  0  0  0  0  0  0
   40.3066  -19.2553   34.9240 C   0  0  0  0  0  0  0  0  0  0  0  0
   39.7187  -20.0025   36.0842 C   0  0  0  0  0  0  0  0  0  0  0  0
   38.2285  -19.8389   36.0337 O   0  0  0  0  0  0  0  0  0  0  0  0
   37.8954  -18.9907   34.8422 C   0  0  0  0  0  0  0  0  0  0  0  0
   36.5196  -18.5759   34.4121 C   0  0  0  0  0  0  0  0  0  0  0  0
   36.6850  -19.4194   35.6176 N   0  0  0  0  0  0  0  0  0  0  0  0
   35.2841  -19.0386   35.2400 C   0  0  0  0  0  0  0  0  0  0  0  0
   34.7375  -18.2152   34.1116 C   0  0  0  0  0  0  0  0  0  0  0  0
   33.2579  -18.0018   33.9872 C   0  0  0  0  0  0  0  0  0  0  0  0
   32.3251  -18.6117   34.9911 C   0  0  0  0  0  0  0  0  0  0  0  0
   32.8719  -19.4351   36.1195 C   0  0  0  0  0  0  0  0  0  0  0  0
   34.3514  -19.6485   36.2439 C   0  0  0  0  0  0  0  0  0  0  0  0
   35.1757  -20.4063   37.2420 C   0  0  0  0  0  0  0  0  0  0  0  0
   35.0014  -21.2870   38.5444 C   0  0  0  0  0  0  0  0  0  0  0  0
   33.7170  -21.6477   39.2302 C   0  0  0  0  0  0  0  0  0  0  0  0
   34.0501  -22.4960   40.4216 N   0  0  0  0  0  0  0  0  0  0  0  0
   35.5403  -22.6595   40.4722 C   0  0  0  0  0  0  0  0  0  0  0  0
   36.3078  -23.4342   41.5021 O   0  0  0  0  0  0  0  0  0  0  0  0
   36.1283  -21.9123   39.3120 C   0  0  0  0  0  0  0  0  0  0  0  0
   37.5441  -21.7206   38.8553 C   0  0  0  0  0  0  0  0  0  0  0  0
   38.8922  -22.1684   39.3370 C   0  0  0  0  0  0  0  0  0  0  0  0
   39.3120  -23.0089   40.5064 C   0  0  0  0  0  0  0  0  0  0  0  0
   40.7655  -23.2957   40.7406 C   0  0  0  0  0  0  0  0  0  0  0  0
   41.7993  -22.7419   39.8056 C   0  0  0  0  0  0  0  0  0  0  0  0
   41.3797  -21.9013   38.6362 C   0  0  0  0  0  0  0  0  0  0  0  0
   39.9261  -21.6146   38.4020 C   0  0  0  0  0  0  0  0  0  0  0  0
   39.2170  -20.8245   37.3423 N   0  0  0  0  0  0  0  0  0  0  0  0
   37.7449  -20.8900   37.6225 C   0  0  0  0  0  0  0  0  0  0  0  0
   36.6180  -20.2646   36.8549 C   0  0  0  0  0  0  0  0  0  0  0  0
   33.0658  -23.0784   41.3921 H   0  0  0  0  0  0  0  0  0  0  0  0
   41.6170  -18.7890   33.2708 C   0  0  0  0  0  0  0  0  0  0  0  0
   40.2765  -18.1160   33.2715 N   0  0  0  0  0  0  0  0  0  0  0  0
   40.2194  -17.1709   32.5101 H   0  0  0  0  0  0  0  0  0  0  0  0
 32 33  1  0  0  0
 33  1  1  0  0  0
  1  2  1  0  0  0
  2  3  1  0  0  0
  3  4  1  0  0  0
  4  5  1  0  0  0
  5  6  1  0  0  0
  5  7  1  0  0  0
  7  8  1  0  0  0
  8  9  2  0  0  0
  9 10  1  0  0  0
 10 11  2  0  0  0
 11 12  1  0  0  0
 12 13  2  0  0  0
 13 14  1  0  0  0
 14 15  2  0  0  0
 15 16  1  0  0  0
 16 17  1  0  0  0
 17 18  1  0  0  0
 18 19  2  0  0  0
 18 20  1  0  0  0
 20 21  2  0  0  0
 21 22  1  0  0  0
 22 23  2  0  0  0
 23 24  1  0  0  0
 24 25  2  0  0  0
 25 26  1  0  0  0
 26 27  2  0  0  0
 27 28  1  0  0  0
 28 29  1  0  0  0
 29 30  2  0  0  0
  5  1  1  0  0  0
 30  7  1  0  0  0
 28  3  1  0  0  0
 13  8  1  0  0  0
 30 14  1  0  0  0
 20 15  1  0  0  0
 29 21  1  0  0  0
 27 22  1  0  0  0
 33 34  1  0  0  0
 17 31  1  0  0  0
M  END
> <minimizedAffinity>
-6.21277

> <CNNscore>
0.6257779598

> <CNNaffinity>
5.4920654297

> <CNN_VS>
3.4368135929

> <CNNaffinity_variance>
0.1249480098

$$$$
[H]c1c([H])c([H])c2c(c1[H])c1c3c(c4c5c([H])c([H])c([H])c([H])c5n5c4c1n2[C@@]1([H])O[C@@]5(C([H])([H])[H])[C@@]([H])(N([H])C([H])([H])[H])C1([H])[H])C([H])([H])N([H])C3=O


 34 41  0  0  0  0  0  0  0  0999 V2000
   40.5997  -19.5142   35.7081 C   0  0  0  0  0  0  0  0  0  0  0  0
   39.2488  -19.0953   35.2086 C   0  0  0  0  0  0  0  0  0  0  0  0
   38.2115  -19.8226   36.0119 C   0  0  0  0  0  0  0  0  0  0  0  0
   38.9214  -20.6910   37.0079 O   0  0  0  0  0  0  0  0  0  0  0  0
   40.3974  -20.5003   36.8201 C   0  0  0  0  0  0  0  0  0  0  0  0
   41.4808  -21.1771   37.6064 C   0  0  0  0  0  0  0  0  0  0  0  0
   40.0627  -21.4718   37.9129 N   0  0  0  0  0  0  0  0  0  0  0  0
   41.0985  -22.1805   38.7345 C   0  0  0  0  0  0  0  0  0  0  0  0
   42.5977  -22.1373   38.7140 C   0  0  0  0  0  0  0  0  0  0  0  0
   43.3854  -22.9753   39.6771 C   0  0  0  0  0  0  0  0  0  0  0  0
   42.6738  -23.8564   40.6605 C   0  0  0  0  0  0  0  0  0  0  0  0
   41.1745  -23.8996   40.6809 C   0  0  0  0  0  0  0  0  0  0  0  0
   40.3869  -23.0616   39.7179 C   0  0  0  0  0  0  0  0  0  0  0  0
   38.9113  -22.8975   39.5043 C   0  0  0  0  0  0  0  0  0  0  0  0
   37.5340  -23.4256   40.0757 C   0  0  0  0  0  0  0  0  0  0  0  0
   37.3317  -24.4118   41.1876 C   0  0  0  0  0  0  0  0  0  0  0  0
   35.8557  -24.6024   41.3754 N   0  0  0  0  0  0  0  0  0  0  0  0
   35.1458  -23.7341   40.3794 C   0  0  0  0  0  0  0  0  0  0  0  0
   33.6597  -23.6140   40.2154 O   0  0  0  0  0  0  0  0  0  0  0  0
   36.1830  -23.0067   39.5761 C   0  0  0  0  0  0  0  0  0  0  0  0
   36.0719  -22.0171   38.4543 C   0  0  0  0  0  0  0  0  0  0  0  0
   34.9431  -21.3737   37.7049 C   0  0  0  0  0  0  0  0  0  0  0  0
   33.4538  -21.5056   37.8260 C   0  0  0  0  0  0  0  0  0  0  0  0
   32.5549  -20.7189   36.9188 C   0  0  0  0  0  0  0  0  0  0  0  0
   33.1453  -19.8002   35.8905 C   0  0  0  0  0  0  0  0  0  0  0  0
   34.6346  -19.6682   35.7694 C   0  0  0  0  0  0  0  0  0  0  0  0
   35.5334  -20.4550   36.6766 C   0  0  0  0  0  0  0  0  0  0  0  0
   37.0272  -20.5306   36.7905 N   0  0  0  0  0  0  0  0  0  0  0  0
   37.3600  -21.4961   37.8892 C   0  0  0  0  0  0  0  0  0  0  0  0
   38.7109  -21.9149   38.3887 C   0  0  0  0  0  0  0  0  0  0  0  0
   35.2041  -25.5032   42.3822 H   0  0  0  0  0  0  0  0  0  0  0  0
   41.3280  -19.0661   33.2548 C   0  0  0  0  0  0  0  0  0  0  0  0
   41.1066  -18.5745   34.6546 N   0  0  0  0  0  0  0  0  0  0  0  0
   41.3775  -17.3982   34.7930 H   0  0  0  0  0  0  0  0  0  0  0  0
 32 33  1  0  0  0
 33  1  1  0  0  0
  1  2  1  0  0  0
  2  3  1  0  0  0
  3  4  1  0  0  0
  4  5  1  0  0  0
  5  6  1  0  0  0
  5  7  1  0  0  0
  7  8  1  0  0  0
  8  9  2  0  0  0
  9 10  1  0  0  0
 10 11  2  0  0  0
 11 12  1  0  0  0
 12 13  2  0  0  0
 13 14  1  0  0  0
 14 15  2  0  0  0
 15 16  1  0  0  0
 16 17  1  0  0  0
 17 18  1  0  0  0
 18 19  2  0  0  0
 18 20  1  0  0  0
 20 21  2  0  0  0
 21 22  1  0  0  0
 22 23  2  0  0  0
 23 24  1  0  0  0
 24 25  2  0  0  0
 25 26  1  0  0  0
 26 27  2  0  0  0
 27 28  1  0  0  0
 28 29  1  0  0  0
 29 30  2  0  0  0
  5  1  1  0  0  0
 30  7  1  0  0  0
 28  3  1  0  0  0
 13  8  1  0  0  0
 30 14  1  0  0  0
 20 15  1  0  0  0
 29 21  1  0  0  0
 27 22  1  0  0  0
 33 34  1  0  0  0
 17 31  1  0  0  0
M  END
> <minimizedAffinity>
-3.94877

> <CNNscore>
0.5654885173

> <CNNaffinity>
5.5010156631

> <CNN_VS>
3.1107611656

> <CNNaffinity_variance>
0.1463695318

$$$$
[H]c1c([H])c([H])c2c(c1[H])c1c3c(c4c5c([H])c([H])c([H])c([H])c5n5c4c1n2[C@@]1([H])O[C@@]5(C([H])([H])[H])[C@@]([H])(N([H])C([H])([H])[H])C1([H])[H])C([H])([H])N([H])C3=O


 34 41  0  0  0  0  0  0  0  0999 V2000
   38.8601  -18.9143   34.9152 C   0  0  0  0  0  0  0  0  0  0  0  0
   37.5852  -18.7030   34.1537 C   0  0  0  0  0  0  0  0  0  0  0  0
   36.4672  -19.3197   34.9411 C   0  0  0  0  0  0  0  0  0  0  0  0
   37.0513  -19.9121   36.1893 O   0  0  0  0  0  0  0  0  0  0  0  0
   38.5301  -19.6616   36.1732 C   0  0  0  0  0  0  0  0  0  0  0  0
   39.5074  -20.0841   37.2298 C   0  0  0  0  0  0  0  0  0  0  0  0
   38.0717  -20.4077   37.3911 N   0  0  0  0  0  0  0  0  0  0  0  0
   38.9979  -20.8575   38.4820 C   0  0  0  0  0  0  0  0  0  0  0  0
   40.4801  -20.7147   38.6625 C   0  0  0  0  0  0  0  0  0  0  0  0
   41.1448  -21.2788   39.8832 C   0  0  0  0  0  0  0  0  0  0  0  0
   40.3272  -21.9857   40.9233 C   0  0  0  0  0  0  0  0  0  0  0  0
   38.8449  -22.1284   40.7427 C   0  0  0  0  0  0  0  0  0  0  0  0
   38.1803  -21.5643   39.5221 C   0  0  0  0  0  0  0  0  0  0  0  0
   36.7488  -21.5514   39.0741 C   0  0  0  0  0  0  0  0  0  0  0  0
   35.3224  -22.0452   39.5472 C   0  0  0  0  0  0  0  0  0  0  0  0
   34.9924  -22.7925   40.8052 C   0  0  0  0  0  0  0  0  0  0  0  0
   33.5135  -23.0430   40.8213 N   0  0  0  0  0  0  0  0  0  0  0  0
   32.9295  -22.4506   39.5731 C   0  0  0  0  0  0  0  0  0  0  0  0
   31.4818  -22.4712   39.1811 O   0  0  0  0  0  0  0  0  0  0  0  0
   34.0474  -21.8339   38.7856 C   0  0  0  0  0  0  0  0  0  0  0  0
   34.0691  -21.1073   37.4735 C   0  0  0  0  0  0  0  0  0  0  0  0
   33.0427  -20.7128   36.4534 C   0  0  0  0  0  0  0  0  0  0  0  0
   31.5585  -20.9207   36.3905 C   0  0  0  0  0  0  0  0  0  0  0  0
   30.7775  -20.4029   35.2193 C   0  0  0  0  0  0  0  0  0  0  0  0
   31.4807  -19.6771   34.1109 C   0  0  0  0  0  0  0  0  0  0  0  0
   32.9650  -19.4691   34.1736 C   0  0  0  0  0  0  0  0  0  0  0  0
   33.7459  -19.9870   35.3449 C   0  0  0  0  0  0  0  0  0  0  0  0
   35.2070  -19.9329   35.6800 N   0  0  0  0  0  0  0  0  0  0  0  0
   35.4068  -20.6252   36.9956 C   0  0  0  0  0  0  0  0  0  0  0  0
   36.6817  -20.8365   37.7571 C   0  0  0  0  0  0  0  0  0  0  0  0
   32.7524  -23.7600   41.8966 H   0  0  0  0  0  0  0  0  0  0  0  0
   40.8826  -18.5082   33.3358 C   0  0  0  0  0  0  0  0  0  0  0  0
   39.4838  -18.1791   33.7661 N   0  0  0  0  0  0  0  0  0  0  0  0
   38.9760  -17.3003   33.0982 H   0  0  0  0  0  0  0  0  0  0  0  0
 32 33  1  0  0  0
 33  1  1  0  0  0
  1  2  1  0  0  0
  2  3  1  0  0  0
  3  4  1  0  0  0
  4  5  1  0  0  0
  5  6  1  0  0  0
  5  7  1  0  0  0
  7  8  1  0  0  0
  8  9  2  0  0  0
  9 10  1  0  0  0
 10 11  2  0  0  0
 11 12  1  0  0  0
 12 13  2  0  0  0
 13 14  1  0  0  0
 14 15  2  0  0  0
 15 16  1  0  0  0
 16 17  1  0  0  0
 17 18  1  0  0  0
 18 19  2  0  0  0
 18 20  1  0  0  0
 20 21  2  0  0  0
 21 22  1  0  0  0
 22 23  2  0  0  0
 23 24  1  0  0  0
 24 25  2  0  0  0
 25 26  1  0  0  0
 26 27  2  0  0  0
 27 28  1  0  0  0
 28 29  1  0  0  0
 29 30  2  0  0  0
  5  1  1  0  0  0
 30  7  1  0  0  0
 28  3  1  0  0  0
 13  8  1  0  0  0
 30 14  1  0  0  0
 20 15  1  0  0  0
 29 21  1  0  0  0
 27 22  1  0  0  0
 33 34  1  0  0  0
 17 31  1  0  0  0
M  END
> <minimizedAffinity>
-6.40988

> <CNNscore>
0.5455222130

> <CNNaffinity>
5.3325943947

> <CNN_VS>
2.9090487957

> <CNNaffinity_variance>
0.2003458440

$$$$
[H]c1c([H])c([H])c2c(c1[H])c1c3c(c4c5c([H])c([H])c([H])c([H])c5n5c4c1n2[C@@]1([H])O[C@@]5(C([H])([H])[H])[C@@]([H])(N([H])C([H])([H])[H])C1([H])[H])C([H])([H])N([H])C3=O


 34 41  0  0  0  0  0  0  0  0999 V2000
   37.5374  -20.4520   36.3397 C   0  0  0  0  0  0  0  0  0  0  0  0
   38.5665  -19.4701   36.8160 C   0  0  0  0  0  0  0  0  0  0  0  0
   37.9505  -18.1027   36.7882 C   0  0  0  0  0  0  0  0  0  0  0  0
   36.5406  -18.2395   36.2946 O   0  0  0  0  0  0  0  0  0  0  0  0
   36.2853  -19.6914   36.0175 C   0  0  0  0  0  0  0  0  0  0  0  0
   35.0031  -20.2795   35.5076 C   0  0  0  0  0  0  0  0  0  0  0  0
   35.0988  -18.8193   35.7321 N   0  0  0  0  0  0  0  0  0  0  0  0
   33.7902  -19.3454   35.2215 C   0  0  0  0  0  0  0  0  0  0  0  0
   33.3292  -20.7322   34.8835 C   0  0  0  0  0  0  0  0  0  0  0  0
   31.9331  -20.9574   34.3830 C   0  0  0  0  0  0  0  0  0  0  0  0
   30.9982  -19.7958   34.2205 C   0  0  0  0  0  0  0  0  0  0  0  0
   31.4592  -18.4090   34.5585 C   0  0  0  0  0  0  0  0  0  0  0  0
   32.8552  -18.1838   35.0590 C   0  0  0  0  0  0  0  0  0  0  0  0
   33.5859  -16.9396   35.4692 C   0  0  0  0  0  0  0  0  0  0  0  0
   33.3547  -15.3800   35.5964 C   0  0  0  0  0  0  0  0  0  0  0  0
   32.1026  -14.6194   35.2742 C   0  0  0  0  0  0  0  0  0  0  0  0
   32.3578  -13.1675   35.5513 N   0  0  0  0  0  0  0  0  0  0  0  0
   33.7677  -13.0307   36.0449 C   0  0  0  0  0  0  0  0  0  0  0  0
   34.4430  -11.7512   36.4410 O   0  0  0  0  0  0  0  0  0  0  0  0
   34.3839  -14.3981   36.0727 C   0  0  0  0  0  0  0  0  0  0  0  0
   35.7490  -14.8760   36.4703 C   0  0  0  0  0  0  0  0  0  0  0  0
   37.0022  -14.2272   36.9783 C   0  0  0  0  0  0  0  0  0  0  0  0
   37.3409  -12.7975   37.2807 C   0  0  0  0  0  0  0  0  0  0  0  0
   38.7067  -12.4413   37.7882 C   0  0  0  0  0  0  0  0  0  0  0  0
   39.7340  -13.5148   37.9934 C   0  0  0  0  0  0  0  0  0  0  0  0
   39.3955  -14.9446   37.6911 C   0  0  0  0  0  0  0  0  0  0  0  0
   38.0296  -15.3007   37.1836 C   0  0  0  0  0  0  0  0  0  0  0  0
   37.4112  -16.6131   36.8023 N   0  0  0  0  0  0  0  0  0  0  0  0
   36.0017  -16.3506   36.3615 C   0  0  0  0  0  0  0  0  0  0  0  0
   34.9726  -17.3324   35.8852 C   0  0  0  0  0  0  0  0  0  0  0  0
   31.3758  -12.0488   35.3673 H   0  0  0  0  0  0  0  0  0  0  0  0
   39.3215  -22.0935   35.4057 C   0  0  0  0  0  0  0  0  0  0  0  0
   38.6218  -21.4619   36.5725 N   0  0  0  0  0  0  0  0  0  0  0  0
   39.0326  -21.8597   37.6446 H   0  0  0  0  0  0  0  0  0  0  0  0
 32 33  1  0  0  0
 33  1  1  0  0  0
  1  2  1  0  0  0
  2  3  1  0  0  0
  3  4  1  0  0  0
  4  5  1  0  0  0
  5  6  1  0  0  0
  5  7  1  0  0  0
  7  8  1  0  0  0
  8  9  2  0  0  0
  9 10  1  0  0  0
 10 11  2  0  0  0
 11 12  1  0  0  0
 12 13  2  0  0  0
 13 14  1  0  0  0
 14 15  2  0  0  0
 15 16  1  0  0  0
 16 17  1  0  0  0
 17 18  1  0  0  0
 18 19  2  0  0  0
 18 20  1  0  0  0
 20 21  2  0  0  0
 21 22  1  0  0  0
 22 23  2  0  0  0
 23 24  1  0  0  0
 24 25  2  0  0  0
 25 26  1  0  0  0
 26 27  2  0  0  0
 27 28  1  0  0  0
 28 29  1  0  0  0
 29 30  2  0  0  0
  5  1  1  0  0  0
 30  7  1  0  0  0
 28  3  1  0  0  0
 13  8  1  0  0  0
 30 14  1  0  0  0
 20 15  1  0  0  0
 29 21  1  0  0  0
 27 22  1  0  0  0
 33 34  1  0  0  0
 17 31  1  0  0  0
M  END
> <minimizedAffinity>
7.33754

> <CNNscore>
0.5239126682

> <CNNaffinity>
5.7789654732

> <CNN_VS>
3.0276732445

> <CNNaffinity_variance>
0.1340055019

$$$$
[H]c1c([H])c([H])c2c(c1[H])c1c3c(c4c5c([H])c([H])c([H])c([H])c5n5c4c1n2[C@@]1([H])O[C@@]5(C([H])([H])[H])[C@@]([H])(N([H])C([H])([H])[H])C1([H])[H])C([H])([H])N([H])C3=O


 34 41  0  0  0  0  0  0  0  0999 V2000
   40.6901  -18.7610   34.4413 C   0  0  0  0  0  0  0  0  0  0  0  0
   41.7273  -19.3986   35.3174 C   0  0  0  0  0  0  0  0  0  0  0  0
   41.0185  -20.1227   36.4234 C   0  0  0  0  0  0  0  0  0  0  0  0
   39.5431  -19.9326   36.2309 O   0  0  0  0  0  0  0  0  0  0  0  0
   39.3401  -19.0910   35.0059 C   0  0  0  0  0  0  0  0  0  0  0  0
   38.0191  -18.6558   34.4441 C   0  0  0  0  0  0  0  0  0  0  0  0
   38.0541  -19.4893   35.6672 N   0  0  0  0  0  0  0  0  0  0  0  0
   36.7026  -19.0871   35.1556 C   0  0  0  0  0  0  0  0  0  0  0  0
   36.2806  -18.2659   33.9735 C   0  0  0  0  0  0  0  0  0  0  0  0
   34.8236  -18.0269   33.7080 C   0  0  0  0  0  0  0  0  0  0  0  0
   33.7889  -18.6090   34.6246 C   0  0  0  0  0  0  0  0  0  0  0  0
   34.2110  -19.4302   35.8068 C   0  0  0  0  0  0  0  0  0  0  0  0
   35.6678  -19.6693   36.0723 C   0  0  0  0  0  0  0  0  0  0  0  0
   36.3797  -20.4313   37.1505 C   0  0  0  0  0  0  0  0  0  0  0  0
   36.0665  -21.2949   38.4383 C   0  0  0  0  0  0  0  0  0  0  0  0
   34.7166  -21.6249   39.0028 C   0  0  0  0  0  0  0  0  0  0  0  0
   34.9195  -22.4665   40.2278 N   0  0  0  0  0  0  0  0  0  0  0  0
   36.3949  -22.6566   40.4203 C   0  0  0  0  0  0  0  0  0  0  0  0
   37.0470  -23.4343   41.5249 O   0  0  0  0  0  0  0  0  0  0  0  0
   37.1039  -21.9326   39.3143 C   0  0  0  0  0  0  0  0  0  0  0  0
   38.5599  -21.7715   38.9918 C   0  0  0  0  0  0  0  0  0  0  0  0
   39.8477  -22.2387   39.6026 C   0  0  0  0  0  0  0  0  0  0  0  0
   40.1392  -23.0743   40.8137 C   0  0  0  0  0  0  0  0  0  0  0  0
   41.5584  -23.3850   41.1867 C   0  0  0  0  0  0  0  0  0  0  0  0
   42.6862  -22.8601   40.3487 C   0  0  0  0  0  0  0  0  0  0  0  0
   42.3948  -22.0244   39.1375 C   0  0  0  0  0  0  0  0  0  0  0  0
   40.9756  -21.7138   38.7645 C   0  0  0  0  0  0  0  0  0  0  0  0
   40.3848  -20.9220   37.6357 N   0  0  0  0  0  0  0  0  0  0  0  0
   38.8918  -20.9578   37.7762 C   0  0  0  0  0  0  0  0  0  0  0  0
   37.8546  -20.3201   36.9001 C   0  0  0  0  0  0  0  0  0  0  0  0
   33.8372  -23.0206   41.1061 H   0  0  0  0  0  0  0  0  0  0  0  0
   43.1724  -17.9984   34.3591 C   0  0  0  0  0  0  0  0  0  0  0  0
   41.8750  -18.2766   33.6595 N   0  0  0  0  0  0  0  0  0  0  0  0
   41.9260  -18.0673   32.4637 H   0  0  0  0  0  0  0  0  0  0  0  0
 32 33  1  0  0  0
 33  1  1  0  0  0
  1  2  1  0  0  0
  2  3  1  0  0  0
  3  4  1  0  0  0
  4  5  1  0  0  0
  5  6  1  0  0  0
  5  7  1  0  0  0
  7  8  1  0  0  0
  8  9  2  0  0  0
  9 10  1  0  0  0
 10 11  2  0  0  0
 11 12  1  0  0  0
 12 13  2  0  0  0
 13 14  1  0  0  0
 14 15  2  0  0  0
 15 16  1  0  0  0
 16 17  1  0  0  0
 17 18  1  0  0  0
 18 19  2  0  0  0
 18 20  1  0  0  0
 20 21  2  0  0  0
 21 22  1  0  0  0
 22 23  2  0  0  0
 23 24  1  0  0  0
 24 25  2  0  0  0
 25 26  1  0  0  0
 26 27  2  0  0  0
 27 28  1  0  0  0
 28 29  1  0  0  0
 29 30  2  0  0  0
  5  1  1  0  0  0
 30  7  1  0  0  0
 28  3  1  0  0  0
 13  8  1  0  0  0
 30 14  1  0  0  0
 20 15  1  0  0  0
 29 21  1  0  0  0
 27 22  1  0  0  0
 33 34  1  0  0  0
 17 31  1  0  0  0
M  END
> <minimizedAffinity>
-5.57022

> <CNNscore>
0.5135053992

> <CNNaffinity>
5.5173768997

> <CNN_VS>
2.8332028389

> <CNNaffinity_variance>
0.0431174040

$$$$
[H]c1c([H])c([H])c2c(c1[H])c1c3c(c4c5c([H])c([H])c([H])c([H])c5n5c4c1n2[C@@]1([H])O[C@@]5(C([H])([H])[H])[C@@]([H])(N([H])C([H])([H])[H])C1([H])[H])C([H])([H])N([H])C3=O


 34 41  0  0  0  0  0  0  0  0999 V2000
   37.7694  -18.9962   35.1147 C   0  0  0  0  0  0  0  0  0  0  0  0
   36.4755  -18.7026   34.4150 C   0  0  0  0  0  0  0  0  0  0  0  0
   35.3769  -19.4022   35.1592 C   0  0  0  0  0  0  0  0  0  0  0  0
   35.9919  -20.1282   36.3188 O   0  0  0  0  0  0  0  0  0  0  0  0
   37.4705  -19.8772   36.2913 C   0  0  0  0  0  0  0  0  0  0  0  0
   38.4741  -20.4133   37.2689 C   0  0  0  0  0  0  0  0  0  0  0  0
   37.0422  -20.7527   37.4315 N   0  0  0  0  0  0  0  0  0  0  0  0
   37.9955  -21.3196   38.4415 C   0  0  0  0  0  0  0  0  0  0  0  0
   39.4823  -21.1974   38.5973 C   0  0  0  0  0  0  0  0  0  0  0  0
   40.1773  -21.8922   39.7307 C   0  0  0  0  0  0  0  0  0  0  0  0
   39.3854  -22.7092   40.7081 C   0  0  0  0  0  0  0  0  0  0  0  0
   37.8985  -22.8314   40.5522 C   0  0  0  0  0  0  0  0  0  0  0  0
   37.2036  -22.1366   39.4189 C   0  0  0  0  0  0  0  0  0  0  0  0
   35.7608  -22.0747   39.0131 C   0  0  0  0  0  0  0  0  0  0  0  0
   34.3460  -22.6177   39.4665 C   0  0  0  0  0  0  0  0  0  0  0  0
   34.0471  -23.4987   40.6431 C   0  0  0  0  0  0  0  0  0  0  0  0
   32.5685  -23.7497   40.6706 N   0  0  0  0  0  0  0  0  0  0  0  0
   31.9535  -23.0237   39.5110 C   0  0  0  0  0  0  0  0  0  0  0  0
   30.4959  -23.0013   39.1576 O   0  0  0  0  0  0  0  0  0  0  0  0
   33.0520  -22.3241   38.7668 C   0  0  0  0  0  0  0  0  0  0  0  0
   33.0413  -21.4576   37.5424 C   0  0  0  0  0  0  0  0  0  0  0  0
   31.9895  -20.9535   36.5993 C   0  0  0  0  0  0  0  0  0  0  0  0
   30.5036  -21.1535   36.5532 C   0  0  0  0  0  0  0  0  0  0  0  0
   29.6935  -20.5101   35.4670 C   0  0  0  0  0  0  0  0  0  0  0  0
   30.3693  -19.6668   34.4268 C   0  0  0  0  0  0  0  0  0  0  0  0
   31.8553  -19.4668   34.4728 C   0  0  0  0  0  0  0  0  0  0  0  0
   32.6653  -20.1102   35.5590 C   0  0  0  0  0  0  0  0  0  0  0  0
   34.1349  -20.0931   35.8593 N   0  0  0  0  0  0  0  0  0  0  0  0
   34.3672  -20.9258   37.0851 C   0  0  0  0  0  0  0  0  0  0  0  0
   35.6611  -21.2194   37.7848 C   0  0  0  0  0  0  0  0  0  0  0  0
   31.8338  -24.5806   41.6804 H   0  0  0  0  0  0  0  0  0  0  0  0
   39.7406  -18.4348   33.5181 C   0  0  0  0  0  0  0  0  0  0  0  0
   38.3647  -18.1391   34.0373 N   0  0  0  0  0  0  0  0  0  0  0  0
   37.8496  -17.1801   33.4975 H   0  0  0  0  0  0  0  0  0  0  0  0
 32 33  1  0  0  0
 33  1  1  0  0  0
  1  2  1  0  0  0
  2  3  1  0  0  0
  3  4  1  0  0  0
  4  5  1  0  0  0
  5  6  1  0  0  0
  5  7  1  0  0  0
  7  8  1  0  0  0
  8  9  2  0  0  0
  9 10  1  0  0  0
 10 11  2  0  0  0
 11 12  1  0  0  0
 12 13  2  0  0  0
 13 14  1  0  0  0
 14 15  2  0  0  0
 15 16  1  0  0  0
 16 17  1  0  0  0
 17 18  1  0  0  0
 18 19  2  0  0  0
 18 20  1  0  0  0
 20 21  2  0  0  0
 21 22  1  0  0  0
 22 23  2  0  0  0
 23 24  1  0  0  0
 24 25  2  0  0  0
 25 26  1  0  0  0
 26 27  2  0  0  0
 27 28  1  0  0  0
 28 29  1  0  0  0
 29 30  2  0  0  0
  5  1  1  0  0  0
 30  7  1  0  0  0
 28  3  1  0  0  0
 13  8  1  0  0  0
 30 14  1  0  0  0
 20 15  1  0  0  0
 29 21  1  0  0  0
 27 22  1  0  0  0
 33 34  1  0  0  0
 17 31  1  0  0  0
M  END
> <minimizedAffinity>
-5.96488

> <CNNscore>
0.5117037296

> <CNNaffinity>
5.3245849609

> <CNN_VS>
2.7246100903

> <CNNaffinity_variance>
0.1070816070

$$$$
[H]c1c([H])c([H])c2c(c1[H])c1c3c(c4c5c([H])c([H])c([H])c([H])c5n5c4c1n2[C@@]1([H])O[C@@]5(C([H])([H])[H])[C@@]([H])(N([H])C([H])([H])[H])C1([H])[H])C([H])([H])N([H])C3=O


 34 41  0  0  0  0  0  0  0  0999 V2000
   42.0118  -18.1181   36.7840 C   0  0  0  0  0  0  0  0  0  0  0  0
   43.1240  -18.8091   37.5158 C   0  0  0  0  0  0  0  0  0  0  0  0
   42.5536  -20.0237   38.1862 C   0  0  0  0  0  0  0  0  0  0  0  0
   41.0888  -20.0834   37.8688 O   0  0  0  0  0  0  0  0  0  0  0  0
   40.7539  -18.9057   37.0022 C   0  0  0  0  0  0  0  0  0  0  0  0
   39.3991  -18.5739   36.4506 C   0  0  0  0  0  0  0  0  0  0  0  0
   39.5694  -19.7781   37.2948 N   0  0  0  0  0  0  0  0  0  0  0  0
   38.1902  -19.5011   36.7738 C   0  0  0  0  0  0  0  0  0  0  0  0
   37.6458  -18.4030   35.9091 C   0  0  0  0  0  0  0  0  0  0  0  0
   36.1910  -18.3874   35.5439 C   0  0  0  0  0  0  0  0  0  0  0  0
   35.2807  -19.4698   36.0434 C   0  0  0  0  0  0  0  0  0  0  0  0
   35.8252  -20.5680   36.9081 C   0  0  0  0  0  0  0  0  0  0  0  0
   37.2800  -20.5836   37.2733 C   0  0  0  0  0  0  0  0  0  0  0  0
   38.0964  -21.5297   38.1030 C   0  0  0  0  0  0  0  0  0  0  0  0
   37.9333  -22.8570   38.9479 C   0  0  0  0  0  0  0  0  0  0  0  0
   36.6755  -23.6446   39.1660 C   0  0  0  0  0  0  0  0  0  0  0  0
   37.0103  -24.8223   40.0326 N   0  0  0  0  0  0  0  0  0  0  0  0
   38.4751  -24.7626   40.3500 C   0  0  0  0  0  0  0  0  0  0  0  0
   39.2359  -25.7449   41.1903 O   0  0  0  0  0  0  0  0  0  0  0  0
   39.0456  -23.5480   39.6797 C   0  0  0  0  0  0  0  0  0  0  0  0
   40.4341  -22.9819   39.6410 C   0  0  0  0  0  0  0  0  0  0  0  0
   41.7620  -23.3679   40.2221 C   0  0  0  0  0  0  0  0  0  0  0  0
   42.1819  -24.5168   41.0902 C   0  0  0  0  0  0  0  0  0  0  0  0
   43.6119  -24.6452   41.5246 C   0  0  0  0  0  0  0  0  0  0  0  0
   44.6220  -23.6248   41.0908 C   0  0  0  0  0  0  0  0  0  0  0  0
   44.2021  -22.4758   40.2226 C   0  0  0  0  0  0  0  0  0  0  0  0
   42.7722  -22.3474   39.7883 C   0  0  0  0  0  0  0  0  0  0  0  0
   42.0685  -21.3306   38.9390 N   0  0  0  0  0  0  0  0  0  0  0  0
   40.6236  -21.7228   38.8480 C   0  0  0  0  0  0  0  0  0  0  0  0
   39.5114  -21.0319   38.1162 C   0  0  0  0  0  0  0  0  0  0  0  0
   36.0492  -25.8748   40.4997 H   0  0  0  0  0  0  0  0  0  0  0  0
   44.1827  -17.5678   35.4671 C   0  0  0  0  0  0  0  0  0  0  0  0
   43.0840  -17.1436   36.3960 N   0  0  0  0  0  0  0  0  0  0  0  0
   43.1864  -15.9876   36.7557 H   0  0  0  0  0  0  0  0  0  0  0  0
 32 33  1  0  0  0
 33  1  1  0  0  0
  1  2  1  0  0  0
  2  3  1  0  0  0
  3  4  1  0  0  0
  4  5  1  0  0  0
  5  6  1  0  0  0
  5  7  1  0  0  0
  7  8  1  0  0  0
  8  9  2  0  0  0
  9 10  1  0  0  0
 10 11  2  0  0  0
 11 12  1  0  0  0
 12 13  2  0  0  0
 13 14  1  0  0  0
 14 15  2  0  0  0
 15 16  1  0  0  0
 16 17  1  0  0  0
 17 18  1  0  0  0
 18 19  2  0  0  0
 18 20  1  0  0  0
 20 21  2  0  0  0
 21 22  1  0  0  0
 22 23  2  0  0  0
 23 24  1  0  0  0
 24 25  2  0  0  0
 25 26  1  0  0  0
 26 27  2  0  0  0
 27 28  1  0  0  0
 28 29  1  0  0  0
 29 30  2  0  0  0
  5  1  1  0  0  0
 30  7  1  0  0  0
 28  3  1  0  0  0
 13  8  1  0  0  0
 30 14  1  0  0  0
 20 15  1  0  0  0
 29 21  1  0  0  0
 27 22  1  0  0  0
 33 34  1  0  0  0
 17 31  1  0  0  0
M  END
> <minimizedAffinity>
-3.92893

> <CNNscore>
0.5046079159

> <CNNaffinity>
5.5396246910

> <CNN_VS>
2.7953383923

> <CNNaffinity_variance>
0.1717526466

$$$$
[H]c1c([H])c([H])c2c(c1[H])c1c3c(c4c5c([H])c([H])c([H])c([H])c5n5c4c1n2[C@@]1([H])O[C@@]5(C([H])([H])[H])[C@@]([H])(N([H])C([H])([H])[H])C1([H])[H])C([H])([H])N([H])C3=O


 34 41  0  0  0  0  0  0  0  0999 V2000
   36.6025  -18.4277   34.0476 C   0  0  0  0  0  0  0  0  0  0  0  0
   37.8977  -18.7007   34.7533 C   0  0  0  0  0  0  0  0  0  0  0  0
   37.6045  -19.5682   35.9413 C   0  0  0  0  0  0  0  0  0  0  0  0
   36.1280  -19.8314   35.9699 O   0  0  0  0  0  0  0  0  0  0  0  0
   35.5088  -19.1266   34.7996 C   0  0  0  0  0  0  0  0  0  0  0  0
   34.0516  -19.1215   34.4437 C   0  0  0  0  0  0  0  0  0  0  0  0
   34.5097  -19.8687   35.6369 N   0  0  0  0  0  0  0  0  0  0  0  0
   33.0408  -19.9025   35.3347 C   0  0  0  0  0  0  0  0  0  0  0  0
   32.2271  -19.2809   34.2385 C   0  0  0  0  0  0  0  0  0  0  0  0
   30.7430  -19.4942   34.1930 C   0  0  0  0  0  0  0  0  0  0  0  0
   30.0727  -20.3291   35.2434 C   0  0  0  0  0  0  0  0  0  0  0  0
   30.8865  -20.9507   36.3396 C   0  0  0  0  0  0  0  0  0  0  0  0
   32.3705  -20.7374   36.3851 C   0  0  0  0  0  0  0  0  0  0  0  0
   33.4250  -21.2196   37.3367 C   0  0  0  0  0  0  0  0  0  0  0  0
   33.5730  -22.0970   38.6446 C   0  0  0  0  0  0  0  0  0  0  0  0
   32.4793  -22.7959   39.3965 C   0  0  0  0  0  0  0  0  0  0  0  0
   33.0985  -23.5007   40.5669 N   0  0  0  0  0  0  0  0  0  0  0  0
   34.5750  -23.2375   40.5382 C   0  0  0  0  0  0  0  0  0  0  0  0
   35.5815  -23.7516   41.5245 O   0  0  0  0  0  0  0  0  0  0  0  0
   34.8683  -22.3700   39.3502 C   0  0  0  0  0  0  0  0  0  0  0  0
   36.1474  -21.7933   38.8198 C   0  0  0  0  0  0  0  0  0  0  0  0
   37.5898  -21.8373   39.2286 C   0  0  0  0  0  0  0  0  0  0  0  0
   38.2889  -22.5106   40.3723 C   0  0  0  0  0  0  0  0  0  0  0  0
   39.7743  -22.3736   40.5288 C   0  0  0  0  0  0  0  0  0  0  0  0
   40.5608  -21.5632   39.5416 C   0  0  0  0  0  0  0  0  0  0  0  0
   39.8619  -20.8898   38.3978 C   0  0  0  0  0  0  0  0  0  0  0  0
   38.3764  -21.0269   38.2414 C   0  0  0  0  0  0  0  0  0  0  0  0
   37.4200  -20.4820   37.2224 N   0  0  0  0  0  0  0  0  0  0  0  0
   36.0424  -20.9557   37.5799 C   0  0  0  0  0  0  0  0  0  0  0  0
   34.7472  -20.6827   36.8742 C   0  0  0  0  0  0  0  0  0  0  0  0
   32.3694  -24.3242   41.5867 H   0  0  0  0  0  0  0  0  0  0  0  0
   38.8928  -18.0334   32.8862 C   0  0  0  0  0  0  0  0  0  0  0  0
   37.4630  -17.6373   33.1071 N   0  0  0  0  0  0  0  0  0  0  0  0
   37.1360  -16.6608   32.4623 H   0  0  0  0  0  0  0  0  0  0  0  0
 32 33  1  0  0  0
 33  1  1  0  0  0
  1  2  1  0  0  0
  2  3  1  0  0  0
  3  4  1  0  0  0
  4  5  1  0  0  0
  5  6  1  0  0  0
  5  7  1  0  0  0
  7  8  1  0  0  0
  8  9  2  0  0  0
  9 10  1  0  0  0
 10 11  2  0  0  0
 11 12  1  0  0  0
 12 13  2  0  0  0
 13 14  1  0  0  0
 14 15  2  0  0  0
 15 16  1  0  0  0
 16 17  1  0  0  0
 17 18  1  0  0  0
 18 19  2  0  0  0
 18 20  1  0  0  0
 20 21  2  0  0  0
 21 22  1  0  0  0
 22 23  2  0  0  0
 23 24  1  0  0  0
 24 25  2  0  0  0
 25 26  1  0  0  0
 26 27  2  0  0  0
 27 28  1  0  0  0
 28 29  1  0  0  0
 29 30  2  0  0  0
  5  1  1  0  0  0
 30  7  1  0  0  0
 28  3  1  0  0  0
 13  8  1  0  0  0
 30 14  1  0  0  0
 20 15  1  0  0  0
 29 21  1  0  0  0
 27 22  1  0  0  0
 33 34  1  0  0  0
 17 31  1  0  0  0
M  END
> <minimizedAffinity>
-5.80161

> <CNNscore>
0.4659657180

> <CNNaffinity>
5.3722887039

> <CNN_VS>
2.5033023357

> <CNNaffinity_variance>
0.1080650464

$$$$
[H]c1c([H])c([H])c2c(c1[H])c1c3c(c4c5c([H])c([H])c([H])c([H])c5n5c4c1n2[C@@]1([H])O[C@@]5(C([H])([H])[H])[C@@]([H])(N([H])C([H])([H])[H])C1([H])[H])C([H])([H])N([H])C3=O


 34 41  0  0  0  0  0  0  0  0999 V2000
   37.6549  -18.4105   35.1542 C   0  0  0  0  0  0  0  0  0  0  0  0
   36.5144  -19.0401   35.8979 C   0  0  0  0  0  0  0  0  0  0  0  0
   37.0868  -20.0016   36.8968 C   0  0  0  0  0  0  0  0  0  0  0  0
   38.5810  -19.9663   36.7706 O   0  0  0  0  0  0  0  0  0  0  0  0
   38.9321  -18.9830   35.6936 C   0  0  0  0  0  0  0  0  0  0  0  0
   40.3173  -18.6335   35.2363 C   0  0  0  0  0  0  0  0  0  0  0  0
   40.1339  -19.6291   36.3166 N   0  0  0  0  0  0  0  0  0  0  0  0
   41.5435  -19.3232   35.9046 C   0  0  0  0  0  0  0  0  0  0  0  0
   42.1078  -18.3929   34.8721 C   0  0  0  0  0  0  0  0  0  0  0  0
   43.5925  -18.2966   34.6808 C   0  0  0  0  0  0  0  0  0  0  0  0
   44.5127  -19.1304   35.5221 C   0  0  0  0  0  0  0  0  0  0  0  0
   43.9483  -20.0606   36.5546 C   0  0  0  0  0  0  0  0  0  0  0  0
   42.4637  -20.1570   36.7459 C   0  0  0  0  0  0  0  0  0  0  0  0
   41.6230  -20.9784   37.6779 C   0  0  0  0  0  0  0  0  0  0  0  0
   41.7788  -22.0556   38.8258 C   0  0  0  0  0  0  0  0  0  0  0  0
   43.0561  -22.6280   39.3652 C   0  0  0  0  0  0  0  0  0  0  0  0
   42.7050  -23.6113   40.4422 N   0  0  0  0  0  0  0  0  0  0  0  0
   41.2107  -23.6466   40.5684 C   0  0  0  0  0  0  0  0  0  0  0  0
   40.4265  -24.4945   41.5255 O   0  0  0  0  0  0  0  0  0  0  0  0
   40.6382  -22.6851   39.5694 C   0  0  0  0  0  0  0  0  0  0  0  0
   39.2259  -22.3015   39.2408 C   0  0  0  0  0  0  0  0  0  0  0  0
   37.8678  -22.6937   39.7424 C   0  0  0  0  0  0  0  0  0  0  0  0
   37.4301  -23.6583   40.8045 C   0  0  0  0  0  0  0  0  0  0  0  0
   35.9699  -23.8456   41.0920 C   0  0  0  0  0  0  0  0  0  0  0  0
   34.9473  -23.0683   40.3174 C   0  0  0  0  0  0  0  0  0  0  0  0
   35.3849  -22.1036   39.2553 C   0  0  0  0  0  0  0  0  0  0  0  0
   36.8451  -21.9163   38.9679 C   0  0  0  0  0  0  0  0  0  0  0  0
   37.5713  -21.0436   37.9875 N   0  0  0  0  0  0  0  0  0  0  0  0
   39.0426  -21.2816   38.1562 C   0  0  0  0  0  0  0  0  0  0  0  0
   40.1831  -20.6521   37.4126 C   0  0  0  0  0  0  0  0  0  0  0  0
   43.6773  -24.4177   41.2509 H   0  0  0  0  0  0  0  0  0  0  0  0
   35.3072  -18.3884   34.0416 C   0  0  0  0  0  0  0  0  0  0  0  0
   36.5686  -17.6743   34.4276 N   0  0  0  0  0  0  0  0  0  0  0  0
   36.5755  -16.5071   34.0904 H   0  0  0  0  0  0  0  0  0  0  0  0
 32 33  1  0  0  0
 33  1  1  0  0  0
  1  2  1  0  0  0
  2  3  1  0  0  0
  3  4  1  0  0  0
  4  5  1  0  0  0
  5  6  1  0  0  0
  5  7  1  0  0  0
  7  8  1  0  0  0
  8  9  2  0  0  0
  9 10  1  0  0  0
 10 11  2  0  0  0
 11 12  1  0  0  0
 12 13  2  0  0  0
 13 14  1  0  0  0
 14 15  2  0  0  0
 15 16  1  0  0  0
 16 17  1  0  0  0
 17 18  1  0  0  0
 18 19  2  0  0  0
 18 20  1  0  0  0
 20 21  2  0  0  0
 21 22  1  0  0  0
 22 23  2  0  0  0
 23 24  1  0  0  0
 24 25  2  0  0  0
 25 26  1  0  0  0
 26 27  2  0  0  0
 27 28  1  0  0  0
 28 29  1  0  0  0
 29 30  2  0  0  0
  5  1  1  0  0  0
 30  7  1  0  0  0
 28  3  1  0  0  0
 13  8  1  0  0  0
 30 14  1  0  0  0
 20 15  1  0  0  0
 29 21  1  0  0  0
 27 22  1  0  0  0
 33 34  1  0  0  0
 17 31  1  0  0  0
M  END
> <minimizedAffinity>
-4.29417

> <CNNscore>
0.4654538631

> <CNNaffinity>
5.5523214340

> <CNN_VS>
2.5843493938

> <CNNaffinity_variance>
0.2493127137

$$$$
[H]c1nc2c([H])c(OC([H])([H])C([H])([H])C([H])([H])N3C([H])([H])C([H])([H])N(C([H])([H])[H])C([H])([H])C3([H])[H])c(OC([H])([H])[H])c([H])c2c(N([H])c2c([H])c(OC([H])([H])[H])c(Cl)c([H])c2Cl)c1C#N


 37 40  0  0  0  0  0  0  0  0999 V2000
   37.2351  -19.4829   36.9111 C   0  0  0  0  0  0  0  0  0  0  0  0
   36.3813  -20.2062   37.7204 C   0  0  0  0  0  0  0  0  0  0  0  0
   36.9783  -21.0229   38.6822 C   0  0  0  0  0  0  0  0  0  0  0  0
   38.3150  -21.0978   38.8099 N   0  0  0  0  0  0  0  0  0  0  0  0
   39.1276  -20.3837   38.0099 C   0  0  0  0  0  0  0  0  0  0  0  0
   40.5187  -20.4380   38.1154 C   0  0  0  0  0  0  0  0  0  0  0  0
   41.3445  -19.7019   37.2902 C   0  0  0  0  0  0  0  0  0  0  0  0
   40.7993  -18.8794   36.3233 C   0  0  0  0  0  0  0  0  0  0  0  0
   39.4162  -18.8065   36.1968 C   0  0  0  0  0  0  0  0  0  0  0  0
   38.6145  -19.5535   37.0351 C   0  0  0  0  0  0  0  0  0  0  0  0
   36.6575  -18.6519   35.9333 N   0  0  0  0  0  0  0  0  0  0  0  0
   36.5886  -18.9689   34.9425 H   0  0  0  0  0  0  0  0  0  0  0  0
   36.3807  -15.2046   37.3861 C   0  0  0  0  0  0  0  0  0  0  0  0
   36.8214  -16.4611   37.0546 C   0  0  0  0  0  0  0  0  0  0  0  0
   36.1409  -17.3439   36.2448 C   0  0  0  0  0  0  0  0  0  0  0  0
   34.9320  -16.9130   35.7419 C   0  0  0  0  0  0  0  0  0  0  0  0
   33.9722  -17.9308   34.7056 Cl  0  0  0  0  0  0  0  0  0  0  0  0
   34.4350  -15.6495   36.0437 C   0  0  0  0  0  0  0  0  0  0  0  0
   35.1531  -14.8052   36.8575 C   0  0  0  0  0  0  0  0  0  0  0  0
   34.5937  -13.2023   37.2824 Cl  0  0  0  0  0  0  0  0  0  0  0  0
   38.1010  -13.5450   37.5885 C   0  0  0  0  0  0  0  0  0  0  0  0
   37.1012  -14.3371   38.2122 O   0  0  0  0  0  0  0  0  0  0  0  0
   41.6578  -18.1658   35.5255 O   0  0  0  0  0  0  0  0  0  0  0  0
   41.9841  -18.5222   34.1979 C   0  0  0  0  0  0  0  0  0  0  0  0
   34.9459  -20.1265   37.5839 C   0  0  0  0  0  0  0  0  0  0  0  0
   33.7931  -20.0762   37.4610 N   0  0  0  0  0  0  0  0  0  0  0  0
   42.7352  -19.7764   37.4188 O   0  0  0  0  0  0  0  0  0  0  0  0
   43.5120  -18.6847   37.8447 C   0  0  0  0  0  0  0  0  0  0  0  0
   43.2206  -18.4701   39.3152 C   0  0  0  0  0  0  0  0  0  0  0  0
   43.9724  -19.5272   40.0894 C   0  0  0  0  0  0  0  0  0  0  0  0
   43.3120  -19.9277   41.2874 N   0  0  0  0  0  0  0  0  0  0  0  0
   43.0917  -21.3498   41.3992 C   0  0  0  0  0  0  0  0  0  0  0  0
   41.6208  -21.6938   41.4699 C   0  0  0  0  0  0  0  0  0  0  0  0
   40.9695  -21.0500   42.5906 N   0  0  0  0  0  0  0  0  0  0  0  0
   39.5860  -20.8000   42.2031 C   0  0  0  0  0  0  0  0  0  0  0  0
   41.5533  -19.7600   42.8952 C   0  0  0  0  0  0  0  0  0  0  0  0
   42.1770  -19.1428   41.6482 C   0  0  0  0  0  0  0  0  0  0  0  0
 21 22  1  0  0  0
 22 13  1  0  0  0
 13 14  2  0  0  0
 14 15  1  0  0  0
 15 11  1  0  0  0
 11  1  1  0  0  0
  1  2  2  0  0  0
  2  3  1  0  0  0
  3  4  2  0  0  0
  4  5  1  0  0  0
  5  6  2  0  0  0
  6  7  1  0  0  0
  7 27  1  0  0  0
 27 28  1  0  0  0
 28 29  1  0  0  0
 29 30  1  0  0  0
 30 31  1  0  0  0
 31 32  1  0  0  0
 32 33  1  0  0  0
 33 34  1  0  0  0
 34 35  1  0  0  0
 34 36  1  0  0  0
 36 37  1  0  0  0
  7  8  2  0  0  0
  8 23  1  0  0  0
 23 24  1  0  0  0
  8  9  1  0  0  0
  9 10  2  0  0  0
  2 25  1  0  0  0
 25 26  3  0  0  0
 15 16  2  0  0  0
 16 17  1  0  0  0
 16 18  1  0  0  0
 18 19  2  0  0  0
 19 20  1  0  0  0
 19 13  1  0  0  0
 10  1  1  0  0  0
 10  5  1  0  0  0
 37 31  1  0  0  0
 11 12  1  0  0  0
M  END
> <minimizedAffinity>
-6.56838

> <CNNscore>
0.4410201907

> <CNNaffinity>
6.4880609512

> <CNN_VS>
2.8613657951

> <CNNaffinity_variance>
0.2856569588

$$$$
[H]c1nc2c([H])c(OC([H])([H])C([H])([H])C([H])([H])N3C([H])([H])C([H])([H])N(C([H])([H])[H])C([H])([H])C3([H])[H])c(OC([H])([H])[H])c([H])c2c(N([H])c2c([H])c(OC([H])([H])[H])c(Cl)c([H])c2Cl)c1C#N


 37 40  0  0  0  0  0  0  0  0999 V2000
   37.0454  -19.3275   36.3801 C   0  0  0  0  0  0  0  0  0  0  0  0
   38.2034  -19.2965   35.6283 C   0  0  0  0  0  0  0  0  0  0  0  0
   39.3093  -19.9606   36.1613 C   0  0  0  0  0  0  0  0  0  0  0  0
   39.2454  -20.5957   37.3451 N   0  0  0  0  0  0  0  0  0  0  0  0
   38.1060  -20.6126   38.0605 C   0  0  0  0  0  0  0  0  0  0  0  0
   38.0051  -21.2619   39.2924 C   0  0  0  0  0  0  0  0  0  0  0  0
   36.8321  -21.2739   40.0194 C   0  0  0  0  0  0  0  0  0  0  0  0
   35.7110  -20.6303   39.5321 C   0  0  0  0  0  0  0  0  0  0  0  0
   35.7841  -19.9757   38.3072 C   0  0  0  0  0  0  0  0  0  0  0  0
   36.9696  -19.9795   37.6016 C   0  0  0  0  0  0  0  0  0  0  0  0
   35.9161  -18.6652   35.8640 N   0  0  0  0  0  0  0  0  0  0  0  0
   35.2633  -19.1573   35.2169 H   0  0  0  0  0  0  0  0  0  0  0  0
   36.1940  -15.2299   37.3447 C   0  0  0  0  0  0  0  0  0  0  0  0
   36.4334  -16.5349   36.9943 C   0  0  0  0  0  0  0  0  0  0  0  0
   35.6089  -17.2979   36.1967 C   0  0  0  0  0  0  0  0  0  0  0  0
   34.4662  -16.6861   35.7276 C   0  0  0  0  0  0  0  0  0  0  0  0
   33.3398  -17.5386   34.7100 Cl  0  0  0  0  0  0  0  0  0  0  0  0
   34.1714  -15.3656   36.0499 C   0  0  0  0  0  0  0  0  0  0  0  0
   35.0275  -14.6463   36.8503 C   0  0  0  0  0  0  0  0  0  0  0  0
   34.7249  -12.9821   37.2994 Cl  0  0  0  0  0  0  0  0  0  0  0  0
   38.0147  -13.6753   37.4967 C   0  0  0  0  0  0  0  0  0  0  0  0
   37.0562  -14.4882   38.1574 O   0  0  0  0  0  0  0  0  0  0  0  0
   34.5665  -20.6682   40.2881 O   0  0  0  0  0  0  0  0  0  0  0  0
   33.5514  -21.6392   40.1379 C   0  0  0  0  0  0  0  0  0  0  0  0
   38.2730  -18.6148   34.3571 C   0  0  0  0  0  0  0  0  0  0  0  0
   38.3333  -18.0508   33.3448 N   0  0  0  0  0  0  0  0  0  0  0  0
   36.7604  -21.9328   41.2511 O   0  0  0  0  0  0  0  0  0  0  0  0
   37.8773  -22.5492   41.8419 C   0  0  0  0  0  0  0  0  0  0  0  0
   38.4071  -21.6040   42.8999 C   0  0  0  0  0  0  0  0  0  0  0  0
   39.7888  -22.0774   43.2855 C   0  0  0  0  0  0  0  0  0  0  0  0
   40.7558  -21.0308   43.3211 N   0  0  0  0  0  0  0  0  0  0  0  0
   40.3961  -19.8612   42.5556 C   0  0  0  0  0  0  0  0  0  0  0  0
   41.3773  -19.5890   41.4376 C   0  0  0  0  0  0  0  0  0  0  0  0
   42.7236  -19.4025   41.9350 N   0  0  0  0  0  0  0  0  0  0  0  0
   43.6372  -19.8778   40.9024 C   0  0  0  0  0  0  0  0  0  0  0  0
   42.9853  -20.1979   43.1168 C   0  0  0  0  0  0  0  0  0  0  0  0
   42.1076  -21.4447   43.1323 C   0  0  0  0  0  0  0  0  0  0  0  0
 21 22  1  0  0  0
 22 13  1  0  0  0
 13 14  2  0  0  0
 14 15  1  0  0  0
 15 11  1  0  0  0
 11  1  1  0  0  0
  1  2  2  0  0  0
  2  3  1  0  0  0
  3  4  2  0  0  0
  4  5  1  0  0  0
  5  6  2  0  0  0
  6  7  1  0  0  0
  7 27  1  0  0  0
 27 28  1  0  0  0
 28 29  1  0  0  0
 29 30  1  0  0  0
 30 31  1  0  0  0
 31 32  1  0  0  0
 32 33  1  0  0  0
 33 34  1  0  0  0
 34 35  1  0  0  0
 34 36  1  0  0  0
 36 37  1  0  0  0
  7  8  2  0  0  0
  8 23  1  0  0  0
 23 24  1  0  0  0
  8  9  1  0  0  0
  9 10  2  0  0  0
  2 25  1  0  0  0
 25 26  3  0  0  0
 15 16  2  0  0  0
 16 17  1  0  0  0
 16 18  1  0  0  0
 18 19  2  0  0  0
 19 20  1  0  0  0
 19 13  1  0  0  0
 10  1  1  0  0  0
 10  5  1  0  0  0
 37 31  1  0  0  0
 11 12  1  0  0  0
M  END
> <minimizedAffinity>
-6.11943

> <CNNscore>
0.4157883823

> <CNNaffinity>
6.3621568680

> <CNN_VS>
2.6453108788

> <CNNaffinity_variance>
0.2632363439

$$$$
[H]c1nc2c([H])c(OC([H])([H])C([H])([H])C([H])([H])N3C([H])([H])C([H])([H])N(C([H])([H])[H])C([H])([H])C3([H])[H])c(OC([H])([H])[H])c([H])c2c(N([H])c2c([H])c(OC([H])([H])[H])c(Cl)c([H])c2Cl)c1C#N


 37 40  0  0  0  0  0  0  0  0999 V2000
   37.0202  -19.3242   36.3658 C   0  0  0  0  0  0  0  0  0  0  0  0
   38.1764  -19.3080   35.6108 C   0  0  0  0  0  0  0  0  0  0  0  0
   39.2764  -19.9831   36.1426 C   0  0  0  0  0  0  0  0  0  0  0  0
   39.2085  -20.6144   37.3282 N   0  0  0  0  0  0  0  0  0  0  0  0
   38.0710  -20.6168   38.0466 C   0  0  0  0  0  0  0  0  0  0  0  0
   37.9661  -21.2619   39.2804 C   0  0  0  0  0  0  0  0  0  0  0  0
   36.7950  -21.2590   40.0106 C   0  0  0  0  0  0  0  0  0  0  0  0
   35.6798  -20.6040   39.5246 C   0  0  0  0  0  0  0  0  0  0  0  0
   35.7569  -19.9534   38.2979 C   0  0  0  0  0  0  0  0  0  0  0  0
   36.9405  -19.9723   37.5891 C   0  0  0  0  0  0  0  0  0  0  0  0
   35.8970  -18.6506   35.8510 N   0  0  0  0  0  0  0  0  0  0  0  0
   35.2464  -19.1317   35.1935 H   0  0  0  0  0  0  0  0  0  0  0  0
   36.1854  -15.2320   37.3679 C   0  0  0  0  0  0  0  0  0  0  0  0
   36.4213  -16.5336   37.0029 C   0  0  0  0  0  0  0  0  0  0  0  0
   35.5933  -17.2864   36.1991 C   0  0  0  0  0  0  0  0  0  0  0  0
   34.4508  -16.6673   35.7395 C   0  0  0  0  0  0  0  0  0  0  0  0
   33.3202  -17.5066   34.7155 Cl  0  0  0  0  0  0  0  0  0  0  0  0
   34.1594  -15.3498   36.0766 C   0  0  0  0  0  0  0  0  0  0  0  0
   35.0188  -14.6408   36.8827 C   0  0  0  0  0  0  0  0  0  0  0  0
   34.7206  -12.9809   37.3503 Cl  0  0  0  0  0  0  0  0  0  0  0  0
   37.9884  -13.6584   37.5326 C   0  0  0  0  0  0  0  0  0  0  0  0
   37.0509  -14.5008   38.1865 O   0  0  0  0  0  0  0  0  0  0  0  0
   34.5371  -20.6273   40.2838 O   0  0  0  0  0  0  0  0  0  0  0  0
   33.5064  -21.5816   40.1323 C   0  0  0  0  0  0  0  0  0  0  0  0
   38.2502  -18.6304   34.3377 C   0  0  0  0  0  0  0  0  0  0  0  0
   38.3286  -18.0871   33.3153 N   0  0  0  0  0  0  0  0  0  0  0  0
   36.7193  -21.9138   41.2441 O   0  0  0  0  0  0  0  0  0  0  0  0
   36.3264  -23.2587   41.3603 C   0  0  0  0  0  0  0  0  0  0  0  0
   36.5550  -23.9133   40.0139 C   0  0  0  0  0  0  0  0  0  0  0  0
   35.4814  -24.9592   39.8258 C   0  0  0  0  0  0  0  0  0  0  0  0
   34.9995  -25.0406   38.4868 N   0  0  0  0  0  0  0  0  0  0  0  0
   35.5260  -24.0293   37.6017 C   0  0  0  0  0  0  0  0  0  0  0  0
   34.4387  -23.1365   37.0471 C   0  0  0  0  0  0  0  0  0  0  0  0
   33.4392  -23.8909   36.3214 N   0  0  0  0  0  0  0  0  0  0  0  0
   32.1701  -23.1890   36.4747 C   0  0  0  0  0  0  0  0  0  0  0  0
   33.2478  -25.2167   36.8722 C   0  0  0  0  0  0  0  0  0  0  0  0
   33.5928  -25.2382   38.3573 C   0  0  0  0  0  0  0  0  0  0  0  0
 21 22  1  0  0  0
 22 13  1  0  0  0
 13 14  2  0  0  0
 14 15  1  0  0  0
 15 11  1  0  0  0
 11  1  1  0  0  0
  1  2  2  0  0  0
  2  3  1  0  0  0
  3  4  2  0  0  0
  4  5  1  0  0  0
  5  6  2  0  0  0
  6  7  1  0  0  0
  7 27  1  0  0  0
 27 28  1  0  0  0
 28 29  1  0  0  0
 29 30  1  0  0  0
 30 31  1  0  0  0
 31 32  1  0  0  0
 32 33  1  0  0  0
 33 34  1  0  0  0
 34 35  1  0  0  0
 34 36  1  0  0  0
 36 37  1  0  0  0
  7  8  2  0  0  0
  8 23  1  0  0  0
 23 24  1  0  0  0
  8  9  1  0  0  0
  9 10  2  0  0  0
  2 25  1  0  0  0
 25 26  3  0  0  0
 15 16  2  0  0  0
 16 17  1  0  0  0
 16 18  1  0  0  0
 18 19  2  0  0  0
 19 20  1  0  0  0
 19 13  1  0  0  0
 10  1  1  0  0  0
 10  5  1  0  0  0
 37 31  1  0  0  0
 11 12  1  0  0  0
M  END
> <minimizedAffinity>
-5.64033

> <CNNscore>
0.3751088679

> <CNNaffinity>
6.0434403419

> <CNN_VS>
2.2669479847

> <CNNaffinity_variance>
0.6108658910

$$$$
[H]c1nc2c([H])c(OC([H])([H])C([H])([H])C([H])([H])N3C([H])([H])C([H])([H])N(C([H])([H])[H])C([H])([H])C3([H])[H])c(OC([H])([H])[H])c([H])c2c(N([H])c2c([H])c(OC([H])([H])[H])c(Cl)c([H])c2Cl)c1C#N


 37 40  0  0  0  0  0  0  0  0999 V2000
   37.6987  -18.2401   35.5165 C   0  0  0  0  0  0  0  0  0  0  0  0
   37.2043  -19.1679   34.6210 C   0  0  0  0  0  0  0  0  0  0  0  0
   35.8834  -18.9900   34.2062 C   0  0  0  0  0  0  0  0  0  0  0  0
   35.1359  -17.9673   34.6578 N   0  0  0  0  0  0  0  0  0  0  0  0
   35.6388  -17.0751   35.5303 C   0  0  0  0  0  0  0  0  0  0  0  0
   34.8907  -16.0024   36.0190 C   0  0  0  0  0  0  0  0  0  0  0  0
   35.4150  -15.0920   36.9141 C   0  0  0  0  0  0  0  0  0  0  0  0
   36.7179  -15.2271   37.3531 C   0  0  0  0  0  0  0  0  0  0  0  0
   37.4854  -16.2870   36.8820 C   0  0  0  0  0  0  0  0  0  0  0  0
   36.9357  -17.1823   35.9878 C   0  0  0  0  0  0  0  0  0  0  0  0
   39.0282  -18.3976   35.9499 N   0  0  0  0  0  0  0  0  0  0  0  0
   39.8005  -17.8668   35.4929 H   0  0  0  0  0  0  0  0  0  0  0  0
   38.7393  -20.9630   38.6713 C   0  0  0  0  0  0  0  0  0  0  0  0
   38.4597  -20.0994   37.6423 C   0  0  0  0  0  0  0  0  0  0  0  0
   39.3848  -19.2843   37.0274 C   0  0  0  0  0  0  0  0  0  0  0  0
   40.6791  -19.3580   37.4958 C   0  0  0  0  0  0  0  0  0  0  0  0
   41.9446  -18.3815   36.8057 Cl  0  0  0  0  0  0  0  0  0  0  0  0
   41.0215  -20.2149   38.5363 C   0  0  0  0  0  0  0  0  0  0  0  0
   40.0604  -21.0086   39.1171 C   0  0  0  0  0  0  0  0  0  0  0  0
   40.4137  -22.1107   40.4299 Cl  0  0  0  0  0  0  0  0  0  0  0  0
   36.5112  -21.1764   39.5341 C   0  0  0  0  0  0  0  0  0  0  0  0
   37.7715  -21.7747   39.2700 O   0  0  0  0  0  0  0  0  0  0  0  0
   37.1977  -14.2990   38.2426 O   0  0  0  0  0  0  0  0  0  0  0  0
   38.1007  -13.2681   37.8997 C   0  0  0  0  0  0  0  0  0  0  0  0
   38.0062  -20.2664   34.1357 C   0  0  0  0  0  0  0  0  0  0  0  0
   38.6625  -21.1367   33.7375 N   0  0  0  0  0  0  0  0  0  0  0  0
   34.6417  -14.0268   37.3868 O   0  0  0  0  0  0  0  0  0  0  0  0
   33.3639  -13.7386   36.8763 C   0  0  0  0  0  0  0  0  0  0  0  0
   32.5827  -13.0517   37.9770 C   0  0  0  0  0  0  0  0  0  0  0  0
   31.7180  -11.9941   37.3324 C   0  0  0  0  0  0  0  0  0  0  0  0
   30.3541  -12.0516   37.7423 N   0  0  0  0  0  0  0  0  0  0  0  0
   29.5951  -10.8579   37.4555 C   0  0  0  0  0  0  0  0  0  0  0  0
   29.0700  -10.2016   38.7127 C   0  0  0  0  0  0  0  0  0  0  0  0
   28.2266  -11.0964   39.4762 N   0  0  0  0  0  0  0  0  0  0  0  0
   28.3781  -10.7408   40.8824 C   0  0  0  0  0  0  0  0  0  0  0  0
   28.6414  -12.4784   39.3520 C   0  0  0  0  0  0  0  0  0  0  0  0
   30.1340  -12.5682   39.0535 C   0  0  0  0  0  0  0  0  0  0  0  0
 21 22  1  0  0  0
 22 13  1  0  0  0
 13 14  2  0  0  0
 14 15  1  0  0  0
 15 11  1  0  0  0
 11  1  1  0  0  0
  1  2  2  0  0  0
  2  3  1  0  0  0
  3  4  2  0  0  0
  4  5  1  0  0  0
  5  6  2  0  0  0
  6  7  1  0  0  0
  7 27  1  0  0  0
 27 28  1  0  0  0
 28 29  1  0  0  0
 29 30  1  0  0  0
 30 31  1  0  0  0
 31 32  1  0  0  0
 32 33  1  0  0  0
 33 34  1  0  0  0
 34 35  1  0  0  0
 34 36  1  0  0  0
 36 37  1  0  0  0
  7  8  2  0  0  0
  8 23  1  0  0  0
 23 24  1  0  0  0
  8  9  1  0  0  0
  9 10  2  0  0  0
  2 25  1  0  0  0
 25 26  3  0  0  0
 15 16  2  0  0  0
 16 17  1  0  0  0
 16 18  1  0  0  0
 18 19  2  0  0  0
 19 20  1  0  0  0
 19 13  1  0  0  0
 10  1  1  0  0  0
 10  5  1  0  0  0
 37 31  1  0  0  0
 11 12  1  0  0  0
M  END
> <minimizedAffinity>
-7.07807

> <CNNscore>
0.3456473947

> <CNNaffinity>
6.6427664757

> <CNN_VS>
2.2960548401

> <CNNaffinity_variance>
0.0363228582

$$$$
[H]c1nc2c([H])c(OC([H])([H])C([H])([H])C([H])([H])N3C([H])([H])C([H])([H])N(C([H])([H])[H])C([H])([H])C3([H])[H])c(OC([H])([H])[H])c([H])c2c(N([H])c2c([H])c(OC([H])([H])[H])c(Cl)c([H])c2Cl)c1C#N


 37 40  0  0  0  0  0  0  0  0999 V2000
   35.4014  -18.2744   36.9581 C   0  0  0  0  0  0  0  0  0  0  0  0
   34.5634  -19.1948   36.3597 C   0  0  0  0  0  0  0  0  0  0  0  0
   33.5419  -18.6788   35.5605 C   0  0  0  0  0  0  0  0  0  0  0  0
   33.3862  -17.3545   35.3857 N   0  0  0  0  0  0  0  0  0  0  0  0
   34.2150  -16.4762   35.9789 C   0  0  0  0  0  0  0  0  0  0  0  0
   34.0818  -15.0956   35.8188 C   0  0  0  0  0  0  0  0  0  0  0  0
   34.9367  -14.2019   36.4314 C   0  0  0  0  0  0  0  0  0  0  0  0
   35.9628  -14.6657   37.2318 C   0  0  0  0  0  0  0  0  0  0  0  0
   36.1181  -16.0365   37.4081 C   0  0  0  0  0  0  0  0  0  0  0  0
   35.2489  -16.9072   36.7838 C   0  0  0  0  0  0  0  0  0  0  0  0
   36.4394  -18.7697   37.7689 N   0  0  0  0  0  0  0  0  0  0  0  0
   36.3700  -18.7186   38.8080 H   0  0  0  0  0  0  0  0  0  0  0  0
   39.3725  -19.3841   35.5126 C   0  0  0  0  0  0  0  0  0  0  0  0
   38.2390  -18.8636   36.0849 C   0  0  0  0  0  0  0  0  0  0  0  0
   37.6301  -19.3620   37.2158 C   0  0  0  0  0  0  0  0  0  0  0  0
   38.2191  -20.4637   37.7984 C   0  0  0  0  0  0  0  0  0  0  0  0
   37.5503  -21.1913   39.2318 Cl  0  0  0  0  0  0  0  0  0  0  0  0
   39.3689  -21.0342   37.2628 C   0  0  0  0  0  0  0  0  0  0  0  0
   39.9385  -20.4987   36.1316 C   0  0  0  0  0  0  0  0  0  0  0  0
   41.3837  -21.1604   35.3991 Cl  0  0  0  0  0  0  0  0  0  0  0  0
   39.0841  -18.4860   33.3070 C   0  0  0  0  0  0  0  0  0  0  0  0
   39.9609  -18.8491   34.3631 O   0  0  0  0  0  0  0  0  0  0  0  0
   36.7886  -13.7417   37.8207 O   0  0  0  0  0  0  0  0  0  0  0  0
   38.1280  -13.5165   37.4315 C   0  0  0  0  0  0  0  0  0  0  0  0
   34.7298  -20.6169   36.5470 C   0  0  0  0  0  0  0  0  0  0  0  0
   34.8792  -21.7564   36.7078 N   0  0  0  0  0  0  0  0  0  0  0  0
   34.7790  -12.8237   36.2529 O   0  0  0  0  0  0  0  0  0  0  0  0
   34.1598  -12.0055   37.2140 C   0  0  0  0  0  0  0  0  0  0  0  0
   32.8126  -12.6209   37.5298 C   0  0  0  0  0  0  0  0  0  0  0  0
   31.7571  -11.5749   37.2584 C   0  0  0  0  0  0  0  0  0  0  0  0
   30.4607  -11.9467   37.7195 N   0  0  0  0  0  0  0  0  0  0  0  0
   29.4585  -10.9184   37.5722 C   0  0  0  0  0  0  0  0  0  0  0  0
   28.8872  -10.4857   38.9038 C   0  0  0  0  0  0  0  0  0  0  0  0
   28.2912  -11.5929   39.6204 N   0  0  0  0  0  0  0  0  0  0  0  0
   28.4514  -11.3241   41.0448 C   0  0  0  0  0  0  0  0  0  0  0  0
   28.9707  -12.8445   39.3567 C   0  0  0  0  0  0  0  0  0  0  0  0
   30.4297  -12.5982   38.9880 C   0  0  0  0  0  0  0  0  0  0  0  0
 21 22  1  0  0  0
 22 13  1  0  0  0
 13 14  2  0  0  0
 14 15  1  0  0  0
 15 11  1  0  0  0
 11  1  1  0  0  0
  1  2  2  0  0  0
  2  3  1  0  0  0
  3  4  2  0  0  0
  4  5  1  0  0  0
  5  6  2  0  0  0
  6  7  1  0  0  0
  7 27  1  0  0  0
 27 28  1  0  0  0
 28 29  1  0  0  0
 29 30  1  0  0  0
 30 31  1  0  0  0
 31 32  1  0  0  0
 32 33  1  0  0  0
 33 34  1  0  0  0
 34 35  1  0  0  0
 34 36  1  0  0  0
 36 37  1  0  0  0
  7  8  2  0  0  0
  8 23  1  0  0  0
 23 24  1  0  0  0
  8  9  1  0  0  0
  9 10  2  0  0  0
  2 25  1  0  0  0
 25 26  3  0  0  0
 15 16  2  0  0  0
 16 17  1  0  0  0
 16 18  1  0  0  0
 18 19  2  0  0  0
 19 20  1  0  0  0
 19 13  1  0  0  0
 10  1  1  0  0  0
 10  5  1  0  0  0
 37 31  1  0  0  0
 11 12  1  0  0  0
M  END
> <minimizedAffinity>
-7.26672

> <CNNscore>
0.3276503086

> <CNNaffinity>
6.8874230385

> <CNN_VS>
2.2566661835

> <CNNaffinity_variance>
0.2133969963

$$$$
[H]c1nc2c([H])c(OC([H])([H])C([H])([H])C([H])([H])N3C([H])([H])C([H])([H])N(C([H])([H])[H])C([H])([H])C3([H])[H])c(OC([H])([H])[H])c([H])c2c(N([H])c2c([H])c(OC([H])([H])[H])c(Cl)c([H])c2Cl)c1C#N


 37 40  0  0  0  0  0  0  0  0999 V2000
   37.4722  -18.0718   35.5299 C   0  0  0  0  0  0  0  0  0  0  0  0
   36.9682  -19.0026   34.6428 C   0  0  0  0  0  0  0  0  0  0  0  0
   35.6503  -18.8129   34.2238 C   0  0  0  0  0  0  0  0  0  0  0  0
   34.9145  -17.7767   34.6637 N   0  0  0  0  0  0  0  0  0  0  0  0
   35.4267  -16.8820   35.5282 C   0  0  0  0  0  0  0  0  0  0  0  0
   34.6908  -15.7953   36.0047 C   0  0  0  0  0  0  0  0  0  0  0  0
   35.2245  -14.8824   36.8915 C   0  0  0  0  0  0  0  0  0  0  0  0
   36.5249  -15.0289   37.3344 C   0  0  0  0  0  0  0  0  0  0  0  0
   37.2803  -16.1027   36.8753 C   0  0  0  0  0  0  0  0  0  0  0  0
   36.7214  -17.0002   35.9891 C   0  0  0  0  0  0  0  0  0  0  0  0
   38.7990  -18.2411   35.9673 N   0  0  0  0  0  0  0  0  0  0  0  0
   39.5308  -17.5400   35.7226 H   0  0  0  0  0  0  0  0  0  0  0  0
   40.9255  -20.9697   37.4178 C   0  0  0  0  0  0  0  0  0  0  0  0
   40.4791  -19.8969   36.6879 C   0  0  0  0  0  0  0  0  0  0  0  0
   39.2076  -19.3713   36.7613 C   0  0  0  0  0  0  0  0  0  0  0  0
   38.3374  -19.9828   37.6380 C   0  0  0  0  0  0  0  0  0  0  0  0
   36.7017  -19.4169   37.8267 Cl  0  0  0  0  0  0  0  0  0  0  0  0
   38.7340  -21.0739   38.4039 C   0  0  0  0  0  0  0  0  0  0  0  0
   40.0151  -21.5612   38.2937 C   0  0  0  0  0  0  0  0  0  0  0  0
   40.5874  -22.9294   39.2229 Cl  0  0  0  0  0  0  0  0  0  0  0  0
   43.2253  -20.8233   38.0840 C   0  0  0  0  0  0  0  0  0  0  0  0
   42.2250  -21.4743   37.3149 O   0  0  0  0  0  0  0  0  0  0  0  0
   37.0143  -14.0978   38.2154 O   0  0  0  0  0  0  0  0  0  0  0  0
   38.1578  -13.3043   37.9731 C   0  0  0  0  0  0  0  0  0  0  0  0
   37.7576  -20.1156   34.1700 C   0  0  0  0  0  0  0  0  0  0  0  0
   38.3963  -21.0143   33.8082 N   0  0  0  0  0  0  0  0  0  0  0  0
   34.4634  -13.8032   37.3521 O   0  0  0  0  0  0  0  0  0  0  0  0
   33.1492  -13.5661   36.9126 C   0  0  0  0  0  0  0  0  0  0  0  0
   32.4477  -12.7728   37.9952 C   0  0  0  0  0  0  0  0  0  0  0  0
   31.4547  -11.8563   37.3199 C   0  0  0  0  0  0  0  0  0  0  0  0
   30.1227  -12.0114   37.8029 N   0  0  0  0  0  0  0  0  0  0  0  0
   29.2877  -10.8465   37.6321 C   0  0  0  0  0  0  0  0  0  0  0  0
   28.8065  -10.2926   38.9544 C   0  0  0  0  0  0  0  0  0  0  0  0
   28.0575  -11.2740   39.7097 N   0  0  0  0  0  0  0  0  0  0  0  0
   28.2751  -10.9913   41.1238 C   0  0  0  0  0  0  0  0  0  0  0  0
   28.5341  -12.6220   39.4792 C   0  0  0  0  0  0  0  0  0  0  0  0
   30.0087  -12.6131   39.0911 C   0  0  0  0  0  0  0  0  0  0  0  0
 21 22  1  0  0  0
 22 13  1  0  0  0
 13 14  2  0  0  0
 14 15  1  0  0  0
 15 11  1  0  0  0
 11  1  1  0  0  0
  1  2  2  0  0  0
  2  3  1  0  0  0
  3  4  2  0  0  0
  4  5  1  0  0  0
  5  6  2  0  0  0
  6  7  1  0  0  0
  7 27  1  0  0  0
 27 28  1  0  0  0
 28 29  1  0  0  0
 29 30  1  0  0  0
 30 31  1  0  0  0
 31 32  1  0  0  0
 32 33  1  0  0  0
 33 34  1  0  0  0
 34 35  1  0  0  0
 34 36  1  0  0  0
 36 37  1  0  0  0
  7  8  2  0  0  0
  8 23  1  0  0  0
 23 24  1  0  0  0
  8  9  1  0  0  0
  9 10  2  0  0  0
  2 25  1  0  0  0
 25 26  3  0  0  0
 15 16  2  0  0  0
 16 17  1  0  0  0
 16 18  1  0  0  0
 18 19  2  0  0  0
 19 20  1  0  0  0
 19 13  1  0  0  0
 10  1  1  0  0  0
 10  5  1  0  0  0
 37 31  1  0  0  0
 11 12  1  0  0  0
M  END
> <minimizedAffinity>
-6.88013

> <CNNscore>
0.3083712161

> <CNNaffinity>
6.7727470398

> <CNN_VS>
2.0885202885

> <CNNaffinity_variance>
0.0225999914

$$$$
[H]c1nc2c([H])c(OC([H])([H])C([H])([H])C([H])([H])N3C([H])([H])C([H])([H])N(C([H])([H])[H])C([H])([H])C3([H])[H])c(OC([H])([H])[H])c([H])c2c(N([H])c2c([H])c(OC([H])([H])[H])c(Cl)c([H])c2Cl)c1C#N


 37 40  0  0  0  0  0  0  0  0999 V2000
   37.1968  -19.4485   36.8027 C   0  0  0  0  0  0  0  0  0  0  0  0
   36.3387  -20.1666   37.6121 C   0  0  0  0  0  0  0  0  0  0  0  0
   36.9310  -21.0194   38.5450 C   0  0  0  0  0  0  0  0  0  0  0  0
   38.2673  -21.1322   38.6463 N   0  0  0  0  0  0  0  0  0  0  0  0
   39.0840  -20.4224   37.8467 C   0  0  0  0  0  0  0  0  0  0  0  0
   40.4749  -20.5154   37.9252 C   0  0  0  0  0  0  0  0  0  0  0  0
   41.3051  -19.7834   37.1007 C   0  0  0  0  0  0  0  0  0  0  0  0
   40.7646  -18.9260   36.1619 C   0  0  0  0  0  0  0  0  0  0  0  0
   39.3819  -18.8142   36.0627 C   0  0  0  0  0  0  0  0  0  0  0  0
   38.5758  -19.5579   36.8995 C   0  0  0  0  0  0  0  0  0  0  0  0
   36.6240  -18.5815   35.8538 N   0  0  0  0  0  0  0  0  0  0  0  0
   36.5459  -18.8676   34.8542 H   0  0  0  0  0  0  0  0  0  0  0  0
   36.4004  -15.1735   37.4051 C   0  0  0  0  0  0  0  0  0  0  0  0
   36.8238  -16.4248   37.0337 C   0  0  0  0  0  0  0  0  0  0  0  0
   36.1250  -17.2775   36.2074 C   0  0  0  0  0  0  0  0  0  0  0  0
   34.9152  -16.8201   35.7306 C   0  0  0  0  0  0  0  0  0  0  0  0
   33.9330  -17.7984   34.6774 Cl  0  0  0  0  0  0  0  0  0  0  0  0
   34.4351  -15.5605   36.0732 C   0  0  0  0  0  0  0  0  0  0  0  0
   35.1713  -14.7468   36.9020 C   0  0  0  0  0  0  0  0  0  0  0  0
   34.6339  -13.1507   37.3778 Cl  0  0  0  0  0  0  0  0  0  0  0  0
   38.1488  -13.5474   37.6358 C   0  0  0  0  0  0  0  0  0  0  0  0
   37.1393  -14.3371   38.2468 O   0  0  0  0  0  0  0  0  0  0  0  0
   41.6273  -18.2180   35.3637 O   0  0  0  0  0  0  0  0  0  0  0  0
   41.7761  -18.4321   33.9751 C   0  0  0  0  0  0  0  0  0  0  0  0
   34.9037  -20.0463   37.5040 C   0  0  0  0  0  0  0  0  0  0  0  0
   33.7514  -19.9576   37.3998 N   0  0  0  0  0  0  0  0  0  0  0  0
   42.6954  -19.8971   37.2019 O   0  0  0  0  0  0  0  0  0  0  0  0
   43.3686  -21.1143   36.9975 C   0  0  0  0  0  0  0  0  0  0  0  0
   43.6449  -21.2333   35.5133 C   0  0  0  0  0  0  0  0  0  0  0  0
   43.7319  -22.7043   35.1808 C   0  0  0  0  0  0  0  0  0  0  0  0
   42.5695  -23.2059   34.5259 N   0  0  0  0  0  0  0  0  0  0  0  0
   41.8273  -22.2131   33.7865 C   0  0  0  0  0  0  0  0  0  0  0  0
   40.4234  -22.0376   34.3208 C   0  0  0  0  0  0  0  0  0  0  0  0
   39.6743  -23.2755   34.2855 N   0  0  0  0  0  0  0  0  0  0  0  0
   38.7331  -23.2446   35.3991 C   0  0  0  0  0  0  0  0  0  0  0  0
   40.5203  -24.4329   34.4910 C   0  0  0  0  0  0  0  0  0  0  0  0
   41.7481  -24.0633   35.3161 C   0  0  0  0  0  0  0  0  0  0  0  0
 21 22  1  0  0  0
 22 13  1  0  0  0
 13 14  2  0  0  0
 14 15  1  0  0  0
 15 11  1  0  0  0
 11  1  1  0  0  0
  1  2  2  0  0  0
  2  3  1  0  0  0
  3  4  2  0  0  0
  4  5  1  0  0  0
  5  6  2  0  0  0
  6  7  1  0  0  0
  7 27  1  0  0  0
 27 28  1  0  0  0
 28 29  1  0  0  0
 29 30  1  0  0  0
 30 31  1  0  0  0
 31 32  1  0  0  0
 32 33  1  0  0  0
 33 34  1  0  0  0
 34 35  1  0  0  0
 34 36  1  0  0  0
 36 37  1  0  0  0
  7  8  2  0  0  0
  8 23  1  0  0  0
 23 24  1  0  0  0
  8  9  1  0  0  0
  9 10  2  0  0  0
  2 25  1  0  0  0
 25 26  3  0  0  0
 15 16  2  0  0  0
 16 17  1  0  0  0
 16 18  1  0  0  0
 18 19  2  0  0  0
 19 20  1  0  0  0
 19 13  1  0  0  0
 10  1  1  0  0  0
 10  5  1  0  0  0
 37 31  1  0  0  0
 11 12  1  0  0  0
M  END
> <minimizedAffinity>
-5.99682

> <CNNscore>
0.2484201640

> <CNNaffinity>
6.2086396217

> <CNN_VS>
1.5423512459

> <CNNaffinity_variance>
0.2721186578

$$$$
[H]c1nc2c([H])c(OC([H])([H])C([H])([H])C([H])([H])N3C([H])([H])C([H])([H])N(C([H])([H])[H])C([H])([H])C3([H])[H])c(OC([H])([H])[H])c([H])c2c(N([H])c2c([H])c(OC([H])([H])[H])c(Cl)c([H])c2Cl)c1C#N


 37 40  0  0  0  0  0  0  0  0999 V2000
   32.3206  -21.0650   35.6446 C   0  0  0  0  0  0  0  0  0  0  0  0
   31.9930  -19.7439   35.4114 C   0  0  0  0  0  0  0  0  0  0  0  0
   32.8807  -18.7862   35.9045 C   0  0  0  0  0  0  0  0  0  0  0  0
   33.9950  -19.1368   36.5709 N   0  0  0  0  0  0  0  0  0  0  0  0
   34.2939  -20.4308   36.7865 C   0  0  0  0  0  0  0  0  0  0  0  0
   35.4417  -20.8294   37.4742 C   0  0  0  0  0  0  0  0  0  0  0  0
   35.7403  -22.1594   37.6908 C   0  0  0  0  0  0  0  0  0  0  0  0
   34.8914  -23.1430   37.2213 C   0  0  0  0  0  0  0  0  0  0  0  0
   33.7409  -22.7734   36.5328 C   0  0  0  0  0  0  0  0  0  0  0  0
   33.4671  -21.4364   36.3307 C   0  0  0  0  0  0  0  0  0  0  0  0
   31.4413  -22.0497   35.1573 N   0  0  0  0  0  0  0  0  0  0  0  0
   31.5456  -22.4199   34.1882 H   0  0  0  0  0  0  0  0  0  0  0  0
   28.8207  -22.3604   37.8231 C   0  0  0  0  0  0  0  0  0  0  0  0
   29.8387  -21.9005   37.0261 C   0  0  0  0  0  0  0  0  0  0  0  0
   30.3710  -22.5875   35.9571 C   0  0  0  0  0  0  0  0  0  0  0  0
   29.8264  -23.8245   35.6863 C   0  0  0  0  0  0  0  0  0  0  0  0
   30.4076  -24.7955   34.3633 Cl  0  0  0  0  0  0  0  0  0  0  0  0
   28.7928  -24.3420   36.4598 C   0  0  0  0  0  0  0  0  0  0  0  0
   28.2962  -23.6162   37.5169 C   0  0  0  0  0  0  0  0  0  0  0  0
   26.9982  -24.2001   38.5354 Cl  0  0  0  0  0  0  0  0  0  0  0  0
   27.3808  -20.6020   38.5906 C   0  0  0  0  0  0  0  0  0  0  0  0
   28.3072  -21.6324   38.9003 O   0  0  0  0  0  0  0  0  0  0  0  0
   35.2277  -24.4518   37.4593 O   0  0  0  0  0  0  0  0  0  0  0  0
   34.6947  -25.5478   36.7445 C   0  0  0  0  0  0  0  0  0  0  0  0
   30.7967  -19.3665   34.6960 C   0  0  0  0  0  0  0  0  0  0  0  0
   29.8286  -19.0550   34.1370 N   0  0  0  0  0  0  0  0  0  0  0  0
   36.8977  -22.5293   38.3835 O   0  0  0  0  0  0  0  0  0  0  0  0
   38.1294  -21.8784   38.1941 C   0  0  0  0  0  0  0  0  0  0  0  0
   38.6853  -22.3430   36.8643 C   0  0  0  0  0  0  0  0  0  0  0  0
   39.9055  -21.5056   36.5611 C   0  0  0  0  0  0  0  0  0  0  0  0
   39.6687  -20.4933   35.5860 N   0  0  0  0  0  0  0  0  0  0  0  0
   39.3658  -19.1943   36.1374 C   0  0  0  0  0  0  0  0  0  0  0  0
   37.9859  -18.7168   35.7439 C   0  0  0  0  0  0  0  0  0  0  0  0
   37.8309  -18.6409   34.3069 N   0  0  0  0  0  0  0  0  0  0  0  0
   36.4299  -18.9126   34.0068 C   0  0  0  0  0  0  0  0  0  0  0  0
   38.6051  -19.6532   33.6189 C   0  0  0  0  0  0  0  0  0  0  0  0
   38.8114  -20.8726   34.5109 C   0  0  0  0  0  0  0  0  0  0  0  0
 21 22  1  0  0  0
 22 13  1  0  0  0
 13 14  2  0  0  0
 14 15  1  0  0  0
 15 11  1  0  0  0
 11  1  1  0  0  0
  1  2  2  0  0  0
  2  3  1  0  0  0
  3  4  2  0  0  0
  4  5  1  0  0  0
  5  6  2  0  0  0
  6  7  1  0  0  0
  7 27  1  0  0  0
 27 28  1  0  0  0
 28 29  1  0  0  0
 29 30  1  0  0  0
 30 31  1  0  0  0
 31 32  1  0  0  0
 32 33  1  0  0  0
 33 34  1  0  0  0
 34 35  1  0  0  0
 34 36  1  0  0  0
 36 37  1  0  0  0
  7  8  2  0  0  0
  8 23  1  0  0  0
 23 24  1  0  0  0
  8  9  1  0  0  0
  9 10  2  0  0  0
  2 25  1  0  0  0
 25 26  3  0  0  0
 15 16  2  0  0  0
 16 17  1  0  0  0
 16 18  1  0  0  0
 18 19  2  0  0  0
 19 20  1  0  0  0
 19 13  1  0  0  0
 10  1  1  0  0  0
 10  5  1  0  0  0
 37 31  1  0  0  0
 11 12  1  0  0  0
M  END
> <minimizedAffinity>
-4.48515

> <CNNscore>
0.2370365113

> <CNNaffinity>
5.7496628761

> <CNN_VS>
1.3628799915

> <CNNaffinity_variance>
0.4406352043

$$$$
[H]c1nc2c([H])c(OC([H])([H])C([H])([H])C([H])([H])N3C([H])([H])C([H])([H])N(C([H])([H])[H])C([H])([H])C3([H])[H])c(OC([H])([H])[H])c([H])c2c(N([H])c2c([H])c(OC([H])([H])[H])c(Cl)c([H])c2Cl)c1C#N


 37 40  0  0  0  0  0  0  0  0999 V2000
   35.3921  -18.3586   36.4926 C   0  0  0  0  0  0  0  0  0  0  0  0
   34.2581  -19.0835   36.1831 C   0  0  0  0  0  0  0  0  0  0  0  0
   33.1479  -18.3512   35.7593 C   0  0  0  0  0  0  0  0  0  0  0  0
   33.1857  -17.0106   35.6595 N   0  0  0  0  0  0  0  0  0  0  0  0
   34.3020  -16.3251   35.9667 C   0  0  0  0  0  0  0  0  0  0  0  0
   34.3754  -14.9340   35.8743 C   0  0  0  0  0  0  0  0  0  0  0  0
   35.5249  -14.2391   36.1916 C   0  0  0  0  0  0  0  0  0  0  0  0
   36.6492  -14.9210   36.6156 C   0  0  0  0  0  0  0  0  0  0  0  0
   36.6032  -16.3073   36.7164 C   0  0  0  0  0  0  0  0  0  0  0  0
   35.4408  -16.9764   36.3929 C   0  0  0  0  0  0  0  0  0  0  0  0
   36.5251  -19.0742   36.9224 N   0  0  0  0  0  0  0  0  0  0  0  0
   36.4925  -19.6426   37.7958 H   0  0  0  0  0  0  0  0  0  0  0  0
   40.1988  -18.9228   36.1797 C   0  0  0  0  0  0  0  0  0  0  0  0
   38.9860  -18.9432   36.8212 C   0  0  0  0  0  0  0  0  0  0  0  0
   37.7661  -19.0587   36.1914 C   0  0  0  0  0  0  0  0  0  0  0  0
   37.7890  -19.1598   34.8169 C   0  0  0  0  0  0  0  0  0  0  0  0
   36.3172  -19.3112   33.8993 Cl  0  0  0  0  0  0  0  0  0  0  0  0
   38.9884  -19.1448   34.1129 C   0  0  0  0  0  0  0  0  0  0  0  0
   40.1802  -19.0274   34.7888 C   0  0  0  0  0  0  0  0  0  0  0  0
   41.7286  -19.0007   33.9735 Cl  0  0  0  0  0  0  0  0  0  0  0  0
   41.6198  -19.6692   37.9625 C   0  0  0  0  0  0  0  0  0  0  0  0
   41.4169  -18.8039   36.8552 O   0  0  0  0  0  0  0  0  0  0  0  0
   37.7696  -14.1898   36.9202 O   0  0  0  0  0  0  0  0  0  0  0  0
   37.9535  -13.4940   38.1359 C   0  0  0  0  0  0  0  0  0  0  0  0
   34.2166  -20.5230   36.2901 C   0  0  0  0  0  0  0  0  0  0  0  0
   34.1913  -21.6785   36.3934 N   0  0  0  0  0  0  0  0  0  0  0  0
   35.5694  -12.8449   36.0896 O   0  0  0  0  0  0  0  0  0  0  0  0
   34.4325  -12.0392   36.2767 C   0  0  0  0  0  0  0  0  0  0  0  0
   33.8227  -12.4219   37.6090 C   0  0  0  0  0  0  0  0  0  0  0  0
   32.3706  -12.7604   37.3670 C   0  0  0  0  0  0  0  0  0  0  0  0
   31.4684  -11.9486   38.1144 N   0  0  0  0  0  0  0  0  0  0  0  0
   30.8239  -12.6294   39.2119 C   0  0  0  0  0  0  0  0  0  0  0  0
   29.3214  -12.6778   39.0479 C   0  0  0  0  0  0  0  0  0  0  0  0
   28.7474  -11.3533   38.9430 N   0  0  0  0  0  0  0  0  0  0  0  0
   27.5642  -11.4591   38.0970 C   0  0  0  0  0  0  0  0  0  0  0  0
   29.6412  -10.4199   38.2893 C   0  0  0  0  0  0  0  0  0  0  0  0
   30.5794  -11.1506   37.3349 C   0  0  0  0  0  0  0  0  0  0  0  0
 21 22  1  0  0  0
 22 13  1  0  0  0
 13 14  2  0  0  0
 14 15  1  0  0  0
 15 11  1  0  0  0
 11  1  1  0  0  0
  1  2  2  0  0  0
  2  3  1  0  0  0
  3  4  2  0  0  0
  4  5  1  0  0  0
  5  6  2  0  0  0
  6  7  1  0  0  0
  7 27  1  0  0  0
 27 28  1  0  0  0
 28 29  1  0  0  0
 29 30  1  0  0  0
 30 31  1  0  0  0
 31 32  1  0  0  0
 32 33  1  0  0  0
 33 34  1  0  0  0
 34 35  1  0  0  0
 34 36  1  0  0  0
 36 37  1  0  0  0
  7  8  2  0  0  0
  8 23  1  0  0  0
 23 24  1  0  0  0
  8  9  1  0  0  0
  9 10  2  0  0  0
  2 25  1  0  0  0
 25 26  3  0  0  0
 15 16  2  0  0  0
 16 17  1  0  0  0
 16 18  1  0  0  0
 18 19  2  0  0  0
 19 20  1  0  0  0
 19 13  1  0  0  0
 10  1  1  0  0  0
 10  5  1  0  0  0
 37 31  1  0  0  0
 11 12  1  0  0  0
M  END
> <minimizedAffinity>
-6.94642

> <CNNscore>
0.2261322290

> <CNNaffinity>
6.6721420288

> <CNN_VS>
1.5087863207

> <CNNaffinity_variance>
0.2335252762

$$$$
[H]c1nc(N2C([H])([H])C([H])([H])N([H])C([H])([H])C2([H])[H])c([H])c([H])c1-c1c([H])nn2c([H])c(-c3c([H])c([H])c(N4C([H])([H])C([H])([H])N([H])C([H])([H])C4([H])[H])c([H])c3[H])c([H])nc12


 35 40  0  0  0  0  0  0  0  0999 V2000
   40.1574  -22.2934   38.7871 C   0  0  0  0  0  0  0  0  0  0  0  0
   40.5375  -21.0334   38.3289 C   0  0  0  0  0  0  0  0  0  0  0  0
   39.4228  -20.4287   37.8886 N   0  0  0  0  0  0  0  0  0  0  0  0
   38.3738  -21.2212   38.0392 N   0  0  0  0  0  0  0  0  0  0  0  0
   37.0542  -21.0474   37.7425 C   0  0  0  0  0  0  0  0  0  0  0  0
   36.1313  -22.0391   37.9973 C   0  0  0  0  0  0  0  0  0  0  0  0
   36.5996  -23.2038   38.5605 C   0  0  0  0  0  0  0  0  0  0  0  0
   37.9198  -23.3384   38.8407 N   0  0  0  0  0  0  0  0  0  0  0  0
   38.8101  -22.3706   38.5903 C   0  0  0  0  0  0  0  0  0  0  0  0
   42.1895  -23.7223   38.6525 C   0  0  0  0  0  0  0  0  0  0  0  0
   41.0863  -23.2796   39.3517 C   0  0  0  0  0  0  0  0  0  0  0  0
   40.9004  -23.8156   40.6088 C   0  0  0  0  0  0  0  0  0  0  0  0
   41.7997  -24.7539   41.1159 C   0  0  0  0  0  0  0  0  0  0  0  0
   42.8959  -25.1805   40.3953 C   0  0  0  0  0  0  0  0  0  0  0  0
   43.0428  -24.6254   39.1573 N   0  0  0  0  0  0  0  0  0  0  0  0
   43.8316  -26.1287   40.8532 N   0  0  0  0  0  0  0  0  0  0  0  0
   44.9406  -26.5279   40.0227 C   0  0  0  0  0  0  0  0  0  0  0  0
   46.1206  -26.9773   40.8764 C   0  0  0  0  0  0  0  0  0  0  0  0
   46.1204  -26.2909   42.1536 N   0  0  0  0  0  0  0  0  0  0  0  0
   44.9471  -26.5301   42.9328 C   0  0  0  0  0  0  0  0  0  0  0  0
   43.6815  -26.7084   42.1614 C   0  0  0  0  0  0  0  0  0  0  0  0
   46.2996  -25.2719   42.0536 H   0  0  0  0  0  0  0  0  0  0  0  0
   34.7018  -21.8720   37.6843 C   0  0  0  0  0  0  0  0  0  0  0  0
   34.3500  -21.3410   36.4801 C   0  0  0  0  0  0  0  0  0  0  0  0
   33.0192  -21.1725   36.1649 C   0  0  0  0  0  0  0  0  0  0  0  0
   31.9868  -21.5224   37.0277 C   0  0  0  0  0  0  0  0  0  0  0  0
   32.4021  -22.0550   38.2320 C   0  0  0  0  0  0  0  0  0  0  0  0
   33.7247  -22.2350   38.5739 C   0  0  0  0  0  0  0  0  0  0  0  0
   30.6233  -21.3284   36.6646 N   0  0  0  0  0  0  0  0  0  0  0  0
   29.6208  -22.0289   37.3952 C   0  0  0  0  0  0  0  0  0  0  0  0
   28.2401  -22.0224   36.8508 C   0  0  0  0  0  0  0  0  0  0  0  0
   28.2688  -21.6673   35.4487 N   0  0  0  0  0  0  0  0  0  0  0  0
   28.8628  -20.3244   35.3698 C   0  0  0  0  0  0  0  0  0  0  0  0
   30.3385  -20.4373   35.5913 C   0  0  0  0  0  0  0  0  0  0  0  0
   27.2963  -21.5768   35.1072 H   0  0  0  0  0  0  0  0  0  0  0  0
 10 11  2  0  0  0
 11  1  1  0  0  0
  1  2  1  0  0  0
  2  3  2  0  0  0
  3  4  1  0  0  0
  4  5  1  0  0  0
  5  6  2  0  0  0
  6 23  1  0  0  0
 23 24  2  0  0  0
 24 25  1  0  0  0
 25 26  2  0  0  0
 26 29  1  0  0  0
 29 30  1  0  0  0
 30 31  1  0  0  0
 31 32  1  0  0  0
 32 33  1  0  0  0
 33 34  1  0  0  0
 26 27  1  0  0  0
 27 28  2  0  0  0
  6  7  1  0  0  0
  7  8  2  0  0  0
  8  9  1  0  0  0
 11 12  1  0  0  0
 12 13  2  0  0  0
 13 14  1  0  0  0
 14 16  1  0  0  0
 16 17  1  0  0  0
 17 18  1  0  0  0
 18 19  1  0  0  0
 19 20  1  0  0  0
 20 21  1  0  0  0
 14 15  2  0  0  0
 15 10  1  0  0  0
  9  1  2  0  0  0
 21 16  1  0  0  0
  9  4  1  0  0  0
 28 23  1  0  0  0
 34 29  1  0  0  0
 32 35  1  0  0  0
 19 22  1  0  0  0
M  END
> <minimizedAffinity>
-1.84219

> <CNNscore>
0.6806867719

> <CNNaffinity>
5.2088789940

> <CNN_VS>
3.5456149578

> <CNNaffinity_variance>
0.1704568416

$$$$
[H]c1nc(N2C([H])([H])C([H])([H])N([H])C([H])([H])C2([H])[H])c([H])c([H])c1-c1c([H])nn2c([H])c(-c3c([H])c([H])c(N4C([H])([H])C([H])([H])N([H])C([H])([H])C4([H])[H])c([H])c3[H])c([H])nc12


 35 40  0  0  0  0  0  0  0  0999 V2000
   40.5381  -21.9806   38.4153 C   0  0  0  0  0  0  0  0  0  0  0  0
   41.3642  -21.4758   39.4175 C   0  0  0  0  0  0  0  0  0  0  0  0
   40.5687  -21.1528   40.4495 N   0  0  0  0  0  0  0  0  0  0  0  0
   39.3047  -21.4201   40.1630 N   0  0  0  0  0  0  0  0  0  0  0  0
   38.1577  -21.2649   40.8841 C   0  0  0  0  0  0  0  0  0  0  0  0
   36.9342  -21.6237   40.3602 C   0  0  0  0  0  0  0  0  0  0  0  0
   36.9237  -22.1417   39.0857 C   0  0  0  0  0  0  0  0  0  0  0  0
   38.0861  -22.2801   38.4006 N   0  0  0  0  0  0  0  0  0  0  0  0
   39.2706  -21.9294   38.9162 C   0  0  0  0  0  0  0  0  0  0  0  0
   41.2356  -23.7872   36.8536 C   0  0  0  0  0  0  0  0  0  0  0  0
   41.0182  -22.4497   37.1101 C   0  0  0  0  0  0  0  0  0  0  0  0
   41.2792  -21.5758   36.0755 C   0  0  0  0  0  0  0  0  0  0  0  0
   41.7381  -22.0530   34.8475 C   0  0  0  0  0  0  0  0  0  0  0  0
   41.9479  -23.3967   34.6168 C   0  0  0  0  0  0  0  0  0  0  0  0
   41.6772  -24.2265   35.6660 N   0  0  0  0  0  0  0  0  0  0  0  0
   42.4155  -23.9340   33.4016 N   0  0  0  0  0  0  0  0  0  0  0  0
   41.7022  -23.6991   32.1707 C   0  0  0  0  0  0  0  0  0  0  0  0
   42.6501  -23.7527   30.9783 C   0  0  0  0  0  0  0  0  0  0  0  0
   43.9862  -23.3445   31.3665 N   0  0  0  0  0  0  0  0  0  0  0  0
   44.5666  -24.1699   32.3780 C   0  0  0  0  0  0  0  0  0  0  0  0
   43.6155  -24.7275   33.3846 C   0  0  0  0  0  0  0  0  0  0  0  0
   44.0297  -22.3411   31.6344 H   0  0  0  0  0  0  0  0  0  0  0  0
   35.6836  -21.4639   41.1217 C   0  0  0  0  0  0  0  0  0  0  0  0
   35.1736  -20.2125   41.2936 C   0  0  0  0  0  0  0  0  0  0  0  0
   34.0062  -20.0370   42.0043 C   0  0  0  0  0  0  0  0  0  0  0  0
   33.2994  -21.0914   42.5713 C   0  0  0  0  0  0  0  0  0  0  0  0
   33.8624  -22.3352   42.3653 C   0  0  0  0  0  0  0  0  0  0  0  0
   35.0278  -22.5404   41.6593 C   0  0  0  0  0  0  0  0  0  0  0  0
   32.0976  -20.8665   43.3019 N   0  0  0  0  0  0  0  0  0  0  0  0
   31.6383  -19.5268   43.4557 C   0  0  0  0  0  0  0  0  0  0  0  0
   30.5414  -19.2813   44.4249 C   0  0  0  0  0  0  0  0  0  0  0  0
   30.4459  -20.3917   45.3471 N   0  0  0  0  0  0  0  0  0  0  0  0
   30.1628  -21.5853   44.5363 C   0  0  0  0  0  0  0  0  0  0  0  0
   31.4181  -21.9987   43.8342 C   0  0  0  0  0  0  0  0  0  0  0  0
   29.6213  -20.2501   45.9560 H   0  0  0  0  0  0  0  0  0  0  0  0
 10 11  2  0  0  0
 11  1  1  0  0  0
  1  2  1  0  0  0
  2  3  2  0  0  0
  3  4  1  0  0  0
  4  5  1  0  0  0
  5  6  2  0  0  0
  6 23  1  0  0  0
 23 24  2  0  0  0
 24 25  1  0  0  0
 25 26  2  0  0  0
 26 29  1  0  0  0
 29 30  1  0  0  0
 30 31  1  0  0  0
 31 32  1  0  0  0
 32 33  1  0  0  0
 33 34  1  0  0  0
 26 27  1  0  0  0
 27 28  2  0  0  0
  6  7  1  0  0  0
  7  8  2  0  0  0
  8  9  1  0  0  0
 11 12  1  0  0  0
 12 13  2  0  0  0
 13 14  1  0  0  0
 14 16  1  0  0  0
 16 17  1  0  0  0
 17 18  1  0  0  0
 18 19  1  0  0  0
 19 20  1  0  0  0
 20 21  1  0  0  0
 14 15  2  0  0  0
 15 10  1  0  0  0
  9  1  2  0  0  0
 21 16  1  0  0  0
  9  4  1  0  0  0
 28 23  1  0  0  0
 34 29  1  0  0  0
 32 35  1  0  0  0
 19 22  1  0  0  0
M  END
> <minimizedAffinity>
-3.20430

> <CNNscore>
0.6748924255

> <CNNaffinity>
5.3814039230

> <CNN_VS>
3.6318688393

> <CNNaffinity_variance>
0.1821497828

$$$$
[H]c1nc(N2C([H])([H])C([H])([H])N([H])C([H])([H])C2([H])[H])c([H])c([H])c1-c1c([H])nn2c([H])c(-c3c([H])c([H])c(N4C([H])([H])C([H])([H])N([H])C([H])([H])C4([H])[H])c([H])c3[H])c([H])nc12


 35 40  0  0  0  0  0  0  0  0999 V2000
   38.5647  -21.5306   39.2066 C   0  0  0  0  0  0  0  0  0  0  0  0
   38.6987  -22.2054   40.4185 C   0  0  0  0  0  0  0  0  0  0  0  0
   37.5319  -22.8290   40.6459 N   0  0  0  0  0  0  0  0  0  0  0  0
   36.6789  -22.5918   39.6624 N   0  0  0  0  0  0  0  0  0  0  0  0
   35.3950  -23.0019   39.4551 C   0  0  0  0  0  0  0  0  0  0  0  0
   34.6975  -22.6151   38.3308 C   0  0  0  0  0  0  0  0  0  0  0  0
   35.3517  -21.8022   37.4341 C   0  0  0  0  0  0  0  0  0  0  0  0
   36.6290  -21.4155   37.6763 N   0  0  0  0  0  0  0  0  0  0  0  0
   37.2998  -21.7954   38.7706 C   0  0  0  0  0  0  0  0  0  0  0  0
   39.4946  -20.1954   37.3247 C   0  0  0  0  0  0  0  0  0  0  0  0
   39.6225  -20.7179   38.5946 C   0  0  0  0  0  0  0  0  0  0  0  0
   40.7992  -20.4387   39.2576 C   0  0  0  0  0  0  0  0  0  0  0  0
   41.7871  -19.6658   38.6470 C   0  0  0  0  0  0  0  0  0  0  0  0
   41.6342  -19.1551   37.3747 C   0  0  0  0  0  0  0  0  0  0  0  0
   40.4560  -19.4544   36.7545 N   0  0  0  0  0  0  0  0  0  0  0  0
   42.5989  -18.3755   36.7069 N   0  0  0  0  0  0  0  0  0  0  0  0
   42.6148  -18.2997   35.2671 C   0  0  0  0  0  0  0  0  0  0  0  0
   43.2173  -16.9791   34.8023 C   0  0  0  0  0  0  0  0  0  0  0  0
   42.9837  -15.9358   35.7818 N   0  0  0  0  0  0  0  0  0  0  0  0
   43.5583  -16.2111   37.0606 C   0  0  0  0  0  0  0  0  0  0  0  0
   43.5811  -17.6478   37.4655 C   0  0  0  0  0  0  0  0  0  0  0  0
   41.9761  -15.6964   35.8701 H   0  0  0  0  0  0  0  0  0  0  0  0
   33.3103  -23.0462   38.0880 C   0  0  0  0  0  0  0  0  0  0  0  0
   32.6444  -22.5437   37.0110 C   0  0  0  0  0  0  0  0  0  0  0  0
   31.3449  -22.9299   36.7640 C   0  0  0  0  0  0  0  0  0  0  0  0
   30.6553  -23.8270   37.5718 C   0  0  0  0  0  0  0  0  0  0  0  0
   31.3789  -24.3031   38.6471 C   0  0  0  0  0  0  0  0  0  0  0  0
   32.6787  -23.9348   38.9184 C   0  0  0  0  0  0  0  0  0  0  0  0
   29.3107  -24.1976   37.2832 N   0  0  0  0  0  0  0  0  0  0  0  0
   28.7212  -23.7243   36.0757 C   0  0  0  0  0  0  0  0  0  0  0  0
   27.2566  -23.8976   35.9097 C   0  0  0  0  0  0  0  0  0  0  0  0
   26.6416  -24.1244   37.1992 N   0  0  0  0  0  0  0  0  0  0  0  0
   27.2494  -25.3482   37.7427 C   0  0  0  0  0  0  0  0  0  0  0  0
   28.6315  -25.0282   38.2191 C   0  0  0  0  0  0  0  0  0  0  0  0
   25.6383  -24.3346   37.0583 H   0  0  0  0  0  0  0  0  0  0  0  0
 10 11  2  0  0  0
 11  1  1  0  0  0
  1  2  1  0  0  0
  2  3  2  0  0  0
  3  4  1  0  0  0
  4  5  1  0  0  0
  5  6  2  0  0  0
  6 23  1  0  0  0
 23 24  2  0  0  0
 24 25  1  0  0  0
 25 26  2  0  0  0
 26 29  1  0  0  0
 29 30  1  0  0  0
 30 31  1  0  0  0
 31 32  1  0  0  0
 32 33  1  0  0  0
 33 34  1  0  0  0
 26 27  1  0  0  0
 27 28  2  0  0  0
  6  7  1  0  0  0
  7  8  2  0  0  0
  8  9  1  0  0  0
 11 12  1  0  0  0
 12 13  2  0  0  0
 13 14  1  0  0  0
 14 16  1  0  0  0
 16 17  1  0  0  0
 17 18  1  0  0  0
 18 19  1  0  0  0
 19 20  1  0  0  0
 20 21  1  0  0  0
 14 15  2  0  0  0
 15 10  1  0  0  0
  9  1  2  0  0  0
 21 16  1  0  0  0
  9  4  1  0  0  0
 28 23  1  0  0  0
 34 29  1  0  0  0
 32 35  1  0  0  0
 19 22  1  0  0  0
M  END
> <minimizedAffinity>
-4.54335

> <CNNscore>
0.6137480140

> <CNNaffinity>
5.4232192039

> <CNN_VS>
3.3284900188

> <CNNaffinity_variance>
0.0394684747

$$$$
[H]c1nc(N2C([H])([H])C([H])([H])N([H])C([H])([H])C2([H])[H])c([H])c([H])c1-c1c([H])nn2c([H])c(-c3c([H])c([H])c(N4C([H])([H])C([H])([H])N([H])C([H])([H])C4([H])[H])c([H])c3[H])c([H])nc12


 35 40  0  0  0  0  0  0  0  0999 V2000
   34.0953  -20.9215   42.5115 C   0  0  0  0  0  0  0  0  0  0  0  0
   34.8937  -21.7693   43.2768 C   0  0  0  0  0  0  0  0  0  0  0  0
   35.9786  -22.0513   42.5382 N   0  0  0  0  0  0  0  0  0  0  0  0
   35.9146  -21.4400   41.3663 N   0  0  0  0  0  0  0  0  0  0  0  0
   36.7670  -21.4250   40.3020 C   0  0  0  0  0  0  0  0  0  0  0  0
   36.4761  -20.6975   39.1679 C   0  0  0  0  0  0  0  0  0  0  0  0
   35.2948  -19.9923   39.1594 C   0  0  0  0  0  0  0  0  0  0  0  0
   34.4732  -20.0328   40.2378 N   0  0  0  0  0  0  0  0  0  0  0  0
   34.7627  -20.7418   41.3358 C   0  0  0  0  0  0  0  0  0  0  0  0
   31.7408  -21.1968   43.2662 C   0  0  0  0  0  0  0  0  0  0  0  0
   32.8068  -20.3782   42.9572 C   0  0  0  0  0  0  0  0  0  0  0  0
   32.5964  -19.0212   43.0862 C   0  0  0  0  0  0  0  0  0  0  0  0
   31.3586  -18.5361   43.5090 C   0  0  0  0  0  0  0  0  0  0  0  0
   30.3078  -19.3769   43.8117 C   0  0  0  0  0  0  0  0  0  0  0  0
   30.5581  -20.7111   43.6712 N   0  0  0  0  0  0  0  0  0  0  0  0
   29.0363  -18.9438   44.2360 N   0  0  0  0  0  0  0  0  0  0  0  0
   28.8475  -18.4021   45.5588 C   0  0  0  0  0  0  0  0  0  0  0  0
   27.6761  -17.4272   45.5813 C   0  0  0  0  0  0  0  0  0  0  0  0
   27.5133  -16.7912   44.2884 N   0  0  0  0  0  0  0  0  0  0  0  0
   27.2505  -17.7102   43.2265 C   0  0  0  0  0  0  0  0  0  0  0  0
   27.9119  -19.0434   43.3441 C   0  0  0  0  0  0  0  0  0  0  0  0
   28.3110  -16.1679   44.0524 H   0  0  0  0  0  0  0  0  0  0  0  0
   37.3825  -20.6681   38.0074 C   0  0  0  0  0  0  0  0  0  0  0  0
   38.5996  -21.2719   38.1081 C   0  0  0  0  0  0  0  0  0  0  0  0
   39.4662  -21.2559   37.0369 C   0  0  0  0  0  0  0  0  0  0  0  0
   39.1625  -20.6429   35.8266 C   0  0  0  0  0  0  0  0  0  0  0  0
   37.9172  -20.0479   35.7821 C   0  0  0  0  0  0  0  0  0  0  0  0
   37.0306  -20.0484   36.8369 C   0  0  0  0  0  0  0  0  0  0  0  0
   40.0886  -20.6460   34.7445 N   0  0  0  0  0  0  0  0  0  0  0  0
   40.5232  -19.3946   34.2204 C   0  0  0  0  0  0  0  0  0  0  0  0
   41.2769  -19.4072   32.9420 C   0  0  0  0  0  0  0  0  0  0  0  0
   41.0472  -20.6571   32.2510 N   0  0  0  0  0  0  0  0  0  0  0  0
   41.5254  -21.7226   33.1445 C   0  0  0  0  0  0  0  0  0  0  0  0
   40.5334  -21.9048   34.2500 C   0  0  0  0  0  0  0  0  0  0  0  0
   41.6492  -20.6893   31.4100 H   0  0  0  0  0  0  0  0  0  0  0  0
 10 11  2  0  0  0
 11  1  1  0  0  0
  1  2  1  0  0  0
  2  3  2  0  0  0
  3  4  1  0  0  0
  4  5  1  0  0  0
  5  6  2  0  0  0
  6 23  1  0  0  0
 23 24  2  0  0  0
 24 25  1  0  0  0
 25 26  2  0  0  0
 26 29  1  0  0  0
 29 30  1  0  0  0
 30 31  1  0  0  0
 31 32  1  0  0  0
 32 33  1  0  0  0
 33 34  1  0  0  0
 26 27  1  0  0  0
 27 28  2  0  0  0
  6  7  1  0  0  0
  7  8  2  0  0  0
  8  9  1  0  0  0
 11 12  1  0  0  0
 12 13  2  0  0  0
 13 14  1  0  0  0
 14 16  1  0  0  0
 16 17  1  0  0  0
 17 18  1  0  0  0
 18 19  1  0  0  0
 19 20  1  0  0  0
 20 21  1  0  0  0
 14 15  2  0  0  0
 15 10  1  0  0  0
  9  1  2  0  0  0
 21 16  1  0  0  0
  9  4  1  0  0  0
 28 23  1  0  0  0
 34 29  1  0  0  0
 32 35  1  0  0  0
 19 22  1  0  0  0
M  END
> <minimizedAffinity>
-5.17456

> <CNNscore>
0.6047326922

> <CNNaffinity>
5.3179121017

> <CNN_VS>
3.2159152031

> <CNNaffinity_variance>
0.0609980337

$$$$
[H]c1nc(N2C([H])([H])C([H])([H])N([H])C([H])([H])C2([H])[H])c([H])c([H])c1-c1c([H])nn2c([H])c(-c3c([H])c([H])c(N4C([H])([H])C([H])([H])N([H])C([H])([H])C4([H])[H])c([H])c3[H])c([H])nc12


 35 40  0  0  0  0  0  0  0  0999 V2000
   35.5691  -15.3671   36.7612 C   0  0  0  0  0  0  0  0  0  0  0  0
   36.8289  -15.8632   37.0911 C   0  0  0  0  0  0  0  0  0  0  0  0
   36.7751  -17.1949   36.9307 N   0  0  0  0  0  0  0  0  0  0  0  0
   35.5716  -17.5657   36.5242 N   0  0  0  0  0  0  0  0  0  0  0  0
   35.0490  -18.7911   36.2327 C   0  0  0  0  0  0  0  0  0  0  0  0
   33.7408  -18.9264   35.8197 C   0  0  0  0  0  0  0  0  0  0  0  0
   32.9924  -17.7767   35.7158 C   0  0  0  0  0  0  0  0  0  0  0  0
   33.5485  -16.5764   36.0150 N   0  0  0  0  0  0  0  0  0  0  0  0
   34.8198  -16.4530   36.4155 C   0  0  0  0  0  0  0  0  0  0  0  0
   34.2025  -13.4783   37.6296 C   0  0  0  0  0  0  0  0  0  0  0  0
   35.2054  -13.9459   36.8065 C   0  0  0  0  0  0  0  0  0  0  0  0
   35.8463  -13.0071   36.0255 C   0  0  0  0  0  0  0  0  0  0  0  0
   35.4748  -11.6639   36.0890 C   0  0  0  0  0  0  0  0  0  0  0  0
   34.4672  -11.2221   36.9211 C   0  0  0  0  0  0  0  0  0  0  0  0
   33.8597  -12.1827   37.6765 N   0  0  0  0  0  0  0  0  0  0  0  0
   34.0459   -9.8816   37.0216 N   0  0  0  0  0  0  0  0  0  0  0  0
   34.7679   -8.8313   36.3476 C   0  0  0  0  0  0  0  0  0  0  0  0
   33.8438   -7.6640   36.0210 C   0  0  0  0  0  0  0  0  0  0  0  0
   32.4836   -8.1262   35.8243 N   0  0  0  0  0  0  0  0  0  0  0  0
   31.9259   -8.7712   36.9707 C   0  0  0  0  0  0  0  0  0  0  0  0
   32.8851   -9.5531   37.8055 C   0  0  0  0  0  0  0  0  0  0  0  0
   32.3884   -8.7227   34.9784 H   0  0  0  0  0  0  0  0  0  0  0  0
   33.1567  -20.2403   35.5005 C   0  0  0  0  0  0  0  0  0  0  0  0
   32.5592  -20.4176   34.2892 C   0  0  0  0  0  0  0  0  0  0  0  0
   32.0034  -21.6370   33.9682 C   0  0  0  0  0  0  0  0  0  0  0  0
   32.0173  -22.7262   34.8320 C   0  0  0  0  0  0  0  0  0  0  0  0
   32.6354  -22.4888   36.0437 C   0  0  0  0  0  0  0  0  0  0  0  0
   33.1994  -21.2807   36.3915 C   0  0  0  0  0  0  0  0  0  0  0  0
   31.4279  -23.9691   34.4626 N   0  0  0  0  0  0  0  0  0  0  0  0
   31.5567  -24.4061   33.1128 C   0  0  0  0  0  0  0  0  0  0  0  0
   30.7298  -25.5600   32.6801 C   0  0  0  0  0  0  0  0  0  0  0  0
   29.6278  -25.7440   33.5991 N   0  0  0  0  0  0  0  0  0  0  0  0
   30.2228  -25.9996   34.9193 C   0  0  0  0  0  0  0  0  0  0  0  0
   30.7457  -24.7097   35.4692 C   0  0  0  0  0  0  0  0  0  0  0  0
   29.1157  -26.6045   33.3382 H   0  0  0  0  0  0  0  0  0  0  0  0
 10 11  2  0  0  0
 11  1  1  0  0  0
  1  2  1  0  0  0
  2  3  2  0  0  0
  3  4  1  0  0  0
  4  5  1  0  0  0
  5  6  2  0  0  0
  6 23  1  0  0  0
 23 24  2  0  0  0
 24 25  1  0  0  0
 25 26  2  0  0  0
 26 29  1  0  0  0
 29 30  1  0  0  0
 30 31  1  0  0  0
 31 32  1  0  0  0
 32 33  1  0  0  0
 33 34  1  0  0  0
 26 27  1  0  0  0
 27 28  2  0  0  0
  6  7  1  0  0  0
  7  8  2  0  0  0
  8  9  1  0  0  0
 11 12  1  0  0  0
 12 13  2  0  0  0
 13 14  1  0  0  0
 14 16  1  0  0  0
 16 17  1  0  0  0
 17 18  1  0  0  0
 18 19  1  0  0  0
 19 20  1  0  0  0
 20 21  1  0  0  0
 14 15  2  0  0  0
 15 10  1  0  0  0
  9  1  2  0  0  0
 21 16  1  0  0  0
  9  4  1  0  0  0
 28 23  1  0  0  0
 34 29  1  0  0  0
 32 35  1  0  0  0
 19 22  1  0  0  0
M  END
> <minimizedAffinity>
-8.10371

> <CNNscore>
0.5952618122

> <CNNaffinity>
6.5646338463

> <CNN_VS>
3.9076757431

> <CNNaffinity_variance>
0.0850710422

$$$$
[H]c1nc(N2C([H])([H])C([H])([H])N([H])C([H])([H])C2([H])[H])c([H])c([H])c1-c1c([H])nn2c([H])c(-c3c([H])c([H])c(N4C([H])([H])C([H])([H])N([H])C([H])([H])C4([H])[H])c([H])c3[H])c([H])nc12


 35 40  0  0  0  0  0  0  0  0999 V2000
   42.3821  -21.3714   35.2692 C   0  0  0  0  0  0  0  0  0  0  0  0
   43.0109  -20.1400   35.4424 C   0  0  0  0  0  0  0  0  0  0  0  0
   42.5373  -19.6205   36.5861 N   0  0  0  0  0  0  0  0  0  0  0  0
   41.6576  -20.4398   37.1393 N   0  0  0  0  0  0  0  0  0  0  0  0
   40.9240  -20.3454   38.2849 C   0  0  0  0  0  0  0  0  0  0  0  0
   40.0563  -21.3493   38.6585 C   0  0  0  0  0  0  0  0  0  0  0  0
   39.9652  -22.4426   37.8284 C   0  0  0  0  0  0  0  0  0  0  0  0
   40.7115  -22.4991   36.6973 N   0  0  0  0  0  0  0  0  0  0  0  0
   41.5521  -21.5201   36.3411 C   0  0  0  0  0  0  0  0  0  0  0  0
   43.7191  -23.0993   34.0792 C   0  0  0  0  0  0  0  0  0  0  0  0
   42.6215  -22.2659   34.1304 C   0  0  0  0  0  0  0  0  0  0  0  0
   41.7623  -22.3154   33.0527 C   0  0  0  0  0  0  0  0  0  0  0  0
   42.0197  -23.1741   31.9838 C   0  0  0  0  0  0  0  0  0  0  0  0
   43.1259  -23.9978   31.9571 C   0  0  0  0  0  0  0  0  0  0  0  0
   43.9494  -23.9180   33.0424 N   0  0  0  0  0  0  0  0  0  0  0  0
   43.4393  -24.8786   30.9034 N   0  0  0  0  0  0  0  0  0  0  0  0
   43.2617  -26.3012   31.0564 C   0  0  0  0  0  0  0  0  0  0  0  0
   43.0013  -26.9614   29.7076 C   0  0  0  0  0  0  0  0  0  0  0  0
   42.3437  -26.0382   28.8032 N   0  0  0  0  0  0  0  0  0  0  0  0
   43.1053  -24.8600   28.5331 C   0  0  0  0  0  0  0  0  0  0  0  0
   43.9441  -24.3573   29.6610 C   0  0  0  0  0  0  0  0  0  0  0  0
   41.3826  -25.7966   29.1166 H   0  0  0  0  0  0  0  0  0  0  0  0
   39.2545  -21.2670   39.8913 C   0  0  0  0  0  0  0  0  0  0  0  0
   37.9255  -21.5606   39.8322 C   0  0  0  0  0  0  0  0  0  0  0  0
   37.1537  -21.4886   40.9716 C   0  0  0  0  0  0  0  0  0  0  0  0
   37.6664  -21.1240   42.2114 C   0  0  0  0  0  0  0  0  0  0  0  0
   39.0173  -20.8380   42.2112 C   0  0  0  0  0  0  0  0  0  0  0  0
   39.8131  -20.9017   41.0882 C   0  0  0  0  0  0  0  0  0  0  0  0
   36.8332  -21.0583   43.3646 N   0  0  0  0  0  0  0  0  0  0  0  0
   35.5911  -20.3678   43.2653 C   0  0  0  0  0  0  0  0  0  0  0  0
   34.8574  -20.0847   44.5239 C   0  0  0  0  0  0  0  0  0  0  0  0
   35.7608  -20.1831   45.6494 N   0  0  0  0  0  0  0  0  0  0  0  0
   36.2788  -21.5593   45.6505 C   0  0  0  0  0  0  0  0  0  0  0  0
   37.2886  -21.6942   44.5543 C   0  0  0  0  0  0  0  0  0  0  0  0
   35.2181  -20.0748   46.5237 H   0  0  0  0  0  0  0  0  0  0  0  0
 10 11  2  0  0  0
 11  1  1  0  0  0
  1  2  1  0  0  0
  2  3  2  0  0  0
  3  4  1  0  0  0
  4  5  1  0  0  0
  5  6  2  0  0  0
  6 23  1  0  0  0
 23 24  2  0  0  0
 24 25  1  0  0  0
 25 26  2  0  0  0
 26 29  1  0  0  0
 29 30  1  0  0  0
 30 31  1  0  0  0
 31 32  1  0  0  0
 32 33  1  0  0  0
 33 34  1  0  0  0
 26 27  1  0  0  0
 27 28  2  0  0  0
  6  7  1  0  0  0
  7  8  2  0  0  0
  8  9  1  0  0  0
 11 12  1  0  0  0
 12 13  2  0  0  0
 13 14  1  0  0  0
 14 16  1  0  0  0
 16 17  1  0  0  0
 17 18  1  0  0  0
 18 19  1  0  0  0
 19 20  1  0  0  0
 20 21  1  0  0  0
 14 15  2  0  0  0
 15 10  1  0  0  0
  9  1  2  0  0  0
 21 16  1  0  0  0
  9  4  1  0  0  0
 28 23  1  0  0  0
 34 29  1  0  0  0
 32 35  1  0  0  0
 19 22  1  0  0  0
M  END
> <minimizedAffinity>
-3.85778

> <CNNscore>
0.5435017347

> <CNNaffinity>
5.0904970169

> <CNN_VS>
2.7666940689

> <CNNaffinity_variance>
0.1379146278

$$$$
[H]c1nc(N2C([H])([H])C([H])([H])N([H])C([H])([H])C2([H])[H])c([H])c([H])c1-c1c([H])nn2c([H])c(-c3c([H])c([H])c(N4C([H])([H])C([H])([H])N([H])C([H])([H])C4([H])[H])c([H])c3[H])c([H])nc12


 35 40  0  0  0  0  0  0  0  0999 V2000
   41.6646  -21.5930   36.1817 C   0  0  0  0  0  0  0  0  0  0  0  0
   42.5612  -20.8737   36.9694 C   0  0  0  0  0  0  0  0  0  0  0  0
   41.8928  -20.4955   38.0704 N   0  0  0  0  0  0  0  0  0  0  0  0
   40.6427  -20.9274   38.0263 N   0  0  0  0  0  0  0  0  0  0  0  0
   39.6041  -20.7931   38.8997 C   0  0  0  0  0  0  0  0  0  0  0  0
   38.3701  -21.3437   38.6274 C   0  0  0  0  0  0  0  0  0  0  0  0
   38.2356  -22.0298   37.4425 C   0  0  0  0  0  0  0  0  0  0  0  0
   39.2925  -22.1412   36.5998 N   0  0  0  0  0  0  0  0  0  0  0  0
   40.4881  -21.6037   36.8714 C   0  0  0  0  0  0  0  0  0  0  0  0
   41.5083  -21.6717   33.7000 C   0  0  0  0  0  0  0  0  0  0  0  0
   42.0012  -22.1849   34.8814 C   0  0  0  0  0  0  0  0  0  0  0  0
   42.8246  -23.2862   34.7762 C   0  0  0  0  0  0  0  0  0  0  0  0
   43.1228  -23.8276   33.5255 C   0  0  0  0  0  0  0  0  0  0  0  0
   42.6161  -23.2951   32.3582 C   0  0  0  0  0  0  0  0  0  0  0  0
   41.8065  -22.2065   32.5069 N   0  0  0  0  0  0  0  0  0  0  0  0
   42.8772  -23.8030   31.0705 N   0  0  0  0  0  0  0  0  0  0  0  0
   41.8510  -23.8024   30.0576 C   0  0  0  0  0  0  0  0  0  0  0  0
   42.4666  -23.7373   28.6649 C   0  0  0  0  0  0  0  0  0  0  0  0
   43.7359  -23.0369   28.6974 N   0  0  0  0  0  0  0  0  0  0  0  0
   44.7107  -23.6559   29.5386 C   0  0  0  0  0  0  0  0  0  0  0  0
   44.1791  -24.3305   30.7596 C   0  0  0  0  0  0  0  0  0  0  0  0
   43.6250  -22.0308   28.9338 H   0  0  0  0  0  0  0  0  0  0  0  0
   37.2352  -21.2099   39.5566 C   0  0  0  0  0  0  0  0  0  0  0  0
   36.0437  -20.7545   39.0783 C   0  0  0  0  0  0  0  0  0  0  0  0
   34.9678  -20.6184   39.9285 C   0  0  0  0  0  0  0  0  0  0  0  0
   35.0292  -20.9274   41.2826 C   0  0  0  0  0  0  0  0  0  0  0  0
   36.2600  -21.3839   41.7110 C   0  0  0  0  0  0  0  0  0  0  0  0
   37.3524  -21.5299   40.8840 C   0  0  0  0  0  0  0  0  0  0  0  0
   33.8942  -20.7691   42.1283 N   0  0  0  0  0  0  0  0  0  0  0  0
   33.0829  -21.9094   42.3949 C   0  0  0  0  0  0  0  0  0  0  0  0
   31.7740  -21.6843   43.0572 C   0  0  0  0  0  0  0  0  0  0  0  0
   31.3837  -20.2990   42.9111 N   0  0  0  0  0  0  0  0  0  0  0  0
   32.4348  -19.4984   43.5563 C   0  0  0  0  0  0  0  0  0  0  0  0
   33.6374  -19.4760   42.6658 C   0  0  0  0  0  0  0  0  0  0  0  0
   30.5183  -20.1369   43.4546 H   0  0  0  0  0  0  0  0  0  0  0  0
 10 11  2  0  0  0
 11  1  1  0  0  0
  1  2  1  0  0  0
  2  3  2  0  0  0
  3  4  1  0  0  0
  4  5  1  0  0  0
  5  6  2  0  0  0
  6 23  1  0  0  0
 23 24  2  0  0  0
 24 25  1  0  0  0
 25 26  2  0  0  0
 26 29  1  0  0  0
 29 30  1  0  0  0
 30 31  1  0  0  0
 31 32  1  0  0  0
 32 33  1  0  0  0
 33 34  1  0  0  0
 26 27  1  0  0  0
 27 28  2  0  0  0
  6  7  1  0  0  0
  7  8  2  0  0  0
  8  9  1  0  0  0
 11 12  1  0  0  0
 12 13  2  0  0  0
 13 14  1  0  0  0
 14 16  1  0  0  0
 16 17  1  0  0  0
 17 18  1  0  0  0
 18 19  1  0  0  0
 19 20  1  0  0  0
 20 21  1  0  0  0
 14 15  2  0  0  0
 15 10  1  0  0  0
  9  1  2  0  0  0
 21 16  1  0  0  0
  9  4  1  0  0  0
 28 23  1  0  0  0
 34 29  1  0  0  0
 32 35  1  0  0  0
 19 22  1  0  0  0
M  END
> <minimizedAffinity>
-4.49890

> <CNNscore>
0.5144564509

> <CNNaffinity>
5.0394663811

> <CNN_VS>
2.5925860405

> <CNNaffinity_variance>
0.0948140696

$$$$
[H]c1nc(N2C([H])([H])C([H])([H])N([H])C([H])([H])C2([H])[H])c([H])c([H])c1-c1c([H])nn2c([H])c(-c3c([H])c([H])c(N4C([H])([H])C([H])([H])N([H])C([H])([H])C4([H])[H])c([H])c3[H])c([H])nc12


 35 40  0  0  0  0  0  0  0  0999 V2000
   37.8571  -20.7111   37.8031 C   0  0  0  0  0  0  0  0  0  0  0  0
   38.0516  -19.4284   37.2946 C   0  0  0  0  0  0  0  0  0  0  0  0
   38.9425  -19.5383   36.2964 N   0  0  0  0  0  0  0  0  0  0  0  0
   39.3181  -20.7982   36.1455 N   0  0  0  0  0  0  0  0  0  0  0  0
   40.1887  -21.3886   35.2777 C   0  0  0  0  0  0  0  0  0  0  0  0
   40.4189  -22.7472   35.3153 C   0  0  0  0  0  0  0  0  0  0  0  0
   39.7348  -23.4746   36.2617 C   0  0  0  0  0  0  0  0  0  0  0  0
   38.8773  -22.8505   37.1072 N   0  0  0  0  0  0  0  0  0  0  0  0
   38.6590  -21.5305   37.0645 C   0  0  0  0  0  0  0  0  0  0  0  0
   37.0907  -20.4395   40.1543 C   0  0  0  0  0  0  0  0  0  0  0  0
   36.9528  -21.0284   38.9149 C   0  0  0  0  0  0  0  0  0  0  0  0
   35.9218  -21.9339   38.7766 C   0  0  0  0  0  0  0  0  0  0  0  0
   35.0815  -22.2165   39.8538 C   0  0  0  0  0  0  0  0  0  0  0  0
   35.2413  -21.6135   41.0841 C   0  0  0  0  0  0  0  0  0  0  0  0
   36.2724  -20.7244   41.1780 N   0  0  0  0  0  0  0  0  0  0  0  0
   34.4288  -21.8647   42.2071 N   0  0  0  0  0  0  0  0  0  0  0  0
   34.8759  -21.5128   43.5319 C   0  0  0  0  0  0  0  0  0  0  0  0
   33.6890  -21.2335   44.4463 C   0  0  0  0  0  0  0  0  0  0  0  0
   32.5625  -20.7295   43.6850 N   0  0  0  0  0  0  0  0  0  0  0  0
   32.0944  -21.6366   42.6854 C   0  0  0  0  0  0  0  0  0  0  0  0
   33.1399  -22.4803   42.0346 C   0  0  0  0  0  0  0  0  0  0  0  0
   32.7496  -19.7914   43.2783 H   0  0  0  0  0  0  0  0  0  0  0  0
   41.3553  -23.4046   34.3878 C   0  0  0  0  0  0  0  0  0  0  0  0
   42.6768  -23.4562   34.7143 C   0  0  0  0  0  0  0  0  0  0  0  0
   43.5729  -24.0638   33.8617 C   0  0  0  0  0  0  0  0  0  0  0  0
   43.1964  -24.6429   32.6552 C   0  0  0  0  0  0  0  0  0  0  0  0
   41.8464  -24.5608   32.3767 C   0  0  0  0  0  0  0  0  0  0  0  0
   40.9282  -23.9599   33.2099 C   0  0  0  0  0  0  0  0  0  0  0  0
   44.1553  -25.2581   31.8005 N   0  0  0  0  0  0  0  0  0  0  0  0
   44.0356  -25.0614   30.3946 C   0  0  0  0  0  0  0  0  0  0  0  0
   44.8730  -25.9057   29.5067 C   0  0  0  0  0  0  0  0  0  0  0  0
   45.3324  -27.0709   30.2306 N   0  0  0  0  0  0  0  0  0  0  0  0
   46.1219  -26.5727   31.3667 C   0  0  0  0  0  0  0  0  0  0  0  0
   45.1864  -26.0334   32.4028 C   0  0  0  0  0  0  0  0  0  0  0  0
   45.9877  -27.6004   29.6297 H   0  0  0  0  0  0  0  0  0  0  0  0
 10 11  2  0  0  0
 11  1  1  0  0  0
  1  2  1  0  0  0
  2  3  2  0  0  0
  3  4  1  0  0  0
  4  5  1  0  0  0
  5  6  2  0  0  0
  6 23  1  0  0  0
 23 24  2  0  0  0
 24 25  1  0  0  0
 25 26  2  0  0  0
 26 29  1  0  0  0
 29 30  1  0  0  0
 30 31  1  0  0  0
 31 32  1  0  0  0
 32 33  1  0  0  0
 33 34  1  0  0  0
 26 27  1  0  0  0
 27 28  2  0  0  0
  6  7  1  0  0  0
  7  8  2  0  0  0
  8  9  1  0  0  0
 11 12  1  0  0  0
 12 13  2  0  0  0
 13 14  1  0  0  0
 14 16  1  0  0  0
 16 17  1  0  0  0
 17 18  1  0  0  0
 18 19  1  0  0  0
 19 20  1  0  0  0
 20 21  1  0  0  0
 14 15  2  0  0  0
 15 10  1  0  0  0
  9  1  2  0  0  0
 21 16  1  0  0  0
  9  4  1  0  0  0
 28 23  1  0  0  0
 34 29  1  0  0  0
 32 35  1  0  0  0
 19 22  1  0  0  0
M  END
> <minimizedAffinity>
-1.69997

> <CNNscore>
0.5058079362

> <CNNaffinity>
4.9177999496

> <CNN_VS>
2.4874622822

> <CNNaffinity_variance>
0.1413597763

$$$$
[H]c1nc(N2C([H])([H])C([H])([H])N([H])C([H])([H])C2([H])[H])c([H])c([H])c1-c1c([H])nn2c([H])c(-c3c([H])c([H])c(N4C([H])([H])C([H])([H])N([H])C([H])([H])C4([H])[H])c([H])c3[H])c([H])nc12


 35 40  0  0  0  0  0  0  0  0999 V2000
   41.7688  -22.1998   33.8290 C   0  0  0  0  0  0  0  0  0  0  0  0
   41.2318  -20.9514   33.5210 C   0  0  0  0  0  0  0  0  0  0  0  0
   41.2515  -20.2309   34.6535 N   0  0  0  0  0  0  0  0  0  0  0  0
   41.7625  -20.9405   35.6467 N   0  0  0  0  0  0  0  0  0  0  0  0
   41.9817  -20.6399   36.9587 C   0  0  0  0  0  0  0  0  0  0  0  0
   42.5380  -21.5642   37.8168 C   0  0  0  0  0  0  0  0  0  0  0  0
   42.8595  -22.7948   37.2924 C   0  0  0  0  0  0  0  0  0  0  0  0
   42.6257  -23.0555   35.9821 N   0  0  0  0  0  0  0  0  0  0  0  0
   42.0851  -22.1525   35.1548 C   0  0  0  0  0  0  0  0  0  0  0  0
   43.0774  -23.4463   32.1193 C   0  0  0  0  0  0  0  0  0  0  0  0
   41.9247  -23.2915   32.8605 C   0  0  0  0  0  0  0  0  0  0  0  0
   40.9247  -24.2155   32.6406 C   0  0  0  0  0  0  0  0  0  0  0  0
   41.1024  -25.2399   31.7103 C   0  0  0  0  0  0  0  0  0  0  0  0
   42.2659  -25.3722   30.9812 C   0  0  0  0  0  0  0  0  0  0  0  0
   43.2293  -24.4380   31.2293 N   0  0  0  0  0  0  0  0  0  0  0  0
   42.4979  -26.3806   30.0254 N   0  0  0  0  0  0  0  0  0  0  0  0
   41.5617  -26.6064   28.9524 C   0  0  0  0  0  0  0  0  0  0  0  0
   42.2657  -27.1970   27.7364 C   0  0  0  0  0  0  0  0  0  0  0  0
   43.6481  -26.7625   27.6829 N   0  0  0  0  0  0  0  0  0  0  0  0
   44.4167  -27.1548   28.8216 C   0  0  0  0  0  0  0  0  0  0  0  0
   43.6789  -27.1970   30.1187 C   0  0  0  0  0  0  0  0  0  0  0  0
   43.7339  -25.7412   27.5096 H   0  0  0  0  0  0  0  0  0  0  0  0
   42.7826  -21.2602   39.2370 C   0  0  0  0  0  0  0  0  0  0  0  0
   42.2660  -22.0903   40.1857 C   0  0  0  0  0  0  0  0  0  0  0  0
   42.4791  -21.8257   41.5211 C   0  0  0  0  0  0  0  0  0  0  0  0
   43.2105  -20.7314   41.9687 C   0  0  0  0  0  0  0  0  0  0  0  0
   43.7093  -19.9259   40.9642 C   0  0  0  0  0  0  0  0  0  0  0  0
   43.5122  -20.1658   39.6218 C   0  0  0  0  0  0  0  0  0  0  0  0
   43.4045  -20.4917   43.3592 N   0  0  0  0  0  0  0  0  0  0  0  0
   42.5000  -19.6188   44.0295 C   0  0  0  0  0  0  0  0  0  0  0  0
   42.8575  -19.1761   45.4002 C   0  0  0  0  0  0  0  0  0  0  0  0
   44.2731  -19.3726   45.6240 N   0  0  0  0  0  0  0  0  0  0  0  0
   44.5260  -20.8121   45.4624 C   0  0  0  0  0  0  0  0  0  0  0  0
   44.4926  -21.1456   44.0039 C   0  0  0  0  0  0  0  0  0  0  0  0
   44.4897  -19.1471   46.6104 H   0  0  0  0  0  0  0  0  0  0  0  0
 10 11  2  0  0  0
 11  1  1  0  0  0
  1  2  1  0  0  0
  2  3  2  0  0  0
  3  4  1  0  0  0
  4  5  1  0  0  0
  5  6  2  0  0  0
  6 23  1  0  0  0
 23 24  2  0  0  0
 24 25  1  0  0  0
 25 26  2  0  0  0
 26 29  1  0  0  0
 29 30  1  0  0  0
 30 31  1  0  0  0
 31 32  1  0  0  0
 32 33  1  0  0  0
 33 34  1  0  0  0
 26 27  1  0  0  0
 27 28  2  0  0  0
  6  7  1  0  0  0
  7  8  2  0  0  0
  8  9  1  0  0  0
 11 12  1  0  0  0
 12 13  2  0  0  0
 13 14  1  0  0  0
 14 16  1  0  0  0
 16 17  1  0  0  0
 17 18  1  0  0  0
 18 19  1  0  0  0
 19 20  1  0  0  0
 20 21  1  0  0  0
 14 15  2  0  0  0
 15 10  1  0  0  0
  9  1  2  0  0  0
 21 16  1  0  0  0
  9  4  1  0  0  0
 28 23  1  0  0  0
 34 29  1  0  0  0
 32 35  1  0  0  0
 19 22  1  0  0  0
M  END
> <minimizedAffinity>
-3.33236

> <CNNscore>
0.4703361988

> <CNNaffinity>
4.8752760887

> <CNN_VS>
2.2930188179

> <CNNaffinity_variance>
0.1211381927

$$$$
[H]c1nc(N([H])c2c([H])c([H])c(N3C([H])([H])C([H])([H])N([H])C([H])([H])C3([H])[H])c([H])c2OC([H])([H])[H])nc(N([H])c2c([H])c([H])c(S(=O)(=O)N([H])[H])c([H])c2[H])c1Cl


 38 41  0  0  0  0  0  0  0  0999 V2000
   34.2006  -16.2713   35.5926 C   0  0  0  0  0  0  0  0  0  0  0  0
   35.4448  -16.6064   35.8264 N   0  0  0  0  0  0  0  0  0  0  0  0
   36.3176  -15.9143   36.5691 C   0  0  0  0  0  0  0  0  0  0  0  0
   35.8333  -14.7354   37.1324 C   0  0  0  0  0  0  0  0  0  0  0  0
   36.9040  -13.7863   38.1077 Cl  0  0  0  0  0  0  0  0  0  0  0  0
   34.5196  -14.3134   36.9281 C   0  0  0  0  0  0  0  0  0  0  0  0
   33.7572  -15.0961   36.1681 N   0  0  0  0  0  0  0  0  0  0  0  0
   33.2674  -16.9662   34.8267 N   0  0  0  0  0  0  0  0  0  0  0  0
   32.7509  -16.4140   34.0228 H   0  0  0  0  0  0  0  0  0  0  0  0
   33.7077  -19.3055   34.3484 C   0  0  0  0  0  0  0  0  0  0  0  0
   33.4208  -20.6432   34.4479 C   0  0  0  0  0  0  0  0  0  0  0  0
   32.3417  -21.1140   35.1591 C   0  0  0  0  0  0  0  0  0  0  0  0
   31.5610  -20.1642   35.7691 C   0  0  0  0  0  0  0  0  0  0  0  0
   31.8455  -18.7836   35.6745 C   0  0  0  0  0  0  0  0  0  0  0  0
   32.9090  -18.3206   34.9732 C   0  0  0  0  0  0  0  0  0  0  0  0
   32.0224  -22.4915   35.2744 N   0  0  0  0  0  0  0  0  0  0  0  0
   32.2699  -23.2150   36.5161 C   0  0  0  0  0  0  0  0  0  0  0  0
   32.4963  -24.6756   36.1541 C   0  0  0  0  0  0  0  0  0  0  0  0
   31.2965  -25.2677   35.6035 N   0  0  0  0  0  0  0  0  0  0  0  0
   30.5203  -24.2942   34.8597 C   0  0  0  0  0  0  0  0  0  0  0  0
   31.4402  -23.2584   34.1992 C   0  0  0  0  0  0  0  0  0  0  0  0
   31.5010  -26.1176   35.0353 H   0  0  0  0  0  0  0  0  0  0  0  0
   36.1093  -19.2640   33.9913 C   0  0  0  0  0  0  0  0  0  0  0  0
   34.8205  -18.8917   33.6093 O   0  0  0  0  0  0  0  0  0  0  0  0
   34.0804  -13.1037   37.5027 N   0  0  0  0  0  0  0  0  0  0  0  0
   34.8840  -12.4202   37.7355 H   0  0  0  0  0  0  0  0  0  0  0  0
   32.7673  -12.7056   37.8003 C   0  0  0  0  0  0  0  0  0  0  0  0
   31.9807  -11.9046   37.0302 C   0  0  0  0  0  0  0  0  0  0  0  0
   30.6736  -11.5330   37.4205 C   0  0  0  0  0  0  0  0  0  0  0  0
   30.1719  -11.9926   38.6169 C   0  0  0  0  0  0  0  0  0  0  0  0
   30.9550  -12.7980   39.3961 C   0  0  0  0  0  0  0  0  0  0  0  0
   32.2221  -13.1541   39.0115 C   0  0  0  0  0  0  0  0  0  0  0  0
   28.5596  -11.5454   39.1171 S   0  0  0  0  0  0  0  0  0  0  0  0
   28.6827  -10.2189   40.2158 N   0  0  0  0  0  0  0  0  0  0  0  0
   27.9899  -12.7146   39.9019 O   0  0  0  0  0  0  0  0  0  0  0  0
   27.6733  -11.2386   37.9574 O   0  0  0  0  0  0  0  0  0  0  0  0
   27.7405  -10.0034   40.5735 H   0  0  0  0  0  0  0  0  0  0  0  0
   29.2690  -10.5464   41.0188 H   0  0  0  0  0  0  0  0  0  0  0  0
 23 24  1  0  0  0
 24 10  1  0  0  0
 10 11  2  0  0  0
 11 12  1  0  0  0
 12 13  2  0  0  0
 13 14  1  0  0  0
 14 15  2  0  0  0
 15  8  1  0  0  0
  8  1  1  0  0  0
  1  2  2  0  0  0
  2  3  1  0  0  0
  3  4  2  0  0  0
  4  5  1  0  0  0
  4  6  1  0  0  0
  6 25  1  0  0  0
 25 27  1  0  0  0
 27 28  2  0  0  0
 28 29  1  0  0  0
 29 30  2  0  0  0
 30 31  1  0  0  0
 31 32  2  0  0  0
 30 33  1  0  0  0
 33 34  1  0  0  0
 33 35  2  0  0  0
 33 36  2  0  0  0
  6  7  2  0  0  0
 12 16  1  0  0  0
 16 17  1  0  0  0
 17 18  1  0  0  0
 18 19  1  0  0  0
 19 20  1  0  0  0
 20 21  1  0  0  0
 15 10  1  0  0  0
  7  1  1  0  0  0
 21 16  1  0  0  0
 32 27  1  0  0  0
  8  9  1  0  0  0
 25 26  1  0  0  0
 34 37  1  0  0  0
 34 38  1  0  0  0
 19 22  1  0  0  0
M  END
> <minimizedAffinity>
-7.77723

> <CNNscore>
0.5690326691

> <CNNaffinity>
6.6136636734

> <CNN_VS>
3.7633907795

> <CNNaffinity_variance>
0.0324907415

$$$$
[H]c1nc(N([H])c2c([H])c([H])c(N3C([H])([H])C([H])([H])N([H])C([H])([H])C3([H])[H])c([H])c2OC([H])([H])[H])nc(N([H])c2c([H])c([H])c(S(=O)(=O)N([H])[H])c([H])c2[H])c1Cl


 38 41  0  0  0  0  0  0  0  0999 V2000
   32.3598  -18.7562   35.1028 C   0  0  0  0  0  0  0  0  0  0  0  0
   31.1118  -18.6768   34.7141 N   0  0  0  0  0  0  0  0  0  0  0  0
   30.1495  -19.5696   34.9777 C   0  0  0  0  0  0  0  0  0  0  0  0
   30.5373  -20.6729   35.7353 C   0  0  0  0  0  0  0  0  0  0  0  0
   29.3467  -21.8707   36.1180 Cl  0  0  0  0  0  0  0  0  0  0  0  0
   31.8487  -20.8265   36.1851 C   0  0  0  0  0  0  0  0  0  0  0  0
   32.7059  -19.8644   35.8518 N   0  0  0  0  0  0  0  0  0  0  0  0
   33.3844  -17.8478   34.8472 N   0  0  0  0  0  0  0  0  0  0  0  0
   33.1049  -16.7929   34.6825 H   0  0  0  0  0  0  0  0  0  0  0  0
   35.6432  -17.4657   35.6516 C   0  0  0  0  0  0  0  0  0  0  0  0
   36.9949  -17.6986   35.6405 C   0  0  0  0  0  0  0  0  0  0  0  0
   37.5800  -18.5991   34.7811 C   0  0  0  0  0  0  0  0  0  0  0  0
   36.7302  -19.2577   33.9278 C   0  0  0  0  0  0  0  0  0  0  0  0
   35.3363  -19.0270   33.9292 C   0  0  0  0  0  0  0  0  0  0  0  0
   34.7607  -18.1392   34.7763 C   0  0  0  0  0  0  0  0  0  0  0  0
   38.9750  -18.8553   34.7482 N   0  0  0  0  0  0  0  0  0  0  0  0
   39.7698  -18.5171   33.5733 C   0  0  0  0  0  0  0  0  0  0  0  0
   40.9540  -19.4719   33.5351 C   0  0  0  0  0  0  0  0  0  0  0  0
   41.8342  -19.2555   34.6628 N   0  0  0  0  0  0  0  0  0  0  0  0
   41.0953  -18.8277   35.8352 C   0  0  0  0  0  0  0  0  0  0  0  0
   39.6931  -19.4515   35.8491 C   0  0  0  0  0  0  0  0  0  0  0  0
   42.4317  -20.0863   34.8619 H   0  0  0  0  0  0  0  0  0  0  0  0
   35.3349  -15.1701   36.3815 C   0  0  0  0  0  0  0  0  0  0  0  0
   35.1106  -16.5363   36.5508 O   0  0  0  0  0  0  0  0  0  0  0  0
   32.1983  -21.9692   36.9324 N   0  0  0  0  0  0  0  0  0  0  0  0
   31.9463  -22.8984   36.4424 H   0  0  0  0  0  0  0  0  0  0  0  0
   32.8082  -22.0324   38.1954 C   0  0  0  0  0  0  0  0  0  0  0  0
   32.4385  -22.8465   39.2220 C   0  0  0  0  0  0  0  0  0  0  0  0
   33.0962  -22.8265   40.4734 C   0  0  0  0  0  0  0  0  0  0  0  0
   34.1465  -21.9587   40.6682 C   0  0  0  0  0  0  0  0  0  0  0  0
   34.5247  -21.1380   39.6423 C   0  0  0  0  0  0  0  0  0  0  0  0
   33.8819  -21.1625   38.4312 C   0  0  0  0  0  0  0  0  0  0  0  0
   34.9724  -21.9187   42.2064 S   0  0  0  0  0  0  0  0  0  0  0  0
   33.8056  -22.1756   43.4533 N   0  0  0  0  0  0  0  0  0  0  0  0
   35.5118  -20.5109   42.3926 O   0  0  0  0  0  0  0  0  0  0  0  0
   36.0940  -22.8997   42.2708 O   0  0  0  0  0  0  0  0  0  0  0  0
   34.2754  -22.0744   44.3651 H   0  0  0  0  0  0  0  0  0  0  0  0
   33.0972  -21.4100   43.3652 H   0  0  0  0  0  0  0  0  0  0  0  0
 23 24  1  0  0  0
 24 10  1  0  0  0
 10 11  2  0  0  0
 11 12  1  0  0  0
 12 13  2  0  0  0
 13 14  1  0  0  0
 14 15  2  0  0  0
 15  8  1  0  0  0
  8  1  1  0  0  0
  1  2  2  0  0  0
  2  3  1  0  0  0
  3  4  2  0  0  0
  4  5  1  0  0  0
  4  6  1  0  0  0
  6 25  1  0  0  0
 25 27  1  0  0  0
 27 28  2  0  0  0
 28 29  1  0  0  0
 29 30  2  0  0  0
 30 31  1  0  0  0
 31 32  2  0  0  0
 30 33  1  0  0  0
 33 34  1  0  0  0
 33 35  2  0  0  0
 33 36  2  0  0  0
  6  7  2  0  0  0
 12 16  1  0  0  0
 16 17  1  0  0  0
 17 18  1  0  0  0
 18 19  1  0  0  0
 19 20  1  0  0  0
 20 21  1  0  0  0
 15 10  1  0  0  0
  7  1  1  0  0  0
 21 16  1  0  0  0
 32 27  1  0  0  0
  8  9  1  0  0  0
 25 26  1  0  0  0
 34 37  1  0  0  0
 34 38  1  0  0  0
 19 22  1  0  0  0
M  END
> <minimizedAffinity>
-5.73082

> <CNNscore>
0.4506725371

> <CNNaffinity>
5.9976248741

> <CNN_VS>
2.7029647827

> <CNNaffinity_variance>
0.5422280431

$$$$
[H]c1nc(N([H])c2c([H])c([H])c(N3C([H])([H])C([H])([H])N([H])C([H])([H])C3([H])[H])c([H])c2OC([H])([H])[H])nc(N([H])c2c([H])c([H])c(S(=O)(=O)N([H])[H])c([H])c2[H])c1Cl


 38 41  0  0  0  0  0  0  0  0999 V2000
   31.9789  -18.7749   35.3371 C   0  0  0  0  0  0  0  0  0  0  0  0
   30.7688  -18.7349   34.8382 N   0  0  0  0  0  0  0  0  0  0  0  0
   29.8115  -19.6517   35.0271 C   0  0  0  0  0  0  0  0  0  0  0  0
   30.1602  -20.7356   35.8304 C   0  0  0  0  0  0  0  0  0  0  0  0
   28.9734  -21.9624   36.1216 Cl  0  0  0  0  0  0  0  0  0  0  0  0
   31.4300  -20.8472   36.3968 C   0  0  0  0  0  0  0  0  0  0  0  0
   32.2870  -19.8648   36.1283 N   0  0  0  0  0  0  0  0  0  0  0  0
   32.9971  -17.8405   35.1615 N   0  0  0  0  0  0  0  0  0  0  0  0
   32.7186  -16.7726   35.1628 H   0  0  0  0  0  0  0  0  0  0  0  0
   35.3153  -17.3600   35.7000 C   0  0  0  0  0  0  0  0  0  0  0  0
   36.6640  -17.5766   35.5753 C   0  0  0  0  0  0  0  0  0  0  0  0
   37.1808  -18.5443   34.7454 C   0  0  0  0  0  0  0  0  0  0  0  0
   36.2654  -19.2876   34.0430 C   0  0  0  0  0  0  0  0  0  0  0  0
   34.8738  -19.0745   34.1625 C   0  0  0  0  0  0  0  0  0  0  0  0
   34.3656  -18.1206   34.9803 C   0  0  0  0  0  0  0  0  0  0  0  0
   38.5709  -18.7856   34.5968 N   0  0  0  0  0  0  0  0  0  0  0  0
   39.3479  -19.3732   35.6819 C   0  0  0  0  0  0  0  0  0  0  0  0
   40.7816  -18.8861   35.5304 C   0  0  0  0  0  0  0  0  0  0  0  0
   41.3797  -19.3973   34.3163 N   0  0  0  0  0  0  0  0  0  0  0  0
   40.3930  -19.5479   33.2640 C   0  0  0  0  0  0  0  0  0  0  0  0
   39.2997  -18.4782   33.3896 C   0  0  0  0  0  0  0  0  0  0  0  0
   42.1940  -18.8248   34.0064 H   0  0  0  0  0  0  0  0  0  0  0  0
   35.2562  -15.0341   36.3959 C   0  0  0  0  0  0  0  0  0  0  0  0
   34.8541  -16.3595   36.5615 O   0  0  0  0  0  0  0  0  0  0  0  0
   31.7427  -21.9716   37.1870 N   0  0  0  0  0  0  0  0  0  0  0  0
   30.8851  -22.5847   37.4228 H   0  0  0  0  0  0  0  0  0  0  0  0
   32.9941  -22.3653   37.6872 C   0  0  0  0  0  0  0  0  0  0  0  0
   33.5335  -21.9882   38.8789 C   0  0  0  0  0  0  0  0  0  0  0  0
   34.8161  -22.4147   39.2937 C   0  0  0  0  0  0  0  0  0  0  0  0
   35.5499  -23.2392   38.4717 C   0  0  0  0  0  0  0  0  0  0  0  0
   35.0156  -23.6232   37.2733 C   0  0  0  0  0  0  0  0  0  0  0  0
   33.7711  -23.2053   36.8772 C   0  0  0  0  0  0  0  0  0  0  0  0
   37.1361  -23.7775   38.9657 S   0  0  0  0  0  0  0  0  0  0  0  0
   37.9598  -24.3821   37.5736 N   0  0  0  0  0  0  0  0  0  0  0  0
   36.9408  -24.9541   39.9064 O   0  0  0  0  0  0  0  0  0  0  0  0
   37.9069  -22.7037   39.6567 O   0  0  0  0  0  0  0  0  0  0  0  0
   38.8649  -24.7726   37.8744 H   0  0  0  0  0  0  0  0  0  0  0  0
   37.3768  -25.1650   37.1953 H   0  0  0  0  0  0  0  0  0  0  0  0
 23 24  1  0  0  0
 24 10  1  0  0  0
 10 11  2  0  0  0
 11 12  1  0  0  0
 12 13  2  0  0  0
 13 14  1  0  0  0
 14 15  2  0  0  0
 15  8  1  0  0  0
  8  1  1  0  0  0
  1  2  2  0  0  0
  2  3  1  0  0  0
  3  4  2  0  0  0
  4  5  1  0  0  0
  4  6  1  0  0  0
  6 25  1  0  0  0
 25 27  1  0  0  0
 27 28  2  0  0  0
 28 29  1  0  0  0
 29 30  2  0  0  0
 30 31  1  0  0  0
 31 32  2  0  0  0
 30 33  1  0  0  0
 33 34  1  0  0  0
 33 35  2  0  0  0
 33 36  2  0  0  0
  6  7  2  0  0  0
 12 16  1  0  0  0
 16 17  1  0  0  0
 17 18  1  0  0  0
 18 19  1  0  0  0
 19 20  1  0  0  0
 20 21  1  0  0  0
 15 10  1  0  0  0
  7  1  1  0  0  0
 21 16  1  0  0  0
 32 27  1  0  0  0
  8  9  1  0  0  0
 25 26  1  0  0  0
 34 37  1  0  0  0
 34 38  1  0  0  0
 19 22  1  0  0  0
M  END
> <minimizedAffinity>
-5.75998

> <CNNscore>
0.4227260649

> <CNNaffinity>
6.1181697845

> <CNN_VS>
2.5863099098

> <CNNaffinity_variance>
0.7345498204

$$$$
[H]c1nc(N([H])c2c([H])c([H])c(N3C([H])([H])C([H])([H])N([H])C([H])([H])C3([H])[H])c([H])c2OC([H])([H])[H])nc(N([H])c2c([H])c([H])c(S(=O)(=O)N([H])[H])c([H])c2[H])c1Cl


 38 41  0  0  0  0  0  0  0  0999 V2000
   34.4242  -16.4782   35.8620 C   0  0  0  0  0  0  0  0  0  0  0  0
   35.7175  -16.6612   35.9552 N   0  0  0  0  0  0  0  0  0  0  0  0
   36.6019  -15.7803   36.4394 C   0  0  0  0  0  0  0  0  0  0  0  0
   36.0724  -14.5678   36.8767 C   0  0  0  0  0  0  0  0  0  0  0  0
   37.1550  -13.3779   37.5175 Cl  0  0  0  0  0  0  0  0  0  0  0  0
   34.7051  -14.3003   36.8090 C   0  0  0  0  0  0  0  0  0  0  0  0
   33.9371  -15.2638   36.3056 N   0  0  0  0  0  0  0  0  0  0  0  0
   33.4776  -17.3710   35.3648 N   0  0  0  0  0  0  0  0  0  0  0  0
   32.7218  -16.9784   34.6629 H   0  0  0  0  0  0  0  0  0  0  0  0
   32.1058  -19.3487   35.6837 C   0  0  0  0  0  0  0  0  0  0  0  0
   31.9366  -20.6795   35.9699 C   0  0  0  0  0  0  0  0  0  0  0  0
   32.9936  -21.5106   36.2598 C   0  0  0  0  0  0  0  0  0  0  0  0
   34.2375  -20.9306   36.2471 C   0  0  0  0  0  0  0  0  0  0  0  0
   34.4253  -19.5613   35.9540 C   0  0  0  0  0  0  0  0  0  0  0  0
   33.3831  -18.7432   35.6685 C   0  0  0  0  0  0  0  0  0  0  0  0
   32.8444  -22.8887   36.5618 N   0  0  0  0  0  0  0  0  0  0  0  0
   31.9459  -23.7319   35.7819 C   0  0  0  0  0  0  0  0  0  0  0  0
   31.4774  -24.8593   36.6903 C   0  0  0  0  0  0  0  0  0  0  0  0
   32.5788  -25.7210   37.0613 N   0  0  0  0  0  0  0  0  0  0  0  0
   33.8204  -24.9782   37.1614 C   0  0  0  0  0  0  0  0  0  0  0  0
   33.5558  -23.5422   37.6341 C   0  0  0  0  0  0  0  0  0  0  0  0
   32.3798  -26.2640   37.9288 H   0  0  0  0  0  0  0  0  0  0  0  0
   29.8068  -19.1330   34.9317 C   0  0  0  0  0  0  0  0  0  0  0  0
   30.9889  -18.5573   35.3972 O   0  0  0  0  0  0  0  0  0  0  0  0
   34.2183  -13.0518   37.2457 N   0  0  0  0  0  0  0  0  0  0  0  0
   34.9862  -12.2974   37.3364 H   0  0  0  0  0  0  0  0  0  0  0  0
   32.8996  -12.6946   37.5690 C   0  0  0  0  0  0  0  0  0  0  0  0
   32.0659  -11.9373   36.8043 C   0  0  0  0  0  0  0  0  0  0  0  0
   30.7564  -11.6044   37.2206 C   0  0  0  0  0  0  0  0  0  0  0  0
   30.3014  -12.0577   38.4379 C   0  0  0  0  0  0  0  0  0  0  0  0
   31.1318  -12.8193   39.2120 C   0  0  0  0  0  0  0  0  0  0  0  0
   32.4009  -13.1380   38.8020 C   0  0  0  0  0  0  0  0  0  0  0  0
   28.6869  -11.6579   38.9704 S   0  0  0  0  0  0  0  0  0  0  0  0
   27.6519  -11.6348   37.5883 N   0  0  0  0  0  0  0  0  0  0  0  0
   28.7286  -10.2393   39.5121 O   0  0  0  0  0  0  0  0  0  0  0  0
   28.1955  -12.5863   40.0293 O   0  0  0  0  0  0  0  0  0  0  0  0
   26.7162  -11.3227   37.8871 H   0  0  0  0  0  0  0  0  0  0  0  0
   28.0408  -10.9172   36.9329 H   0  0  0  0  0  0  0  0  0  0  0  0
 23 24  1  0  0  0
 24 10  1  0  0  0
 10 11  2  0  0  0
 11 12  1  0  0  0
 12 13  2  0  0  0
 13 14  1  0  0  0
 14 15  2  0  0  0
 15  8  1  0  0  0
  8  1  1  0  0  0
  1  2  2  0  0  0
  2  3  1  0  0  0
  3  4  2  0  0  0
  4  5  1  0  0  0
  4  6  1  0  0  0
  6 25  1  0  0  0
 25 27  1  0  0  0
 27 28  2  0  0  0
 28 29  1  0  0  0
 29 30  2  0  0  0
 30 31  1  0  0  0
 31 32  2  0  0  0
 30 33  1  0  0  0
 33 34  1  0  0  0
 33 35  2  0  0  0
 33 36  2  0  0  0
  6  7  2  0  0  0
 12 16  1  0  0  0
 16 17  1  0  0  0
 17 18  1  0  0  0
 18 19  1  0  0  0
 19 20  1  0  0  0
 20 21  1  0  0  0
 15 10  1  0  0  0
  7  1  1  0  0  0
 21 16  1  0  0  0
 32 27  1  0  0  0
  8  9  1  0  0  0
 25 26  1  0  0  0
 34 37  1  0  0  0
 34 38  1  0  0  0
 19 22  1  0  0  0
M  END
> <minimizedAffinity>
-7.50949

> <CNNscore>
0.4104442894

> <CNNaffinity>
6.2860445976

> <CNN_VS>
2.5800712109

> <CNNaffinity_variance>
0.2616048455

$$$$
[H]c1nc(N([H])c2c([H])c([H])c(N3C([H])([H])C([H])([H])N([H])C([H])([H])C3([H])[H])c([H])c2OC([H])([H])[H])nc(N([H])c2c([H])c([H])c(S(=O)(=O)N([H])[H])c([H])c2[H])c1Cl


 38 41  0  0  0  0  0  0  0  0999 V2000
   32.9162  -18.7391   35.6155 C   0  0  0  0  0  0  0  0  0  0  0  0
   31.7620  -18.5037   35.0434 N   0  0  0  0  0  0  0  0  0  0  0  0
   30.7294  -19.3536   34.9808 C   0  0  0  0  0  0  0  0  0  0  0  0
   30.9267  -20.5929   35.5864 C   0  0  0  0  0  0  0  0  0  0  0  0
   29.6349  -21.7454   35.5473 Cl  0  0  0  0  0  0  0  0  0  0  0  0
   32.1290  -20.9161   36.2153 C   0  0  0  0  0  0  0  0  0  0  0  0
   33.0738  -19.9787   36.2049 N   0  0  0  0  0  0  0  0  0  0  0  0
   34.0093  -17.8797   35.6991 N   0  0  0  0  0  0  0  0  0  0  0  0
   33.8288  -16.8551   36.0672 H   0  0  0  0  0  0  0  0  0  0  0  0
   36.2699  -18.4256   36.3968 C   0  0  0  0  0  0  0  0  0  0  0  0
   37.5825  -18.7307   36.1409 C   0  0  0  0  0  0  0  0  0  0  0  0
   38.0810  -18.8246   34.8623 C   0  0  0  0  0  0  0  0  0  0  0  0
   37.1857  -18.5943   33.8478 C   0  0  0  0  0  0  0  0  0  0  0  0
   35.8313  -18.2792   34.0979 C   0  0  0  0  0  0  0  0  0  0  0  0
   35.3411  -18.1868   35.3581 C   0  0  0  0  0  0  0  0  0  0  0  0
   39.4344  -19.1356   34.5719 N   0  0  0  0  0  0  0  0  0  0  0  0
   40.4544  -19.0789   35.6125 C   0  0  0  0  0  0  0  0  0  0  0  0
   41.7811  -18.7732   34.9327 C   0  0  0  0  0  0  0  0  0  0  0  0
   42.1844  -19.8591   34.0658 N   0  0  0  0  0  0  0  0  0  0  0  0
   41.0353  -20.5216   33.4793 C   0  0  0  0  0  0  0  0  0  0  0  0
   39.8895  -19.5247   33.2587 C   0  0  0  0  0  0  0  0  0  0  0  0
   42.8678  -19.5520   33.3408 H   0  0  0  0  0  0  0  0  0  0  0  0
   35.6710  -19.4967   38.4923 C   0  0  0  0  0  0  0  0  0  0  0  0
   35.8257  -18.3453   37.7204 O   0  0  0  0  0  0  0  0  0  0  0  0
   32.2890  -22.1897   36.7975 N   0  0  0  0  0  0  0  0  0  0  0  0
   32.4558  -22.9758   36.0756 H   0  0  0  0  0  0  0  0  0  0  0  0
   32.2514  -22.5381   38.1571 C   0  0  0  0  0  0  0  0  0  0  0  0
   33.2025  -22.2420   39.0850 C   0  0  0  0  0  0  0  0  0  0  0  0
   33.0943  -22.6553   40.4328 C   0  0  0  0  0  0  0  0  0  0  0  0
   31.9937  -23.3809   40.8281 C   0  0  0  0  0  0  0  0  0  0  0  0
   31.0335  -23.6821   39.9028 C   0  0  0  0  0  0  0  0  0  0  0  0
   31.1451  -23.2783   38.5971 C   0  0  0  0  0  0  0  0  0  0  0  0
   31.8410  -23.9007   42.4883 S   0  0  0  0  0  0  0  0  0  0  0  0
   30.2695  -24.5851   42.6982 N   0  0  0  0  0  0  0  0  0  0  0  0
   31.8982  -22.6565   43.3579 O   0  0  0  0  0  0  0  0  0  0  0  0
   32.9259  -24.8433   42.8870 O   0  0  0  0  0  0  0  0  0  0  0  0
   30.1470  -24.8209   43.6939 H   0  0  0  0  0  0  0  0  0  0  0  0
   29.5799  -23.8364   42.4534 H   0  0  0  0  0  0  0  0  0  0  0  0
 23 24  1  0  0  0
 24 10  1  0  0  0
 10 11  2  0  0  0
 11 12  1  0  0  0
 12 13  2  0  0  0
 13 14  1  0  0  0
 14 15  2  0  0  0
 15  8  1  0  0  0
  8  1  1  0  0  0
  1  2  2  0  0  0
  2  3  1  0  0  0
  3  4  2  0  0  0
  4  5  1  0  0  0
  4  6  1  0  0  0
  6 25  1  0  0  0
 25 27  1  0  0  0
 27 28  2  0  0  0
 28 29  1  0  0  0
 29 30  2  0  0  0
 30 31  1  0  0  0
 31 32  2  0  0  0
 30 33  1  0  0  0
 33 34  1  0  0  0
 33 35  2  0  0  0
 33 36  2  0  0  0
  6  7  2  0  0  0
 12 16  1  0  0  0
 16 17  1  0  0  0
 17 18  1  0  0  0
 18 19  1  0  0  0
 19 20  1  0  0  0
 20 21  1  0  0  0
 15 10  1  0  0  0
  7  1  1  0  0  0
 21 16  1  0  0  0
 32 27  1  0  0  0
  8  9  1  0  0  0
 25 26  1  0  0  0
 34 37  1  0  0  0
 34 38  1  0  0  0
 19 22  1  0  0  0
M  END
> <minimizedAffinity>
-5.26155

> <CNNscore>
0.3888446391

> <CNNaffinity>
5.6089510918

> <CNN_VS>
2.1810104847

> <CNNaffinity_variance>
0.5681356788

$$$$
[H]c1nc(N([H])c2c([H])c([H])c(N3C([H])([H])C([H])([H])N([H])C([H])([H])C3([H])[H])c([H])c2OC([H])([H])[H])nc(N([H])c2c([H])c([H])c(S(=O)(=O)N([H])[H])c([H])c2[H])c1Cl


 38 41  0  0  0  0  0  0  0  0999 V2000
   33.3678  -13.2183   36.8395 C   0  0  0  0  0  0  0  0  0  0  0  0
   34.4008  -12.6878   37.4448 N   0  0  0  0  0  0  0  0  0  0  0  0
   35.6313  -13.2123   37.5021 C   0  0  0  0  0  0  0  0  0  0  0  0
   35.8011  -14.4326   36.8511 C   0  0  0  0  0  0  0  0  0  0  0  0
   37.3663  -15.1728   36.8805 Cl  0  0  0  0  0  0  0  0  0  0  0  0
   34.7475  -15.0586   36.1850 C   0  0  0  0  0  0  0  0  0  0  0  0
   33.5755  -14.4281   36.2056 N   0  0  0  0  0  0  0  0  0  0  0  0
   32.0768  -12.7010   36.7602 N   0  0  0  0  0  0  0  0  0  0  0  0
   31.6821  -12.4594   35.7584 H   0  0  0  0  0  0  0  0  0  0  0  0
   30.5531  -11.2007   37.9101 C   0  0  0  0  0  0  0  0  0  0  0  0
   29.6941  -10.8869   38.9324 C   0  0  0  0  0  0  0  0  0  0  0  0
   29.4147  -11.7635   39.9549 C   0  0  0  0  0  0  0  0  0  0  0  0
   30.0478  -12.9799   39.8959 C   0  0  0  0  0  0  0  0  0  0  0  0
   30.9347  -13.3155   38.8485 C   0  0  0  0  0  0  0  0  0  0  0  0
   31.2094  -12.4509   37.8416 C   0  0  0  0  0  0  0  0  0  0  0  0
   28.5329  -11.4615   41.0244 N   0  0  0  0  0  0  0  0  0  0  0  0
   28.6862  -12.1048   42.3241 C   0  0  0  0  0  0  0  0  0  0  0  0
   27.3121  -12.1442   42.9769 C   0  0  0  0  0  0  0  0  0  0  0  0
   26.8357  -10.8096   43.2687 N   0  0  0  0  0  0  0  0  0  0  0  0
   27.3081   -9.8533   42.2860 C   0  0  0  0  0  0  0  0  0  0  0  0
   27.4484  -10.5162   40.9089 C   0  0  0  0  0  0  0  0  0  0  0  0
   25.7993  -10.7757   43.3769 H   0  0  0  0  0  0  0  0  0  0  0  0
   31.5248   -9.1047   37.1619 C   0  0  0  0  0  0  0  0  0  0  0  0
   30.7949  -10.2641   36.9001 O   0  0  0  0  0  0  0  0  0  0  0  0
   34.9625  -16.3020   35.5571 N   0  0  0  0  0  0  0  0  0  0  0  0
   35.8512  -16.3270   34.9434 H   0  0  0  0  0  0  0  0  0  0  0  0
   34.1784  -17.4642   35.6323 C   0  0  0  0  0  0  0  0  0  0  0  0
   32.9417  -17.6309   35.0884 C   0  0  0  0  0  0  0  0  0  0  0  0
   32.2102  -18.8320   35.2348 C   0  0  0  0  0  0  0  0  0  0  0  0
   32.7599  -19.8723   35.9487 C   0  0  0  0  0  0  0  0  0  0  0  0
   34.0019  -19.7135   36.4978 C   0  0  0  0  0  0  0  0  0  0  0  0
   34.7055  -18.5456   36.3522 C   0  0  0  0  0  0  0  0  0  0  0  0
   31.8729  -21.3643   36.1409 S   0  0  0  0  0  0  0  0  0  0  0  0
   31.8304  -21.7553   37.8223 N   0  0  0  0  0  0  0  0  0  0  0  0
   32.6747  -22.4575   35.4556 O   0  0  0  0  0  0  0  0  0  0  0  0
   30.5086  -21.2912   35.5427 O   0  0  0  0  0  0  0  0  0  0  0  0
   31.3766  -22.6741   37.9319 H   0  0  0  0  0  0  0  0  0  0  0  0
   32.8252  -21.8437   38.1362 H   0  0  0  0  0  0  0  0  0  0  0  0
 23 24  1  0  0  0
 24 10  1  0  0  0
 10 11  2  0  0  0
 11 12  1  0  0  0
 12 13  2  0  0  0
 13 14  1  0  0  0
 14 15  2  0  0  0
 15  8  1  0  0  0
  8  1  1  0  0  0
  1  2  2  0  0  0
  2  3  1  0  0  0
  3  4  2  0  0  0
  4  5  1  0  0  0
  4  6  1  0  0  0
  6 25  1  0  0  0
 25 27  1  0  0  0
 27 28  2  0  0  0
 28 29  1  0  0  0
 29 30  2  0  0  0
 30 31  1  0  0  0
 31 32  2  0  0  0
 30 33  1  0  0  0
 33 34  1  0  0  0
 33 35  2  0  0  0
 33 36  2  0  0  0
  6  7  2  0  0  0
 12 16  1  0  0  0
 16 17  1  0  0  0
 17 18  1  0  0  0
 18 19  1  0  0  0
 19 20  1  0  0  0
 20 21  1  0  0  0
 15 10  1  0  0  0
  7  1  1  0  0  0
 21 16  1  0  0  0
 32 27  1  0  0  0
  8  9  1  0  0  0
 25 26  1  0  0  0
 34 37  1  0  0  0
 34 38  1  0  0  0
 19 22  1  0  0  0
M  END
> <minimizedAffinity>
-7.08147

> <CNNscore>
0.3865214884

> <CNNaffinity>
6.6327071190

> <CNN_VS>
2.5636837482

> <CNNaffinity_variance>
0.0501109473

$$$$
[H]c1nc(N([H])c2c([H])c([H])c(N3C([H])([H])C([H])([H])N([H])C([H])([H])C3([H])[H])c([H])c2OC([H])([H])[H])nc(N([H])c2c([H])c([H])c(S(=O)(=O)N([H])[H])c([H])c2[H])c1Cl


 38 41  0  0  0  0  0  0  0  0999 V2000
   33.9107  -16.6634   35.3811 C   0  0  0  0  0  0  0  0  0  0  0  0
   33.6616  -15.4858   35.8971 N   0  0  0  0  0  0  0  0  0  0  0  0
   34.4867  -14.7831   36.6832 C   0  0  0  0  0  0  0  0  0  0  0  0
   35.7141  -15.3810   36.9618 C   0  0  0  0  0  0  0  0  0  0  0  0
   36.8356  -14.5314   37.9714 Cl  0  0  0  0  0  0  0  0  0  0  0  0
   36.0506  -16.6334   36.4482 C   0  0  0  0  0  0  0  0  0  0  0  0
   35.1377  -17.2235   35.6801 N   0  0  0  0  0  0  0  0  0  0  0  0
   33.0772  -17.4207   34.5612 N   0  0  0  0  0  0  0  0  0  0  0  0
   32.9530  -17.0935   33.5146 H   0  0  0  0  0  0  0  0  0  0  0  0
   33.0859  -19.7735   35.1605 C   0  0  0  0  0  0  0  0  0  0  0  0
   32.4615  -20.9385   35.5268 C   0  0  0  0  0  0  0  0  0  0  0  0
   31.0992  -21.0217   35.6978 C   0  0  0  0  0  0  0  0  0  0  0  0
   30.3927  -19.8653   35.4800 C   0  0  0  0  0  0  0  0  0  0  0  0
   31.0237  -18.6589   35.1024 C   0  0  0  0  0  0  0  0  0  0  0  0
   32.3661  -18.5781   34.9340 C   0  0  0  0  0  0  0  0  0  0  0  0
   30.4298  -22.2149   36.0731 N   0  0  0  0  0  0  0  0  0  0  0  0
   29.5181  -22.2345   37.2110 C   0  0  0  0  0  0  0  0  0  0  0  0
   29.5191  -23.6497   37.7703 C   0  0  0  0  0  0  0  0  0  0  0  0
   28.9588  -24.5857   36.8199 N   0  0  0  0  0  0  0  0  0  0  0  0
   29.2428  -24.1864   35.4549 C   0  0  0  0  0  0  0  0  0  0  0  0
   30.5951  -23.4654   35.3716 C   0  0  0  0  0  0  0  0  0  0  0  0
   29.2589  -25.5663   37.0083 H   0  0  0  0  0  0  0  0  0  0  0  0
   35.0488  -19.6722   33.7343 C   0  0  0  0  0  0  0  0  0  0  0  0
   34.4754  -19.7555   35.0031 O   0  0  0  0  0  0  0  0  0  0  0  0
   37.2965  -17.2067   36.7734 N   0  0  0  0  0  0  0  0  0  0  0  0
   37.8244  -16.6769   37.5529 H   0  0  0  0  0  0  0  0  0  0  0  0
   37.9068  -18.3412   36.2153 C   0  0  0  0  0  0  0  0  0  0  0  0
   38.3207  -18.4734   34.9251 C   0  0  0  0  0  0  0  0  0  0  0  0
   38.9057  -19.6658   34.4402 C   0  0  0  0  0  0  0  0  0  0  0  0
   39.0663  -20.7327   35.2946 C   0  0  0  0  0  0  0  0  0  0  0  0
   38.6540  -20.6083   36.5921 C   0  0  0  0  0  0  0  0  0  0  0  0
   38.0870  -19.4489   37.0555 C   0  0  0  0  0  0  0  0  0  0  0  0
   39.7871  -22.2142   34.7155 S   0  0  0  0  0  0  0  0  0  0  0  0
   40.6594  -22.9367   36.0190 N   0  0  0  0  0  0  0  0  0  0  0  0
   40.8102  -21.8354   33.6585 O   0  0  0  0  0  0  0  0  0  0  0  0
   38.7772  -23.1416   34.1284 O   0  0  0  0  0  0  0  0  0  0  0  0
   41.1504  -23.7691   35.6609 H   0  0  0  0  0  0  0  0  0  0  0  0
   41.3789  -22.2396   36.3227 H   0  0  0  0  0  0  0  0  0  0  0  0
 23 24  1  0  0  0
 24 10  1  0  0  0
 10 11  2  0  0  0
 11 12  1  0  0  0
 12 13  2  0  0  0
 13 14  1  0  0  0
 14 15  2  0  0  0
 15  8  1  0  0  0
  8  1  1  0  0  0
  1  2  2  0  0  0
  2  3  1  0  0  0
  3  4  2  0  0  0
  4  5  1  0  0  0
  4  6  1  0  0  0
  6 25  1  0  0  0
 25 27  1  0  0  0
 27 28  2  0  0  0
 28 29  1  0  0  0
 29 30  2  0  0  0
 30 31  1  0  0  0
 31 32  2  0  0  0
 30 33  1  0  0  0
 33 34  1  0  0  0
 33 35  2  0  0  0
 33 36  2  0  0  0
  6  7  2  0  0  0
 12 16  1  0  0  0
 16 17  1  0  0  0
 17 18  1  0  0  0
 18 19  1  0  0  0
 19 20  1  0  0  0
 20 21  1  0  0  0
 15 10  1  0  0  0
  7  1  1  0  0  0
 21 16  1  0  0  0
 32 27  1  0  0  0
  8  9  1  0  0  0
 25 26  1  0  0  0
 34 37  1  0  0  0
 34 38  1  0  0  0
 19 22  1  0  0  0
M  END
> <minimizedAffinity>
-5.98170

> <CNNscore>
0.3784445822

> <CNNaffinity>
6.0523366928

> <CNN_VS>
2.2904739380

> <CNNaffinity_variance>
0.1674614102

$$$$
[H]c1nc(N([H])c2c([H])c([H])c(N3C([H])([H])C([H])([H])N([H])C([H])([H])C3([H])[H])c([H])c2OC([H])([H])[H])nc(N([H])c2c([H])c([H])c(S(=O)(=O)N([H])[H])c([H])c2[H])c1Cl


 38 41  0  0  0  0  0  0  0  0999 V2000
   38.0196  -21.8974   40.6549 C   0  0  0  0  0  0  0  0  0  0  0  0
   38.2836  -23.1759   40.7587 N   0  0  0  0  0  0  0  0  0  0  0  0
   39.5043  -23.7229   40.8162 C   0  0  0  0  0  0  0  0  0  0  0  0
   40.5722  -22.8297   40.7583 C   0  0  0  0  0  0  0  0  0  0  0  0
   42.1823  -23.4630   40.8285 Cl  0  0  0  0  0  0  0  0  0  0  0  0
   40.3696  -21.4541   40.6475 C   0  0  0  0  0  0  0  0  0  0  0  0
   39.1044  -21.0435   40.6002 N   0  0  0  0  0  0  0  0  0  0  0  0
   36.7649  -21.2955   40.5928 N   0  0  0  0  0  0  0  0  0  0  0  0
   36.2939  -20.9931   41.5439 H   0  0  0  0  0  0  0  0  0  0  0  0
   34.7686  -21.6571   39.2590 C   0  0  0  0  0  0  0  0  0  0  0  0
   33.9911  -21.4439   38.1492 C   0  0  0  0  0  0  0  0  0  0  0  0
   34.3785  -20.6076   37.1282 C   0  0  0  0  0  0  0  0  0  0  0  0
   35.5959  -19.9927   37.2817 C   0  0  0  0  0  0  0  0  0  0  0  0
   36.4062  -20.2036   38.4197 C   0  0  0  0  0  0  0  0  0  0  0  0
   36.0237  -21.0280   39.4252 C   0  0  0  0  0  0  0  0  0  0  0  0
   33.5941  -20.3732   35.9696 N   0  0  0  0  0  0  0  0  0  0  0  0
   34.0251  -19.4179   34.9556 C   0  0  0  0  0  0  0  0  0  0  0  0
   32.7743  -18.8848   34.2721 C   0  0  0  0  0  0  0  0  0  0  0  0
   32.0939  -19.9317   33.5412 N   0  0  0  0  0  0  0  0  0  0  0  0
   32.2523  -21.2186   34.1911 C   0  0  0  0  0  0  0  0  0  0  0  0
   32.3446  -21.0488   35.7136 C   0  0  0  0  0  0  0  0  0  0  0  0
   31.0912  -19.7044   33.3685 H   0  0  0  0  0  0  0  0  0  0  0  0
   34.2793  -23.8989   40.0538 C   0  0  0  0  0  0  0  0  0  0  0  0
   34.3170  -22.5203   40.2623 O   0  0  0  0  0  0  0  0  0  0  0  0
   41.4814  -20.5911   40.5730 N   0  0  0  0  0  0  0  0  0  0  0  0
   42.0848  -20.5871   41.4690 H   0  0  0  0  0  0  0  0  0  0  0  0
   41.8737  -19.7641   39.5084 C   0  0  0  0  0  0  0  0  0  0  0  0
   41.3884  -19.8125   38.2374 C   0  0  0  0  0  0  0  0  0  0  0  0
   41.8603  -18.9542   37.2178 C   0  0  0  0  0  0  0  0  0  0  0  0
   42.8423  -18.0359   37.5118 C   0  0  0  0  0  0  0  0  0  0  0  0
   43.3350  -17.9801   38.7859 C   0  0  0  0  0  0  0  0  0  0  0  0
   42.8728  -18.8160   39.7698 C   0  0  0  0  0  0  0  0  0  0  0  0
   43.4387  -16.9663   36.2667 S   0  0  0  0  0  0  0  0  0  0  0  0
   42.4127  -17.1188   34.8860 N   0  0  0  0  0  0  0  0  0  0  0  0
   44.8095  -17.4742   35.8539 O   0  0  0  0  0  0  0  0  0  0  0  0
   43.5461  -15.5554   36.7382 O   0  0  0  0  0  0  0  0  0  0  0  0
   42.8065  -16.5491   34.1228 H   0  0  0  0  0  0  0  0  0  0  0  0
   42.4481  -18.1235   34.5942 H   0  0  0  0  0  0  0  0  0  0  0  0
 23 24  1  0  0  0
 24 10  1  0  0  0
 10 11  2  0  0  0
 11 12  1  0  0  0
 12 13  2  0  0  0
 13 14  1  0  0  0
 14 15  2  0  0  0
 15  8  1  0  0  0
  8  1  1  0  0  0
  1  2  2  0  0  0
  2  3  1  0  0  0
  3  4  2  0  0  0
  4  5  1  0  0  0
  4  6  1  0  0  0
  6 25  1  0  0  0
 25 27  1  0  0  0
 27 28  2  0  0  0
 28 29  1  0  0  0
 29 30  2  0  0  0
 30 31  1  0  0  0
 31 32  2  0  0  0
 30 33  1  0  0  0
 33 34  1  0  0  0
 33 35  2  0  0  0
 33 36  2  0  0  0
  6  7  2  0  0  0
 12 16  1  0  0  0
 16 17  1  0  0  0
 17 18  1  0  0  0
 18 19  1  0  0  0
 19 20  1  0  0  0
 20 21  1  0  0  0
 15 10  1  0  0  0
  7  1  1  0  0  0
 21 16  1  0  0  0
 32 27  1  0  0  0
  8  9  1  0  0  0
 25 26  1  0  0  0
 34 37  1  0  0  0
 34 38  1  0  0  0
 19 22  1  0  0  0
M  END
> <minimizedAffinity>
-5.23785

> <CNNscore>
0.3404273689

> <CNNaffinity>
5.4271254539

> <CNN_VS>
1.8475420475

> <CNNaffinity_variance>
0.4752388597

$$$$
[H]c1nc(N([H])c2c([H])c([H])c(N3C([H])([H])C([H])([H])N([H])C([H])([H])C3([H])[H])c([H])c2OC([H])([H])[H])nc(N([H])c2c([H])c([H])c(S(=O)(=O)N([H])[H])c([H])c2[H])c1Cl


 38 41  0  0  0  0  0  0  0  0999 V2000
   35.7354  -16.9174   35.5553 C   0  0  0  0  0  0  0  0  0  0  0  0
   36.7161  -17.1933   36.3781 N   0  0  0  0  0  0  0  0  0  0  0  0
   37.3153  -16.3261   37.2036 C   0  0  0  0  0  0  0  0  0  0  0  0
   36.8332  -15.0193   37.1639 C   0  0  0  0  0  0  0  0  0  0  0  0
   37.5581  -13.8405   38.2048 Cl  0  0  0  0  0  0  0  0  0  0  0  0
   35.7913  -14.6500   36.3133 C   0  0  0  0  0  0  0  0  0  0  0  0
   35.2850  -15.6114   35.5445 N   0  0  0  0  0  0  0  0  0  0  0  0
   35.0904  -17.7930   34.6849 N   0  0  0  0  0  0  0  0  0  0  0  0
   35.5226  -17.9260   33.6782 H   0  0  0  0  0  0  0  0  0  0  0  0
   34.0483  -19.7413   35.6913 C   0  0  0  0  0  0  0  0  0  0  0  0
   32.9598  -20.5181   35.9970 C   0  0  0  0  0  0  0  0  0  0  0  0
   31.6827  -20.1797   35.6142 C   0  0  0  0  0  0  0  0  0  0  0  0
   31.5559  -19.0123   34.9035 C   0  0  0  0  0  0  0  0  0  0  0  0
   32.6688  -18.2034   34.5822 C   0  0  0  0  0  0  0  0  0  0  0  0
   33.9268  -18.5378   34.9597 C   0  0  0  0  0  0  0  0  0  0  0  0
   30.5419  -20.9673   35.9153 N   0  0  0  0  0  0  0  0  0  0  0  0
   30.6731  -22.3870   36.2213 C   0  0  0  0  0  0  0  0  0  0  0  0
   29.3691  -23.0612   35.8202 C   0  0  0  0  0  0  0  0  0  0  0  0
   28.2699  -22.5974   36.6387 N   0  0  0  0  0  0  0  0  0  0  0  0
   28.4519  -21.2136   37.0330 C   0  0  0  0  0  0  0  0  0  0  0  0
   29.2010  -20.4340   35.9438 C   0  0  0  0  0  0  0  0  0  0  0  0
   27.3454  -22.7530   36.1825 H   0  0  0  0  0  0  0  0  0  0  0  0
   35.5800  -20.4035   37.4556 C   0  0  0  0  0  0  0  0  0  0  0  0
   35.3211  -20.1418   36.1102 O   0  0  0  0  0  0  0  0  0  0  0  0
   35.3502  -13.3115   36.2943 N   0  0  0  0  0  0  0  0  0  0  0  0
   36.0995  -12.6156   35.9460 H   0  0  0  0  0  0  0  0  0  0  0  0
   34.0970  -12.8008   36.6683 C   0  0  0  0  0  0  0  0  0  0  0  0
   32.8926  -13.3950   36.4458 C   0  0  0  0  0  0  0  0  0  0  0  0
   31.6732  -12.7952   36.8363 C   0  0  0  0  0  0  0  0  0  0  0  0
   31.6960  -11.5704   37.4634 C   0  0  0  0  0  0  0  0  0  0  0  0
   32.9013  -10.9668   37.6914 C   0  0  0  0  0  0  0  0  0  0  0  0
   34.0801  -11.5542   37.3095 C   0  0  0  0  0  0  0  0  0  0  0  0
   30.2009  -10.8128   37.9541 S   0  0  0  0  0  0  0  0  0  0  0  0
   30.5078   -9.1347   38.2223 N   0  0  0  0  0  0  0  0  0  0  0  0
   29.8122  -11.4085   39.2963 O   0  0  0  0  0  0  0  0  0  0  0  0
   29.1045  -11.0364   36.9681 O   0  0  0  0  0  0  0  0  0  0  0  0
   29.6474   -8.7003   38.5873 H   0  0  0  0  0  0  0  0  0  0  0  0
   31.2422   -9.0781   38.9662 H   0  0  0  0  0  0  0  0  0  0  0  0
 23 24  1  0  0  0
 24 10  1  0  0  0
 10 11  2  0  0  0
 11 12  1  0  0  0
 12 13  2  0  0  0
 13 14  1  0  0  0
 14 15  2  0  0  0
 15  8  1  0  0  0
  8  1  1  0  0  0
  1  2  2  0  0  0
  2  3  1  0  0  0
  3  4  2  0  0  0
  4  5  1  0  0  0
  4  6  1  0  0  0
  6 25  1  0  0  0
 25 27  1  0  0  0
 27 28  2  0  0  0
 28 29  1  0  0  0
 29 30  2  0  0  0
 30 31  1  0  0  0
 31 32  2  0  0  0
 30 33  1  0  0  0
 33 34  1  0  0  0
 33 35  2  0  0  0
 33 36  2  0  0  0
  6  7  2  0  0  0
 12 16  1  0  0  0
 16 17  1  0  0  0
 17 18  1  0  0  0
 18 19  1  0  0  0
 19 20  1  0  0  0
 20 21  1  0  0  0
 15 10  1  0  0  0
  7  1  1  0  0  0
 21 16  1  0  0  0
 32 27  1  0  0  0
  8  9  1  0  0  0
 25 26  1  0  0  0
 34 37  1  0  0  0
 34 38  1  0  0  0
 19 22  1  0  0  0
M  END
> <minimizedAffinity>
-7.50576

> <CNNscore>
0.2844041884

> <CNNaffinity>
6.4490699768

> <CNN_VS>
1.8341425657

> <CNNaffinity_variance>
0.2634699941

$$$$
[H]c1c([H])c(S(=O)(=O)N([H])[H])c([H])c([H])c1N([H])c1nc(N([H])C([H])([H])[H])c2nc([H])n(C([H])(C([H])([H])[H])C([H])([H])[H])c2n1


 29 31  0  0  0  0  0  0  0  0999 V2000
   36.2034  -16.7680   36.0515 C   0  0  0  0  0  0  0  0  0  0  0  0
   35.1584  -17.3589   35.4517 N   0  0  0  0  0  0  0  0  0  0  0  0
   33.9409  -16.8417   35.3251 C   0  0  0  0  0  0  0  0  0  0  0  0
   33.7388  -15.6118   35.8472 N   0  0  0  0  0  0  0  0  0  0  0  0
   34.7064  -14.9292   36.4668 C   0  0  0  0  0  0  0  0  0  0  0  0
   34.7151  -13.7132   37.0466 N   0  0  0  0  0  0  0  0  0  0  0  0
   35.9677  -13.5479   37.5078 C   0  0  0  0  0  0  0  0  0  0  0  0
   36.7142  -14.6322   37.2213 N   0  0  0  0  0  0  0  0  0  0  0  0
   35.9522  -15.5127   36.5706 C   0  0  0  0  0  0  0  0  0  0  0  0
   37.6444  -18.7798   35.7903 C   0  0  0  0  0  0  0  0  0  0  0  0
   37.4787  -17.3861   36.1477 N   0  0  0  0  0  0  0  0  0  0  0  0
   38.3065  -16.8685   36.4691 H   0  0  0  0  0  0  0  0  0  0  0  0
   33.6086  -12.7652   37.1585 C   0  0  0  0  0  0  0  0  0  0  0  0
   34.1295  -11.3457   37.2377 C   0  0  0  0  0  0  0  0  0  0  0  0
   32.7848  -13.0670   38.3699 C   0  0  0  0  0  0  0  0  0  0  0  0
   32.8754  -17.4837   34.6950 N   0  0  0  0  0  0  0  0  0  0  0  0
   32.2343  -16.8342   34.1107 H   0  0  0  0  0  0  0  0  0  0  0  0
   32.5067  -18.8471   34.7120 C   0  0  0  0  0  0  0  0  0  0  0  0
   31.5109  -19.2734   35.6049 C   0  0  0  0  0  0  0  0  0  0  0  0
   31.0980  -20.5780   35.7063 C   0  0  0  0  0  0  0  0  0  0  0  0
   31.6568  -21.5554   34.9149 C   0  0  0  0  0  0  0  0  0  0  0  0
   32.6350  -21.1744   34.0289 C   0  0  0  0  0  0  0  0  0  0  0  0
   33.0492  -19.8333   33.9354 C   0  0  0  0  0  0  0  0  0  0  0  0
   31.1438  -23.2312   35.0267 S   0  0  0  0  0  0  0  0  0  0  0  0
   31.5832  -24.1066   33.6003 N   0  0  0  0  0  0  0  0  0  0  0  0
   29.6585  -23.2770   35.1842 O   0  0  0  0  0  0  0  0  0  0  0  0
   31.8482  -23.8680   36.1814 O   0  0  0  0  0  0  0  0  0  0  0  0
   31.1260  -23.6580   32.7514 H   0  0  0  0  0  0  0  0  0  0  0  0
   32.6100  -24.0148   33.4276 H   0  0  0  0  0  0  0  0  0  0  0  0
 10 11  1  0  0  0
 11  1  1  0  0  0
  1  2  2  0  0  0
  2  3  1  0  0  0
  3 16  1  0  0  0
 16 18  1  0  0  0
 18 19  2  0  0  0
 19 20  1  0  0  0
 20 21  2  0  0  0
 21 22  1  0  0  0
 22 23  2  0  0  0
 21 24  1  0  0  0
 24 25  1  0  0  0
 24 26  2  0  0  0
 24 27  2  0  0  0
  3  4  2  0  0  0
  4  5  1  0  0  0
  5  6  1  0  0  0
  6  7  1  0  0  0
  7  8  2  0  0  0
  8  9  1  0  0  0
  6 13  1  0  0  0
 13 14  1  0  0  0
 13 15  1  0  0  0
  9  1  1  0  0  0
 23 18  1  0  0  0
  9  5  2  0  0  0
 11 12  1  0  0  0
 16 17  1  0  0  0
 25 28  1  0  0  0
 25 29  1  0  0  0
M  END
> <minimizedAffinity>
-7.23405

> <CNNscore>
0.6307315826

> <CNNaffinity>
5.5448226929

> <CNN_VS>
3.4972949028

> <CNNaffinity_variance>
0.2465548217

$$$$
[H]c1c([H])c(S(=O)(=O)N([H])[H])c([H])c([H])c1N([H])c1nc(N([H])C([H])([H])[H])c2nc([H])n(C([H])(C([H])([H])[H])C([H])([H])[H])c2n1


 29 31  0  0  0  0  0  0  0  0999 V2000
   34.2476  -15.1919   36.0634 C   0  0  0  0  0  0  0  0  0  0  0  0
   33.3926  -15.9288   35.3374 N   0  0  0  0  0  0  0  0  0  0  0  0
   33.5597  -17.2024   34.9974 C   0  0  0  0  0  0  0  0  0  0  0  0
   34.6912  -17.8078   35.4208 N   0  0  0  0  0  0  0  0  0  0  0  0
   35.6135  -17.1722   36.1497 C   0  0  0  0  0  0  0  0  0  0  0  0
   36.7891  -17.5831   36.6638 N   0  0  0  0  0  0  0  0  0  0  0  0
   37.2900  -16.5128   37.3062 C   0  0  0  0  0  0  0  0  0  0  0  0
   36.4474  -15.4677   37.1929 N   0  0  0  0  0  0  0  0  0  0  0  0
   35.3902  -15.8502   36.4750 C   0  0  0  0  0  0  0  0  0  0  0  0
   33.3858  -13.4817   37.6522 C   0  0  0  0  0  0  0  0  0  0  0  0
   33.9988  -13.8315   36.3876 N   0  0  0  0  0  0  0  0  0  0  0  0
   34.2436  -13.0696   35.7426 H   0  0  0  0  0  0  0  0  0  0  0  0
   37.4020  -18.9052   36.5551 C   0  0  0  0  0  0  0  0  0  0  0  0
   36.9283  -19.8055   37.6767 C   0  0  0  0  0  0  0  0  0  0  0  0
   38.8930  -18.7929   36.5960 C   0  0  0  0  0  0  0  0  0  0  0  0
   32.6500  -17.9402   34.2405 N   0  0  0  0  0  0  0  0  0  0  0  0
   32.3566  -17.4785   33.3050 H   0  0  0  0  0  0  0  0  0  0  0  0
   32.0528  -19.1903   34.5155 C   0  0  0  0  0  0  0  0  0  0  0  0
   30.7604  -19.2233   35.0626 C   0  0  0  0  0  0  0  0  0  0  0  0
   30.1054  -20.3867   35.3789 C   0  0  0  0  0  0  0  0  0  0  0  0
   30.7024  -21.6087   35.1681 C   0  0  0  0  0  0  0  0  0  0  0  0
   31.9678  -21.6148   34.6339 C   0  0  0  0  0  0  0  0  0  0  0  0
   32.6282  -20.4145   34.3144 C   0  0  0  0  0  0  0  0  0  0  0  0
   29.8832  -23.1107   35.5645 S   0  0  0  0  0  0  0  0  0  0  0  0
   28.1702  -22.9439   35.3866 N   0  0  0  0  0  0  0  0  0  0  0  0
   30.1895  -23.4739   36.9814 O   0  0  0  0  0  0  0  0  0  0  0  0
   30.3353  -24.1659   34.6068 O   0  0  0  0  0  0  0  0  0  0  0  0
   27.8179  -22.1743   36.0305 H   0  0  0  0  0  0  0  0  0  0  0  0
   27.9427  -22.6080   34.4233 H   0  0  0  0  0  0  0  0  0  0  0  0
 10 11  1  0  0  0
 11  1  1  0  0  0
  1  2  2  0  0  0
  2  3  1  0  0  0
  3 16  1  0  0  0
 16 18  1  0  0  0
 18 19  2  0  0  0
 19 20  1  0  0  0
 20 21  2  0  0  0
 21 22  1  0  0  0
 22 23  2  0  0  0
 21 24  1  0  0  0
 24 25  1  0  0  0
 24 26  2  0  0  0
 24 27  2  0  0  0
  3  4  2  0  0  0
  4  5  1  0  0  0
  5  6  1  0  0  0
  6  7  1  0  0  0
  7  8  2  0  0  0
  8  9  1  0  0  0
  6 13  1  0  0  0
 13 14  1  0  0  0
 13 15  1  0  0  0
  9  1  1  0  0  0
 23 18  1  0  0  0
  9  5  2  0  0  0
 11 12  1  0  0  0
 16 17  1  0  0  0
 25 28  1  0  0  0
 25 29  1  0  0  0
M  END
> <minimizedAffinity>
-6.29244

> <CNNscore>
0.5157895088

> <CNNaffinity>
5.2842664719

> <CNN_VS>
2.7255692482

> <CNNaffinity_variance>
0.5477676392

$$$$
[H]c1c([H])c(S(=O)(=O)N([H])[H])c([H])c([H])c1N([H])c1nc(N([H])C([H])([H])[H])c2nc([H])n(C([H])(C([H])([H])[H])C([H])([H])[H])c2n1


 29 31  0  0  0  0  0  0  0  0999 V2000
   35.9651  -14.2646   37.5436 C   0  0  0  0  0  0  0  0  0  0  0  0
   34.9674  -13.3805   37.3890 N   0  0  0  0  0  0  0  0  0  0  0  0
   33.8542  -13.5796   36.6913 C   0  0  0  0  0  0  0  0  0  0  0  0
   33.7160  -14.7789   36.0842 N   0  0  0  0  0  0  0  0  0  0  0  0
   34.6454  -15.7356   36.1692 C   0  0  0  0  0  0  0  0  0  0  0  0
   34.7031  -16.9776   35.6504 N   0  0  0  0  0  0  0  0  0  0  0  0
   35.8769  -17.4837   36.0689 C   0  0  0  0  0  0  0  0  0  0  0  0
   36.5282  -16.5796   36.8261 N   0  0  0  0  0  0  0  0  0  0  0  0
   35.7823  -15.4766   36.9064 C   0  0  0  0  0  0  0  0  0  0  0  0
   38.3059  -13.4297   37.6677 C   0  0  0  0  0  0  0  0  0  0  0  0
   37.1280  -13.9782   38.3074 N   0  0  0  0  0  0  0  0  0  0  0  0
   37.1645  -14.1502   39.3201 H   0  0  0  0  0  0  0  0  0  0  0  0
   33.7108  -17.6457   34.8110 C   0  0  0  0  0  0  0  0  0  0  0  0
   32.6495  -18.3069   35.6649 C   0  0  0  0  0  0  0  0  0  0  0  0
   34.3686  -18.6709   33.9429 C   0  0  0  0  0  0  0  0  0  0  0  0
   32.8353  -12.6379   36.5505 N   0  0  0  0  0  0  0  0  0  0  0  0
   32.8709  -12.0630   35.6326 H   0  0  0  0  0  0  0  0  0  0  0  0
   31.7738  -12.3201   37.4264 C   0  0  0  0  0  0  0  0  0  0  0  0
   30.9234  -11.2497   37.1075 C   0  0  0  0  0  0  0  0  0  0  0  0
   29.8774  -10.8555   37.9032 C   0  0  0  0  0  0  0  0  0  0  0  0
   29.6066  -11.5098   39.0832 C   0  0  0  0  0  0  0  0  0  0  0  0
   30.4188  -12.5627   39.4276 C   0  0  0  0  0  0  0  0  0  0  0  0
   31.4881  -12.9564   38.6027 C   0  0  0  0  0  0  0  0  0  0  0  0
   28.2730  -11.0234   40.1171 S   0  0  0  0  0  0  0  0  0  0  0  0
   28.6167   -9.5187   40.8992 N   0  0  0  0  0  0  0  0  0  0  0  0
   28.0565  -12.0722   41.1594 O   0  0  0  0  0  0  0  0  0  0  0  0
   27.0604  -10.8226   39.2661 O   0  0  0  0  0  0  0  0  0  0  0  0
   29.4969   -9.6156   41.4881 H   0  0  0  0  0  0  0  0  0  0  0  0
   28.8537   -8.7921   40.1862 H   0  0  0  0  0  0  0  0  0  0  0  0
 10 11  1  0  0  0
 11  1  1  0  0  0
  1  2  2  0  0  0
  2  3  1  0  0  0
  3 16  1  0  0  0
 16 18  1  0  0  0
 18 19  2  0  0  0
 19 20  1  0  0  0
 20 21  2  0  0  0
 21 22  1  0  0  0
 22 23  2  0  0  0
 21 24  1  0  0  0
 24 25  1  0  0  0
 24 26  2  0  0  0
 24 27  2  0  0  0
  3  4  2  0  0  0
  4  5  1  0  0  0
  5  6  1  0  0  0
  6  7  1  0  0  0
  7  8  2  0  0  0
  8  9  1  0  0  0
  6 13  1  0  0  0
 13 14  1  0  0  0
 13 15  1  0  0  0
  9  1  1  0  0  0
 23 18  1  0  0  0
  9  5  2  0  0  0
 11 12  1  0  0  0
 16 17  1  0  0  0
 25 28  1  0  0  0
 25 29  1  0  0  0
M  END
> <minimizedAffinity>
-8.10289

> <CNNscore>
0.3816403151

> <CNNaffinity>
5.9504246712

> <CNN_VS>
2.2709219456

> <CNNaffinity_variance>
0.1469380558

$$$$
[H]c1c([H])c(S(=O)(=O)N([H])[H])c([H])c([H])c1N([H])c1nc(N([H])C([H])([H])[H])c2nc([H])n(C([H])(C([H])([H])[H])C([H])([H])[H])c2n1


 29 31  0  0  0  0  0  0  0  0999 V2000
   33.6486  -17.9162   35.1565 C   0  0  0  0  0  0  0  0  0  0  0  0
   34.6435  -18.8130   35.0735 N   0  0  0  0  0  0  0  0  0  0  0  0
   35.9234  -18.5807   35.3446 C   0  0  0  0  0  0  0  0  0  0  0  0
   36.2506  -17.3300   35.7383 N   0  0  0  0  0  0  0  0  0  0  0  0
   35.3430  -16.3562   35.8563 C   0  0  0  0  0  0  0  0  0  0  0  0
   35.4561  -15.0657   36.2262 N   0  0  0  0  0  0  0  0  0  0  0  0
   34.2092  -14.5660   36.1600 C   0  0  0  0  0  0  0  0  0  0  0  0
   33.3474  -15.5212   35.7600 N   0  0  0  0  0  0  0  0  0  0  0  0
   34.0278  -16.6514   35.5625 C   0  0  0  0  0  0  0  0  0  0  0  0
   31.7161  -19.4736   35.3354 C   0  0  0  0  0  0  0  0  0  0  0  0
   32.3002  -18.2406   34.8494 N   0  0  0  0  0  0  0  0  0  0  0  0
   31.7111  -17.6181   34.2821 H   0  0  0  0  0  0  0  0  0  0  0  0
   36.6674  -14.3481   36.6181 C   0  0  0  0  0  0  0  0  0  0  0  0
   37.2265  -14.9119   37.9074 C   0  0  0  0  0  0  0  0  0  0  0  0
   36.3766  -12.8911   36.7906 C   0  0  0  0  0  0  0  0  0  0  0  0
   36.9339  -19.5367   35.2479 N   0  0  0  0  0  0  0  0  0  0  0  0
   36.8868  -20.1606   34.3631 H   0  0  0  0  0  0  0  0  0  0  0  0
   37.9998  -19.8147   36.1320 C   0  0  0  0  0  0  0  0  0  0  0  0
   39.3168  -19.5741   35.7098 C   0  0  0  0  0  0  0  0  0  0  0  0
   40.4166  -19.8282   36.4900 C   0  0  0  0  0  0  0  0  0  0  0  0
   40.2746  -20.3450   37.7575 C   0  0  0  0  0  0  0  0  0  0  0  0
   38.9996  -20.5933   38.2042 C   0  0  0  0  0  0  0  0  0  0  0  0
   37.8807  -20.3284   37.3938 C   0  0  0  0  0  0  0  0  0  0  0  0
   41.6674  -20.6775   38.7742 S   0  0  0  0  0  0  0  0  0  0  0  0
   43.1402  -20.4568   37.8932 N   0  0  0  0  0  0  0  0  0  0  0  0
   41.5963  -22.0919   39.2513 O   0  0  0  0  0  0  0  0  0  0  0  0
   41.6708  -19.7044   39.9092 O   0  0  0  0  0  0  0  0  0  0  0  0
   43.1561  -21.1113   37.0552 H   0  0  0  0  0  0  0  0  0  0  0  0
   43.1683  -19.4970   37.4802 H   0  0  0  0  0  0  0  0  0  0  0  0
 10 11  1  0  0  0
 11  1  1  0  0  0
  1  2  2  0  0  0
  2  3  1  0  0  0
  3 16  1  0  0  0
 16 18  1  0  0  0
 18 19  2  0  0  0
 19 20  1  0  0  0
 20 21  2  0  0  0
 21 22  1  0  0  0
 22 23  2  0  0  0
 21 24  1  0  0  0
 24 25  1  0  0  0
 24 26  2  0  0  0
 24 27  2  0  0  0
  3  4  2  0  0  0
  4  5  1  0  0  0
  5  6  1  0  0  0
  6  7  1  0  0  0
  7  8  2  0  0  0
  8  9  1  0  0  0
  6 13  1  0  0  0
 13 14  1  0  0  0
 13 15  1  0  0  0
  9  1  1  0  0  0
 23 18  1  0  0  0
  9  5  2  0  0  0
 11 12  1  0  0  0
 16 17  1  0  0  0
 25 28  1  0  0  0
 25 29  1  0  0  0
M  END
> <minimizedAffinity>
-5.39136

> <CNNscore>
0.3091647625

> <CNNaffinity>
5.1870465279

> <CNN_VS>
1.6036520004

> <CNNaffinity_variance>
0.1973070353

$$$$
[H]c1c([H])c(S(=O)(=O)N([H])[H])c([H])c([H])c1N([H])c1nc(N([H])C([H])([H])[H])c2nc([H])n(C([H])(C([H])([H])[H])C([H])([H])[H])c2n1


 29 31  0  0  0  0  0  0  0  0999 V2000
   34.1716  -18.4996   34.3755 C   0  0  0  0  0  0  0  0  0  0  0  0
   35.3223  -19.0690   33.9846 N   0  0  0  0  0  0  0  0  0  0  0  0
   36.5405  -18.5807   34.1924 C   0  0  0  0  0  0  0  0  0  0  0  0
   36.6266  -17.4067   34.8560 N   0  0  0  0  0  0  0  0  0  0  0  0
   35.5475  -16.7501   35.2923 C   0  0  0  0  0  0  0  0  0  0  0  0
   35.4149  -15.5884   35.9616 N   0  0  0  0  0  0  0  0  0  0  0  0
   34.0908  -15.4247   36.1314 C   0  0  0  0  0  0  0  0  0  0  0  0
   33.4217  -16.4570   35.5821 N   0  0  0  0  0  0  0  0  0  0  0  0
   34.3064  -17.3016   35.0499 C   0  0  0  0  0  0  0  0  0  0  0  0
   32.7788  -20.5179   33.9527 C   0  0  0  0  0  0  0  0  0  0  0  0
   32.9033  -19.0843   34.1159 N   0  0  0  0  0  0  0  0  0  0  0  0
   32.0519  -18.5138   34.0380 H   0  0  0  0  0  0  0  0  0  0  0  0
   36.4737  -14.6879   36.4132 C   0  0  0  0  0  0  0  0  0  0  0  0
   37.0710  -15.1790   37.7149 C   0  0  0  0  0  0  0  0  0  0  0  0
   35.9370  -13.3039   36.5964 C   0  0  0  0  0  0  0  0  0  0  0  0
   37.7178  -19.1988   33.7721 N   0  0  0  0  0  0  0  0  0  0  0  0
   37.5983  -19.8922   32.9480 H   0  0  0  0  0  0  0  0  0  0  0  0
   39.0344  -19.0600   34.2644 C   0  0  0  0  0  0  0  0  0  0  0  0
   40.0428  -18.6099   33.3977 C   0  0  0  0  0  0  0  0  0  0  0  0
   41.3524  -18.4598   33.7788 C   0  0  0  0  0  0  0  0  0  0  0  0
   41.7480  -18.7518   35.0641 C   0  0  0  0  0  0  0  0  0  0  0  0
   40.7874  -19.1953   35.9401 C   0  0  0  0  0  0  0  0  0  0  0  0
   39.4483  -19.3450   35.5363 C   0  0  0  0  0  0  0  0  0  0  0  0
   43.4181  -18.5668   35.5746 S   0  0  0  0  0  0  0  0  0  0  0  0
   44.4115  -18.0479   34.2564 N   0  0  0  0  0  0  0  0  0  0  0  0
   43.9240  -19.8815   36.0735 O   0  0  0  0  0  0  0  0  0  0  0  0
   43.4786  -17.5083   36.6286 O   0  0  0  0  0  0  0  0  0  0  0  0
   44.3643  -18.7634   33.4709 H   0  0  0  0  0  0  0  0  0  0  0  0
   44.0226  -17.1716   33.8400 H   0  0  0  0  0  0  0  0  0  0  0  0
 10 11  1  0  0  0
 11  1  1  0  0  0
  1  2  2  0  0  0
  2  3  1  0  0  0
  3 16  1  0  0  0
 16 18  1  0  0  0
 18 19  2  0  0  0
 19 20  1  0  0  0
 20 21  2  0  0  0
 21 22  1  0  0  0
 22 23  2  0  0  0
 21 24  1  0  0  0
 24 25  1  0  0  0
 24 26  2  0  0  0
 24 27  2  0  0  0
  3  4  2  0  0  0
  4  5  1  0  0  0
  5  6  1  0  0  0
  6  7  1  0  0  0
  7  8  2  0  0  0
  8  9  1  0  0  0
  6 13  1  0  0  0
 13 14  1  0  0  0
 13 15  1  0  0  0
  9  1  1  0  0  0
 23 18  1  0  0  0
  9  5  2  0  0  0
 11 12  1  0  0  0
 16 17  1  0  0  0
 25 28  1  0  0  0
 25 29  1  0  0  0
M  END
> <minimizedAffinity>
-6.68788

> <CNNscore>
0.2660867274

> <CNNaffinity>
5.0924444199

> <CNN_VS>
1.3550318480

> <CNNaffinity_variance>
0.3360993266

$$$$
[H]c1c([H])c(S(=O)(=O)N([H])[H])c([H])c([H])c1N([H])c1nc(N([H])C([H])([H])[H])c2nc([H])n(C([H])(C([H])([H])[H])C([H])([H])[H])c2n1


 29 31  0  0  0  0  0  0  0  0999 V2000
   40.2279  -19.1472   33.7982 C   0  0  0  0  0  0  0  0  0  0  0  0
   39.1071  -18.7189   34.3993 N   0  0  0  0  0  0  0  0  0  0  0  0
   38.1694  -19.4923   34.9362 C   0  0  0  0  0  0  0  0  0  0  0  0
   38.3629  -20.8281   34.8701 N   0  0  0  0  0  0  0  0  0  0  0  0
   39.4420  -21.3676   34.2952 C   0  0  0  0  0  0  0  0  0  0  0  0
   39.8211  -22.6492   34.1259 N   0  0  0  0  0  0  0  0  0  0  0  0
   40.9987  -22.5895   33.4790 C   0  0  0  0  0  0  0  0  0  0  0  0
   41.3395  -21.3057   33.2538 N   0  0  0  0  0  0  0  0  0  0  0  0
   40.3850  -20.5189   33.7531 C   0  0  0  0  0  0  0  0  0  0  0  0
   42.4187  -17.9776   33.9550 C   0  0  0  0  0  0  0  0  0  0  0  0
   41.1869  -18.2565   33.2462 N   0  0  0  0  0  0  0  0  0  0  0  0
   41.0346  -17.7923   32.3419 H   0  0  0  0  0  0  0  0  0  0  0  0
   39.1146  -23.8565   34.5491 C   0  0  0  0  0  0  0  0  0  0  0  0
   39.6310  -24.3331   35.8903 C   0  0  0  0  0  0  0  0  0  0  0  0
   39.2809  -24.9405   33.5320 C   0  0  0  0  0  0  0  0  0  0  0  0
   37.0145  -19.0141   35.5543 N   0  0  0  0  0  0  0  0  0  0  0  0
   36.7040  -18.0259   35.2360 H   0  0  0  0  0  0  0  0  0  0  0  0
   36.1983  -19.6219   36.5339 C   0  0  0  0  0  0  0  0  0  0  0  0
   36.7296  -19.8628   37.8107 C   0  0  0  0  0  0  0  0  0  0  0  0
   36.0208  -20.4625   38.8210 C   0  0  0  0  0  0  0  0  0  0  0  0
   34.7202  -20.8664   38.6231 C   0  0  0  0  0  0  0  0  0  0  0  0
   34.1673  -20.6466   37.3850 C   0  0  0  0  0  0  0  0  0  0  0  0
   34.9053  -20.0309   36.3578 C   0  0  0  0  0  0  0  0  0  0  0  0
   33.7935  -21.6352   39.9014 S   0  0  0  0  0  0  0  0  0  0  0  0
   34.6723  -22.9570   40.5901 N   0  0  0  0  0  0  0  0  0  0  0  0
   32.5117  -22.1508   39.3319 O   0  0  0  0  0  0  0  0  0  0  0  0
   33.5601  -20.6345   40.9873 O   0  0  0  0  0  0  0  0  0  0  0  0
   34.8869  -23.6747   39.8351 H   0  0  0  0  0  0  0  0  0  0  0  0
   35.6092  -22.6300   40.9185 H   0  0  0  0  0  0  0  0  0  0  0  0
 10 11  1  0  0  0
 11  1  1  0  0  0
  1  2  2  0  0  0
  2  3  1  0  0  0
  3 16  1  0  0  0
 16 18  1  0  0  0
 18 19  2  0  0  0
 19 20  1  0  0  0
 20 21  2  0  0  0
 21 22  1  0  0  0
 22 23  2  0  0  0
 21 24  1  0  0  0
 24 25  1  0  0  0
 24 26  2  0  0  0
 24 27  2  0  0  0
  3  4  2  0  0  0
  4  5  1  0  0  0
  5  6  1  0  0  0
  6  7  1  0  0  0
  7  8  2  0  0  0
  8  9  1  0  0  0
  6 13  1  0  0  0
 13 14  1  0  0  0
 13 15  1  0  0  0
  9  1  1  0  0  0
 23 18  1  0  0  0
  9  5  2  0  0  0
 11 12  1  0  0  0
 16 17  1  0  0  0
 25 28  1  0  0  0
 25 29  1  0  0  0
M  END
> <minimizedAffinity>
-4.50438

> <CNNscore>
0.2492258102

> <CNNaffinity>
4.6089706421

> <CNN_VS>
1.1486744881

> <CNNaffinity_variance>
0.0153625412

$$$$
[H]c1c([H])c(S(=O)(=O)N([H])[H])c([H])c([H])c1N([H])c1nc(N([H])C([H])([H])[H])c2nc([H])n(C([H])(C([H])([H])[H])C([H])([H])[H])c2n1


 29 31  0  0  0  0  0  0  0  0999 V2000
   35.1834  -18.7957   34.5100 C   0  0  0  0  0  0  0  0  0  0  0  0
   36.4876  -19.0850   34.6377 N   0  0  0  0  0  0  0  0  0  0  0  0
   37.3870  -18.3496   35.2826 C   0  0  0  0  0  0  0  0  0  0  0  0
   36.9479  -17.2096   35.8605 N   0  0  0  0  0  0  0  0  0  0  0  0
   35.6706  -16.8213   35.7980 C   0  0  0  0  0  0  0  0  0  0  0  0
   35.0368  -15.7415   36.2953 N   0  0  0  0  0  0  0  0  0  0  0  0
   33.7529  -15.8778   35.9188 C   0  0  0  0  0  0  0  0  0  0  0  0
   33.5960  -17.0112   35.2076 N   0  0  0  0  0  0  0  0  0  0  0  0
   34.7782  -17.6221   35.1157 C   0  0  0  0  0  0  0  0  0  0  0  0
   33.2205  -20.3251   34.5075 C   0  0  0  0  0  0  0  0  0  0  0  0
   34.2806  -19.6341   33.8031 N   0  0  0  0  0  0  0  0  0  0  0  0
   34.3544  -19.7712   32.7871 H   0  0  0  0  0  0  0  0  0  0  0  0
   35.6085  -14.6478   37.0781 C   0  0  0  0  0  0  0  0  0  0  0  0
   36.0688  -13.5271   36.1701 C   0  0  0  0  0  0  0  0  0  0  0  0
   36.7612  -15.1392   37.8948 C   0  0  0  0  0  0  0  0  0  0  0  0
   38.7371  -18.6795   35.3965 N   0  0  0  0  0  0  0  0  0  0  0  0
   39.3220  -18.5183   34.4986 H   0  0  0  0  0  0  0  0  0  0  0  0
   39.4489  -19.1966   36.5015 C   0  0  0  0  0  0  0  0  0  0  0  0
   40.7506  -18.7343   36.7513 C   0  0  0  0  0  0  0  0  0  0  0  0
   41.5256  -19.1887   37.7885 C   0  0  0  0  0  0  0  0  0  0  0  0
   41.0486  -20.1450   38.6555 C   0  0  0  0  0  0  0  0  0  0  0  0
   39.7779  -20.6208   38.4413 C   0  0  0  0  0  0  0  0  0  0  0  0
   38.9941  -20.1465   37.3738 C   0  0  0  0  0  0  0  0  0  0  0  0
   42.0220  -20.7410   39.9901 S   0  0  0  0  0  0  0  0  0  0  0  0
   42.2828  -19.4984   41.1656 N   0  0  0  0  0  0  0  0  0  0  0  0
   43.3451  -21.1949   39.4640 O   0  0  0  0  0  0  0  0  0  0  0  0
   41.2782  -21.8495   40.6633 O   0  0  0  0  0  0  0  0  0  0  0  0
   42.7809  -18.6760   40.7109 H   0  0  0  0  0  0  0  0  0  0  0  0
   41.3660  -19.1099   41.4834 H   0  0  0  0  0  0  0  0  0  0  0  0
 10 11  1  0  0  0
 11  1  1  0  0  0
  1  2  2  0  0  0
  2  3  1  0  0  0
  3 16  1  0  0  0
 16 18  1  0  0  0
 18 19  2  0  0  0
 19 20  1  0  0  0
 20 21  2  0  0  0
 21 22  1  0  0  0
 22 23  2  0  0  0
 21 24  1  0  0  0
 24 25  1  0  0  0
 24 26  2  0  0  0
 24 27  2  0  0  0
  3  4  2  0  0  0
  4  5  1  0  0  0
  5  6  1  0  0  0
  6  7  1  0  0  0
  7  8  2  0  0  0
  8  9  1  0  0  0
  6 13  1  0  0  0
 13 14  1  0  0  0
 13 15  1  0  0  0
  9  1  1  0  0  0
 23 18  1  0  0  0
  9  5  2  0  0  0
 11 12  1  0  0  0
 16 17  1  0  0  0
 25 28  1  0  0  0
 25 29  1  0  0  0
M  END
> <minimizedAffinity>
-6.03716

> <CNNscore>
0.2303739935

> <CNNaffinity>
4.9453573227

> <CNN_VS>
1.1392817497

> <CNNaffinity_variance>
0.2208534181

$$$$
[H]c1c([H])c(S(=O)(=O)N([H])[H])c([H])c([H])c1N([H])c1nc(N([H])C([H])([H])[H])c2nc([H])n(C([H])(C([H])([H])[H])C([H])([H])[H])c2n1


 29 31  0  0  0  0  0  0  0  0999 V2000
   34.6656  -18.7730   34.3594 C   0  0  0  0  0  0  0  0  0  0  0  0
   35.8538  -19.1363   33.8524 N   0  0  0  0  0  0  0  0  0  0  0  0
   36.9897  -18.4573   33.9717 C   0  0  0  0  0  0  0  0  0  0  0  0
   36.9425  -17.2984   34.6652 N   0  0  0  0  0  0  0  0  0  0  0  0
   35.8144  -16.8381   35.2144 C   0  0  0  0  0  0  0  0  0  0  0  0
   35.5549  -15.7277   35.9317 N   0  0  0  0  0  0  0  0  0  0  0  0
   34.2425  -15.7887   36.2196 C   0  0  0  0  0  0  0  0  0  0  0  0
   33.7041  -16.9066   35.6947 N   0  0  0  0  0  0  0  0  0  0  0  0
   34.6632  -17.5826   35.0603 C   0  0  0  0  0  0  0  0  0  0  0  0
   33.1911  -20.6321   35.1091 C   0  0  0  0  0  0  0  0  0  0  0  0
   33.4915  -19.5543   34.1895 N   0  0  0  0  0  0  0  0  0  0  0  0
   32.8328  -19.3784   33.4203 H   0  0  0  0  0  0  0  0  0  0  0  0
   36.4888  -14.6735   36.3216 C   0  0  0  0  0  0  0  0  0  0  0  0
   37.0955  -14.9737   37.6760 C   0  0  0  0  0  0  0  0  0  0  0  0
   35.7923  -13.3505   36.3645 C   0  0  0  0  0  0  0  0  0  0  0  0
   38.2094  -18.8636   33.4314 N   0  0  0  0  0  0  0  0  0  0  0  0
   38.2116  -18.9867   32.3548 H   0  0  0  0  0  0  0  0  0  0  0  0
   39.4335  -19.1436   34.0781 C   0  0  0  0  0  0  0  0  0  0  0  0
   39.4506  -20.0654   35.1367 C   0  0  0  0  0  0  0  0  0  0  0  0
   40.5860  -20.3891   35.8358 C   0  0  0  0  0  0  0  0  0  0  0  0
   41.7937  -19.8086   35.5223 C   0  0  0  0  0  0  0  0  0  0  0  0
   41.8147  -18.9011   34.4913 C   0  0  0  0  0  0  0  0  0  0  0  0
   40.6431  -18.5780   33.7829 C   0  0  0  0  0  0  0  0  0  0  0  0
   43.2599  -20.2079   36.4026 S   0  0  0  0  0  0  0  0  0  0  0  0
   44.6216  -20.2681   35.3368 N   0  0  0  0  0  0  0  0  0  0  0  0
   43.0917  -21.5447   37.0490 O   0  0  0  0  0  0  0  0  0  0  0  0
   43.5201  -19.1307   37.4062 O   0  0  0  0  0  0  0  0  0  0  0  0
   44.4548  -21.0027   34.5861 H   0  0  0  0  0  0  0  0  0  0  0  0
   44.7043  -19.3677   34.8125 H   0  0  0  0  0  0  0  0  0  0  0  0
 10 11  1  0  0  0
 11  1  1  0  0  0
  1  2  2  0  0  0
  2  3  1  0  0  0
  3 16  1  0  0  0
 16 18  1  0  0  0
 18 19  2  0  0  0
 19 20  1  0  0  0
 20 21  2  0  0  0
 21 22  1  0  0  0
 22 23  2  0  0  0
 21 24  1  0  0  0
 24 25  1  0  0  0
 24 26  2  0  0  0
 24 27  2  0  0  0
  3  4  2  0  0  0
  4  5  1  0  0  0
  5  6  1  0  0  0
  6  7  1  0  0  0
  7  8  2  0  0  0
  8  9  1  0  0  0
  6 13  1  0  0  0
 13 14  1  0  0  0
 13 15  1  0  0  0
  9  1  1  0  0  0
 23 18  1  0  0  0
  9  5  2  0  0  0
 11 12  1  0  0  0
 16 17  1  0  0  0
 25 28  1  0  0  0
 25 29  1  0  0  0
M  END
> <minimizedAffinity>
-6.02004

> <CNNscore>
0.2117548287

> <CNNaffinity>
4.9709839821

> <CNN_VS>
1.0526298285

> <CNNaffinity_variance>
0.3288356662

$$$$
[H]c1c([H])c(S(=O)(=O)N([H])[H])c([H])c([H])c1N([H])c1nc(N([H])C([H])([H])[H])c2nc([H])n(C([H])(C([H])([H])[H])C([H])([H])[H])c2n1


 29 31  0  0  0  0  0  0  0  0999 V2000
   31.6089  -21.3045   36.5792 C   0  0  0  0  0  0  0  0  0  0  0  0
   32.3859  -20.4313   35.9198 N   0  0  0  0  0  0  0  0  0  0  0  0
   33.6089  -20.0552   36.2781 C   0  0  0  0  0  0  0  0  0  0  0  0
   34.1134  -20.6010   37.4067 N   0  0  0  0  0  0  0  0  0  0  0  0
   33.4296  -21.4814   38.1438 C   0  0  0  0  0  0  0  0  0  0  0  0
   33.7423  -22.1326   39.2810 N   0  0  0  0  0  0  0  0  0  0  0  0
   32.6677  -22.8904   39.5640 C   0  0  0  0  0  0  0  0  0  0  0  0
   31.7157  -22.7131   38.6273 N   0  0  0  0  0  0  0  0  0  0  0  0
   32.1638  -21.8375   37.7264 C   0  0  0  0  0  0  0  0  0  0  0  0
   29.4422  -20.6597   35.5391 C   0  0  0  0  0  0  0  0  0  0  0  0
   30.3077  -21.6579   36.1323 N   0  0  0  0  0  0  0  0  0  0  0  0
   29.9503  -22.6180   36.2168 H   0  0  0  0  0  0  0  0  0  0  0  0
   34.9798  -22.0447   40.0533 C   0  0  0  0  0  0  0  0  0  0  0  0
   35.1720  -23.2891   40.8943 C   0  0  0  0  0  0  0  0  0  0  0  0
   34.9571  -20.8385   40.9376 C   0  0  0  0  0  0  0  0  0  0  0  0
   34.3909  -19.1439   35.5690 N   0  0  0  0  0  0  0  0  0  0  0  0
   34.8953  -19.5548   34.7025 H   0  0  0  0  0  0  0  0  0  0  0  0
   34.6263  -17.7734   35.8168 C   0  0  0  0  0  0  0  0  0  0  0  0
   35.8366  -17.3861   36.4135 C   0  0  0  0  0  0  0  0  0  0  0  0
   36.1482  -16.0828   36.7082 C   0  0  0  0  0  0  0  0  0  0  0  0
   35.2639  -15.0673   36.4243 C   0  0  0  0  0  0  0  0  0  0  0  0
   34.0688  -15.4095   35.8399 C   0  0  0  0  0  0  0  0  0  0  0  0
   33.7617  -16.7498   35.5432 C   0  0  0  0  0  0  0  0  0  0  0  0
   35.6415  -13.3921   36.7919 S   0  0  0  0  0  0  0  0  0  0  0  0
   37.3384  -13.1876   37.0612 N   0  0  0  0  0  0  0  0  0  0  0  0
   34.9032  -12.9853   38.0259 O   0  0  0  0  0  0  0  0  0  0  0  0
   35.2673  -12.5509   35.6140 O   0  0  0  0  0  0  0  0  0  0  0  0
   37.6471  -13.8009   37.8733 H   0  0  0  0  0  0  0  0  0  0  0  0
   37.8757  -13.5462   36.2394 H   0  0  0  0  0  0  0  0  0  0  0  0
 10 11  1  0  0  0
 11  1  1  0  0  0
  1  2  2  0  0  0
  2  3  1  0  0  0
  3 16  1  0  0  0
 16 18  1  0  0  0
 18 19  2  0  0  0
 19 20  1  0  0  0
 20 21  2  0  0  0
 21 22  1  0  0  0
 22 23  2  0  0  0
 21 24  1  0  0  0
 24 25  1  0  0  0
 24 26  2  0  0  0
 24 27  2  0  0  0
  3  4  2  0  0  0
  4  5  1  0  0  0
  5  6  1  0  0  0
  6  7  1  0  0  0
  7  8  2  0  0  0
  8  9  1  0  0  0
  6 13  1  0  0  0
 13 14  1  0  0  0
 13 15  1  0  0  0
  9  1  1  0  0  0
 23 18  1  0  0  0
  9  5  2  0  0  0
 11 12  1  0  0  0
 16 17  1  0  0  0
 25 28  1  0  0  0
 25 29  1  0  0  0
M  END
> <minimizedAffinity>
-5.36832

> <CNNscore>
0.1945098042

> <CNNaffinity>
4.7247571945

> <CNN_VS>
0.9190115929

> <CNNaffinity_variance>
0.2140712440

$$$$
[H]OC(=O)c1c([H])c([H])c(N([H])S(=O)(=O)c2c(C([H])([H])[H])c([H])c(C([H])([H])[H])c([H])c2C([H])([H])[H])c([H])c1[H]


 24 25  0  0  0  0  0  0  0  0999 V2000
   35.0383  -18.9247   35.1166 S   0  0  0  0  0  0  0  0  0  0  0  0
   35.1437  -20.1594   36.0104 O   0  0  0  0  0  0  0  0  0  0  0  0
   36.0541  -19.2297   34.0060 O   0  0  0  0  0  0  0  0  0  0  0  0
   37.1883  -14.0079   37.8822 C   0  0  0  0  0  0  0  0  0  0  0  0
   36.6289  -15.2026   37.1989 C   0  0  0  0  0  0  0  0  0  0  0  0
   35.4038  -15.1506   36.5932 C   0  0  0  0  0  0  0  0  0  0  0  0
   34.8731  -16.2819   35.9456 C   0  0  0  0  0  0  0  0  0  0  0  0
   33.5442  -16.1659   35.3330 C   0  0  0  0  0  0  0  0  0  0  0  0
   35.5420  -17.4770   35.8858 C   0  0  0  0  0  0  0  0  0  0  0  0
   36.8025  -17.5182   36.5134 C   0  0  0  0  0  0  0  0  0  0  0  0
   37.6477  -18.7286   36.5413 C   0  0  0  0  0  0  0  0  0  0  0  0
   37.2974  -16.3958   37.1403 C   0  0  0  0  0  0  0  0  0  0  0  0
   33.5213  -18.9423   34.3871 N   0  0  0  0  0  0  0  0  0  0  0  0
   33.3950  -18.3471   33.5037 H   0  0  0  0  0  0  0  0  0  0  0  0
   32.3776  -19.6491   34.7945 C   0  0  0  0  0  0  0  0  0  0  0  0
   31.1542  -19.0580   34.8984 C   0  0  0  0  0  0  0  0  0  0  0  0
   30.0215  -19.7725   35.3041 C   0  0  0  0  0  0  0  0  0  0  0  0
   30.1005  -21.1086   35.6156 C   0  0  0  0  0  0  0  0  0  0  0  0
   31.3319  -21.7336   35.5183 C   0  0  0  0  0  0  0  0  0  0  0  0
   32.4280  -21.0074   35.1172 C   0  0  0  0  0  0  0  0  0  0  0  0
   28.9005  -21.8190   36.0338 C   0  0  0  0  0  0  0  0  0  0  0  0
   28.1766  -22.6009   35.1343 O   0  0  0  0  0  0  0  0  0  0  0  0
   28.4956  -21.7434   37.2022 O   0  0  0  0  0  0  0  0  0  0  0  0
   27.8515  -23.4908   35.4778 H   0  0  0  0  0  0  0  0  0  0  0  0
  4  5  1  0  0  0
  5  6  2  0  0  0
  6  7  1  0  0  0
  7  8  1  0  0  0
  7  9  2  0  0  0
  9 10  1  0  0  0
 10 11  1  0  0  0
 10 12  2  0  0  0
  9  1  1  0  0  0
  1  2  2  0  0  0
  1  3  2  0  0  0
  1 13  1  0  0  0
 13 15  1  0  0  0
 15 16  2  0  0  0
 16 17  1  0  0  0
 17 18  2  0  0  0
 18 19  1  0  0  0
 19 20  2  0  0  0
 18 21  1  0  0  0
 21 22  1  0  0  0
 21 23  2  0  0  0
 12  5  1  0  0  0
 20 15  1  0  0  0
 13 14  1  0  0  0
 22 24  1  0  0  0
M  END
> <minimizedAffinity>
-6.58048

> <CNNscore>
0.4137906134

> <CNNaffinity>
4.2076506615

> <CNN_VS>
1.7410863638

> <CNNaffinity_variance>
0.4876876771

$$$$
[H]OC(=O)c1c([H])c([H])c(N([H])S(=O)(=O)c2c(C([H])([H])[H])c([H])c(C([H])([H])[H])c([H])c2C([H])([H])[H])c([H])c1[H]


 24 25  0  0  0  0  0  0  0  0999 V2000
   36.5161  -17.1789   36.2377 S   0  0  0  0  0  0  0  0  0  0  0  0
   37.9136  -17.1976   36.8551 O   0  0  0  0  0  0  0  0  0  0  0  0
   36.8171  -17.1856   34.7319 O   0  0  0  0  0  0  0  0  0  0  0  0
   33.0774  -12.3269   37.2772 C   0  0  0  0  0  0  0  0  0  0  0  0
   33.9507  -13.5037   37.0326 C   0  0  0  0  0  0  0  0  0  0  0  0
   35.2316  -13.5338   37.5111 C   0  0  0  0  0  0  0  0  0  0  0  0
   36.0596  -14.6482   37.2799 C   0  0  0  0  0  0  0  0  0  0  0  0
   37.4307  -14.6090   37.8027 C   0  0  0  0  0  0  0  0  0  0  0  0
   35.6366  -15.7459   36.5762 C   0  0  0  0  0  0  0  0  0  0  0  0
   34.3158  -15.7030   36.0883 C   0  0  0  0  0  0  0  0  0  0  0  0
   33.7098  -16.8019   35.3103 C   0  0  0  0  0  0  0  0  0  0  0  0
   33.5276  -14.5991   36.3291 C   0  0  0  0  0  0  0  0  0  0  0  0
   35.7801  -18.6538   36.5790 N   0  0  0  0  0  0  0  0  0  0  0  0
   34.9791  -18.9627   35.9359 H   0  0  0  0  0  0  0  0  0  0  0  0
   36.0854  -19.5491   37.6178 C   0  0  0  0  0  0  0  0  0  0  0  0
   37.2129  -20.3142   37.6125 C   0  0  0  0  0  0  0  0  0  0  0  0
   37.5073  -21.2018   38.6536 C   0  0  0  0  0  0  0  0  0  0  0  0
   36.6635  -21.3364   39.7298 C   0  0  0  0  0  0  0  0  0  0  0  0
   35.5107  -20.5705   39.7600 C   0  0  0  0  0  0  0  0  0  0  0  0
   35.2465  -19.7067   38.7237 C   0  0  0  0  0  0  0  0  0  0  0  0
   37.0031  -22.2700   40.7941 C   0  0  0  0  0  0  0  0  0  0  0  0
   36.1331  -22.4925   41.8611 O   0  0  0  0  0  0  0  0  0  0  0  0
   38.0761  -22.8887   40.7742 O   0  0  0  0  0  0  0  0  0  0  0  0
   36.0200  -23.4506   42.1522 H   0  0  0  0  0  0  0  0  0  0  0  0
  4  5  1  0  0  0
  5  6  2  0  0  0
  6  7  1  0  0  0
  7  8  1  0  0  0
  7  9  2  0  0  0
  9 10  1  0  0  0
 10 11  1  0  0  0
 10 12  2  0  0  0
  9  1  1  0  0  0
  1  2  2  0  0  0
  1  3  2  0  0  0
  1 13  1  0  0  0
 13 15  1  0  0  0
 15 16  2  0  0  0
 16 17  1  0  0  0
 17 18  2  0  0  0
 18 19  1  0  0  0
 19 20  2  0  0  0
 18 21  1  0  0  0
 21 22  1  0  0  0
 21 23  2  0  0  0
 12  5  1  0  0  0
 20 15  1  0  0  0
 13 14  1  0  0  0
 22 24  1  0  0  0
M  END
> <minimizedAffinity>
-5.98351

> <CNNscore>
0.3446316421

> <CNNaffinity>
4.0023527145

> <CNN_VS>
1.3793374300

> <CNNaffinity_variance>
0.4050685763

$$$$
[H]OC(=O)c1c([H])c([H])c(N([H])S(=O)(=O)c2c(C([H])([H])[H])c([H])c(C([H])([H])[H])c([H])c2C([H])([H])[H])c([H])c1[H]


 24 25  0  0  0  0  0  0  0  0999 V2000
   36.3019  -17.2018   36.6706 S   0  0  0  0  0  0  0  0  0  0  0  0
   37.8295  -17.1795   36.6502 O   0  0  0  0  0  0  0  0  0  0  0  0
   35.9586  -17.7721   35.2867 O   0  0  0  0  0  0  0  0  0  0  0  0
   33.4558  -11.8817   36.8770 C   0  0  0  0  0  0  0  0  0  0  0  0
   34.1848  -13.1756   36.8364 C   0  0  0  0  0  0  0  0  0  0  0  0
   35.4343  -13.2901   37.3804 C   0  0  0  0  0  0  0  0  0  0  0  0
   36.1256  -14.5154   37.3425 C   0  0  0  0  0  0  0  0  0  0  0  0
   37.4717  -14.5663   37.9258 C   0  0  0  0  0  0  0  0  0  0  0  0
   35.5951  -15.6423   36.7698 C   0  0  0  0  0  0  0  0  0  0  0  0
   34.3079  -15.5118   36.2127 C   0  0  0  0  0  0  0  0  0  0  0  0
   33.5984  -16.6284   35.5572 C   0  0  0  0  0  0  0  0  0  0  0  0
   33.6544  -14.3001   36.2636 C   0  0  0  0  0  0  0  0  0  0  0  0
   35.8165  -18.3592   37.7924 N   0  0  0  0  0  0  0  0  0  0  0  0
   35.5192  -18.0086   38.7615 H   0  0  0  0  0  0  0  0  0  0  0  0
   35.7499  -19.7519   37.6195 C   0  0  0  0  0  0  0  0  0  0  0  0
   36.8524  -20.5490   37.6949 C   0  0  0  0  0  0  0  0  0  0  0  0
   36.7738  -21.9355   37.5223 C   0  0  0  0  0  0  0  0  0  0  0  0
   35.5717  -22.5508   37.2681 C   0  0  0  0  0  0  0  0  0  0  0  0
   34.4357  -21.7639   37.1865 C   0  0  0  0  0  0  0  0  0  0  0  0
   34.5421  -20.4043   37.3602 C   0  0  0  0  0  0  0  0  0  0  0  0
   35.5290  -23.9957   37.0942 C   0  0  0  0  0  0  0  0  0  0  0  0
   36.0995  -24.6033   35.9763 O   0  0  0  0  0  0  0  0  0  0  0  0
   34.9827  -24.7185   37.9391 O   0  0  0  0  0  0  0  0  0  0  0  0
   36.6251  -25.4462   36.1460 H   0  0  0  0  0  0  0  0  0  0  0  0
  4  5  1  0  0  0
  5  6  2  0  0  0
  6  7  1  0  0  0
  7  8  1  0  0  0
  7  9  2  0  0  0
  9 10  1  0  0  0
 10 11  1  0  0  0
 10 12  2  0  0  0
  9  1  1  0  0  0
  1  2  2  0  0  0
  1  3  2  0  0  0
  1 13  1  0  0  0
 13 15  1  0  0  0
 15 16  2  0  0  0
 16 17  1  0  0  0
 17 18  2  0  0  0
 18 19  1  0  0  0
 19 20  2  0  0  0
 18 21  1  0  0  0
 21 22  1  0  0  0
 21 23  2  0  0  0
 12  5  1  0  0  0
 20 15  1  0  0  0
 13 14  1  0  0  0
 22 24  1  0  0  0
M  END
> <minimizedAffinity>
-5.61867

> <CNNscore>
0.3287358284

> <CNNaffinity>
4.1595954895

> <CNN_VS>
1.3674080372

> <CNNaffinity_variance>
0.1358776391

$$$$
[H]OC(=O)c1c([H])c([H])c(N([H])S(=O)(=O)c2c(C([H])([H])[H])c([H])c(C([H])([H])[H])c([H])c2C([H])([H])[H])c([H])c1[H]


 24 25  0  0  0  0  0  0  0  0999 V2000
   36.3946  -17.0446   36.2927 S   0  0  0  0  0  0  0  0  0  0  0  0
   37.7514  -16.9810   36.9924 O   0  0  0  0  0  0  0  0  0  0  0  0
   36.7859  -17.0584   34.8078 O   0  0  0  0  0  0  0  0  0  0  0  0
   33.3182  -11.9627   37.3683 C   0  0  0  0  0  0  0  0  0  0  0  0
   34.0467  -13.2277   37.0921 C   0  0  0  0  0  0  0  0  0  0  0  0
   33.4601  -14.2266   36.3650 C   0  0  0  0  0  0  0  0  0  0  0  0
   34.1494  -15.4252   36.1028 C   0  0  0  0  0  0  0  0  0  0  0  0
   33.4558  -16.4658   35.3341 C   0  0  0  0  0  0  0  0  0  0  0  0
   35.4241  -15.6546   36.5521 C   0  0  0  0  0  0  0  0  0  0  0  0
   36.0175  -14.6187   37.2999 C   0  0  0  0  0  0  0  0  0  0  0  0
   37.3818  -14.7090   37.8571 C   0  0  0  0  0  0  0  0  0  0  0  0
   35.3193  -13.4560   37.5418 C   0  0  0  0  0  0  0  0  0  0  0  0
   35.7158  -18.5506   36.6165 N   0  0  0  0  0  0  0  0  0  0  0  0
   34.9085  -18.8704   35.9867 H   0  0  0  0  0  0  0  0  0  0  0  0
   36.0770  -19.4597   37.6249 C   0  0  0  0  0  0  0  0  0  0  0  0
   35.2677  -19.7285   38.6877 C   0  0  0  0  0  0  0  0  0  0  0  0
   35.6375  -20.6370   39.6857 C   0  0  0  0  0  0  0  0  0  0  0  0
   36.8410  -21.2982   39.6313 C   0  0  0  0  0  0  0  0  0  0  0  0
   37.6823  -21.0432   38.5619 C   0  0  0  0  0  0  0  0  0  0  0  0
   37.2936  -20.1459   37.5958 C   0  0  0  0  0  0  0  0  0  0  0  0
   37.1915  -22.2363   40.6881 C   0  0  0  0  0  0  0  0  0  0  0  0
   38.4760  -22.7715   40.7785 O   0  0  0  0  0  0  0  0  0  0  0  0
   36.3527  -22.5802   41.5324 O   0  0  0  0  0  0  0  0  0  0  0  0
   38.8733  -22.8244   41.7031 H   0  0  0  0  0  0  0  0  0  0  0  0
  4  5  1  0  0  0
  5  6  2  0  0  0
  6  7  1  0  0  0
  7  8  1  0  0  0
  7  9  2  0  0  0
  9 10  1  0  0  0
 10 11  1  0  0  0
 10 12  2  0  0  0
  9  1  1  0  0  0
  1  2  2  0  0  0
  1  3  2  0  0  0
  1 13  1  0  0  0
 13 15  1  0  0  0
 15 16  2  0  0  0
 16 17  1  0  0  0
 17 18  2  0  0  0
 18 19  1  0  0  0
 19 20  2  0  0  0
 18 21  1  0  0  0
 21 22  1  0  0  0
 21 23  2  0  0  0
 12  5  1  0  0  0
 20 15  1  0  0  0
 13 14  1  0  0  0
 22 24  1  0  0  0
M  END
> <minimizedAffinity>
-5.98800

> <CNNscore>
0.2931278944

> <CNNaffinity>
3.9781908989

> <CNN_VS>
1.1661187410

> <CNNaffinity_variance>
0.3444716334

$$$$
[H]OC(=O)c1c([H])c([H])c(N([H])S(=O)(=O)c2c(C([H])([H])[H])c([H])c(C([H])([H])[H])c([H])c2C([H])([H])[H])c([H])c1[H]


 24 25  0  0  0  0  0  0  0  0999 V2000
   34.2212  -12.6816   37.0431 S   0  0  0  0  0  0  0  0  0  0  0  0
   34.7945  -13.3025   38.3160 O   0  0  0  0  0  0  0  0  0  0  0  0
   35.4612  -12.0519   36.3919 O   0  0  0  0  0  0  0  0  0  0  0  0
   30.0328   -8.5120   38.2750 C   0  0  0  0  0  0  0  0  0  0  0  0
   31.0822   -9.5142   37.9563 C   0  0  0  0  0  0  0  0  0  0  0  0
   32.3012   -9.1204   37.4774 C   0  0  0  0  0  0  0  0  0  0  0  0
   33.2959  -10.0691   37.1752 C   0  0  0  0  0  0  0  0  0  0  0  0
   34.5751   -9.5822   36.6451 C   0  0  0  0  0  0  0  0  0  0  0  0
   33.1029  -11.4161   37.3416 C   0  0  0  0  0  0  0  0  0  0  0  0
   31.8435  -11.8094   37.8352 C   0  0  0  0  0  0  0  0  0  0  0  0
   31.4759  -13.2203   38.0679 C   0  0  0  0  0  0  0  0  0  0  0  0
   30.8882  -10.8592   38.1222 C   0  0  0  0  0  0  0  0  0  0  0  0
   33.7396  -13.9350   36.0279 N   0  0  0  0  0  0  0  0  0  0  0  0
   32.8347  -13.7938   35.4695 H   0  0  0  0  0  0  0  0  0  0  0  0
   34.3821  -15.1660   35.8142 C   0  0  0  0  0  0  0  0  0  0  0  0
   35.7376  -15.2980   35.8596 C   0  0  0  0  0  0  0  0  0  0  0  0
   36.3667  -16.5297   35.6464 C   0  0  0  0  0  0  0  0  0  0  0  0
   35.6352  -17.6623   35.3810 C   0  0  0  0  0  0  0  0  0  0  0  0
   34.2559  -17.5558   35.3291 C   0  0  0  0  0  0  0  0  0  0  0  0
   33.6644  -16.3333   35.5425 C   0  0  0  0  0  0  0  0  0  0  0  0
   36.3247  -18.9262   35.1646 C   0  0  0  0  0  0  0  0  0  0  0  0
   36.4591  -19.4628   33.8845 O   0  0  0  0  0  0  0  0  0  0  0  0
   36.8083  -19.5539   36.1168 O   0  0  0  0  0  0  0  0  0  0  0  0
   37.3590  -19.8555   33.6575 H   0  0  0  0  0  0  0  0  0  0  0  0
  4  5  1  0  0  0
  5  6  2  0  0  0
  6  7  1  0  0  0
  7  8  1  0  0  0
  7  9  2  0  0  0
  9 10  1  0  0  0
 10 11  1  0  0  0
 10 12  2  0  0  0
  9  1  1  0  0  0
  1  2  2  0  0  0
  1  3  2  0  0  0
  1 13  1  0  0  0
 13 15  1  0  0  0
 15 16  2  0  0  0
 16 17  1  0  0  0
 17 18  2  0  0  0
 18 19  1  0  0  0
 19 20  2  0  0  0
 18 21  1  0  0  0
 21 22  1  0  0  0
 21 23  2  0  0  0
 12  5  1  0  0  0
 20 15  1  0  0  0
 13 14  1  0  0  0
 22 24  1  0  0  0
M  END
> <minimizedAffinity>
-5.51537

> <CNNscore>
0.2809198499

> <CNNaffinity>
4.6967668533

> <CNN_VS>
1.3194150925

> <CNNaffinity_variance>
0.2887408733

$$$$
[H]OC(=O)c1c([H])c([H])c(N([H])S(=O)(=O)c2c(C([H])([H])[H])c([H])c(C([H])([H])[H])c([H])c2C([H])([H])[H])c([H])c1[H]


 24 25  0  0  0  0  0  0  0  0999 V2000
   36.1973  -17.3740   36.1671 S   0  0  0  0  0  0  0  0  0  0  0  0
   35.1742  -18.5068   36.2358 O   0  0  0  0  0  0  0  0  0  0  0  0
   37.1424  -17.7077   37.3305 O   0  0  0  0  0  0  0  0  0  0  0  0
   33.4732  -12.0729   37.1281 C   0  0  0  0  0  0  0  0  0  0  0  0
   34.1729  -13.3638   36.9021 C   0  0  0  0  0  0  0  0  0  0  0  0
   35.4450  -13.5587   37.3650 C   0  0  0  0  0  0  0  0  0  0  0  0
   36.1086  -14.7813   37.1514 C   0  0  0  0  0  0  0  0  0  0  0  0
   37.4803  -14.9188   37.6557 C   0  0  0  0  0  0  0  0  0  0  0  0
   35.5280  -15.8264   36.4807 C   0  0  0  0  0  0  0  0  0  0  0  0
   34.2180  -15.6136   36.0085 C   0  0  0  0  0  0  0  0  0  0  0  0
   33.4548  -16.6365   35.2660 C   0  0  0  0  0  0  0  0  0  0  0  0
   33.5925  -14.4066   36.2315 C   0  0  0  0  0  0  0  0  0  0  0  0
   37.0950  -17.5729   34.7570 N   0  0  0  0  0  0  0  0  0  0  0  0
   36.9603  -16.8429   33.9827 H   0  0  0  0  0  0  0  0  0  0  0  0
   38.0151  -18.5916   34.4579 C   0  0  0  0  0  0  0  0  0  0  0  0
   39.0792  -18.3924   33.6303 C   0  0  0  0  0  0  0  0  0  0  0  0
   39.9901  -19.4144   33.3406 C   0  0  0  0  0  0  0  0  0  0  0  0
   39.8450  -20.6681   33.8843 C   0  0  0  0  0  0  0  0  0  0  0  0
   38.7721  -20.8972   34.7286 C   0  0  0  0  0  0  0  0  0  0  0  0
   37.8927  -19.8750   34.9959 C   0  0  0  0  0  0  0  0  0  0  0  0
   40.8127  -21.7063   33.5598 C   0  0  0  0  0  0  0  0  0  0  0  0
   40.4009  -22.9997   33.2406 O   0  0  0  0  0  0  0  0  0  0  0  0
   42.0271  -21.4614   33.5605 O   0  0  0  0  0  0  0  0  0  0  0  0
   40.8737  -23.4405   32.4674 H   0  0  0  0  0  0  0  0  0  0  0  0
  4  5  1  0  0  0
  5  6  2  0  0  0
  6  7  1  0  0  0
  7  8  1  0  0  0
  7  9  2  0  0  0
  9 10  1  0  0  0
 10 11  1  0  0  0
 10 12  2  0  0  0
  9  1  1  0  0  0
  1  2  2  0  0  0
  1  3  2  0  0  0
  1 13  1  0  0  0
 13 15  1  0  0  0
 15 16  2  0  0  0
 16 17  1  0  0  0
 17 18  2  0  0  0
 18 19  1  0  0  0
 19 20  2  0  0  0
 18 21  1  0  0  0
 21 22  1  0  0  0
 21 23  2  0  0  0
 12  5  1  0  0  0
 20 15  1  0  0  0
 13 14  1  0  0  0
 22 24  1  0  0  0
M  END
> <minimizedAffinity>
-6.45014

> <CNNscore>
0.2801761329

> <CNNaffinity>
4.1301155090

> <CNN_VS>
1.1571598053

> <CNNaffinity_variance>
0.2393478453

$$$$
[H]OC(=O)c1c([H])c([H])c(N([H])S(=O)(=O)c2c(C([H])([H])[H])c([H])c(C([H])([H])[H])c([H])c2C([H])([H])[H])c([H])c1[H]


 24 25  0  0  0  0  0  0  0  0999 V2000
   36.4169  -17.9599   36.1136 S   0  0  0  0  0  0  0  0  0  0  0  0
   35.6934  -18.9904   35.2480 O   0  0  0  0  0  0  0  0  0  0  0  0
   36.4604  -18.6488   37.4854 O   0  0  0  0  0  0  0  0  0  0  0  0
   33.0251  -12.9904   36.6082 C   0  0  0  0  0  0  0  0  0  0  0  0
   33.8860  -14.1963   36.4999 C   0  0  0  0  0  0  0  0  0  0  0  0
   35.1079  -14.2390   37.1128 C   0  0  0  0  0  0  0  0  0  0  0  0
   35.9241  -15.3810   37.0108 C   0  0  0  0  0  0  0  0  0  0  0  0
   37.2330  -15.3548   37.6748 C   0  0  0  0  0  0  0  0  0  0  0  0
   35.5471  -16.4944   36.3055 C   0  0  0  0  0  0  0  0  0  0  0  0
   34.2869  -16.4384   35.6786 C   0  0  0  0  0  0  0  0  0  0  0  0
   33.7358  -17.5513   34.8801 C   0  0  0  0  0  0  0  0  0  0  0  0
   33.5089  -15.3074   35.7947 C   0  0  0  0  0  0  0  0  0  0  0  0
   38.0112  -17.8657   35.5815 N   0  0  0  0  0  0  0  0  0  0  0  0
   38.3687  -16.9031   35.2714 H   0  0  0  0  0  0  0  0  0  0  0  0
   38.9516  -18.9055   35.4892 C   0  0  0  0  0  0  0  0  0  0  0  0
   39.0295  -19.7230   34.4018 C   0  0  0  0  0  0  0  0  0  0  0  0
   39.9713  -20.7548   34.3203 C   0  0  0  0  0  0  0  0  0  0  0  0
   40.8608  -20.9846   35.3423 C   0  0  0  0  0  0  0  0  0  0  0  0
   40.8030  -20.1683   36.4588 C   0  0  0  0  0  0  0  0  0  0  0  0
   39.8677  -19.1622   36.5122 C   0  0  0  0  0  0  0  0  0  0  0  0
   41.8264  -22.0675   35.2217 C   0  0  0  0  0  0  0  0  0  0  0  0
   43.0450  -22.0238   35.8984 O   0  0  0  0  0  0  0  0  0  0  0  0
   41.5849  -23.0542   34.5128 O   0  0  0  0  0  0  0  0  0  0  0  0
   43.3445  -22.8819   36.3338 H   0  0  0  0  0  0  0  0  0  0  0  0
  4  5  1  0  0  0
  5  6  2  0  0  0
  6  7  1  0  0  0
  7  8  1  0  0  0
  7  9  2  0  0  0
  9 10  1  0  0  0
 10 11  1  0  0  0
 10 12  2  0  0  0
  9  1  1  0  0  0
  1  2  2  0  0  0
  1  3  2  0  0  0
  1 13  1  0  0  0
 13 15  1  0  0  0
 15 16  2  0  0  0
 16 17  1  0  0  0
 17 18  2  0  0  0
 18 19  1  0  0  0
 19 20  2  0  0  0
 18 21  1  0  0  0
 21 22  1  0  0  0
 21 23  2  0  0  0
 12  5  1  0  0  0
 20 15  1  0  0  0
 13 14  1  0  0  0
 22 24  1  0  0  0
M  END
> <minimizedAffinity>
-5.74356

> <CNNscore>
0.2641031146

> <CNNaffinity>
4.1708717346

> <CNN_VS>
1.1015402079

> <CNNaffinity_variance>
0.2045111209

$$$$
[H]OC(=O)c1c([H])c([H])c(N([H])S(=O)(=O)c2c(C([H])([H])[H])c([H])c(C([H])([H])[H])c([H])c2C([H])([H])[H])c([H])c1[H]


 24 25  0  0  0  0  0  0  0  0999 V2000
   32.7158  -12.0647   37.8842 S   0  0  0  0  0  0  0  0  0  0  0  0
   33.4516  -12.7556   39.0314 O   0  0  0  0  0  0  0  0  0  0  0  0
   33.4726  -10.7347   37.7561 O   0  0  0  0  0  0  0  0  0  0  0  0
   26.9985  -10.4127   38.8989 C   0  0  0  0  0  0  0  0  0  0  0  0
   28.4016  -10.8449   38.6713 C   0  0  0  0  0  0  0  0  0  0  0  0
   28.8483  -12.0460   39.1490 C   0  0  0  0  0  0  0  0  0  0  0  0
   30.1773  -12.4562   38.9338 C   0  0  0  0  0  0  0  0  0  0  0  0
   30.5994  -13.7472   39.4905 C   0  0  0  0  0  0  0  0  0  0  0  0
   31.0818  -11.6897   38.2455 C   0  0  0  0  0  0  0  0  0  0  0  0
   30.6101  -10.4549   37.7587 C   0  0  0  0  0  0  0  0  0  0  0  0
   31.4574   -9.5127   37.0009 C   0  0  0  0  0  0  0  0  0  0  0  0
   29.3042  -10.0784   37.9843 C   0  0  0  0  0  0  0  0  0  0  0  0
   33.0327  -12.9265   36.4732 N   0  0  0  0  0  0  0  0  0  0  0  0
   32.4482  -12.6822   35.6076 H   0  0  0  0  0  0  0  0  0  0  0  0
   33.9819  -13.9441   36.2800 C   0  0  0  0  0  0  0  0  0  0  0  0
   35.3205  -13.7267   36.4124 C   0  0  0  0  0  0  0  0  0  0  0  0
   36.2568  -14.7485   36.2188 C   0  0  0  0  0  0  0  0  0  0  0  0
   35.8584  -16.0206   35.8849 C   0  0  0  0  0  0  0  0  0  0  0  0
   34.5038  -16.2685   35.7440 C   0  0  0  0  0  0  0  0  0  0  0  0
   33.6061  -15.2460   35.9402 C   0  0  0  0  0  0  0  0  0  0  0  0
   36.8615  -17.0579   35.6914 C   0  0  0  0  0  0  0  0  0  0  0  0
   37.2411  -17.4623   34.4120 O   0  0  0  0  0  0  0  0  0  0  0  0
   37.4008  -17.6052   36.6631 O   0  0  0  0  0  0  0  0  0  0  0  0
   38.2276  -17.6047   34.2634 H   0  0  0  0  0  0  0  0  0  0  0  0
  4  5  1  0  0  0
  5  6  2  0  0  0
  6  7  1  0  0  0
  7  8  1  0  0  0
  7  9  2  0  0  0
  9 10  1  0  0  0
 10 11  1  0  0  0
 10 12  2  0  0  0
  9  1  1  0  0  0
  1  2  2  0  0  0
  1  3  2  0  0  0
  1 13  1  0  0  0
 13 15  1  0  0  0
 15 16  2  0  0  0
 16 17  1  0  0  0
 17 18  2  0  0  0
 18 19  1  0  0  0
 19 20  2  0  0  0
 18 21  1  0  0  0
 21 22  1  0  0  0
 21 23  2  0  0  0
 12  5  1  0  0  0
 20 15  1  0  0  0
 13 14  1  0  0  0
 22 24  1  0  0  0
M  END
> <minimizedAffinity>
-7.56495

> <CNNscore>
0.2292550951

> <CNNaffinity>
4.6771125793

> <CNN_VS>
1.0722519159

> <CNNaffinity_variance>
0.4205957949

$$$$
[H]OC(=O)c1c([H])c([H])c(N([H])S(=O)(=O)c2c(C([H])([H])[H])c([H])c(C([H])([H])[H])c([H])c2C([H])([H])[H])c([H])c1[H]


 24 25  0  0  0  0  0  0  0  0999 V2000
   32.6886  -12.0029   37.8666 S   0  0  0  0  0  0  0  0  0  0  0  0
   33.3096  -12.7645   39.0366 O   0  0  0  0  0  0  0  0  0  0  0  0
   33.5758  -10.7529   37.7744 O   0  0  0  0  0  0  0  0  0  0  0  0
   26.9970  -10.4705   39.1718 C   0  0  0  0  0  0  0  0  0  0  0  0
   28.3999  -10.8204   38.8303 C   0  0  0  0  0  0  0  0  0  0  0  0
   29.1956   -9.9358   38.1559 C   0  0  0  0  0  0  0  0  0  0  0  0
   30.5247  -10.2665   37.8319 C   0  0  0  0  0  0  0  0  0  0  0  0
   31.3192   -9.2808   37.0890 C   0  0  0  0  0  0  0  0  0  0  0  0
   31.0864  -11.4708   38.1685 C   0  0  0  0  0  0  0  0  0  0  0  0
   30.2571  -12.3735   38.8626 C   0  0  0  0  0  0  0  0  0  0  0  0
   30.7087  -13.7113   39.2943 C   0  0  0  0  0  0  0  0  0  0  0  0
   28.9597  -12.0237   39.1663 C   0  0  0  0  0  0  0  0  0  0  0  0
   32.9731  -12.8888   36.4636 N   0  0  0  0  0  0  0  0  0  0  0  0
   32.3615  -12.6666   35.6109 H   0  0  0  0  0  0  0  0  0  0  0  0
   33.9261  -13.9011   36.2623 C   0  0  0  0  0  0  0  0  0  0  0  0
   33.5752  -15.1822   35.9580 C   0  0  0  0  0  0  0  0  0  0  0  0
   34.5335  -16.1822   35.7583 C   0  0  0  0  0  0  0  0  0  0  0  0
   35.8760  -15.9080   35.8624 C   0  0  0  0  0  0  0  0  0  0  0  0
   36.2597  -14.6141   36.1706 C   0  0  0  0  0  0  0  0  0  0  0  0
   35.2971  -13.6515   36.3616 C   0  0  0  0  0  0  0  0  0  0  0  0
   36.8438  -16.9743   35.6478 C   0  0  0  0  0  0  0  0  0  0  0  0
   37.7808  -17.3035   36.6266 O   0  0  0  0  0  0  0  0  0  0  0  0
   36.8553  -17.6139   34.5869 O   0  0  0  0  0  0  0  0  0  0  0  0
   37.9366  -18.2869   36.7823 H   0  0  0  0  0  0  0  0  0  0  0  0
  4  5  1  0  0  0
  5  6  2  0  0  0
  6  7  1  0  0  0
  7  8  1  0  0  0
  7  9  2  0  0  0
  9 10  1  0  0  0
 10 11  1  0  0  0
 10 12  2  0  0  0
  9  1  1  0  0  0
  1  2  2  0  0  0
  1  3  2  0  0  0
  1 13  1  0  0  0
 13 15  1  0  0  0
 15 16  2  0  0  0
 16 17  1  0  0  0
 17 18  2  0  0  0
 18 19  1  0  0  0
 19 20  2  0  0  0
 18 21  1  0  0  0
 21 22  1  0  0  0
 21 23  2  0  0  0
 12  5  1  0  0  0
 20 15  1  0  0  0
 13 14  1  0  0  0
 22 24  1  0  0  0
M  END
> <minimizedAffinity>
-7.74514

> <CNNscore>
0.2170005143

> <CNNaffinity>
4.6677961349

> <CNN_VS>
1.0129141808

> <CNNaffinity_variance>
0.4665090442

$$$$
[H]C(C(=O)C([H])([H])[H])=C([H])C([H])(C(=O)N([H])C([H])([H])C([H])([H])C([H])([H])N1C([H])([H])C([H])([H])N(c2c([H])c([H])c(Cl)c([H])c2[H])C([H])([H])C1([H])[H])c1c([H])c([H])c([H])c([H])c1[H]


 32 34  0  0  0  0  0  0  0  0999 V2000
   36.4747  -17.6748   35.5799 C   0  0  0  0  0  0  0  0  0  0  0  0
   36.7969  -17.9104   36.7757 O   0  0  0  0  0  0  0  0  0  0  0  0
   37.2833  -18.1526   34.5344 N   0  0  0  0  0  0  0  0  0  0  0  0
   36.9829  -17.9325   33.5411 H   0  0  0  0  0  0  0  0  0  0  0  0
   35.2400  -16.8930   35.3112 C   0  0  0  0  0  0  0  0  0  0  0  0
   35.2704  -15.5805   36.0015 C   0  0  0  0  0  0  0  0  0  0  0  0
   36.4687  -14.9673   36.2599 C   0  0  0  0  0  0  0  0  0  0  0  0
   36.5300  -13.7542   36.9061 C   0  0  0  0  0  0  0  0  0  0  0  0
   35.3358  -13.1798   37.2833 C   0  0  0  0  0  0  0  0  0  0  0  0
   34.1230  -13.7775   37.0338 C   0  0  0  0  0  0  0  0  0  0  0  0
   34.0937  -14.9874   36.3875 C   0  0  0  0  0  0  0  0  0  0  0  0
   33.2661  -18.1671   34.6272 C   0  0  0  0  0  0  0  0  0  0  0  0
   34.0367  -17.6892   35.5559 C   0  0  0  0  0  0  0  0  0  0  0  0
   31.8140  -20.1537   34.0573 C   0  0  0  0  0  0  0  0  0  0  0  0
   32.0620  -18.9654   34.9176 C   0  0  0  0  0  0  0  0  0  0  0  0
   31.2690  -18.6822   35.8357 O   0  0  0  0  0  0  0  0  0  0  0  0
   38.4931  -18.9200   34.6672 C   0  0  0  0  0  0  0  0  0  0  0  0
   39.4311  -18.5557   33.5427 C   0  0  0  0  0  0  0  0  0  0  0  0
   40.3695  -19.6897   33.2052 C   0  0  0  0  0  0  0  0  0  0  0  0
   41.6157  -19.6134   33.8780 N   0  0  0  0  0  0  0  0  0  0  0  0
   41.9590  -20.7012   34.7191 C   0  0  0  0  0  0  0  0  0  0  0  0
   41.3042  -20.5135   36.0712 C   0  0  0  0  0  0  0  0  0  0  0  0
   41.9314  -19.3554   36.6713 N   0  0  0  0  0  0  0  0  0  0  0  0
   42.3821  -18.2911   35.8228 C   0  0  0  0  0  0  0  0  0  0  0  0
   41.9098  -18.3459   34.4145 C   0  0  0  0  0  0  0  0  0  0  0  0
   42.0942  -19.2682   38.0628 C   0  0  0  0  0  0  0  0  0  0  0  0
   41.2603  -19.9850   38.9293 C   0  0  0  0  0  0  0  0  0  0  0  0
   41.4085  -19.9137   40.2918 C   0  0  0  0  0  0  0  0  0  0  0  0
   42.3853  -19.1332   40.8741 C   0  0  0  0  0  0  0  0  0  0  0  0
   42.5574  -19.0565   42.6310 Cl  0  0  0  0  0  0  0  0  0  0  0  0
   43.2162  -18.4203   40.0421 C   0  0  0  0  0  0  0  0  0  0  0  0
   43.0642  -18.4942   38.6643 C   0  0  0  0  0  0  0  0  0  0  0  0
 14 15  1  0  0  0
 15 16  2  0  0  0
 15 12  1  0  0  0
 12 13  2  0  0  0
 13  5  1  0  0  0
  5  1  1  0  0  0
  1  2  2  0  0  0
  1  3  1  0  0  0
  3 17  1  0  0  0
 17 18  1  0  0  0
 18 19  1  0  0  0
 19 20  1  0  0  0
 20 21  1  0  0  0
 21 22  1  0  0  0
 22 23  1  0  0  0
 23 24  1  0  0  0
 24 25  1  0  0  0
 23 26  1  0  0  0
 26 27  2  0  0  0
 27 28  1  0  0  0
 28 29  2  0  0  0
 29 30  1  0  0  0
 29 31  1  0  0  0
 31 32  2  0  0  0
  5  6  1  0  0  0
  6  7  2  0  0  0
  7  8  1  0  0  0
  8  9  2  0  0  0
  9 10  1  0  0  0
 10 11  2  0  0  0
 25 20  1  0  0  0
 32 26  1  0  0  0
 11  6  1  0  0  0
  3  4  1  0  0  0
M  END
> <minimizedAffinity>
-7.57481

> <CNNscore>
0.7657431364

> <CNNaffinity>
6.1423978806

> <CNN_VS>
4.7034988403

> <CNNaffinity_variance>
0.0745097026

$$$$
[H]C(C(=O)C([H])([H])[H])=C([H])C([H])(C(=O)N([H])C([H])([H])C([H])([H])C([H])([H])N1C([H])([H])C([H])([H])N(c2c([H])c([H])c(Cl)c([H])c2[H])C([H])([H])C1([H])[H])c1c([H])c([H])c([H])c([H])c1[H]


 32 34  0  0  0  0  0  0  0  0999 V2000
   37.4787  -18.5261   36.0275 C   0  0  0  0  0  0  0  0  0  0  0  0
   38.4366  -18.9448   36.7319 O   0  0  0  0  0  0  0  0  0  0  0  0
   37.4382  -18.8310   34.6561 N   0  0  0  0  0  0  0  0  0  0  0  0
   36.6189  -18.4592   34.0941 H   0  0  0  0  0  0  0  0  0  0  0  0
   36.4138  -17.7167   36.6745 C   0  0  0  0  0  0  0  0  0  0  0  0
   35.0635  -18.1708   36.2614 C   0  0  0  0  0  0  0  0  0  0  0  0
   34.3295  -17.4268   35.3745 C   0  0  0  0  0  0  0  0  0  0  0  0
   33.0708  -17.8172   34.9790 C   0  0  0  0  0  0  0  0  0  0  0  0
   32.5775  -18.9882   35.5113 C   0  0  0  0  0  0  0  0  0  0  0  0
   33.2969  -19.7496   36.4020 C   0  0  0  0  0  0  0  0  0  0  0  0
   34.5495  -19.3346   36.7778 C   0  0  0  0  0  0  0  0  0  0  0  0
   36.6436  -15.4179   37.4807 C   0  0  0  0  0  0  0  0  0  0  0  0
   36.6567  -16.2826   36.5128 C   0  0  0  0  0  0  0  0  0  0  0  0
   38.2399  -13.4674   37.6470 C   0  0  0  0  0  0  0  0  0  0  0  0
   36.8940  -13.9805   37.2741 C   0  0  0  0  0  0  0  0  0  0  0  0
   36.0364  -13.2053   36.8097 O   0  0  0  0  0  0  0  0  0  0  0  0
   38.4024  -19.6050   33.9203 C   0  0  0  0  0  0  0  0  0  0  0  0
   39.5843  -18.7279   33.5873 C   0  0  0  0  0  0  0  0  0  0  0  0
   40.7724  -19.5385   33.1268 C   0  0  0  0  0  0  0  0  0  0  0  0
   41.9488  -19.2990   33.8817 N   0  0  0  0  0  0  0  0  0  0  0  0
   42.4400  -20.3740   34.6639 C   0  0  0  0  0  0  0  0  0  0  0  0
   41.6948  -20.4150   35.9811 C   0  0  0  0  0  0  0  0  0  0  0  0
   42.0717  -19.2172   36.7008 N   0  0  0  0  0  0  0  0  0  0  0  0
   42.3651  -18.0248   35.9606 C   0  0  0  0  0  0  0  0  0  0  0  0
   41.9820  -18.0473   34.5245 C   0  0  0  0  0  0  0  0  0  0  0  0
   42.1459  -19.2160   38.1025 C   0  0  0  0  0  0  0  0  0  0  0  0
   43.1187  -18.4614   38.7691 C   0  0  0  0  0  0  0  0  0  0  0  0
   43.2026  -18.4464   40.1388 C   0  0  0  0  0  0  0  0  0  0  0  0
   42.3335  -19.1731   40.9256 C   0  0  0  0  0  0  0  0  0  0  0  0
   42.4604  -19.1388   42.6876 Cl  0  0  0  0  0  0  0  0  0  0  0  0
   41.3694  -19.9216   40.2922 C   0  0  0  0  0  0  0  0  0  0  0  0
   41.2868  -19.9350   38.9065 C   0  0  0  0  0  0  0  0  0  0  0  0
 14 15  1  0  0  0
 15 16  2  0  0  0
 15 12  1  0  0  0
 12 13  2  0  0  0
 13  5  1  0  0  0
  5  1  1  0  0  0
  1  2  2  0  0  0
  1  3  1  0  0  0
  3 17  1  0  0  0
 17 18  1  0  0  0
 18 19  1  0  0  0
 19 20  1  0  0  0
 20 21  1  0  0  0
 21 22  1  0  0  0
 22 23  1  0  0  0
 23 24  1  0  0  0
 24 25  1  0  0  0
 23 26  1  0  0  0
 26 27  2  0  0  0
 27 28  1  0  0  0
 28 29  2  0  0  0
 29 30  1  0  0  0
 29 31  1  0  0  0
 31 32  2  0  0  0
  5  6  1  0  0  0
  6  7  2  0  0  0
  7  8  1  0  0  0
  8  9  2  0  0  0
  9 10  1  0  0  0
 10 11  2  0  0  0
 25 20  1  0  0  0
 32 26  1  0  0  0
 11  6  1  0  0  0
  3  4  1  0  0  0
M  END
> <minimizedAffinity>
-7.28030

> <CNNscore>
0.7162227035

> <CNNaffinity>
6.0325636864

> <CNN_VS>
4.3206591606

> <CNNaffinity_variance>
0.1481150687

$$$$
[H]C(C(=O)C([H])([H])[H])=C([H])C([H])(C(=O)N([H])C([H])([H])C([H])([H])C([H])([H])N1C([H])([H])C([H])([H])N(c2c([H])c([H])c(Cl)c([H])c2[H])C([H])([H])C1([H])[H])c1c([H])c([H])c([H])c([H])c1[H]


 32 34  0  0  0  0  0  0  0  0999 V2000
   33.0508  -13.3527   37.6663 C   0  0  0  0  0  0  0  0  0  0  0  0
   33.9833  -13.4446   38.5097 O   0  0  0  0  0  0  0  0  0  0  0  0
   33.1441  -14.0465   36.4476 N   0  0  0  0  0  0  0  0  0  0  0  0
   32.3423  -13.9431   35.7608 H   0  0  0  0  0  0  0  0  0  0  0  0
   31.8728  -12.5069   37.9898 C   0  0  0  0  0  0  0  0  0  0  0  0
   32.1244  -11.0821   37.6635 C   0  0  0  0  0  0  0  0  0  0  0  0
   33.4090  -10.6079   37.5998 C   0  0  0  0  0  0  0  0  0  0  0  0
   33.6742   -9.2897   37.3082 C   0  0  0  0  0  0  0  0  0  0  0  0
   32.5945   -8.4644   37.0821 C   0  0  0  0  0  0  0  0  0  0  0  0
   31.2983   -8.9193   37.1407 C   0  0  0  0  0  0  0  0  0  0  0  0
   31.0651  -10.2392   37.4339 C   0  0  0  0  0  0  0  0  0  0  0  0
   30.3487  -13.4593   39.6503 C   0  0  0  0  0  0  0  0  0  0  0  0
   31.3945  -12.7510   39.3511 C   0  0  0  0  0  0  0  0  0  0  0  0
   28.5668  -14.3119   41.2246 C   0  0  0  0  0  0  0  0  0  0  0  0
   29.9010  -13.6807   41.0367 C   0  0  0  0  0  0  0  0  0  0  0  0
   30.5873  -13.3638   42.0270 O   0  0  0  0  0  0  0  0  0  0  0  0
   34.2260  -14.8951   36.0239 C   0  0  0  0  0  0  0  0  0  0  0  0
   33.6558  -16.1810   35.4776 C   0  0  0  0  0  0  0  0  0  0  0  0
   34.4107  -17.3881   35.9812 C   0  0  0  0  0  0  0  0  0  0  0  0
   34.2159  -18.5490   35.1902 N   0  0  0  0  0  0  0  0  0  0  0  0
   33.1092  -18.5445   34.3048 C   0  0  0  0  0  0  0  0  0  0  0  0
   31.8612  -18.9445   35.0628 C   0  0  0  0  0  0  0  0  0  0  0  0
   32.0401  -20.3298   35.4417 N   0  0  0  0  0  0  0  0  0  0  0  0
   33.3616  -20.8076   35.7262 C   0  0  0  0  0  0  0  0  0  0  0  0
   34.4058  -19.7609   35.8801 C   0  0  0  0  0  0  0  0  0  0  0  0
   30.9393  -21.1958   35.5353 C   0  0  0  0  0  0  0  0  0  0  0  0
   29.6800  -20.7173   35.9166 C   0  0  0  0  0  0  0  0  0  0  0  0
   28.5930  -21.5498   36.0095 C   0  0  0  0  0  0  0  0  0  0  0  0
   28.6871  -22.8975   35.7319 C   0  0  0  0  0  0  0  0  0  0  0  0
   27.2740  -23.9506   35.8583 Cl  0  0  0  0  0  0  0  0  0  0  0  0
   29.9146  -23.3897   35.3550 C   0  0  0  0  0  0  0  0  0  0  0  0
   31.0126  -22.5454   35.2619 C   0  0  0  0  0  0  0  0  0  0  0  0
 14 15  1  0  0  0
 15 16  2  0  0  0
 15 12  1  0  0  0
 12 13  2  0  0  0
 13  5  1  0  0  0
  5  1  1  0  0  0
  1  2  2  0  0  0
  1  3  1  0  0  0
  3 17  1  0  0  0
 17 18  1  0  0  0
 18 19  1  0  0  0
 19 20  1  0  0  0
 20 21  1  0  0  0
 21 22  1  0  0  0
 22 23  1  0  0  0
 23 24  1  0  0  0
 24 25  1  0  0  0
 23 26  1  0  0  0
 26 27  2  0  0  0
 27 28  1  0  0  0
 28 29  2  0  0  0
 29 30  1  0  0  0
 29 31  1  0  0  0
 31 32  2  0  0  0
  5  6  1  0  0  0
  6  7  2  0  0  0
  7  8  1  0  0  0
  8  9  2  0  0  0
  9 10  1  0  0  0
 10 11  2  0  0  0
 25 20  1  0  0  0
 32 26  1  0  0  0
 11  6  1  0  0  0
  3  4  1  0  0  0
M  END
> <minimizedAffinity>
-8.28280

> <CNNscore>
0.4618038833

> <CNNaffinity>
5.7885184288

> <CNN_VS>
2.6731603146

> <CNNaffinity_variance>
0.2970843613

$$$$
[H]C(C(=O)C([H])([H])[H])=C([H])C([H])(C(=O)N([H])C([H])([H])C([H])([H])C([H])([H])N1C([H])([H])C([H])([H])N(c2c([H])c([H])c(Cl)c([H])c2[H])C([H])([H])C1([H])[H])c1c([H])c([H])c([H])c([H])c1[H]


 32 34  0  0  0  0  0  0  0  0999 V2000
   37.6308  -20.0257   36.1561 C   0  0  0  0  0  0  0  0  0  0  0  0
   38.3666  -20.6466   36.9700 O   0  0  0  0  0  0  0  0  0  0  0  0
   38.1126  -19.7283   34.8698 N   0  0  0  0  0  0  0  0  0  0  0  0
   37.4671  -19.2019   34.2129 H   0  0  0  0  0  0  0  0  0  0  0  0
   36.2662  -19.6246   36.5859 C   0  0  0  0  0  0  0  0  0  0  0  0
   36.0888  -18.1535   36.5183 C   0  0  0  0  0  0  0  0  0  0  0  0
   35.0225  -17.6200   35.8421 C   0  0  0  0  0  0  0  0  0  0  0  0
   34.8358  -16.2597   35.7543 C   0  0  0  0  0  0  0  0  0  0  0  0
   35.7655  -15.4543   36.3749 C   0  0  0  0  0  0  0  0  0  0  0  0
   36.8419  -15.9685   37.0585 C   0  0  0  0  0  0  0  0  0  0  0  0
   37.0018  -17.3294   37.1288 C   0  0  0  0  0  0  0  0  0  0  0  0
   34.6929  -20.4315   38.2772 C   0  0  0  0  0  0  0  0  0  0  0  0
   35.9085  -20.2291   37.8697 C   0  0  0  0  0  0  0  0  0  0  0  0
   34.9159  -20.3731   40.7926 C   0  0  0  0  0  0  0  0  0  0  0  0
   34.3761  -21.0443   39.5794 C   0  0  0  0  0  0  0  0  0  0  0  0
   33.6895  -22.0779   39.6904 O   0  0  0  0  0  0  0  0  0  0  0  0
   39.4066  -20.0658   34.3388 C   0  0  0  0  0  0  0  0  0  0  0  0
   40.3160  -18.8682   34.4646 C   0  0  0  0  0  0  0  0  0  0  0  0
   41.6833  -19.1385   33.8834 C   0  0  0  0  0  0  0  0  0  0  0  0
   42.7480  -18.7026   34.7127 N   0  0  0  0  0  0  0  0  0  0  0  0
   43.6047  -19.7026   35.2368 C   0  0  0  0  0  0  0  0  0  0  0  0
   42.9787  -20.2946   36.4818 C   0  0  0  0  0  0  0  0  0  0  0  0
   42.9703  -19.2416   37.4747 N   0  0  0  0  0  0  0  0  0  0  0  0
   42.8160  -17.8824   37.0453 C   0  0  0  0  0  0  0  0  0  0  0  0
   42.3944  -17.6972   35.6320 C   0  0  0  0  0  0  0  0  0  0  0  0
   43.1063  -19.5414   38.8393 C   0  0  0  0  0  0  0  0  0  0  0  0
   42.4248  -18.7964   39.8091 C   0  0  0  0  0  0  0  0  0  0  0  0
   42.5440  -19.0787   41.1468 C   0  0  0  0  0  0  0  0  0  0  0  0
   43.3401  -20.1091   41.6015 C   0  0  0  0  0  0  0  0  0  0  0  0
   43.4786  -20.4542   43.3288 Cl  0  0  0  0  0  0  0  0  0  0  0  0
   44.0190  -20.8545   40.6664 C   0  0  0  0  0  0  0  0  0  0  0  0
   43.8967  -20.5669   39.3138 C   0  0  0  0  0  0  0  0  0  0  0  0
 14 15  1  0  0  0
 15 16  2  0  0  0
 15 12  1  0  0  0
 12 13  2  0  0  0
 13  5  1  0  0  0
  5  1  1  0  0  0
  1  2  2  0  0  0
  1  3  1  0  0  0
  3 17  1  0  0  0
 17 18  1  0  0  0
 18 19  1  0  0  0
 19 20  1  0  0  0
 20 21  1  0  0  0
 21 22  1  0  0  0
 22 23  1  0  0  0
 23 24  1  0  0  0
 24 25  1  0  0  0
 23 26  1  0  0  0
 26 27  2  0  0  0
 27 28  1  0  0  0
 28 29  2  0  0  0
 29 30  1  0  0  0
 29 31  1  0  0  0
 31 32  2  0  0  0
  5  6  1  0  0  0
  6  7  2  0  0  0
  7  8  1  0  0  0
  8  9  2  0  0  0
  9 10  1  0  0  0
 10 11  2  0  0  0
 25 20  1  0  0  0
 32 26  1  0  0  0
 11  6  1  0  0  0
  3  4  1  0  0  0
M  END
> <minimizedAffinity>
-5.26611

> <CNNscore>
0.4310881197

> <CNNaffinity>
5.1221189499

> <CNN_VS>
2.2080845833

> <CNNaffinity_variance>
0.5488918424

$$$$
[H]C(C(=O)C([H])([H])[H])=C([H])C([H])(C(=O)N([H])C([H])([H])C([H])([H])C([H])([H])N1C([H])([H])C([H])([H])N(c2c([H])c([H])c(Cl)c([H])c2[H])C([H])([H])C1([H])[H])c1c([H])c([H])c([H])c([H])c1[H]


 32 34  0  0  0  0  0  0  0  0999 V2000
   36.1491  -17.8569   34.9954 C   0  0  0  0  0  0  0  0  0  0  0  0
   35.3209  -18.3191   34.1649 O   0  0  0  0  0  0  0  0  0  0  0  0
   37.5047  -17.7504   34.6404 N   0  0  0  0  0  0  0  0  0  0  0  0
   38.1733  -17.3602   35.3657 H   0  0  0  0  0  0  0  0  0  0  0  0
   35.6620  -17.4360   36.3346 C   0  0  0  0  0  0  0  0  0  0  0  0
   35.9576  -16.0055   36.5922 C   0  0  0  0  0  0  0  0  0  0  0  0
   36.9732  -15.6560   37.4438 C   0  0  0  0  0  0  0  0  0  0  0  0
   37.2659  -14.3381   37.7097 C   0  0  0  0  0  0  0  0  0  0  0  0
   36.4957  -13.3826   37.0837 C   0  0  0  0  0  0  0  0  0  0  0  0
   35.4727  -13.7112   36.2259 C   0  0  0  0  0  0  0  0  0  0  0  0
   35.2043  -15.0341   35.9804 C   0  0  0  0  0  0  0  0  0  0  0  0
   35.4895  -19.4425   37.7242 C   0  0  0  0  0  0  0  0  0  0  0  0
   36.1097  -18.3550   37.3818 C   0  0  0  0  0  0  0  0  0  0  0  0
   37.2968  -20.9909   38.5706 C   0  0  0  0  0  0  0  0  0  0  0  0
   35.9756  -20.3415   38.7859 C   0  0  0  0  0  0  0  0  0  0  0  0
   35.3310  -20.5667   39.8280 O   0  0  0  0  0  0  0  0  0  0  0  0
   38.0933  -18.1188   33.3802 C   0  0  0  0  0  0  0  0  0  0  0  0
   39.0321  -19.2800   33.5980 C   0  0  0  0  0  0  0  0  0  0  0  0
   40.4674  -18.8262   33.7180 C   0  0  0  0  0  0  0  0  0  0  0  0
   41.2778  -19.7051   34.4809 N   0  0  0  0  0  0  0  0  0  0  0  0
   40.6184  -20.5253   35.4303 C   0  0  0  0  0  0  0  0  0  0  0  0
   40.4032  -19.7390   36.7060 C   0  0  0  0  0  0  0  0  0  0  0  0
   41.7171  -19.4944   37.2615 N   0  0  0  0  0  0  0  0  0  0  0  0
   42.8279  -19.3254   36.3708 C   0  0  0  0  0  0  0  0  0  0  0  0
   42.4815  -19.1364   34.9377 C   0  0  0  0  0  0  0  0  0  0  0  0
   41.9060  -19.4183   38.6503 C   0  0  0  0  0  0  0  0  0  0  0  0
   42.9825  -18.7043   39.1902 C   0  0  0  0  0  0  0  0  0  0  0  0
   43.1794  -18.6171   40.5455 C   0  0  0  0  0  0  0  0  0  0  0  0
   42.3273  -19.2276   41.4419 C   0  0  0  0  0  0  0  0  0  0  0  0
   42.6005  -19.1019   43.1830 Cl  0  0  0  0  0  0  0  0  0  0  0  0
   41.2626  -19.9343   40.9340 C   0  0  0  0  0  0  0  0  0  0  0  0
   41.0658  -20.0211   39.5626 C   0  0  0  0  0  0  0  0  0  0  0  0
 14 15  1  0  0  0
 15 16  2  0  0  0
 15 12  1  0  0  0
 12 13  2  0  0  0
 13  5  1  0  0  0
  5  1  1  0  0  0
  1  2  2  0  0  0
  1  3  1  0  0  0
  3 17  1  0  0  0
 17 18  1  0  0  0
 18 19  1  0  0  0
 19 20  1  0  0  0
 20 21  1  0  0  0
 21 22  1  0  0  0
 22 23  1  0  0  0
 23 24  1  0  0  0
 24 25  1  0  0  0
 23 26  1  0  0  0
 26 27  2  0  0  0
 27 28  1  0  0  0
 28 29  2  0  0  0
 29 30  1  0  0  0
 29 31  1  0  0  0
 31 32  2  0  0  0
  5  6  1  0  0  0
  6  7  2  0  0  0
  7  8  1  0  0  0
  8  9  2  0  0  0
  9 10  1  0  0  0
 10 11  2  0  0  0
 25 20  1  0  0  0
 32 26  1  0  0  0
 11  6  1  0  0  0
  3  4  1  0  0  0
M  END
> <minimizedAffinity>
-7.15788

> <CNNscore>
0.4042747617

> <CNNaffinity>
5.6667046547

> <CNN_VS>
2.2909057140

> <CNNaffinity_variance>
0.3716130257

$$$$
[H]C(C(=O)C([H])([H])[H])=C([H])C([H])(C(=O)N([H])C([H])([H])C([H])([H])C([H])([H])N1C([H])([H])C([H])([H])N(c2c([H])c([H])c(Cl)c([H])c2[H])C([H])([H])C1([H])[H])c1c([H])c([H])c([H])c([H])c1[H]


 32 34  0  0  0  0  0  0  0  0999 V2000
   39.8291  -19.4147   35.4007 C   0  0  0  0  0  0  0  0  0  0  0  0
   39.7933  -20.5519   34.8579 O   0  0  0  0  0  0  0  0  0  0  0  0
   38.9911  -18.3908   34.9268 N   0  0  0  0  0  0  0  0  0  0  0  0
   39.0508  -17.4460   35.4055 H   0  0  0  0  0  0  0  0  0  0  0  0
   40.7639  -19.1906   36.5338 C   0  0  0  0  0  0  0  0  0  0  0  0
   41.9840  -18.4712   36.0937 C   0  0  0  0  0  0  0  0  0  0  0  0
   42.6641  -17.6693   36.9732 C   0  0  0  0  0  0  0  0  0  0  0  0
   43.7938  -16.9823   36.5925 C   0  0  0  0  0  0  0  0  0  0  0  0
   44.2145  -17.1336   35.2893 C   0  0  0  0  0  0  0  0  0  0  0  0
   43.5475  -17.9329   34.3911 C   0  0  0  0  0  0  0  0  0  0  0  0
   42.4238  -18.6056   34.7999 C   0  0  0  0  0  0  0  0  0  0  0  0
   42.0736  -21.1637   37.1491 C   0  0  0  0  0  0  0  0  0  0  0  0
   41.0128  -20.4267   37.2766 C   0  0  0  0  0  0  0  0  0  0  0  0
   41.3070  -23.5045   37.7088 C   0  0  0  0  0  0  0  0  0  0  0  0
   42.2851  -22.4030   37.9179 C   0  0  0  0  0  0  0  0  0  0  0  0
   43.2316  -22.5507   38.7144 O   0  0  0  0  0  0  0  0  0  0  0  0
   38.0463  -18.4865   33.8459 C   0  0  0  0  0  0  0  0  0  0  0  0
   36.7684  -17.7923   34.2486 C   0  0  0  0  0  0  0  0  0  0  0  0
   35.5546  -18.6477   33.9736 C   0  0  0  0  0  0  0  0  0  0  0  0
   34.4831  -18.4172   34.8737 N   0  0  0  0  0  0  0  0  0  0  0  0
   34.3321  -19.3368   35.9415 C   0  0  0  0  0  0  0  0  0  0  0  0
   33.5621  -20.5460   35.4544 C   0  0  0  0  0  0  0  0  0  0  0  0
   32.2230  -20.0846   35.1570 N   0  0  0  0  0  0  0  0  0  0  0  0
   32.0396  -18.7464   34.6760 C   0  0  0  0  0  0  0  0  0  0  0  0
   33.2767  -18.0375   34.2560 C   0  0  0  0  0  0  0  0  0  0  0  0
   31.1173  -20.9317   35.3307 C   0  0  0  0  0  0  0  0  0  0  0  0
   31.2468  -22.3187   35.1910 C   0  0  0  0  0  0  0  0  0  0  0  0
   30.1768  -23.1610   35.3610 C   0  0  0  0  0  0  0  0  0  0  0  0
   28.9223  -22.6834   35.6777 C   0  0  0  0  0  0  0  0  0  0  0  0
   27.5589  -23.7867   35.8917 Cl  0  0  0  0  0  0  0  0  0  0  0  0
   28.7716  -21.3240   35.8201 C   0  0  0  0  0  0  0  0  0  0  0  0
   29.8556  -20.4741   35.6476 C   0  0  0  0  0  0  0  0  0  0  0  0
 14 15  1  0  0  0
 15 16  2  0  0  0
 15 12  1  0  0  0
 12 13  2  0  0  0
 13  5  1  0  0  0
  5  1  1  0  0  0
  1  2  2  0  0  0
  1  3  1  0  0  0
  3 17  1  0  0  0
 17 18  1  0  0  0
 18 19  1  0  0  0
 19 20  1  0  0  0
 20 21  1  0  0  0
 21 22  1  0  0  0
 22 23  1  0  0  0
 23 24  1  0  0  0
 24 25  1  0  0  0
 23 26  1  0  0  0
 26 27  2  0  0  0
 27 28  1  0  0  0
 28 29  2  0  0  0
 29 30  1  0  0  0
 29 31  1  0  0  0
 31 32  2  0  0  0
  5  6  1  0  0  0
  6  7  2  0  0  0
  7  8  1  0  0  0
  8  9  2  0  0  0
  9 10  1  0  0  0
 10 11  2  0  0  0
 25 20  1  0  0  0
 32 26  1  0  0  0
 11  6  1  0  0  0
  3  4  1  0  0  0
M  END
> <minimizedAffinity>
-5.69636

> <CNNscore>
0.3791060746

> <CNNaffinity>
5.0156607628

> <CNN_VS>
1.9014674425

> <CNNaffinity_variance>
0.4382510185

$$$$
[H]C(C(=O)C([H])([H])[H])=C([H])C([H])(C(=O)N([H])C([H])([H])C([H])([H])C([H])([H])N1C([H])([H])C([H])([H])N(c2c([H])c([H])c(Cl)c([H])c2[H])C([H])([H])C1([H])[H])c1c([H])c([H])c([H])c([H])c1[H]


 32 34  0  0  0  0  0  0  0  0999 V2000
   37.0730  -17.8956   34.6293 C   0  0  0  0  0  0  0  0  0  0  0  0
   36.5379  -17.7473   33.4975 O   0  0  0  0  0  0  0  0  0  0  0  0
   38.3865  -18.3873   34.7188 N   0  0  0  0  0  0  0  0  0  0  0  0
   38.8031  -18.5022   35.6876 H   0  0  0  0  0  0  0  0  0  0  0  0
   36.2917  -17.5429   35.8430 C   0  0  0  0  0  0  0  0  0  0  0  0
   34.9548  -18.1852   35.8308 C   0  0  0  0  0  0  0  0  0  0  0  0
   33.8583  -17.4822   35.4036 C   0  0  0  0  0  0  0  0  0  0  0  0
   32.6040  -18.0475   35.3889 C   0  0  0  0  0  0  0  0  0  0  0  0
   32.4948  -19.3510   35.8215 C   0  0  0  0  0  0  0  0  0  0  0  0
   33.5814  -20.0741   36.2537 C   0  0  0  0  0  0  0  0  0  0  0  0
   34.8198  -19.4834   36.2571 C   0  0  0  0  0  0  0  0  0  0  0  0
   36.8427  -15.5032   37.0773 C   0  0  0  0  0  0  0  0  0  0  0  0
   36.2778  -16.0974   36.0710 C   0  0  0  0  0  0  0  0  0  0  0  0
   38.0999  -13.3616   37.5391 C   0  0  0  0  0  0  0  0  0  0  0  0
   36.8048  -14.0427   37.2694 C   0  0  0  0  0  0  0  0  0  0  0  0
   35.7506  -13.3812   37.2140 O   0  0  0  0  0  0  0  0  0  0  0  0
   39.2408  -18.7575   33.6219 C   0  0  0  0  0  0  0  0  0  0  0  0
   39.8690  -20.0969   33.9196 C   0  0  0  0  0  0  0  0  0  0  0  0
   41.0189  -19.9738   34.8908 C   0  0  0  0  0  0  0  0  0  0  0  0
   40.6507  -19.4023   36.1355 N   0  0  0  0  0  0  0  0  0  0  0  0
   41.5996  -18.5533   36.7581 C   0  0  0  0  0  0  0  0  0  0  0  0
   42.5958  -19.3957   37.5262 C   0  0  0  0  0  0  0  0  0  0  0  0
   41.8611  -20.0072   38.6130 N   0  0  0  0  0  0  0  0  0  0  0  0
   40.4811  -20.3429   38.4169 C   0  0  0  0  0  0  0  0  0  0  0  0
   39.9983  -20.2893   37.0120 C   0  0  0  0  0  0  0  0  0  0  0  0
   42.4865  -20.2740   39.8410 C   0  0  0  0  0  0  0  0  0  0  0  0
   43.7143  -20.9450   39.8903 C   0  0  0  0  0  0  0  0  0  0  0  0
   44.3407  -21.2104   41.0821 C   0  0  0  0  0  0  0  0  0  0  0  0
   43.7923  -20.8296   42.2890 C   0  0  0  0  0  0  0  0  0  0  0  0
   44.6167  -21.1822   43.8115 Cl  0  0  0  0  0  0  0  0  0  0  0  0
   42.5866  -20.1689   42.2647 C   0  0  0  0  0  0  0  0  0  0  0  0
   41.9551  -19.9017   41.0577 C   0  0  0  0  0  0  0  0  0  0  0  0
 14 15  1  0  0  0
 15 16  2  0  0  0
 15 12  1  0  0  0
 12 13  2  0  0  0
 13  5  1  0  0  0
  5  1  1  0  0  0
  1  2  2  0  0  0
  1  3  1  0  0  0
  3 17  1  0  0  0
 17 18  1  0  0  0
 18 19  1  0  0  0
 19 20  1  0  0  0
 20 21  1  0  0  0
 21 22  1  0  0  0
 22 23  1  0  0  0
 23 24  1  0  0  0
 24 25  1  0  0  0
 23 26  1  0  0  0
 26 27  2  0  0  0
 27 28  1  0  0  0
 28 29  2  0  0  0
 29 30  1  0  0  0
 29 31  1  0  0  0
 31 32  2  0  0  0
  5  6  1  0  0  0
  6  7  2  0  0  0
  7  8  1  0  0  0
  8  9  2  0  0  0
  9 10  1  0  0  0
 10 11  2  0  0  0
 25 20  1  0  0  0
 32 26  1  0  0  0
 11  6  1  0  0  0
  3  4  1  0  0  0
M  END
> <minimizedAffinity>
-6.24991

> <CNNscore>
0.3125885129

> <CNNaffinity>
5.3435049057

> <CNN_VS>
1.6703182459

> <CNNaffinity_variance>
0.2257120907

$$$$
[H]C(C(=O)C([H])([H])[H])=C([H])C([H])(C(=O)N([H])C([H])([H])C([H])([H])C([H])([H])N1C([H])([H])C([H])([H])N(c2c([H])c([H])c(Cl)c([H])c2[H])C([H])([H])C1([H])[H])c1c([H])c([H])c([H])c([H])c1[H]


 32 34  0  0  0  0  0  0  0  0999 V2000
   36.7455  -17.8791   34.9484 C   0  0  0  0  0  0  0  0  0  0  0  0
   35.9876  -17.8626   33.9412 O   0  0  0  0  0  0  0  0  0  0  0  0
   38.1033  -18.2065   34.7921 N   0  0  0  0  0  0  0  0  0  0  0  0
   38.7103  -18.2135   35.6621 H   0  0  0  0  0  0  0  0  0  0  0  0
   36.1749  -17.5491   36.2800 C   0  0  0  0  0  0  0  0  0  0  0  0
   35.6132  -18.7525   36.9407 C   0  0  0  0  0  0  0  0  0  0  0  0
   36.3338  -19.4058   37.9065 C   0  0  0  0  0  0  0  0  0  0  0  0
   35.8436  -20.5296   38.5311 C   0  0  0  0  0  0  0  0  0  0  0  0
   34.5970  -20.9719   38.1458 C   0  0  0  0  0  0  0  0  0  0  0  0
   33.8575  -20.3315   37.1797 C   0  0  0  0  0  0  0  0  0  0  0  0
   34.3727  -19.2132   36.5744 C   0  0  0  0  0  0  0  0  0  0  0  0
   35.6282  -15.1641   36.2945 C   0  0  0  0  0  0  0  0  0  0  0  0
   35.2635  -16.4065   36.2052 C   0  0  0  0  0  0  0  0  0  0  0  0
   35.2024  -12.6847   36.5220 C   0  0  0  0  0  0  0  0  0  0  0  0
   34.6764  -14.0420   36.2137 C   0  0  0  0  0  0  0  0  0  0  0  0
   33.4793  -14.1926   35.9037 O   0  0  0  0  0  0  0  0  0  0  0  0
   38.7698  -18.5383   33.5609 C   0  0  0  0  0  0  0  0  0  0  0  0
   39.4587  -19.8714   33.7199 C   0  0  0  0  0  0  0  0  0  0  0  0
   40.7169  -19.9554   32.8889 C   0  0  0  0  0  0  0  0  0  0  0  0
   41.9055  -19.9867   33.6618 N   0  0  0  0  0  0  0  0  0  0  0  0
   42.0412  -21.0506   34.5883 C   0  0  0  0  0  0  0  0  0  0  0  0
   41.3105  -20.6966   35.8661 C   0  0  0  0  0  0  0  0  0  0  0  0
   42.0293  -19.5862   36.4534 N   0  0  0  0  0  0  0  0  0  0  0  0
   42.6765  -18.6424   35.5896 C   0  0  0  0  0  0  0  0  0  0  0  0
   42.3139  -18.7318   34.1509 C   0  0  0  0  0  0  0  0  0  0  0  0
   42.0913  -19.4283   37.8468 C   0  0  0  0  0  0  0  0  0  0  0  0
   41.2075  -20.1160   38.6871 C   0  0  0  0  0  0  0  0  0  0  0  0
   41.2572  -19.9755   40.0513 C   0  0  0  0  0  0  0  0  0  0  0  0
   42.1792  -19.1510   40.6614 C   0  0  0  0  0  0  0  0  0  0  0  0
   42.2246  -18.9856   42.4200 Cl  0  0  0  0  0  0  0  0  0  0  0  0
   43.0577  -18.4656   39.8555 C   0  0  0  0  0  0  0  0  0  0  0  0
   43.0054  -18.6094   38.4758 C   0  0  0  0  0  0  0  0  0  0  0  0
 14 15  1  0  0  0
 15 16  2  0  0  0
 15 12  1  0  0  0
 12 13  2  0  0  0
 13  5  1  0  0  0
  5  1  1  0  0  0
  1  2  2  0  0  0
  1  3  1  0  0  0
  3 17  1  0  0  0
 17 18  1  0  0  0
 18 19  1  0  0  0
 19 20  1  0  0  0
 20 21  1  0  0  0
 21 22  1  0  0  0
 22 23  1  0  0  0
 23 24  1  0  0  0
 24 25  1  0  0  0
 23 26  1  0  0  0
 26 27  2  0  0  0
 27 28  1  0  0  0
 28 29  2  0  0  0
 29 30  1  0  0  0
 29 31  1  0  0  0
 31 32  2  0  0  0
  5  6  1  0  0  0
  6  7  2  0  0  0
  7  8  1  0  0  0
  8  9  2  0  0  0
  9 10  1  0  0  0
 10 11  2  0  0  0
 25 20  1  0  0  0
 32 26  1  0  0  0
 11  6  1  0  0  0
  3  4  1  0  0  0
M  END
> <minimizedAffinity>
-6.69832

> <CNNscore>
0.3017530739

> <CNNaffinity>
5.5568513870

> <CNN_VS>
1.6767970324

> <CNNaffinity_variance>
0.2799667418

$$$$
[H]C(C(=O)C([H])([H])[H])=C([H])C([H])(C(=O)N([H])C([H])([H])C([H])([H])C([H])([H])N1C([H])([H])C([H])([H])N(c2c([H])c([H])c(Cl)c([H])c2[H])C([H])([H])C1([H])[H])c1c([H])c([H])c([H])c([H])c1[H]


 32 34  0  0  0  0  0  0  0  0999 V2000
   33.4228  -14.3566   35.8406 C   0  0  0  0  0  0  0  0  0  0  0  0
   32.7869  -13.8699   34.8670 O   0  0  0  0  0  0  0  0  0  0  0  0
   33.6676  -15.7397   35.8901 N   0  0  0  0  0  0  0  0  0  0  0  0
   34.2029  -16.1143   36.7258 H   0  0  0  0  0  0  0  0  0  0  0  0
   33.8976  -13.4454   36.9139 C   0  0  0  0  0  0  0  0  0  0  0  0
   35.3531  -13.6027   37.1519 C   0  0  0  0  0  0  0  0  0  0  0  0
   35.8288  -14.7190   37.7894 C   0  0  0  0  0  0  0  0  0  0  0  0
   37.1723  -14.8896   38.0324 C   0  0  0  0  0  0  0  0  0  0  0  0
   38.0214  -13.8911   37.6079 C   0  0  0  0  0  0  0  0  0  0  0  0
   37.5655  -12.7636   36.9666 C   0  0  0  0  0  0  0  0  0  0  0  0
   36.2201  -12.6215   36.7384 C   0  0  0  0  0  0  0  0  0  0  0  0
   32.1649  -12.6789   38.4624 C   0  0  0  0  0  0  0  0  0  0  0  0
   33.0637  -13.5474   38.1122 C   0  0  0  0  0  0  0  0  0  0  0  0
   29.8816  -13.0079   39.4911 C   0  0  0  0  0  0  0  0  0  0  0  0
   31.3456  -12.8202   39.6790 C   0  0  0  0  0  0  0  0  0  0  0  0
   31.8292  -12.7880   40.8267 O   0  0  0  0  0  0  0  0  0  0  0  0
   33.2648  -16.7179   34.9149 C   0  0  0  0  0  0  0  0  0  0  0  0
   33.4952  -18.0979   35.4802 C   0  0  0  0  0  0  0  0  0  0  0  0
   34.7929  -18.6953   34.9907 C   0  0  0  0  0  0  0  0  0  0  0  0
   35.9324  -17.9128   35.3082 N   0  0  0  0  0  0  0  0  0  0  0  0
   36.8730  -17.6974   34.2701 C   0  0  0  0  0  0  0  0  0  0  0  0
   37.8070  -18.8861   34.1875 C   0  0  0  0  0  0  0  0  0  0  0  0
   38.5816  -18.8824   35.4101 N   0  0  0  0  0  0  0  0  0  0  0  0
   37.9756  -18.3970   36.6155 C   0  0  0  0  0  0  0  0  0  0  0  0
   36.5033  -18.1997   36.5622 C   0  0  0  0  0  0  0  0  0  0  0  0
   39.9049  -19.3502   35.4223 C   0  0  0  0  0  0  0  0  0  0  0  0
   40.5640  -19.6080   36.6303 C   0  0  0  0  0  0  0  0  0  0  0  0
   41.8562  -20.0690   36.6596 C   0  0  0  0  0  0  0  0  0  0  0  0
   42.5689  -20.3010   35.5017 C   0  0  0  0  0  0  0  0  0  0  0  0
   44.2319  -20.8946   35.5636 Cl  0  0  0  0  0  0  0  0  0  0  0  0
   41.9413  -20.0548   34.3032 C   0  0  0  0  0  0  0  0  0  0  0  0
   40.6341  -19.5885   34.2763 C   0  0  0  0  0  0  0  0  0  0  0  0
 14 15  1  0  0  0
 15 16  2  0  0  0
 15 12  1  0  0  0
 12 13  2  0  0  0
 13  5  1  0  0  0
  5  1  1  0  0  0
  1  2  2  0  0  0
  1  3  1  0  0  0
  3 17  1  0  0  0
 17 18  1  0  0  0
 18 19  1  0  0  0
 19 20  1  0  0  0
 20 21  1  0  0  0
 21 22  1  0  0  0
 22 23  1  0  0  0
 23 24  1  0  0  0
 24 25  1  0  0  0
 23 26  1  0  0  0
 26 27  2  0  0  0
 27 28  1  0  0  0
 28 29  2  0  0  0
 29 30  1  0  0  0
 29 31  1  0  0  0
 31 32  2  0  0  0
  5  6  1  0  0  0
  6  7  2  0  0  0
  7  8  1  0  0  0
  8  9  2  0  0  0
  9 10  1  0  0  0
 10 11  2  0  0  0
 25 20  1  0  0  0
 32 26  1  0  0  0
 11  6  1  0  0  0
  3  4  1  0  0  0
M  END
> <minimizedAffinity>
-6.52695

> <CNNscore>
0.2991119027

> <CNNaffinity>
5.6114768982

> <CNN_VS>
1.6784595251

> <CNNaffinity_variance>
0.3296906352

$$$$
[H]N=C(N([H])[H])[C@@]([H])(N([H])C(=O)[C@@]([H])(N([H])C(=O)[C@@]([H])(N([H])C(=O)[C@@]([H])(N([H])C(=O)[C@@]([H])(N([H])C(=O)c1c([H])c([H])c([H])c([H])c1[H])C([H])([H])C([H])(C([H])([H])[H])C([H])([H])[H])C([H])([H])C([H])(C([H])([H])[H])C([H])([H])[H])C([H])([H])c1c([H])c([H])c([H])c([H])c1[H])C([H])([H])C(=O)N([H])[H])C([H])([H])c1c([H])c([H])c([H])c([H])c1[H]


 65 67  0  0  0  0  0  0  0  0999 V2000
   33.7570  -17.5954   34.5901 C   0  0  0  0  0  0  0  0  0  0  0  0
   34.1974  -15.2920   35.5622 C   0  0  0  0  0  0  0  0  0  0  0  0
   33.1552  -14.8576   34.9431 O   0  0  0  0  0  0  0  0  0  0  0  0
   34.5153  -16.6569   35.4120 N   0  0  0  0  0  0  0  0  0  0  0  0
   35.3628  -17.0105   35.9433 H   0  0  0  0  0  0  0  0  0  0  0  0
   34.9286  -14.3073   36.3505 C   0  0  0  0  0  0  0  0  0  0  0  0
   34.3421  -13.0066   36.1793 N   0  0  0  0  0  0  0  0  0  0  0  0
   33.9268  -12.1039   37.1585 C   0  0  0  0  0  0  0  0  0  0  0  0
   34.0408  -12.4608   38.3881 O   0  0  0  0  0  0  0  0  0  0  0  0
   34.1712  -12.6702   35.1669 H   0  0  0  0  0  0  0  0  0  0  0  0
   33.3571  -10.7500   36.9623 C   0  0  0  0  0  0  0  0  0  0  0  0
   32.0787  -10.7237   37.7151 N   0  0  0  0  0  0  0  0  0  0  0  0
   31.0173  -11.6072   37.4911 C   0  0  0  0  0  0  0  0  0  0  0  0
   31.1024  -12.4980   36.6011 O   0  0  0  0  0  0  0  0  0  0  0  0
   31.9638   -9.9814   38.4689 H   0  0  0  0  0  0  0  0  0  0  0  0
   29.8049  -11.5096   38.2769 C   0  0  0  0  0  0  0  0  0  0  0  0
   29.0851  -10.3514   38.4236 C   0  0  0  0  0  0  0  0  0  0  0  0
   27.9433  -10.3495   39.1718 C   0  0  0  0  0  0  0  0  0  0  0  0
   27.5098  -11.4944   39.7772 C   0  0  0  0  0  0  0  0  0  0  0  0
   28.2251  -12.6814   39.6409 C   0  0  0  0  0  0  0  0  0  0  0  0
   29.3660  -12.6684   38.8895 C   0  0  0  0  0  0  0  0  0  0  0  0
   34.1506   -9.6295   37.5312 C   0  0  0  0  0  0  0  0  0  0  0  0
   34.5653   -8.5125   36.6718 C   0  0  0  0  0  0  0  0  0  0  0  0
   35.3841   -8.9255   35.4632 C   0  0  0  0  0  0  0  0  0  0  0  0
   33.2818   -7.8669   36.1198 C   0  0  0  0  0  0  0  0  0  0  0  0
   35.2405  -14.7747   37.7190 C   0  0  0  0  0  0  0  0  0  0  0  0
   37.4699  -13.6646   37.4761 C   0  0  0  0  0  0  0  0  0  0  0  0
   36.7115  -14.8568   38.0466 C   0  0  0  0  0  0  0  0  0  0  0  0
   37.2593  -16.0745   37.2882 C   0  0  0  0  0  0  0  0  0  0  0  0
   32.8590  -18.3596   35.5008 C   0  0  0  0  0  0  0  0  0  0  0  0
   32.3415  -17.8960   36.5436 O   0  0  0  0  0  0  0  0  0  0  0  0
   32.5763  -19.7025   35.1530 N   0  0  0  0  0  0  0  0  0  0  0  0
   32.9789  -20.1453   34.3188 H   0  0  0  0  0  0  0  0  0  0  0  0
   31.6734  -20.5104   36.0099 C   0  0  0  0  0  0  0  0  0  0  0  0
   32.6114  -21.3020   36.8124 C   0  0  0  0  0  0  0  0  0  0  0  0
   32.2637  -22.5259   37.0101 O   0  0  0  0  0  0  0  0  0  0  0  0
   33.8048  -20.8983   37.3780 N   0  0  0  0  0  0  0  0  0  0  0  0
   34.1870  -19.9462   37.3443 H   0  0  0  0  0  0  0  0  0  0  0  0
   34.6461  -21.8445   38.1464 C   0  0  0  0  0  0  0  0  0  0  0  0
   35.1741  -21.1235   39.3032 C   0  0  0  0  0  0  0  0  0  0  0  0
   34.3574  -20.7232   40.3886 N   0  0  0  0  0  0  0  0  0  0  0  0
   36.4251  -20.8274   39.3787 N   0  0  0  0  0  0  0  0  0  0  0  0
   34.1342  -21.4005   41.1355 H   0  0  0  0  0  0  0  0  0  0  0  0
   33.9899  -19.7628   40.4414 H   0  0  0  0  0  0  0  0  0  0  0  0
   37.0478  -21.1120   38.6006 H   0  0  0  0  0  0  0  0  0  0  0  0
   35.6933  -22.3959   37.2371 C   0  0  0  0  0  0  0  0  0  0  0  0
   35.8645  -23.8632   37.4399 C   0  0  0  0  0  0  0  0  0  0  0  0
   34.7932  -24.5518   37.9757 C   0  0  0  0  0  0  0  0  0  0  0  0
   34.8851  -25.9064   38.1888 C   0  0  0  0  0  0  0  0  0  0  0  0
   36.0433  -26.6121   37.8759 C   0  0  0  0  0  0  0  0  0  0  0  0
   37.0943  -25.9148   37.3457 C   0  0  0  0  0  0  0  0  0  0  0  0
   37.0075  -24.5575   37.1300 C   0  0  0  0  0  0  0  0  0  0  0  0
   30.7325  -21.3297   35.2259 C   0  0  0  0  0  0  0  0  0  0  0  0
   29.3666  -21.2629   35.7806 C   0  0  0  0  0  0  0  0  0  0  0  0
   28.4086  -22.2800   35.4629 N   0  0  0  0  0  0  0  0  0  0  0  0
   28.9465  -20.3456   36.5480 O   0  0  0  0  0  0  0  0  0  0  0  0
   28.0046  -22.8624   36.2288 H   0  0  0  0  0  0  0  0  0  0  0  0
   28.1489  -22.4045   34.4832 H   0  0  0  0  0  0  0  0  0  0  0  0
   34.6451  -18.5207   33.8816 C   0  0  0  0  0  0  0  0  0  0  0  0
   35.9872  -18.6996   34.4509 C   0  0  0  0  0  0  0  0  0  0  0  0
   37.0512  -18.1934   33.7362 C   0  0  0  0  0  0  0  0  0  0  0  0
   38.3395  -18.3097   34.1770 C   0  0  0  0  0  0  0  0  0  0  0  0
   38.5999  -18.9439   35.3571 C   0  0  0  0  0  0  0  0  0  0  0  0
   37.5495  -19.4612   36.0950 C   0  0  0  0  0  0  0  0  0  0  0  0
   36.2613  -19.3298   35.6284 C   0  0  0  0  0  0  0  0  0  0  0  0
 27 28  1  0  0  0
 28 29  1  0  0  0
 28 26  1  0  0  0
 26  6  1  0  0  0
  6  7  1  0  0  0
  7  8  1  0  0  0
  8  9  2  0  0  0
  8 11  1  0  0  0
 11 22  1  0  0  0
 22 23  1  0  0  0
 23 24  1  0  0  0
 23 25  1  0  0  0
 11 12  1  0  0  0
 12 13  1  0  0  0
 13 14  2  0  0  0
 13 16  1  0  0  0
 16 17  2  0  0  0
 17 18  1  0  0  0
 18 19  2  0  0  0
 19 20  1  0  0  0
 20 21  2  0  0  0
  6  2  1  0  0  0
  2  3  2  0  0  0
  2  4  1  0  0  0
  4  1  1  0  0  0
  1 59  1  0  0  0
 59 60  1  0  0  0
 60 61  2  0  0  0
 61 62  1  0  0  0
 62 63  2  0  0  0
 63 64  1  0  0  0
 64 65  2  0  0  0
  1 30  1  0  0  0
 30 31  2  0  0  0
 30 32  1  0  0  0
 32 34  1  0  0  0
 34 53  1  0  0  0
 53 54  1  0  0  0
 54 55  1  0  0  0
 54 56  2  0  0  0
 34 35  1  0  0  0
 35 36  2  0  0  0
 35 37  1  0  0  0
 37 39  1  0  0  0
 39 46  1  0  0  0
 46 47  1  0  0  0
 47 48  2  0  0  0
 48 49  1  0  0  0
 49 50  2  0  0  0
 50 51  1  0  0  0
 51 52  2  0  0  0
 39 40  1  0  0  0
 40 41  1  0  0  0
 40 42  2  0  0  0
 21 16  1  0  0  0
 65 60  1  0  0  0
 52 47  1  0  0  0
  7 10  1  0  0  0
 12 15  1  0  0  0
  4  5  1  0  0  0
 32 33  1  0  0  0
 55 57  1  0  0  0
 55 58  1  0  0  0
 37 38  1  0  0  0
 41 43  1  0  0  0
 41 44  1  0  0  0
 42 45  1  0  0  0
M  END
> <minimizedAffinity>
-7.10940

> <CNNscore>
0.4302883148

> <CNNaffinity>
7.5109810829

> <CNN_VS>
3.2318873405

> <CNNaffinity_variance>
0.1437243521

$$$$
[H]N=C(N([H])[H])[C@@]([H])(N([H])C(=O)[C@@]([H])(N([H])C(=O)[C@@]([H])(N([H])C(=O)[C@@]([H])(N([H])C(=O)[C@@]([H])(N([H])C(=O)c1c([H])c([H])c([H])c([H])c1[H])C([H])([H])C([H])(C([H])([H])[H])C([H])([H])[H])C([H])([H])C([H])(C([H])([H])[H])C([H])([H])[H])C([H])([H])c1c([H])c([H])c([H])c([H])c1[H])C([H])([H])C(=O)N([H])[H])C([H])([H])c1c([H])c([H])c([H])c([H])c1[H]


 65 67  0  0  0  0  0  0  0  0999 V2000
   35.2315  -17.9093   35.5300 C   0  0  0  0  0  0  0  0  0  0  0  0
   34.2834  -15.6024   36.0026 C   0  0  0  0  0  0  0  0  0  0  0  0
   33.3187  -15.8582   35.1889 O   0  0  0  0  0  0  0  0  0  0  0  0
   35.2467  -16.6122   36.1996 N   0  0  0  0  0  0  0  0  0  0  0  0
   36.0255  -16.4005   36.8883 H   0  0  0  0  0  0  0  0  0  0  0  0
   34.2603  -14.2847   36.6263 C   0  0  0  0  0  0  0  0  0  0  0  0
   32.9035  -13.8364   36.7786 N   0  0  0  0  0  0  0  0  0  0  0  0
   32.4389  -12.6386   37.3223 C   0  0  0  0  0  0  0  0  0  0  0  0
   33.3098  -11.8146   37.7861 O   0  0  0  0  0  0  0  0  0  0  0  0
   32.1212  -14.5080   36.4555 H   0  0  0  0  0  0  0  0  0  0  0  0
   31.0352  -12.1778   37.4375 C   0  0  0  0  0  0  0  0  0  0  0  0
   30.7043  -12.2101   38.8837 N   0  0  0  0  0  0  0  0  0  0  0  0
   29.4399  -12.5252   39.3928 C   0  0  0  0  0  0  0  0  0  0  0  0
   28.4866  -12.8028   38.6137 O   0  0  0  0  0  0  0  0  0  0  0  0
   31.4790  -11.9734   39.5737 H   0  0  0  0  0  0  0  0  0  0  0  0
   29.2075  -12.5346   40.8221 C   0  0  0  0  0  0  0  0  0  0  0  0
   28.4558  -11.5924   41.4765 C   0  0  0  0  0  0  0  0  0  0  0  0
   28.2746  -11.6834   42.8265 C   0  0  0  0  0  0  0  0  0  0  0  0
   28.8368  -12.7078   43.5335 C   0  0  0  0  0  0  0  0  0  0  0  0
   29.6032  -13.6754   42.8889 C   0  0  0  0  0  0  0  0  0  0  0  0
   29.7764  -13.5715   41.5377 C   0  0  0  0  0  0  0  0  0  0  0  0
   30.7838  -10.7719   37.0265 C   0  0  0  0  0  0  0  0  0  0  0  0
   31.1835   -9.6663   37.9075 C   0  0  0  0  0  0  0  0  0  0  0  0
   32.0154   -8.5955   37.2272 C   0  0  0  0  0  0  0  0  0  0  0  0
   29.8919   -8.9726   38.3759 C   0  0  0  0  0  0  0  0  0  0  0  0
   35.1827  -14.1708   37.7773 C   0  0  0  0  0  0  0  0  0  0  0  0
   36.2920  -12.5684   36.2079 C   0  0  0  0  0  0  0  0  0  0  0  0
   36.3852  -13.2881   37.5477 C   0  0  0  0  0  0  0  0  0  0  0  0
   37.5938  -14.2255   37.4107 C   0  0  0  0  0  0  0  0  0  0  0  0
   35.3726  -18.9549   36.5820 C   0  0  0  0  0  0  0  0  0  0  0  0
   35.5146  -18.7195   37.8045 O   0  0  0  0  0  0  0  0  0  0  0  0
   35.3413  -20.3057   36.1594 N   0  0  0  0  0  0  0  0  0  0  0  0
   35.2403  -20.5649   35.1711 H   0  0  0  0  0  0  0  0  0  0  0  0
   35.4579  -21.3935   37.1620 C   0  0  0  0  0  0  0  0  0  0  0  0
   34.1678  -22.0808   37.0452 C   0  0  0  0  0  0  0  0  0  0  0  0
   33.2683  -21.7007   37.8843 O   0  0  0  0  0  0  0  0  0  0  0  0
   33.8066  -23.0764   36.1588 N   0  0  0  0  0  0  0  0  0  0  0  0
   34.4278  -23.5105   35.4665 H   0  0  0  0  0  0  0  0  0  0  0  0
   32.4404  -23.6482   36.1658 C   0  0  0  0  0  0  0  0  0  0  0  0
   32.5677  -25.0878   36.3855 C   0  0  0  0  0  0  0  0  0  0  0  0
   32.9127  -25.9886   35.3487 N   0  0  0  0  0  0  0  0  0  0  0  0
   32.3727  -25.5946   37.5531 N   0  0  0  0  0  0  0  0  0  0  0  0
   33.9053  -26.1185   35.0956 H   0  0  0  0  0  0  0  0  0  0  0  0
   32.1834  -26.5179   34.8503 H   0  0  0  0  0  0  0  0  0  0  0  0
   32.1235  -24.9584   38.3323 H   0  0  0  0  0  0  0  0  0  0  0  0
   31.7646  -23.2804   34.8869 C   0  0  0  0  0  0  0  0  0  0  0  0
   31.4329  -21.8271   34.8516 C   0  0  0  0  0  0  0  0  0  0  0  0
   32.2756  -21.0086   34.1243 C   0  0  0  0  0  0  0  0  0  0  0  0
   32.0271  -19.6589   34.0512 C   0  0  0  0  0  0  0  0  0  0  0  0
   30.9358  -19.0870   34.6988 C   0  0  0  0  0  0  0  0  0  0  0  0
   30.1114  -19.9120   35.4142 C   0  0  0  0  0  0  0  0  0  0  0  0
   30.3557  -21.2650   35.4906 C   0  0  0  0  0  0  0  0  0  0  0  0
   35.7341  -20.8863   38.5176 C   0  0  0  0  0  0  0  0  0  0  0  0
   36.8501  -21.6160   39.1501 C   0  0  0  0  0  0  0  0  0  0  0  0
   37.1130  -21.4594   40.5499 N   0  0  0  0  0  0  0  0  0  0  0  0
   37.6314  -22.4049   38.5384 O   0  0  0  0  0  0  0  0  0  0  0  0
   37.0537  -22.2893   41.1797 H   0  0  0  0  0  0  0  0  0  0  0  0
   37.3525  -20.5272   40.8911 H   0  0  0  0  0  0  0  0  0  0  0  0
   36.3310  -18.0249   34.5683 C   0  0  0  0  0  0  0  0  0  0  0  0
   37.5574  -18.6696   35.0558 C   0  0  0  0  0  0  0  0  0  0  0  0
   38.0412  -19.7389   34.3335 C   0  0  0  0  0  0  0  0  0  0  0  0
   39.1729  -20.4093   34.7039 C   0  0  0  0  0  0  0  0  0  0  0  0
   39.8572  -20.0239   35.8200 C   0  0  0  0  0  0  0  0  0  0  0  0
   39.3933  -18.9526   36.5635 C   0  0  0  0  0  0  0  0  0  0  0  0
   38.2510  -18.2944   36.1680 C   0  0  0  0  0  0  0  0  0  0  0  0
 27 28  1  0  0  0
 28 29  1  0  0  0
 28 26  1  0  0  0
 26  6  1  0  0  0
  6  7  1  0  0  0
  7  8  1  0  0  0
  8  9  2  0  0  0
  8 11  1  0  0  0
 11 22  1  0  0  0
 22 23  1  0  0  0
 23 24  1  0  0  0
 23 25  1  0  0  0
 11 12  1  0  0  0
 12 13  1  0  0  0
 13 14  2  0  0  0
 13 16  1  0  0  0
 16 17  2  0  0  0
 17 18  1  0  0  0
 18 19  2  0  0  0
 19 20  1  0  0  0
 20 21  2  0  0  0
  6  2  1  0  0  0
  2  3  2  0  0  0
  2  4  1  0  0  0
  4  1  1  0  0  0
  1 59  1  0  0  0
 59 60  1  0  0  0
 60 61  2  0  0  0
 61 62  1  0  0  0
 62 63  2  0  0  0
 63 64  1  0  0  0
 64 65  2  0  0  0
  1 30  1  0  0  0
 30 31  2  0  0  0
 30 32  1  0  0  0
 32 34  1  0  0  0
 34 53  1  0  0  0
 53 54  1  0  0  0
 54 55  1  0  0  0
 54 56  2  0  0  0
 34 35  1  0  0  0
 35 36  2  0  0  0
 35 37  1  0  0  0
 37 39  1  0  0  0
 39 46  1  0  0  0
 46 47  1  0  0  0
 47 48  2  0  0  0
 48 49  1  0  0  0
 49 50  2  0  0  0
 50 51  1  0  0  0
 51 52  2  0  0  0
 39 40  1  0  0  0
 40 41  1  0  0  0
 40 42  2  0  0  0
 21 16  1  0  0  0
 65 60  1  0  0  0
 52 47  1  0  0  0
  7 10  1  0  0  0
 12 15  1  0  0  0
  4  5  1  0  0  0
 32 33  1  0  0  0
 55 57  1  0  0  0
 55 58  1  0  0  0
 37 38  1  0  0  0
 41 43  1  0  0  0
 41 44  1  0  0  0
 42 45  1  0  0  0
M  END
> <minimizedAffinity>
-7.87705

> <CNNscore>
0.3479601741

> <CNNaffinity>
7.3513617516

> <CNN_VS>
2.5579810143

> <CNNaffinity_variance>
0.0562658124

$$$$
[H]N=C(N([H])[H])[C@@]([H])(N([H])C(=O)[C@@]([H])(N([H])C(=O)[C@@]([H])(N([H])C(=O)[C@@]([H])(N([H])C(=O)[C@@]([H])(N([H])C(=O)c1c([H])c([H])c([H])c([H])c1[H])C([H])([H])C([H])(C([H])([H])[H])C([H])([H])[H])C([H])([H])C([H])(C([H])([H])[H])C([H])([H])[H])C([H])([H])c1c([H])c([H])c([H])c([H])c1[H])C([H])([H])C(=O)N([H])[H])C([H])([H])c1c([H])c([H])c([H])c([H])c1[H]


 65 67  0  0  0  0  0  0  0  0999 V2000
   33.8263  -17.7833   34.5976 C   0  0  0  0  0  0  0  0  0  0  0  0
   34.2124  -15.4819   35.5969 C   0  0  0  0  0  0  0  0  0  0  0  0
   33.2173  -15.0420   34.9081 O   0  0  0  0  0  0  0  0  0  0  0  0
   34.5321  -16.8486   35.4690 N   0  0  0  0  0  0  0  0  0  0  0  0
   35.3394  -17.2066   36.0569 H   0  0  0  0  0  0  0  0  0  0  0  0
   34.8937  -14.5008   36.4330 C   0  0  0  0  0  0  0  0  0  0  0  0
   34.1629  -13.2634   36.4341 N   0  0  0  0  0  0  0  0  0  0  0  0
   33.4519  -12.6740   37.4796 C   0  0  0  0  0  0  0  0  0  0  0  0
   33.3957  -13.3076   38.5968 O   0  0  0  0  0  0  0  0  0  0  0  0
   34.1279  -12.7086   35.5077 H   0  0  0  0  0  0  0  0  0  0  0  0
   32.7341  -11.3776   37.4722 C   0  0  0  0  0  0  0  0  0  0  0  0
   31.5358  -11.5608   38.3280 N   0  0  0  0  0  0  0  0  0  0  0  0
   30.2243  -11.3206   37.9043 C   0  0  0  0  0  0  0  0  0  0  0  0
   29.9940  -10.9179   36.7306 O   0  0  0  0  0  0  0  0  0  0  0  0
   31.6881  -11.8912   39.3280 H   0  0  0  0  0  0  0  0  0  0  0  0
   29.1128  -11.5289   38.8088 C   0  0  0  0  0  0  0  0  0  0  0  0
   28.1310  -10.5980   39.0340 C   0  0  0  0  0  0  0  0  0  0  0  0
   27.1088  -10.8810   39.8934 C   0  0  0  0  0  0  0  0  0  0  0  0
   27.0548  -12.0865   40.5329 C   0  0  0  0  0  0  0  0  0  0  0  0
   28.0409  -13.0461   40.3183 C   0  0  0  0  0  0  0  0  0  0  0  0
   29.0580  -12.7492   39.4559 C   0  0  0  0  0  0  0  0  0  0  0  0
   33.4618  -10.2358   38.0850 C   0  0  0  0  0  0  0  0  0  0  0  0
   33.8073   -9.0628   37.2708 C   0  0  0  0  0  0  0  0  0  0  0  0
   34.6901   -9.3705   36.0760 C   0  0  0  0  0  0  0  0  0  0  0  0
   32.4910   -8.5064   36.6992 C   0  0  0  0  0  0  0  0  0  0  0  0
   35.3551  -15.0579   37.7234 C   0  0  0  0  0  0  0  0  0  0  0  0
   37.4108  -13.6615   37.4306 C   0  0  0  0  0  0  0  0  0  0  0  0
   36.8432  -14.9724   37.9609 C   0  0  0  0  0  0  0  0  0  0  0  0
   37.4863  -16.0629   37.0919 C   0  0  0  0  0  0  0  0  0  0  0  0
   32.8501  -18.5280   35.4416 C   0  0  0  0  0  0  0  0  0  0  0  0
   32.1437  -18.0101   36.3375 O   0  0  0  0  0  0  0  0  0  0  0  0
   32.7187  -19.9177   35.2050 N   0  0  0  0  0  0  0  0  0  0  0  0
   33.2776  -20.4043   34.4943 H   0  0  0  0  0  0  0  0  0  0  0  0
   31.7492  -20.7114   36.0001 C   0  0  0  0  0  0  0  0  0  0  0  0
   32.6123  -21.6646   36.7049 C   0  0  0  0  0  0  0  0  0  0  0  0
   32.2146  -21.9928   37.8847 O   0  0  0  0  0  0  0  0  0  0  0  0
   33.7868  -22.2421   36.2643 N   0  0  0  0  0  0  0  0  0  0  0  0
   34.2486  -22.0427   35.3696 H   0  0  0  0  0  0  0  0  0  0  0  0
   34.5258  -23.2110   37.1062 C   0  0  0  0  0  0  0  0  0  0  0  0
   33.7409  -24.4434   37.1498 C   0  0  0  0  0  0  0  0  0  0  0  0
   33.0972  -24.8950   38.3276 N   0  0  0  0  0  0  0  0  0  0  0  0
   33.6004  -25.1713   36.0968 N   0  0  0  0  0  0  0  0  0  0  0  0
   32.1752  -24.5078   38.5850 H   0  0  0  0  0  0  0  0  0  0  0  0
   33.5381  -25.6086   38.9249 H   0  0  0  0  0  0  0  0  0  0  0  0
   34.0567  -24.8629   35.2188 H   0  0  0  0  0  0  0  0  0  0  0  0
   34.7691  -22.5913   38.4420 C   0  0  0  0  0  0  0  0  0  0  0  0
   36.2232  -22.3488   38.6663 C   0  0  0  0  0  0  0  0  0  0  0  0
   37.1073  -23.0733   37.8901 C   0  0  0  0  0  0  0  0  0  0  0  0
   38.4613  -22.8979   38.0467 C   0  0  0  0  0  0  0  0  0  0  0  0
   38.9725  -21.9992   38.9785 C   0  0  0  0  0  0  0  0  0  0  0  0
   38.0831  -21.2897   39.7385 C   0  0  0  0  0  0  0  0  0  0  0  0
   36.7254  -21.4613   39.5855 C   0  0  0  0  0  0  0  0  0  0  0  0
   30.7227  -21.3552   35.1617 C   0  0  0  0  0  0  0  0  0  0  0  0
   29.4009  -21.3380   35.8178 C   0  0  0  0  0  0  0  0  0  0  0  0
   28.4349  -22.3537   35.5208 N   0  0  0  0  0  0  0  0  0  0  0  0
   29.0273  -20.4663   36.6589 O   0  0  0  0  0  0  0  0  0  0  0  0
   28.0962  -22.9795   36.2841 H   0  0  0  0  0  0  0  0  0  0  0  0
   28.1050  -22.4344   34.5578 H   0  0  0  0  0  0  0  0  0  0  0  0
   34.7533  -18.7262   33.9663 C   0  0  0  0  0  0  0  0  0  0  0  0
   36.0424  -18.9231   34.6419 C   0  0  0  0  0  0  0  0  0  0  0  0
   37.1727  -18.4751   33.9932 C   0  0  0  0  0  0  0  0  0  0  0  0
   38.4200  -18.6127   34.5345 C   0  0  0  0  0  0  0  0  0  0  0  0
   38.5707  -19.2101   35.7522 C   0  0  0  0  0  0  0  0  0  0  0  0
   37.4519  -19.6687   36.4256 C   0  0  0  0  0  0  0  0  0  0  0  0
   36.2071  -19.5171   35.8580 C   0  0  0  0  0  0  0  0  0  0  0  0
 27 28  1  0  0  0
 28 29  1  0  0  0
 28 26  1  0  0  0
 26  6  1  0  0  0
  6  7  1  0  0  0
  7  8  1  0  0  0
  8  9  2  0  0  0
  8 11  1  0  0  0
 11 22  1  0  0  0
 22 23  1  0  0  0
 23 24  1  0  0  0
 23 25  1  0  0  0
 11 12  1  0  0  0
 12 13  1  0  0  0
 13 14  2  0  0  0
 13 16  1  0  0  0
 16 17  2  0  0  0
 17 18  1  0  0  0
 18 19  2  0  0  0
 19 20  1  0  0  0
 20 21  2  0  0  0
  6  2  1  0  0  0
  2  3  2  0  0  0
  2  4  1  0  0  0
  4  1  1  0  0  0
  1 59  1  0  0  0
 59 60  1  0  0  0
 60 61  2  0  0  0
 61 62  1  0  0  0
 62 63  2  0  0  0
 63 64  1  0  0  0
 64 65  2  0  0  0
  1 30  1  0  0  0
 30 31  2  0  0  0
 30 32  1  0  0  0
 32 34  1  0  0  0
 34 53  1  0  0  0
 53 54  1  0  0  0
 54 55  1  0  0  0
 54 56  2  0  0  0
 34 35  1  0  0  0
 35 36  2  0  0  0
 35 37  1  0  0  0
 37 39  1  0  0  0
 39 46  1  0  0  0
 46 47  1  0  0  0
 47 48  2  0  0  0
 48 49  1  0  0  0
 49 50  2  0  0  0
 50 51  1  0  0  0
 51 52  2  0  0  0
 39 40  1  0  0  0
 40 41  1  0  0  0
 40 42  2  0  0  0
 21 16  1  0  0  0
 65 60  1  0  0  0
 52 47  1  0  0  0
  7 10  1  0  0  0
 12 15  1  0  0  0
  4  5  1  0  0  0
 32 33  1  0  0  0
 55 57  1  0  0  0
 55 58  1  0  0  0
 37 38  1  0  0  0
 41 43  1  0  0  0
 41 44  1  0  0  0
 42 45  1  0  0  0
M  END
> <minimizedAffinity>
-7.51053

> <CNNscore>
0.3059723079

> <CNNaffinity>
7.4923095703

> <CNN_VS>
2.2924392223

> <CNNaffinity_variance>
0.1356652975

$$$$
[H]N=C(N([H])[H])[C@@]([H])(N([H])C(=O)[C@@]([H])(N([H])C(=O)[C@@]([H])(N([H])C(=O)[C@@]([H])(N([H])C(=O)[C@@]([H])(N([H])C(=O)c1c([H])c([H])c([H])c([H])c1[H])C([H])([H])C([H])(C([H])([H])[H])C([H])([H])[H])C([H])([H])C([H])(C([H])([H])[H])C([H])([H])[H])C([H])([H])c1c([H])c([H])c([H])c([H])c1[H])C([H])([H])C(=O)N([H])[H])C([H])([H])c1c([H])c([H])c([H])c([H])c1[H]


 65 67  0  0  0  0  0  0  0  0999 V2000
   36.6639  -17.8777   36.3462 C   0  0  0  0  0  0  0  0  0  0  0  0
   34.7623  -19.1134   35.2056 C   0  0  0  0  0  0  0  0  0  0  0  0
   35.4418  -19.1010   34.1119 O   0  0  0  0  0  0  0  0  0  0  0  0
   35.3524  -18.5189   36.3391 N   0  0  0  0  0  0  0  0  0  0  0  0
   34.7944  -18.5533   37.2408 H   0  0  0  0  0  0  0  0  0  0  0  0
   33.4512  -19.7474   35.1357 C   0  0  0  0  0  0  0  0  0  0  0  0
   33.5252  -21.0879   35.6481 N   0  0  0  0  0  0  0  0  0  0  0  0
   33.6000  -21.5086   36.9761 C   0  0  0  0  0  0  0  0  0  0  0  0
   33.6404  -20.6043   37.8888 O   0  0  0  0  0  0  0  0  0  0  0  0
   33.5485  -21.8926   34.9275 H   0  0  0  0  0  0  0  0  0  0  0  0
   33.6388  -22.8990   37.4873 C   0  0  0  0  0  0  0  0  0  0  0  0
   32.4284  -23.5720   36.9544 N   0  0  0  0  0  0  0  0  0  0  0  0
   31.1491  -23.4376   37.5046 C   0  0  0  0  0  0  0  0  0  0  0  0
   30.9617  -22.7128   38.5206 O   0  0  0  0  0  0  0  0  0  0  0  0
   32.5457  -24.1994   36.1029 H   0  0  0  0  0  0  0  0  0  0  0  0
   30.0224  -24.1312   36.9161 C   0  0  0  0  0  0  0  0  0  0  0  0
   30.0016  -25.4815   36.6762 C   0  0  0  0  0  0  0  0  0  0  0  0
   28.8915  -26.0590   36.1304 C   0  0  0  0  0  0  0  0  0  0  0  0
   27.7979  -25.3019   35.8205 C   0  0  0  0  0  0  0  0  0  0  0  0
   27.7976  -23.9294   36.0563 C   0  0  0  0  0  0  0  0  0  0  0  0
   28.9154  -23.3650   36.6025 C   0  0  0  0  0  0  0  0  0  0  0  0
   34.7728  -23.7302   37.0055 C   0  0  0  0  0  0  0  0  0  0  0  0
   36.1036  -23.5777   37.6087 C   0  0  0  0  0  0  0  0  0  0  0  0
   36.0838  -23.2559   39.0912 C   0  0  0  0  0  0  0  0  0  0  0  0
   36.8185  -24.9341   37.4740 C   0  0  0  0  0  0  0  0  0  0  0  0
   32.3551  -18.8671   35.5964 C   0  0  0  0  0  0  0  0  0  0  0  0
   30.2106  -20.1448   35.4234 C   0  0  0  0  0  0  0  0  0  0  0  0
   31.0556  -19.0171   34.8436 C   0  0  0  0  0  0  0  0  0  0  0  0
   31.4237  -19.4854   33.4282 C   0  0  0  0  0  0  0  0  0  0  0  0
   37.6855  -18.9555   36.4676 C   0  0  0  0  0  0  0  0  0  0  0  0
   37.5599  -19.9776   37.1813 O   0  0  0  0  0  0  0  0  0  0  0  0
   38.8773  -18.8041   35.7186 N   0  0  0  0  0  0  0  0  0  0  0  0
   39.0468  -17.9839   35.1248 H   0  0  0  0  0  0  0  0  0  0  0  0
   39.9251  -19.8530   35.7825 C   0  0  0  0  0  0  0  0  0  0  0  0
   40.9734  -19.2146   36.5849 C   0  0  0  0  0  0  0  0  0  0  0  0
   40.7271  -19.1407   37.8465 O   0  0  0  0  0  0  0  0  0  0  0  0
   42.1753  -18.6862   36.1566 N   0  0  0  0  0  0  0  0  0  0  0  0
   42.4871  -18.6322   35.1802 H   0  0  0  0  0  0  0  0  0  0  0  0
   43.1356  -18.0934   37.1158 C   0  0  0  0  0  0  0  0  0  0  0  0
   43.6796  -16.8835   36.5020 C   0  0  0  0  0  0  0  0  0  0  0  0
   45.0712  -16.6551   36.3722 N   0  0  0  0  0  0  0  0  0  0  0  0
   42.8968  -15.9693   36.0440 N   0  0  0  0  0  0  0  0  0  0  0  0
   45.5850  -17.0746   35.5808 H   0  0  0  0  0  0  0  0  0  0  0  0
   45.5722  -16.0708   37.0563 H   0  0  0  0  0  0  0  0  0  0  0  0
   41.8731  -16.1116   36.1211 H   0  0  0  0  0  0  0  0  0  0  0  0
   44.1615  -19.1219   37.4583 C   0  0  0  0  0  0  0  0  0  0  0  0
   44.0177  -19.5765   38.8711 C   0  0  0  0  0  0  0  0  0  0  0  0
   43.4334  -18.6929   39.7582 C   0  0  0  0  0  0  0  0  0  0  0  0
   43.2713  -19.0493   41.0756 C   0  0  0  0  0  0  0  0  0  0  0  0
   43.6857  -20.2919   41.5463 C   0  0  0  0  0  0  0  0  0  0  0  0
   44.2619  -21.1547   40.6544 C   0  0  0  0  0  0  0  0  0  0  0  0
   44.4265  -20.8028   39.3333 C   0  0  0  0  0  0  0  0  0  0  0  0
   40.3822  -20.2782   34.4478 C   0  0  0  0  0  0  0  0  0  0  0  0
   40.0751  -19.2619   33.4228 C   0  0  0  0  0  0  0  0  0  0  0  0
   39.0722  -19.5170   32.4317 N   0  0  0  0  0  0  0  0  0  0  0  0
   40.6443  -18.1324   33.3373 O   0  0  0  0  0  0  0  0  0  0  0  0
   38.2322  -18.9000   32.3803 H   0  0  0  0  0  0  0  0  0  0  0  0
   39.2133  -20.3062   31.7993 H   0  0  0  0  0  0  0  0  0  0  0  0
   36.7945  -16.9450   37.4687 C   0  0  0  0  0  0  0  0  0  0  0  0
   36.4559  -15.5426   37.1927 C   0  0  0  0  0  0  0  0  0  0  0  0
   35.2431  -15.2906   36.5889 C   0  0  0  0  0  0  0  0  0  0  0  0
   34.8350  -14.0218   36.2870 C   0  0  0  0  0  0  0  0  0  0  0  0
   35.6395  -12.9601   36.5836 C   0  0  0  0  0  0  0  0  0  0  0  0
   36.8628  -13.1850   37.1907 C   0  0  0  0  0  0  0  0  0  0  0  0
   37.2494  -14.4729   37.4844 C   0  0  0  0  0  0  0  0  0  0  0  0
 27 28  1  0  0  0
 28 29  1  0  0  0
 28 26  1  0  0  0
 26  6  1  0  0  0
  6  7  1  0  0  0
  7  8  1  0  0  0
  8  9  2  0  0  0
  8 11  1  0  0  0
 11 22  1  0  0  0
 22 23  1  0  0  0
 23 24  1  0  0  0
 23 25  1  0  0  0
 11 12  1  0  0  0
 12 13  1  0  0  0
 13 14  2  0  0  0
 13 16  1  0  0  0
 16 17  2  0  0  0
 17 18  1  0  0  0
 18 19  2  0  0  0
 19 20  1  0  0  0
 20 21  2  0  0  0
  6  2  1  0  0  0
  2  3  2  0  0  0
  2  4  1  0  0  0
  4  1  1  0  0  0
  1 59  1  0  0  0
 59 60  1  0  0  0
 60 61  2  0  0  0
 61 62  1  0  0  0
 62 63  2  0  0  0
 63 64  1  0  0  0
 64 65  2  0  0  0
  1 30  1  0  0  0
 30 31  2  0  0  0
 30 32  1  0  0  0
 32 34  1  0  0  0
 34 53  1  0  0  0
 53 54  1  0  0  0
 54 55  1  0  0  0
 54 56  2  0  0  0
 34 35  1  0  0  0
 35 36  2  0  0  0
 35 37  1  0  0  0
 37 39  1  0  0  0
 39 46  1  0  0  0
 46 47  1  0  0  0
 47 48  2  0  0  0
 48 49  1  0  0  0
 49 50  2  0  0  0
 50 51  1  0  0  0
 51 52  2  0  0  0
 39 40  1  0  0  0
 40 41  1  0  0  0
 40 42  2  0  0  0
 21 16  1  0  0  0
 65 60  1  0  0  0
 52 47  1  0  0  0
  7 10  1  0  0  0
 12 15  1  0  0  0
  4  5  1  0  0  0
 32 33  1  0  0  0
 55 57  1  0  0  0
 55 58  1  0  0  0
 37 38  1  0  0  0
 41 43  1  0  0  0
 41 44  1  0  0  0
 42 45  1  0  0  0
M  END
> <minimizedAffinity>
-7.23776

> <CNNscore>
0.2519083917

> <CNNaffinity>
6.8718628883

> <CNN_VS>
1.7310799360

> <CNNaffinity_variance>
0.3804625869

$$$$
[H]N=C(N([H])[H])[C@@]([H])(N([H])C(=O)[C@@]([H])(N([H])C(=O)[C@@]([H])(N([H])C(=O)[C@@]([H])(N([H])C(=O)[C@@]([H])(N([H])C(=O)c1c([H])c([H])c([H])c([H])c1[H])C([H])([H])C([H])(C([H])([H])[H])C([H])([H])[H])C([H])([H])C([H])(C([H])([H])[H])C([H])([H])[H])C([H])([H])c1c([H])c([H])c([H])c([H])c1[H])C([H])([H])C(=O)N([H])[H])C([H])([H])c1c([H])c([H])c([H])c([H])c1[H]


 65 67  0  0  0  0  0  0  0  0999 V2000
   33.8937  -18.2177   34.7072 C   0  0  0  0  0  0  0  0  0  0  0  0
   34.0284  -15.8028   35.4781 C   0  0  0  0  0  0  0  0  0  0  0  0
   33.1650  -15.4912   34.5750 O   0  0  0  0  0  0  0  0  0  0  0  0
   34.4025  -17.1584   35.5732 N   0  0  0  0  0  0  0  0  0  0  0  0
   35.0978  -17.4090   36.3344 H   0  0  0  0  0  0  0  0  0  0  0  0
   34.5184  -14.7026   36.2997 C   0  0  0  0  0  0  0  0  0  0  0  0
   33.5572  -13.6344   36.3154 N   0  0  0  0  0  0  0  0  0  0  0  0
   33.0426  -12.9433   37.4125 C   0  0  0  0  0  0  0  0  0  0  0  0
   33.4347  -13.3019   38.5830 O   0  0  0  0  0  0  0  0  0  0  0  0
   33.1490  -13.3221   35.3650 H   0  0  0  0  0  0  0  0  0  0  0  0
   32.0780  -11.8184   37.4059 C   0  0  0  0  0  0  0  0  0  0  0  0
   31.1223  -12.0836   38.5097 N   0  0  0  0  0  0  0  0  0  0  0  0
   29.7395  -11.8947   38.4132 C   0  0  0  0  0  0  0  0  0  0  0  0
   29.2242  -11.4699   37.3423 O   0  0  0  0  0  0  0  0  0  0  0  0
   31.5181  -12.4349   39.4329 H   0  0  0  0  0  0  0  0  0  0  0  0
   28.8805  -12.1822   39.5430 C   0  0  0  0  0  0  0  0  0  0  0  0
   28.5468  -11.2574   40.4993 C   0  0  0  0  0  0  0  0  0  0  0  0
   27.7181  -11.6081   41.5258 C   0  0  0  0  0  0  0  0  0  0  0  0
   27.2165  -12.8756   41.6092 C   0  0  0  0  0  0  0  0  0  0  0  0
   27.5420  -13.8300   40.6488 C   0  0  0  0  0  0  0  0  0  0  0  0
   28.3727  -13.4651   39.6274 C   0  0  0  0  0  0  0  0  0  0  0  0
   32.6471  -10.4809   37.7158 C   0  0  0  0  0  0  0  0  0  0  0  0
   32.1449   -9.2894   37.0186 C   0  0  0  0  0  0  0  0  0  0  0  0
   31.1157   -8.4957   37.8012 C   0  0  0  0  0  0  0  0  0  0  0  0
   33.3449   -8.3482   36.8112 C   0  0  0  0  0  0  0  0  0  0  0  0
   35.1068  -15.1516   37.5807 C   0  0  0  0  0  0  0  0  0  0  0  0
   36.8605  -13.4318   37.1026 C   0  0  0  0  0  0  0  0  0  0  0  0
   36.5453  -14.7501   37.7988 C   0  0  0  0  0  0  0  0  0  0  0  0
   37.4042  -15.7963   37.0736 C   0  0  0  0  0  0  0  0  0  0  0  0
   32.8057  -18.9149   35.4490 C   0  0  0  0  0  0  0  0  0  0  0  0
   31.8315  -18.3408   35.9887 O   0  0  0  0  0  0  0  0  0  0  0  0
   32.8881  -20.3250   35.5433 N   0  0  0  0  0  0  0  0  0  0  0  0
   33.6673  -20.8536   35.1339 H   0  0  0  0  0  0  0  0  0  0  0  0
   31.8250  -21.0787   36.2532 C   0  0  0  0  0  0  0  0  0  0  0  0
   32.5904  -22.0250   37.0711 C   0  0  0  0  0  0  0  0  0  0  0  0
   32.3450  -21.9785   38.3342 O   0  0  0  0  0  0  0  0  0  0  0  0
   33.5332  -22.9452   36.6570 N   0  0  0  0  0  0  0  0  0  0  0  0
   33.8640  -23.0650   35.6928 H   0  0  0  0  0  0  0  0  0  0  0  0
   34.1993  -23.8467   37.6251 C   0  0  0  0  0  0  0  0  0  0  0  0
   35.6010  -23.4409   37.7107 C   0  0  0  0  0  0  0  0  0  0  0  0
   36.2152  -23.0776   38.9339 N   0  0  0  0  0  0  0  0  0  0  0  0
   36.3409  -23.4052   36.6573 N   0  0  0  0  0  0  0  0  0  0  0  0
   36.5739  -23.8140   39.5627 H   0  0  0  0  0  0  0  0  0  0  0  0
   36.3115  -22.0869   39.1979 H   0  0  0  0  0  0  0  0  0  0  0  0
   35.9192  -23.6705   35.7485 H   0  0  0  0  0  0  0  0  0  0  0  0
   33.9951  -25.2566   37.1801 C   0  0  0  0  0  0  0  0  0  0  0  0
   32.5569  -25.5284   36.8951 C   0  0  0  0  0  0  0  0  0  0  0  0
   32.2172  -25.7976   35.5832 C   0  0  0  0  0  0  0  0  0  0  0  0
   30.9086  -26.0562   35.2521 C   0  0  0  0  0  0  0  0  0  0  0  0
   29.9036  -26.0537   36.2151 C   0  0  0  0  0  0  0  0  0  0  0  0
   30.2576  -25.7857   37.5092 C   0  0  0  0  0  0  0  0  0  0  0  0
   31.5672  -25.5260   37.8464 C   0  0  0  0  0  0  0  0  0  0  0  0
   30.8797  -21.7297   35.3292 C   0  0  0  0  0  0  0  0  0  0  0  0
   29.4814  -21.5229   35.7530 C   0  0  0  0  0  0  0  0  0  0  0  0
   28.4695  -22.4696   35.3883 N   0  0  0  0  0  0  0  0  0  0  0  0
   29.0773  -20.5388   36.4425 O   0  0  0  0  0  0  0  0  0  0  0  0
   27.9500  -22.9798   36.1358 H   0  0  0  0  0  0  0  0  0  0  0  0
   28.2874  -22.6173   34.3944 H   0  0  0  0  0  0  0  0  0  0  0  0
   34.9477  -19.1751   34.3616 C   0  0  0  0  0  0  0  0  0  0  0  0
   36.1122  -19.2125   35.2558 C   0  0  0  0  0  0  0  0  0  0  0  0
   37.3233  -18.8097   34.7360 C   0  0  0  0  0  0  0  0  0  0  0  0
   38.4673  -18.8096   35.4836 C   0  0  0  0  0  0  0  0  0  0  0  0
   38.4292  -19.2185   36.7851 C   0  0  0  0  0  0  0  0  0  0  0  0
   37.2256  -19.6277   37.3323 C   0  0  0  0  0  0  0  0  0  0  0  0
   36.0881  -19.6175   36.5574 C   0  0  0  0  0  0  0  0  0  0  0  0
 27 28  1  0  0  0
 28 29  1  0  0  0
 28 26  1  0  0  0
 26  6  1  0  0  0
  6  7  1  0  0  0
  7  8  1  0  0  0
  8  9  2  0  0  0
  8 11  1  0  0  0
 11 22  1  0  0  0
 22 23  1  0  0  0
 23 24  1  0  0  0
 23 25  1  0  0  0
 11 12  1  0  0  0
 12 13  1  0  0  0
 13 14  2  0  0  0
 13 16  1  0  0  0
 16 17  2  0  0  0
 17 18  1  0  0  0
 18 19  2  0  0  0
 19 20  1  0  0  0
 20 21  2  0  0  0
  6  2  1  0  0  0
  2  3  2  0  0  0
  2  4  1  0  0  0
  4  1  1  0  0  0
  1 59  1  0  0  0
 59 60  1  0  0  0
 60 61  2  0  0  0
 61 62  1  0  0  0
 62 63  2  0  0  0
 63 64  1  0  0  0
 64 65  2  0  0  0
  1 30  1  0  0  0
 30 31  2  0  0  0
 30 32  1  0  0  0
 32 34  1  0  0  0
 34 53  1  0  0  0
 53 54  1  0  0  0
 54 55  1  0  0  0
 54 56  2  0  0  0
 34 35  1  0  0  0
 35 36  2  0  0  0
 35 37  1  0  0  0
 37 39  1  0  0  0
 39 46  1  0  0  0
 46 47  1  0  0  0
 47 48  2  0  0  0
 48 49  1  0  0  0
 49 50  2  0  0  0
 50 51  1  0  0  0
 51 52  2  0  0  0
 39 40  1  0  0  0
 40 41  1  0  0  0
 40 42  2  0  0  0
 21 16  1  0  0  0
 65 60  1  0  0  0
 52 47  1  0  0  0
  7 10  1  0  0  0
 12 15  1  0  0  0
  4  5  1  0  0  0
 32 33  1  0  0  0
 55 57  1  0  0  0
 55 58  1  0  0  0
 37 38  1  0  0  0
 41 43  1  0  0  0
 41 44  1  0  0  0
 42 45  1  0  0  0
M  END
> <minimizedAffinity>
-7.25142

> <CNNscore>
0.2482791245

> <CNNaffinity>
7.1002335548

> <CNN_VS>
1.7628397942

> <CNNaffinity_variance>
0.0905365646

$$$$
[H]N=C(N([H])[H])[C@@]([H])(N([H])C(=O)[C@@]([H])(N([H])C(=O)[C@@]([H])(N([H])C(=O)[C@@]([H])(N([H])C(=O)[C@@]([H])(N([H])C(=O)c1c([H])c([H])c([H])c([H])c1[H])C([H])([H])C([H])(C([H])([H])[H])C([H])([H])[H])C([H])([H])C([H])(C([H])([H])[H])C([H])([H])[H])C([H])([H])c1c([H])c([H])c([H])c([H])c1[H])C([H])([H])C(=O)N([H])[H])C([H])([H])c1c([H])c([H])c([H])c([H])c1[H]


 65 67  0  0  0  0  0  0  0  0999 V2000
   34.3175  -19.6985   37.5323 C   0  0  0  0  0  0  0  0  0  0  0  0
   35.5180  -17.5827   36.8070 C   0  0  0  0  0  0  0  0  0  0  0  0
   34.3956  -17.1221   36.3756 O   0  0  0  0  0  0  0  0  0  0  0  0
   35.5064  -18.8620   37.3983 N   0  0  0  0  0  0  0  0  0  0  0  0
   36.4317  -19.2239   37.7705 H   0  0  0  0  0  0  0  0  0  0  0  0
   36.6757  -16.7145   36.6281 C   0  0  0  0  0  0  0  0  0  0  0  0
   37.7707  -17.4629   36.0748 N   0  0  0  0  0  0  0  0  0  0  0  0
   37.7811  -18.2848   34.9477 C   0  0  0  0  0  0  0  0  0  0  0  0
   36.6752  -18.4414   34.3112 O   0  0  0  0  0  0  0  0  0  0  0  0
   38.7162  -17.4147   36.5955 H   0  0  0  0  0  0  0  0  0  0  0  0
   38.9310  -19.0204   34.3709 C   0  0  0  0  0  0  0  0  0  0  0  0
   40.0546  -18.8500   35.3251 N   0  0  0  0  0  0  0  0  0  0  0  0
   40.0411  -19.3142   36.6447 C   0  0  0  0  0  0  0  0  0  0  0  0
   39.0314  -19.9185   37.1009 O   0  0  0  0  0  0  0  0  0  0  0  0
   40.9217  -18.3376   34.9816 H   0  0  0  0  0  0  0  0  0  0  0  0
   41.1860  -19.1049   37.5064 C   0  0  0  0  0  0  0  0  0  0  0  0
   41.2989  -19.6399   38.7642 C   0  0  0  0  0  0  0  0  0  0  0  0
   42.4203  -19.4044   39.5061 C   0  0  0  0  0  0  0  0  0  0  0  0
   43.4343  -18.6386   39.0052 C   0  0  0  0  0  0  0  0  0  0  0  0
   43.3405  -18.0863   37.7303 C   0  0  0  0  0  0  0  0  0  0  0  0
   42.2122  -18.3300   36.9994 C   0  0  0  0  0  0  0  0  0  0  0  0
   38.7594  -20.4919   34.2524 C   0  0  0  0  0  0  0  0  0  0  0  0
   39.9370  -21.3700   34.2386 C   0  0  0  0  0  0  0  0  0  0  0  0
   39.6118  -22.8490   34.1476 C   0  0  0  0  0  0  0  0  0  0  0  0
   40.7398  -21.0288   32.9705 C   0  0  0  0  0  0  0  0  0  0  0  0
   36.3328  -15.4050   36.0313 C   0  0  0  0  0  0  0  0  0  0  0  0
   35.4489  -13.0891   36.3730 C   0  0  0  0  0  0  0  0  0  0  0  0
   36.1405  -14.2822   37.0213 C   0  0  0  0  0  0  0  0  0  0  0  0
   37.5443  -13.7768   37.3848 C   0  0  0  0  0  0  0  0  0  0  0  0
   34.6312  -20.7614   38.5282 C   0  0  0  0  0  0  0  0  0  0  0  0
   33.9991  -20.9466   39.5941 O   0  0  0  0  0  0  0  0  0  0  0  0
   35.7211  -21.6173   38.2387 N   0  0  0  0  0  0  0  0  0  0  0  0
   36.2868  -21.5102   37.3887 H   0  0  0  0  0  0  0  0  0  0  0  0
   36.0717  -22.7076   39.1825 C   0  0  0  0  0  0  0  0  0  0  0  0
   37.4898  -22.4547   39.4566 C   0  0  0  0  0  0  0  0  0  0  0  0
   37.7950  -21.2210   39.6630 O   0  0  0  0  0  0  0  0  0  0  0  0
   38.5251  -23.3668   39.5153 N   0  0  0  0  0  0  0  0  0  0  0  0
   38.4430  -24.3728   39.3285 H   0  0  0  0  0  0  0  0  0  0  0  0
   39.9070  -22.9365   39.8297 C   0  0  0  0  0  0  0  0  0  0  0  0
   40.8099  -23.6877   38.9594 C   0  0  0  0  0  0  0  0  0  0  0  0
   42.1013  -23.2191   38.6157 N   0  0  0  0  0  0  0  0  0  0  0  0
   40.4571  -24.8259   38.4712 N   0  0  0  0  0  0  0  0  0  0  0  0
   42.8884  -23.3704   39.2668 H   0  0  0  0  0  0  0  0  0  0  0  0
   42.2620  -22.7347   37.7214 H   0  0  0  0  0  0  0  0  0  0  0  0
   39.5188  -25.1961   38.7096 H   0  0  0  0  0  0  0  0  0  0  0  0
   40.1488  -23.1421   41.2881 C   0  0  0  0  0  0  0  0  0  0  0  0
   40.7237  -21.9181   41.9164 C   0  0  0  0  0  0  0  0  0  0  0  0
   42.0511  -21.9721   42.2959 C   0  0  0  0  0  0  0  0  0  0  0  0
   42.6427  -20.8784   42.8814 C   0  0  0  0  0  0  0  0  0  0  0  0
   41.9314  -19.7032   43.1057 C   0  0  0  0  0  0  0  0  0  0  0  0
   40.6182  -19.6669   42.7234 C   0  0  0  0  0  0  0  0  0  0  0  0
   40.0205  -20.7597   42.1362 C   0  0  0  0  0  0  0  0  0  0  0  0
   35.8096  -24.0456   38.6237 C   0  0  0  0  0  0  0  0  0  0  0  0
   35.5884  -23.9880   37.1657 C   0  0  0  0  0  0  0  0  0  0  0  0
   36.6824  -24.1858   36.2617 N   0  0  0  0  0  0  0  0  0  0  0  0
   34.4666  -23.7702   36.6170 O   0  0  0  0  0  0  0  0  0  0  0  0
   36.6565  -24.9847   35.5909 H   0  0  0  0  0  0  0  0  0  0  0  0
   37.4638  -23.5298   36.3043 H   0  0  0  0  0  0  0  0  0  0  0  0
   33.9517  -20.3127   36.2533 C   0  0  0  0  0  0  0  0  0  0  0  0
   32.5181  -20.3525   35.9364 C   0  0  0  0  0  0  0  0  0  0  0  0
   31.9969  -19.2938   35.2246 C   0  0  0  0  0  0  0  0  0  0  0  0
   30.6754  -19.2332   34.8818 C   0  0  0  0  0  0  0  0  0  0  0  0
   29.8311  -20.2410   35.2476 C   0  0  0  0  0  0  0  0  0  0  0  0
   30.3286  -21.3165   35.9627 C   0  0  0  0  0  0  0  0  0  0  0  0
   31.6639  -21.3529   36.2946 C   0  0  0  0  0  0  0  0  0  0  0  0
 27 28  1  0  0  0
 28 29  1  0  0  0
 28 26  1  0  0  0
 26  6  1  0  0  0
  6  7  1  0  0  0
  7  8  1  0  0  0
  8  9  2  0  0  0
  8 11  1  0  0  0
 11 22  1  0  0  0
 22 23  1  0  0  0
 23 24  1  0  0  0
 23 25  1  0  0  0
 11 12  1  0  0  0
 12 13  1  0  0  0
 13 14  2  0  0  0
 13 16  1  0  0  0
 16 17  2  0  0  0
 17 18  1  0  0  0
 18 19  2  0  0  0
 19 20  1  0  0  0
 20 21  2  0  0  0
  6  2  1  0  0  0
  2  3  2  0  0  0
  2  4  1  0  0  0
  4  1  1  0  0  0
  1 59  1  0  0  0
 59 60  1  0  0  0
 60 61  2  0  0  0
 61 62  1  0  0  0
 62 63  2  0  0  0
 63 64  1  0  0  0
 64 65  2  0  0  0
  1 30  1  0  0  0
 30 31  2  0  0  0
 30 32  1  0  0  0
 32 34  1  0  0  0
 34 53  1  0  0  0
 53 54  1  0  0  0
 54 55  1  0  0  0
 54 56  2  0  0  0
 34 35  1  0  0  0
 35 36  2  0  0  0
 35 37  1  0  0  0
 37 39  1  0  0  0
 39 46  1  0  0  0
 46 47  1  0  0  0
 47 48  2  0  0  0
 48 49  1  0  0  0
 49 50  2  0  0  0
 50 51  1  0  0  0
 51 52  2  0  0  0
 39 40  1  0  0  0
 40 41  1  0  0  0
 40 42  2  0  0  0
 21 16  1  0  0  0
 65 60  1  0  0  0
 52 47  1  0  0  0
  7 10  1  0  0  0
 12 15  1  0  0  0
  4  5  1  0  0  0
 32 33  1  0  0  0
 55 57  1  0  0  0
 55 58  1  0  0  0
 37 38  1  0  0  0
 41 43  1  0  0  0
 41 44  1  0  0  0
 42 45  1  0  0  0
M  END
> <minimizedAffinity>
-6.20986

> <CNNscore>
0.2386670411

> <CNNaffinity>
6.5513410568

> <CNN_VS>
1.5635892153

> <CNNaffinity_variance>
0.6539927721

$$$$
[H]N=C(N([H])[H])[C@@]([H])(N([H])C(=O)[C@@]([H])(N([H])C(=O)[C@@]([H])(N([H])C(=O)[C@@]([H])(N([H])C(=O)[C@@]([H])(N([H])C(=O)c1c([H])c([H])c([H])c([H])c1[H])C([H])([H])C([H])(C([H])([H])[H])C([H])([H])[H])C([H])([H])C([H])(C([H])([H])[H])C([H])([H])[H])C([H])([H])c1c([H])c([H])c([H])c([H])c1[H])C([H])([H])C(=O)N([H])[H])C([H])([H])c1c([H])c([H])c([H])c([H])c1[H]


 65 67  0  0  0  0  0  0  0  0999 V2000
   33.6409  -18.2217   34.6593 C   0  0  0  0  0  0  0  0  0  0  0  0
   33.7280  -15.7779   35.3408 C   0  0  0  0  0  0  0  0  0  0  0  0
   32.9480  -15.4997   34.3548 O   0  0  0  0  0  0  0  0  0  0  0  0
   34.0819  -17.1301   35.5224 N   0  0  0  0  0  0  0  0  0  0  0  0
   34.7070  -17.3524   36.3503 H   0  0  0  0  0  0  0  0  0  0  0  0
   34.1544  -14.6471   36.1565 C   0  0  0  0  0  0  0  0  0  0  0  0
   33.1021  -13.6715   36.2330 N   0  0  0  0  0  0  0  0  0  0  0  0
   32.6538  -12.9610   37.3468 C   0  0  0  0  0  0  0  0  0  0  0  0
   33.2126  -13.2073   38.4781 O   0  0  0  0  0  0  0  0  0  0  0  0
   32.5576  -13.4586   35.3244 H   0  0  0  0  0  0  0  0  0  0  0  0
   31.5900  -11.9307   37.3987 C   0  0  0  0  0  0  0  0  0  0  0  0
   30.6399  -12.3666   38.4520 N   0  0  0  0  0  0  0  0  0  0  0  0
   29.2539  -12.1902   38.3808 C   0  0  0  0  0  0  0  0  0  0  0  0
   28.7305  -11.6267   37.3801 O   0  0  0  0  0  0  0  0  0  0  0  0
   31.0425  -12.8385   39.3167 H   0  0  0  0  0  0  0  0  0  0  0  0
   28.4009  -12.6502   39.4568 C   0  0  0  0  0  0  0  0  0  0  0  0
   28.1429  -13.9732   39.7100 C   0  0  0  0  0  0  0  0  0  0  0  0
   27.3371  -14.3217   40.7554 C   0  0  0  0  0  0  0  0  0  0  0  0
   26.7842  -13.3618   41.5542 C   0  0  0  0  0  0  0  0  0  0  0  0
   27.0335  -12.0127   41.3152 C   0  0  0  0  0  0  0  0  0  0  0  0
   27.8414  -11.6785   40.2653 C   0  0  0  0  0  0  0  0  0  0  0  0
   32.0269  -10.5757   37.8252 C   0  0  0  0  0  0  0  0  0  0  0  0
   31.3857   -9.3836   37.2544 C   0  0  0  0  0  0  0  0  0  0  0  0
   30.3736   -8.7206   38.1696 C   0  0  0  0  0  0  0  0  0  0  0  0
   32.4954   -8.3437   37.0176 C   0  0  0  0  0  0  0  0  0  0  0  0
   34.8406  -15.0555   37.4019 C   0  0  0  0  0  0  0  0  0  0  0  0
   36.4330  -13.2860   36.6306 C   0  0  0  0  0  0  0  0  0  0  0  0
   36.1807  -14.4022   37.6368 C   0  0  0  0  0  0  0  0  0  0  0  0
   37.2441  -15.4651   37.3243 C   0  0  0  0  0  0  0  0  0  0  0  0
   32.8049  -19.1347   35.4884 C   0  0  0  0  0  0  0  0  0  0  0  0
   32.9450  -19.3038   36.7220 O   0  0  0  0  0  0  0  0  0  0  0  0
   31.7826  -19.8557   34.8255 N   0  0  0  0  0  0  0  0  0  0  0  0
   31.6245  -19.7714   33.8146 H   0  0  0  0  0  0  0  0  0  0  0  0
   30.9039  -20.7670   35.5999 C   0  0  0  0  0  0  0  0  0  0  0  0
   31.5357  -22.0748   35.3979 C   0  0  0  0  0  0  0  0  0  0  0  0
   32.1504  -22.2172   34.2756 O   0  0  0  0  0  0  0  0  0  0  0  0
   31.5477  -23.1596   36.2525 N   0  0  0  0  0  0  0  0  0  0  0  0
   31.0647  -23.2098   37.1568 H   0  0  0  0  0  0  0  0  0  0  0  0
   32.2606  -24.4076   35.8948 C   0  0  0  0  0  0  0  0  0  0  0  0
   31.3450  -25.2243   35.1002 C   0  0  0  0  0  0  0  0  0  0  0  0
   29.9709  -25.3546   35.4168 N   0  0  0  0  0  0  0  0  0  0  0  0
   31.7637  -25.8606   34.0618 N   0  0  0  0  0  0  0  0  0  0  0  0
   29.3059  -24.6265   35.1102 H   0  0  0  0  0  0  0  0  0  0  0  0
   29.6298  -26.1706   35.9443 H   0  0  0  0  0  0  0  0  0  0  0  0
   32.7641  -25.7799   33.8033 H   0  0  0  0  0  0  0  0  0  0  0  0
   32.7335  -25.0615   37.1503 C   0  0  0  0  0  0  0  0  0  0  0  0
   34.1669  -24.7470   37.4144 C   0  0  0  0  0  0  0  0  0  0  0  0
   34.9014  -25.6954   38.1001 C   0  0  0  0  0  0  0  0  0  0  0  0
   36.2282  -25.4680   38.3766 C   0  0  0  0  0  0  0  0  0  0  0  0
   36.8599  -24.2928   37.9800 C   0  0  0  0  0  0  0  0  0  0  0  0
   36.1180  -23.3647   37.3017 C   0  0  0  0  0  0  0  0  0  0  0  0
   34.7883  -23.5875   37.0218 C   0  0  0  0  0  0  0  0  0  0  0  0
   29.5009  -20.7157   35.1524 C   0  0  0  0  0  0  0  0  0  0  0  0
   28.6413  -21.5946   35.9687 C   0  0  0  0  0  0  0  0  0  0  0  0
   28.1062  -21.1269   37.2129 N   0  0  0  0  0  0  0  0  0  0  0  0
   28.3189  -22.7793   35.6531 O   0  0  0  0  0  0  0  0  0  0  0  0
   27.0719  -21.0668   37.3372 H   0  0  0  0  0  0  0  0  0  0  0  0
   28.7637  -20.8627   37.9482 H   0  0  0  0  0  0  0  0  0  0  0  0
   34.7812  -18.9595   34.1094 C   0  0  0  0  0  0  0  0  0  0  0  0
   36.0129  -18.9454   34.9094 C   0  0  0  0  0  0  0  0  0  0  0  0
   36.0404  -19.7271   36.0440 C   0  0  0  0  0  0  0  0  0  0  0  0
   37.1366  -19.7822   36.8582 C   0  0  0  0  0  0  0  0  0  0  0  0
   38.2460  -19.0472   36.5556 C   0  0  0  0  0  0  0  0  0  0  0  0
   38.2453  -18.2539   35.4215 C   0  0  0  0  0  0  0  0  0  0  0  0
   37.1281  -18.2170   34.6184 C   0  0  0  0  0  0  0  0  0  0  0  0
 27 28  1  0  0  0
 28 29  1  0  0  0
 28 26  1  0  0  0
 26  6  1  0  0  0
  6  7  1  0  0  0
  7  8  1  0  0  0
  8  9  2  0  0  0
  8 11  1  0  0  0
 11 22  1  0  0  0
 22 23  1  0  0  0
 23 24  1  0  0  0
 23 25  1  0  0  0
 11 12  1  0  0  0
 12 13  1  0  0  0
 13 14  2  0  0  0
 13 16  1  0  0  0
 16 17  2  0  0  0
 17 18  1  0  0  0
 18 19  2  0  0  0
 19 20  1  0  0  0
 20 21  2  0  0  0
  6  2  1  0  0  0
  2  3  2  0  0  0
  2  4  1  0  0  0
  4  1  1  0  0  0
  1 59  1  0  0  0
 59 60  1  0  0  0
 60 61  2  0  0  0
 61 62  1  0  0  0
 62 63  2  0  0  0
 63 64  1  0  0  0
 64 65  2  0  0  0
  1 30  1  0  0  0
 30 31  2  0  0  0
 30 32  1  0  0  0
 32 34  1  0  0  0
 34 53  1  0  0  0
 53 54  1  0  0  0
 54 55  1  0  0  0
 54 56  2  0  0  0
 34 35  1  0  0  0
 35 36  2  0  0  0
 35 37  1  0  0  0
 37 39  1  0  0  0
 39 46  1  0  0  0
 46 47  1  0  0  0
 47 48  2  0  0  0
 48 49  1  0  0  0
 49 50  2  0  0  0
 50 51  1  0  0  0
 51 52  2  0  0  0
 39 40  1  0  0  0
 40 41  1  0  0  0
 40 42  2  0  0  0
 21 16  1  0  0  0
 65 60  1  0  0  0
 52 47  1  0  0  0
  7 10  1  0  0  0
 12 15  1  0  0  0
  4  5  1  0  0  0
 32 33  1  0  0  0
 55 57  1  0  0  0
 55 58  1  0  0  0
 37 38  1  0  0  0
 41 43  1  0  0  0
 41 44  1  0  0  0
 42 45  1  0  0  0
M  END
> <minimizedAffinity>
-6.98577

> <CNNscore>
0.2355248928

> <CNNaffinity>
6.9804778099

> <CNN_VS>
1.6440763474

> <CNNaffinity_variance>
0.1444869787

$$$$
[H]N=C(N([H])[H])[C@@]([H])(N([H])C(=O)[C@@]([H])(N([H])C(=O)[C@@]([H])(N([H])C(=O)[C@@]([H])(N([H])C(=O)[C@@]([H])(N([H])C(=O)c1c([H])c([H])c([H])c([H])c1[H])C([H])([H])C([H])(C([H])([H])[H])C([H])([H])[H])C([H])([H])C([H])(C([H])([H])[H])C([H])([H])[H])C([H])([H])c1c([H])c([H])c([H])c([H])c1[H])C([H])([H])C(=O)N([H])[H])C([H])([H])c1c([H])c([H])c([H])c([H])c1[H]


 65 67  0  0  0  0  0  0  0  0999 V2000
   33.2531  -18.1759   34.7336 C   0  0  0  0  0  0  0  0  0  0  0  0
   33.7782  -15.8502   35.6052 C   0  0  0  0  0  0  0  0  0  0  0  0
   32.9989  -15.3623   34.7037 O   0  0  0  0  0  0  0  0  0  0  0  0
   33.9157  -17.2523   35.6496 N   0  0  0  0  0  0  0  0  0  0  0  0
   34.5426  -17.6462   36.4094 H   0  0  0  0  0  0  0  0  0  0  0  0
   34.4301  -14.8814   36.4782 C   0  0  0  0  0  0  0  0  0  0  0  0
   33.4904  -13.8713   36.8803 N   0  0  0  0  0  0  0  0  0  0  0  0
   33.7202  -12.5172   37.1245 C   0  0  0  0  0  0  0  0  0  0  0  0
   34.9260  -12.0856   37.0142 O   0  0  0  0  0  0  0  0  0  0  0  0
   32.4683  -14.1823   37.0413 H   0  0  0  0  0  0  0  0  0  0  0  0
   32.7298  -11.4821   37.5034 C   0  0  0  0  0  0  0  0  0  0  0  0
   31.9009  -12.0746   38.5823 N   0  0  0  0  0  0  0  0  0  0  0  0
   30.5259  -12.3098   38.4765 C   0  0  0  0  0  0  0  0  0  0  0  0
   29.9048  -12.0130   37.4188 O   0  0  0  0  0  0  0  0  0  0  0  0
   32.3858  -12.3311   39.4942 H   0  0  0  0  0  0  0  0  0  0  0  0
   29.7960  -12.8955   39.5816 C   0  0  0  0  0  0  0  0  0  0  0  0
   28.4738  -13.2537   39.5149 C   0  0  0  0  0  0  0  0  0  0  0  0
   27.8646  -13.8138   40.6006 C   0  0  0  0  0  0  0  0  0  0  0  0
   28.5623  -14.0217   41.7561 C   0  0  0  0  0  0  0  0  0  0  0  0
   29.9057  -13.6659   41.8453 C   0  0  0  0  0  0  0  0  0  0  0  0
   30.5023  -13.1060   40.7511 C   0  0  0  0  0  0  0  0  0  0  0  0
   33.2914  -10.2421   38.1000 C   0  0  0  0  0  0  0  0  0  0  0  0
   33.0228   -8.9397   37.4758 C   0  0  0  0  0  0  0  0  0  0  0  0
   34.0304   -8.5358   36.4159 C   0  0  0  0  0  0  0  0  0  0  0  0
   31.6669   -9.0547   36.7566 C   0  0  0  0  0  0  0  0  0  0  0  0
   35.2850  -15.5111   37.5084 C   0  0  0  0  0  0  0  0  0  0  0  0
   37.4171  -14.3083   38.0275 C   0  0  0  0  0  0  0  0  0  0  0  0
   36.7683  -15.4395   37.2390 C   0  0  0  0  0  0  0  0  0  0  0  0
   36.9245  -15.0357   35.7657 C   0  0  0  0  0  0  0  0  0  0  0  0
   32.3492  -19.0371   35.5467 C   0  0  0  0  0  0  0  0  0  0  0  0
   31.1841  -18.7249   35.8858 O   0  0  0  0  0  0  0  0  0  0  0  0
   32.8520  -20.2949   35.9583 N   0  0  0  0  0  0  0  0  0  0  0  0
   33.8025  -20.6045   35.7241 H   0  0  0  0  0  0  0  0  0  0  0  0
   31.9930  -21.2063   36.7544 C   0  0  0  0  0  0  0  0  0  0  0  0
   32.8282  -21.4990   37.9236 C   0  0  0  0  0  0  0  0  0  0  0  0
   33.8157  -20.6930   38.1052 O   0  0  0  0  0  0  0  0  0  0  0  0
   32.6884  -22.5233   38.8393 N   0  0  0  0  0  0  0  0  0  0  0  0
   31.9803  -23.2652   38.7984 H   0  0  0  0  0  0  0  0  0  0  0  0
   33.6183  -22.6582   39.9842 C   0  0  0  0  0  0  0  0  0  0  0  0
   34.3165  -23.9338   39.8352 C   0  0  0  0  0  0  0  0  0  0  0  0
   33.7160  -25.1734   40.1640 N   0  0  0  0  0  0  0  0  0  0  0  0
   35.5225  -23.9747   39.3855 N   0  0  0  0  0  0  0  0  0  0  0  0
   33.0947  -25.6359   39.4811 H   0  0  0  0  0  0  0  0  0  0  0  0
   33.8982  -25.6187   41.0744 H   0  0  0  0  0  0  0  0  0  0  0  0
   35.9857  -23.0829   39.1323 H   0  0  0  0  0  0  0  0  0  0  0  0
   32.8364  -22.5311   41.2491 C   0  0  0  0  0  0  0  0  0  0  0  0
   33.2700  -21.3390   42.0329 C   0  0  0  0  0  0  0  0  0  0  0  0
   34.2297  -20.5267   41.4601 C   0  0  0  0  0  0  0  0  0  0  0  0
   34.6739  -19.4118   42.1298 C   0  0  0  0  0  0  0  0  0  0  0  0
   34.1772  -19.0751   43.3857 C   0  0  0  0  0  0  0  0  0  0  0  0
   33.2271  -19.8902   43.9380 C   0  0  0  0  0  0  0  0  0  0  0  0
   32.7783  -21.0083   43.2713 C   0  0  0  0  0  0  0  0  0  0  0  0
   31.5926  -22.4079   36.0014 C   0  0  0  0  0  0  0  0  0  0  0  0
   30.1285  -22.5922   36.0173 C   0  0  0  0  0  0  0  0  0  0  0  0
   29.5071  -23.5104   35.1097 N   0  0  0  0  0  0  0  0  0  0  0  0
   29.3360  -21.9841   36.7978 O   0  0  0  0  0  0  0  0  0  0  0  0
   28.9731  -24.3236   35.4870 H   0  0  0  0  0  0  0  0  0  0  0  0
   29.6090  -23.3374   34.1084 H   0  0  0  0  0  0  0  0  0  0  0  0
   34.2255  -19.0118   34.0245 C   0  0  0  0  0  0  0  0  0  0  0  0
   35.6343  -18.8317   34.3987 C   0  0  0  0  0  0  0  0  0  0  0  0
   36.0380  -19.3444   35.6125 C   0  0  0  0  0  0  0  0  0  0  0  0
   37.3257  -19.2276   36.0549 C   0  0  0  0  0  0  0  0  0  0  0  0
   38.2534  -18.5864   35.2862 C   0  0  0  0  0  0  0  0  0  0  0  0
   37.8747  -18.0625   34.0624 C   0  0  0  0  0  0  0  0  0  0  0  0
   36.5712  -18.1945   33.6404 C   0  0  0  0  0  0  0  0  0  0  0  0
 27 28  1  0  0  0
 28 29  1  0  0  0
 28 26  1  0  0  0
 26  6  1  0  0  0
  6  7  1  0  0  0
  7  8  1  0  0  0
  8  9  2  0  0  0
  8 11  1  0  0  0
 11 22  1  0  0  0
 22 23  1  0  0  0
 23 24  1  0  0  0
 23 25  1  0  0  0
 11 12  1  0  0  0
 12 13  1  0  0  0
 13 14  2  0  0  0
 13 16  1  0  0  0
 16 17  2  0  0  0
 17 18  1  0  0  0
 18 19  2  0  0  0
 19 20  1  0  0  0
 20 21  2  0  0  0
  6  2  1  0  0  0
  2  3  2  0  0  0
  2  4  1  0  0  0
  4  1  1  0  0  0
  1 59  1  0  0  0
 59 60  1  0  0  0
 60 61  2  0  0  0
 61 62  1  0  0  0
 62 63  2  0  0  0
 63 64  1  0  0  0
 64 65  2  0  0  0
  1 30  1  0  0  0
 30 31  2  0  0  0
 30 32  1  0  0  0
 32 34  1  0  0  0
 34 53  1  0  0  0
 53 54  1  0  0  0
 54 55  1  0  0  0
 54 56  2  0  0  0
 34 35  1  0  0  0
 35 36  2  0  0  0
 35 37  1  0  0  0
 37 39  1  0  0  0
 39 46  1  0  0  0
 46 47  1  0  0  0
 47 48  2  0  0  0
 48 49  1  0  0  0
 49 50  2  0  0  0
 50 51  1  0  0  0
 51 52  2  0  0  0
 39 40  1  0  0  0
 40 41  1  0  0  0
 40 42  2  0  0  0
 21 16  1  0  0  0
 65 60  1  0  0  0
 52 47  1  0  0  0
  7 10  1  0  0  0
 12 15  1  0  0  0
  4  5  1  0  0  0
 32 33  1  0  0  0
 55 57  1  0  0  0
 55 58  1  0  0  0
 37 38  1  0  0  0
 41 43  1  0  0  0
 41 44  1  0  0  0
 42 45  1  0  0  0
M  END
> <minimizedAffinity>
-6.98495

> <CNNscore>
0.1746167243

> <CNNaffinity>
6.9365930557

> <CNN_VS>
1.2112451792

> <CNNaffinity_variance>
0.2759394050

$$$$
[H]N=C(N([H])[H])[C@@]([H])(N([H])C(=O)[C@@]([H])(N([H])C(=O)[C@@]([H])(N([H])C(=O)[C@@]([H])(N([H])C(=O)[C@@]([H])(N([H])C(=O)c1c([H])c([H])c([H])c([H])c1[H])C([H])([H])C([H])(C([H])([H])[H])C([H])([H])[H])C([H])([H])C([H])(C([H])([H])[H])C([H])([H])[H])C([H])([H])c1c([H])c([H])c([H])c([H])c1[H])C([H])([H])C(=O)N([H])[H])C([H])([H])c1c([H])c([H])c([H])c([H])c1[H]


 65 67  0  0  0  0  0  0  0  0999 V2000
   35.9853  -19.2645   35.9969 C   0  0  0  0  0  0  0  0  0  0  0  0
   33.8384  -20.1666   34.9864 C   0  0  0  0  0  0  0  0  0  0  0  0
   33.8429  -19.1817   34.1570 O   0  0  0  0  0  0  0  0  0  0  0  0
   34.9014  -20.2384   35.9092 N   0  0  0  0  0  0  0  0  0  0  0  0
   34.9009  -21.0653   36.5739 H   0  0  0  0  0  0  0  0  0  0  0  0
   32.7215  -21.0963   34.8678 C   0  0  0  0  0  0  0  0  0  0  0  0
   32.6507  -21.9314   36.0352 N   0  0  0  0  0  0  0  0  0  0  0  0
   32.2541  -23.2657   36.1275 C   0  0  0  0  0  0  0  0  0  0  0  0
   31.8651  -23.8500   35.0505 O   0  0  0  0  0  0  0  0  0  0  0  0
   32.9148  -21.4822   36.9817 H   0  0  0  0  0  0  0  0  0  0  0  0
   32.2225  -24.1220   37.3365 C   0  0  0  0  0  0  0  0  0  0  0  0
   30.7938  -24.4341   37.5879 N   0  0  0  0  0  0  0  0  0  0  0  0
   29.9055  -23.5735   38.2417 C   0  0  0  0  0  0  0  0  0  0  0  0
   30.2966  -22.4515   38.6669 O   0  0  0  0  0  0  0  0  0  0  0  0
   30.4266  -25.3749   37.2523 H   0  0  0  0  0  0  0  0  0  0  0  0
   28.5245  -23.9606   38.4417 C   0  0  0  0  0  0  0  0  0  0  0  0
   28.0521  -25.2304   38.2286 C   0  0  0  0  0  0  0  0  0  0  0  0
   26.7363  -25.5144   38.4554 C   0  0  0  0  0  0  0  0  0  0  0  0
   25.8833  -24.5422   38.8942 C   0  0  0  0  0  0  0  0  0  0  0  0
   26.3420  -23.2465   39.1175 C   0  0  0  0  0  0  0  0  0  0  0  0
   27.6611  -22.9766   38.8860 C   0  0  0  0  0  0  0  0  0  0  0  0
   32.8784  -25.4489   37.2024 C   0  0  0  0  0  0  0  0  0  0  0  0
   33.9331  -25.8456   38.1449 C   0  0  0  0  0  0  0  0  0  0  0  0
   33.4504  -26.7110   39.2937 C   0  0  0  0  0  0  0  0  0  0  0  0
   34.9429  -26.7007   37.3588 C   0  0  0  0  0  0  0  0  0  0  0  0
   31.4832  -20.4562   34.3724 C   0  0  0  0  0  0  0  0  0  0  0  0
   29.3355  -21.1570   35.4483 C   0  0  0  0  0  0  0  0  0  0  0  0
   30.4623  -20.1313   35.4354 C   0  0  0  0  0  0  0  0  0  0  0  0
   29.7950  -18.8151   35.0108 C   0  0  0  0  0  0  0  0  0  0  0  0
   37.2630  -20.0268   36.0778 C   0  0  0  0  0  0  0  0  0  0  0  0
   37.3824  -21.1624   36.5935 O   0  0  0  0  0  0  0  0  0  0  0  0
   38.4162  -19.4159   35.5291 N   0  0  0  0  0  0  0  0  0  0  0  0
   38.3876  -18.4818   35.1039 H   0  0  0  0  0  0  0  0  0  0  0  0
   39.7152  -20.1327   35.5620 C   0  0  0  0  0  0  0  0  0  0  0  0
   40.5345  -19.2781   36.4272 C   0  0  0  0  0  0  0  0  0  0  0  0
   39.8732  -18.4846   37.1959 O   0  0  0  0  0  0  0  0  0  0  0  0
   41.9116  -19.2188   36.5136 N   0  0  0  0  0  0  0  0  0  0  0  0
   42.5676  -19.7552   35.9343 H   0  0  0  0  0  0  0  0  0  0  0  0
   42.5797  -18.3041   37.4679 C   0  0  0  0  0  0  0  0  0  0  0  0
   43.3379  -17.3298   36.6852 C   0  0  0  0  0  0  0  0  0  0  0  0
   44.7460  -17.3929   36.5488 N   0  0  0  0  0  0  0  0  0  0  0  0
   42.7389  -16.3660   36.0764 N   0  0  0  0  0  0  0  0  0  0  0  0
   45.1621  -18.0201   35.8418 H   0  0  0  0  0  0  0  0  0  0  0  0
   45.3564  -16.8154   37.1440 H   0  0  0  0  0  0  0  0  0  0  0  0
   41.7077  -16.2976   36.1547 H   0  0  0  0  0  0  0  0  0  0  0  0
   43.4095  -19.1177   38.4045 C   0  0  0  0  0  0  0  0  0  0  0  0
   42.7350  -19.2731   39.7252 C   0  0  0  0  0  0  0  0  0  0  0  0
   41.5974  -20.0564   39.7605 C   0  0  0  0  0  0  0  0  0  0  0  0
   40.9271  -20.2404   40.9461 C   0  0  0  0  0  0  0  0  0  0  0  0
   41.3689  -19.6511   42.1271 C   0  0  0  0  0  0  0  0  0  0  0  0
   42.4972  -18.8791   42.0744 C   0  0  0  0  0  0  0  0  0  0  0  0
   43.1727  -18.6915   40.8891 C   0  0  0  0  0  0  0  0  0  0  0  0
   40.2866  -20.3301   34.2182 C   0  0  0  0  0  0  0  0  0  0  0  0
   39.9390  -19.2163   33.3147 C   0  0  0  0  0  0  0  0  0  0  0  0
   38.9454  -19.3955   32.2979 N   0  0  0  0  0  0  0  0  0  0  0  0
   40.4638  -18.0632   33.3602 O   0  0  0  0  0  0  0  0  0  0  0  0
   38.0820  -18.8096   32.3144 H   0  0  0  0  0  0  0  0  0  0  0  0
   39.1162  -20.1014   31.5801 H   0  0  0  0  0  0  0  0  0  0  0  0
   35.8421  -18.4138   37.1813 C   0  0  0  0  0  0  0  0  0  0  0  0
   35.8983  -16.9640   36.9523 C   0  0  0  0  0  0  0  0  0  0  0  0
   34.8766  -16.3981   36.2209 C   0  0  0  0  0  0  0  0  0  0  0  0
   34.8367  -15.0593   35.9496 C   0  0  0  0  0  0  0  0  0  0  0  0
   35.8300  -14.2428   36.4070 C   0  0  0  0  0  0  0  0  0  0  0  0
   36.8679  -14.7853   37.1445 C   0  0  0  0  0  0  0  0  0  0  0  0
   36.8835  -16.1369   37.4040 C   0  0  0  0  0  0  0  0  0  0  0  0
 27 28  1  0  0  0
 28 29  1  0  0  0
 28 26  1  0  0  0
 26  6  1  0  0  0
  6  7  1  0  0  0
  7  8  1  0  0  0
  8  9  2  0  0  0
  8 11  1  0  0  0
 11 22  1  0  0  0
 22 23  1  0  0  0
 23 24  1  0  0  0
 23 25  1  0  0  0
 11 12  1  0  0  0
 12 13  1  0  0  0
 13 14  2  0  0  0
 13 16  1  0  0  0
 16 17  2  0  0  0
 17 18  1  0  0  0
 18 19  2  0  0  0
 19 20  1  0  0  0
 20 21  2  0  0  0
  6  2  1  0  0  0
  2  3  2  0  0  0
  2  4  1  0  0  0
  4  1  1  0  0  0
  1 59  1  0  0  0
 59 60  1  0  0  0
 60 61  2  0  0  0
 61 62  1  0  0  0
 62 63  2  0  0  0
 63 64  1  0  0  0
 64 65  2  0  0  0
  1 30  1  0  0  0
 30 31  2  0  0  0
 30 32  1  0  0  0
 32 34  1  0  0  0
 34 53  1  0  0  0
 53 54  1  0  0  0
 54 55  1  0  0  0
 54 56  2  0  0  0
 34 35  1  0  0  0
 35 36  2  0  0  0
 35 37  1  0  0  0
 37 39  1  0  0  0
 39 46  1  0  0  0
 46 47  1  0  0  0
 47 48  2  0  0  0
 48 49  1  0  0  0
 49 50  2  0  0  0
 50 51  1  0  0  0
 51 52  2  0  0  0
 39 40  1  0  0  0
 40 41  1  0  0  0
 40 42  2  0  0  0
 21 16  1  0  0  0
 65 60  1  0  0  0
 52 47  1  0  0  0
  7 10  1  0  0  0
 12 15  1  0  0  0
  4  5  1  0  0  0
 32 33  1  0  0  0
 55 57  1  0  0  0
 55 58  1  0  0  0
 37 38  1  0  0  0
 41 43  1  0  0  0
 41 44  1  0  0  0
 42 45  1  0  0  0
M  END
> <minimizedAffinity>
-6.71104

> <CNNscore>
0.1494440138

> <CNNaffinity>
6.2580542564

> <CNN_VS>
0.9352287650

> <CNNaffinity_variance>
0.6327732801

$$$$
[H]c1nc(N([H])[C@@]2([H])C([H])([H])N([H])C([H])([H])[C@@]2([H])N([H])c2c([H])c(C#N)nc([H])c2OC([H])([H])[H])c2c([H])c([H])n([H])c2n1


 30 33  0  0  0  0  0  0  0  0999 V2000
   35.8202  -19.1276   36.4229 C   0  0  0  0  0  0  0  0  0  0  0  0
   37.2593  -19.2042   36.8760 C   0  0  0  0  0  0  0  0  0  0  0  0
   37.9048  -18.5759   35.7087 N   0  0  0  0  0  0  0  0  0  0  0  0
   37.0559  -17.4680   35.3483 C   0  0  0  0  0  0  0  0  0  0  0  0
   35.7159  -17.6807   36.0674 C   0  0  0  0  0  0  0  0  0  0  0  0
   37.8137  -19.2948   34.9401 H   0  0  0  0  0  0  0  0  0  0  0  0
   34.8610  -19.5999   37.3625 N   0  0  0  0  0  0  0  0  0  0  0  0
   34.0093  -19.0586   37.6513 H   0  0  0  0  0  0  0  0  0  0  0  0
   34.9700  -21.0142   39.3374 C   0  0  0  0  0  0  0  0  0  0  0  0
   35.1175  -22.2622   39.8808 C   0  0  0  0  0  0  0  0  0  0  0  0
   35.3196  -23.3593   39.1418 N   0  0  0  0  0  0  0  0  0  0  0  0
   35.3881  -23.2797   37.7942 C   0  0  0  0  0  0  0  0  0  0  0  0
   35.2418  -22.0306   37.2252 C   0  0  0  0  0  0  0  0  0  0  0  0
   35.0317  -20.8744   37.9654 C   0  0  0  0  0  0  0  0  0  0  0  0
   34.6918  -19.9254   41.5152 C   0  0  0  0  0  0  0  0  0  0  0  0
   34.7605  -19.8736   40.0955 O   0  0  0  0  0  0  0  0  0  0  0  0
   35.6028  -24.4290   36.9726 C   0  0  0  0  0  0  0  0  0  0  0  0
   35.7958  -25.3634   36.3117 N   0  0  0  0  0  0  0  0  0  0  0  0
   35.6846  -16.8418   37.2494 N   0  0  0  0  0  0  0  0  0  0  0  0
   35.3976  -17.2511   38.1572 H   0  0  0  0  0  0  0  0  0  0  0  0
   36.0363  -15.4677   37.2068 C   0  0  0  0  0  0  0  0  0  0  0  0
   37.2641  -15.0291   37.5119 N   0  0  0  0  0  0  0  0  0  0  0  0
   37.5566  -13.7277   37.4599 C   0  0  0  0  0  0  0  0  0  0  0  0
   36.6098  -12.8332   37.0962 N   0  0  0  0  0  0  0  0  0  0  0  0
   35.3582  -13.2327   36.7802 C   0  0  0  0  0  0  0  0  0  0  0  0
   34.2476  -12.5735   36.3942 N   0  0  0  0  0  0  0  0  0  0  0  0
   33.2391  -13.4121   36.1934 C   0  0  0  0  0  0  0  0  0  0  0  0
   33.7379  -14.6659   36.4666 C   0  0  0  0  0  0  0  0  0  0  0  0
   35.0731  -14.5590   36.8369 C   0  0  0  0  0  0  0  0  0  0  0  0
   34.2094  -11.5375   36.2753 H   0  0  0  0  0  0  0  0  0  0  0  0
 15 16  1  0  0  0
 16  9  1  0  0  0
  9 10  2  0  0  0
 10 11  1  0  0  0
 11 12  2  0  0  0
 12 13  1  0  0  0
 13 14  2  0  0  0
 14  7  1  0  0  0
  7  1  1  0  0  0
  1  2  1  0  0  0
  2  3  1  0  0  0
  3  4  1  0  0  0
  4  5  1  0  0  0
  5 19  1  0  0  0
 19 21  1  0  0  0
 21 22  2  0  0  0
 22 23  1  0  0  0
 23 24  2  0  0  0
 24 25  1  0  0  0
 25 26  1  0  0  0
 26 27  1  0  0  0
 27 28  2  0  0  0
 28 29  1  0  0  0
 12 17  1  0  0  0
 17 18  3  0  0  0
 14  9  1  0  0  0
  5  1  1  0  0  0
 29 21  1  0  0  0
 29 25  2  0  0  0
  7  8  1  0  0  0
  3  6  1  0  0  0
 19 20  1  0  0  0
 26 30  1  0  0  0
M  END
> <minimizedAffinity>
-5.55072

> <CNNscore>
0.5435412526

> <CNNaffinity>
5.4289617538

> <CNN_VS>
2.9508645535

> <CNNaffinity_variance>
0.1872362792

$$$$
[H]c1nc(N([H])[C@@]2([H])C([H])([H])N([H])C([H])([H])[C@@]2([H])N([H])c2c([H])c(C#N)nc([H])c2OC([H])([H])[H])c2c([H])c([H])n([H])c2n1


 30 33  0  0  0  0  0  0  0  0999 V2000
   38.4896  -19.7881   35.6986 C   0  0  0  0  0  0  0  0  0  0  0  0
   39.8744  -19.3607   35.2724 C   0  0  0  0  0  0  0  0  0  0  0  0
   39.8703  -19.8947   33.8981 N   0  0  0  0  0  0  0  0  0  0  0  0
   38.5587  -19.6046   33.3753 C   0  0  0  0  0  0  0  0  0  0  0  0
   37.6707  -19.2428   34.5747 C   0  0  0  0  0  0  0  0  0  0  0  0
   39.9258  -20.9421   34.0235 H   0  0  0  0  0  0  0  0  0  0  0  0
   38.0987  -19.3708   37.0021 N   0  0  0  0  0  0  0  0  0  0  0  0
   38.3708  -18.4508   37.4280 H   0  0  0  0  0  0  0  0  0  0  0  0
   37.8524  -20.9539   38.8311 C   0  0  0  0  0  0  0  0  0  0  0  0
   37.0393  -21.7467   39.5960 C   0  0  0  0  0  0  0  0  0  0  0  0
   35.7203  -21.8466   39.3943 N   0  0  0  0  0  0  0  0  0  0  0  0
   35.1200  -21.1516   38.4024 C   0  0  0  0  0  0  0  0  0  0  0  0
   35.9213  -20.3457   37.6190 C   0  0  0  0  0  0  0  0  0  0  0  0
   37.2923  -20.2219   37.8035 C   0  0  0  0  0  0  0  0  0  0  0  0
   39.9752  -21.9099   39.5962 C   0  0  0  0  0  0  0  0  0  0  0  0
   39.2187  -20.8451   39.0336 O   0  0  0  0  0  0  0  0  0  0  0  0
   33.7146  -21.2332   38.1570 C   0  0  0  0  0  0  0  0  0  0  0  0
   32.5721  -21.3153   37.9691 N   0  0  0  0  0  0  0  0  0  0  0  0
   37.5561  -17.7995   34.6494 N   0  0  0  0  0  0  0  0  0  0  0  0
   38.3450  -17.2086   34.3293 H   0  0  0  0  0  0  0  0  0  0  0  0
   36.3914  -17.1617   35.1499 C   0  0  0  0  0  0  0  0  0  0  0  0
   36.4434  -16.0529   35.8988 N   0  0  0  0  0  0  0  0  0  0  0  0
   35.3250  -15.4817   36.3513 C   0  0  0  0  0  0  0  0  0  0  0  0
   34.1203  -16.0206   36.0559 N   0  0  0  0  0  0  0  0  0  0  0  0
   34.0223  -17.1385   35.3033 C   0  0  0  0  0  0  0  0  0  0  0  0
   32.9777  -17.8706   34.8676 N   0  0  0  0  0  0  0  0  0  0  0  0
   33.3869  -18.9040   34.1429 C   0  0  0  0  0  0  0  0  0  0  0  0
   34.7610  -18.8209   34.1193 C   0  0  0  0  0  0  0  0  0  0  0  0
   35.1672  -17.7101   34.8491 C   0  0  0  0  0  0  0  0  0  0  0  0
   31.9843  -17.6358   35.0846 H   0  0  0  0  0  0  0  0  0  0  0  0
 15 16  1  0  0  0
 16  9  1  0  0  0
  9 10  2  0  0  0
 10 11  1  0  0  0
 11 12  2  0  0  0
 12 13  1  0  0  0
 13 14  2  0  0  0
 14  7  1  0  0  0
  7  1  1  0  0  0
  1  2  1  0  0  0
  2  3  1  0  0  0
  3  4  1  0  0  0
  4  5  1  0  0  0
  5 19  1  0  0  0
 19 21  1  0  0  0
 21 22  2  0  0  0
 22 23  1  0  0  0
 23 24  2  0  0  0
 24 25  1  0  0  0
 25 26  1  0  0  0
 26 27  1  0  0  0
 27 28  2  0  0  0
 28 29  1  0  0  0
 12 17  1  0  0  0
 17 18  3  0  0  0
 14  9  1  0  0  0
  5  1  1  0  0  0
 29 21  1  0  0  0
 29 25  2  0  0  0
  7  8  1  0  0  0
  3  6  1  0  0  0
 19 20  1  0  0  0
 26 30  1  0  0  0
M  END
> <minimizedAffinity>
-5.29876

> <CNNscore>
0.5299086571

> <CNNaffinity>
5.3347902298

> <CNN_VS>
2.8269515038

> <CNNaffinity_variance>
0.4192597866

$$$$
[H]c1nc(N([H])[C@@]2([H])C([H])([H])N([H])C([H])([H])[C@@]2([H])N([H])c2c([H])c(C#N)nc([H])c2OC([H])([H])[H])c2c([H])c([H])n([H])c2n1


 30 33  0  0  0  0  0  0  0  0999 V2000
   36.6930  -19.2944   36.3654 C   0  0  0  0  0  0  0  0  0  0  0  0
   38.0502  -18.6326   36.3202 C   0  0  0  0  0  0  0  0  0  0  0  0
   38.0007  -18.0929   34.9490 N   0  0  0  0  0  0  0  0  0  0  0  0
   36.6631  -17.5818   34.7836 C   0  0  0  0  0  0  0  0  0  0  0  0
   35.8178  -18.1674   35.9240 C   0  0  0  0  0  0  0  0  0  0  0  0
   38.0826  -18.9443   34.3290 H   0  0  0  0  0  0  0  0  0  0  0  0
   36.3474  -19.8886   37.6118 N   0  0  0  0  0  0  0  0  0  0  0  0
   36.1509  -19.3418   38.4861 H   0  0  0  0  0  0  0  0  0  0  0  0
   37.2392  -22.0241   38.3579 C   0  0  0  0  0  0  0  0  0  0  0  0
   37.1017  -23.3825   38.4596 C   0  0  0  0  0  0  0  0  0  0  0  0
   36.0508  -24.0474   37.9656 N   0  0  0  0  0  0  0  0  0  0  0  0
   35.0557  -23.3895   37.3299 C   0  0  0  0  0  0  0  0  0  0  0  0
   35.1740  -22.0189   37.2164 C   0  0  0  0  0  0  0  0  0  0  0  0
   36.2522  -21.3016   37.7179 C   0  0  0  0  0  0  0  0  0  0  0  0
   38.7633  -21.5107   40.2070 C   0  0  0  0  0  0  0  0  0  0  0  0
   38.3240  -21.3285   38.8666 O   0  0  0  0  0  0  0  0  0  0  0  0
   33.9185  -24.0655   36.7896 C   0  0  0  0  0  0  0  0  0  0  0  0
   32.9924  -24.6239   36.3680 N   0  0  0  0  0  0  0  0  0  0  0  0
   35.6770  -17.1637   36.9607 N   0  0  0  0  0  0  0  0  0  0  0  0
   35.8739  -17.4178   37.9459 H   0  0  0  0  0  0  0  0  0  0  0  0
   35.2756  -15.8337   36.6713 C   0  0  0  0  0  0  0  0  0  0  0  0
   34.0724  -15.5396   36.1625 N   0  0  0  0  0  0  0  0  0  0  0  0
   33.7314  -14.2752   35.9036 C   0  0  0  0  0  0  0  0  0  0  0  0
   34.6031  -13.2722   36.1542 N   0  0  0  0  0  0  0  0  0  0  0  0
   35.8273  -13.5245   36.6675 C   0  0  0  0  0  0  0  0  0  0  0  0
   36.8675  -12.7371   37.0063 N   0  0  0  0  0  0  0  0  0  0  0  0
   37.8775  -13.4559   37.4794 C   0  0  0  0  0  0  0  0  0  0  0  0
   37.4539  -14.7652   37.4373 C   0  0  0  0  0  0  0  0  0  0  0  0
   36.1624  -14.8146   36.9265 C   0  0  0  0  0  0  0  0  0  0  0  0
   36.8572  -11.6988   36.9015 H   0  0  0  0  0  0  0  0  0  0  0  0
 15 16  1  0  0  0
 16  9  1  0  0  0
  9 10  2  0  0  0
 10 11  1  0  0  0
 11 12  2  0  0  0
 12 13  1  0  0  0
 13 14  2  0  0  0
 14  7  1  0  0  0
  7  1  1  0  0  0
  1  2  1  0  0  0
  2  3  1  0  0  0
  3  4  1  0  0  0
  4  5  1  0  0  0
  5 19  1  0  0  0
 19 21  1  0  0  0
 21 22  2  0  0  0
 22 23  1  0  0  0
 23 24  2  0  0  0
 24 25  1  0  0  0
 25 26  1  0  0  0
 26 27  1  0  0  0
 27 28  2  0  0  0
 28 29  1  0  0  0
 12 17  1  0  0  0
 17 18  3  0  0  0
 14  9  1  0  0  0
  5  1  1  0  0  0
 29 21  1  0  0  0
 29 25  2  0  0  0
  7  8  1  0  0  0
  3  6  1  0  0  0
 19 20  1  0  0  0
 26 30  1  0  0  0
M  END
> <minimizedAffinity>
-5.41054

> <CNNscore>
0.5247740746

> <CNNaffinity>
5.7255697250

> <CNN_VS>
3.0046305656

> <CNNaffinity_variance>
0.0348288156

$$$$
[H]c1nc(N([H])[C@@]2([H])C([H])([H])N([H])C([H])([H])[C@@]2([H])N([H])c2c([H])c(C#N)nc([H])c2OC([H])([H])[H])c2c([H])c([H])n([H])c2n1


 30 33  0  0  0  0  0  0  0  0999 V2000
   36.6343  -19.3470   36.2433 C   0  0  0  0  0  0  0  0  0  0  0  0
   37.9970  -18.6962   36.2829 C   0  0  0  0  0  0  0  0  0  0  0  0
   38.0054  -18.0914   34.9383 N   0  0  0  0  0  0  0  0  0  0  0  0
   36.6791  -17.5608   34.7455 C   0  0  0  0  0  0  0  0  0  0  0  0
   35.7853  -18.1924   35.8227 C   0  0  0  0  0  0  0  0  0  0  0  0
   38.1056  -18.9130   34.2818 H   0  0  0  0  0  0  0  0  0  0  0  0
   36.2356  -19.9968   37.4454 N   0  0  0  0  0  0  0  0  0  0  0  0
   35.5638  -19.5840   38.1383 H   0  0  0  0  0  0  0  0  0  0  0  0
   35.9475  -22.3981   37.6964 C   0  0  0  0  0  0  0  0  0  0  0  0
   36.4899  -23.6215   37.9853 C   0  0  0  0  0  0  0  0  0  0  0  0
   37.7727  -23.7872   38.3281 N   0  0  0  0  0  0  0  0  0  0  0  0
   38.6080  -22.7272   38.4051 C   0  0  0  0  0  0  0  0  0  0  0  0
   38.0818  -21.4839   38.1174 C   0  0  0  0  0  0  0  0  0  0  0  0
   36.7554  -21.2805   37.7597 C   0  0  0  0  0  0  0  0  0  0  0  0
   33.8391  -23.2848   36.8165 C   0  0  0  0  0  0  0  0  0  0  0  0
   34.6205  -22.2183   37.3408 O   0  0  0  0  0  0  0  0  0  0  0  0
   39.9833  -22.8653   38.7676 C   0  0  0  0  0  0  0  0  0  0  0  0
   41.1036  -22.9876   39.0456 N   0  0  0  0  0  0  0  0  0  0  0  0
   35.6110  -17.2380   36.9000 N   0  0  0  0  0  0  0  0  0  0  0  0
   35.7999  -17.5312   37.8759 H   0  0  0  0  0  0  0  0  0  0  0  0
   35.1873  -15.9045   36.6633 C   0  0  0  0  0  0  0  0  0  0  0  0
   33.9595  -15.6076   36.2189 N   0  0  0  0  0  0  0  0  0  0  0  0
   33.5979  -14.3400   36.0081 C   0  0  0  0  0  0  0  0  0  0  0  0
   34.4735  -13.3365   36.2427 N   0  0  0  0  0  0  0  0  0  0  0  0
   35.7222  -13.5915   36.6916 C   0  0  0  0  0  0  0  0  0  0  0  0
   36.7717  -12.8043   37.0010 N   0  0  0  0  0  0  0  0  0  0  0  0
   37.8078  -13.5265   37.4080 C   0  0  0  0  0  0  0  0  0  0  0  0
   37.3917  -14.8377   37.3530 C   0  0  0  0  0  0  0  0  0  0  0  0
   36.0780  -14.8849   36.9021 C   0  0  0  0  0  0  0  0  0  0  0  0
   36.7493  -11.7640   36.9229 H   0  0  0  0  0  0  0  0  0  0  0  0
 15 16  1  0  0  0
 16  9  1  0  0  0
  9 10  2  0  0  0
 10 11  1  0  0  0
 11 12  2  0  0  0
 12 13  1  0  0  0
 13 14  2  0  0  0
 14  7  1  0  0  0
  7  1  1  0  0  0
  1  2  1  0  0  0
  2  3  1  0  0  0
  3  4  1  0  0  0
  4  5  1  0  0  0
  5 19  1  0  0  0
 19 21  1  0  0  0
 21 22  2  0  0  0
 22 23  1  0  0  0
 23 24  2  0  0  0
 24 25  1  0  0  0
 25 26  1  0  0  0
 26 27  1  0  0  0
 27 28  2  0  0  0
 28 29  1  0  0  0
 12 17  1  0  0  0
 17 18  3  0  0  0
 14  9  1  0  0  0
  5  1  1  0  0  0
 29 21  1  0  0  0
 29 25  2  0  0  0
  7  8  1  0  0  0
  3  6  1  0  0  0
 19 20  1  0  0  0
 26 30  1  0  0  0
M  END
> <minimizedAffinity>
-5.19418

> <CNNscore>
0.4790020585

> <CNNaffinity>
5.7002758980

> <CNN_VS>
2.7304439545

> <CNNaffinity_variance>
0.0411963388

$$$$
[H]c1nc(N([H])[C@@]2([H])C([H])([H])N([H])C([H])([H])[C@@]2([H])N([H])c2c([H])c(C#N)nc([H])c2OC([H])([H])[H])c2c([H])c([H])n([H])c2n1


 30 33  0  0  0  0  0  0  0  0999 V2000
   37.9322  -18.7117   34.4253 C   0  0  0  0  0  0  0  0  0  0  0  0
   37.9217  -19.9603   33.5751 C   0  0  0  0  0  0  0  0  0  0  0  0
   39.0634  -19.6522   32.6945 N   0  0  0  0  0  0  0  0  0  0  0  0
   40.0642  -19.0667   33.5509 C   0  0  0  0  0  0  0  0  0  0  0  0
   39.3607  -18.6821   34.8605 C   0  0  0  0  0  0  0  0  0  0  0  0
   38.7088  -18.8811   32.0655 H   0  0  0  0  0  0  0  0  0  0  0  0
   36.9700  -18.6819   35.4738 N   0  0  0  0  0  0  0  0  0  0  0  0
   36.6583  -19.5313   36.0060 H   0  0  0  0  0  0  0  0  0  0  0  0
   35.0298  -17.2255   35.6367 C   0  0  0  0  0  0  0  0  0  0  0  0
   34.4874  -16.0327   36.0337 C   0  0  0  0  0  0  0  0  0  0  0  0
   35.2027  -15.0673   36.6227 N   0  0  0  0  0  0  0  0  0  0  0  0
   36.5236  -15.2333   36.8568 C   0  0  0  0  0  0  0  0  0  0  0  0
   37.0910  -16.4290   36.4646 C   0  0  0  0  0  0  0  0  0  0  0  0
   36.3751  -17.4487   35.8509 C   0  0  0  0  0  0  0  0  0  0  0  0
   33.2494  -18.9079   35.7100 C   0  0  0  0  0  0  0  0  0  0  0  0
   34.2961  -18.2298   35.0263 O   0  0  0  0  0  0  0  0  0  0  0  0
   37.3194  -14.2252   37.4832 C   0  0  0  0  0  0  0  0  0  0  0  0
   37.9810  -13.4115   37.9807 N   0  0  0  0  0  0  0  0  0  0  0  0
   39.6372  -19.7019   35.8533 N   0  0  0  0  0  0  0  0  0  0  0  0
   39.1112  -20.5944   35.8270 H   0  0  0  0  0  0  0  0  0  0  0  0
   40.6115  -19.5193   36.8688 C   0  0  0  0  0  0  0  0  0  0  0  0
   41.7205  -18.7930   36.6802 N   0  0  0  0  0  0  0  0  0  0  0  0
   42.6141  -18.6444   37.6606 C   0  0  0  0  0  0  0  0  0  0  0  0
   42.4071  -19.2296   38.8621 N   0  0  0  0  0  0  0  0  0  0  0  0
   41.3016  -19.9708   39.0952 C   0  0  0  0  0  0  0  0  0  0  0  0
   40.8537  -20.6493   40.1704 N   0  0  0  0  0  0  0  0  0  0  0  0
   39.6912  -21.2361   39.9156 C   0  0  0  0  0  0  0  0  0  0  0  0
   39.3888  -20.9119   38.6122 C   0  0  0  0  0  0  0  0  0  0  0  0
   40.4002  -20.1146   38.0900 C   0  0  0  0  0  0  0  0  0  0  0  0
   41.3712  -20.6933   41.0755 H   0  0  0  0  0  0  0  0  0  0  0  0
 15 16  1  0  0  0
 16  9  1  0  0  0
  9 10  2  0  0  0
 10 11  1  0  0  0
 11 12  2  0  0  0
 12 13  1  0  0  0
 13 14  2  0  0  0
 14  7  1  0  0  0
  7  1  1  0  0  0
  1  2  1  0  0  0
  2  3  1  0  0  0
  3  4  1  0  0  0
  4  5  1  0  0  0
  5 19  1  0  0  0
 19 21  1  0  0  0
 21 22  2  0  0  0
 22 23  1  0  0  0
 23 24  2  0  0  0
 24 25  1  0  0  0
 25 26  1  0  0  0
 26 27  1  0  0  0
 27 28  2  0  0  0
 28 29  1  0  0  0
 12 17  1  0  0  0
 17 18  3  0  0  0
 14  9  1  0  0  0
  5  1  1  0  0  0
 29 21  1  0  0  0
 29 25  2  0  0  0
  7  8  1  0  0  0
  3  6  1  0  0  0
 19 20  1  0  0  0
 26 30  1  0  0  0
M  END
> <minimizedAffinity>
-5.48650

> <CNNscore>
0.4014586806

> <CNNaffinity>
5.4392867088

> <CNN_VS>
2.1836488247

> <CNNaffinity_variance>
0.0546652675

$$$$
[H]c1nc(N([H])[C@@]2([H])C([H])([H])N([H])C([H])([H])[C@@]2([H])N([H])c2c([H])c(C#N)nc([H])c2OC([H])([H])[H])c2c([H])c([H])n([H])c2n1


 30 33  0  0  0  0  0  0  0  0999 V2000
   38.3768  -18.6484   34.6512 C   0  0  0  0  0  0  0  0  0  0  0  0
   37.9700  -19.6801   33.6255 C   0  0  0  0  0  0  0  0  0  0  0  0
   39.0861  -19.5172   32.6759 N   0  0  0  0  0  0  0  0  0  0  0  0
   40.2663  -19.3671   33.4897 C   0  0  0  0  0  0  0  0  0  0  0  0
   39.7882  -19.0591   34.9161 C   0  0  0  0  0  0  0  0  0  0  0  0
   38.9073  -18.5815   32.2192 H   0  0  0  0  0  0  0  0  0  0  0  0
   37.5360  -18.5654   35.7968 N   0  0  0  0  0  0  0  0  0  0  0  0
   37.8258  -18.8706   36.7584 H   0  0  0  0  0  0  0  0  0  0  0  0
   35.9169  -16.7871   36.1547 C   0  0  0  0  0  0  0  0  0  0  0  0
   34.6438  -16.3092   35.9955 C   0  0  0  0  0  0  0  0  0  0  0  0
   33.6747  -17.0054   35.3900 N   0  0  0  0  0  0  0  0  0  0  0  0
   33.9180  -18.2405   34.8975 C   0  0  0  0  0  0  0  0  0  0  0  0
   35.1954  -18.7418   35.0471 C   0  0  0  0  0  0  0  0  0  0  0  0
   36.2212  -18.0437   35.6710 C   0  0  0  0  0  0  0  0  0  0  0  0
   36.6530  -15.1933   37.8646 C   0  0  0  0  0  0  0  0  0  0  0  0
   36.9256  -16.0725   36.7804 O   0  0  0  0  0  0  0  0  0  0  0  0
   32.9085  -19.0134   34.2451 C   0  0  0  0  0  0  0  0  0  0  0  0
   32.0855  -19.6264   33.7026 N   0  0  0  0  0  0  0  0  0  0  0  0
   39.8512  -20.2768   35.7004 N   0  0  0  0  0  0  0  0  0  0  0  0
   39.3881  -21.1342   35.3480 H   0  0  0  0  0  0  0  0  0  0  0  0
   40.5310  -20.3365   36.9446 C   0  0  0  0  0  0  0  0  0  0  0  0
   41.8379  -20.0707   37.0643 N   0  0  0  0  0  0  0  0  0  0  0  0
   42.4420  -20.1375   38.2528 C   0  0  0  0  0  0  0  0  0  0  0  0
   41.7357  -20.4765   39.3551 N   0  0  0  0  0  0  0  0  0  0  0  0
   40.4151  -20.7525   39.2792 C   0  0  0  0  0  0  0  0  0  0  0  0
   39.4913  -21.1077   40.1942 N   0  0  0  0  0  0  0  0  0  0  0  0
   38.3007  -21.2740   39.6323 C   0  0  0  0  0  0  0  0  0  0  0  0
   38.4815  -21.0104   38.2932 C   0  0  0  0  0  0  0  0  0  0  0  0
   39.8121  -20.6811   38.0647 C   0  0  0  0  0  0  0  0  0  0  0  0
   39.7073  -21.2301   41.2078 H   0  0  0  0  0  0  0  0  0  0  0  0
 15 16  1  0  0  0
 16  9  1  0  0  0
  9 10  2  0  0  0
 10 11  1  0  0  0
 11 12  2  0  0  0
 12 13  1  0  0  0
 13 14  2  0  0  0
 14  7  1  0  0  0
  7  1  1  0  0  0
  1  2  1  0  0  0
  2  3  1  0  0  0
  3  4  1  0  0  0
  4  5  1  0  0  0
  5 19  1  0  0  0
 19 21  1  0  0  0
 21 22  2  0  0  0
 22 23  1  0  0  0
 23 24  2  0  0  0
 24 25  1  0  0  0
 25 26  1  0  0  0
 26 27  1  0  0  0
 27 28  2  0  0  0
 28 29  1  0  0  0
 12 17  1  0  0  0
 17 18  3  0  0  0
 14  9  1  0  0  0
  5  1  1  0  0  0
 29 21  1  0  0  0
 29 25  2  0  0  0
  7  8  1  0  0  0
  3  6  1  0  0  0
 19 20  1  0  0  0
 26 30  1  0  0  0
M  END
> <minimizedAffinity>
-5.43926

> <CNNscore>
0.3979152441

> <CNNaffinity>
5.1270122528

> <CNN_VS>
2.0401163101

> <CNNaffinity_variance>
0.4686045051

$$$$
[H]c1nc(N([H])[C@@]2([H])C([H])([H])N([H])C([H])([H])[C@@]2([H])N([H])c2c([H])c(C#N)nc([H])c2OC([H])([H])[H])c2c([H])c([H])n([H])c2n1


 30 33  0  0  0  0  0  0  0  0999 V2000
   35.0152  -19.8327   36.0567 C   0  0  0  0  0  0  0  0  0  0  0  0
   36.2798  -20.3570   36.6953 C   0  0  0  0  0  0  0  0  0  0  0  0
   37.1869  -20.2500   35.5379 N   0  0  0  0  0  0  0  0  0  0  0  0
   36.8632  -18.9941   34.9088 C   0  0  0  0  0  0  0  0  0  0  0  0
   35.5076  -18.5479   35.4756 C   0  0  0  0  0  0  0  0  0  0  0  0
   36.8662  -21.0134   34.8819 H   0  0  0  0  0  0  0  0  0  0  0  0
   33.8944  -19.7233   36.9274 N   0  0  0  0  0  0  0  0  0  0  0  0
   33.7281  -18.9079   37.5672 H   0  0  0  0  0  0  0  0  0  0  0  0
   31.7813  -20.6717   36.1875 C   0  0  0  0  0  0  0  0  0  0  0  0
   30.8774  -21.6992   36.2288 C   0  0  0  0  0  0  0  0  0  0  0  0
   31.0474  -22.7893   36.9859 N   0  0  0  0  0  0  0  0  0  0  0  0
   32.1464  -22.9255   37.7610 C   0  0  0  0  0  0  0  0  0  0  0  0
   33.0713  -21.9011   37.7345 C   0  0  0  0  0  0  0  0  0  0  0  0
   32.9222  -20.7580   36.9599 C   0  0  0  0  0  0  0  0  0  0  0  0
   30.3362  -19.1675   34.9013 C   0  0  0  0  0  0  0  0  0  0  0  0
   31.6125  -19.5400   35.4064 O   0  0  0  0  0  0  0  0  0  0  0  0
   32.3622  -24.0747   38.5824 C   0  0  0  0  0  0  0  0  0  0  0  0
   32.5356  -24.9970   39.2656 N   0  0  0  0  0  0  0  0  0  0  0  0
   35.7389  -17.5515   36.5031 N   0  0  0  0  0  0  0  0  0  0  0  0
   36.2681  -17.8119   37.3552 H   0  0  0  0  0  0  0  0  0  0  0  0
   35.2620  -16.2205   36.3820 C   0  0  0  0  0  0  0  0  0  0  0  0
   34.0483  -15.9322   35.8953 N   0  0  0  0  0  0  0  0  0  0  0  0
   33.6352  -14.6667   35.7970 C   0  0  0  0  0  0  0  0  0  0  0  0
   34.4435  -13.6564   36.1904 N   0  0  0  0  0  0  0  0  0  0  0  0
   35.6757  -13.9026   36.6873 C   0  0  0  0  0  0  0  0  0  0  0  0
   36.6642  -13.1076   37.1430 N   0  0  0  0  0  0  0  0  0  0  0  0
   37.7106  -13.8227   37.5358 C   0  0  0  0  0  0  0  0  0  0  0  0
   37.3658  -15.1375   37.3170 C   0  0  0  0  0  0  0  0  0  0  0  0
   36.0843  -15.1940   36.7823 C   0  0  0  0  0  0  0  0  0  0  0  0
   36.5933  -12.0669   37.1736 H   0  0  0  0  0  0  0  0  0  0  0  0
 15 16  1  0  0  0
 16  9  1  0  0  0
  9 10  2  0  0  0
 10 11  1  0  0  0
 11 12  2  0  0  0
 12 13  1  0  0  0
 13 14  2  0  0  0
 14  7  1  0  0  0
  7  1  1  0  0  0
  1  2  1  0  0  0
  2  3  1  0  0  0
  3  4  1  0  0  0
  4  5  1  0  0  0
  5 19  1  0  0  0
 19 21  1  0  0  0
 21 22  2  0  0  0
 22 23  1  0  0  0
 23 24  2  0  0  0
 24 25  1  0  0  0
 25 26  1  0  0  0
 26 27  1  0  0  0
 27 28  2  0  0  0
 28 29  1  0  0  0
 12 17  1  0  0  0
 17 18  3  0  0  0
 14  9  1  0  0  0
  5  1  1  0  0  0
 29 21  1  0  0  0
 29 25  2  0  0  0
  7  8  1  0  0  0
  3  6  1  0  0  0
 19 20  1  0  0  0
 26 30  1  0  0  0
M  END
> <minimizedAffinity>
-5.70285

> <CNNscore>
0.3887863755

> <CNNaffinity>
5.1604709625

> <CNN_VS>
2.0063207150

> <CNNaffinity_variance>
0.2230947912

$$$$
[H]c1nc(N([H])[C@@]2([H])C([H])([H])N([H])C([H])([H])[C@@]2([H])N([H])c2c([H])c(C#N)nc([H])c2OC([H])([H])[H])c2c([H])c([H])n([H])c2n1


 30 33  0  0  0  0  0  0  0  0999 V2000
   34.8389  -19.5517   35.7653 C   0  0  0  0  0  0  0  0  0  0  0  0
   36.3073  -19.8690   35.9229 C   0  0  0  0  0  0  0  0  0  0  0  0
   36.7824  -19.4393   34.5949 N   0  0  0  0  0  0  0  0  0  0  0  0
   36.0767  -18.2151   34.3102 C   0  0  0  0  0  0  0  0  0  0  0  0
   34.9076  -18.1333   35.3025 C   0  0  0  0  0  0  0  0  0  0  0  0
   36.4064  -20.1713   33.9324 H   0  0  0  0  0  0  0  0  0  0  0  0
   34.0394  -19.7829   36.9201 N   0  0  0  0  0  0  0  0  0  0  0  0
   33.8748  -19.0674   37.6704 H   0  0  0  0  0  0  0  0  0  0  0  0
   33.3776  -21.6356   38.3489 C   0  0  0  0  0  0  0  0  0  0  0  0
   32.7430  -22.8406   38.4900 C   0  0  0  0  0  0  0  0  0  0  0  0
   32.1499  -23.4753   37.4722 N   0  0  0  0  0  0  0  0  0  0  0  0
   32.1520  -22.9400   36.2310 C   0  0  0  0  0  0  0  0  0  0  0  0
   32.7862  -21.7250   36.0662 C   0  0  0  0  0  0  0  0  0  0  0  0
   33.4106  -21.0431   37.1025 C   0  0  0  0  0  0  0  0  0  0  0  0
   33.7661  -21.3451   40.7510 C   0  0  0  0  0  0  0  0  0  0  0  0
   33.9939  -20.9723   39.3975 O   0  0  0  0  0  0  0  0  0  0  0  0
   31.5293  -23.5884   35.1202 C   0  0  0  0  0  0  0  0  0  0  0  0
   31.0166  -24.1289   34.2301 N   0  0  0  0  0  0  0  0  0  0  0  0
   35.2757  -17.2373   36.3813 N   0  0  0  0  0  0  0  0  0  0  0  0
   35.7725  -17.6139   37.2091 H   0  0  0  0  0  0  0  0  0  0  0  0
   34.9770  -15.8506   36.3432 C   0  0  0  0  0  0  0  0  0  0  0  0
   33.7972  -15.3797   35.9197 N   0  0  0  0  0  0  0  0  0  0  0  0
   33.5537  -14.0674   35.8987 C   0  0  0  0  0  0  0  0  0  0  0  0
   34.5023  -13.1945   36.3075 N   0  0  0  0  0  0  0  0  0  0  0  0
   35.7064  -13.6267   36.7424 C   0  0  0  0  0  0  0  0  0  0  0  0
   36.8068  -12.9939   37.1958 N   0  0  0  0  0  0  0  0  0  0  0  0
   37.7609  -13.8602   37.5118 C   0  0  0  0  0  0  0  0  0  0  0  0
   37.2365  -15.1048   37.2442 C   0  0  0  0  0  0  0  0  0  0  0  0
   35.9419  -14.9639   36.7590 C   0  0  0  0  0  0  0  0  0  0  0  0
   36.8765  -11.9560   37.2791 H   0  0  0  0  0  0  0  0  0  0  0  0
 15 16  1  0  0  0
 16  9  1  0  0  0
  9 10  2  0  0  0
 10 11  1  0  0  0
 11 12  2  0  0  0
 12 13  1  0  0  0
 13 14  2  0  0  0
 14  7  1  0  0  0
  7  1  1  0  0  0
  1  2  1  0  0  0
  2  3  1  0  0  0
  3  4  1  0  0  0
  4  5  1  0  0  0
  5 19  1  0  0  0
 19 21  1  0  0  0
 21 22  2  0  0  0
 22 23  1  0  0  0
 23 24  2  0  0  0
 24 25  1  0  0  0
 25 26  1  0  0  0
 26 27  1  0  0  0
 27 28  2  0  0  0
 28 29  1  0  0  0
 12 17  1  0  0  0
 17 18  3  0  0  0
 14  9  1  0  0  0
  5  1  1  0  0  0
 29 21  1  0  0  0
 29 25  2  0  0  0
  7  8  1  0  0  0
  3  6  1  0  0  0
 19 20  1  0  0  0
 26 30  1  0  0  0
M  END
> <minimizedAffinity>
-5.87214

> <CNNscore>
0.3555390835

> <CNNaffinity>
5.2860183716

> <CNN_VS>
1.8793861866

> <CNNaffinity_variance>
0.1119469628

$$$$
[H]c1nc(N([H])[C@@]2([H])C([H])([H])N([H])C([H])([H])[C@@]2([H])N([H])c2c([H])c(C#N)nc([H])c2OC([H])([H])[H])c2c([H])c([H])n([H])c2n1


 30 33  0  0  0  0  0  0  0  0999 V2000
   38.9223  -19.5550   35.7918 C   0  0  0  0  0  0  0  0  0  0  0  0
   40.0312  -18.6663   35.2793 C   0  0  0  0  0  0  0  0  0  0  0  0
   39.6348  -18.5935   33.8611 N   0  0  0  0  0  0  0  0  0  0  0  0
   38.2003  -18.4530   33.8681 C   0  0  0  0  0  0  0  0  0  0  0  0
   37.7224  -18.8287   35.2783 C   0  0  0  0  0  0  0  0  0  0  0  0
   39.8470  -19.5555   33.4797 H   0  0  0  0  0  0  0  0  0  0  0  0
   38.9384  -19.8003   37.1938 N   0  0  0  0  0  0  0  0  0  0  0  0
   38.1830  -19.4859   37.8514 H   0  0  0  0  0  0  0  0  0  0  0  0
   39.9881  -21.8861   37.8717 C   0  0  0  0  0  0  0  0  0  0  0  0
   41.0624  -22.5366   38.4169 C   0  0  0  0  0  0  0  0  0  0  0  0
   42.1512  -21.8988   38.8621 N   0  0  0  0  0  0  0  0  0  0  0  0
   42.2386  -20.5518   38.7901 C   0  0  0  0  0  0  0  0  0  0  0  0
   41.1665  -19.8758   38.2435 C   0  0  0  0  0  0  0  0  0  0  0  0
   40.0234  -20.5096   37.7738 C   0  0  0  0  0  0  0  0  0  0  0  0
   38.6517  -23.9272   37.6406 C   0  0  0  0  0  0  0  0  0  0  0  0
   38.8573  -22.5392   37.4086 O   0  0  0  0  0  0  0  0  0  0  0  0
   43.3849  -19.8365   39.2552 C   0  0  0  0  0  0  0  0  0  0  0  0
   44.3221  -19.2716   39.6424 N   0  0  0  0  0  0  0  0  0  0  0  0
   37.4759  -17.6107   36.0252 N   0  0  0  0  0  0  0  0  0  0  0  0
   38.2321  -17.2095   36.6093 H   0  0  0  0  0  0  0  0  0  0  0  0
   36.2246  -16.9427   35.9841 C   0  0  0  0  0  0  0  0  0  0  0  0
   35.1211  -17.5115   35.4823 N   0  0  0  0  0  0  0  0  0  0  0  0
   33.9616  -16.8504   35.4612 C   0  0  0  0  0  0  0  0  0  0  0  0
   33.8892  -15.5914   35.9496 N   0  0  0  0  0  0  0  0  0  0  0  0
   34.9784  -14.9799   36.4651 C   0  0  0  0  0  0  0  0  0  0  0  0
   35.1856  -13.7628   37.0059 N   0  0  0  0  0  0  0  0  0  0  0  0
   36.4503  -13.6139   37.3787 C   0  0  0  0  0  0  0  0  0  0  0  0
   37.0746  -14.7980   37.0570 C   0  0  0  0  0  0  0  0  0  0  0  0
   36.1519  -15.6628   36.4809 C   0  0  0  0  0  0  0  0  0  0  0  0
   34.4336  -13.0464   37.1079 H   0  0  0  0  0  0  0  0  0  0  0  0
 15 16  1  0  0  0
 16  9  1  0  0  0
  9 10  2  0  0  0
 10 11  1  0  0  0
 11 12  2  0  0  0
 12 13  1  0  0  0
 13 14  2  0  0  0
 14  7  1  0  0  0
  7  1  1  0  0  0
  1  2  1  0  0  0
  2  3  1  0  0  0
  3  4  1  0  0  0
  4  5  1  0  0  0
  5 19  1  0  0  0
 19 21  1  0  0  0
 21 22  2  0  0  0
 22 23  1  0  0  0
 23 24  2  0  0  0
 24 25  1  0  0  0
 25 26  1  0  0  0
 26 27  1  0  0  0
 27 28  2  0  0  0
 28 29  1  0  0  0
 12 17  1  0  0  0
 17 18  3  0  0  0
 14  9  1  0  0  0
  5  1  1  0  0  0
 29 21  1  0  0  0
 29 25  2  0  0  0
  7  8  1  0  0  0
  3  6  1  0  0  0
 19 20  1  0  0  0
 26 30  1  0  0  0
M  END
> <minimizedAffinity>
-5.30643

> <CNNscore>
0.3375037014

> <CNNaffinity>
5.2710752487

> <CNN_VS>
1.7790074348

> <CNNaffinity_variance>
0.1463834643

$$$$
[H]OC(=O)[C@@]1([H])N([C@]2([H])C([H])([H])C([H])([H])[C@@]([H])(c3c([H])c([H])c([H])c([H])c3C([H])([H])O[H])C([H])([H])C2([H])[H])C([H])([H])C([H])([H])C1([H])[H]


 24 26  0  0  0  0  0  0  0  0999 V2000
   34.3233  -19.6031   35.3489 C   0  0  0  0  0  0  0  0  0  0  0  0
   34.0533  -19.9953   36.7984 C   0  0  0  0  0  0  0  0  0  0  0  0
   32.9835  -20.9903   36.9935 C   0  0  0  0  0  0  0  0  0  0  0  0
   31.7207  -20.7012   36.2486 C   0  0  0  0  0  0  0  0  0  0  0  0
   31.8951  -20.0509   34.9168 C   0  0  0  0  0  0  0  0  0  0  0  0
   33.3135  -20.1273   34.4182 C   0  0  0  0  0  0  0  0  0  0  0  0
   35.9543  -17.7133   35.4379 C   0  0  0  0  0  0  0  0  0  0  0  0
   36.2257  -16.3731   35.7476 C   0  0  0  0  0  0  0  0  0  0  0  0
   35.1677  -15.5380   35.9386 C   0  0  0  0  0  0  0  0  0  0  0  0
   33.8757  -15.8787   35.8240 C   0  0  0  0  0  0  0  0  0  0  0  0
   33.6395  -17.2348   35.5004 C   0  0  0  0  0  0  0  0  0  0  0  0
   34.6200  -18.1464   35.3310 C   0  0  0  0  0  0  0  0  0  0  0  0
   37.7759  -18.8029   36.3753 O   0  0  0  0  0  0  0  0  0  0  0  0
   36.9859  -18.6826   35.1914 C   0  0  0  0  0  0  0  0  0  0  0  0
   37.3220  -18.7682   37.2048 H   0  0  0  0  0  0  0  0  0  0  0  0
   31.0410  -21.9801   36.0942 N   0  0  0  0  0  0  0  0  0  0  0  0
   30.0533  -21.9276   35.0352 C   0  0  0  0  0  0  0  0  0  0  0  0
   28.7034  -21.7473   35.6744 C   0  0  0  0  0  0  0  0  0  0  0  0
   29.0536  -21.4955   37.1273 C   0  0  0  0  0  0  0  0  0  0  0  0
   30.2789  -22.3419   37.2602 C   0  0  0  0  0  0  0  0  0  0  0  0
   29.9307  -23.7606   37.2315 C   0  0  0  0  0  0  0  0  0  0  0  0
   28.7818  -24.0967   37.9928 O   0  0  0  0  0  0  0  0  0  0  0  0
   30.5139  -24.6619   36.6630 O   0  0  0  0  0  0  0  0  0  0  0  0
   28.2565  -24.9389   37.7884 H   0  0  0  0  0  0  0  0  0  0  0  0
 13 14  1  0  0  0
 14  7  1  0  0  0
  7  8  2  0  0  0
  8  9  1  0  0  0
  9 10  2  0  0  0
 10 11  1  0  0  0
 11 12  2  0  0  0
 12  1  1  0  0  0
  1  2  1  0  0  0
  2  3  1  0  0  0
  3  4  1  0  0  0
  4  5  1  0  0  0
  5  6  1  0  0  0
  4 16  1  0  0  0
 16 17  1  0  0  0
 17 18  1  0  0  0
 18 19  1  0  0  0
 19 20  1  0  0  0
 20 21  1  0  0  0
 21 22  1  0  0  0
 21 23  2  0  0  0
 12  7  1  0  0  0
  6  1  1  0  0  0
 20 16  1  0  0  0
 13 15  1  0  0  0
 22 24  1  0  0  0
M  END
> <minimizedAffinity>
-4.90905

> <CNNscore>
0.5184065104

> <CNNaffinity>
4.0849189758

> <CNN_VS>
2.1176486015

> <CNNaffinity_variance>
0.3078967631

$$$$
[H]OC(=O)[C@@]1([H])N([C@]2([H])C([H])([H])C([H])([H])[C@@]([H])(c3c([H])c([H])c([H])c([H])c3C([H])([H])O[H])C([H])([H])C2([H])[H])C([H])([H])C([H])([H])C1([H])[H]


 24 26  0  0  0  0  0  0  0  0999 V2000
   35.0723  -18.4103   35.4525 C   0  0  0  0  0  0  0  0  0  0  0  0
   34.5335  -19.1965   36.6439 C   0  0  0  0  0  0  0  0  0  0  0  0
   33.3873  -20.0761   36.3525 C   0  0  0  0  0  0  0  0  0  0  0  0
   32.2915  -19.4315   35.5669 C   0  0  0  0  0  0  0  0  0  0  0  0
   32.7320  -18.4269   34.5551 C   0  0  0  0  0  0  0  0  0  0  0  0
   34.2076  -18.5054   34.2677 C   0  0  0  0  0  0  0  0  0  0  0  0
   36.6502  -16.9091   36.6759 C   0  0  0  0  0  0  0  0  0  0  0  0
   36.8648  -15.7391   37.4179 C   0  0  0  0  0  0  0  0  0  0  0  0
   35.8897  -14.7893   37.4034 C   0  0  0  0  0  0  0  0  0  0  0  0
   34.7442  -14.8594   36.7097 C   0  0  0  0  0  0  0  0  0  0  0  0
   34.5660  -16.0479   35.9647 C   0  0  0  0  0  0  0  0  0  0  0  0
   35.4563  -17.0620   35.9474 C   0  0  0  0  0  0  0  0  0  0  0  0
   38.2368  -17.9102   35.3104 O   0  0  0  0  0  0  0  0  0  0  0  0
   37.6148  -17.9710   36.5948 C   0  0  0  0  0  0  0  0  0  0  0  0
   38.4200  -17.0517   34.9576 H   0  0  0  0  0  0  0  0  0  0  0  0
   31.5716  -20.5157   34.9130 N   0  0  0  0  0  0  0  0  0  0  0  0
   30.1697  -20.1907   34.7437 C   0  0  0  0  0  0  0  0  0  0  0  0
   29.4022  -20.8830   35.8369 C   0  0  0  0  0  0  0  0  0  0  0  0
   30.5037  -21.4264   36.7247 C   0  0  0  0  0  0  0  0  0  0  0  0
   31.5546  -21.7190   35.7024 C   0  0  0  0  0  0  0  0  0  0  0  0
   31.1729  -22.8687   34.8856 C   0  0  0  0  0  0  0  0  0  0  0  0
   31.9048  -22.9967   33.6770 O   0  0  0  0  0  0  0  0  0  0  0  0
   30.3063  -23.6900   35.1097 O   0  0  0  0  0  0  0  0  0  0  0  0
   31.9783  -23.8940   33.2118 H   0  0  0  0  0  0  0  0  0  0  0  0
 13 14  1  0  0  0
 14  7  1  0  0  0
  7  8  2  0  0  0
  8  9  1  0  0  0
  9 10  2  0  0  0
 10 11  1  0  0  0
 11 12  2  0  0  0
 12  1  1  0  0  0
  1  2  1  0  0  0
  2  3  1  0  0  0
  3  4  1  0  0  0
  4  5  1  0  0  0
  5  6  1  0  0  0
  4 16  1  0  0  0
 16 17  1  0  0  0
 17 18  1  0  0  0
 18 19  1  0  0  0
 19 20  1  0  0  0
 20 21  1  0  0  0
 21 22  1  0  0  0
 21 23  2  0  0  0
 12  7  1  0  0  0
  6  1  1  0  0  0
 20 16  1  0  0  0
 13 15  1  0  0  0
 22 24  1  0  0  0
M  END
> <minimizedAffinity>
-6.60515

> <CNNscore>
0.5181646943

> <CNNaffinity>
4.3245034218

> <CNN_VS>
2.2408049107

> <CNNaffinity_variance>
0.5925477147

$$$$
[H]OC(=O)[C@@]1([H])N([C@]2([H])C([H])([H])C([H])([H])[C@@]([H])(c3c([H])c([H])c([H])c([H])c3C([H])([H])O[H])C([H])([H])C2([H])[H])C([H])([H])C([H])([H])C1([H])[H]


 24 26  0  0  0  0  0  0  0  0999 V2000
   36.3067  -19.1388   36.3706 C   0  0  0  0  0  0  0  0  0  0  0  0
   37.0726  -20.4559   36.4512 C   0  0  0  0  0  0  0  0  0  0  0  0
   38.4972  -20.3805   36.0806 C   0  0  0  0  0  0  0  0  0  0  0  0
   38.7712  -19.6522   34.8048 C   0  0  0  0  0  0  0  0  0  0  0  0
   37.8674  -18.5003   34.5160 C   0  0  0  0  0  0  0  0  0  0  0  0
   37.0785  -18.0684   35.7232 C   0  0  0  0  0  0  0  0  0  0  0  0
   34.0757  -20.2309   36.6349 C   0  0  0  0  0  0  0  0  0  0  0  0
   32.9372  -20.7974   36.0447 C   0  0  0  0  0  0  0  0  0  0  0  0
   32.7241  -20.5632   34.7207 C   0  0  0  0  0  0  0  0  0  0  0  0
   33.4968  -19.8045   33.9296 C   0  0  0  0  0  0  0  0  0  0  0  0
   34.6298  -19.2406   34.5603 C   0  0  0  0  0  0  0  0  0  0  0  0
   34.9465  -19.4471   35.8559 C   0  0  0  0  0  0  0  0  0  0  0  0
   33.3133  -21.0779   38.6561 O   0  0  0  0  0  0  0  0  0  0  0  0
   34.3940  -20.3874   38.0273 C   0  0  0  0  0  0  0  0  0  0  0  0
   32.8987  -21.7725   38.1656 H   0  0  0  0  0  0  0  0  0  0  0  0
   40.1513  -19.1946   34.8891 N   0  0  0  0  0  0  0  0  0  0  0  0
   40.5416  -18.4738   33.6942 C   0  0  0  0  0  0  0  0  0  0  0  0
   41.3329  -19.4152   32.8276 C   0  0  0  0  0  0  0  0  0  0  0  0
   41.1618  -20.7439   33.5361 C   0  0  0  0  0  0  0  0  0  0  0  0
   41.0886  -20.2847   34.9570 C   0  0  0  0  0  0  0  0  0  0  0  0
   42.3947  -19.8166   35.4150 C   0  0  0  0  0  0  0  0  0  0  0  0
   43.4934  -20.5521   34.9006 O   0  0  0  0  0  0  0  0  0  0  0  0
   42.6353  -18.9080   36.1847 O   0  0  0  0  0  0  0  0  0  0  0  0
   44.4177  -20.1386   34.8627 H   0  0  0  0  0  0  0  0  0  0  0  0
 13 14  1  0  0  0
 14  7  1  0  0  0
  7  8  2  0  0  0
  8  9  1  0  0  0
  9 10  2  0  0  0
 10 11  1  0  0  0
 11 12  2  0  0  0
 12  1  1  0  0  0
  1  2  1  0  0  0
  2  3  1  0  0  0
  3  4  1  0  0  0
  4  5  1  0  0  0
  5  6  1  0  0  0
  4 16  1  0  0  0
 16 17  1  0  0  0
 17 18  1  0  0  0
 18 19  1  0  0  0
 19 20  1  0  0  0
 20 21  1  0  0  0
 21 22  1  0  0  0
 21 23  2  0  0  0
 12  7  1  0  0  0
  6  1  1  0  0  0
 20 16  1  0  0  0
 13 15  1  0  0  0
 22 24  1  0  0  0
M  END
> <minimizedAffinity>
-4.87281

> <CNNscore>
0.4600798786

> <CNNaffinity>
4.2894678116

> <CNN_VS>
1.9734978676

> <CNNaffinity_variance>
0.0504820123

$$$$
[H]OC(=O)[C@@]1([H])N([C@]2([H])C([H])([H])C([H])([H])[C@@]([H])(c3c([H])c([H])c([H])c([H])c3C([H])([H])O[H])C([H])([H])C2([H])[H])C([H])([H])C([H])([H])C1([H])[H]


 24 26  0  0  0  0  0  0  0  0999 V2000
   36.5270  -17.6527   34.8635 C   0  0  0  0  0  0  0  0  0  0  0  0
   37.0185  -18.4086   36.0942 C   0  0  0  0  0  0  0  0  0  0  0  0
   38.4216  -18.8569   36.0400 C   0  0  0  0  0  0  0  0  0  0  0  0
   38.8069  -19.5453   34.7709 C   0  0  0  0  0  0  0  0  0  0  0  0
   38.1431  -19.0342   33.5359 C   0  0  0  0  0  0  0  0  0  0  0  0
   37.4813  -17.6986   33.7465 C   0  0  0  0  0  0  0  0  0  0  0  0
   34.0801  -17.4355   35.3168 C   0  0  0  0  0  0  0  0  0  0  0  0
   32.8065  -18.0209   35.3471 C   0  0  0  0  0  0  0  0  0  0  0  0
   32.6334  -19.2008   34.6904 C   0  0  0  0  0  0  0  0  0  0  0  0
   33.5738  -19.8437   33.9828 C   0  0  0  0  0  0  0  0  0  0  0  0
   34.8425  -19.2196   33.9652 C   0  0  0  0  0  0  0  0  0  0  0  0
   35.1219  -18.0715   34.6171 C   0  0  0  0  0  0  0  0  0  0  0  0
   33.3156  -15.2723   35.6637 O   0  0  0  0  0  0  0  0  0  0  0  0
   34.3790  -16.1815   35.9514 C   0  0  0  0  0  0  0  0  0  0  0  0
   32.4365  -15.6219   35.6557 H   0  0  0  0  0  0  0  0  0  0  0  0
   40.2518  -19.4023   34.6563 N   0  0  0  0  0  0  0  0  0  0  0  0
   40.7045  -19.6874   33.3097 C   0  0  0  0  0  0  0  0  0  0  0  0
   41.2493  -21.0897   33.2952 C   0  0  0  0  0  0  0  0  0  0  0  0
   40.8666  -21.6100   34.6662 C   0  0  0  0  0  0  0  0  0  0  0  0
   40.9644  -20.3526   35.4691 C   0  0  0  0  0  0  0  0  0  0  0  0
   42.3601  -19.9518   35.6308 C   0  0  0  0  0  0  0  0  0  0  0  0
   42.5545  -18.5540   35.7758 O   0  0  0  0  0  0  0  0  0  0  0  0
   43.3462  -20.6612   35.6309 O   0  0  0  0  0  0  0  0  0  0  0  0
   43.3907  -18.1935   36.2204 H   0  0  0  0  0  0  0  0  0  0  0  0
 13 14  1  0  0  0
 14  7  1  0  0  0
  7  8  2  0  0  0
  8  9  1  0  0  0
  9 10  2  0  0  0
 10 11  1  0  0  0
 11 12  2  0  0  0
 12  1  1  0  0  0
  1  2  1  0  0  0
  2  3  1  0  0  0
  3  4  1  0  0  0
  4  5  1  0  0  0
  5  6  1  0  0  0
  4 16  1  0  0  0
 16 17  1  0  0  0
 17 18  1  0  0  0
 18 19  1  0  0  0
 19 20  1  0  0  0
 20 21  1  0  0  0
 21 22  1  0  0  0
 21 23  2  0  0  0
 12  7  1  0  0  0
  6  1  1  0  0  0
 20 16  1  0  0  0
 13 15  1  0  0  0
 22 24  1  0  0  0
M  END
> <minimizedAffinity>
-5.66580

> <CNNscore>
0.4519005120

> <CNNaffinity>
4.3699064255

> <CNN_VS>
1.9747629166

> <CNNaffinity_variance>
0.1877385080

$$$$
[H]OC(=O)[C@@]1([H])N([C@]2([H])C([H])([H])C([H])([H])[C@@]([H])(c3c([H])c([H])c([H])c([H])c3C([H])([H])O[H])C([H])([H])C2([H])[H])C([H])([H])C([H])([H])C1([H])[H]


 24 26  0  0  0  0  0  0  0  0999 V2000
   39.7614  -19.4604   36.5673 C   0  0  0  0  0  0  0  0  0  0  0  0
   38.5578  -20.3965   36.5148 C   0  0  0  0  0  0  0  0  0  0  0  0
   37.3538  -19.8399   35.8719 C   0  0  0  0  0  0  0  0  0  0  0  0
   36.9765  -18.4705   36.3361 C   0  0  0  0  0  0  0  0  0  0  0  0
   38.1173  -17.5716   36.6791 C   0  0  0  0  0  0  0  0  0  0  0  0
   39.4339  -18.0862   36.1613 C   0  0  0  0  0  0  0  0  0  0  0  0
   41.7516  -19.2167   38.0570 C   0  0  0  0  0  0  0  0  0  0  0  0
   42.5061  -19.6859   39.1416 C   0  0  0  0  0  0  0  0  0  0  0  0
   41.9211  -20.5827   39.9824 C   0  0  0  0  0  0  0  0  0  0  0  0
   40.6635  -21.0377   39.8833 C   0  0  0  0  0  0  0  0  0  0  0  0
   39.9288  -20.5355   38.7845 C   0  0  0  0  0  0  0  0  0  0  0  0
   40.4339  -19.6751   37.8757 C   0  0  0  0  0  0  0  0  0  0  0  0
   42.2965  -18.8682   35.8286 O   0  0  0  0  0  0  0  0  0  0  0  0
   42.2514  -18.2522   37.1166 C   0  0  0  0  0  0  0  0  0  0  0  0
   41.5883  -19.4535   35.6030 H   0  0  0  0  0  0  0  0  0  0  0  0
   36.1844  -17.8844   35.2637 N   0  0  0  0  0  0  0  0  0  0  0  0
   35.7775  -16.5318   35.5876 C   0  0  0  0  0  0  0  0  0  0  0  0
   34.3515  -16.5827   36.0646 C   0  0  0  0  0  0  0  0  0  0  0  0
   34.0901  -18.0714   36.1754 C   0  0  0  0  0  0  0  0  0  0  0  0
   34.9411  -18.5790   35.0559 C   0  0  0  0  0  0  0  0  0  0  0  0
   34.3589  -18.2230   33.7639 C   0  0  0  0  0  0  0  0  0  0  0  0
   33.0959  -17.5821   33.8478 O   0  0  0  0  0  0  0  0  0  0  0  0
   34.8132  -18.4310   32.6566 O   0  0  0  0  0  0  0  0  0  0  0  0
   32.7614  -17.0015   33.0877 H   0  0  0  0  0  0  0  0  0  0  0  0
 13 14  1  0  0  0
 14  7  1  0  0  0
  7  8  2  0  0  0
  8  9  1  0  0  0
  9 10  2  0  0  0
 10 11  1  0  0  0
 11 12  2  0  0  0
 12  1  1  0  0  0
  1  2  1  0  0  0
  2  3  1  0  0  0
  3  4  1  0  0  0
  4  5  1  0  0  0
  5  6  1  0  0  0
  4 16  1  0  0  0
 16 17  1  0  0  0
 17 18  1  0  0  0
 18 19  1  0  0  0
 19 20  1  0  0  0
 20 21  1  0  0  0
 21 22  1  0  0  0
 21 23  2  0  0  0
 12  7  1  0  0  0
  6  1  1  0  0  0
 20 16  1  0  0  0
 13 15  1  0  0  0
 22 24  1  0  0  0
M  END
> <minimizedAffinity>
-1.80894

> <CNNscore>
0.4074073434

> <CNNaffinity>
4.2944364548

> <CNN_VS>
1.7495849133

> <CNNaffinity_variance>
0.1333721876

$$$$
[H]OC(=O)[C@@]1([H])N([C@]2([H])C([H])([H])C([H])([H])[C@@]([H])(c3c([H])c([H])c([H])c([H])c3C([H])([H])O[H])C([H])([H])C2([H])[H])C([H])([H])C([H])([H])C1([H])[H]


 24 26  0  0  0  0  0  0  0  0999 V2000
   32.1171  -21.1067   34.7837 C   0  0  0  0  0  0  0  0  0  0  0  0
   31.6422  -19.8673   34.0316 C   0  0  0  0  0  0  0  0  0  0  0  0
   32.5741  -18.7253   34.0461 C   0  0  0  0  0  0  0  0  0  0  0  0
   33.1211  -18.3850   35.3944 C   0  0  0  0  0  0  0  0  0  0  0  0
   33.3544  -19.5447   36.3043 C   0  0  0  0  0  0  0  0  0  0  0  0
   33.3299  -20.8629   35.5777 C   0  0  0  0  0  0  0  0  0  0  0  0
   30.5274  -23.0035   35.1233 C   0  0  0  0  0  0  0  0  0  0  0  0
   29.2514  -23.4509   35.4934 C   0  0  0  0  0  0  0  0  0  0  0  0
   28.4452  -22.5858   36.1680 C   0  0  0  0  0  0  0  0  0  0  0  0
   28.7780  -21.3418   36.5424 C   0  0  0  0  0  0  0  0  0  0  0  0
   30.0754  -20.9278   36.1619 C   0  0  0  0  0  0  0  0  0  0  0  0
   30.9315  -21.6981   35.4583 C   0  0  0  0  0  0  0  0  0  0  0  0
   32.3418  -24.4233   35.3994 O   0  0  0  0  0  0  0  0  0  0  0  0
   31.4753  -23.8316   34.4302 C   0  0  0  0  0  0  0  0  0  0  0  0
   31.9538  -24.6989   36.2170 H   0  0  0  0  0  0  0  0  0  0  0  0
   34.3721  -17.6782   35.1562 N   0  0  0  0  0  0  0  0  0  0  0  0
   35.0046  -18.1245   33.9312 C   0  0  0  0  0  0  0  0  0  0  0  0
   36.0934  -19.0939   34.3030 C   0  0  0  0  0  0  0  0  0  0  0  0
   35.8648  -19.2987   35.7871 C   0  0  0  0  0  0  0  0  0  0  0  0
   35.3568  -17.9460   36.1711 C   0  0  0  0  0  0  0  0  0  0  0  0
   36.4326  -16.9586   36.1221 C   0  0  0  0  0  0  0  0  0  0  0  0
   37.6614  -17.4041   36.6737 O   0  0  0  0  0  0  0  0  0  0  0  0
   36.3853  -15.8224   35.6949 O   0  0  0  0  0  0  0  0  0  0  0  0
   38.5355  -16.9688   36.4030 H   0  0  0  0  0  0  0  0  0  0  0  0
 13 14  1  0  0  0
 14  7  1  0  0  0
  7  8  2  0  0  0
  8  9  1  0  0  0
  9 10  2  0  0  0
 10 11  1  0  0  0
 11 12  2  0  0  0
 12  1  1  0  0  0
  1  2  1  0  0  0
  2  3  1  0  0  0
  3  4  1  0  0  0
  4  5  1  0  0  0
  5  6  1  0  0  0
  4 16  1  0  0  0
 16 17  1  0  0  0
 17 18  1  0  0  0
 18 19  1  0  0  0
 19 20  1  0  0  0
 20 21  1  0  0  0
 21 22  1  0  0  0
 21 23  2  0  0  0
 12  7  1  0  0  0
  6  1  1  0  0  0
 20 16  1  0  0  0
 13 15  1  0  0  0
 22 24  1  0  0  0
M  END
> <minimizedAffinity>
-5.92799

> <CNNscore>
0.3876127005

> <CNNaffinity>
4.2100844383

> <CNN_VS>
1.6318821907

> <CNNaffinity_variance>
0.4271732867

$$$$
[H]OC(=O)[C@@]1([H])N([C@]2([H])C([H])([H])C([H])([H])[C@@]([H])(c3c([H])c([H])c([H])c([H])c3C([H])([H])O[H])C([H])([H])C2([H])[H])C([H])([H])C([H])([H])C1([H])[H]


 24 26  0  0  0  0  0  0  0  0999 V2000
   36.5611  -18.1075   35.1077 C   0  0  0  0  0  0  0  0  0  0  0  0
   36.7743  -18.9975   36.3284 C   0  0  0  0  0  0  0  0  0  0  0  0
   38.0925  -19.6520   36.4090 C   0  0  0  0  0  0  0  0  0  0  0  0
   38.5347  -20.3193   35.1471 C   0  0  0  0  0  0  0  0  0  0  0  0
   38.1175  -19.6442   33.8833 C   0  0  0  0  0  0  0  0  0  0  0  0
   37.6351  -18.2368   34.1125 C   0  0  0  0  0  0  0  0  0  0  0  0
   34.1479  -17.4697   35.2052 C   0  0  0  0  0  0  0  0  0  0  0  0
   32.8018  -17.8318   35.0554 C   0  0  0  0  0  0  0  0  0  0  0  0
   32.5242  -18.9843   34.3860 C   0  0  0  0  0  0  0  0  0  0  0  0
   33.4312  -19.7960   33.8231 C   0  0  0  0  0  0  0  0  0  0  0  0
   34.7774  -19.3946   33.9845 C   0  0  0  0  0  0  0  0  0  0  0  0
   35.1539  -18.2914   34.6646 C   0  0  0  0  0  0  0  0  0  0  0  0
   33.4353  -15.3953   35.9624 O   0  0  0  0  0  0  0  0  0  0  0  0
   34.5639  -16.2660   35.8705 C   0  0  0  0  0  0  0  0  0  0  0  0
   32.5955  -15.7917   36.1432 H   0  0  0  0  0  0  0  0  0  0  0  0
   39.9876  -20.3935   35.2170 N   0  0  0  0  0  0  0  0  0  0  0  0
   40.4241  -21.0383   36.4391 C   0  0  0  0  0  0  0  0  0  0  0  0
   40.8376  -19.9612   37.4047 C   0  0  0  0  0  0  0  0  0  0  0  0
   40.3964  -18.6943   36.6995 C   0  0  0  0  0  0  0  0  0  0  0  0
   40.6023  -19.0934   35.2735 C   0  0  0  0  0  0  0  0  0  0  0  0
   42.0275  -19.1807   34.9636 C   0  0  0  0  0  0  0  0  0  0  0  0
   42.3529  -20.1413   33.9716 O   0  0  0  0  0  0  0  0  0  0  0  0
   42.9410  -18.5560   35.4647 O   0  0  0  0  0  0  0  0  0  0  0  0
   43.2132  -20.0636   33.4418 H   0  0  0  0  0  0  0  0  0  0  0  0
 13 14  1  0  0  0
 14  7  1  0  0  0
  7  8  2  0  0  0
  8  9  1  0  0  0
  9 10  2  0  0  0
 10 11  1  0  0  0
 11 12  2  0  0  0
 12  1  1  0  0  0
  1  2  1  0  0  0
  2  3  1  0  0  0
  3  4  1  0  0  0
  4  5  1  0  0  0
  5  6  1  0  0  0
  4 16  1  0  0  0
 16 17  1  0  0  0
 17 18  1  0  0  0
 18 19  1  0  0  0
 19 20  1  0  0  0
 20 21  1  0  0  0
 21 22  1  0  0  0
 21 23  2  0  0  0
 12  7  1  0  0  0
  6  1  1  0  0  0
 20 16  1  0  0  0
 13 15  1  0  0  0
 22 24  1  0  0  0
M  END
> <minimizedAffinity>
-5.93047

> <CNNscore>
0.3806745410

> <CNNaffinity>
4.2712445259

> <CNN_VS>
1.6259540319

> <CNNaffinity_variance>
0.3435096145

$$$$
[H]OC(=O)[C@@]1([H])N([C@]2([H])C([H])([H])C([H])([H])[C@@]([H])(c3c([H])c([H])c([H])c([H])c3C([H])([H])O[H])C([H])([H])C2([H])[H])C([H])([H])C([H])([H])C1([H])[H]


 24 26  0  0  0  0  0  0  0  0999 V2000
   35.8787  -17.3670   36.2098 C   0  0  0  0  0  0  0  0  0  0  0  0
   37.2737  -17.8155   35.7850 C   0  0  0  0  0  0  0  0  0  0  0  0
   37.5885  -19.2311   36.0487 C   0  0  0  0  0  0  0  0  0  0  0  0
   37.2467  -19.6989   37.4261 C   0  0  0  0  0  0  0  0  0  0  0  0
   36.0271  -19.0853   38.0287 C   0  0  0  0  0  0  0  0  0  0  0  0
   35.1733  -18.3779   37.0104 C   0  0  0  0  0  0  0  0  0  0  0  0
   35.0969  -14.9975   36.3280 C   0  0  0  0  0  0  0  0  0  0  0  0
   35.3867  -13.6464   36.5653 C   0  0  0  0  0  0  0  0  0  0  0  0
   36.5524  -13.3486   37.2022 C   0  0  0  0  0  0  0  0  0  0  0  0
   37.4424  -14.2430   37.6565 C   0  0  0  0  0  0  0  0  0  0  0  0
   37.1129  -15.5957   37.4093 C   0  0  0  0  0  0  0  0  0  0  0  0
   36.0016  -15.9881   36.7519 C   0  0  0  0  0  0  0  0  0  0  0  0
   32.9804  -14.3346   35.6459 O   0  0  0  0  0  0  0  0  0  0  0  0
   33.8884  -15.4365   35.6868 C   0  0  0  0  0  0  0  0  0  0  0  0
   33.3450  -13.4786   35.4742 H   0  0  0  0  0  0  0  0  0  0  0  0
   37.0847  -21.1434   37.3335 N   0  0  0  0  0  0  0  0  0  0  0  0
   36.2132  -21.6440   38.3773 C   0  0  0  0  0  0  0  0  0  0  0  0
   37.0807  -22.2182   39.4642 C   0  0  0  0  0  0  0  0  0  0  0  0
   38.4732  -21.8037   39.0331 C   0  0  0  0  0  0  0  0  0  0  0  0
   38.3204  -21.8499   37.5466 C   0  0  0  0  0  0  0  0  0  0  0  0
   38.2138  -23.2311   37.0823 C   0  0  0  0  0  0  0  0  0  0  0  0
   37.4248  -23.3968   35.9148 O   0  0  0  0  0  0  0  0  0  0  0  0
   38.6930  -24.2277   37.5851 O   0  0  0  0  0  0  0  0  0  0  0  0
   37.5483  -24.2082   35.3205 H   0  0  0  0  0  0  0  0  0  0  0  0
 13 14  1  0  0  0
 14  7  1  0  0  0
  7  8  2  0  0  0
  8  9  1  0  0  0
  9 10  2  0  0  0
 10 11  1  0  0  0
 11 12  2  0  0  0
 12  1  1  0  0  0
  1  2  1  0  0  0
  2  3  1  0  0  0
  3  4  1  0  0  0
  4  5  1  0  0  0
  5  6  1  0  0  0
  4 16  1  0  0  0
 16 17  1  0  0  0
 17 18  1  0  0  0
 18 19  1  0  0  0
 19 20  1  0  0  0
 20 21  1  0  0  0
 21 22  1  0  0  0
 21 23  2  0  0  0
 12  7  1  0  0  0
  6  1  1  0  0  0
 20 16  1  0  0  0
 13 15  1  0  0  0
 22 24  1  0  0  0
M  END
> <minimizedAffinity>
-5.95301

> <CNNscore>
0.3755688369

> <CNNaffinity>
4.2994093895

> <CNN_VS>
1.6147241592

> <CNNaffinity_variance>
0.3193995357

$$$$
[H]OC(=O)[C@@]1([H])N([C@]2([H])C([H])([H])C([H])([H])[C@@]([H])(c3c([H])c([H])c([H])c([H])c3C([H])([H])O[H])C([H])([H])C2([H])[H])C([H])([H])C([H])([H])C1([H])[H]


 24 26  0  0  0  0  0  0  0  0999 V2000
   36.0779  -16.4225   36.1264 C   0  0  0  0  0  0  0  0  0  0  0  0
   36.1022  -16.9950   37.5404 C   0  0  0  0  0  0  0  0  0  0  0  0
   35.8638  -18.4463   37.6373 C   0  0  0  0  0  0  0  0  0  0  0  0
   34.6888  -18.9379   36.8557 C   0  0  0  0  0  0  0  0  0  0  0  0
   34.4309  -18.2279   35.5687 C   0  0  0  0  0  0  0  0  0  0  0  0
   35.6006  -17.3893   35.1274 C   0  0  0  0  0  0  0  0  0  0  0  0
   36.0860  -14.0285   36.8394 C   0  0  0  0  0  0  0  0  0  0  0  0
   35.3687  -12.8795   37.2012 C   0  0  0  0  0  0  0  0  0  0  0  0
   34.0383  -12.8441   36.9147 C   0  0  0  0  0  0  0  0  0  0  0  0
   33.3519  -13.8067   36.2818 C   0  0  0  0  0  0  0  0  0  0  0  0
   34.1089  -14.9457   35.9223 C   0  0  0  0  0  0  0  0  0  0  0  0
   35.4220  -15.0902   36.1981 C   0  0  0  0  0  0  0  0  0  0  0  0
   38.1086  -12.8928   36.9000 O   0  0  0  0  0  0  0  0  0  0  0  0
   37.4973  -14.1728   37.0676 C   0  0  0  0  0  0  0  0  0  0  0  0
   37.6333  -12.1400   37.2203 H   0  0  0  0  0  0  0  0  0  0  0  0
   34.9332  -20.3517   36.6054 N   0  0  0  0  0  0  0  0  0  0  0  0
   33.7598  -21.0001   36.0552 C   0  0  0  0  0  0  0  0  0  0  0  0
   33.0725  -21.7332   37.1749 C   0  0  0  0  0  0  0  0  0  0  0  0
   33.8343  -21.2634   38.3979 C   0  0  0  0  0  0  0  0  0  0  0  0
   35.1992  -21.0862   37.8142 C   0  0  0  0  0  0  0  0  0  0  0  0
   35.8020  -22.3820   37.5107 C   0  0  0  0  0  0  0  0  0  0  0  0
   36.7930  -22.3432   36.4962 O   0  0  0  0  0  0  0  0  0  0  0  0
   35.5386  -23.4620   38.0006 O   0  0  0  0  0  0  0  0  0  0  0  0
   37.4976  -23.0690   36.4363 H   0  0  0  0  0  0  0  0  0  0  0  0
 13 14  1  0  0  0
 14  7  1  0  0  0
  7  8  2  0  0  0
  8  9  1  0  0  0
  9 10  2  0  0  0
 10 11  1  0  0  0
 11 12  2  0  0  0
 12  1  1  0  0  0
  1  2  1  0  0  0
  2  3  1  0  0  0
  3  4  1  0  0  0
  4  5  1  0  0  0
  5  6  1  0  0  0
  4 16  1  0  0  0
 16 17  1  0  0  0
 17 18  1  0  0  0
 18 19  1  0  0  0
 19 20  1  0  0  0
 20 21  1  0  0  0
 21 22  1  0  0  0
 21 23  2  0  0  0
 12  7  1  0  0  0
  6  1  1  0  0  0
 20 16  1  0  0  0
 13 15  1  0  0  0
 22 24  1  0  0  0
M  END
> <minimizedAffinity>
-6.51342

> <CNNscore>
0.3706966639

> <CNNaffinity>
4.3013110161

> <CNN_VS>
1.5944815874

> <CNNaffinity_variance>
0.4508546293

$$$$
[H]C1=C(C(=O)[O-])N2C(=O)/C(=C(/[H])c3c([H])c([H])c(Br)c([H])c3[H])[C@]2([H])S1


 19 21  0  0  0  0  0  0  0  0999 V2000
   30.9699  -21.0526   36.3594 C   0  0  0  0  0  0  0  0  0  0  0  0
   29.8600  -20.7309   35.7384 C   0  0  0  0  0  0  0  0  0  0  0  0
   30.2953  -19.4458   34.5775 S   0  0  0  0  0  0  0  0  0  0  0  0
   32.0977  -19.8557   34.6023 C   0  0  0  0  0  0  0  0  0  0  0  0
   32.1102  -20.3362   35.9887 N   0  0  0  0  0  0  0  0  0  0  0  0
   33.4039  -19.7007   36.0792 C   0  0  0  0  0  0  0  0  0  0  0  0
   34.4538  -19.8424   36.7614 O   0  0  0  0  0  0  0  0  0  0  0  0
   32.9834  -18.7885   35.0128 C   0  0  0  0  0  0  0  0  0  0  0  0
   33.2822  -17.5749   34.5984 C   0  0  0  0  0  0  0  0  0  0  0  0
   34.2746  -16.7802   35.3212 C   0  0  0  0  0  0  0  0  0  0  0  0
   33.8876  -15.6260   35.9687 C   0  0  0  0  0  0  0  0  0  0  0  0
   34.7666  -14.8387   36.6810 C   0  0  0  0  0  0  0  0  0  0  0  0
   36.0924  -15.2192   36.7508 C   0  0  0  0  0  0  0  0  0  0  0  0
   37.3766  -14.1863   37.7144 Br  0  0  0  0  0  0  0  0  0  0  0  0
   36.4647  -16.3679   36.1037 C   0  0  0  0  0  0  0  0  0  0  0  0
   35.5876  -17.1605   35.3890 C   0  0  0  0  0  0  0  0  0  0  0  0
   32.1376  -22.9182   37.4526 O   0  0  0  0  0  0  0  0  0  0  0  0
   31.0457  -22.0973   37.4163 C   0  0  0  0  0  0  0  0  0  0  0  0
   30.1583  -22.2617   38.2750 O   0  0  0  0  0  0  0  0  0  0  0  0
 17 18  1  0  0  0
 18 19  2  0  0  0
 18  1  1  0  0  0
  1  2  2  0  0  0
  2  3  1  0  0  0
  3  4  1  0  0  0
  4  5  1  0  0  0
  5  6  1  0  0  0
  6  7  2  0  0  0
  6  8  1  0  0  0
  8  9  2  0  0  0
  9 10  1  0  0  0
 10 11  2  0  0  0
 11 12  1  0  0  0
 12 13  2  0  0  0
 13 14  1  0  0  0
 13 15  1  0  0  0
 15 16  2  0  0  0
  5  1  1  0  0  0
 16 10  1  0  0  0
  8  4  1  0  0  0
M  CHG 1  17  -1
M  END
> <minimizedAffinity>
-6.12006

> <CNNscore>
0.6998131871

> <CNNaffinity>
4.1729226112

> <CNN_VS>
2.9202663898

> <CNNaffinity_variance>
0.5023844838

$$$$
[H]C1=C(C(=O)[O-])N2C(=O)/C(=C(/[H])c3c([H])c([H])c(Br)c([H])c3[H])[C@]2([H])S1


 19 21  0  0  0  0  0  0  0  0999 V2000
   28.8858  -22.8216   38.1510 C   0  0  0  0  0  0  0  0  0  0  0  0
   27.8754  -22.0839   38.5457 C   0  0  0  0  0  0  0  0  0  0  0  0
   27.7814  -20.7173   37.4003 S   0  0  0  0  0  0  0  0  0  0  0  0
   28.7712  -21.5749   36.0957 C   0  0  0  0  0  0  0  0  0  0  0  0
   29.5836  -22.3590   37.0329 N   0  0  0  0  0  0  0  0  0  0  0  0
   30.6717  -22.1221   36.1133 C   0  0  0  0  0  0  0  0  0  0  0  0
   31.7511  -22.6905   35.7980 O   0  0  0  0  0  0  0  0  0  0  0  0
   29.9829  -20.9046   35.6782 C   0  0  0  0  0  0  0  0  0  0  0  0
   30.3034  -19.7477   35.1371 C   0  0  0  0  0  0  0  0  0  0  0  0
   31.7048  -19.4346   34.8594 C   0  0  0  0  0  0  0  0  0  0  0  0
   32.3901  -18.5701   35.6866 C   0  0  0  0  0  0  0  0  0  0  0  0
   33.7151  -18.2439   35.4928 C   0  0  0  0  0  0  0  0  0  0  0  0
   34.3880  -18.8050   34.4253 C   0  0  0  0  0  0  0  0  0  0  0  0
   36.2234  -18.4065   34.0830 Br  0  0  0  0  0  0  0  0  0  0  0  0
   33.6966  -19.6626   33.6108 C   0  0  0  0  0  0  0  0  0  0  0  0
   32.3688  -19.9930   33.8010 C   0  0  0  0  0  0  0  0  0  0  0  0
   30.3185  -24.8131   38.2958 O   0  0  0  0  0  0  0  0  0  0  0  0
   29.3078  -24.0713   38.8397 C   0  0  0  0  0  0  0  0  0  0  0  0
   28.7828  -24.4775   39.8940 O   0  0  0  0  0  0  0  0  0  0  0  0
 17 18  1  0  0  0
 18 19  2  0  0  0
 18  1  1  0  0  0
  1  2  2  0  0  0
  2  3  1  0  0  0
  3  4  1  0  0  0
  4  5  1  0  0  0
  5  6  1  0  0  0
  6  7  2  0  0  0
  6  8  1  0  0  0
  8  9  2  0  0  0
  9 10  1  0  0  0
 10 11  2  0  0  0
 11 12  1  0  0  0
 12 13  2  0  0  0
 13 14  1  0  0  0
 13 15  1  0  0  0
 15 16  2  0  0  0
  5  1  1  0  0  0
 16 10  1  0  0  0
  8  4  1  0  0  0
M  CHG 1  17  -1
M  END
> <minimizedAffinity>
-4.51141

> <CNNscore>
0.5745515227

> <CNNaffinity>
3.7759354115

> <CNN_VS>
2.1694693565

> <CNNaffinity_variance>
0.3744753897

$$$$
[H]C1=C(C(=O)[O-])N2C(=O)/C(=C(/[H])c3c([H])c([H])c(Br)c([H])c3[H])[C@]2([H])S1


 19 21  0  0  0  0  0  0  0  0999 V2000
   30.1287  -20.4334   35.5960 C   0  0  0  0  0  0  0  0  0  0  0  0
   30.1756  -19.3864   34.8069 C   0  0  0  0  0  0  0  0  0  0  0  0
   31.9045  -19.1002   34.4642 S   0  0  0  0  0  0  0  0  0  0  0  0
   32.4160  -20.8092   34.9490 C   0  0  0  0  0  0  0  0  0  0  0  0
   31.3596  -20.9896   35.9514 N   0  0  0  0  0  0  0  0  0  0  0  0
   32.3646  -21.6834   36.7223 C   0  0  0  0  0  0  0  0  0  0  0  0
   32.3896  -22.5745   37.6129 O   0  0  0  0  0  0  0  0  0  0  0  0
   33.3838  -20.8998   36.0200 C   0  0  0  0  0  0  0  0  0  0  0  0
   34.6147  -20.4871   36.2402 C   0  0  0  0  0  0  0  0  0  0  0  0
   35.2727  -20.7967   37.5091 C   0  0  0  0  0  0  0  0  0  0  0  0
   36.1198  -21.8814   37.5943 C   0  0  0  0  0  0  0  0  0  0  0  0
   36.7841  -22.2209   38.7532 C   0  0  0  0  0  0  0  0  0  0  0  0
   36.5953  -21.4437   39.8791 C   0  0  0  0  0  0  0  0  0  0  0  0
   37.4750  -21.8436   41.5255 Br  0  0  0  0  0  0  0  0  0  0  0  0
   35.7517  -20.3686   39.7820 C   0  0  0  0  0  0  0  0  0  0  0  0
   35.0839  -20.0240   38.6228 C   0  0  0  0  0  0  0  0  0  0  0  0
   28.1351  -20.2890   37.0258 O   0  0  0  0  0  0  0  0  0  0  0  0
   28.8609  -21.0101   36.1197 C   0  0  0  0  0  0  0  0  0  0  0  0
   28.4252  -22.1239   35.7711 O   0  0  0  0  0  0  0  0  0  0  0  0
 17 18  1  0  0  0
 18 19  2  0  0  0
 18  1  1  0  0  0
  1  2  2  0  0  0
  2  3  1  0  0  0
  3  4  1  0  0  0
  4  5  1  0  0  0
  5  6  1  0  0  0
  6  7  2  0  0  0
  6  8  1  0  0  0
  8  9  2  0  0  0
  9 10  1  0  0  0
 10 11  2  0  0  0
 11 12  1  0  0  0
 12 13  2  0  0  0
 13 14  1  0  0  0
 13 15  1  0  0  0
 15 16  2  0  0  0
  5  1  1  0  0  0
 16 10  1  0  0  0
  8  4  1  0  0  0
M  CHG 1  17  -1
M  END
> <minimizedAffinity>
-4.18783

> <CNNscore>
0.5461651087

> <CNNaffinity>
3.8429303169

> <CNN_VS>
2.0988745689

> <CNNaffinity_variance>
0.0924038962

$$$$
[H]C1=C(C(=O)[O-])N2C(=O)/C(=C(/[H])c3c([H])c([H])c(Br)c([H])c3[H])[C@]2([H])S1


 19 21  0  0  0  0  0  0  0  0999 V2000
   37.5812  -19.0004   35.8657 C   0  0  0  0  0  0  0  0  0  0  0  0
   38.1058  -18.6499   34.7156 C   0  0  0  0  0  0  0  0  0  0  0  0
   36.7469  -18.0950   33.6987 S   0  0  0  0  0  0  0  0  0  0  0  0
   35.6166  -17.8179   35.1349 C   0  0  0  0  0  0  0  0  0  0  0  0
   36.1938  -18.8773   35.9703 N   0  0  0  0  0  0  0  0  0  0  0  0
   34.8361  -19.1283   36.3940 C   0  0  0  0  0  0  0  0  0  0  0  0
   34.2619  -19.6131   37.4053 O   0  0  0  0  0  0  0  0  0  0  0  0
   34.3797  -18.5672   35.1201 C   0  0  0  0  0  0  0  0  0  0  0  0
   33.3282  -18.6705   34.3341 C   0  0  0  0  0  0  0  0  0  0  0  0
   32.2407  -19.5831   34.6854 C   0  0  0  0  0  0  0  0  0  0  0  0
   31.0004  -19.0767   35.0115 C   0  0  0  0  0  0  0  0  0  0  0  0
   29.9280  -19.8792   35.3368 C   0  0  0  0  0  0  0  0  0  0  0  0
   30.0999  -21.2495   35.3372 C   0  0  0  0  0  0  0  0  0  0  0  0
   28.6685  -22.4337   35.7769 Br  0  0  0  0  0  0  0  0  0  0  0  0
   31.3366  -21.7407   35.0113 C   0  0  0  0  0  0  0  0  0  0  0  0
   32.4143  -20.9406   34.6843 C   0  0  0  0  0  0  0  0  0  0  0  0
   39.7091  -19.2117   37.0767 O   0  0  0  0  0  0  0  0  0  0  0  0
   38.3803  -19.5231   37.0069 C   0  0  0  0  0  0  0  0  0  0  0  0
   37.8955  -20.2345   37.9074 O   0  0  0  0  0  0  0  0  0  0  0  0
 17 18  1  0  0  0
 18 19  2  0  0  0
 18  1  1  0  0  0
  1  2  2  0  0  0
  2  3  1  0  0  0
  3  4  1  0  0  0
  4  5  1  0  0  0
  5  6  1  0  0  0
  6  7  2  0  0  0
  6  8  1  0  0  0
  8  9  2  0  0  0
  9 10  1  0  0  0
 10 11  2  0  0  0
 11 12  1  0  0  0
 12 13  2  0  0  0
 13 14  1  0  0  0
 13 15  1  0  0  0
 15 16  2  0  0  0
  5  1  1  0  0  0
 16 10  1  0  0  0
  8  4  1  0  0  0
M  CHG 1  17  -1
M  END
> <minimizedAffinity>
-4.99054

> <CNNscore>
0.5048939586

> <CNNaffinity>
3.9971191883

> <CNN_VS>
2.0181212425

> <CNNaffinity_variance>
0.4418084025

$$$$
[H]C1=C(C(=O)[O-])N2C(=O)/C(=C(/[H])c3c([H])c([H])c(Br)c([H])c3[H])[C@]2([H])S1


 19 21  0  0  0  0  0  0  0  0999 V2000
   39.4939  -21.1170   35.2018 C   0  0  0  0  0  0  0  0  0  0  0  0
   40.1747  -20.8278   34.1184 C   0  0  0  0  0  0  0  0  0  0  0  0
   39.3213  -19.4629   33.3455 S   0  0  0  0  0  0  0  0  0  0  0  0
   38.4167  -18.9882   34.8861 C   0  0  0  0  0  0  0  0  0  0  0  0
   38.3499  -20.3491   35.4310 N   0  0  0  0  0  0  0  0  0  0  0  0
   37.0306  -19.9807   35.8887 C   0  0  0  0  0  0  0  0  0  0  0  0
   36.2462  -20.3274   36.8119 O   0  0  0  0  0  0  0  0  0  0  0  0
   36.9729  -19.0010   34.8012 C   0  0  0  0  0  0  0  0  0  0  0  0
   36.0469  -18.3923   34.0900 C   0  0  0  0  0  0  0  0  0  0  0  0
   34.6345  -18.6974   34.3159 C   0  0  0  0  0  0  0  0  0  0  0  0
   33.8777  -17.8768   35.1253 C   0  0  0  0  0  0  0  0  0  0  0  0
   32.5389  -18.0963   35.3683 C   0  0  0  0  0  0  0  0  0  0  0  0
   31.9262  -19.1839   34.7776 C   0  0  0  0  0  0  0  0  0  0  0  0
   30.0767  -19.5623   35.0617 Br  0  0  0  0  0  0  0  0  0  0  0  0
   32.6883  -19.9916   33.9753 C   0  0  0  0  0  0  0  0  0  0  0  0
   34.0303  -19.7757   33.7284 C   0  0  0  0  0  0  0  0  0  0  0  0
   40.1830  -23.4356   35.6361 O   0  0  0  0  0  0  0  0  0  0  0  0
   39.8733  -22.2050   36.1433 C   0  0  0  0  0  0  0  0  0  0  0  0
   39.9232  -22.0491   37.3783 O   0  0  0  0  0  0  0  0  0  0  0  0
 17 18  1  0  0  0
 18 19  2  0  0  0
 18  1  1  0  0  0
  1  2  2  0  0  0
  2  3  1  0  0  0
  3  4  1  0  0  0
  4  5  1  0  0  0
  5  6  1  0  0  0
  6  7  2  0  0  0
  6  8  1  0  0  0
  8  9  2  0  0  0
  9 10  1  0  0  0
 10 11  2  0  0  0
 11 12  1  0  0  0
 12 13  2  0  0  0
 13 14  1  0  0  0
 13 15  1  0  0  0
 15 16  2  0  0  0
  5  1  1  0  0  0
 16 10  1  0  0  0
  8  4  1  0  0  0
M  CHG 1  17  -1
M  END
> <minimizedAffinity>
-4.80263

> <CNNscore>
0.4529469013

> <CNNaffinity>
3.8457577229

> <CNN_VS>
1.7419240475

> <CNNaffinity_variance>
0.4098670483

$$$$
[H]C1=C(C(=O)[O-])N2C(=O)/C(=C(/[H])c3c([H])c([H])c(Br)c([H])c3[H])[C@]2([H])S1


 19 21  0  0  0  0  0  0  0  0999 V2000
   38.9846  -19.4840   35.9901 C   0  0  0  0  0  0  0  0  0  0  0  0
   39.6595  -19.5580   34.8677 C   0  0  0  0  0  0  0  0  0  0  0  0
   38.5735  -18.9371   33.5935 S   0  0  0  0  0  0  0  0  0  0  0  0
   37.4695  -18.0544   34.7848 C   0  0  0  0  0  0  0  0  0  0  0  0
   37.6796  -18.9961   35.8904 N   0  0  0  0  0  0  0  0  0  0  0  0
   36.2801  -18.7915   36.1824 C   0  0  0  0  0  0  0  0  0  0  0  0
   35.5300  -18.8639   37.1924 O   0  0  0  0  0  0  0  0  0  0  0  0
   36.0789  -18.4515   34.7718 C   0  0  0  0  0  0  0  0  0  0  0  0
   35.0932  -18.4708   33.8988 C   0  0  0  0  0  0  0  0  0  0  0  0
   33.7774  -18.9722   34.2940 C   0  0  0  0  0  0  0  0  0  0  0  0
   33.4010  -20.2531   33.9494 C   0  0  0  0  0  0  0  0  0  0  0  0
   32.1836  -20.7943   34.3026 C   0  0  0  0  0  0  0  0  0  0  0  0
   31.3005  -20.0231   35.0326 C   0  0  0  0  0  0  0  0  0  0  0  0
   29.5933  -20.6937   35.5619 Br  0  0  0  0  0  0  0  0  0  0  0  0
   31.6860  -18.7523   35.3693 C   0  0  0  0  0  0  0  0  0  0  0  0
   32.9050  -18.2055   35.0180 C   0  0  0  0  0  0  0  0  0  0  0  0
   40.8243  -19.5786   37.6166 O   0  0  0  0  0  0  0  0  0  0  0  0
   39.5339  -19.9051   37.3073 C   0  0  0  0  0  0  0  0  0  0  0  0
   38.8721  -20.5442   38.1473 O   0  0  0  0  0  0  0  0  0  0  0  0
 17 18  1  0  0  0
 18 19  2  0  0  0
 18  1  1  0  0  0
  1  2  2  0  0  0
  2  3  1  0  0  0
  3  4  1  0  0  0
  4  5  1  0  0  0
  5  6  1  0  0  0
  6  7  2  0  0  0
  6  8  1  0  0  0
  8  9  2  0  0  0
  9 10  1  0  0  0
 10 11  2  0  0  0
 11 12  1  0  0  0
 12 13  2  0  0  0
 13 14  1  0  0  0
 13 15  1  0  0  0
 15 16  2  0  0  0
  5  1  1  0  0  0
 16 10  1  0  0  0
  8  4  1  0  0  0
M  CHG 1  17  -1
M  END
> <minimizedAffinity>
-5.25785

> <CNNscore>
0.4490579665

> <CNNaffinity>
3.9914054871

> <CNN_VS>
1.7923724651

> <CNNaffinity_variance>
0.3682520986

$$$$
[H]C1=C(C(=O)[O-])N2C(=O)/C(=C(/[H])c3c([H])c([H])c(Br)c([H])c3[H])[C@]2([H])S1


 19 21  0  0  0  0  0  0  0  0999 V2000
   41.2970  -21.2779   38.3259 C   0  0  0  0  0  0  0  0  0  0  0  0
   41.4931  -21.1304   39.6146 C   0  0  0  0  0  0  0  0  0  0  0  0
   39.8725  -21.1076   40.3639 S   0  0  0  0  0  0  0  0  0  0  0  0
   39.0494  -21.9060   38.9140 C   0  0  0  0  0  0  0  0  0  0  0  0
   39.9648  -21.3479   37.9120 N   0  0  0  0  0  0  0  0  0  0  0  0
   38.7936  -21.2205   37.0766 C   0  0  0  0  0  0  0  0  0  0  0  0
   38.5425  -21.1842   35.8423 O   0  0  0  0  0  0  0  0  0  0  0  0
   37.9840  -21.1484   38.2953 C   0  0  0  0  0  0  0  0  0  0  0  0
   36.8206  -20.6516   38.6608 C   0  0  0  0  0  0  0  0  0  0  0  0
   36.0058  -19.9141   37.6959 C   0  0  0  0  0  0  0  0  0  0  0  0
   34.9700  -20.5511   37.0459 C   0  0  0  0  0  0  0  0  0  0  0  0
   34.1534  -19.9128   36.1374 C   0  0  0  0  0  0  0  0  0  0  0  0
   34.3798  -18.5782   35.8639 C   0  0  0  0  0  0  0  0  0  0  0  0
   33.2976  -17.6183   34.6182 Br  0  0  0  0  0  0  0  0  0  0  0  0
   35.4116  -17.9561   36.5161 C   0  0  0  0  0  0  0  0  0  0  0  0
   36.2325  -18.5913   37.4277 C   0  0  0  0  0  0  0  0  0  0  0  0
   42.2093  -20.7960   36.0955 O   0  0  0  0  0  0  0  0  0  0  0  0
   42.4008  -21.3485   37.3306 C   0  0  0  0  0  0  0  0  0  0  0  0
   43.4976  -21.8892   37.5686 O   0  0  0  0  0  0  0  0  0  0  0  0
 17 18  1  0  0  0
 18 19  2  0  0  0
 18  1  1  0  0  0
  1  2  2  0  0  0
  2  3  1  0  0  0
  3  4  1  0  0  0
  4  5  1  0  0  0
  5  6  1  0  0  0
  6  7  2  0  0  0
  6  8  1  0  0  0
  8  9  2  0  0  0
  9 10  1  0  0  0
 10 11  2  0  0  0
 11 12  1  0  0  0
 12 13  2  0  0  0
 13 14  1  0  0  0
 13 15  1  0  0  0
 15 16  2  0  0  0
  5  1  1  0  0  0
 16 10  1  0  0  0
  8  4  1  0  0  0
M  CHG 1  17  -1
M  END
> <minimizedAffinity>
-3.33133

> <CNNscore>
0.4354492128

> <CNNaffinity>
3.8389906883

> <CNN_VS>
1.6716854572

> <CNNaffinity_variance>
0.1137385368

$$$$
[H]C1=C(C(=O)[O-])N2C(=O)/C(=C(/[H])c3c([H])c([H])c(Br)c([H])c3[H])[C@]2([H])S1


 19 21  0  0  0  0  0  0  0  0999 V2000
   43.5003  -17.8795   35.8164 C   0  0  0  0  0  0  0  0  0  0  0  0
   44.6220  -18.5503   35.7034 C   0  0  0  0  0  0  0  0  0  0  0  0
   44.1869  -20.2750   35.8605 S   0  0  0  0  0  0  0  0  0  0  0  0
   42.4017  -19.9928   35.4721 C   0  0  0  0  0  0  0  0  0  0  0  0
   42.3501  -18.6401   36.0385 N   0  0  0  0  0  0  0  0  0  0  0  0
   41.0307  -19.0045   36.4992 C   0  0  0  0  0  0  0  0  0  0  0  0
   39.9597  -18.4079   36.7902 O   0  0  0  0  0  0  0  0  0  0  0  0
   41.4602  -20.4049   36.4898 C   0  0  0  0  0  0  0  0  0  0  0  0
   41.1332  -21.5256   37.0990 C   0  0  0  0  0  0  0  0  0  0  0  0
   40.0826  -21.5240   38.1164 C   0  0  0  0  0  0  0  0  0  0  0  0
   40.4104  -21.3112   39.4387 C   0  0  0  0  0  0  0  0  0  0  0  0
   39.4698  -21.2811   40.4458 C   0  0  0  0  0  0  0  0  0  0  0  0
   38.1414  -21.4720   40.1199 C   0  0  0  0  0  0  0  0  0  0  0  0
   36.7745  -21.4473   41.4524 Br  0  0  0  0  0  0  0  0  0  0  0  0
   37.8282  -21.6821   38.8028 C   0  0  0  0  0  0  0  0  0  0  0  0
   38.7670  -21.7129   37.7899 C   0  0  0  0  0  0  0  0  0  0  0  0
   42.8377  -15.7144   36.7718 O   0  0  0  0  0  0  0  0  0  0  0  0
   43.4204  -16.3956   35.7403 C   0  0  0  0  0  0  0  0  0  0  0  0
   43.8610  -15.7392   34.7774 O   0  0  0  0  0  0  0  0  0  0  0  0
 17 18  1  0  0  0
 18 19  2  0  0  0
 18  1  1  0  0  0
  1  2  2  0  0  0
  2  3  1  0  0  0
  3  4  1  0  0  0
  4  5  1  0  0  0
  5  6  1  0  0  0
  6  7  2  0  0  0
  6  8  1  0  0  0
  8  9  2  0  0  0
  9 10  1  0  0  0
 10 11  2  0  0  0
 11 12  1  0  0  0
 12 13  2  0  0  0
 13 14  1  0  0  0
 13 15  1  0  0  0
 15 16  2  0  0  0
  5  1  1  0  0  0
 16 10  1  0  0  0
  8  4  1  0  0  0
M  CHG 1  17  -1
M  END
> <minimizedAffinity>
-3.61061

> <CNNscore>
0.4202186763

> <CNNaffinity>
3.9651207924

> <CNN_VS>
1.6662178040

> <CNNaffinity_variance>
0.0341469720

$$$$
[H]C1=C(C(=O)[O-])N2C(=O)/C(=C(/[H])c3c([H])c([H])c(Br)c([H])c3[H])[C@]2([H])S1


 19 21  0  0  0  0  0  0  0  0999 V2000
   35.9331  -16.5768   36.3096 C   0  0  0  0  0  0  0  0  0  0  0  0
   36.3767  -16.4873   35.0783 C   0  0  0  0  0  0  0  0  0  0  0  0
   36.5846  -18.1647   34.5024 S   0  0  0  0  0  0  0  0  0  0  0  0
   35.4744  -18.8825   35.7945 C   0  0  0  0  0  0  0  0  0  0  0  0
   35.7767  -17.8703   36.8130 N   0  0  0  0  0  0  0  0  0  0  0  0
   35.7126  -18.9620   37.7562 C   0  0  0  0  0  0  0  0  0  0  0  0
   35.4607  -19.1060   38.9824 O   0  0  0  0  0  0  0  0  0  0  0  0
   36.0730  -19.8703   36.6648 C   0  0  0  0  0  0  0  0  0  0  0  0
   36.6488  -21.0468   36.5301 C   0  0  0  0  0  0  0  0  0  0  0  0
   37.1454  -21.7561   37.7088 C   0  0  0  0  0  0  0  0  0  0  0  0
   38.3646  -21.4109   38.2524 C   0  0  0  0  0  0  0  0  0  0  0  0
   38.8849  -22.0265   39.3705 C   0  0  0  0  0  0  0  0  0  0  0  0
   38.1566  -23.0325   39.9744 C   0  0  0  0  0  0  0  0  0  0  0  0
   38.8036  -23.9384   41.5253 Br  0  0  0  0  0  0  0  0  0  0  0  0
   36.9466  -23.3663   39.4253 C   0  0  0  0  0  0  0  0  0  0  0  0
   36.4207  -22.7522   38.3052 C   0  0  0  0  0  0  0  0  0  0  0  0
   36.5040  -15.0451   38.1446 O   0  0  0  0  0  0  0  0  0  0  0  0
   35.6245  -15.3944   37.1587 C   0  0  0  0  0  0  0  0  0  0  0  0
   34.5985  -14.7027   37.0145 O   0  0  0  0  0  0  0  0  0  0  0  0
 17 18  1  0  0  0
 18 19  2  0  0  0
 18  1  1  0  0  0
  1  2  2  0  0  0
  2  3  1  0  0  0
  3  4  1  0  0  0
  4  5  1  0  0  0
  5  6  1  0  0  0
  6  7  2  0  0  0
  6  8  1  0  0  0
  8  9  2  0  0  0
  9 10  1  0  0  0
 10 11  2  0  0  0
 11 12  1  0  0  0
 12 13  2  0  0  0
 13 14  1  0  0  0
 13 15  1  0  0  0
 15 16  2  0  0  0
  5  1  1  0  0  0
 16 10  1  0  0  0
  8  4  1  0  0  0
M  CHG 1  17  -1
M  END
> <minimizedAffinity>
-3.24743

> <CNNscore>
0.4149882793

> <CNNaffinity>
4.1112308502

> <CNN_VS>
1.7061126232

> <CNNaffinity_variance>
0.1797668785

$$$$
