[H]c1c([H])c(N([H])C(=O)c2c([H])c([H])c(-c3c([H])c([H])c(S(=O)(=O)N([H])[H])c([H])c3[H])c([H])c2[H])c([H])c(C(F)(F)F)c1[H]


 32 34  0  0  0  0  0  0  0  0999 V2000
   33.9560  -21.8513   38.7553 C   0  0  0  0  0  0  0  0  0  0  0  0
   35.0002  -21.6423   37.8916 C   0  0  0  0  0  0  0  0  0  0  0  0
   36.2923  -21.3594   38.3415 C   0  0  0  0  0  0  0  0  0  0  0  0
   36.5313  -21.2928   39.6843 C   0  0  0  0  0  0  0  0  0  0  0  0
   35.4956  -21.4946   40.5942 C   0  0  0  0  0  0  0  0  0  0  0  0
   34.2346  -21.7656   40.1261 C   0  0  0  0  0  0  0  0  0  0  0  0
   29.9735  -22.7658   37.4543 C   0  0  0  0  0  0  0  0  0  0  0  0
   30.7566  -21.7949   36.8378 C   0  0  0  0  0  0  0  0  0  0  0  0
   32.0306  -21.5320   37.2643 C   0  0  0  0  0  0  0  0  0  0  0  0
   32.6079  -22.2268   38.3491 C   0  0  0  0  0  0  0  0  0  0  0  0
   31.8393  -23.1723   38.9463 C   0  0  0  0  0  0  0  0  0  0  0  0
   30.5252  -23.4502   38.5093 C   0  0  0  0  0  0  0  0  0  0  0  0
   28.1629  -23.0639   35.2159 N   0  0  0  0  0  0  0  0  0  0  0  0
   28.3074  -22.9907   36.9167 S   0  0  0  0  0  0  0  0  0  0  0  0
   27.8428  -24.2928   37.5514 O   0  0  0  0  0  0  0  0  0  0  0  0
   27.4353  -21.9089   37.4966 O   0  0  0  0  0  0  0  0  0  0  0  0
   29.0313  -23.1938   34.6867 H   0  0  0  0  0  0  0  0  0  0  0  0
   27.6462  -22.1629   34.9337 H   0  0  0  0  0  0  0  0  0  0  0  0
   37.8683  -21.2045   40.2035 C   0  0  0  0  0  0  0  0  0  0  0  0
   38.7235  -21.0428   39.2009 O   0  0  0  0  0  0  0  0  0  0  0  0
   38.3554  -21.2711   41.4934 N   0  0  0  0  0  0  0  0  0  0  0  0
   37.7417  -21.3904   42.3088 H   0  0  0  0  0  0  0  0  0  0  0  0
   39.7974  -21.1589   41.6254 C   0  0  0  0  0  0  0  0  0  0  0  0
   40.3104  -19.9638   42.1458 C   0  0  0  0  0  0  0  0  0  0  0  0
   41.6405  -19.7712   42.4148 C   0  0  0  0  0  0  0  0  0  0  0  0
   42.5207  -20.7910   42.1621 C   0  0  0  0  0  0  0  0  0  0  0  0
   42.0095  -21.9889   41.6341 C   0  0  0  0  0  0  0  0  0  0  0  0
   40.6870  -22.1530   41.3793 C   0  0  0  0  0  0  0  0  0  0  0  0
   42.9838  -23.0539   41.3813 C   0  0  0  0  0  0  0  0  0  0  0  0
   42.9206  -24.0921   42.2549 F   0  0  0  0  0  0  0  0  0  0  0  0
   44.2445  -22.4814   41.4936 F   0  0  0  0  0  0  0  0  0  0  0  0
   42.8339  -23.5199   40.0951 F   0  0  0  0  0  0  0  0  0  0  0  0
 13 14  1  0  0  0
 14 15  2  0  0  0
 14 16  2  0  0  0
 14  7  1  0  0  0
  7  8  2  0  0  0
  8  9  1  0  0  0
  9 10  2  0  0  0
 10 11  1  0  0  0
 11 12  2  0  0  0
 10  1  1  0  0  0
  1  2  2  0  0  0
  2  3  1  0  0  0
  3  4  2  0  0  0
  4  5  1  0  0  0
  5  6  2  0  0  0
  4 19  1  0  0  0
 19 20  2  0  0  0
 19 21  1  0  0  0
 21 23  1  0  0  0
 23 24  2  0  0  0
 24 25  1  0  0  0
 25 26  2  0  0  0
 26 27  1  0  0  0
 27 28  2  0  0  0
 27 29  1  0  0  0
 29 30  1  0  0  0
 29 31  1  0  0  0
 29 32  1  0  0  0
 12  7  1  0  0  0
  6  1  1  0  0  0
 28 23  1  0  0  0
 13 17  1  0  0  0
 13 18  1  0  0  0
 21 22  1  0  0  0
M  END
> <minimizedAffinity>
-3.24217

> <CNNscore>
0.6453658342

> <CNNaffinity>
4.7035222054

> <CNN_VS>
3.0354924202

> <CNNaffinity_variance>
0.3055794239

$$$$
[H]c1c([H])c(N([H])C(=O)c2c([H])c([H])c(-c3c([H])c([H])c(S(=O)(=O)N([H])[H])c([H])c3[H])c([H])c2[H])c([H])c(C(F)(F)F)c1[H]


 32 34  0  0  0  0  0  0  0  0999 V2000
   36.4618  -21.6698   39.3190 C   0  0  0  0  0  0  0  0  0  0  0  0
   36.8879  -20.8480   38.3076 C   0  0  0  0  0  0  0  0  0  0  0  0
   37.8872  -21.2309   37.4092 C   0  0  0  0  0  0  0  0  0  0  0  0
   38.4587  -22.4648   37.5336 C   0  0  0  0  0  0  0  0  0  0  0  0
   38.0563  -23.3272   38.5513 C   0  0  0  0  0  0  0  0  0  0  0  0
   37.0767  -22.9247   39.4236 C   0  0  0  0  0  0  0  0  0  0  0  0
   33.4039  -20.6826   42.1588 C   0  0  0  0  0  0  0  0  0  0  0  0
   34.6867  -20.1478   42.2257 C   0  0  0  0  0  0  0  0  0  0  0  0
   35.6407  -20.4690   41.2980 C   0  0  0  0  0  0  0  0  0  0  0  0
   35.3723  -21.3586   40.2353 C   0  0  0  0  0  0  0  0  0  0  0  0
   34.1196  -21.8769   40.1752 C   0  0  0  0  0  0  0  0  0  0  0  0
   33.1300  -21.5475   41.1277 C   0  0  0  0  0  0  0  0  0  0  0  0
   32.6886  -18.9171   44.3379 N   0  0  0  0  0  0  0  0  0  0  0  0
   32.2492  -20.3015   43.4381 S   0  0  0  0  0  0  0  0  0  0  0  0
   30.9161  -20.0857   42.7379 O   0  0  0  0  0  0  0  0  0  0  0  0
   32.0636  -21.5006   44.3296 O   0  0  0  0  0  0  0  0  0  0  0  0
   33.4224  -18.3236   43.9378 H   0  0  0  0  0  0  0  0  0  0  0  0
   32.9500  -19.2827   45.3158 H   0  0  0  0  0  0  0  0  0  0  0  0
   39.3411  -22.9863   36.5266 C   0  0  0  0  0  0  0  0  0  0  0  0
   40.2441  -23.7768   37.0945 O   0  0  0  0  0  0  0  0  0  0  0  0
   39.3897  -22.7893   35.1611 N   0  0  0  0  0  0  0  0  0  0  0  0
   38.7153  -22.1929   34.6660 H   0  0  0  0  0  0  0  0  0  0  0  0
   40.4586  -23.4839   34.4652 C   0  0  0  0  0  0  0  0  0  0  0  0
   40.1167  -24.2290   33.3294 C   0  0  0  0  0  0  0  0  0  0  0  0
   41.0426  -24.8451   32.5282 C   0  0  0  0  0  0  0  0  0  0  0  0
   42.3709  -24.7356   32.8477 C   0  0  0  0  0  0  0  0  0  0  0  0
   42.7163  -23.9937   33.9904 C   0  0  0  0  0  0  0  0  0  0  0  0
   41.7785  -23.3923   34.7648 C   0  0  0  0  0  0  0  0  0  0  0  0
   44.1466  -23.8996   34.2944 C   0  0  0  0  0  0  0  0  0  0  0  0
   44.8053  -22.9327   33.6043 F   0  0  0  0  0  0  0  0  0  0  0  0
   44.7119  -25.1224   33.9551 F   0  0  0  0  0  0  0  0  0  0  0  0
   44.3187  -23.7043   35.6458 F   0  0  0  0  0  0  0  0  0  0  0  0
 13 14  1  0  0  0
 14 15  2  0  0  0
 14 16  2  0  0  0
 14  7  1  0  0  0
  7  8  2  0  0  0
  8  9  1  0  0  0
  9 10  2  0  0  0
 10 11  1  0  0  0
 11 12  2  0  0  0
 10  1  1  0  0  0
  1  2  2  0  0  0
  2  3  1  0  0  0
  3  4  2  0  0  0
  4  5  1  0  0  0
  5  6  2  0  0  0
  4 19  1  0  0  0
 19 20  2  0  0  0
 19 21  1  0  0  0
 21 23  1  0  0  0
 23 24  2  0  0  0
 24 25  1  0  0  0
 25 26  2  0  0  0
 26 27  1  0  0  0
 27 28  2  0  0  0
 27 29  1  0  0  0
 29 30  1  0  0  0
 29 31  1  0  0  0
 29 32  1  0  0  0
 12  7  1  0  0  0
  6  1  1  0  0  0
 28 23  1  0  0  0
 13 17  1  0  0  0
 13 18  1  0  0  0
 21 22  1  0  0  0
M  END
> <minimizedAffinity>
-2.25882

> <CNNscore>
0.6159114242

> <CNNaffinity>
4.7170953751

> <CNN_VS>
2.9053130150

> <CNNaffinity_variance>
0.1595408022

$$$$
[H]c1c([H])c(N([H])C(=O)c2c([H])c([H])c(-c3c([H])c([H])c(S(=O)(=O)N([H])[H])c([H])c3[H])c([H])c2[H])c([H])c(C(F)(F)F)c1[H]


 32 34  0  0  0  0  0  0  0  0999 V2000
   37.3310  -19.2712   35.1334 C   0  0  0  0  0  0  0  0  0  0  0  0
   36.3276  -20.0828   35.5965 C   0  0  0  0  0  0  0  0  0  0  0  0
   36.4566  -20.8288   36.7709 C   0  0  0  0  0  0  0  0  0  0  0  0
   37.6152  -20.7472   37.4889 C   0  0  0  0  0  0  0  0  0  0  0  0
   38.6601  -19.9372   37.0490 C   0  0  0  0  0  0  0  0  0  0  0  0
   38.5099  -19.2191   35.8895 C   0  0  0  0  0  0  0  0  0  0  0  0
   37.2399  -16.7223   31.6861 C   0  0  0  0  0  0  0  0  0  0  0  0
   38.3893  -17.3964   32.0869 C   0  0  0  0  0  0  0  0  0  0  0  0
   38.3877  -18.2153   33.1839 C   0  0  0  0  0  0  0  0  0  0  0  0
   37.2262  -18.4112   33.9618 C   0  0  0  0  0  0  0  0  0  0  0  0
   36.1085  -17.7512   33.5661 C   0  0  0  0  0  0  0  0  0  0  0  0
   36.1028  -16.9070   32.4337 C   0  0  0  0  0  0  0  0  0  0  0  0
   38.8299  -15.6870   29.5004 N   0  0  0  0  0  0  0  0  0  0  0  0
   37.3324  -15.6094   30.3193 S   0  0  0  0  0  0  0  0  0  0  0  0
   36.1924  -16.0019   29.3917 O   0  0  0  0  0  0  0  0  0  0  0  0
   37.0308  -14.2088   30.7824 O   0  0  0  0  0  0  0  0  0  0  0  0
   39.4303  -16.4894   29.7167 H   0  0  0  0  0  0  0  0  0  0  0  0
   39.3164  -14.7490   29.7045 H   0  0  0  0  0  0  0  0  0  0  0  0
   37.7280  -21.3305   38.7972 C   0  0  0  0  0  0  0  0  0  0  0  0
   37.6402  -20.3769   39.7169 O   0  0  0  0  0  0  0  0  0  0  0  0
   37.9130  -22.6366   39.2042 N   0  0  0  0  0  0  0  0  0  0  0  0
   37.9833  -23.4164   38.5390 H   0  0  0  0  0  0  0  0  0  0  0  0
   38.0000  -22.8394   40.6397 C   0  0  0  0  0  0  0  0  0  0  0  0
   36.8612  -23.3223   41.2971 C   0  0  0  0  0  0  0  0  0  0  0  0
   36.8446  -23.6514   42.6275 C   0  0  0  0  0  0  0  0  0  0  0  0
   37.9929  -23.5008   43.3604 C   0  0  0  0  0  0  0  0  0  0  0  0
   39.1352  -23.0106   42.7047 C   0  0  0  0  0  0  0  0  0  0  0  0
   39.1240  -22.6945   41.3854 C   0  0  0  0  0  0  0  0  0  0  0  0
   40.3417  -22.8673   43.5241 C   0  0  0  0  0  0  0  0  0  0  0  0
   41.4972  -22.7919   42.8142 F   0  0  0  0  0  0  0  0  0  0  0  0
   40.4145  -23.9934   44.3342 F   0  0  0  0  0  0  0  0  0  0  0  0
   40.2207  -21.7603   44.3328 F   0  0  0  0  0  0  0  0  0  0  0  0
 13 14  1  0  0  0
 14 15  2  0  0  0
 14 16  2  0  0  0
 14  7  1  0  0  0
  7  8  2  0  0  0
  8  9  1  0  0  0
  9 10  2  0  0  0
 10 11  1  0  0  0
 11 12  2  0  0  0
 10  1  1  0  0  0
  1  2  2  0  0  0
  2  3  1  0  0  0
  3  4  2  0  0  0
  4  5  1  0  0  0
  5  6  2  0  0  0
  4 19  1  0  0  0
 19 20  2  0  0  0
 19 21  1  0  0  0
 21 23  1  0  0  0
 23 24  2  0  0  0
 24 25  1  0  0  0
 25 26  2  0  0  0
 26 27  1  0  0  0
 27 28  2  0  0  0
 27 29  1  0  0  0
 29 30  1  0  0  0
 29 31  1  0  0  0
 29 32  1  0  0  0
 12  7  1  0  0  0
  6  1  1  0  0  0
 28 23  1  0  0  0
 13 17  1  0  0  0
 13 18  1  0  0  0
 21 22  1  0  0  0
M  END
> <minimizedAffinity>
4.99522

> <CNNscore>
0.5541408658

> <CNNaffinity>
5.0720515251

> <CNN_VS>
2.8106310368

> <CNNaffinity_variance>
1.5766801834

$$$$
[H]c1c([H])c(N([H])C(=O)c2c([H])c([H])c(-c3c([H])c([H])c(S(=O)(=O)N([H])[H])c([H])c3[H])c([H])c2[H])c([H])c(C(F)(F)F)c1[H]


 32 34  0  0  0  0  0  0  0  0999 V2000
   34.9671  -21.1023   39.9755 C   0  0  0  0  0  0  0  0  0  0  0  0
   34.7780  -20.3463   38.8474 C   0  0  0  0  0  0  0  0  0  0  0  0
   35.8197  -20.0578   37.9621 C   0  0  0  0  0  0  0  0  0  0  0  0
   37.0685  -20.5461   38.2200 C   0  0  0  0  0  0  0  0  0  0  0  0
   37.3024  -21.3145   39.3585 C   0  0  0  0  0  0  0  0  0  0  0  0
   36.2632  -21.5788   40.2146 C   0  0  0  0  0  0  0  0  0  0  0  0
   31.7539  -22.3869   42.5082 C   0  0  0  0  0  0  0  0  0  0  0  0
   32.0584  -23.0209   41.3077 C   0  0  0  0  0  0  0  0  0  0  0  0
   33.0988  -22.5992   40.5242 C   0  0  0  0  0  0  0  0  0  0  0  0
   33.9070  -21.5018   40.8920 C   0  0  0  0  0  0  0  0  0  0  0  0
   33.6051  -20.8874   42.0637 C   0  0  0  0  0  0  0  0  0  0  0  0
   32.5348  -21.3194   42.8779 C   0  0  0  0  0  0  0  0  0  0  0  0
   29.0771  -23.4848   42.4256 N   0  0  0  0  0  0  0  0  0  0  0  0
   30.3430  -22.9204   43.4247 S   0  0  0  0  0  0  0  0  0  0  0  0
   30.8415  -24.0302   44.3379 O   0  0  0  0  0  0  0  0  0  0  0  0
   29.8760  -21.8121   44.3307 O   0  0  0  0  0  0  0  0  0  0  0  0
   29.3140  -23.6710   41.4458 H   0  0  0  0  0  0  0  0  0  0  0  0
   28.2904  -22.7568   42.5221 H   0  0  0  0  0  0  0  0  0  0  0  0
   38.1248  -20.4508   37.2504 C   0  0  0  0  0  0  0  0  0  0  0  0
   37.8343  -21.2118   36.2020 O   0  0  0  0  0  0  0  0  0  0  0  0
   39.3121  -19.7466   37.2567 N   0  0  0  0  0  0  0  0  0  0  0  0
   39.5880  -19.1384   38.0374 H   0  0  0  0  0  0  0  0  0  0  0  0
   40.1494  -19.9192   36.0826 C   0  0  0  0  0  0  0  0  0  0  0  0
   40.3494  -18.8042   35.2585 C   0  0  0  0  0  0  0  0  0  0  0  0
   41.1966  -18.8086   34.1810 C   0  0  0  0  0  0  0  0  0  0  0  0
   41.8838  -19.9568   33.8848 C   0  0  0  0  0  0  0  0  0  0  0  0
   41.6802  -21.0788   34.7063 C   0  0  0  0  0  0  0  0  0  0  0  0
   40.8366  -21.0458   35.7684 C   0  0  0  0  0  0  0  0  0  0  0  0
   42.4359  -22.2845   34.3561 C   0  0  0  0  0  0  0  0  0  0  0  0
   41.9702  -23.4252   34.9276 F   0  0  0  0  0  0  0  0  0  0  0  0
   43.7370  -22.0877   34.8014 F   0  0  0  0  0  0  0  0  0  0  0  0
   42.4649  -22.4291   32.9878 F   0  0  0  0  0  0  0  0  0  0  0  0
 13 14  1  0  0  0
 14 15  2  0  0  0
 14 16  2  0  0  0
 14  7  1  0  0  0
  7  8  2  0  0  0
  8  9  1  0  0  0
  9 10  2  0  0  0
 10 11  1  0  0  0
 11 12  2  0  0  0
 10  1  1  0  0  0
  1  2  2  0  0  0
  2  3  1  0  0  0
  3  4  2  0  0  0
  4  5  1  0  0  0
  5  6  2  0  0  0
  4 19  1  0  0  0
 19 20  2  0  0  0
 19 21  1  0  0  0
 21 23  1  0  0  0
 23 24  2  0  0  0
 24 25  1  0  0  0
 25 26  2  0  0  0
 26 27  1  0  0  0
 27 28  2  0  0  0
 27 29  1  0  0  0
 29 30  1  0  0  0
 29 31  1  0  0  0
 29 32  1  0  0  0
 12  7  1  0  0  0
  6  1  1  0  0  0
 28 23  1  0  0  0
 13 17  1  0  0  0
 13 18  1  0  0  0
 21 22  1  0  0  0
M  END
> <minimizedAffinity>
-3.38786

> <CNNscore>
0.5464797020

> <CNNaffinity>
4.8847036362

> <CNN_VS>
2.6693913937

> <CNNaffinity_variance>
0.4468426704

$$$$
[H]c1c([H])c(N([H])C(=O)c2c([H])c([H])c(-c3c([H])c([H])c(S(=O)(=O)N([H])[H])c([H])c3[H])c([H])c2[H])c([H])c(C(F)(F)F)c1[H]


 32 34  0  0  0  0  0  0  0  0999 V2000
   36.2298  -21.2032   37.4900 C   0  0  0  0  0  0  0  0  0  0  0  0
   37.4772  -20.6765   37.2742 C   0  0  0  0  0  0  0  0  0  0  0  0
   38.6117  -21.1568   37.9334 C   0  0  0  0  0  0  0  0  0  0  0  0
   38.4818  -22.1880   38.8190 C   0  0  0  0  0  0  0  0  0  0  0  0
   37.2304  -22.7472   39.0693 C   0  0  0  0  0  0  0  0  0  0  0  0
   36.1315  -22.2535   38.4127 C   0  0  0  0  0  0  0  0  0  0  0  0
   32.5692  -20.1363   35.5277 C   0  0  0  0  0  0  0  0  0  0  0  0
   32.6013  -20.6577   36.8173 C   0  0  0  0  0  0  0  0  0  0  0  0
   33.7850  -20.9773   37.4263 C   0  0  0  0  0  0  0  0  0  0  0  0
   35.0254  -20.7988   36.7764 C   0  0  0  0  0  0  0  0  0  0  0  0
   34.9877  -20.2900   35.5190 C   0  0  0  0  0  0  0  0  0  0  0  0
   33.7700  -19.9557   34.8862 C   0  0  0  0  0  0  0  0  0  0  0  0
   30.0336  -18.7463   35.6547 N   0  0  0  0  0  0  0  0  0  0  0  0
   31.0065  -19.8332   34.7651 S   0  0  0  0  0  0  0  0  0  0  0  0
   31.3234  -19.2671   33.3892 O   0  0  0  0  0  0  0  0  0  0  0  0
   30.2954  -21.1386   34.5261 O   0  0  0  0  0  0  0  0  0  0  0  0
   30.5003  -18.2135   36.3957 H   0  0  0  0  0  0  0  0  0  0  0  0
   29.2167  -19.3368   36.0319 H   0  0  0  0  0  0  0  0  0  0  0  0
   39.6314  -22.8499   39.3714 C   0  0  0  0  0  0  0  0  0  0  0  0
   39.5031  -22.9347   40.6901 O   0  0  0  0  0  0  0  0  0  0  0  0
   40.7678  -23.3598   38.7762 N   0  0  0  0  0  0  0  0  0  0  0  0
   40.9200  -23.3272   37.7607 H   0  0  0  0  0  0  0  0  0  0  0  0
   41.7383  -23.9501   39.6813 C   0  0  0  0  0  0  0  0  0  0  0  0
   42.1833  -25.2480   39.3989 C   0  0  0  0  0  0  0  0  0  0  0  0
   43.1694  -25.8764   40.1140 C   0  0  0  0  0  0  0  0  0  0  0  0
   43.7525  -25.2119   41.1613 C   0  0  0  0  0  0  0  0  0  0  0  0
   43.3035  -23.9120   41.4507 C   0  0  0  0  0  0  0  0  0  0  0  0
   42.3265  -23.3129   40.7244 C   0  0  0  0  0  0  0  0  0  0  0  0
   43.9550  -23.2365   42.5761 C   0  0  0  0  0  0  0  0  0  0  0  0
   44.7901  -22.2268   42.2182 F   0  0  0  0  0  0  0  0  0  0  0  0
   44.7097  -24.1958   43.2395 F   0  0  0  0  0  0  0  0  0  0  0  0
   42.9990  -22.7622   43.4450 F   0  0  0  0  0  0  0  0  0  0  0  0
 13 14  1  0  0  0
 14 15  2  0  0  0
 14 16  2  0  0  0
 14  7  1  0  0  0
  7  8  2  0  0  0
  8  9  1  0  0  0
  9 10  2  0  0  0
 10 11  1  0  0  0
 11 12  2  0  0  0
 10  1  1  0  0  0
  1  2  2  0  0  0
  2  3  1  0  0  0
  3  4  2  0  0  0
  4  5  1  0  0  0
  5  6  2  0  0  0
  4 19  1  0  0  0
 19 20  2  0  0  0
 19 21  1  0  0  0
 21 23  1  0  0  0
 23 24  2  0  0  0
 24 25  1  0  0  0
 25 26  2  0  0  0
 26 27  1  0  0  0
 27 28  2  0  0  0
 27 29  1  0  0  0
 29 30  1  0  0  0
 29 31  1  0  0  0
 29 32  1  0  0  0
 12  7  1  0  0  0
  6  1  1  0  0  0
 28 23  1  0  0  0
 13 17  1  0  0  0
 13 18  1  0  0  0
 21 22  1  0  0  0
M  END
> <minimizedAffinity>
-2.21297

> <CNNscore>
0.5261709094

> <CNNaffinity>
4.6621332169

> <CNN_VS>
2.4530789852

> <CNNaffinity_variance>
0.3796995282

$$$$
[H]c1c([H])c(N([H])C(=O)c2c([H])c([H])c(-c3c([H])c([H])c(S(=O)(=O)N([H])[H])c([H])c3[H])c([H])c2[H])c([H])c(C(F)(F)F)c1[H]


 32 34  0  0  0  0  0  0  0  0999 V2000
   35.0250  -21.0744   39.5188 C   0  0  0  0  0  0  0  0  0  0  0  0
   34.7624  -20.3306   38.3973 C   0  0  0  0  0  0  0  0  0  0  0  0
   35.7746  -19.9046   37.5335 C   0  0  0  0  0  0  0  0  0  0  0  0
   37.0696  -20.2413   37.8062 C   0  0  0  0  0  0  0  0  0  0  0  0
   37.3779  -20.9922   38.9386 C   0  0  0  0  0  0  0  0  0  0  0  0
   36.3657  -21.3933   39.7736 C   0  0  0  0  0  0  0  0  0  0  0  0
   31.9241  -22.7339   41.9723 C   0  0  0  0  0  0  0  0  0  0  0  0
   32.1350  -23.1398   40.6582 C   0  0  0  0  0  0  0  0  0  0  0  0
   33.1414  -22.6035   39.9008 C   0  0  0  0  0  0  0  0  0  0  0  0
   34.0076  -21.6131   40.4121 C   0  0  0  0  0  0  0  0  0  0  0  0
   33.7970  -21.2213   41.6941 C   0  0  0  0  0  0  0  0  0  0  0  0
   32.7622  -21.7727   42.4818 C   0  0  0  0  0  0  0  0  0  0  0  0
   29.0959  -22.5552   42.5612 N   0  0  0  0  0  0  0  0  0  0  0  0
   30.5521  -23.3962   42.8635 S   0  0  0  0  0  0  0  0  0  0  0  0
   30.4359  -24.8469   42.4208 O   0  0  0  0  0  0  0  0  0  0  0  0
   30.8709  -23.4327   44.3346 O   0  0  0  0  0  0  0  0  0  0  0  0
   29.0926  -21.9170   41.7589 H   0  0  0  0  0  0  0  0  0  0  0  0
   28.8605  -22.0508   43.4823 H   0  0  0  0  0  0  0  0  0  0  0  0
   38.1210  -20.0042   36.8559 C   0  0  0  0  0  0  0  0  0  0  0  0
   39.0697  -20.9207   37.0063 O   0  0  0  0  0  0  0  0  0  0  0  0
   38.2807  -19.0289   35.8920 N   0  0  0  0  0  0  0  0  0  0  0  0
   37.5786  -18.2973   35.7267 H   0  0  0  0  0  0  0  0  0  0  0  0
   39.5094  -19.1046   35.1213 C   0  0  0  0  0  0  0  0  0  0  0  0
   39.4597  -19.7583   33.8834 C   0  0  0  0  0  0  0  0  0  0  0  0
   40.5209  -19.8090   33.0174 C   0  0  0  0  0  0  0  0  0  0  0  0
   41.6942  -19.1962   33.3727 C   0  0  0  0  0  0  0  0  0  0  0  0
   41.7487  -18.5450   34.6169 C   0  0  0  0  0  0  0  0  0  0  0  0
   40.6816  -18.5085   35.4540 C   0  0  0  0  0  0  0  0  0  0  0  0
   43.0204  -17.9008   34.9564 C   0  0  0  0  0  0  0  0  0  0  0  0
   42.9042  -16.6136   35.3740 F   0  0  0  0  0  0  0  0  0  0  0  0
   43.7942  -17.9041   33.8026 F   0  0  0  0  0  0  0  0  0  0  0  0
   43.6715  -18.6429   35.9152 F   0  0  0  0  0  0  0  0  0  0  0  0
 13 14  1  0  0  0
 14 15  2  0  0  0
 14 16  2  0  0  0
 14  7  1  0  0  0
  7  8  2  0  0  0
  8  9  1  0  0  0
  9 10  2  0  0  0
 10 11  1  0  0  0
 11 12  2  0  0  0
 10  1  1  0  0  0
  1  2  2  0  0  0
  2  3  1  0  0  0
  3  4  2  0  0  0
  4  5  1  0  0  0
  5  6  2  0  0  0
  4 19  1  0  0  0
 19 20  2  0  0  0
 19 21  1  0  0  0
 21 23  1  0  0  0
 23 24  2  0  0  0
 24 25  1  0  0  0
 25 26  2  0  0  0
 26 27  1  0  0  0
 27 28  2  0  0  0
 27 29  1  0  0  0
 29 30  1  0  0  0
 29 31  1  0  0  0
 29 32  1  0  0  0
 12  7  1  0  0  0
  6  1  1  0  0  0
 28 23  1  0  0  0
 13 17  1  0  0  0
 13 18  1  0  0  0
 21 22  1  0  0  0
M  END
> <minimizedAffinity>
-4.13371

> <CNNscore>
0.4562126398

> <CNNaffinity>
4.4142961502

> <CNN_VS>
2.0138576031

> <CNNaffinity_variance>
0.0362528116

$$$$
[H]c1c([H])c(N([H])C(=O)c2c([H])c([H])c(-c3c([H])c([H])c(S(=O)(=O)N([H])[H])c([H])c3[H])c([H])c2[H])c([H])c(C(F)(F)F)c1[H]


 32 34  0  0  0  0  0  0  0  0999 V2000
   37.6081  -20.4321   37.0587 C   0  0  0  0  0  0  0  0  0  0  0  0
   36.7142  -19.5633   36.4876 C   0  0  0  0  0  0  0  0  0  0  0  0
   35.3762  -19.9055   36.2759 C   0  0  0  0  0  0  0  0  0  0  0  0
   34.9364  -21.1421   36.6525 C   0  0  0  0  0  0  0  0  0  0  0  0
   35.8151  -22.0551   37.2319 C   0  0  0  0  0  0  0  0  0  0  0  0
   37.1254  -21.6960   37.4238 C   0  0  0  0  0  0  0  0  0  0  0  0
   41.6543  -19.5690   38.1870 C   0  0  0  0  0  0  0  0  0  0  0  0
   40.8964  -20.5516   38.8163 C   0  0  0  0  0  0  0  0  0  0  0  0
   39.6109  -20.8168   38.4273 C   0  0  0  0  0  0  0  0  0  0  0  0
   38.9923  -20.1057   37.3764 C   0  0  0  0  0  0  0  0  0  0  0  0
   39.7363  -19.1486   36.7665 C   0  0  0  0  0  0  0  0  0  0  0  0
   41.0640  -18.8722   37.1613 C   0  0  0  0  0  0  0  0  0  0  0  0
   44.2898  -18.5185   37.6141 N   0  0  0  0  0  0  0  0  0  0  0  0
   43.2715  -19.2126   38.7976 S   0  0  0  0  0  0  0  0  0  0  0  0
   43.0697  -18.2537   39.9612 O   0  0  0  0  0  0  0  0  0  0  0  0
   43.8799  -20.4588   39.3841 O   0  0  0  0  0  0  0  0  0  0  0  0
   43.8352  -18.1748   36.7620 H   0  0  0  0  0  0  0  0  0  0  0  0
   45.0347  -19.2662   37.4038 H   0  0  0  0  0  0  0  0  0  0  0  0
   33.5385  -21.4747   36.6432 C   0  0  0  0  0  0  0  0  0  0  0  0
   33.3797  -22.7102   36.1836 O   0  0  0  0  0  0  0  0  0  0  0  0
   32.4221  -20.7470   37.0034 N   0  0  0  0  0  0  0  0  0  0  0  0
   32.4833  -19.7890   37.3696 H   0  0  0  0  0  0  0  0  0  0  0  0
   31.1495  -21.4259   36.8330 C   0  0  0  0  0  0  0  0  0  0  0  0
   30.3111  -20.9836   35.8017 C   0  0  0  0  0  0  0  0  0  0  0  0
   29.1337  -21.6035   35.4726 C   0  0  0  0  0  0  0  0  0  0  0  0
   28.7471  -22.7092   36.1842 C   0  0  0  0  0  0  0  0  0  0  0  0
   29.5834  -23.1513   37.2235 C   0  0  0  0  0  0  0  0  0  0  0  0
   30.7452  -22.5194   37.5265 C   0  0  0  0  0  0  0  0  0  0  0  0
   29.1343  -24.3378   37.9569 C   0  0  0  0  0  0  0  0  0  0  0  0
   29.1476  -24.2014   39.3082 F   0  0  0  0  0  0  0  0  0  0  0  0
   30.0044  -25.3690   37.6262 F   0  0  0  0  0  0  0  0  0  0  0  0
   27.8709  -24.6876   37.5381 F   0  0  0  0  0  0  0  0  0  0  0  0
 13 14  1  0  0  0
 14 15  2  0  0  0
 14 16  2  0  0  0
 14  7  1  0  0  0
  7  8  2  0  0  0
  8  9  1  0  0  0
  9 10  2  0  0  0
 10 11  1  0  0  0
 11 12  2  0  0  0
 10  1  1  0  0  0
  1  2  2  0  0  0
  2  3  1  0  0  0
  3  4  2  0  0  0
  4  5  1  0  0  0
  5  6  2  0  0  0
  4 19  1  0  0  0
 19 20  2  0  0  0
 19 21  1  0  0  0
 21 23  1  0  0  0
 23 24  2  0  0  0
 24 25  1  0  0  0
 25 26  2  0  0  0
 26 27  1  0  0  0
 27 28  2  0  0  0
 27 29  1  0  0  0
 29 30  1  0  0  0
 29 31  1  0  0  0
 29 32  1  0  0  0
 12  7  1  0  0  0
  6  1  1  0  0  0
 28 23  1  0  0  0
 13 17  1  0  0  0
 13 18  1  0  0  0
 21 22  1  0  0  0
M  END
> <minimizedAffinity>
-4.72226

> <CNNscore>
0.4547629654

> <CNNaffinity>
4.4144606590

> <CNN_VS>
2.0075333118

> <CNNaffinity_variance>
0.0354281031

$$$$
[H]c1c([H])c(N([H])C(=O)c2c([H])c([H])c(-c3c([H])c([H])c(S(=O)(=O)N([H])[H])c([H])c3[H])c([H])c2[H])c([H])c(C(F)(F)F)c1[H]


 32 34  0  0  0  0  0  0  0  0999 V2000
   35.3782  -19.3624   35.8679 C   0  0  0  0  0  0  0  0  0  0  0  0
   36.2917  -19.5980   34.8728 C   0  0  0  0  0  0  0  0  0  0  0  0
   37.6654  -19.4378   35.0712 C   0  0  0  0  0  0  0  0  0  0  0  0
   38.1205  -19.0391   36.2953 C   0  0  0  0  0  0  0  0  0  0  0  0
   37.2236  -18.7851   37.3309 C   0  0  0  0  0  0  0  0  0  0  0  0
   35.8791  -18.9448   37.1083 C   0  0  0  0  0  0  0  0  0  0  0  0
   31.1421  -19.8354   35.3982 C   0  0  0  0  0  0  0  0  0  0  0  0
   31.8907  -18.9742   34.6020 C   0  0  0  0  0  0  0  0  0  0  0  0
   33.2445  -18.8521   34.7636 C   0  0  0  0  0  0  0  0  0  0  0  0
   33.9437  -19.5872   35.7452 C   0  0  0  0  0  0  0  0  0  0  0  0
   33.2084  -20.4254   36.5186 C   0  0  0  0  0  0  0  0  0  0  0  0
   31.8116  -20.5579   36.3551 C   0  0  0  0  0  0  0  0  0  0  0  0
   28.7144  -21.4016   35.5746 N   0  0  0  0  0  0  0  0  0  0  0  0
   29.3885  -19.8766   35.2016 S   0  0  0  0  0  0  0  0  0  0  0  0
   28.8448  -18.8065   36.1361 O   0  0  0  0  0  0  0  0  0  0  0  0
   29.0224  -19.4395   33.8081 O   0  0  0  0  0  0  0  0  0  0  0  0
   29.3202  -22.0617   36.0728 H   0  0  0  0  0  0  0  0  0  0  0  0
   28.3671  -21.7980   34.6362 H   0  0  0  0  0  0  0  0  0  0  0  0
   39.5217  -19.0508   36.6136 C   0  0  0  0  0  0  0  0  0  0  0  0
   39.8534  -20.2360   37.1117 O   0  0  0  0  0  0  0  0  0  0  0  0
   40.4949  -18.0787   36.4970 N   0  0  0  0  0  0  0  0  0  0  0  0
   40.2986  -17.1454   36.1147 H   0  0  0  0  0  0  0  0  0  0  0  0
   41.8208  -18.4617   36.9493 C   0  0  0  0  0  0  0  0  0  0  0  0
   42.9109  -18.0900   36.1521 C   0  0  0  0  0  0  0  0  0  0  0  0
   44.2152  -18.3009   36.5171 C   0  0  0  0  0  0  0  0  0  0  0  0
   44.4759  -18.9081   37.7178 C   0  0  0  0  0  0  0  0  0  0  0  0
   43.3838  -19.2877   38.5168 C   0  0  0  0  0  0  0  0  0  0  0  0
   42.1022  -19.0646   38.1315 C   0  0  0  0  0  0  0  0  0  0  0  0
   43.7069  -19.9310   39.7931 C   0  0  0  0  0  0  0  0  0  0  0  0
   42.7119  -19.8787   40.7163 F   0  0  0  0  0  0  0  0  0  0  0  0
   44.8057  -19.2604   40.3155 F   0  0  0  0  0  0  0  0  0  0  0  0
   44.0657  -21.2410   39.5712 F   0  0  0  0  0  0  0  0  0  0  0  0
 13 14  1  0  0  0
 14 15  2  0  0  0
 14 16  2  0  0  0
 14  7  1  0  0  0
  7  8  2  0  0  0
  8  9  1  0  0  0
  9 10  2  0  0  0
 10 11  1  0  0  0
 11 12  2  0  0  0
 10  1  1  0  0  0
  1  2  2  0  0  0
  2  3  1  0  0  0
  3  4  2  0  0  0
  4  5  1  0  0  0
  5  6  2  0  0  0
  4 19  1  0  0  0
 19 20  2  0  0  0
 19 21  1  0  0  0
 21 23  1  0  0  0
 23 24  2  0  0  0
 24 25  1  0  0  0
 25 26  2  0  0  0
 26 27  1  0  0  0
 27 28  2  0  0  0
 27 29  1  0  0  0
 29 30  1  0  0  0
 29 31  1  0  0  0
 29 32  1  0  0  0
 12  7  1  0  0  0
  6  1  1  0  0  0
 28 23  1  0  0  0
 13 17  1  0  0  0
 13 18  1  0  0  0
 21 22  1  0  0  0
M  END
> <minimizedAffinity>
-4.45307

> <CNNscore>
0.4273571372

> <CNNaffinity>
4.4997992516

> <CNN_VS>
1.9230213165

> <CNNaffinity_variance>
0.1247414201

$$$$
[H]c1c([H])c(N([H])C(=O)c2c([H])c([H])c(-c3c([H])c([H])c(S(=O)(=O)N([H])[H])c([H])c3[H])c([H])c2[H])c([H])c(C(F)(F)F)c1[H]


 32 34  0  0  0  0  0  0  0  0999 V2000
   38.7228  -19.9834   36.7044 C   0  0  0  0  0  0  0  0  0  0  0  0
   38.5919  -21.3469   36.7657 C   0  0  0  0  0  0  0  0  0  0  0  0
   37.3796  -21.9642   37.0842 C   0  0  0  0  0  0  0  0  0  0  0  0
   36.2838  -21.1902   37.3386 C   0  0  0  0  0  0  0  0  0  0  0  0
   36.3772  -19.8008   37.2910 C   0  0  0  0  0  0  0  0  0  0  0  0
   37.5808  -19.2196   36.9811 C   0  0  0  0  0  0  0  0  0  0  0  0
   42.3938  -18.0088   35.6975 C   0  0  0  0  0  0  0  0  0  0  0  0
   42.3395  -19.0771   36.5873 C   0  0  0  0  0  0  0  0  0  0  0  0
   41.1559  -19.6990   36.8811 C   0  0  0  0  0  0  0  0  0  0  0  0
   39.9368  -19.2854   36.3018 C   0  0  0  0  0  0  0  0  0  0  0  0
   39.9960  -18.2431   35.4349 C   0  0  0  0  0  0  0  0  0  0  0  0
   41.2144  -17.5989   35.1255 C   0  0  0  0  0  0  0  0  0  0  0  0
   44.7041  -16.7374   36.8907 N   0  0  0  0  0  0  0  0  0  0  0  0
   43.9356  -17.1913   35.4337 S   0  0  0  0  0  0  0  0  0  0  0  0
   44.7960  -18.1768   34.6575 O   0  0  0  0  0  0  0  0  0  0  0  0
   43.7347  -16.0070   34.5259 O   0  0  0  0  0  0  0  0  0  0  0  0
   44.3387  -17.1563   37.7520 H   0  0  0  0  0  0  0  0  0  0  0  0
   44.6630  -15.6622   36.9127 H   0  0  0  0  0  0  0  0  0  0  0  0
   34.9746  -21.7670   37.4737 C   0  0  0  0  0  0  0  0  0  0  0  0
   34.9291  -22.5111   38.5723 O   0  0  0  0  0  0  0  0  0  0  0  0
   33.8483  -21.6763   36.6807 N   0  0  0  0  0  0  0  0  0  0  0  0
   33.8226  -21.1123   35.8223 H   0  0  0  0  0  0  0  0  0  0  0  0
   32.6956  -22.4308   37.1406 C   0  0  0  0  0  0  0  0  0  0  0  0
   32.6507  -22.7860   38.4949 C   0  0  0  0  0  0  0  0  0  0  0  0
   31.5745  -23.4070   39.0735 C   0  0  0  0  0  0  0  0  0  0  0  0
   30.4850  -23.7027   38.2963 C   0  0  0  0  0  0  0  0  0  0  0  0
   30.5300  -23.3530   36.9358 C   0  0  0  0  0  0  0  0  0  0  0  0
   31.6081  -22.7365   36.3895 C   0  0  0  0  0  0  0  0  0  0  0  0
   29.3439  -23.6845   36.1417 C   0  0  0  0  0  0  0  0  0  0  0  0
   28.6679  -22.6072   35.6649 F   0  0  0  0  0  0  0  0  0  0  0  0
   28.4849  -24.3891   36.9756 F   0  0  0  0  0  0  0  0  0  0  0  0
   29.7031  -24.5062   35.0978 F   0  0  0  0  0  0  0  0  0  0  0  0
 13 14  1  0  0  0
 14 15  2  0  0  0
 14 16  2  0  0  0
 14  7  1  0  0  0
  7  8  2  0  0  0
  8  9  1  0  0  0
  9 10  2  0  0  0
 10 11  1  0  0  0
 11 12  2  0  0  0
 10  1  1  0  0  0
  1  2  2  0  0  0
  2  3  1  0  0  0
  3  4  2  0  0  0
  4  5  1  0  0  0
  5  6  2  0  0  0
  4 19  1  0  0  0
 19 20  2  0  0  0
 19 21  1  0  0  0
 21 23  1  0  0  0
 23 24  2  0  0  0
 24 25  1  0  0  0
 25 26  2  0  0  0
 26 27  1  0  0  0
 27 28  2  0  0  0
 27 29  1  0  0  0
 29 30  1  0  0  0
 29 31  1  0  0  0
 29 32  1  0  0  0
 12  7  1  0  0  0
  6  1  1  0  0  0
 28 23  1  0  0  0
 13 17  1  0  0  0
 13 18  1  0  0  0
 21 22  1  0  0  0
M  END
> <minimizedAffinity>
-2.43942

> <CNNscore>
0.4239794016

> <CNNaffinity>
4.6188282967

> <CNN_VS>
1.9582880735

> <CNNaffinity_variance>
0.3128381371

$$$$
[H]OC(=O)c1c([H])c([H])c([H])c(-c2c([H])c([H])c(C(=O)N([H])c3c([H])c([H])c([H])c(C(F)(F)F)c3[H])c([H])c2[H])c1[H]


 30 32  0  0  0  0  0  0  0  0999 V2000
   33.7543  -22.0142   41.6358 C   0  0  0  0  0  0  0  0  0  0  0  0
   34.5622  -20.8995   41.7885 C   0  0  0  0  0  0  0  0  0  0  0  0
   35.8666  -20.9277   41.3563 C   0  0  0  0  0  0  0  0  0  0  0  0
   36.4526  -22.0431   40.7538 C   0  0  0  0  0  0  0  0  0  0  0  0
   35.6219  -23.1286   40.6143 C   0  0  0  0  0  0  0  0  0  0  0  0
   34.3049  -23.1208   41.0429 C   0  0  0  0  0  0  0  0  0  0  0  0
   30.6742  -20.3979   42.9463 C   0  0  0  0  0  0  0  0  0  0  0  0
   29.8696  -21.4860   43.3077 C   0  0  0  0  0  0  0  0  0  0  0  0
   30.3618  -22.7481   43.0955 C   0  0  0  0  0  0  0  0  0  0  0  0
   31.6132  -22.9672   42.5437 C   0  0  0  0  0  0  0  0  0  0  0  0
   32.4144  -21.9205   42.1843 C   0  0  0  0  0  0  0  0  0  0  0  0
   31.9133  -20.6306   42.3983 C   0  0  0  0  0  0  0  0  0  0  0  0
   30.8845  -18.0336   43.7714 O   0  0  0  0  0  0  0  0  0  0  0  0
   30.1915  -19.0401   43.1789 C   0  0  0  0  0  0  0  0  0  0  0  0
   28.9907  -18.7995   42.7787 O   0  0  0  0  0  0  0  0  0  0  0  0
   30.3745  -17.1730   44.0316 H   0  0  0  0  0  0  0  0  0  0  0  0
   37.8434  -21.9927   40.4210 C   0  0  0  0  0  0  0  0  0  0  0  0
   38.1231  -22.1561   39.1877 O   0  0  0  0  0  0  0  0  0  0  0  0
   38.9428  -21.7779   41.3066 N   0  0  0  0  0  0  0  0  0  0  0  0
   38.8154  -21.6570   42.3405 H   0  0  0  0  0  0  0  0  0  0  0  0
   40.2626  -21.7240   40.7420 C   0  0  0  0  0  0  0  0  0  0  0  0
   41.0689  -22.8729   40.7869 C   0  0  0  0  0  0  0  0  0  0  0  0
   42.3634  -22.8847   40.3120 C   0  0  0  0  0  0  0  0  0  0  0  0
   42.9102  -21.7433   39.7676 C   0  0  0  0  0  0  0  0  0  0  0  0
   42.1437  -20.6273   39.7181 C   0  0  0  0  0  0  0  0  0  0  0  0
   40.8238  -20.6106   40.2021 C   0  0  0  0  0  0  0  0  0  0  0  0
   42.6907  -19.3605   39.1622 C   0  0  0  0  0  0  0  0  0  0  0  0
   43.5871  -19.6538   38.1815 F   0  0  0  0  0  0  0  0  0  0  0  0
   41.6211  -18.6198   38.6449 F   0  0  0  0  0  0  0  0  0  0  0  0
   43.3195  -18.6693   40.1877 F   0  0  0  0  0  0  0  0  0  0  0  0
 13 14  1  0  0  0
 14 15  2  0  0  0
 14  7  1  0  0  0
  7  8  2  0  0  0
  8  9  1  0  0  0
  9 10  2  0  0  0
 10 11  1  0  0  0
 11 12  2  0  0  0
 11  1  1  0  0  0
  1  2  2  0  0  0
  2  3  1  0  0  0
  3  4  2  0  0  0
  4  5  1  0  0  0
  5  6  2  0  0  0
  4 17  1  0  0  0
 17 18  2  0  0  0
 17 19  1  0  0  0
 19 21  1  0  0  0
 21 22  2  0  0  0
 22 23  1  0  0  0
 23 24  2  0  0  0
 24 25  1  0  0  0
 25 26  2  0  0  0
 25 27  1  0  0  0
 27 28  1  0  0  0
 27 29  1  0  0  0
 27 30  1  0  0  0
 12  7  1  0  0  0
  6  1  1  0  0  0
 26 21  1  0  0  0
 13 16  1  0  0  0
 19 20  1  0  0  0
M  END
> <minimizedAffinity>
-1.58822

> <CNNscore>
0.6668718457

> <CNNaffinity>
4.6558504105

> <CNN_VS>
3.1048555374

> <CNNaffinity_variance>
0.5870135427

$$$$
[H]OC(=O)c1c([H])c([H])c([H])c(-c2c([H])c([H])c(C(=O)N([H])c3c([H])c([H])c([H])c(C(F)(F)F)c3[H])c([H])c2[H])c1[H]


 30 32  0  0  0  0  0  0  0  0999 V2000
   35.4160  -20.1390   37.6087 C   0  0  0  0  0  0  0  0  0  0  0  0
   34.4526  -19.5990   36.7728 C   0  0  0  0  0  0  0  0  0  0  0  0
   34.8184  -19.0208   35.5807 C   0  0  0  0  0  0  0  0  0  0  0  0
   36.1413  -18.9376   35.1410 C   0  0  0  0  0  0  0  0  0  0  0  0
   37.0696  -19.4867   35.9922 C   0  0  0  0  0  0  0  0  0  0  0  0
   36.7220  -20.0738   37.1975 C   0  0  0  0  0  0  0  0  0  0  0  0
   33.1338  -21.8314   40.0055 C   0  0  0  0  0  0  0  0  0  0  0  0
   33.8010  -21.7016   41.2302 C   0  0  0  0  0  0  0  0  0  0  0  0
   35.0136  -21.0616   41.2372 C   0  0  0  0  0  0  0  0  0  0  0  0
   35.5822  -20.5490   40.0828 C   0  0  0  0  0  0  0  0  0  0  0  0
   34.9485  -20.6642   38.8779 C   0  0  0  0  0  0  0  0  0  0  0  0
   33.7109  -21.3191   38.8678 C   0  0  0  0  0  0  0  0  0  0  0  0
   31.2276  -23.0042   38.8628 O   0  0  0  0  0  0  0  0  0  0  0  0
   31.8303  -22.4871   39.9645 C   0  0  0  0  0  0  0  0  0  0  0  0
   31.2114  -22.5674   41.0916 O   0  0  0  0  0  0  0  0  0  0  0  0
   30.2357  -23.2867   38.9327 H   0  0  0  0  0  0  0  0  0  0  0  0
   36.4179  -18.2371   33.9243 C   0  0  0  0  0  0  0  0  0  0  0  0
   35.4005  -17.7829   33.3041 O   0  0  0  0  0  0  0  0  0  0  0  0
   37.6943  -17.9885   33.3342 N   0  0  0  0  0  0  0  0  0  0  0  0
   38.5866  -18.3420   33.7568 H   0  0  0  0  0  0  0  0  0  0  0  0
   37.7379  -17.2208   32.1207 C   0  0  0  0  0  0  0  0  0  0  0  0
   38.9114  -16.5182   31.8024 C   0  0  0  0  0  0  0  0  0  0  0  0
   39.0125  -15.7199   30.6826 C   0  0  0  0  0  0  0  0  0  0  0  0
   37.9401  -15.5900   29.8274 C   0  0  0  0  0  0  0  0  0  0  0  0
   36.8014  -16.2621   30.1224 C   0  0  0  0  0  0  0  0  0  0  0  0
   36.6937  -17.0762   31.2636 C   0  0  0  0  0  0  0  0  0  0  0  0
   35.6050  -16.1399   29.2467 C   0  0  0  0  0  0  0  0  0  0  0  0
   35.7947  -15.1147   28.3724 F   0  0  0  0  0  0  0  0  0  0  0  0
   35.4491  -17.3497   28.5591 F   0  0  0  0  0  0  0  0  0  0  0  0
   34.5022  -15.8819   30.0478 F   0  0  0  0  0  0  0  0  0  0  0  0
 13 14  1  0  0  0
 14 15  2  0  0  0
 14  7  1  0  0  0
  7  8  2  0  0  0
  8  9  1  0  0  0
  9 10  2  0  0  0
 10 11  1  0  0  0
 11 12  2  0  0  0
 11  1  1  0  0  0
  1  2  2  0  0  0
  2  3  1  0  0  0
  3  4  2  0  0  0
  4  5  1  0  0  0
  5  6  2  0  0  0
  4 17  1  0  0  0
 17 18  2  0  0  0
 17 19  1  0  0  0
 19 21  1  0  0  0
 21 22  2  0  0  0
 22 23  1  0  0  0
 23 24  2  0  0  0
 24 25  1  0  0  0
 25 26  2  0  0  0
 25 27  1  0  0  0
 27 28  1  0  0  0
 27 29  1  0  0  0
 27 30  1  0  0  0
 12  7  1  0  0  0
  6  1  1  0  0  0
 26 21  1  0  0  0
 13 16  1  0  0  0
 19 20  1  0  0  0
M  END
> <minimizedAffinity>
9.30781

> <CNNscore>
0.5732649565

> <CNNaffinity>
4.4529576302

> <CNN_VS>
2.5527245998

> <CNNaffinity_variance>
0.2978321016

$$$$
[H]OC(=O)c1c([H])c([H])c([H])c(-c2c([H])c([H])c(C(=O)N([H])c3c([H])c([H])c([H])c(C(F)(F)F)c3[H])c([H])c2[H])c1[H]


 30 32  0  0  0  0  0  0  0  0999 V2000
   39.5795  -19.7445   36.1510 C   0  0  0  0  0  0  0  0  0  0  0  0
   38.4512  -18.9608   36.3275 C   0  0  0  0  0  0  0  0  0  0  0  0
   37.8931  -18.3030   35.2575 C   0  0  0  0  0  0  0  0  0  0  0  0
   38.4053  -18.3733   33.9601 C   0  0  0  0  0  0  0  0  0  0  0  0
   39.5213  -19.1624   33.8206 C   0  0  0  0  0  0  0  0  0  0  0  0
   40.0990  -19.8335   34.8856 C   0  0  0  0  0  0  0  0  0  0  0  0
   39.9234  -22.1514   38.9628 C   0  0  0  0  0  0  0  0  0  0  0  0
   41.0086  -21.6440   39.6887 C   0  0  0  0  0  0  0  0  0  0  0  0
   41.6215  -20.5102   39.2207 C   0  0  0  0  0  0  0  0  0  0  0  0
   41.1989  -19.8667   38.0692 C   0  0  0  0  0  0  0  0  0  0  0  0
   40.1425  -20.3442   37.3463 C   0  0  0  0  0  0  0  0  0  0  0  0
   39.5161  -21.5030   37.8211 C   0  0  0  0  0  0  0  0  0  0  0  0
   38.7480  -23.5380   40.6978 O   0  0  0  0  0  0  0  0  0  0  0  0
   39.2329  -23.3439   39.4442 C   0  0  0  0  0  0  0  0  0  0  0  0
   39.0849  -24.2887   38.5808 O   0  0  0  0  0  0  0  0  0  0  0  0
   38.4342  -24.4870   40.9615 H   0  0  0  0  0  0  0  0  0  0  0  0
   37.7967  -17.5787   32.9374 C   0  0  0  0  0  0  0  0  0  0  0  0
   36.5878  -17.2339   33.1509 O   0  0  0  0  0  0  0  0  0  0  0  0
   38.3875  -17.1292   31.7175 N   0  0  0  0  0  0  0  0  0  0  0  0
   39.3677  -17.3809   31.4424 H   0  0  0  0  0  0  0  0  0  0  0  0
   37.5969  -16.2997   30.8512 C   0  0  0  0  0  0  0  0  0  0  0  0
   36.7395  -16.9102   29.9216 C   0  0  0  0  0  0  0  0  0  0  0  0
   35.9877  -16.1830   29.0230 C   0  0  0  0  0  0  0  0  0  0  0  0
   36.0598  -14.8071   29.0157 C   0  0  0  0  0  0  0  0  0  0  0  0
   36.8833  -14.2048   29.9069 C   0  0  0  0  0  0  0  0  0  0  0  0
   37.6523  -14.9424   30.8241 C   0  0  0  0  0  0  0  0  0  0  0  0
   37.0180  -12.7234   29.9279 C   0  0  0  0  0  0  0  0  0  0  0  0
   38.0083  -12.3531   29.0713 F   0  0  0  0  0  0  0  0  0  0  0  0
   35.7932  -12.1738   29.5302 F   0  0  0  0  0  0  0  0  0  0  0  0
   37.3382  -12.3324   31.2200 F   0  0  0  0  0  0  0  0  0  0  0  0
 13 14  1  0  0  0
 14 15  2  0  0  0
 14  7  1  0  0  0
  7  8  2  0  0  0
  8  9  1  0  0  0
  9 10  2  0  0  0
 10 11  1  0  0  0
 11 12  2  0  0  0
 11  1  1  0  0  0
  1  2  2  0  0  0
  2  3  1  0  0  0
  3  4  2  0  0  0
  4  5  1  0  0  0
  5  6  2  0  0  0
  4 17  1  0  0  0
 17 18  2  0  0  0
 17 19  1  0  0  0
 19 21  1  0  0  0
 21 22  2  0  0  0
 22 23  1  0  0  0
 23 24  2  0  0  0
 24 25  1  0  0  0
 25 26  2  0  0  0
 25 27  1  0  0  0
 27 28  1  0  0  0
 27 29  1  0  0  0
 27 30  1  0  0  0
 12  7  1  0  0  0
  6  1  1  0  0  0
 26 21  1  0  0  0
 13 16  1  0  0  0
 19 20  1  0  0  0
M  END
> <minimizedAffinity>
8.24483

> <CNNscore>
0.5726099610

> <CNNaffinity>
4.5200796127

> <CNN_VS>
2.5882425308

> <CNNaffinity_variance>
0.7083513737

$$$$
[H]OC(=O)c1c([H])c([H])c([H])c(-c2c([H])c([H])c(C(=O)N([H])c3c([H])c([H])c([H])c(C(F)(F)F)c3[H])c([H])c2[H])c1[H]


 30 32  0  0  0  0  0  0  0  0999 V2000
   35.2892  -19.7928   37.5433 C   0  0  0  0  0  0  0  0  0  0  0  0
   34.3714  -19.9324   36.5155 C   0  0  0  0  0  0  0  0  0  0  0  0
   34.6011  -19.3355   35.2989 C   0  0  0  0  0  0  0  0  0  0  0  0
   35.7360  -18.5708   35.0202 C   0  0  0  0  0  0  0  0  0  0  0  0
   36.6266  -18.4570   36.0601 C   0  0  0  0  0  0  0  0  0  0  0  0
   36.4141  -19.0503   37.2934 C   0  0  0  0  0  0  0  0  0  0  0  0
   33.5494  -22.0769   39.9041 C   0  0  0  0  0  0  0  0  0  0  0  0
   34.0305  -21.6721   41.1557 C   0  0  0  0  0  0  0  0  0  0  0  0
   34.9423  -20.6487   41.1938 C   0  0  0  0  0  0  0  0  0  0  0  0
   35.3887  -20.0173   40.0446 C   0  0  0  0  0  0  0  0  0  0  0  0
   34.9324  -20.3959   38.8138 C   0  0  0  0  0  0  0  0  0  0  0  0
   34.0027  -21.4421   38.7721 C   0  0  0  0  0  0  0  0  0  0  0  0
   32.2250  -23.8509   38.7151 O   0  0  0  0  0  0  0  0  0  0  0  0
   32.5608  -23.1482   39.8276 C   0  0  0  0  0  0  0  0  0  0  0  0
   31.9614  -23.4330   40.9319 O   0  0  0  0  0  0  0  0  0  0  0  0
   31.3926  -24.4626   38.7533 H   0  0  0  0  0  0  0  0  0  0  0  0
   35.8322  -17.9229   33.7479 C   0  0  0  0  0  0  0  0  0  0  0  0
   37.0153  -17.7348   33.3112 O   0  0  0  0  0  0  0  0  0  0  0  0
   34.7613  -17.4711   32.9184 N   0  0  0  0  0  0  0  0  0  0  0  0
   33.7555  -17.5598   33.2020 H   0  0  0  0  0  0  0  0  0  0  0  0
   35.0930  -16.8807   31.6514 C   0  0  0  0  0  0  0  0  0  0  0  0
   34.1450  -16.9155   30.6160 C   0  0  0  0  0  0  0  0  0  0  0  0
   34.4078  -16.4155   29.3580 C   0  0  0  0  0  0  0  0  0  0  0  0
   35.6353  -15.8551   29.0797 C   0  0  0  0  0  0  0  0  0  0  0  0
   36.5596  -15.8150   30.0694 C   0  0  0  0  0  0  0  0  0  0  0  0
   36.2961  -16.3245   31.3530 C   0  0  0  0  0  0  0  0  0  0  0  0
   37.9094  -15.2423   29.8181 C   0  0  0  0  0  0  0  0  0  0  0  0
   38.2272  -15.4079   28.5054 F   0  0  0  0  0  0  0  0  0  0  0  0
   37.8679  -13.8817   30.1458 F   0  0  0  0  0  0  0  0  0  0  0  0
   38.8242  -15.9145   30.6156 F   0  0  0  0  0  0  0  0  0  0  0  0
 13 14  1  0  0  0
 14 15  2  0  0  0
 14  7  1  0  0  0
  7  8  2  0  0  0
  8  9  1  0  0  0
  9 10  2  0  0  0
 10 11  1  0  0  0
 11 12  2  0  0  0
 11  1  1  0  0  0
  1  2  2  0  0  0
  2  3  1  0  0  0
  3  4  2  0  0  0
  4  5  1  0  0  0
  5  6  2  0  0  0
  4 17  1  0  0  0
 17 18  2  0  0  0
 17 19  1  0  0  0
 19 21  1  0  0  0
 21 22  2  0  0  0
 22 23  1  0  0  0
 23 24  2  0  0  0
 24 25  1  0  0  0
 25 26  2  0  0  0
 25 27  1  0  0  0
 27 28  1  0  0  0
 27 29  1  0  0  0
 27 30  1  0  0  0
 12  7  1  0  0  0
  6  1  1  0  0  0
 26 21  1  0  0  0
 13 16  1  0  0  0
 19 20  1  0  0  0
M  END
> <minimizedAffinity>
14.68103

> <CNNscore>
0.5385357141

> <CNNaffinity>
4.7201528549

> <CNN_VS>
2.5419709682

> <CNNaffinity_variance>
0.6599369049

$$$$
[H]OC(=O)c1c([H])c([H])c([H])c(-c2c([H])c([H])c(C(=O)N([H])c3c([H])c([H])c([H])c(C(F)(F)F)c3[H])c([H])c2[H])c1[H]


 30 32  0  0  0  0  0  0  0  0999 V2000
   31.8330  -20.3223   35.0451 C   0  0  0  0  0  0  0  0  0  0  0  0
   31.4064  -19.4424   36.0260 C   0  0  0  0  0  0  0  0  0  0  0  0
   32.0616  -18.2491   36.2155 C   0  0  0  0  0  0  0  0  0  0  0  0
   33.1670  -17.8510   35.4604 C   0  0  0  0  0  0  0  0  0  0  0  0
   33.5600  -18.7453   34.4942 C   0  0  0  0  0  0  0  0  0  0  0  0
   32.9137  -19.9526   34.2870 C   0  0  0  0  0  0  0  0  0  0  0  0
   31.1751  -23.8388   34.0357 C   0  0  0  0  0  0  0  0  0  0  0  0
   29.9206  -24.1051   34.5990 C   0  0  0  0  0  0  0  0  0  0  0  0
   29.3160  -23.1092   35.3221 C   0  0  0  0  0  0  0  0  0  0  0  0
   29.9057  -21.8690   35.5033 C   0  0  0  0  0  0  0  0  0  0  0  0
   31.1284  -21.5880   34.9624 C   0  0  0  0  0  0  0  0  0  0  0  0
   31.7488  -22.6039   34.2251 C   0  0  0  0  0  0  0  0  0  0  0  0
   32.0155  -24.8504   31.8944 O   0  0  0  0  0  0  0  0  0  0  0  0
   31.8377  -24.8682   33.2406 C   0  0  0  0  0  0  0  0  0  0  0  0
   32.2841  -25.8806   33.9007 O   0  0  0  0  0  0  0  0  0  0  0  0
   32.3448  -25.7138   31.4311 H   0  0  0  0  0  0  0  0  0  0  0  0
   33.8261  -16.6272   35.8001 C   0  0  0  0  0  0  0  0  0  0  0  0
   33.3601  -16.0113   36.8148 O   0  0  0  0  0  0  0  0  0  0  0  0
   34.9397  -16.0259   35.1387 N   0  0  0  0  0  0  0  0  0  0  0  0
   35.3769  -16.4445   34.2822 H   0  0  0  0  0  0  0  0  0  0  0  0
   35.4693  -14.8066   35.6833 C   0  0  0  0  0  0  0  0  0  0  0  0
   34.9212  -13.5821   35.2683 C   0  0  0  0  0  0  0  0  0  0  0  0
   35.4088  -12.3692   35.7071 C   0  0  0  0  0  0  0  0  0  0  0  0
   36.4698  -12.3277   36.5851 C   0  0  0  0  0  0  0  0  0  0  0  0
   37.0085  -13.5016   36.9936 C   0  0  0  0  0  0  0  0  0  0  0  0
   36.5152  -14.7404   36.5480 C   0  0  0  0  0  0  0  0  0  0  0  0
   38.1703  -13.5156   37.9227 C   0  0  0  0  0  0  0  0  0  0  0  0
   37.9460  -14.4311   38.9040 F   0  0  0  0  0  0  0  0  0  0  0  0
   39.3092  -13.8569   37.1832 F   0  0  0  0  0  0  0  0  0  0  0  0
   38.3020  -12.2502   38.4761 F   0  0  0  0  0  0  0  0  0  0  0  0
 13 14  1  0  0  0
 14 15  2  0  0  0
 14  7  1  0  0  0
  7  8  2  0  0  0
  8  9  1  0  0  0
  9 10  2  0  0  0
 10 11  1  0  0  0
 11 12  2  0  0  0
 11  1  1  0  0  0
  1  2  2  0  0  0
  2  3  1  0  0  0
  3  4  2  0  0  0
  4  5  1  0  0  0
  5  6  2  0  0  0
  4 17  1  0  0  0
 17 18  2  0  0  0
 17 19  1  0  0  0
 19 21  1  0  0  0
 21 22  2  0  0  0
 22 23  1  0  0  0
 23 24  2  0  0  0
 24 25  1  0  0  0
 25 26  2  0  0  0
 25 27  1  0  0  0
 27 28  1  0  0  0
 27 29  1  0  0  0
 27 30  1  0  0  0
 12  7  1  0  0  0
  6  1  1  0  0  0
 26 21  1  0  0  0
 13 16  1  0  0  0
 19 20  1  0  0  0
M  END
> <minimizedAffinity>
-1.11894

> <CNNscore>
0.5178775191

> <CNNaffinity>
4.7877120972

> <CNN_VS>
2.4794485569

> <CNNaffinity_variance>
0.5679437518

$$$$
[H]OC(=O)c1c([H])c([H])c([H])c(-c2c([H])c([H])c(C(=O)N([H])c3c([H])c([H])c([H])c(C(F)(F)F)c3[H])c([H])c2[H])c1[H]


 30 32  0  0  0  0  0  0  0  0999 V2000
   36.2730  -14.5568   36.6860 C   0  0  0  0  0  0  0  0  0  0  0  0
   36.4135  -15.3926   35.5905 C   0  0  0  0  0  0  0  0  0  0  0  0
   36.3411  -16.7561   35.7485 C   0  0  0  0  0  0  0  0  0  0  0  0
   36.1292  -17.3766   36.9816 C   0  0  0  0  0  0  0  0  0  0  0  0
   35.9900  -16.5179   38.0450 C   0  0  0  0  0  0  0  0  0  0  0  0
   36.0596  -15.1415   37.9073 C   0  0  0  0  0  0  0  0  0  0  0  0
   38.0402  -11.3178   36.2352 C   0  0  0  0  0  0  0  0  0  0  0  0
   36.9943  -10.4042   36.0527 C   0  0  0  0  0  0  0  0  0  0  0  0
   35.7104  -10.8852   36.0684 C   0  0  0  0  0  0  0  0  0  0  0  0
   35.4295  -12.2281   36.2587 C   0  0  0  0  0  0  0  0  0  0  0  0
   36.4343  -13.1362   36.4390 C   0  0  0  0  0  0  0  0  0  0  0  0
   37.7464  -12.6478   36.4214 C   0  0  0  0  0  0  0  0  0  0  0  0
   39.8592   -9.6795   36.8028 O   0  0  0  0  0  0  0  0  0  0  0  0
   39.4186  -10.8376   36.2467 C   0  0  0  0  0  0  0  0  0  0  0  0
   40.2791  -11.5999   35.6652 O   0  0  0  0  0  0  0  0  0  0  0  0
   40.8237   -9.3710   36.5954 H   0  0  0  0  0  0  0  0  0  0  0  0
   36.1583  -18.8058   37.0452 C   0  0  0  0  0  0  0  0  0  0  0  0
   35.2530  -19.4076   36.3789 O   0  0  0  0  0  0  0  0  0  0  0  0
   37.0818  -19.6263   37.7617 N   0  0  0  0  0  0  0  0  0  0  0  0
   37.8459  -19.2238   38.3566 H   0  0  0  0  0  0  0  0  0  0  0  0
   36.9461  -21.0519   37.6475 C   0  0  0  0  0  0  0  0  0  0  0  0
   38.0886  -21.8247   37.3840 C   0  0  0  0  0  0  0  0  0  0  0  0
   38.0309  -23.1915   37.2108 C   0  0  0  0  0  0  0  0  0  0  0  0
   36.8228  -23.8484   37.2954 C   0  0  0  0  0  0  0  0  0  0  0  0
   35.7122  -23.1152   37.5490 C   0  0  0  0  0  0  0  0  0  0  0  0
   35.7664  -21.7214   37.7251 C   0  0  0  0  0  0  0  0  0  0  0  0
   34.3783  -23.7691   37.6278 C   0  0  0  0  0  0  0  0  0  0  0  0
   34.4635  -24.8607   38.4356 F   0  0  0  0  0  0  0  0  0  0  0  0
   33.4728  -22.8389   38.1524 F   0  0  0  0  0  0  0  0  0  0  0  0
   34.0047  -24.1543   36.3484 F   0  0  0  0  0  0  0  0  0  0  0  0
 13 14  1  0  0  0
 14 15  2  0  0  0
 14  7  1  0  0  0
  7  8  2  0  0  0
  8  9  1  0  0  0
  9 10  2  0  0  0
 10 11  1  0  0  0
 11 12  2  0  0  0
 11  1  1  0  0  0
  1  2  2  0  0  0
  2  3  1  0  0  0
  3  4  2  0  0  0
  4  5  1  0  0  0
  5  6  2  0  0  0
  4 17  1  0  0  0
 17 18  2  0  0  0
 17 19  1  0  0  0
 19 21  1  0  0  0
 21 22  2  0  0  0
 22 23  1  0  0  0
 23 24  2  0  0  0
 24 25  1  0  0  0
 25 26  2  0  0  0
 25 27  1  0  0  0
 27 28  1  0  0  0
 27 29  1  0  0  0
 27 30  1  0  0  0
 12  7  1  0  0  0
  6  1  1  0  0  0
 26 21  1  0  0  0
 13 16  1  0  0  0
 19 20  1  0  0  0
M  END
> <minimizedAffinity>
7.00194

> <CNNscore>
0.4902293086

> <CNNaffinity>
4.6729688644

> <CNN_VS>
2.2908263206

> <CNNaffinity_variance>
0.3324238062

$$$$
[H]OC(=O)c1c([H])c([H])c([H])c(-c2c([H])c([H])c(C(=O)N([H])c3c([H])c([H])c([H])c(C(F)(F)F)c3[H])c([H])c2[H])c1[H]


 30 32  0  0  0  0  0  0  0  0999 V2000
   34.0791  -19.9116   36.6708 C   0  0  0  0  0  0  0  0  0  0  0  0
   34.5674  -21.1285   37.1170 C   0  0  0  0  0  0  0  0  0  0  0  0
   35.8731  -21.2381   37.5323 C   0  0  0  0  0  0  0  0  0  0  0  0
   36.7714  -20.1687   37.5337 C   0  0  0  0  0  0  0  0  0  0  0  0
   36.2525  -18.9766   37.0894 C   0  0  0  0  0  0  0  0  0  0  0  0
   34.9401  -18.8449   36.6668 C   0  0  0  0  0  0  0  0  0  0  0  0
   30.6300  -21.1603   36.0693 C   0  0  0  0  0  0  0  0  0  0  0  0
   30.0538  -20.1489   35.2902 C   0  0  0  0  0  0  0  0  0  0  0  0
   30.8219  -19.0542   34.9872 C   0  0  0  0  0  0  0  0  0  0  0  0
   32.1302  -18.9290   35.4245 C   0  0  0  0  0  0  0  0  0  0  0  0
   32.7119  -19.9036   36.1850 C   0  0  0  0  0  0  0  0  0  0  0  0
   31.9290  -21.0216   36.4974 C   0  0  0  0  0  0  0  0  0  0  0  0
   29.3947  -22.7014   37.6230 O   0  0  0  0  0  0  0  0  0  0  0  0
   29.8487  -22.3503   36.3921 C   0  0  0  0  0  0  0  0  0  0  0  0
   29.5806  -23.1269   35.3997 O   0  0  0  0  0  0  0  0  0  0  0  0
   29.0032  -23.6496   37.7499 H   0  0  0  0  0  0  0  0  0  0  0  0
   38.1314  -20.4146   37.9045 C   0  0  0  0  0  0  0  0  0  0  0  0
   38.2998  -21.1261   38.9491 O   0  0  0  0  0  0  0  0  0  0  0  0
   39.3104  -19.9600   37.2394 N   0  0  0  0  0  0  0  0  0  0  0  0
   39.2743  -19.3505   36.3867 H   0  0  0  0  0  0  0  0  0  0  0  0
   40.5824  -20.3663   37.7692 C   0  0  0  0  0  0  0  0  0  0  0  0
   41.2018  -21.5131   37.2465 C   0  0  0  0  0  0  0  0  0  0  0  0
   42.3973  -21.9944   37.7370 C   0  0  0  0  0  0  0  0  0  0  0  0
   43.0293  -21.3460   38.7755 C   0  0  0  0  0  0  0  0  0  0  0  0
   42.4428  -20.2383   39.2897 C   0  0  0  0  0  0  0  0  0  0  0  0
   41.2235  -19.7448   38.7932 C   0  0  0  0  0  0  0  0  0  0  0  0
   43.0692  -19.5120   40.4269 C   0  0  0  0  0  0  0  0  0  0  0  0
   43.4001  -20.4051   41.3988 F   0  0  0  0  0  0  0  0  0  0  0  0
   44.2127  -18.8628   39.9461 F   0  0  0  0  0  0  0  0  0  0  0  0
   42.1510  -18.5954   40.9183 F   0  0  0  0  0  0  0  0  0  0  0  0
 13 14  1  0  0  0
 14 15  2  0  0  0
 14  7  1  0  0  0
  7  8  2  0  0  0
  8  9  1  0  0  0
  9 10  2  0  0  0
 10 11  1  0  0  0
 11 12  2  0  0  0
 11  1  1  0  0  0
  1  2  2  0  0  0
  2  3  1  0  0  0
  3  4  2  0  0  0
  4  5  1  0  0  0
  5  6  2  0  0  0
  4 17  1  0  0  0
 17 18  2  0  0  0
 17 19  1  0  0  0
 19 21  1  0  0  0
 21 22  2  0  0  0
 22 23  1  0  0  0
 23 24  2  0  0  0
 24 25  1  0  0  0
 25 26  2  0  0  0
 25 27  1  0  0  0
 27 28  1  0  0  0
 27 29  1  0  0  0
 27 30  1  0  0  0
 12  7  1  0  0  0
  6  1  1  0  0  0
 26 21  1  0  0  0
 13 16  1  0  0  0
 19 20  1  0  0  0
M  END
> <minimizedAffinity>
-5.23699

> <CNNscore>
0.4812802970

> <CNNaffinity>
4.2724637985

> <CNN_VS>
2.0562527180

> <CNNaffinity_variance>
0.0832736194

$$$$
[H]OC(=O)c1c([H])c([H])c([H])c(-c2c([H])c([H])c(C(=O)N([H])c3c([H])c([H])c([H])c(C(F)(F)F)c3[H])c([H])c2[H])c1[H]


 30 32  0  0  0  0  0  0  0  0999 V2000
   34.3062  -14.8019   36.8060 C   0  0  0  0  0  0  0  0  0  0  0  0
   35.4525  -14.8162   37.5833 C   0  0  0  0  0  0  0  0  0  0  0  0
   36.3864  -15.8110   37.4181 C   0  0  0  0  0  0  0  0  0  0  0  0
   36.2522  -16.8442   36.4880 C   0  0  0  0  0  0  0  0  0  0  0  0
   35.1063  -16.7965   35.7315 C   0  0  0  0  0  0  0  0  0  0  0  0
   34.1531  -15.8031   35.8822 C   0  0  0  0  0  0  0  0  0  0  0  0
   31.8964  -12.7974   38.8040 C   0  0  0  0  0  0  0  0  0  0  0  0
   31.4078  -11.8667   37.8782 C   0  0  0  0  0  0  0  0  0  0  0  0
   31.9012  -11.9119   36.5997 C   0  0  0  0  0  0  0  0  0  0  0  0
   32.8525  -12.8402   36.2099 C   0  0  0  0  0  0  0  0  0  0  0  0
   33.3423  -13.7571   37.0965 C   0  0  0  0  0  0  0  0  0  0  0  0
   32.8414  -13.7119   38.4033 C   0  0  0  0  0  0  0  0  0  0  0  0
   32.0766  -12.4872   41.2911 O   0  0  0  0  0  0  0  0  0  0  0  0
   31.3769  -12.7930   40.1681 C   0  0  0  0  0  0  0  0  0  0  0  0
   30.1361  -13.1166   40.2928 O   0  0  0  0  0  0  0  0  0  0  0  0
   31.6444  -12.6868   42.2087 H   0  0  0  0  0  0  0  0  0  0  0  0
   37.2430  -17.8763   36.4602 C   0  0  0  0  0  0  0  0  0  0  0  0
   38.4363  -17.5043   36.7122 O   0  0  0  0  0  0  0  0  0  0  0  0
   37.0462  -19.2643   36.1884 N   0  0  0  0  0  0  0  0  0  0  0  0
   36.1059  -19.6614   35.9474 H   0  0  0  0  0  0  0  0  0  0  0  0
   38.1882  -20.1332   36.2567 C   0  0  0  0  0  0  0  0  0  0  0  0
   38.8083  -20.5364   35.0630 C   0  0  0  0  0  0  0  0  0  0  0  0
   39.8764  -21.4083   35.0445 C   0  0  0  0  0  0  0  0  0  0  0  0
   40.3743  -21.9162   36.2244 C   0  0  0  0  0  0  0  0  0  0  0  0
   39.7856  -21.5359   37.3838 C   0  0  0  0  0  0  0  0  0  0  0  0
   38.6957  -20.6480   37.4071 C   0  0  0  0  0  0  0  0  0  0  0  0
   40.2671  -22.0714   38.6855 C   0  0  0  0  0  0  0  0  0  0  0  0
   40.0397  -23.4123   38.7280 F   0  0  0  0  0  0  0  0  0  0  0  0
   41.6378  -21.8021   38.7816 F   0  0  0  0  0  0  0  0  0  0  0  0
   39.5674  -21.4395   39.7032 F   0  0  0  0  0  0  0  0  0  0  0  0
 13 14  1  0  0  0
 14 15  2  0  0  0
 14  7  1  0  0  0
  7  8  2  0  0  0
  8  9  1  0  0  0
  9 10  2  0  0  0
 10 11  1  0  0  0
 11 12  2  0  0  0
 11  1  1  0  0  0
  1  2  2  0  0  0
  2  3  1  0  0  0
  3  4  2  0  0  0
  4  5  1  0  0  0
  5  6  2  0  0  0
  4 17  1  0  0  0
 17 18  2  0  0  0
 17 19  1  0  0  0
 19 21  1  0  0  0
 21 22  2  0  0  0
 22 23  1  0  0  0
 23 24  2  0  0  0
 24 25  1  0  0  0
 25 26  2  0  0  0
 25 27  1  0  0  0
 27 28  1  0  0  0
 27 29  1  0  0  0
 27 30  1  0  0  0
 12  7  1  0  0  0
  6  1  1  0  0  0
 26 21  1  0  0  0
 13 16  1  0  0  0
 19 20  1  0  0  0
M  END
> <minimizedAffinity>
-5.43054

> <CNNscore>
0.4691050351

> <CNNaffinity>
4.7682657242

> <CNN_VS>
2.2368173599

> <CNNaffinity_variance>
0.2731242776

$$$$
[H]OC(=O)c1c([H])c([H])c([H])c(-c2c([H])c([H])c(C(=O)N([H])c3c([H])c([H])c([H])c(C(F)(F)F)c3[H])c([H])c2[H])c1[H]


 30 32  0  0  0  0  0  0  0  0999 V2000
   31.6224  -20.6698   34.9167 C   0  0  0  0  0  0  0  0  0  0  0  0
   31.2952  -19.8088   35.9511 C   0  0  0  0  0  0  0  0  0  0  0  0
   31.9128  -18.5850   36.0523 C   0  0  0  0  0  0  0  0  0  0  0  0
   32.8818  -18.1365   35.1520 C   0  0  0  0  0  0  0  0  0  0  0  0
   33.1785  -19.0134   34.1369 C   0  0  0  0  0  0  0  0  0  0  0  0
   32.5679  -20.2508   34.0169 C   0  0  0  0  0  0  0  0  0  0  0  0
   30.8538  -24.1453   33.8455 C   0  0  0  0  0  0  0  0  0  0  0  0
   29.8163  -24.5246   34.7067 C   0  0  0  0  0  0  0  0  0  0  0  0
   29.3958  -23.6177   35.6452 C   0  0  0  0  0  0  0  0  0  0  0  0
   29.9618  -22.3586   35.7578 C   0  0  0  0  0  0  0  0  0  0  0  0
   30.9744  -21.9680   34.9279 C   0  0  0  0  0  0  0  0  0  0  0  0
   31.4070  -22.8930   33.9699 C   0  0  0  0  0  0  0  0  0  0  0  0
   30.8152  -25.1902   31.5604 O   0  0  0  0  0  0  0  0  0  0  0  0
   31.3115  -25.0773   32.8195 C   0  0  0  0  0  0  0  0  0  0  0  0
   32.2757  -25.8582   33.1663 O   0  0  0  0  0  0  0  0  0  0  0  0
   31.1065  -26.0005   30.9885 H   0  0  0  0  0  0  0  0  0  0  0  0
   33.5227  -16.8817   35.4016 C   0  0  0  0  0  0  0  0  0  0  0  0
   33.5159  -16.0546   34.4311 O   0  0  0  0  0  0  0  0  0  0  0  0
   34.1597  -16.4543   36.6060 N   0  0  0  0  0  0  0  0  0  0  0  0
   34.2369  -17.0720   37.4500 H   0  0  0  0  0  0  0  0  0  0  0  0
   34.7044  -15.1256   36.6457 C   0  0  0  0  0  0  0  0  0  0  0  0
   36.0712  -14.9427   36.3802 C   0  0  0  0  0  0  0  0  0  0  0  0
   36.6770  -13.7059   36.4486 C   0  0  0  0  0  0  0  0  0  0  0  0
   35.9387  -12.5925   36.7857 C   0  0  0  0  0  0  0  0  0  0  0  0
   34.6189  -12.7543   37.0447 C   0  0  0  0  0  0  0  0  0  0  0  0
   33.9975  -14.0136   36.9771 C   0  0  0  0  0  0  0  0  0  0  0  0
   33.7788  -11.5906   37.4362 C   0  0  0  0  0  0  0  0  0  0  0  0
   32.5899  -11.6568   36.7777 F   0  0  0  0  0  0  0  0  0  0  0  0
   33.5779  -11.6507   38.8206 F   0  0  0  0  0  0  0  0  0  0  0  0
   34.4511  -10.4290   37.0850 F   0  0  0  0  0  0  0  0  0  0  0  0
 13 14  1  0  0  0
 14 15  2  0  0  0
 14  7  1  0  0  0
  7  8  2  0  0  0
  8  9  1  0  0  0
  9 10  2  0  0  0
 10 11  1  0  0  0
 11 12  2  0  0  0
 11  1  1  0  0  0
  1  2  2  0  0  0
  2  3  1  0  0  0
  3  4  2  0  0  0
  4  5  1  0  0  0
  5  6  2  0  0  0
  4 17  1  0  0  0
 17 18  2  0  0  0
 17 19  1  0  0  0
 19 21  1  0  0  0
 21 22  2  0  0  0
 22 23  1  0  0  0
 23 24  2  0  0  0
 24 25  1  0  0  0
 25 26  2  0  0  0
 25 27  1  0  0  0
 27 28  1  0  0  0
 27 29  1  0  0  0
 27 30  1  0  0  0
 12  7  1  0  0  0
  6  1  1  0  0  0
 26 21  1  0  0  0
 13 16  1  0  0  0
 19 20  1  0  0  0
M  END
> <minimizedAffinity>
-5.18547

> <CNNscore>
0.4557927251

> <CNNaffinity>
4.8026251793

> <CNN_VS>
2.1890015602

> <CNNaffinity_variance>
0.2990729213

$$$$
[H]c1c([H])c(N([H])C(=O)c2c([H])c([H])c(-c3c([H])c([H])c(S(=O)(=O)C([H])([H])[H])c([H])c3[H])c([H])c2[H])c([H])c(C(F)(F)F)c1[H]


 30 32  0  0  0  0  0  0  0  0999 V2000
   39.1651  -20.5326   36.0963 C   0  0  0  0  0  0  0  0  0  0  0  0
   38.6822  -19.2403   36.3499 C   0  0  0  0  0  0  0  0  0  0  0  0
   38.2085  -18.4437   35.3747 C   0  0  0  0  0  0  0  0  0  0  0  0
   38.1770  -18.8881   34.0311 C   0  0  0  0  0  0  0  0  0  0  0  0
   38.6417  -20.1428   33.7733 C   0  0  0  0  0  0  0  0  0  0  0  0
   39.1421  -20.9729   34.8165 C   0  0  0  0  0  0  0  0  0  0  0  0
   40.9605  -22.9075   39.1820 C   0  0  0  0  0  0  0  0  0  0  0  0
   41.6984  -22.2526   38.2216 C   0  0  0  0  0  0  0  0  0  0  0  0
   41.0860  -21.4656   37.2809 C   0  0  0  0  0  0  0  0  0  0  0  0
   39.6860  -21.2740   37.2356 C   0  0  0  0  0  0  0  0  0  0  0  0
   38.9726  -21.9216   38.1954 C   0  0  0  0  0  0  0  0  0  0  0  0
   39.5964  -22.7258   39.1546 C   0  0  0  0  0  0  0  0  0  0  0  0
   41.5940  -23.3427   41.9414 C   0  0  0  0  0  0  0  0  0  0  0  0
   41.7605  -24.0248   40.3004 S   0  0  0  0  0  0  0  0  0  0  0  0
   41.2670  -25.3996   40.1671 O   0  0  0  0  0  0  0  0  0  0  0  0
   43.2396  -23.9886   39.9455 O   0  0  0  0  0  0  0  0  0  0  0  0
   37.6699  -17.8810   33.1248 C   0  0  0  0  0  0  0  0  0  0  0  0
   36.6303  -17.2385   33.5292 O   0  0  0  0  0  0  0  0  0  0  0  0
   38.2490  -17.6294   31.8805 N   0  0  0  0  0  0  0  0  0  0  0  0
   39.1062  -18.1199   31.5909 H   0  0  0  0  0  0  0  0  0  0  0  0
   37.6707  -16.6985   30.9518 C   0  0  0  0  0  0  0  0  0  0  0  0
   38.2969  -15.4280   30.8679 C   0  0  0  0  0  0  0  0  0  0  0  0
   37.8045  -14.4731   30.0039 C   0  0  0  0  0  0  0  0  0  0  0  0
   36.7173  -14.7132   29.2159 C   0  0  0  0  0  0  0  0  0  0  0  0
   36.1063  -15.9356   29.2888 C   0  0  0  0  0  0  0  0  0  0  0  0
   36.5948  -16.9213   30.1632 C   0  0  0  0  0  0  0  0  0  0  0  0
   34.9190  -16.2643   28.4373 C   0  0  0  0  0  0  0  0  0  0  0  0
   35.0511  -17.5034   27.8630 F   0  0  0  0  0  0  0  0  0  0  0  0
   33.7842  -16.2693   29.2531 F   0  0  0  0  0  0  0  0  0  0  0  0
   34.8633  -15.2854   27.4791 F   0  0  0  0  0  0  0  0  0  0  0  0
 13 14  1  0  0  0
 14 15  2  0  0  0
 14 16  2  0  0  0
 14  7  1  0  0  0
  7  8  2  0  0  0
  8  9  1  0  0  0
  9 10  2  0  0  0
 10 11  1  0  0  0
 11 12  2  0  0  0
 10  1  1  0  0  0
  1  2  2  0  0  0
  2  3  1  0  0  0
  3  4  2  0  0  0
  4  5  1  0  0  0
  5  6  2  0  0  0
  4 17  1  0  0  0
 17 18  2  0  0  0
 17 19  1  0  0  0
 19 21  1  0  0  0
 21 22  2  0  0  0
 22 23  1  0  0  0
 23 24  2  0  0  0
 24 25  1  0  0  0
 25 26  2  0  0  0
 25 27  1  0  0  0
 27 28  1  0  0  0
 27 29  1  0  0  0
 27 30  1  0  0  0
 12  7  1  0  0  0
  6  1  1  0  0  0
 26 21  1  0  0  0
 19 20  1  0  0  0
M  END
> <minimizedAffinity>
10.88404

> <CNNscore>
0.5817111731

> <CNNaffinity>
4.7216405869

> <CNN_VS>
2.7466311455

> <CNNaffinity_variance>
0.4658624530

$$$$
[H]c1c([H])c(N([H])C(=O)c2c([H])c([H])c(-c3c([H])c([H])c(S(=O)(=O)C([H])([H])[H])c([H])c3[H])c([H])c2[H])c([H])c(C(F)(F)F)c1[H]


 30 32  0  0  0  0  0  0  0  0999 V2000
   38.3296  -20.5650   38.4492 C   0  0  0  0  0  0  0  0  0  0  0  0
   37.3439  -19.9732   37.6457 C   0  0  0  0  0  0  0  0  0  0  0  0
   36.0368  -20.2627   37.7778 C   0  0  0  0  0  0  0  0  0  0  0  0
   35.5980  -21.1912   38.7520 C   0  0  0  0  0  0  0  0  0  0  0  0
   36.5467  -21.7708   39.5399 C   0  0  0  0  0  0  0  0  0  0  0  0
   37.9267  -21.4553   39.3858 C   0  0  0  0  0  0  0  0  0  0  0  0
   42.3411  -19.6315   37.2570 C   0  0  0  0  0  0  0  0  0  0  0  0
   41.2485  -19.3777   36.4584 C   0  0  0  0  0  0  0  0  0  0  0  0
   39.9788  -19.6494   36.8984 C   0  0  0  0  0  0  0  0  0  0  0  0
   39.7101  -20.1933   38.1753 C   0  0  0  0  0  0  0  0  0  0  0  0
   40.7994  -20.4310   38.9543 C   0  0  0  0  0  0  0  0  0  0  0  0
   42.0950  -20.1556   38.5057 C   0  0  0  0  0  0  0  0  0  0  0  0
   43.9341  -17.9587   35.5630 C   0  0  0  0  0  0  0  0  0  0  0  0
   43.9764  -19.3997   36.6154 S   0  0  0  0  0  0  0  0  0  0  0  0
   44.9902  -19.3425   37.6738 O   0  0  0  0  0  0  0  0  0  0  0  0
   44.2528  -20.6009   35.7235 O   0  0  0  0  0  0  0  0  0  0  0  0
   34.1666  -21.3979   38.7173 C   0  0  0  0  0  0  0  0  0  0  0  0
   33.5287  -21.0680   39.7856 O   0  0  0  0  0  0  0  0  0  0  0  0
   33.5120  -21.9399   37.6105 N   0  0  0  0  0  0  0  0  0  0  0  0
   34.0297  -22.1565   36.7478 H   0  0  0  0  0  0  0  0  0  0  0  0
   32.1060  -22.2332   37.6327 C   0  0  0  0  0  0  0  0  0  0  0  0
   31.6959  -23.2639   38.5173 C   0  0  0  0  0  0  0  0  0  0  0  0
   30.3644  -23.6120   38.5994 C   0  0  0  0  0  0  0  0  0  0  0  0
   29.4139  -22.9890   37.8451 C   0  0  0  0  0  0  0  0  0  0  0  0
   29.7988  -21.9931   36.9891 C   0  0  0  0  0  0  0  0  0  0  0  0
   31.1514  -21.6244   36.8928 C   0  0  0  0  0  0  0  0  0  0  0  0
   28.7997  -21.2611   36.1470 C   0  0  0  0  0  0  0  0  0  0  0  0
   28.1709  -22.1130   35.2744 F   0  0  0  0  0  0  0  0  0  0  0  0
   27.8395  -20.7023   36.9950 F   0  0  0  0  0  0  0  0  0  0  0  0
   29.5109  -20.3050   35.4691 F   0  0  0  0  0  0  0  0  0  0  0  0
 13 14  1  0  0  0
 14 15  2  0  0  0
 14 16  2  0  0  0
 14  7  1  0  0  0
  7  8  2  0  0  0
  8  9  1  0  0  0
  9 10  2  0  0  0
 10 11  1  0  0  0
 11 12  2  0  0  0
 10  1  1  0  0  0
  1  2  2  0  0  0
  2  3  1  0  0  0
  3  4  2  0  0  0
  4  5  1  0  0  0
  5  6  2  0  0  0
  4 17  1  0  0  0
 17 18  2  0  0  0
 17 19  1  0  0  0
 19 21  1  0  0  0
 21 22  2  0  0  0
 22 23  1  0  0  0
 23 24  2  0  0  0
 24 25  1  0  0  0
 25 26  2  0  0  0
 25 27  1  0  0  0
 27 28  1  0  0  0
 27 29  1  0  0  0
 27 30  1  0  0  0
 12  7  1  0  0  0
  6  1  1  0  0  0
 26 21  1  0  0  0
 19 20  1  0  0  0
M  END
> <minimizedAffinity>
-5.22111

> <CNNscore>
0.5656755567

> <CNNaffinity>
4.4965004921

> <CNN_VS>
2.5435605049

> <CNNaffinity_variance>
0.0515368879

$$$$
[H]c1c([H])c(N([H])C(=O)c2c([H])c([H])c(-c3c([H])c([H])c(S(=O)(=O)C([H])([H])[H])c([H])c3[H])c([H])c2[H])c([H])c(C(F)(F)F)c1[H]


 30 32  0  0  0  0  0  0  0  0999 V2000
   38.9100  -21.2240   39.0979 C   0  0  0  0  0  0  0  0  0  0  0  0
   37.7748  -21.8110   39.6761 C   0  0  0  0  0  0  0  0  0  0  0  0
   36.5448  -21.6741   39.1487 C   0  0  0  0  0  0  0  0  0  0  0  0
   36.3458  -20.9203   37.9671 C   0  0  0  0  0  0  0  0  0  0  0  0
   37.4419  -20.3473   37.3953 C   0  0  0  0  0  0  0  0  0  0  0  0
   38.7370  -20.4997   37.9675 C   0  0  0  0  0  0  0  0  0  0  0  0
   42.4826  -21.5446   41.4470 C   0  0  0  0  0  0  0  0  0  0  0  0
   41.2222  -21.6650   41.9879 C   0  0  0  0  0  0  0  0  0  0  0  0
   40.1076  -21.6023   41.1922 C   0  0  0  0  0  0  0  0  0  0  0  0
   40.1747  -21.4173   39.7922 C   0  0  0  0  0  0  0  0  0  0  0  0
   41.4269  -21.3077   39.2730 C   0  0  0  0  0  0  0  0  0  0  0  0
   42.5644  -21.3701   40.0841 C   0  0  0  0  0  0  0  0  0  0  0  0
   43.4862  -20.4393   43.8917 C   0  0  0  0  0  0  0  0  0  0  0  0
   43.8985  -21.4925   42.5109 S   0  0  0  0  0  0  0  0  0  0  0  0
   44.3620  -22.8309   42.8921 O   0  0  0  0  0  0  0  0  0  0  0  0
   44.9933  -20.7912   41.7206 O   0  0  0  0  0  0  0  0  0  0  0  0
   34.9545  -20.8576   37.5761 C   0  0  0  0  0  0  0  0  0  0  0  0
   34.1811  -20.2000   38.3676 O   0  0  0  0  0  0  0  0  0  0  0  0
   34.4672  -21.4845   36.4286 N   0  0  0  0  0  0  0  0  0  0  0  0
   35.1058  -21.9682   35.7826 H   0  0  0  0  0  0  0  0  0  0  0  0
   33.0661  -21.4979   36.1116 C   0  0  0  0  0  0  0  0  0  0  0  0
   32.4104  -22.7507   36.2287 C   0  0  0  0  0  0  0  0  0  0  0  0
   31.0661  -22.8542   35.9407 C   0  0  0  0  0  0  0  0  0  0  0  0
   30.3350  -21.7749   35.5392 C   0  0  0  0  0  0  0  0  0  0  0  0
   30.9578  -20.5618   35.4236 C   0  0  0  0  0  0  0  0  0  0  0  0
   32.3271  -20.4374   35.7138 C   0  0  0  0  0  0  0  0  0  0  0  0
   30.2050  -19.3372   35.0031 C   0  0  0  0  0  0  0  0  0  0  0  0
   29.6881  -19.4846   33.7407 F   0  0  0  0  0  0  0  0  0  0  0  0
   29.1490  -19.1447   35.8981 F   0  0  0  0  0  0  0  0  0  0  0  0
   31.1111  -18.3091   35.0428 F   0  0  0  0  0  0  0  0  0  0  0  0
 13 14  1  0  0  0
 14 15  2  0  0  0
 14 16  2  0  0  0
 14  7  1  0  0  0
  7  8  2  0  0  0
  8  9  1  0  0  0
  9 10  2  0  0  0
 10 11  1  0  0  0
 11 12  2  0  0  0
 10  1  1  0  0  0
  1  2  2  0  0  0
  2  3  1  0  0  0
  3  4  2  0  0  0
  4  5  1  0  0  0
  5  6  2  0  0  0
  4 17  1  0  0  0
 17 18  2  0  0  0
 17 19  1  0  0  0
 19 21  1  0  0  0
 21 22  2  0  0  0
 22 23  1  0  0  0
 23 24  2  0  0  0
 24 25  1  0  0  0
 25 26  2  0  0  0
 25 27  1  0  0  0
 27 28  1  0  0  0
 27 29  1  0  0  0
 27 30  1  0  0  0
 12  7  1  0  0  0
  6  1  1  0  0  0
 26 21  1  0  0  0
 19 20  1  0  0  0
M  END
> <minimizedAffinity>
-4.80742

> <CNNscore>
0.5641377568

> <CNNaffinity>
4.6118483543

> <CNN_VS>
2.6017177105

> <CNNaffinity_variance>
0.0329572745

$$$$
[H]c1c([H])c(N([H])C(=O)c2c([H])c([H])c(-c3c([H])c([H])c(S(=O)(=O)C([H])([H])[H])c([H])c3[H])c([H])c2[H])c([H])c(C(F)(F)F)c1[H]


 30 32  0  0  0  0  0  0  0  0999 V2000
   37.6714  -18.9301   34.9765 C   0  0  0  0  0  0  0  0  0  0  0  0
   38.6690  -19.9144   35.0345 C   0  0  0  0  0  0  0  0  0  0  0  0
   38.7668  -20.7820   36.0580 C   0  0  0  0  0  0  0  0  0  0  0  0
   37.8485  -20.7352   37.1343 C   0  0  0  0  0  0  0  0  0  0  0  0
   36.8736  -19.7844   37.0875 C   0  0  0  0  0  0  0  0  0  0  0  0
   36.7851  -18.8717   35.9979 C   0  0  0  0  0  0  0  0  0  0  0  0
   37.4118  -16.4679   31.4758 C   0  0  0  0  0  0  0  0  0  0  0  0
   36.3271  -16.7353   32.2805 C   0  0  0  0  0  0  0  0  0  0  0  0
   36.4646  -17.4898   33.4169 C   0  0  0  0  0  0  0  0  0  0  0  0
   37.7030  -18.0301   33.8329 C   0  0  0  0  0  0  0  0  0  0  0  0
   38.7655  -17.7505   33.0312 C   0  0  0  0  0  0  0  0  0  0  0  0
   38.6258  -16.9821   31.8711 C   0  0  0  0  0  0  0  0  0  0  0  0
   36.9133  -13.8872   30.3371 C   0  0  0  0  0  0  0  0  0  0  0  0
   37.1838  -15.6071   29.9440 S   0  0  0  0  0  0  0  0  0  0  0  0
   38.2814  -15.8434   29.0001 O   0  0  0  0  0  0  0  0  0  0  0  0
   35.8897  -16.1421   29.3491 O   0  0  0  0  0  0  0  0  0  0  0  0
   38.1368  -21.7204   38.1536 C   0  0  0  0  0  0  0  0  0  0  0  0
   37.2954  -22.6902   38.2467 O   0  0  0  0  0  0  0  0  0  0  0  0
   39.2408  -21.6238   39.0015 N   0  0  0  0  0  0  0  0  0  0  0  0
   39.9284  -20.8671   38.8849 H   0  0  0  0  0  0  0  0  0  0  0  0
   39.4539  -22.5553   40.0741 C   0  0  0  0  0  0  0  0  0  0  0  0
   38.4764  -22.5592   41.1025 C   0  0  0  0  0  0  0  0  0  0  0  0
   38.6049  -23.4201   42.1717 C   0  0  0  0  0  0  0  0  0  0  0  0
   39.6583  -24.2805   42.2754 C   0  0  0  0  0  0  0  0  0  0  0  0
   40.6063  -24.2851   41.2885 C   0  0  0  0  0  0  0  0  0  0  0  0
   40.4913  -23.4152   40.1909 C   0  0  0  0  0  0  0  0  0  0  0  0
   41.7769  -25.2180   41.3379 C   0  0  0  0  0  0  0  0  0  0  0  0
   42.9530  -24.5270   41.4856 F   0  0  0  0  0  0  0  0  0  0  0  0
   41.6151  -26.0641   42.4385 F   0  0  0  0  0  0  0  0  0  0  0  0
   41.7592  -25.9036   40.1508 F   0  0  0  0  0  0  0  0  0  0  0  0
 13 14  1  0  0  0
 14 15  2  0  0  0
 14 16  2  0  0  0
 14  7  1  0  0  0
  7  8  2  0  0  0
  8  9  1  0  0  0
  9 10  2  0  0  0
 10 11  1  0  0  0
 11 12  2  0  0  0
 10  1  1  0  0  0
  1  2  2  0  0  0
  2  3  1  0  0  0
  3  4  2  0  0  0
  4  5  1  0  0  0
  5  6  2  0  0  0
  4 17  1  0  0  0
 17 18  2  0  0  0
 17 19  1  0  0  0
 19 21  1  0  0  0
 21 22  2  0  0  0
 22 23  1  0  0  0
 23 24  2  0  0  0
 24 25  1  0  0  0
 25 26  2  0  0  0
 25 27  1  0  0  0
 27 28  1  0  0  0
 27 29  1  0  0  0
 27 30  1  0  0  0
 12  7  1  0  0  0
  6  1  1  0  0  0
 26 21  1  0  0  0
 19 20  1  0  0  0
M  END
> <minimizedAffinity>
5.58947

> <CNNscore>
0.5491409302

> <CNNaffinity>
5.0991806984

> <CNN_VS>
2.8001687527

> <CNNaffinity_variance>
1.8225816488

$$$$
[H]c1c([H])c(N([H])C(=O)c2c([H])c([H])c(-c3c([H])c([H])c(S(=O)(=O)C([H])([H])[H])c([H])c3[H])c([H])c2[H])c([H])c(C(F)(F)F)c1[H]


 30 32  0  0  0  0  0  0  0  0999 V2000
   37.5759  -21.5623   38.4390 C   0  0  0  0  0  0  0  0  0  0  0  0
   37.3036  -22.7011   37.6667 C   0  0  0  0  0  0  0  0  0  0  0  0
   37.9683  -22.9767   36.5300 C   0  0  0  0  0  0  0  0  0  0  0  0
   38.9879  -22.1133   36.0624 C   0  0  0  0  0  0  0  0  0  0  0  0
   39.2625  -21.0049   36.8059 C   0  0  0  0  0  0  0  0  0  0  0  0
   38.5481  -20.7260   38.0058 C   0  0  0  0  0  0  0  0  0  0  0  0
   35.0172  -20.6223   41.7488 C   0  0  0  0  0  0  0  0  0  0  0  0
   34.5982  -20.5495   40.4392 C   0  0  0  0  0  0  0  0  0  0  0  0
   35.4355  -20.9042   39.4133 C   0  0  0  0  0  0  0  0  0  0  0  0
   36.7561  -21.3622   39.6252 C   0  0  0  0  0  0  0  0  0  0  0  0
   37.1517  -21.4353   40.9243 C   0  0  0  0  0  0  0  0  0  0  0  0
   36.2987  -21.0723   41.9715 C   0  0  0  0  0  0  0  0  0  0  0  0
   33.5048  -21.4394   44.0401 C   0  0  0  0  0  0  0  0  0  0  0  0
   33.9657  -20.0303   43.0463 S   0  0  0  0  0  0  0  0  0  0  0  0
   34.5755  -18.9327   43.8043 O   0  0  0  0  0  0  0  0  0  0  0  0
   32.7015  -19.5257   42.3664 O   0  0  0  0  0  0  0  0  0  0  0  0
   39.5595  -22.5562   34.8095 C   0  0  0  0  0  0  0  0  0  0  0  0
   39.6874  -21.6511   33.9032 O   0  0  0  0  0  0  0  0  0  0  0  0
   39.9312  -23.8814   34.5797 N   0  0  0  0  0  0  0  0  0  0  0  0
   39.8645  -24.5835   35.3292 H   0  0  0  0  0  0  0  0  0  0  0  0
   40.4007  -24.3231   33.2959 C   0  0  0  0  0  0  0  0  0  0  0  0
   39.4974  -25.1113   32.5370 C   0  0  0  0  0  0  0  0  0  0  0  0
   39.8682  -25.5798   31.2945 C   0  0  0  0  0  0  0  0  0  0  0  0
   41.0947  -25.3071   30.7634 C   0  0  0  0  0  0  0  0  0  0  0  0
   41.9732  -24.5472   31.4871 C   0  0  0  0  0  0  0  0  0  0  0  0
   41.6121  -24.0605   32.7549 C   0  0  0  0  0  0  0  0  0  0  0  0
   43.3278  -24.2006   30.9507 C   0  0  0  0  0  0  0  0  0  0  0  0
   43.2297  -23.5263   29.7598 F   0  0  0  0  0  0  0  0  0  0  0  0
   43.9674  -23.3750   31.8795 F   0  0  0  0  0  0  0  0  0  0  0  0
   43.9807  -25.3945   30.7836 F   0  0  0  0  0  0  0  0  0  0  0  0
 13 14  1  0  0  0
 14 15  2  0  0  0
 14 16  2  0  0  0
 14  7  1  0  0  0
  7  8  2  0  0  0
  8  9  1  0  0  0
  9 10  2  0  0  0
 10 11  1  0  0  0
 11 12  2  0  0  0
 10  1  1  0  0  0
  1  2  2  0  0  0
  2  3  1  0  0  0
  3  4  2  0  0  0
  4  5  1  0  0  0
  5  6  2  0  0  0
  4 17  1  0  0  0
 17 18  2  0  0  0
 17 19  1  0  0  0
 19 21  1  0  0  0
 21 22  2  0  0  0
 22 23  1  0  0  0
 23 24  2  0  0  0
 24 25  1  0  0  0
 25 26  2  0  0  0
 25 27  1  0  0  0
 27 28  1  0  0  0
 27 29  1  0  0  0
 27 30  1  0  0  0
 12  7  1  0  0  0
  6  1  1  0  0  0
 26 21  1  0  0  0
 19 20  1  0  0  0
M  END
> <minimizedAffinity>
-3.84666

> <CNNscore>
0.5362344980

> <CNNaffinity>
4.6412324905

> <CNN_VS>
2.4887890816

> <CNNaffinity_variance>
0.2764854729

$$$$
[H]c1c([H])c(N([H])C(=O)c2c([H])c([H])c(-c3c([H])c([H])c(S(=O)(=O)C([H])([H])[H])c([H])c3[H])c([H])c2[H])c([H])c(C(F)(F)F)c1[H]


 30 32  0  0  0  0  0  0  0  0999 V2000
   36.8307  -17.2580   32.2958 C   0  0  0  0  0  0  0  0  0  0  0  0
   37.8624  -17.9533   32.9435 C   0  0  0  0  0  0  0  0  0  0  0  0
   37.6754  -18.5995   34.1085 C   0  0  0  0  0  0  0  0  0  0  0  0
   36.4064  -18.6043   34.7357 C   0  0  0  0  0  0  0  0  0  0  0  0
   35.3959  -17.9340   34.1143 C   0  0  0  0  0  0  0  0  0  0  0  0
   35.6108  -17.2527   32.8824 C   0  0  0  0  0  0  0  0  0  0  0  0
   38.1266  -15.0021   28.8875 C   0  0  0  0  0  0  0  0  0  0  0  0
   39.0040  -15.5406   29.8018 C   0  0  0  0  0  0  0  0  0  0  0  0
   38.5487  -16.2951   30.8520 C   0  0  0  0  0  0  0  0  0  0  0  0
   37.1776  -16.5687   31.0615 C   0  0  0  0  0  0  0  0  0  0  0  0
   36.3250  -16.0359   30.1456 C   0  0  0  0  0  0  0  0  0  0  0  0
   36.7885  -15.2649   29.0748 C   0  0  0  0  0  0  0  0  0  0  0  0
   37.7644  -14.2387   26.1505 C   0  0  0  0  0  0  0  0  0  0  0  0
   38.7268  -13.9198   27.6195 S   0  0  0  0  0  0  0  0  0  0  0  0
   38.7353  -12.5148   28.0403 O   0  0  0  0  0  0  0  0  0  0  0  0
   40.1531  -14.3626   27.3285 O   0  0  0  0  0  0  0  0  0  0  0  0
   36.4114  -19.3183   35.9939 C   0  0  0  0  0  0  0  0  0  0  0  0
   35.7677  -18.7570   36.9570 O   0  0  0  0  0  0  0  0  0  0  0  0
   37.0858  -20.5272   36.1694 N   0  0  0  0  0  0  0  0  0  0  0  0
   37.5580  -20.9854   35.3780 H   0  0  0  0  0  0  0  0  0  0  0  0
   37.1655  -21.1691   37.4521 C   0  0  0  0  0  0  0  0  0  0  0  0
   38.4314  -21.1327   38.0920 C   0  0  0  0  0  0  0  0  0  0  0  0
   38.5973  -21.7273   39.3248 C   0  0  0  0  0  0  0  0  0  0  0  0
   37.5685  -22.3602   39.9585 C   0  0  0  0  0  0  0  0  0  0  0  0
   36.3433  -22.4005   39.3501 C   0  0  0  0  0  0  0  0  0  0  0  0
   36.1555  -21.7992   38.0940 C   0  0  0  0  0  0  0  0  0  0  0  0
   35.1714  -23.0663   40.0031 C   0  0  0  0  0  0  0  0  0  0  0  0
   34.3729  -22.1488   40.6379 F   0  0  0  0  0  0  0  0  0  0  0  0
   34.4200  -23.7005   39.0098 F   0  0  0  0  0  0  0  0  0  0  0  0
   35.7000  -23.9576   40.9007 F   0  0  0  0  0  0  0  0  0  0  0  0
 13 14  1  0  0  0
 14 15  2  0  0  0
 14 16  2  0  0  0
 14  7  1  0  0  0
  7  8  2  0  0  0
  8  9  1  0  0  0
  9 10  2  0  0  0
 10 11  1  0  0  0
 11 12  2  0  0  0
 10  1  1  0  0  0
  1  2  2  0  0  0
  2  3  1  0  0  0
  3  4  2  0  0  0
  4  5  1  0  0  0
  5  6  2  0  0  0
  4 17  1  0  0  0
 17 18  2  0  0  0
 17 19  1  0  0  0
 19 21  1  0  0  0
 21 22  2  0  0  0
 22 23  1  0  0  0
 23 24  2  0  0  0
 24 25  1  0  0  0
 25 26  2  0  0  0
 25 27  1  0  0  0
 27 28  1  0  0  0
 27 29  1  0  0  0
 27 30  1  0  0  0
 12  7  1  0  0  0
  6  1  1  0  0  0
 26 21  1  0  0  0
 19 20  1  0  0  0
M  END
> <minimizedAffinity>
12.88146

> <CNNscore>
0.5331186652

> <CNNaffinity>
4.7094488144

> <CNN_VS>
2.5106949806

> <CNNaffinity_variance>
0.5243948698

$$$$
[H]c1c([H])c(N([H])C(=O)c2c([H])c([H])c(-c3c([H])c([H])c(S(=O)(=O)C([H])([H])[H])c([H])c3[H])c([H])c2[H])c([H])c(C(F)(F)F)c1[H]


 30 32  0  0  0  0  0  0  0  0999 V2000
   37.0973  -18.9410   35.3970 C   0  0  0  0  0  0  0  0  0  0  0  0
   38.1620  -19.8460   35.5189 C   0  0  0  0  0  0  0  0  0  0  0  0
   38.4239  -20.5006   36.6646 C   0  0  0  0  0  0  0  0  0  0  0  0
   37.6191  -20.2988   37.8115 C   0  0  0  0  0  0  0  0  0  0  0  0
   36.5804  -19.4235   37.7041 C   0  0  0  0  0  0  0  0  0  0  0  0
   36.3178  -18.7366   36.4846 C   0  0  0  0  0  0  0  0  0  0  0  0
   37.0335  -16.7837   31.6921 C   0  0  0  0  0  0  0  0  0  0  0  0
   38.1480  -17.4534   32.1449 C   0  0  0  0  0  0  0  0  0  0  0  0
   38.1104  -18.1698   33.3132 C   0  0  0  0  0  0  0  0  0  0  0  0
   36.9493  -18.2706   34.1134 C   0  0  0  0  0  0  0  0  0  0  0  0
   35.8555  -17.6096   33.6483 C   0  0  0  0  0  0  0  0  0  0  0  0
   35.8933  -16.8774   32.4574 C   0  0  0  0  0  0  0  0  0  0  0  0
   38.8440  -15.7913   29.7065 C   0  0  0  0  0  0  0  0  0  0  0  0
   37.1454  -15.7553   30.2535 S   0  0  0  0  0  0  0  0  0  0  0  0
   36.1726  -16.1287   29.2212 O   0  0  0  0  0  0  0  0  0  0  0  0
   36.8540  -14.3385   30.7252 O   0  0  0  0  0  0  0  0  0  0  0  0
   38.0779  -21.0601   38.9529 C   0  0  0  0  0  0  0  0  0  0  0  0
   37.7664  -20.5800   40.1060 O   0  0  0  0  0  0  0  0  0  0  0  0
   38.8293  -22.2288   38.8241 N   0  0  0  0  0  0  0  0  0  0  0  0
   39.0317  -22.6239   37.8956 H   0  0  0  0  0  0  0  0  0  0  0  0
   39.3631  -22.9142   39.9681 C   0  0  0  0  0  0  0  0  0  0  0  0
   40.7535  -22.7537   40.2008 C   0  0  0  0  0  0  0  0  0  0  0  0
   41.3488  -23.3795   41.2754 C   0  0  0  0  0  0  0  0  0  0  0  0
   40.6338  -24.1611   42.1347 C   0  0  0  0  0  0  0  0  0  0  0  0
   39.2919  -24.3219   41.9196 C   0  0  0  0  0  0  0  0  0  0  0  0
   38.6680  -23.6911   40.8298 C   0  0  0  0  0  0  0  0  0  0  0  0
   38.4507  -25.1543   42.8374 C   0  0  0  0  0  0  0  0  0  0  0  0
   37.7643  -24.3676   43.7275 F   0  0  0  0  0  0  0  0  0  0  0  0
   37.5272  -25.8615   42.0625 F   0  0  0  0  0  0  0  0  0  0  0  0
   39.3220  -25.9863   43.4918 F   0  0  0  0  0  0  0  0  0  0  0  0
 13 14  1  0  0  0
 14 15  2  0  0  0
 14 16  2  0  0  0
 14  7  1  0  0  0
  7  8  2  0  0  0
  8  9  1  0  0  0
  9 10  2  0  0  0
 10 11  1  0  0  0
 11 12  2  0  0  0
 10  1  1  0  0  0
  1  2  2  0  0  0
  2  3  1  0  0  0
  3  4  2  0  0  0
  4  5  1  0  0  0
  5  6  2  0  0  0
  4 17  1  0  0  0
 17 18  2  0  0  0
 17 19  1  0  0  0
 19 21  1  0  0  0
 21 22  2  0  0  0
 22 23  1  0  0  0
 23 24  2  0  0  0
 24 25  1  0  0  0
 25 26  2  0  0  0
 25 27  1  0  0  0
 27 28  1  0  0  0
 27 29  1  0  0  0
 27 30  1  0  0  0
 12  7  1  0  0  0
  6  1  1  0  0  0
 26 21  1  0  0  0
 19 20  1  0  0  0
M  END
> <minimizedAffinity>
6.63357

> <CNNscore>
0.5267224908

> <CNNaffinity>
4.8640227318

> <CNN_VS>
2.5619902611

> <CNNaffinity_variance>
1.1063842773

$$$$
[H]c1c([H])c(N([H])C(=O)c2c([H])c([H])c(-c3c([H])c([H])c(S(=O)(=O)C([H])([H])[H])c([H])c3[H])c([H])c2[H])c([H])c(C(F)(F)F)c1[H]


 30 32  0  0  0  0  0  0  0  0999 V2000
   34.6391  -20.6926   37.8788 C   0  0  0  0  0  0  0  0  0  0  0  0
   33.6283  -19.9968   37.1993 C   0  0  0  0  0  0  0  0  0  0  0  0
   33.8828  -19.2119   36.1368 C   0  0  0  0  0  0  0  0  0  0  0  0
   35.2043  -19.0570   35.6537 C   0  0  0  0  0  0  0  0  0  0  0  0
   36.1942  -19.7300   36.3047 C   0  0  0  0  0  0  0  0  0  0  0  0
   35.9085  -20.5552   37.4297 C   0  0  0  0  0  0  0  0  0  0  0  0
   33.5067  -23.3411   41.0550 C   0  0  0  0  0  0  0  0  0  0  0  0
   34.6221  -23.5479   40.2746 C   0  0  0  0  0  0  0  0  0  0  0  0
   34.9733  -22.6503   39.2997 C   0  0  0  0  0  0  0  0  0  0  0  0
   34.2327  -21.4751   39.0370 C   0  0  0  0  0  0  0  0  0  0  0  0
   33.1385  -21.2821   39.8214 C   0  0  0  0  0  0  0  0  0  0  0  0
   32.7786  -22.1979   40.8151 C   0  0  0  0  0  0  0  0  0  0  0  0
   32.3027  -23.7359   43.6239 C   0  0  0  0  0  0  0  0  0  0  0  0
   32.9979  -24.5810   42.2139 S   0  0  0  0  0  0  0  0  0  0  0  0
   32.1080  -25.5792   41.6114 O   0  0  0  0  0  0  0  0  0  0  0  0
   34.2724  -25.2668   42.6832 O   0  0  0  0  0  0  0  0  0  0  0  0
   35.2822  -18.1482   34.5309 C   0  0  0  0  0  0  0  0  0  0  0  0
   34.7884  -16.9755   34.7263 O   0  0  0  0  0  0  0  0  0  0  0  0
   35.8350  -18.5155   33.3035 N   0  0  0  0  0  0  0  0  0  0  0  0
   36.2660  -19.4415   33.1772 H   0  0  0  0  0  0  0  0  0  0  0  0
   35.8105  -17.6343   32.1693 C   0  0  0  0  0  0  0  0  0  0  0  0
   34.5526  -17.4663   31.5348 C   0  0  0  0  0  0  0  0  0  0  0  0
   34.4398  -16.6404   30.4367 C   0  0  0  0  0  0  0  0  0  0  0  0
   35.5151  -15.9701   29.9317 C   0  0  0  0  0  0  0  0  0  0  0  0
   36.7329  -16.1248   30.5366 C   0  0  0  0  0  0  0  0  0  0  0  0
   36.8664  -16.9619   31.6574 C   0  0  0  0  0  0  0  0  0  0  0  0
   37.9468  -15.4028   30.0385 C   0  0  0  0  0  0  0  0  0  0  0  0
   37.9112  -14.0768   30.3892 F   0  0  0  0  0  0  0  0  0  0  0  0
   39.0736  -15.9887   30.6219 F   0  0  0  0  0  0  0  0  0  0  0  0
   37.9352  -15.5479   28.6753 F   0  0  0  0  0  0  0  0  0  0  0  0
 13 14  1  0  0  0
 14 15  2  0  0  0
 14 16  2  0  0  0
 14  7  1  0  0  0
  7  8  2  0  0  0
  8  9  1  0  0  0
  9 10  2  0  0  0
 10 11  1  0  0  0
 11 12  2  0  0  0
 10  1  1  0  0  0
  1  2  2  0  0  0
  2  3  1  0  0  0
  3  4  2  0  0  0
  4  5  1  0  0  0
  5  6  2  0  0  0
  4 17  1  0  0  0
 17 18  2  0  0  0
 17 19  1  0  0  0
 19 21  1  0  0  0
 21 22  2  0  0  0
 22 23  1  0  0  0
 23 24  2  0  0  0
 24 25  1  0  0  0
 25 26  2  0  0  0
 25 27  1  0  0  0
 27 28  1  0  0  0
 27 29  1  0  0  0
 27 30  1  0  0  0
 12  7  1  0  0  0
  6  1  1  0  0  0
 26 21  1  0  0  0
 19 20  1  0  0  0
M  END
> <minimizedAffinity>
17.25654

> <CNNscore>
0.4574389160

> <CNNaffinity>
4.5421886444

> <CNN_VS>
2.0777738094

> <CNNaffinity_variance>
0.4529236257

$$$$
[H]c1c([H])c(N([H])C(=O)c2c([H])c([H])c(-c3c([H])c([H])c(S(=O)(=O)C([H])([H])[H])c([H])c3[H])c([H])c2[H])c([H])c(C(F)(F)F)c1[H]


 30 32  0  0  0  0  0  0  0  0999 V2000
   38.3620  -20.7467   38.2806 C   0  0  0  0  0  0  0  0  0  0  0  0
   37.7129  -19.8830   37.3861 C   0  0  0  0  0  0  0  0  0  0  0  0
   36.3765  -19.8768   37.2317 C   0  0  0  0  0  0  0  0  0  0  0  0
   35.5591  -20.7563   37.9813 C   0  0  0  0  0  0  0  0  0  0  0  0
   36.1786  -21.5984   38.8552 C   0  0  0  0  0  0  0  0  0  0  0  0
   37.5948  -21.5944   39.0053 C   0  0  0  0  0  0  0  0  0  0  0  0
   42.6298  -20.4548   37.9886 C   0  0  0  0  0  0  0  0  0  0  0  0
   41.7797  -19.5287   37.4269 C   0  0  0  0  0  0  0  0  0  0  0  0
   40.4220  -19.6354   37.5844 C   0  0  0  0  0  0  0  0  0  0  0  0
   39.8155  -20.6785   38.3211 C   0  0  0  0  0  0  0  0  0  0  0  0
   40.6693  -21.5803   38.8755 C   0  0  0  0  0  0  0  0  0  0  0  0
   42.0543  -21.4731   38.7141 C   0  0  0  0  0  0  0  0  0  0  0  0
   44.9860  -22.0467   37.6430 C   0  0  0  0  0  0  0  0  0  0  0  0
   44.3684  -20.3721   37.6574 S   0  0  0  0  0  0  0  0  0  0  0  0
   44.6713  -19.6084   36.4423 O   0  0  0  0  0  0  0  0  0  0  0  0
   44.9924  -19.6722   38.8556 O   0  0  0  0  0  0  0  0  0  0  0  0
   34.1565  -20.6279   37.6513 C   0  0  0  0  0  0  0  0  0  0  0  0
   33.3319  -20.9064   38.5998 O   0  0  0  0  0  0  0  0  0  0  0  0
   33.7142  -20.2488   36.3834 N   0  0  0  0  0  0  0  0  0  0  0  0
   34.3860  -19.9861   35.6493 H   0  0  0  0  0  0  0  0  0  0  0  0
   32.3184  -20.2265   36.0450 C   0  0  0  0  0  0  0  0  0  0  0  0
   31.8819  -19.1259   35.2631 C   0  0  0  0  0  0  0  0  0  0  0  0
   30.5569  -19.0242   34.8958 C   0  0  0  0  0  0  0  0  0  0  0  0
   29.6374  -19.9611   35.2665 C   0  0  0  0  0  0  0  0  0  0  0  0
   30.0482  -21.0270   36.0202 C   0  0  0  0  0  0  0  0  0  0  0  0
   31.3949  -21.1475   36.4031 C   0  0  0  0  0  0  0  0  0  0  0  0
   29.0891  -22.0963   36.4442 C   0  0  0  0  0  0  0  0  0  0  0  0
   28.5927  -22.7730   35.3587 F   0  0  0  0  0  0  0  0  0  0  0  0
   29.7757  -23.0012   37.2585 F   0  0  0  0  0  0  0  0  0  0  0  0
   28.0847  -21.4517   37.1189 F   0  0  0  0  0  0  0  0  0  0  0  0
 13 14  1  0  0  0
 14 15  2  0  0  0
 14 16  2  0  0  0
 14  7  1  0  0  0
  7  8  2  0  0  0
  8  9  1  0  0  0
  9 10  2  0  0  0
 10 11  1  0  0  0
 11 12  2  0  0  0
 10  1  1  0  0  0
  1  2  2  0  0  0
  2  3  1  0  0  0
  3  4  2  0  0  0
  4  5  1  0  0  0
  5  6  2  0  0  0
  4 17  1  0  0  0
 17 18  2  0  0  0
 17 19  1  0  0  0
 19 21  1  0  0  0
 21 22  2  0  0  0
 22 23  1  0  0  0
 23 24  2  0  0  0
 24 25  1  0  0  0
 25 26  2  0  0  0
 25 27  1  0  0  0
 27 28  1  0  0  0
 27 29  1  0  0  0
 27 30  1  0  0  0
 12  7  1  0  0  0
  6  1  1  0  0  0
 26 21  1  0  0  0
 19 20  1  0  0  0
M  END
> <minimizedAffinity>
-5.55536

> <CNNscore>
0.4249701202

> <CNNaffinity>
4.3530197144

> <CNN_VS>
1.8499033451

> <CNNaffinity_variance>
0.4835991263

$$$$
[H]c1c([H])c(N([H])C(=O)c2c([H])c([H])c(-c3c([H])c([H])c([H])c(S(=O)(=O)N([H])[H])c3[H])c([H])c2[H])c([H])c(C(F)(F)F)c1[H]


 32 34  0  0  0  0  0  0  0  0999 V2000
   34.4504  -20.0647   36.6359 C   0  0  0  0  0  0  0  0  0  0  0  0
   35.2251  -18.9912   36.9283 C   0  0  0  0  0  0  0  0  0  0  0  0
   36.4951  -19.1778   37.4508 C   0  0  0  0  0  0  0  0  0  0  0  0
   37.0149  -20.4192   37.6905 C   0  0  0  0  0  0  0  0  0  0  0  0
   36.2250  -21.5079   37.3935 C   0  0  0  0  0  0  0  0  0  0  0  0
   34.9554  -21.3364   36.8715 C   0  0  0  0  0  0  0  0  0  0  0  0
   30.8445  -20.8213   36.0721 C   0  0  0  0  0  0  0  0  0  0  0  0
   30.5181  -19.8765   35.1164 C   0  0  0  0  0  0  0  0  0  0  0  0
   31.4407  -18.9731   34.6188 C   0  0  0  0  0  0  0  0  0  0  0  0
   32.7559  -19.0260   35.1103 C   0  0  0  0  0  0  0  0  0  0  0  0
   33.1043  -19.9592   36.0627 C   0  0  0  0  0  0  0  0  0  0  0  0
   32.1483  -20.8225   36.5124 C   0  0  0  0  0  0  0  0  0  0  0  0
   28.5999  -22.4865   35.4449 N   0  0  0  0  0  0  0  0  0  0  0  0
   29.6577  -21.9473   36.6957 S   0  0  0  0  0  0  0  0  0  0  0  0
   30.3185  -23.1483   37.3126 O   0  0  0  0  0  0  0  0  0  0  0  0
   28.8938  -21.2380   37.7758 O   0  0  0  0  0  0  0  0  0  0  0  0
   28.9543  -23.3061   34.9430 H   0  0  0  0  0  0  0  0  0  0  0  0
   28.3018  -21.6931   34.8300 H   0  0  0  0  0  0  0  0  0  0  0  0
   38.3838  -20.6144   38.2454 C   0  0  0  0  0  0  0  0  0  0  0  0
   38.4847  -21.0599   39.4016 O   0  0  0  0  0  0  0  0  0  0  0  0
   39.4629  -20.2793   37.4269 N   0  0  0  0  0  0  0  0  0  0  0  0
   39.3079  -19.8971   36.4400 H   0  0  0  0  0  0  0  0  0  0  0  0
   40.8024  -20.4243   37.8407 C   0  0  0  0  0  0  0  0  0  0  0  0
   41.5281  -19.4740   38.5050 C   0  0  0  0  0  0  0  0  0  0  0  0
   42.8720  -19.6477   38.8664 C   0  0  0  0  0  0  0  0  0  0  0  0
   43.4817  -20.8355   38.5336 C   0  0  0  0  0  0  0  0  0  0  0  0
   42.7816  -21.8205   37.8633 C   0  0  0  0  0  0  0  0  0  0  0  0
   41.4706  -21.6260   37.5215 C   0  0  0  0  0  0  0  0  0  0  0  0
   43.4404  -23.1003   37.5006 C   0  0  0  0  0  0  0  0  0  0  0  0
   44.0633  -23.0195   36.2761 F   0  0  0  0  0  0  0  0  0  0  0  0
   42.4959  -24.1148   37.5422 F   0  0  0  0  0  0  0  0  0  0  0  0
   44.4071  -23.3269   38.4875 F   0  0  0  0  0  0  0  0  0  0  0  0
 13 14  1  0  0  0
 14 15  2  0  0  0
 14 16  2  0  0  0
 14  7  1  0  0  0
  7  8  2  0  0  0
  8  9  1  0  0  0
  9 10  2  0  0  0
 10 11  1  0  0  0
 11 12  2  0  0  0
 11  1  1  0  0  0
  1  2  2  0  0  0
  2  3  1  0  0  0
  3  4  2  0  0  0
  4  5  1  0  0  0
  5  6  2  0  0  0
  4 19  1  0  0  0
 19 20  2  0  0  0
 19 21  1  0  0  0
 21 23  1  0  0  0
 23 24  2  0  0  0
 24 25  1  0  0  0
 25 26  2  0  0  0
 26 27  1  0  0  0
 27 28  2  0  0  0
 27 29  1  0  0  0
 29 30  1  0  0  0
 29 31  1  0  0  0
 29 32  1  0  0  0
 12  7  1  0  0  0
  6  1  1  0  0  0
 28 23  1  0  0  0
 13 17  1  0  0  0
 13 18  1  0  0  0
 21 22  1  0  0  0
M  END
> <minimizedAffinity>
-4.81165

> <CNNscore>
0.5470799804

> <CNNaffinity>
4.6584577560

> <CNN_VS>
2.5485489368

> <CNNaffinity_variance>
0.0572333038

$$$$
[H]c1c([H])c(N([H])C(=O)c2c([H])c([H])c(-c3c([H])c([H])c([H])c(S(=O)(=O)N([H])[H])c3[H])c([H])c2[H])c([H])c(C(F)(F)F)c1[H]


 32 34  0  0  0  0  0  0  0  0999 V2000
   34.4360  -20.3756   36.7453 C   0  0  0  0  0  0  0  0  0  0  0  0
   35.2835  -19.3748   37.0887 C   0  0  0  0  0  0  0  0  0  0  0  0
   36.5311  -19.6754   37.6121 C   0  0  0  0  0  0  0  0  0  0  0  0
   36.9568  -20.9604   37.8027 C   0  0  0  0  0  0  0  0  0  0  0  0
   36.0929  -21.9751   37.4539 C   0  0  0  0  0  0  0  0  0  0  0  0
   34.8447  -21.6896   36.9304 C   0  0  0  0  0  0  0  0  0  0  0  0
   30.7864  -20.8291   36.1381 C   0  0  0  0  0  0  0  0  0  0  0  0
   30.5434  -19.8351   35.2079 C   0  0  0  0  0  0  0  0  0  0  0  0
   31.5384  -18.9937   34.7420 C   0  0  0  0  0  0  0  0  0  0  0  0
   32.8412  -19.1641   35.2397 C   0  0  0  0  0  0  0  0  0  0  0  0
   33.1071  -20.1481   36.1672 C   0  0  0  0  0  0  0  0  0  0  0  0
   32.0824  -20.9456   36.5862 C   0  0  0  0  0  0  0  0  0  0  0  0
   28.4932  -22.3916   35.4282 N   0  0  0  0  0  0  0  0  0  0  0  0
   29.5096  -21.8749   36.7221 S   0  0  0  0  0  0  0  0  0  0  0  0
   30.0713  -23.0918   37.4028 O   0  0  0  0  0  0  0  0  0  0  0  0
   28.7276  -21.0984   37.7413 O   0  0  0  0  0  0  0  0  0  0  0  0
   28.8299  -23.2416   34.9662 H   0  0  0  0  0  0  0  0  0  0  0  0
   28.2714  -21.6005   34.7790 H   0  0  0  0  0  0  0  0  0  0  0  0
   38.3019  -21.2782   38.3589 C   0  0  0  0  0  0  0  0  0  0  0  0
   39.1590  -21.7353   37.5830 O   0  0  0  0  0  0  0  0  0  0  0  0
   38.5071  -21.0429   39.7187 N   0  0  0  0  0  0  0  0  0  0  0  0
   37.7254  -20.6497   40.3338 H   0  0  0  0  0  0  0  0  0  0  0  0
   39.7375  -21.3009   40.3559 C   0  0  0  0  0  0  0  0  0  0  0  0
   40.1251  -22.5129   40.8579 C   0  0  0  0  0  0  0  0  0  0  0  0
   41.3461  -22.7159   41.5173 C   0  0  0  0  0  0  0  0  0  0  0  0
   42.1894  -21.6383   41.6606 C   0  0  0  0  0  0  0  0  0  0  0  0
   41.8340  -20.3978   41.1660 C   0  0  0  0  0  0  0  0  0  0  0  0
   40.6362  -20.2257   40.5266 C   0  0  0  0  0  0  0  0  0  0  0  0
   42.7421  -19.2341   41.3242 C   0  0  0  0  0  0  0  0  0  0  0  0
   42.5250  -18.5813   42.5160 F   0  0  0  0  0  0  0  0  0  0  0  0
   42.5856  -18.3954   40.2310 F   0  0  0  0  0  0  0  0  0  0  0  0
   44.0402  -19.7582   41.3236 F   0  0  0  0  0  0  0  0  0  0  0  0
 13 14  1  0  0  0
 14 15  2  0  0  0
 14 16  2  0  0  0
 14  7  1  0  0  0
  7  8  2  0  0  0
  8  9  1  0  0  0
  9 10  2  0  0  0
 10 11  1  0  0  0
 11 12  2  0  0  0
 11  1  1  0  0  0
  1  2  2  0  0  0
  2  3  1  0  0  0
  3  4  2  0  0  0
  4  5  1  0  0  0
  5  6  2  0  0  0
  4 19  1  0  0  0
 19 20  2  0  0  0
 19 21  1  0  0  0
 21 23  1  0  0  0
 23 24  2  0  0  0
 24 25  1  0  0  0
 25 26  2  0  0  0
 26 27  1  0  0  0
 27 28  2  0  0  0
 27 29  1  0  0  0
 29 30  1  0  0  0
 29 31  1  0  0  0
 29 32  1  0  0  0
 12  7  1  0  0  0
  6  1  1  0  0  0
 28 23  1  0  0  0
 13 17  1  0  0  0
 13 18  1  0  0  0
 21 22  1  0  0  0
M  END
> <minimizedAffinity>
-5.35867

> <CNNscore>
0.5232725143

> <CNNaffinity>
4.4445037842

> <CNN_VS>
2.3256866932

> <CNNaffinity_variance>
0.1128572002

$$$$
[H]c1c([H])c(N([H])C(=O)c2c([H])c([H])c(-c3c([H])c([H])c([H])c(S(=O)(=O)N([H])[H])c3[H])c([H])c2[H])c([H])c(C(F)(F)F)c1[H]


 32 34  0  0  0  0  0  0  0  0999 V2000
   35.1682  -16.2612   36.5293 C   0  0  0  0  0  0  0  0  0  0  0  0
   34.3717  -17.0598   35.7772 C   0  0  0  0  0  0  0  0  0  0  0  0
   34.4837  -18.4376   35.8768 C   0  0  0  0  0  0  0  0  0  0  0  0
   35.3780  -19.0426   36.7151 C   0  0  0  0  0  0  0  0  0  0  0  0
   36.1868  -18.2285   37.4771 C   0  0  0  0  0  0  0  0  0  0  0  0
   36.0858  -16.8517   37.3879 C   0  0  0  0  0  0  0  0  0  0  0  0
   33.8003  -12.8330   37.0488 C   0  0  0  0  0  0  0  0  0  0  0  0
   34.8312  -12.0548   36.5546 C   0  0  0  0  0  0  0  0  0  0  0  0
   35.9917  -12.6011   36.0351 C   0  0  0  0  0  0  0  0  0  0  0  0
   36.1174  -14.0003   36.0143 C   0  0  0  0  0  0  0  0  0  0  0  0
   35.1030  -14.7960   36.5013 C   0  0  0  0  0  0  0  0  0  0  0  0
   33.9836  -14.1961   36.9998 C   0  0  0  0  0  0  0  0  0  0  0  0
   32.5801  -10.4471   38.0600 N   0  0  0  0  0  0  0  0  0  0  0  0
   32.3454  -12.1198   37.7119 S   0  0  0  0  0  0  0  0  0  0  0  0
   31.1912  -12.2513   36.7578 O   0  0  0  0  0  0  0  0  0  0  0  0
   32.0013  -12.8838   38.9573 O   0  0  0  0  0  0  0  0  0  0  0  0
   32.3842   -9.8377   37.2602 H   0  0  0  0  0  0  0  0  0  0  0  0
   33.5060  -10.2801   38.5197 H   0  0  0  0  0  0  0  0  0  0  0  0
   35.4892  -20.5243   36.8239 C   0  0  0  0  0  0  0  0  0  0  0  0
   34.5178  -21.2089   36.4589 O   0  0  0  0  0  0  0  0  0  0  0  0
   36.6797  -21.0439   37.3331 N   0  0  0  0  0  0  0  0  0  0  0  0
   37.4786  -20.3988   37.6328 H   0  0  0  0  0  0  0  0  0  0  0  0
   36.9022  -22.4279   37.4791 C   0  0  0  0  0  0  0  0  0  0  0  0
   37.5387  -23.2233   36.5662 C   0  0  0  0  0  0  0  0  0  0  0  0
   37.7066  -24.6052   36.7369 C   0  0  0  0  0  0  0  0  0  0  0  0
   37.2045  -25.1801   37.8816 C   0  0  0  0  0  0  0  0  0  0  0  0
   36.5560  -24.4098   38.8281 C   0  0  0  0  0  0  0  0  0  0  0  0
   36.4047  -23.0629   38.6376 C   0  0  0  0  0  0  0  0  0  0  0  0
   36.0107  -25.0306   40.0613 C   0  0  0  0  0  0  0  0  0  0  0  0
   35.5984  -24.0797   40.9667 F   0  0  0  0  0  0  0  0  0  0  0  0
   36.9689  -25.8801   40.5933 F   0  0  0  0  0  0  0  0  0  0  0  0
   34.9012  -25.7811   39.6542 F   0  0  0  0  0  0  0  0  0  0  0  0
 13 14  1  0  0  0
 14 15  2  0  0  0
 14 16  2  0  0  0
 14  7  1  0  0  0
  7  8  2  0  0  0
  8  9  1  0  0  0
  9 10  2  0  0  0
 10 11  1  0  0  0
 11 12  2  0  0  0
 11  1  1  0  0  0
  1  2  2  0  0  0
  2  3  1  0  0  0
  3  4  2  0  0  0
  4  5  1  0  0  0
  5  6  2  0  0  0
  4 19  1  0  0  0
 19 20  2  0  0  0
 19 21  1  0  0  0
 21 23  1  0  0  0
 23 24  2  0  0  0
 24 25  1  0  0  0
 25 26  2  0  0  0
 26 27  1  0  0  0
 27 28  2  0  0  0
 27 29  1  0  0  0
 29 30  1  0  0  0
 29 31  1  0  0  0
 29 32  1  0  0  0
 12  7  1  0  0  0
  6  1  1  0  0  0
 28 23  1  0  0  0
 13 17  1  0  0  0
 13 18  1  0  0  0
 21 22  1  0  0  0
M  END
> <minimizedAffinity>
-6.41226

> <CNNscore>
0.4506468773

> <CNNaffinity>
5.2092962265

> <CNN_VS>
2.3475530148

> <CNNaffinity_variance>
0.1257291734

$$$$
[H]c1c([H])c(N([H])C(=O)c2c([H])c([H])c(-c3c([H])c([H])c([H])c(S(=O)(=O)N([H])[H])c3[H])c([H])c2[H])c([H])c(C(F)(F)F)c1[H]


 32 34  0  0  0  0  0  0  0  0999 V2000
   32.2184  -21.0876   35.6246 C   0  0  0  0  0  0  0  0  0  0  0  0
   31.7192  -19.9603   35.0606 C   0  0  0  0  0  0  0  0  0  0  0  0
   32.3519  -18.7451   35.2695 C   0  0  0  0  0  0  0  0  0  0  0  0
   33.4792  -18.6263   36.0336 C   0  0  0  0  0  0  0  0  0  0  0  0
   33.9832  -19.7732   36.6063 C   0  0  0  0  0  0  0  0  0  0  0  0
   33.3620  -20.9930   36.4062 C   0  0  0  0  0  0  0  0  0  0  0  0
   29.6717  -23.8056   35.7643 C   0  0  0  0  0  0  0  0  0  0  0  0
   30.3486  -24.8400   35.1444 C   0  0  0  0  0  0  0  0  0  0  0  0
   31.6407  -24.7028   34.6683 C   0  0  0  0  0  0  0  0  0  0  0  0
   32.2796  -23.4614   34.8252 C   0  0  0  0  0  0  0  0  0  0  0  0
   31.6247  -22.4162   35.4400 C   0  0  0  0  0  0  0  0  0  0  0  0
   30.3516  -22.6156   35.8883 C   0  0  0  0  0  0  0  0  0  0  0  0
   26.9981  -24.5936   35.1041 N   0  0  0  0  0  0  0  0  0  0  0  0
   28.0327  -23.9984   36.3490 S   0  0  0  0  0  0  0  0  0  0  0  0
   27.9779  -24.9507   37.5109 O   0  0  0  0  0  0  0  0  0  0  0  0
   27.5708  -22.6551   36.8340 O   0  0  0  0  0  0  0  0  0  0  0  0
   26.9828  -25.6163   35.0476 H   0  0  0  0  0  0  0  0  0  0  0  0
   27.1797  -24.1086   34.1940 H   0  0  0  0  0  0  0  0  0  0  0  0
   34.1596  -17.3185   36.2490 C   0  0  0  0  0  0  0  0  0  0  0  0
   35.3542  -17.3340   36.5928 O   0  0  0  0  0  0  0  0  0  0  0  0
   33.4053  -16.1614   36.0523 N   0  0  0  0  0  0  0  0  0  0  0  0
   32.3783  -16.2167   35.7585 H   0  0  0  0  0  0  0  0  0  0  0  0
   33.9409  -14.8688   36.2221 C   0  0  0  0  0  0  0  0  0  0  0  0
   35.1483  -14.4472   35.7369 C   0  0  0  0  0  0  0  0  0  0  0  0
   35.6587  -13.1603   35.9608 C   0  0  0  0  0  0  0  0  0  0  0  0
   34.9007  -12.2855   36.7046 C   0  0  0  0  0  0  0  0  0  0  0  0
   33.6750  -12.6738   37.2112 C   0  0  0  0  0  0  0  0  0  0  0  0
   33.1994  -13.9359   36.9788 C   0  0  0  0  0  0  0  0  0  0  0  0
   32.8590  -11.7314   38.0171 C   0  0  0  0  0  0  0  0  0  0  0  0
   32.0804  -12.3955   38.9372 F   0  0  0  0  0  0  0  0  0  0  0  0
   32.1023  -10.9498   37.1572 F   0  0  0  0  0  0  0  0  0  0  0  0
   33.7730  -10.9187   38.6982 F   0  0  0  0  0  0  0  0  0  0  0  0
 13 14  1  0  0  0
 14 15  2  0  0  0
 14 16  2  0  0  0
 14  7  1  0  0  0
  7  8  2  0  0  0
  8  9  1  0  0  0
  9 10  2  0  0  0
 10 11  1  0  0  0
 11 12  2  0  0  0
 11  1  1  0  0  0
  1  2  2  0  0  0
  2  3  1  0  0  0
  3  4  2  0  0  0
  4  5  1  0  0  0
  5  6  2  0  0  0
  4 19  1  0  0  0
 19 20  2  0  0  0
 19 21  1  0  0  0
 21 23  1  0  0  0
 23 24  2  0  0  0
 24 25  1  0  0  0
 25 26  2  0  0  0
 26 27  1  0  0  0
 27 28  2  0  0  0
 27 29  1  0  0  0
 29 30  1  0  0  0
 29 31  1  0  0  0
 29 32  1  0  0  0
 12  7  1  0  0  0
  6  1  1  0  0  0
 28 23  1  0  0  0
 13 17  1  0  0  0
 13 18  1  0  0  0
 21 22  1  0  0  0
M  END
> <minimizedAffinity>
-6.19237

> <CNNscore>
0.3994858265

> <CNNaffinity>
4.8989615440

> <CNN_VS>
1.9570657015

> <CNNaffinity_variance>
0.0993248820

$$$$
[H]c1c([H])c(N([H])C(=O)c2c([H])c([H])c(-c3c([H])c([H])c([H])c(S(=O)(=O)N([H])[H])c3[H])c([H])c2[H])c([H])c(C(F)(F)F)c1[H]


 32 34  0  0  0  0  0  0  0  0999 V2000
   39.2025  -19.7742   37.4581 C   0  0  0  0  0  0  0  0  0  0  0  0
   38.3938  -19.1402   36.5738 C   0  0  0  0  0  0  0  0  0  0  0  0
   37.0420  -19.4433   36.5339 C   0  0  0  0  0  0  0  0  0  0  0  0
   36.4732  -20.3709   37.3612 C   0  0  0  0  0  0  0  0  0  0  0  0
   37.2976  -21.0144   38.2578 C   0  0  0  0  0  0  0  0  0  0  0  0
   38.6487  -20.7217   38.3086 C   0  0  0  0  0  0  0  0  0  0  0  0
   42.6506  -19.8770   38.8699 C   0  0  0  0  0  0  0  0  0  0  0  0
   43.3418  -19.1144   37.9463 C   0  0  0  0  0  0  0  0  0  0  0  0
   42.7269  -18.5394   36.8479 C   0  0  0  0  0  0  0  0  0  0  0  0
   41.3480  -18.7449   36.6738 C   0  0  0  0  0  0  0  0  0  0  0  0
   40.6384  -19.5011   37.5815 C   0  0  0  0  0  0  0  0  0  0  0  0
   41.3030  -20.0405   38.6440 C   0  0  0  0  0  0  0  0  0  0  0  0
   42.3723  -20.7506   41.5836 N   0  0  0  0  0  0  0  0  0  0  0  0
   43.4515  -20.6044   40.2463 S   0  0  0  0  0  0  0  0  0  0  0  0
   43.9808  -21.9704   39.9087 O   0  0  0  0  0  0  0  0  0  0  0  0
   44.6220  -19.7315   40.5944 O   0  0  0  0  0  0  0  0  0  0  0  0
   41.8342  -21.6222   41.5736 H   0  0  0  0  0  0  0  0  0  0  0  0
   41.7975  -19.8839   41.7054 H   0  0  0  0  0  0  0  0  0  0  0  0
   35.0180  -20.6877   37.3192 C   0  0  0  0  0  0  0  0  0  0  0  0
   34.3526  -20.5044   38.3533 O   0  0  0  0  0  0  0  0  0  0  0  0
   34.5003  -21.1735   36.1181 N   0  0  0  0  0  0  0  0  0  0  0  0
   35.1284  -21.3116   35.2634 H   0  0  0  0  0  0  0  0  0  0  0  0
   33.1397  -21.5039   35.9571 C   0  0  0  0  0  0  0  0  0  0  0  0
   32.6238  -22.7690   36.0232 C   0  0  0  0  0  0  0  0  0  0  0  0
   31.2660  -23.0560   35.8207 C   0  0  0  0  0  0  0  0  0  0  0  0
   30.4188  -22.0078   35.5439 C   0  0  0  0  0  0  0  0  0  0  0  0
   30.9019  -20.7152   35.4698 C   0  0  0  0  0  0  0  0  0  0  0  0
   32.2317  -20.4616   35.6709 C   0  0  0  0  0  0  0  0  0  0  0  0
   29.9886  -19.5848   35.1671 C   0  0  0  0  0  0  0  0  0  0  0  0
   28.8762  -19.6021   35.9771 F   0  0  0  0  0  0  0  0  0  0  0  0
   29.6576  -19.6279   33.8211 F   0  0  0  0  0  0  0  0  0  0  0  0
   30.7210  -18.4203   35.4267 F   0  0  0  0  0  0  0  0  0  0  0  0
 13 14  1  0  0  0
 14 15  2  0  0  0
 14 16  2  0  0  0
 14  7  1  0  0  0
  7  8  2  0  0  0
  8  9  1  0  0  0
  9 10  2  0  0  0
 10 11  1  0  0  0
 11 12  2  0  0  0
 11  1  1  0  0  0
  1  2  2  0  0  0
  2  3  1  0  0  0
  3  4  2  0  0  0
  4  5  1  0  0  0
  5  6  2  0  0  0
  4 19  1  0  0  0
 19 20  2  0  0  0
 19 21  1  0  0  0
 21 23  1  0  0  0
 23 24  2  0  0  0
 24 25  1  0  0  0
 25 26  2  0  0  0
 26 27  1  0  0  0
 27 28  2  0  0  0
 27 29  1  0  0  0
 29 30  1  0  0  0
 29 31  1  0  0  0
 29 32  1  0  0  0
 12  7  1  0  0  0
  6  1  1  0  0  0
 28 23  1  0  0  0
 13 17  1  0  0  0
 13 18  1  0  0  0
 21 22  1  0  0  0
M  END
> <minimizedAffinity>
-5.60746

> <CNNscore>
0.3978959024

> <CNNaffinity>
4.3894195557

> <CNN_VS>
1.7465320826

> <CNNaffinity_variance>
0.1519091129

$$$$
[H]c1c([H])c(N([H])C(=O)c2c([H])c([H])c(-c3c([H])c([H])c([H])c(S(=O)(=O)N([H])[H])c3[H])c([H])c2[H])c([H])c(C(F)(F)F)c1[H]


 32 34  0  0  0  0  0  0  0  0999 V2000
   32.1058  -21.6185   35.2587 C   0  0  0  0  0  0  0  0  0  0  0  0
   32.1531  -20.9609   34.0741 C   0  0  0  0  0  0  0  0  0  0  0  0
   32.6031  -19.6508   34.0291 C   0  0  0  0  0  0  0  0  0  0  0  0
   33.0099  -18.9757   35.1459 C   0  0  0  0  0  0  0  0  0  0  0  0
   32.9595  -19.6462   36.3482 C   0  0  0  0  0  0  0  0  0  0  0  0
   32.5126  -20.9540   36.4079 C   0  0  0  0  0  0  0  0  0  0  0  0
   29.7707  -24.5093   35.5486 C   0  0  0  0  0  0  0  0  0  0  0  0
   30.6594  -25.5668   35.6147 C   0  0  0  0  0  0  0  0  0  0  0  0
   32.0312  -25.3885   35.5745 C   0  0  0  0  0  0  0  0  0  0  0  0
   32.5292  -24.0796   35.4617 C   0  0  0  0  0  0  0  0  0  0  0  0
   31.6626  -23.0102   35.3945 C   0  0  0  0  0  0  0  0  0  0  0  0
   30.3207  -23.2525   35.4397 C   0  0  0  0  0  0  0  0  0  0  0  0
   27.5178  -25.7031   34.2435 N   0  0  0  0  0  0  0  0  0  0  0  0
   28.0384  -24.7593   35.5897 S   0  0  0  0  0  0  0  0  0  0  0  0
   27.6192  -25.4580   36.8530 O   0  0  0  0  0  0  0  0  0  0  0  0
   27.3915  -23.4049   35.5776 O   0  0  0  0  0  0  0  0  0  0  0  0
   27.5582  -26.7116   34.4187 H   0  0  0  0  0  0  0  0  0  0  0  0
   27.9851  -25.3946   33.3587 H   0  0  0  0  0  0  0  0  0  0  0  0
   33.4998  -17.5697   35.0909 C   0  0  0  0  0  0  0  0  0  0  0  0
   33.5273  -17.0062   33.9831 O   0  0  0  0  0  0  0  0  0  0  0  0
   33.8988  -16.9807   36.2911 N   0  0  0  0  0  0  0  0  0  0  0  0
   33.8530  -17.5221   37.2124 H   0  0  0  0  0  0  0  0  0  0  0  0
   34.3758  -15.6565   36.3643 C   0  0  0  0  0  0  0  0  0  0  0  0
   33.6734  -14.5449   35.9873 C   0  0  0  0  0  0  0  0  0  0  0  0
   34.2017  -13.2470   36.0441 C   0  0  0  0  0  0  0  0  0  0  0  0
   35.4895  -13.0936   36.5037 C   0  0  0  0  0  0  0  0  0  0  0  0
   36.2310  -14.1922   36.8950 C   0  0  0  0  0  0  0  0  0  0  0  0
   35.6923  -15.4487   36.8295 C   0  0  0  0  0  0  0  0  0  0  0  0
   37.6217  -14.0273   37.3870 C   0  0  0  0  0  0  0  0  0  0  0  0
   38.3152  -15.2154   37.3515 F   0  0  0  0  0  0  0  0  0  0  0  0
   37.5814  -13.4819   38.6613 F   0  0  0  0  0  0  0  0  0  0  0  0
   38.2320  -13.1191   36.5138 F   0  0  0  0  0  0  0  0  0  0  0  0
 13 14  1  0  0  0
 14 15  2  0  0  0
 14 16  2  0  0  0
 14  7  1  0  0  0
  7  8  2  0  0  0
  8  9  1  0  0  0
  9 10  2  0  0  0
 10 11  1  0  0  0
 11 12  2  0  0  0
 11  1  1  0  0  0
  1  2  2  0  0  0
  2  3  1  0  0  0
  3  4  2  0  0  0
  4  5  1  0  0  0
  5  6  2  0  0  0
  4 19  1  0  0  0
 19 20  2  0  0  0
 19 21  1  0  0  0
 21 23  1  0  0  0
 23 24  2  0  0  0
 24 25  1  0  0  0
 25 26  2  0  0  0
 26 27  1  0  0  0
 27 28  2  0  0  0
 27 29  1  0  0  0
 29 30  1  0  0  0
 29 31  1  0  0  0
 29 32  1  0  0  0
 12  7  1  0  0  0
  6  1  1  0  0  0
 28 23  1  0  0  0
 13 17  1  0  0  0
 13 18  1  0  0  0
 21 22  1  0  0  0
M  END
> <minimizedAffinity>
-5.91419

> <CNNscore>
0.3955450654

> <CNNaffinity>
4.7242908478

> <CNN_VS>
1.8686699867

> <CNNaffinity_variance>
0.0826361403

$$$$
[H]c1c([H])c(N([H])C(=O)c2c([H])c([H])c(-c3c([H])c([H])c([H])c(S(=O)(=O)N([H])[H])c3[H])c([H])c2[H])c([H])c(C(F)(F)F)c1[H]


 32 34  0  0  0  0  0  0  0  0999 V2000
   35.3167  -22.0022   37.4513 C   0  0  0  0  0  0  0  0  0  0  0  0
   36.1442  -23.0690   37.5743 C   0  0  0  0  0  0  0  0  0  0  0  0
   37.3822  -22.9166   38.1785 C   0  0  0  0  0  0  0  0  0  0  0  0
   37.8179  -21.7164   38.6665 C   0  0  0  0  0  0  0  0  0  0  0  0
   36.9754  -20.6341   38.5388 C   0  0  0  0  0  0  0  0  0  0  0  0
   35.7369  -20.7717   37.9381 C   0  0  0  0  0  0  0  0  0  0  0  0
   32.2209  -20.8692   35.7119 C   0  0  0  0  0  0  0  0  0  0  0  0
   31.5058  -22.0506   35.6396 C   0  0  0  0  0  0  0  0  0  0  0  0
   31.9877  -23.2436   36.1491 C   0  0  0  0  0  0  0  0  0  0  0  0
   33.2527  -23.2434   36.7605 C   0  0  0  0  0  0  0  0  0  0  0  0
   33.9834  -22.0780   36.8443 C   0  0  0  0  0  0  0  0  0  0  0  0
   33.4522  -20.9345   36.3230 C   0  0  0  0  0  0  0  0  0  0  0  0
   32.5751  -18.0334   35.5190 N   0  0  0  0  0  0  0  0  0  0  0  0
   31.5961  -19.3735   35.0502 S   0  0  0  0  0  0  0  0  0  0  0  0
   31.5426  -19.4231   33.5487 O   0  0  0  0  0  0  0  0  0  0  0  0
   30.1915  -19.2144   35.5548 O   0  0  0  0  0  0  0  0  0  0  0  0
   33.3574  -17.8628   34.8800 H   0  0  0  0  0  0  0  0  0  0  0  0
   32.8419  -18.0919   36.5299 H   0  0  0  0  0  0  0  0  0  0  0  0
   39.1467  -21.5596   39.3217 C   0  0  0  0  0  0  0  0  0  0  0  0
   39.4930  -22.4211   40.1484 O   0  0  0  0  0  0  0  0  0  0  0  0
   39.9131  -20.4502   38.9635 N   0  0  0  0  0  0  0  0  0  0  0  0
   39.5557  -19.7423   38.2457 H   0  0  0  0  0  0  0  0  0  0  0  0
   41.1864  -20.1985   39.5128 C   0  0  0  0  0  0  0  0  0  0  0  0
   42.3595  -20.1905   38.8093 C   0  0  0  0  0  0  0  0  0  0  0  0
   43.6102  -19.9702   39.4044 C   0  0  0  0  0  0  0  0  0  0  0  0
   43.6495  -19.7513   40.7622 C   0  0  0  0  0  0  0  0  0  0  0  0
   42.4857  -19.7506   41.5074 C   0  0  0  0  0  0  0  0  0  0  0  0
   41.2775  -19.9686   40.9026 C   0  0  0  0  0  0  0  0  0  0  0  0
   42.5285  -19.5184   42.9730 C   0  0  0  0  0  0  0  0  0  0  0  0
   43.5764  -20.1890   43.5611 F   0  0  0  0  0  0  0  0  0  0  0  0
   41.3047  -19.8784   43.5167 F   0  0  0  0  0  0  0  0  0  0  0  0
   42.7212  -18.1416   43.1374 F   0  0  0  0  0  0  0  0  0  0  0  0
 13 14  1  0  0  0
 14 15  2  0  0  0
 14 16  2  0  0  0
 14  7  1  0  0  0
  7  8  2  0  0  0
  8  9  1  0  0  0
  9 10  2  0  0  0
 10 11  1  0  0  0
 11 12  2  0  0  0
 11  1  1  0  0  0
  1  2  2  0  0  0
  2  3  1  0  0  0
  3  4  2  0  0  0
  4  5  1  0  0  0
  5  6  2  0  0  0
  4 19  1  0  0  0
 19 20  2  0  0  0
 19 21  1  0  0  0
 21 23  1  0  0  0
 23 24  2  0  0  0
 24 25  1  0  0  0
 25 26  2  0  0  0
 26 27  1  0  0  0
 27 28  2  0  0  0
 27 29  1  0  0  0
 29 30  1  0  0  0
 29 31  1  0  0  0
 29 32  1  0  0  0
 12  7  1  0  0  0
  6  1  1  0  0  0
 28 23  1  0  0  0
 13 17  1  0  0  0
 13 18  1  0  0  0
 21 22  1  0  0  0
M  END
> <minimizedAffinity>
-4.99455

> <CNNscore>
0.3884092271

> <CNNaffinity>
4.4164347649

> <CNN_VS>
1.7153840065

> <CNNaffinity_variance>
0.2132712603

$$$$
[H]c1c([H])c(N([H])C(=O)c2c([H])c([H])c(-c3c([H])c([H])c([H])c(S(=O)(=O)N([H])[H])c3[H])c([H])c2[H])c([H])c(C(F)(F)F)c1[H]


 32 34  0  0  0  0  0  0  0  0999 V2000
   35.9536  -16.2483   36.1800 C   0  0  0  0  0  0  0  0  0  0  0  0
   36.4192  -15.3990   37.1286 C   0  0  0  0  0  0  0  0  0  0  0  0
   35.5992  -14.3951   37.6191 C   0  0  0  0  0  0  0  0  0  0  0  0
   34.3162  -14.2166   37.1826 C   0  0  0  0  0  0  0  0  0  0  0  0
   33.8465  -15.0803   36.2179 C   0  0  0  0  0  0  0  0  0  0  0  0
   34.6538  -16.0870   35.7193 C   0  0  0  0  0  0  0  0  0  0  0  0
   38.1540  -19.2559   36.1006 C   0  0  0  0  0  0  0  0  0  0  0  0
   38.2483  -19.4838   34.7398 C   0  0  0  0  0  0  0  0  0  0  0  0
   37.6171  -18.6807   33.8062 C   0  0  0  0  0  0  0  0  0  0  0  0
   36.8536  -17.5959   34.2690 C   0  0  0  0  0  0  0  0  0  0  0  0
   36.7454  -17.3492   35.6205 C   0  0  0  0  0  0  0  0  0  0  0  0
   37.3925  -18.1778   36.4901 C   0  0  0  0  0  0  0  0  0  0  0  0
   39.3047  -21.8349   36.5794 N   0  0  0  0  0  0  0  0  0  0  0  0
   38.9521  -20.2920   37.2645 S   0  0  0  0  0  0  0  0  0  0  0  0
   40.2371  -19.6793   37.7474 O   0  0  0  0  0  0  0  0  0  0  0  0
   38.0351  -20.4262   38.4453 O   0  0  0  0  0  0  0  0  0  0  0  0
   40.2077  -21.8644   36.0965 H   0  0  0  0  0  0  0  0  0  0  0  0
   38.4975  -22.1958   36.0183 H   0  0  0  0  0  0  0  0  0  0  0  0
   33.4364  -13.1403   37.7186 C   0  0  0  0  0  0  0  0  0  0  0  0
   33.2854  -13.0720   38.9507 O   0  0  0  0  0  0  0  0  0  0  0  0
   32.8373  -12.2813   36.7968 N   0  0  0  0  0  0  0  0  0  0  0  0
   33.0062  -12.3956   35.7468 H   0  0  0  0  0  0  0  0  0  0  0  0
   31.9891  -11.2246   37.1847 C   0  0  0  0  0  0  0  0  0  0  0  0
   32.3486   -9.9059   37.2384 C   0  0  0  0  0  0  0  0  0  0  0  0
   31.4808   -8.8903   37.6654 C   0  0  0  0  0  0  0  0  0  0  0  0
   30.2075   -9.2467   38.0459 C   0  0  0  0  0  0  0  0  0  0  0  0
   29.8063  -10.5685   38.0046 C   0  0  0  0  0  0  0  0  0  0  0  0
   30.6727  -11.5411   37.5843 C   0  0  0  0  0  0  0  0  0  0  0  0
   28.4338  -10.9536   38.4189 C   0  0  0  0  0  0  0  0  0  0  0  0
   28.4537  -11.9025   39.4154 F   0  0  0  0  0  0  0  0  0  0  0  0
   27.7351  -11.3825   37.3006 F   0  0  0  0  0  0  0  0  0  0  0  0
   27.8417   -9.7863   38.9154 F   0  0  0  0  0  0  0  0  0  0  0  0
 13 14  1  0  0  0
 14 15  2  0  0  0
 14 16  2  0  0  0
 14  7  1  0  0  0
  7  8  2  0  0  0
  8  9  1  0  0  0
  9 10  2  0  0  0
 10 11  1  0  0  0
 11 12  2  0  0  0
 11  1  1  0  0  0
  1  2  2  0  0  0
  2  3  1  0  0  0
  3  4  2  0  0  0
  4  5  1  0  0  0
  5  6  2  0  0  0
  4 19  1  0  0  0
 19 20  2  0  0  0
 19 21  1  0  0  0
 21 23  1  0  0  0
 23 24  2  0  0  0
 24 25  1  0  0  0
 25 26  2  0  0  0
 26 27  1  0  0  0
 27 28  2  0  0  0
 27 29  1  0  0  0
 29 30  1  0  0  0
 29 31  1  0  0  0
 29 32  1  0  0  0
 12  7  1  0  0  0
  6  1  1  0  0  0
 28 23  1  0  0  0
 13 17  1  0  0  0
 13 18  1  0  0  0
 21 22  1  0  0  0
M  END
> <minimizedAffinity>
-9.36647

> <CNNscore>
0.3328672647

> <CNNaffinity>
5.3740296364

> <CNN_VS>
1.7888385057

> <CNNaffinity_variance>
0.2729790211

$$$$
[H]c1c([H])c(N([H])C(=O)c2c([H])c([H])c(-c3c([H])c([H])c([H])c(S(=O)(=O)N([H])[H])c3[H])c([H])c2[H])c([H])c(C(F)(F)F)c1[H]


 32 34  0  0  0  0  0  0  0  0999 V2000
   36.4130  -17.0346   36.4888 C   0  0  0  0  0  0  0  0  0  0  0  0
   37.0949  -15.9588   36.9529 C   0  0  0  0  0  0  0  0  0  0  0  0
   36.5112  -14.7023   36.9150 C   0  0  0  0  0  0  0  0  0  0  0  0
   35.2540  -14.4916   36.4215 C   0  0  0  0  0  0  0  0  0  0  0  0
   34.5642  -15.5865   35.9495 C   0  0  0  0  0  0  0  0  0  0  0  0
   35.1344  -16.8465   35.9812 C   0  0  0  0  0  0  0  0  0  0  0  0
   38.4777  -19.9743   35.4946 C   0  0  0  0  0  0  0  0  0  0  0  0
   38.0745  -20.9132   36.4264 C   0  0  0  0  0  0  0  0  0  0  0  0
   37.1269  -20.6381   37.3967 C   0  0  0  0  0  0  0  0  0  0  0  0
   36.5598  -19.3530   37.4277 C   0  0  0  0  0  0  0  0  0  0  0  0
   36.9461  -18.4011   36.5091 C   0  0  0  0  0  0  0  0  0  0  0  0
   37.8848  -18.7351   35.5771 C   0  0  0  0  0  0  0  0  0  0  0  0
   39.1769  -19.8152   32.7215 N   0  0  0  0  0  0  0  0  0  0  0  0
   39.6868  -20.3411   34.2827 S   0  0  0  0  0  0  0  0  0  0  0  0
   40.9979  -19.6798   34.6044 O   0  0  0  0  0  0  0  0  0  0  0  0
   39.9041  -21.8262   34.3041 O   0  0  0  0  0  0  0  0  0  0  0  0
   39.4285  -18.8424   32.5219 H   0  0  0  0  0  0  0  0  0  0  0  0
   38.1708  -20.0498   32.5505 H   0  0  0  0  0  0  0  0  0  0  0  0
   34.6284  -13.1399   36.3899 C   0  0  0  0  0  0  0  0  0  0  0  0
   33.3879  -13.0718   36.4360 O   0  0  0  0  0  0  0  0  0  0  0  0
   35.4811  -12.0387   36.3071 N   0  0  0  0  0  0  0  0  0  0  0  0
   36.5424  -12.1657   36.2678 H   0  0  0  0  0  0  0  0  0  0  0  0
   35.0060  -10.7122   36.2742 C   0  0  0  0  0  0  0  0  0  0  0  0
   35.7140   -9.6336   35.8198 C   0  0  0  0  0  0  0  0  0  0  0  0
   35.2139   -8.3235   35.8389 C   0  0  0  0  0  0  0  0  0  0  0  0
   33.9481   -8.1229   36.3395 C   0  0  0  0  0  0  0  0  0  0  0  0
   33.2010   -9.1873   36.8070 C   0  0  0  0  0  0  0  0  0  0  0  0
   33.7123  -10.4566   36.7779 C   0  0  0  0  0  0  0  0  0  0  0  0
   31.8369   -8.9704   37.3510 C   0  0  0  0  0  0  0  0  0  0  0  0
   30.9121   -8.8031   36.3458 F   0  0  0  0  0  0  0  0  0  0  0  0
   31.8701   -7.8887   38.2180 F   0  0  0  0  0  0  0  0  0  0  0  0
   31.5219  -10.1300   38.0693 F   0  0  0  0  0  0  0  0  0  0  0  0
 13 14  1  0  0  0
 14 15  2  0  0  0
 14 16  2  0  0  0
 14  7  1  0  0  0
  7  8  2  0  0  0
  8  9  1  0  0  0
  9 10  2  0  0  0
 10 11  1  0  0  0
 11 12  2  0  0  0
 11  1  1  0  0  0
  1  2  2  0  0  0
  2  3  1  0  0  0
  3  4  2  0  0  0
  4  5  1  0  0  0
  5  6  2  0  0  0
  4 19  1  0  0  0
 19 20  2  0  0  0
 19 21  1  0  0  0
 21 23  1  0  0  0
 23 24  2  0  0  0
 24 25  1  0  0  0
 25 26  2  0  0  0
 26 27  1  0  0  0
 27 28  2  0  0  0
 27 29  1  0  0  0
 29 30  1  0  0  0
 29 31  1  0  0  0
 29 32  1  0  0  0
 12  7  1  0  0  0
  6  1  1  0  0  0
 28 23  1  0  0  0
 13 17  1  0  0  0
 13 18  1  0  0  0
 21 22  1  0  0  0
M  END
> <minimizedAffinity>
-7.49876

> <CNNscore>
0.3306933939

> <CNNaffinity>
5.2084560394

> <CNN_VS>
1.7224019766

> <CNNaffinity_variance>
0.2521353364

$$$$
[H]OC(=O)c1c([H])c([H])c(-c2c([H])c([H])c(C(=O)N([H])c3c([H])c([H])c([H])c(C(F)(F)F)c3[H])c([H])c2[H])c([H])c1[H]


 30 32  0  0  0  0  0  0  0  0999 V2000
   37.6932  -20.7195   38.1406 C   0  0  0  0  0  0  0  0  0  0  0  0
   36.7908  -21.1734   37.2231 C   0  0  0  0  0  0  0  0  0  0  0  0
   35.6105  -21.8178   37.6137 C   0  0  0  0  0  0  0  0  0  0  0  0
   35.3978  -21.9751   38.9343 C   0  0  0  0  0  0  0  0  0  0  0  0
   36.2662  -21.5470   39.8967 C   0  0  0  0  0  0  0  0  0  0  0  0
   37.4139  -20.9194   39.4908 C   0  0  0  0  0  0  0  0  0  0  0  0
   41.1292  -18.6627   36.7416 C   0  0  0  0  0  0  0  0  0  0  0  0
   40.8346  -18.6393   38.0810 C   0  0  0  0  0  0  0  0  0  0  0  0
   39.7057  -19.3078   38.5880 C   0  0  0  0  0  0  0  0  0  0  0  0
   38.8789  -19.9959   37.7486 C   0  0  0  0  0  0  0  0  0  0  0  0
   39.1687  -20.0290   36.3825 C   0  0  0  0  0  0  0  0  0  0  0  0
   40.2685  -19.3743   35.9047 C   0  0  0  0  0  0  0  0  0  0  0  0
   42.7418  -18.3804   34.9179 O   0  0  0  0  0  0  0  0  0  0  0  0
   42.3018  -17.9804   36.1936 C   0  0  0  0  0  0  0  0  0  0  0  0
   42.9378  -17.0822   36.7511 O   0  0  0  0  0  0  0  0  0  0  0  0
   43.3097  -19.2283   34.8485 H   0  0  0  0  0  0  0  0  0  0  0  0
   34.1467  -22.5800   39.4605 C   0  0  0  0  0  0  0  0  0  0  0  0
   34.2128  -23.3962   40.4149 O   0  0  0  0  0  0  0  0  0  0  0  0
   32.9861  -22.1602   38.8151 N   0  0  0  0  0  0  0  0  0  0  0  0
   33.1209  -21.4520   38.0121 H   0  0  0  0  0  0  0  0  0  0  0  0
   31.6739  -22.5431   39.0981 C   0  0  0  0  0  0  0  0  0  0  0  0
   31.1821  -22.8837   40.3536 C   0  0  0  0  0  0  0  0  0  0  0  0
   29.8683  -23.2616   40.5243 C   0  0  0  0  0  0  0  0  0  0  0  0
   28.9742  -23.3234   39.4760 C   0  0  0  0  0  0  0  0  0  0  0  0
   29.4436  -22.9890   38.2248 C   0  0  0  0  0  0  0  0  0  0  0  0
   30.7486  -22.6129   38.0452 C   0  0  0  0  0  0  0  0  0  0  0  0
   28.4954  -23.0689   37.0838 C   0  0  0  0  0  0  0  0  0  0  0  0
   29.2569  -22.7350   35.9645 F   0  0  0  0  0  0  0  0  0  0  0  0
   27.5145  -22.1059   37.3017 F   0  0  0  0  0  0  0  0  0  0  0  0
   27.9592  -24.3253   36.9775 F   0  0  0  0  0  0  0  0  0  0  0  0
 13 14  1  0  0  0
 14 15  2  0  0  0
 14  7  1  0  0  0
  7  8  2  0  0  0
  8  9  1  0  0  0
  9 10  2  0  0  0
 10 11  1  0  0  0
 11 12  2  0  0  0
 10  1  1  0  0  0
  1  2  2  0  0  0
  2  3  1  0  0  0
  3  4  2  0  0  0
  4  5  1  0  0  0
  5  6  2  0  0  0
  4 17  1  0  0  0
 17 18  2  0  0  0
 17 19  1  0  0  0
 19 21  1  0  0  0
 21 22  2  0  0  0
 22 23  1  0  0  0
 23 24  2  0  0  0
 24 25  1  0  0  0
 25 26  2  0  0  0
 25 27  1  0  0  0
 27 28  1  0  0  0
 27 29  1  0  0  0
 27 30  1  0  0  0
 12  7  1  0  0  0
  6  1  1  0  0  0
 26 21  1  0  0  0
 13 16  1  0  0  0
 19 20  1  0  0  0
M  END
> <minimizedAffinity>
-0.60964

> <CNNscore>
0.5060954094

> <CNNaffinity>
4.2430858612

> <CNN_VS>
2.1474063396

> <CNNaffinity_variance>
0.3144353330

$$$$
[H]OC(=O)c1c([H])c([H])c(-c2c([H])c([H])c(C(=O)N([H])c3c([H])c([H])c([H])c(C(F)(F)F)c3[H])c([H])c2[H])c([H])c1[H]


 30 32  0  0  0  0  0  0  0  0999 V2000
   36.7987  -15.6861   36.7812 C   0  0  0  0  0  0  0  0  0  0  0  0
   38.0492  -16.1550   36.5009 C   0  0  0  0  0  0  0  0  0  0  0  0
   38.3835  -17.5027   36.6822 C   0  0  0  0  0  0  0  0  0  0  0  0
   37.4217  -18.3231   37.1467 C   0  0  0  0  0  0  0  0  0  0  0  0
   36.1561  -17.9101   37.4492 C   0  0  0  0  0  0  0  0  0  0  0  0
   35.8523  -16.5875   37.2637 C   0  0  0  0  0  0  0  0  0  0  0  0
   35.9568  -11.5855   36.0961 C   0  0  0  0  0  0  0  0  0  0  0  0
   34.9408  -12.5020   36.0005 C   0  0  0  0  0  0  0  0  0  0  0  0
   35.1753  -13.8715   36.2201 C   0  0  0  0  0  0  0  0  0  0  0  0
   36.4274  -14.3134   36.5342 C   0  0  0  0  0  0  0  0  0  0  0  0
   37.4705  -13.3899   36.6364 C   0  0  0  0  0  0  0  0  0  0  0  0
   37.2275  -12.0631   36.4196 C   0  0  0  0  0  0  0  0  0  0  0  0
   34.4130   -9.7410   35.6263 O   0  0  0  0  0  0  0  0  0  0  0  0
   35.7341  -10.1558   35.8786 C   0  0  0  0  0  0  0  0  0  0  0  0
   36.6033   -9.2806   35.8998 O   0  0  0  0  0  0  0  0  0  0  0  0
   34.0454   -9.8547   34.6785 H   0  0  0  0  0  0  0  0  0  0  0  0
   37.6467  -19.7830   37.3079 C   0  0  0  0  0  0  0  0  0  0  0  0
   37.3338  -20.5603   36.3702 O   0  0  0  0  0  0  0  0  0  0  0  0
   38.2044  -20.1501   38.5302 N   0  0  0  0  0  0  0  0  0  0  0  0
   38.4076  -19.3444   39.2187 H   0  0  0  0  0  0  0  0  0  0  0  0
   38.5385  -21.4368   38.9563 C   0  0  0  0  0  0  0  0  0  0  0  0
   39.4808  -22.2684   38.3609 C   0  0  0  0  0  0  0  0  0  0  0  0
   39.7278  -23.5309   38.8537 C   0  0  0  0  0  0  0  0  0  0  0  0
   39.0657  -24.0389   39.9518 C   0  0  0  0  0  0  0  0  0  0  0  0
   38.1288  -23.2289   40.5551 C   0  0  0  0  0  0  0  0  0  0  0  0
   37.8758  -21.9724   40.0715 C   0  0  0  0  0  0  0  0  0  0  0  0
   37.3953  -23.7709   41.7279 C   0  0  0  0  0  0  0  0  0  0  0  0
   38.1749  -24.8376   42.1731 F   0  0  0  0  0  0  0  0  0  0  0  0
   36.1686  -24.2345   41.2617 F   0  0  0  0  0  0  0  0  0  0  0  0
   37.2420  -22.8141   42.6966 F   0  0  0  0  0  0  0  0  0  0  0  0
 13 14  1  0  0  0
 14 15  2  0  0  0
 14  7  1  0  0  0
  7  8  2  0  0  0
  8  9  1  0  0  0
  9 10  2  0  0  0
 10 11  1  0  0  0
 11 12  2  0  0  0
 10  1  1  0  0  0
  1  2  2  0  0  0
  2  3  1  0  0  0
  3  4  2  0  0  0
  4  5  1  0  0  0
  5  6  2  0  0  0
  4 17  1  0  0  0
 17 18  2  0  0  0
 17 19  1  0  0  0
 19 21  1  0  0  0
 21 22  2  0  0  0
 22 23  1  0  0  0
 23 24  2  0  0  0
 24 25  1  0  0  0
 25 26  2  0  0  0
 25 27  1  0  0  0
 27 28  1  0  0  0
 27 29  1  0  0  0
 27 30  1  0  0  0
 12  7  1  0  0  0
  6  1  1  0  0  0
 26 21  1  0  0  0
 13 16  1  0  0  0
 19 20  1  0  0  0
M  END
> <minimizedAffinity>
0.94126

> <CNNscore>
0.4782970250

> <CNNaffinity>
4.7397985458

> <CNN_VS>
2.2670314312

> <CNNaffinity_variance>
0.7061093450

$$$$
[H]OC(=O)c1c([H])c([H])c(-c2c([H])c([H])c(C(=O)N([H])c3c([H])c([H])c([H])c(C(F)(F)F)c3[H])c([H])c2[H])c([H])c1[H]


 30 32  0  0  0  0  0  0  0  0999 V2000
   36.5049  -12.3290   37.2611 C   0  0  0  0  0  0  0  0  0  0  0  0
   36.6838  -13.6097   36.8250 C   0  0  0  0  0  0  0  0  0  0  0  0
   37.9298  -14.2434   36.9062 C   0  0  0  0  0  0  0  0  0  0  0  0
   38.9506  -13.5393   37.4317 C   0  0  0  0  0  0  0  0  0  0  0  0
   38.8325  -12.2548   37.8788 C   0  0  0  0  0  0  0  0  0  0  0  0
   37.6042  -11.6557   37.7893 C   0  0  0  0  0  0  0  0  0  0  0  0
   32.6858  -10.5092   36.9498 C   0  0  0  0  0  0  0  0  0  0  0  0
   33.3072  -10.5556   38.1717 C   0  0  0  0  0  0  0  0  0  0  0  0
   34.5738  -11.1491   38.3202 C   0  0  0  0  0  0  0  0  0  0  0  0
   35.2097  -11.6924   37.2422 C   0  0  0  0  0  0  0  0  0  0  0  0
   34.5884  -11.6501   35.9918 C   0  0  0  0  0  0  0  0  0  0  0  0
   33.3578  -11.0710   35.8633 C   0  0  0  0  0  0  0  0  0  0  0  0
   30.2904  -10.7467   36.4900 O   0  0  0  0  0  0  0  0  0  0  0  0
   31.3719   -9.8909   36.7712 C   0  0  0  0  0  0  0  0  0  0  0  0
   31.1279   -8.6840   36.8483 O   0  0  0  0  0  0  0  0  0  0  0  0
   30.1722  -11.0729   35.5277 H   0  0  0  0  0  0  0  0  0  0  0  0
   40.2959  -14.1380   37.6307 C   0  0  0  0  0  0  0  0  0  0  0  0
   41.0219  -13.7205   38.5688 O   0  0  0  0  0  0  0  0  0  0  0  0
   40.6226  -15.1403   36.7204 N   0  0  0  0  0  0  0  0  0  0  0  0
   39.8731  -15.3681   35.9782 H   0  0  0  0  0  0  0  0  0  0  0  0
   41.8011  -15.8868   36.6695 C   0  0  0  0  0  0  0  0  0  0  0  0
   43.0906  -15.3712   36.7419 C   0  0  0  0  0  0  0  0  0  0  0  0
   44.1916  -16.1960   36.6688 C   0  0  0  0  0  0  0  0  0  0  0  0
   44.0831  -17.5632   36.5222 C   0  0  0  0  0  0  0  0  0  0  0  0
   42.8132  -18.0919   36.4490 C   0  0  0  0  0  0  0  0  0  0  0  0
   41.7125  -17.2794   36.5198 C   0  0  0  0  0  0  0  0  0  0  0  0
   42.6825  -19.5613   36.2726 C   0  0  0  0  0  0  0  0  0  0  0  0
   41.3256  -19.7711   36.0305 F   0  0  0  0  0  0  0  0  0  0  0  0
   43.0517  -20.1502   37.4785 F   0  0  0  0  0  0  0  0  0  0  0  0
   43.4586  -20.0025   35.2333 F   0  0  0  0  0  0  0  0  0  0  0  0
 13 14  1  0  0  0
 14 15  2  0  0  0
 14  7  1  0  0  0
  7  8  2  0  0  0
  8  9  1  0  0  0
  9 10  2  0  0  0
 10 11  1  0  0  0
 11 12  2  0  0  0
 10  1  1  0  0  0
  1  2  2  0  0  0
  2  3  1  0  0  0
  3  4  2  0  0  0
  4  5  1  0  0  0
  5  6  2  0  0  0
  4 17  1  0  0  0
 17 18  2  0  0  0
 17 19  1  0  0  0
 19 21  1  0  0  0
 21 22  2  0  0  0
 22 23  1  0  0  0
 23 24  2  0  0  0
 24 25  1  0  0  0
 25 26  2  0  0  0
 25 27  1  0  0  0
 27 28  1  0  0  0
 27 29  1  0  0  0
 27 30  1  0  0  0
 12  7  1  0  0  0
  6  1  1  0  0  0
 26 21  1  0  0  0
 13 16  1  0  0  0
 19 20  1  0  0  0
M  END
> <minimizedAffinity>
23.96555

> <CNNscore>
0.4560160041

> <CNNaffinity>
4.6514434814

> <CNN_VS>
2.1211326122

> <CNNaffinity_variance>
0.8579226732

$$$$
[H]OC(=O)c1c([H])c([H])c(-c2c([H])c([H])c(C(=O)N([H])c3c([H])c([H])c([H])c(C(F)(F)F)c3[H])c([H])c2[H])c([H])c1[H]


 30 32  0  0  0  0  0  0  0  0999 V2000
   39.5258  -21.6360   37.2152 C   0  0  0  0  0  0  0  0  0  0  0  0
   39.4425  -20.7106   36.2157 C   0  0  0  0  0  0  0  0  0  0  0  0
   38.4326  -19.7408   36.1981 C   0  0  0  0  0  0  0  0  0  0  0  0
   37.5413  -19.7552   37.2078 C   0  0  0  0  0  0  0  0  0  0  0  0
   37.5715  -20.6589   38.2306 C   0  0  0  0  0  0  0  0  0  0  0  0
   38.5684  -21.5979   38.2267 C   0  0  0  0  0  0  0  0  0  0  0  0
   42.8135  -24.3163   37.2136 C   0  0  0  0  0  0  0  0  0  0  0  0
   41.7523  -24.5599   38.0478 C   0  0  0  0  0  0  0  0  0  0  0  0
   40.6415  -23.6976   38.0803 C   0  0  0  0  0  0  0  0  0  0  0  0
   40.6017  -22.5961   37.2759 C   0  0  0  0  0  0  0  0  0  0  0  0
   41.6754  -22.3377   36.4205 C   0  0  0  0  0  0  0  0  0  0  0  0
   42.7477  -23.1840   36.4005 C   0  0  0  0  0  0  0  0  0  0  0  0
   44.4425  -25.7298   38.3776 O   0  0  0  0  0  0  0  0  0  0  0  0
   43.9758  -25.2034   37.1585 C   0  0  0  0  0  0  0  0  0  0  0  0
   44.5816  -25.5332   36.1357 O   0  0  0  0  0  0  0  0  0  0  0  0
   45.0324  -25.1348   38.9644 H   0  0  0  0  0  0  0  0  0  0  0  0
   36.4733  -18.7289   37.3258 C   0  0  0  0  0  0  0  0  0  0  0  0
   35.7457  -18.7141   38.3513 O   0  0  0  0  0  0  0  0  0  0  0  0
   36.3892  -17.8556   36.2440 N   0  0  0  0  0  0  0  0  0  0  0  0
   37.0987  -18.0191   35.4476 H   0  0  0  0  0  0  0  0  0  0  0  0
   35.5012  -16.7907   36.0823 C   0  0  0  0  0  0  0  0  0  0  0  0
   34.3247  -16.8220   35.3415 C   0  0  0  0  0  0  0  0  0  0  0  0
   33.5217  -15.7078   35.2343 C   0  0  0  0  0  0  0  0  0  0  0  0
   33.8311  -14.5114   35.8469 C   0  0  0  0  0  0  0  0  0  0  0  0
   34.9928  -14.4617   36.5855 C   0  0  0  0  0  0  0  0  0  0  0  0
   35.7981  -15.5644   36.6970 C   0  0  0  0  0  0  0  0  0  0  0  0
   35.3472  -13.1737   37.2356 C   0  0  0  0  0  0  0  0  0  0  0  0
   36.6561  -13.3493   37.6828 F   0  0  0  0  0  0  0  0  0  0  0  0
   34.4873  -13.0143   38.3183 F   0  0  0  0  0  0  0  0  0  0  0  0
   35.2478  -12.1327   36.3504 F   0  0  0  0  0  0  0  0  0  0  0  0
 13 14  1  0  0  0
 14 15  2  0  0  0
 14  7  1  0  0  0
  7  8  2  0  0  0
  8  9  1  0  0  0
  9 10  2  0  0  0
 10 11  1  0  0  0
 11 12  2  0  0  0
 10  1  1  0  0  0
  1  2  2  0  0  0
  2  3  1  0  0  0
  3  4  2  0  0  0
  4  5  1  0  0  0
  5  6  2  0  0  0
  4 17  1  0  0  0
 17 18  2  0  0  0
 17 19  1  0  0  0
 19 21  1  0  0  0
 21 22  2  0  0  0
 22 23  1  0  0  0
 23 24  2  0  0  0
 24 25  1  0  0  0
 25 26  2  0  0  0
 25 27  1  0  0  0
 27 28  1  0  0  0
 27 29  1  0  0  0
 27 30  1  0  0  0
 12  7  1  0  0  0
  6  1  1  0  0  0
 26 21  1  0  0  0
 13 16  1  0  0  0
 19 20  1  0  0  0
M  END
> <minimizedAffinity>
-4.91149

> <CNNscore>
0.4318063259

> <CNNaffinity>
4.5124163628

> <CNN_VS>
1.9484899044

> <CNNaffinity_variance>
0.1588403732

$$$$
[H]OC(=O)c1c([H])c([H])c(-c2c([H])c([H])c(C(=O)N([H])c3c([H])c([H])c([H])c(C(F)(F)F)c3[H])c([H])c2[H])c([H])c1[H]


 30 32  0  0  0  0  0  0  0  0999 V2000
   38.3322  -20.3339   37.8184 C   0  0  0  0  0  0  0  0  0  0  0  0
   38.2587  -19.7277   36.5980 C   0  0  0  0  0  0  0  0  0  0  0  0
   37.0311  -19.3465   36.0425 C   0  0  0  0  0  0  0  0  0  0  0  0
   35.9200  -19.6022   36.7594 C   0  0  0  0  0  0  0  0  0  0  0  0
   35.9316  -20.2100   37.9818 C   0  0  0  0  0  0  0  0  0  0  0  0
   37.1439  -20.5738   38.5050 C   0  0  0  0  0  0  0  0  0  0  0  0
   42.1650  -21.2676   39.3777 C   0  0  0  0  0  0  0  0  0  0  0  0
   41.0693  -21.3565   40.1979 C   0  0  0  0  0  0  0  0  0  0  0  0
   39.7799  -21.0566   39.7223 C   0  0  0  0  0  0  0  0  0  0  0  0
   39.5973  -20.6693   38.4268 C   0  0  0  0  0  0  0  0  0  0  0  0
   40.7048  -20.5764   37.5806 C   0  0  0  0  0  0  0  0  0  0  0  0
   41.9510  -20.8703   38.0571 C   0  0  0  0  0  0  0  0  0  0  0  0
   44.4993  -21.8168   38.8722 O   0  0  0  0  0  0  0  0  0  0  0  0
   43.5140  -21.5814   39.8493 C   0  0  0  0  0  0  0  0  0  0  0  0
   43.8648  -21.6551   41.0298 O   0  0  0  0  0  0  0  0  0  0  0  0
   44.5309  -22.7402   38.4332 H   0  0  0  0  0  0  0  0  0  0  0  0
   34.5734  -19.1761   36.2977 C   0  0  0  0  0  0  0  0  0  0  0  0
   34.3727  -17.9656   36.0224 O   0  0  0  0  0  0  0  0  0  0  0  0
   33.6389  -20.2054   36.2142 N   0  0  0  0  0  0  0  0  0  0  0  0
   33.9900  -21.1871   36.4924 H   0  0  0  0  0  0  0  0  0  0  0  0
   32.3087  -20.1101   35.8014 C   0  0  0  0  0  0  0  0  0  0  0  0
   31.7962  -19.1516   34.9339 C   0  0  0  0  0  0  0  0  0  0  0  0
   30.4600  -19.1373   34.5988 C   0  0  0  0  0  0  0  0  0  0  0  0
   29.5630  -20.0597   35.0955 C   0  0  0  0  0  0  0  0  0  0  0  0
   30.0529  -21.0173   35.9562 C   0  0  0  0  0  0  0  0  0  0  0  0
   31.3799  -21.0387   36.2959 C   0  0  0  0  0  0  0  0  0  0  0  0
   29.0937  -22.0059   36.5129 C   0  0  0  0  0  0  0  0  0  0  0  0
   29.8405  -22.7519   37.4239 F   0  0  0  0  0  0  0  0  0  0  0  0
   28.6812  -22.8121   35.4560 F   0  0  0  0  0  0  0  0  0  0  0  0
   28.0357  -21.3782   37.1161 F   0  0  0  0  0  0  0  0  0  0  0  0
 13 14  1  0  0  0
 14 15  2  0  0  0
 14  7  1  0  0  0
  7  8  2  0  0  0
  8  9  1  0  0  0
  9 10  2  0  0  0
 10 11  1  0  0  0
 11 12  2  0  0  0
 10  1  1  0  0  0
  1  2  2  0  0  0
  2  3  1  0  0  0
  3  4  2  0  0  0
  4  5  1  0  0  0
  5  6  2  0  0  0
  4 17  1  0  0  0
 17 18  2  0  0  0
 17 19  1  0  0  0
 19 21  1  0  0  0
 21 22  2  0  0  0
 22 23  1  0  0  0
 23 24  2  0  0  0
 24 25  1  0  0  0
 25 26  2  0  0  0
 25 27  1  0  0  0
 27 28  1  0  0  0
 27 29  1  0  0  0
 27 30  1  0  0  0
 12  7  1  0  0  0
  6  1  1  0  0  0
 26 21  1  0  0  0
 13 16  1  0  0  0
 19 20  1  0  0  0
M  END
> <minimizedAffinity>
-5.06463

> <CNNscore>
0.4216485620

> <CNNaffinity>
4.0613489151

> <CNN_VS>
1.7124619484

> <CNNaffinity_variance>
0.3070022166

$$$$
[H]OC(=O)c1c([H])c([H])c(-c2c([H])c([H])c(C(=O)N([H])c3c([H])c([H])c([H])c(C(F)(F)F)c3[H])c([H])c2[H])c([H])c1[H]


 30 32  0  0  0  0  0  0  0  0999 V2000
   35.9023  -13.0369   33.2496 C   0  0  0  0  0  0  0  0  0  0  0  0
   34.7272  -13.6627   33.5492 C   0  0  0  0  0  0  0  0  0  0  0  0
   34.0517  -13.4158   34.7507 C   0  0  0  0  0  0  0  0  0  0  0  0
   34.6072  -12.5348   35.6046 C   0  0  0  0  0  0  0  0  0  0  0  0
   35.7820  -11.8833   35.3614 C   0  0  0  0  0  0  0  0  0  0  0  0
   36.4247  -12.1408   34.1797 C   0  0  0  0  0  0  0  0  0  0  0  0
   37.7918  -13.3793   29.4673 C   0  0  0  0  0  0  0  0  0  0  0  0
   37.8520  -14.4333   30.3430 C   0  0  0  0  0  0  0  0  0  0  0  0
   37.2393  -14.3628   31.6072 C   0  0  0  0  0  0  0  0  0  0  0  0
   36.5699  -13.2357   31.9855 C   0  0  0  0  0  0  0  0  0  0  0  0
   36.4997  -12.1559   31.1022 C   0  0  0  0  0  0  0  0  0  0  0  0
   37.1003  -12.2388   29.8779 C   0  0  0  0  0  0  0  0  0  0  0  0
   38.4566  -14.6853   27.5030 O   0  0  0  0  0  0  0  0  0  0  0  0
   38.4158  -13.4334   28.1450 C   0  0  0  0  0  0  0  0  0  0  0  0
   38.9074  -12.4764   27.5414 O   0  0  0  0  0  0  0  0  0  0  0  0
   39.1876  -15.3449   27.7801 H   0  0  0  0  0  0  0  0  0  0  0  0
   33.9398  -12.1453   36.8738 C   0  0  0  0  0  0  0  0  0  0  0  0
   34.3897  -11.1724   37.5314 O   0  0  0  0  0  0  0  0  0  0  0  0
   32.8409  -12.9308   37.2134 N   0  0  0  0  0  0  0  0  0  0  0  0
   32.5987  -13.7276   36.5272 H   0  0  0  0  0  0  0  0  0  0  0  0
   32.0156  -12.7947   38.3310 C   0  0  0  0  0  0  0  0  0  0  0  0
   32.3468  -13.1582   39.6319 C   0  0  0  0  0  0  0  0  0  0  0  0
   31.4518  -12.9936   40.6661 C   0  0  0  0  0  0  0  0  0  0  0  0
   30.1918  -12.4655   40.4769 C   0  0  0  0  0  0  0  0  0  0  0  0
   29.8463  -12.0993   39.1946 C   0  0  0  0  0  0  0  0  0  0  0  0
   30.7294  -12.2601   38.1597 C   0  0  0  0  0  0  0  0  0  0  0  0
   28.4852  -11.5461   38.9739 C   0  0  0  0  0  0  0  0  0  0  0  0
   28.5665  -10.8782   37.7527 F   0  0  0  0  0  0  0  0  0  0  0  0
   28.2431  -10.6394   40.0018 F   0  0  0  0  0  0  0  0  0  0  0  0
   27.5474  -12.5445   38.9459 F   0  0  0  0  0  0  0  0  0  0  0  0
 13 14  1  0  0  0
 14 15  2  0  0  0
 14  7  1  0  0  0
  7  8  2  0  0  0
  8  9  1  0  0  0
  9 10  2  0  0  0
 10 11  1  0  0  0
 11 12  2  0  0  0
 10  1  1  0  0  0
  1  2  2  0  0  0
  2  3  1  0  0  0
  3  4  2  0  0  0
  4  5  1  0  0  0
  5  6  2  0  0  0
  4 17  1  0  0  0
 17 18  2  0  0  0
 17 19  1  0  0  0
 19 21  1  0  0  0
 21 22  2  0  0  0
 22 23  1  0  0  0
 23 24  2  0  0  0
 24 25  1  0  0  0
 25 26  2  0  0  0
 25 27  1  0  0  0
 27 28  1  0  0  0
 27 29  1  0  0  0
 27 30  1  0  0  0
 12  7  1  0  0  0
  6  1  1  0  0  0
 26 21  1  0  0  0
 13 16  1  0  0  0
 19 20  1  0  0  0
M  END
> <minimizedAffinity>
47.81934

> <CNNscore>
0.3921244740

> <CNNaffinity>
4.6910166740

> <CNN_VS>
1.8394623995

> <CNNaffinity_variance>
1.3791664839

$$$$
[H]OC(=O)c1c([H])c([H])c(-c2c([H])c([H])c(C(=O)N([H])c3c([H])c([H])c([H])c(C(F)(F)F)c3[H])c([H])c2[H])c([H])c1[H]


 30 32  0  0  0  0  0  0  0  0999 V2000
   35.9168  -15.9946   36.1996 C   0  0  0  0  0  0  0  0  0  0  0  0
   36.4588  -15.0527   37.0250 C   0  0  0  0  0  0  0  0  0  0  0  0
   35.6764  -14.0405   37.5944 C   0  0  0  0  0  0  0  0  0  0  0  0
   34.3632  -14.0297   37.2955 C   0  0  0  0  0  0  0  0  0  0  0  0
   33.7670  -14.9416   36.4729 C   0  0  0  0  0  0  0  0  0  0  0  0
   34.5523  -15.9223   35.9277 C   0  0  0  0  0  0  0  0  0  0  0  0
   38.3212  -19.2228   34.8613 C   0  0  0  0  0  0  0  0  0  0  0  0
   37.5258  -18.5624   33.9598 C   0  0  0  0  0  0  0  0  0  0  0  0
   36.7131  -17.4864   34.3602 C   0  0  0  0  0  0  0  0  0  0  0  0
   36.7031  -17.0791   35.6624 C   0  0  0  0  0  0  0  0  0  0  0  0
   37.5100  -17.7421   36.5901 C   0  0  0  0  0  0  0  0  0  0  0  0
   38.2934  -18.7859   36.1864 C   0  0  0  0  0  0  0  0  0  0  0  0
   38.5616  -21.4318   33.8276 O   0  0  0  0  0  0  0  0  0  0  0  0
   39.1793  -20.3397   34.4655 C   0  0  0  0  0  0  0  0  0  0  0  0
   40.3988  -20.4073   34.6395 O   0  0  0  0  0  0  0  0  0  0  0  0
   38.0801  -22.1206   34.4108 H   0  0  0  0  0  0  0  0  0  0  0  0
   33.4292  -13.0450   37.9006 C   0  0  0  0  0  0  0  0  0  0  0  0
   33.1076  -13.1660   39.1103 O   0  0  0  0  0  0  0  0  0  0  0  0
   32.9927  -12.0511   37.0281 N   0  0  0  0  0  0  0  0  0  0  0  0
   33.3740  -12.1054   36.0201 H   0  0  0  0  0  0  0  0  0  0  0  0
   32.1302  -10.9915   37.3148 C   0  0  0  0  0  0  0  0  0  0  0  0
   32.4598   -9.6414   37.2619 C   0  0  0  0  0  0  0  0  0  0  0  0
   31.5349   -8.6705   37.5778 C   0  0  0  0  0  0  0  0  0  0  0  0
   30.2448   -8.9742   37.9594 C   0  0  0  0  0  0  0  0  0  0  0  0
   29.9001  -10.3067   38.0170 C   0  0  0  0  0  0  0  0  0  0  0  0
   30.8134  -11.2792   37.7056 C   0  0  0  0  0  0  0  0  0  0  0  0
   28.5187  -10.6483   38.4442 C   0  0  0  0  0  0  0  0  0  0  0  0
   28.6838  -11.5642   39.4824 F   0  0  0  0  0  0  0  0  0  0  0  0
   27.8967  -11.2592   37.3593 F   0  0  0  0  0  0  0  0  0  0  0  0
   27.8410   -9.5307   38.8552 F   0  0  0  0  0  0  0  0  0  0  0  0
 13 14  1  0  0  0
 14 15  2  0  0  0
 14  7  1  0  0  0
  7  8  2  0  0  0
  8  9  1  0  0  0
  9 10  2  0  0  0
 10 11  1  0  0  0
 11 12  2  0  0  0
 10  1  1  0  0  0
  1  2  2  0  0  0
  2  3  1  0  0  0
  3  4  2  0  0  0
  4  5  1  0  0  0
  5  6  2  0  0  0
  4 17  1  0  0  0
 17 18  2  0  0  0
 17 19  1  0  0  0
 19 21  1  0  0  0
 21 22  2  0  0  0
 22 23  1  0  0  0
 23 24  2  0  0  0
 24 25  1  0  0  0
 25 26  2  0  0  0
 25 27  1  0  0  0
 27 28  1  0  0  0
 27 29  1  0  0  0
 27 30  1  0  0  0
 12  7  1  0  0  0
  6  1  1  0  0  0
 26 21  1  0  0  0
 13 16  1  0  0  0
 19 20  1  0  0  0
M  END
> <minimizedAffinity>
-9.79386

> <CNNscore>
0.3525924087

> <CNNaffinity>
5.1981530190

> <CNN_VS>
1.8328292370

> <CNNaffinity_variance>
0.4834085107

$$$$
[H]OC(=O)c1c([H])c([H])c(-c2c([H])c([H])c(C(=O)N([H])c3c([H])c([H])c([H])c(C(F)(F)F)c3[H])c([H])c2[H])c([H])c1[H]


 30 32  0  0  0  0  0  0  0  0999 V2000
   38.1956  -19.1986   36.4073 C   0  0  0  0  0  0  0  0  0  0  0  0
   37.7566  -18.5574   35.2855 C   0  0  0  0  0  0  0  0  0  0  0  0
   36.3909  -18.4150   35.0107 C   0  0  0  0  0  0  0  0  0  0  0  0
   35.5222  -18.9373   35.8974 C   0  0  0  0  0  0  0  0  0  0  0  0
   35.9025  -19.5933   37.0327 C   0  0  0  0  0  0  0  0  0  0  0  0
   37.2435  -19.7202   37.2805 C   0  0  0  0  0  0  0  0  0  0  0  0
   42.3717  -19.3424   37.1373 C   0  0  0  0  0  0  0  0  0  0  0  0
   41.5134  -19.9009   38.0499 C   0  0  0  0  0  0  0  0  0  0  0  0
   40.1216  -19.8761   37.8476 C   0  0  0  0  0  0  0  0  0  0  0  0
   39.5991  -19.2913   36.7310 C   0  0  0  0  0  0  0  0  0  0  0  0
   40.4624  -18.7205   35.7930 C   0  0  0  0  0  0  0  0  0  0  0  0
   41.8119  -18.7518   36.0036 C   0  0  0  0  0  0  0  0  0  0  0  0
   44.6220  -19.2039   36.1767 O   0  0  0  0  0  0  0  0  0  0  0  0
   43.8227  -19.3630   37.3242 C   0  0  0  0  0  0  0  0  0  0  0  0
   44.4078  -19.5050   38.4010 O   0  0  0  0  0  0  0  0  0  0  0  0
   44.7739  -20.0198   35.5788 H   0  0  0  0  0  0  0  0  0  0  0  0
   34.0527  -18.7811   35.7410 C   0  0  0  0  0  0  0  0  0  0  0  0
   33.5760  -17.6381   35.5229 O   0  0  0  0  0  0  0  0  0  0  0  0
   33.3303  -19.9663   35.8559 N   0  0  0  0  0  0  0  0  0  0  0  0
   33.9093  -20.8569   36.0456 H   0  0  0  0  0  0  0  0  0  0  0  0
   31.9487  -20.1304   35.7417 C   0  0  0  0  0  0  0  0  0  0  0  0
   31.1019  -19.3507   34.9614 C   0  0  0  0  0  0  0  0  0  0  0  0
   29.7453  -19.5886   34.9283 C   0  0  0  0  0  0  0  0  0  0  0  0
   29.1538  -20.6001   35.6558 C   0  0  0  0  0  0  0  0  0  0  0  0
   29.9773  -21.3832   36.4344 C   0  0  0  0  0  0  0  0  0  0  0  0
   31.3273  -21.1535   36.4743 C   0  0  0  0  0  0  0  0  0  0  0  0
   29.3505  -22.4647   37.2373 C   0  0  0  0  0  0  0  0  0  0  0  0
   29.0570  -23.4680   36.3147 F   0  0  0  0  0  0  0  0  0  0  0  0
   28.1750  -21.9454   37.7719 F   0  0  0  0  0  0  0  0  0  0  0  0
   30.2017  -22.9068   38.2156 F   0  0  0  0  0  0  0  0  0  0  0  0
 13 14  1  0  0  0
 14 15  2  0  0  0
 14  7  1  0  0  0
  7  8  2  0  0  0
  8  9  1  0  0  0
  9 10  2  0  0  0
 10 11  1  0  0  0
 11 12  2  0  0  0
 10  1  1  0  0  0
  1  2  2  0  0  0
  2  3  1  0  0  0
  3  4  2  0  0  0
  4  5  1  0  0  0
  5  6  2  0  0  0
  4 17  1  0  0  0
 17 18  2  0  0  0
 17 19  1  0  0  0
 19 21  1  0  0  0
 21 22  2  0  0  0
 22 23  1  0  0  0
 23 24  2  0  0  0
 24 25  1  0  0  0
 25 26  2  0  0  0
 25 27  1  0  0  0
 27 28  1  0  0  0
 27 29  1  0  0  0
 27 30  1  0  0  0
 12  7  1  0  0  0
  6  1  1  0  0  0
 26 21  1  0  0  0
 13 16  1  0  0  0
 19 20  1  0  0  0
M  END
> <minimizedAffinity>
-5.80344

> <CNNscore>
0.3090726435

> <CNNaffinity>
3.9912581444

> <CNN_VS>
1.2335886955

> <CNNaffinity_variance>
0.4496009946

$$$$
[H]OC(=O)c1c([H])c([H])c(-c2c([H])c([H])c(C(=O)N([H])c3c([H])c([H])c([H])c(C(F)(F)F)c3[H])c([H])c2[H])c([H])c1[H]


 30 32  0  0  0  0  0  0  0  0999 V2000
   35.0992  -14.8592   37.0277 C   0  0  0  0  0  0  0  0  0  0  0  0
   36.2754  -15.1747   37.6435 C   0  0  0  0  0  0  0  0  0  0  0  0
   36.8960  -16.4143   37.4456 C   0  0  0  0  0  0  0  0  0  0  0  0
   36.2862  -17.2886   36.6224 C   0  0  0  0  0  0  0  0  0  0  0  0
   35.1074  -17.0307   35.9840 C   0  0  0  0  0  0  0  0  0  0  0  0
   34.5191  -15.8116   36.1927 C   0  0  0  0  0  0  0  0  0  0  0  0
   33.5086  -10.9387   37.3332 C   0  0  0  0  0  0  0  0  0  0  0  0
   32.7968  -11.9915   37.8492 C   0  0  0  0  0  0  0  0  0  0  0  0
   33.2869  -13.3076   37.7702 C   0  0  0  0  0  0  0  0  0  0  0  0
   34.4880  -13.5599   37.1740 C   0  0  0  0  0  0  0  0  0  0  0  0
   35.2236  -12.4962   36.6461 C   0  0  0  0  0  0  0  0  0  0  0  0
   34.7343  -11.2234   36.7298 C   0  0  0  0  0  0  0  0  0  0  0  0
   31.7538   -9.3581   37.9879 O   0  0  0  0  0  0  0  0  0  0  0  0
   33.0213   -9.5613   37.4104 C   0  0  0  0  0  0  0  0  0  0  0  0
   33.6257   -8.5607   37.0159 O   0  0  0  0  0  0  0  0  0  0  0  0
   30.9281   -9.5267   37.4082 H   0  0  0  0  0  0  0  0  0  0  0  0
   36.8925  -18.6028   36.2860 C   0  0  0  0  0  0  0  0  0  0  0  0
   37.0551  -18.9136   35.0784 O   0  0  0  0  0  0  0  0  0  0  0  0
   37.2316  -19.3820   37.3895 N   0  0  0  0  0  0  0  0  0  0  0  0
   37.0177  -18.9524   38.3559 H   0  0  0  0  0  0  0  0  0  0  0  0
   37.8252  -20.6455   37.3838 C   0  0  0  0  0  0  0  0  0  0  0  0
   39.1728  -20.9087   37.6046 C   0  0  0  0  0  0  0  0  0  0  0  0
   39.6620  -22.1959   37.5644 C   0  0  0  0  0  0  0  0  0  0  0  0
   38.8566  -23.2856   37.3072 C   0  0  0  0  0  0  0  0  0  0  0  0
   37.5184  -23.0441   37.0864 C   0  0  0  0  0  0  0  0  0  0  0  0
   37.0231  -21.7674   37.1234 C   0  0  0  0  0  0  0  0  0  0  0  0
   36.6430  -24.2074   36.7901 C   0  0  0  0  0  0  0  0  0  0  0  0
   35.3493  -23.6875   36.7885 F   0  0  0  0  0  0  0  0  0  0  0  0
   36.7966  -25.1095   37.8387 F   0  0  0  0  0  0  0  0  0  0  0  0
   36.9661  -24.7708   35.5837 F   0  0  0  0  0  0  0  0  0  0  0  0
 13 14  1  0  0  0
 14 15  2  0  0  0
 14  7  1  0  0  0
  7  8  2  0  0  0
  8  9  1  0  0  0
  9 10  2  0  0  0
 10 11  1  0  0  0
 11 12  2  0  0  0
 10  1  1  0  0  0
  1  2  2  0  0  0
  2  3  1  0  0  0
  3  4  2  0  0  0
  4  5  1  0  0  0
  5  6  2  0  0  0
  4 17  1  0  0  0
 17 18  2  0  0  0
 17 19  1  0  0  0
 19 21  1  0  0  0
 21 22  2  0  0  0
 22 23  1  0  0  0
 23 24  2  0  0  0
 24 25  1  0  0  0
 25 26  2  0  0  0
 25 27  1  0  0  0
 27 28  1  0  0  0
 27 29  1  0  0  0
 27 30  1  0  0  0
 12  7  1  0  0  0
  6  1  1  0  0  0
 26 21  1  0  0  0
 13 16  1  0  0  0
 19 20  1  0  0  0
M  END
> <minimizedAffinity>
-7.18243

> <CNNscore>
0.3065905273

> <CNNaffinity>
4.3839392662

> <CNN_VS>
1.3440742493

> <CNNaffinity_variance>
0.2608253062

$$$$
[H]c1c([H])c(C(=O)N([H])c2c([H])c([H])c([H])c(C(F)(F)F)c2[H])c([H])c(C(F)(F)F)c1[H]


 24 25  0  0  0  0  0  0  0  0999 V2000
   34.0430  -17.5036   35.2909 C   0  0  0  0  0  0  0  0  0  0  0  0
   35.2967  -17.6093   35.2182 O   0  0  0  0  0  0  0  0  0  0  0  0
   33.4723  -16.3027   35.7444 N   0  0  0  0  0  0  0  0  0  0  0  0
   32.4099  -16.2708   35.7563 H   0  0  0  0  0  0  0  0  0  0  0  0
   31.1733  -19.9025   35.0385 C   0  0  0  0  0  0  0  0  0  0  0  0
   31.6640  -20.8322   34.1548 C   0  0  0  0  0  0  0  0  0  0  0  0
   32.9306  -20.6768   33.6436 C   0  0  0  0  0  0  0  0  0  0  0  0
   33.7325  -19.5952   34.0019 C   0  0  0  0  0  0  0  0  0  0  0  0
   33.2583  -18.6535   34.8868 C   0  0  0  0  0  0  0  0  0  0  0  0
   31.9775  -18.8475   35.3765 C   0  0  0  0  0  0  0  0  0  0  0  0
   29.8844  -20.6675   36.8502 F   0  0  0  0  0  0  0  0  0  0  0  0
   29.8166  -20.0655   35.6070 C   0  0  0  0  0  0  0  0  0  0  0  0
   29.0184  -20.8289   34.7393 F   0  0  0  0  0  0  0  0  0  0  0  0
   29.2381  -18.7927   35.6777 F   0  0  0  0  0  0  0  0  0  0  0  0
   34.1514  -15.1487   36.1572 C   0  0  0  0  0  0  0  0  0  0  0  0
   33.4340  -13.9454   36.2308 C   0  0  0  0  0  0  0  0  0  0  0  0
   34.0299  -12.7770   36.6669 C   0  0  0  0  0  0  0  0  0  0  0  0
   35.3623  -12.7794   37.0494 C   0  0  0  0  0  0  0  0  0  0  0  0
   36.0679  -13.9297   36.9848 C   0  0  0  0  0  0  0  0  0  0  0  0
   35.4582  -15.0983   36.5410 C   0  0  0  0  0  0  0  0  0  0  0  0
   37.4803  -13.9416   37.3952 C   0  0  0  0  0  0  0  0  0  0  0  0
   37.9145  -15.2500   37.3426 F   0  0  0  0  0  0  0  0  0  0  0  0
   37.5674  -13.5043   38.7086 F   0  0  0  0  0  0  0  0  0  0  0  0
   38.2196  -13.0808   36.6394 F   0  0  0  0  0  0  0  0  0  0  0  0
 11 12  1  0  0  0
 12 13  1  0  0  0
 12 14  1  0  0  0
 12  5  1  0  0  0
  5  6  2  0  0  0
  6  7  1  0  0  0
  7  8  2  0  0  0
  8  9  1  0  0  0
  9 10  2  0  0  0
  9  1  1  0  0  0
  1  2  2  0  0  0
  1  3  1  0  0  0
  3 15  1  0  0  0
 15 16  2  0  0  0
 16 17  1  0  0  0
 17 18  2  0  0  0
 18 19  1  0  0  0
 19 20  2  0  0  0
 19 21  1  0  0  0
 21 22  1  0  0  0
 21 23  1  0  0  0
 21 24  1  0  0  0
 10  5  1  0  0  0
 20 15  1  0  0  0
  3  4  1  0  0  0
M  END
> <minimizedAffinity>
-7.30166

> <CNNscore>
0.6594793797

> <CNNaffinity>
4.4631924629

> <CNN_VS>
2.9433834553

> <CNNaffinity_variance>
0.4033032954

$$$$
[H]c1c([H])c(C(=O)N([H])c2c([H])c([H])c([H])c(C(F)(F)F)c2[H])c([H])c(C(F)(F)F)c1[H]


 24 25  0  0  0  0  0  0  0  0999 V2000
   34.4393  -16.7339   35.9847 C   0  0  0  0  0  0  0  0  0  0  0  0
   35.1948  -17.6495   36.4084 O   0  0  0  0  0  0  0  0  0  0  0  0
   33.2786  -17.0676   35.2672 N   0  0  0  0  0  0  0  0  0  0  0  0
   32.6723  -16.2497   34.9618 H   0  0  0  0  0  0  0  0  0  0  0  0
   36.5580  -13.8055   36.9793 C   0  0  0  0  0  0  0  0  0  0  0  0
   35.6709  -12.7647   36.8550 C   0  0  0  0  0  0  0  0  0  0  0  0
   34.3824  -13.0189   36.4488 C   0  0  0  0  0  0  0  0  0  0  0  0
   33.9523  -14.3122   36.1594 C   0  0  0  0  0  0  0  0  0  0  0  0
   34.8268  -15.3684   36.2788 C   0  0  0  0  0  0  0  0  0  0  0  0
   36.1148  -15.0679   36.6895 C   0  0  0  0  0  0  0  0  0  0  0  0
   37.9448  -13.0149   38.7057 F   0  0  0  0  0  0  0  0  0  0  0  0
   37.9441  -13.5472   37.4292 C   0  0  0  0  0  0  0  0  0  0  0  0
   38.5859  -12.6729   36.5368 F   0  0  0  0  0  0  0  0  0  0  0  0
   38.6344  -14.7638   37.3740 F   0  0  0  0  0  0  0  0  0  0  0  0
   32.8319  -18.3535   34.9354 C   0  0  0  0  0  0  0  0  0  0  0  0
   33.5555  -19.0831   33.9804 C   0  0  0  0  0  0  0  0  0  0  0  0
   33.1951  -20.3716   33.6336 C   0  0  0  0  0  0  0  0  0  0  0  0
   32.1015  -20.9719   34.2380 C   0  0  0  0  0  0  0  0  0  0  0  0
   31.3935  -20.2834   35.1599 C   0  0  0  0  0  0  0  0  0  0  0  0
   31.7638  -18.9862   35.4982 C   0  0  0  0  0  0  0  0  0  0  0  0
   30.2358  -20.9161   35.8104 C   0  0  0  0  0  0  0  0  0  0  0  0
   29.2260  -19.9775   35.8596 F   0  0  0  0  0  0  0  0  0  0  0  0
   30.5831  -21.2534   37.1101 F   0  0  0  0  0  0  0  0  0  0  0  0
   29.8878  -22.0730   35.1785 F   0  0  0  0  0  0  0  0  0  0  0  0
 11 12  1  0  0  0
 12 13  1  0  0  0
 12 14  1  0  0  0
 12  5  1  0  0  0
  5  6  2  0  0  0
  6  7  1  0  0  0
  7  8  2  0  0  0
  8  9  1  0  0  0
  9 10  2  0  0  0
  9  1  1  0  0  0
  1  2  2  0  0  0
  1  3  1  0  0  0
  3 15  1  0  0  0
 15 16  2  0  0  0
 16 17  1  0  0  0
 17 18  2  0  0  0
 18 19  1  0  0  0
 19 20  2  0  0  0
 19 21  1  0  0  0
 21 22  1  0  0  0
 21 23  1  0  0  0
 21 24  1  0  0  0
 10  5  1  0  0  0
 20 15  1  0  0  0
  3  4  1  0  0  0
M  END
> <minimizedAffinity>
-7.12406

> <CNNscore>
0.6461333632

> <CNNaffinity>
4.4053444862

> <CNN_VS>
2.8464400768

> <CNNaffinity_variance>
0.3357553482

$$$$
[H]c1c([H])c(C(=O)N([H])c2c([H])c([H])c([H])c(C(F)(F)F)c2[H])c([H])c(C(F)(F)F)c1[H]


 24 25  0  0  0  0  0  0  0  0999 V2000
   34.3774  -16.5312   35.9803 C   0  0  0  0  0  0  0  0  0  0  0  0
   35.2022  -17.4000   36.3717 O   0  0  0  0  0  0  0  0  0  0  0  0
   33.2177  -16.9325   35.2965 N   0  0  0  0  0  0  0  0  0  0  0  0
   32.5516  -16.1525   35.0179 H   0  0  0  0  0  0  0  0  0  0  0  0
   33.9431  -12.9840   37.1129 C   0  0  0  0  0  0  0  0  0  0  0  0
   35.1943  -12.4644   36.8879 C   0  0  0  0  0  0  0  0  0  0  0  0
   36.1776  -13.2706   36.3656 C   0  0  0  0  0  0  0  0  0  0  0  0
   35.9351  -14.6075   36.0568 C   0  0  0  0  0  0  0  0  0  0  0  0
   34.6872  -15.1460   36.2747 C   0  0  0  0  0  0  0  0  0  0  0  0
   33.7266  -14.2998   36.8029 C   0  0  0  0  0  0  0  0  0  0  0  0
   33.2931  -10.8072   37.7190 F   0  0  0  0  0  0  0  0  0  0  0  0
   32.8717  -12.1231   37.6617 C   0  0  0  0  0  0  0  0  0  0  0  0
   32.4998  -12.5714   38.9398 F   0  0  0  0  0  0  0  0  0  0  0  0
   31.7513  -12.2736   36.8360 F   0  0  0  0  0  0  0  0  0  0  0  0
   32.8427  -18.2418   34.9672 C   0  0  0  0  0  0  0  0  0  0  0  0
   33.6283  -18.9459   34.0424 C   0  0  0  0  0  0  0  0  0  0  0  0
   33.3399  -20.2537   33.7005 C   0  0  0  0  0  0  0  0  0  0  0  0
   32.2587  -20.8993   34.2799 C   0  0  0  0  0  0  0  0  0  0  0  0
   31.4916  -20.2358   35.1725 C   0  0  0  0  0  0  0  0  0  0  0  0
   31.7897  -18.9189   35.5060 C   0  0  0  0  0  0  0  0  0  0  0  0
   30.3465  -20.9164   35.7964 C   0  0  0  0  0  0  0  0  0  0  0  0
   30.7294  -21.2858   37.0693 F   0  0  0  0  0  0  0  0  0  0  0  0
   30.0625  -22.0658   35.0741 F   0  0  0  0  0  0  0  0  0  0  0  0
   29.2294  -20.1357   35.7576 F   0  0  0  0  0  0  0  0  0  0  0  0
 11 12  1  0  0  0
 12 13  1  0  0  0
 12 14  1  0  0  0
 12  5  1  0  0  0
  5  6  2  0  0  0
  6  7  1  0  0  0
  7  8  2  0  0  0
  8  9  1  0  0  0
  9 10  2  0  0  0
  9  1  1  0  0  0
  1  2  2  0  0  0
  1  3  1  0  0  0
  3 15  1  0  0  0
 15 16  2  0  0  0
 16 17  1  0  0  0
 17 18  2  0  0  0
 18 19  1  0  0  0
 19 20  2  0  0  0
 19 21  1  0  0  0
 21 22  1  0  0  0
 21 23  1  0  0  0
 21 24  1  0  0  0
 10  5  1  0  0  0
 20 15  1  0  0  0
  3  4  1  0  0  0
M  END
> <minimizedAffinity>
-8.09306

> <CNNscore>
0.6372258067

> <CNNaffinity>
4.4475393295

> <CNN_VS>
2.8340868950

> <CNNaffinity_variance>
0.7567023039

$$$$
[H]c1c([H])c(C(=O)N([H])c2c([H])c([H])c([H])c(C(F)(F)F)c2[H])c([H])c(C(F)(F)F)c1[H]


 24 25  0  0  0  0  0  0  0  0999 V2000
   34.0235  -17.5531   35.7710 C   0  0  0  0  0  0  0  0  0  0  0  0
   35.1675  -17.7583   36.2584 O   0  0  0  0  0  0  0  0  0  0  0  0
   33.5148  -16.2446   35.7197 N   0  0  0  0  0  0  0  0  0  0  0  0
   32.5564  -16.1380   35.2727 H   0  0  0  0  0  0  0  0  0  0  0  0
   32.7123  -21.0575   35.5398 C   0  0  0  0  0  0  0  0  0  0  0  0
   31.9222  -20.9861   34.4188 C   0  0  0  0  0  0  0  0  0  0  0  0
   31.8192  -19.7960   33.7386 C   0  0  0  0  0  0  0  0  0  0  0  0
   32.5001  -18.6557   34.1597 C   0  0  0  0  0  0  0  0  0  0  0  0
   33.2973  -18.7079   35.2806 C   0  0  0  0  0  0  0  0  0  0  0  0
   33.3718  -19.9254   35.9363 C   0  0  0  0  0  0  0  0  0  0  0  0
   32.0303  -22.3348   37.3924 F   0  0  0  0  0  0  0  0  0  0  0  0
   32.8428  -22.3363   36.2732 C   0  0  0  0  0  0  0  0  0  0  0  0
   34.1814  -22.5455   36.6438 F   0  0  0  0  0  0  0  0  0  0  0  0
   32.5014  -23.3634   35.3855 F   0  0  0  0  0  0  0  0  0  0  0  0
   34.1429  -15.0767   36.1721 C   0  0  0  0  0  0  0  0  0  0  0  0
   33.3908  -13.8935   36.2215 C   0  0  0  0  0  0  0  0  0  0  0  0
   33.9344  -12.7136   36.6936 C   0  0  0  0  0  0  0  0  0  0  0  0
   35.2473  -12.6841   37.1372 C   0  0  0  0  0  0  0  0  0  0  0  0
   35.9858  -13.8146   37.0966 C   0  0  0  0  0  0  0  0  0  0  0  0
   35.4289  -14.9951   36.6163 C   0  0  0  0  0  0  0  0  0  0  0  0
   37.3777  -13.7927   37.5718 C   0  0  0  0  0  0  0  0  0  0  0  0
   37.4350  -14.5594   38.7172 F   0  0  0  0  0  0  0  0  0  0  0  0
   37.7167  -12.4886   37.9009 F   0  0  0  0  0  0  0  0  0  0  0  0
   38.2383  -14.1925   36.5928 F   0  0  0  0  0  0  0  0  0  0  0  0
 11 12  1  0  0  0
 12 13  1  0  0  0
 12 14  1  0  0  0
 12  5  1  0  0  0
  5  6  2  0  0  0
  6  7  1  0  0  0
  7  8  2  0  0  0
  8  9  1  0  0  0
  9 10  2  0  0  0
  9  1  1  0  0  0
  1  2  2  0  0  0
  1  3  1  0  0  0
  3 15  1  0  0  0
 15 16  2  0  0  0
 16 17  1  0  0  0
 17 18  2  0  0  0
 18 19  1  0  0  0
 19 20  2  0  0  0
 19 21  1  0  0  0
 21 22  1  0  0  0
 21 23  1  0  0  0
 21 24  1  0  0  0
 10  5  1  0  0  0
 20 15  1  0  0  0
  3  4  1  0  0  0
M  END
> <minimizedAffinity>
-6.68914

> <CNNscore>
0.5203498006

> <CNNaffinity>
4.2929353714

> <CNN_VS>
2.2338280678

> <CNNaffinity_variance>
0.3699771166

$$$$
[H]c1c([H])c(C(=O)N([H])c2c([H])c([H])c([H])c(C(F)(F)F)c2[H])c([H])c(C(F)(F)F)c1[H]


 24 25  0  0  0  0  0  0  0  0999 V2000
   34.0533  -17.2989   35.7783 C   0  0  0  0  0  0  0  0  0  0  0  0
   35.0608  -17.4631   36.5175 O   0  0  0  0  0  0  0  0  0  0  0  0
   33.5552  -16.0035   35.5607 N   0  0  0  0  0  0  0  0  0  0  0  0
   32.7205  -15.9326   34.9064 H   0  0  0  0  0  0  0  0  0  0  0  0
   31.6591  -20.1154   35.1546 C   0  0  0  0  0  0  0  0  0  0  0  0
   32.2557  -20.7597   34.0988 C   0  0  0  0  0  0  0  0  0  0  0  0
   33.4388  -20.2763   33.5925 C   0  0  0  0  0  0  0  0  0  0  0  0
   34.0506  -19.1442   34.1268 C   0  0  0  0  0  0  0  0  0  0  0  0
   33.4680  -18.4853   35.1857 C   0  0  0  0  0  0  0  0  0  0  0  0
   32.2768  -19.0049   35.6639 C   0  0  0  0  0  0  0  0  0  0  0  0
   29.4323  -19.6386   35.7401 F   0  0  0  0  0  0  0  0  0  0  0  0
   30.3926  -20.6337   35.7181 C   0  0  0  0  0  0  0  0  0  0  0  0
   30.6087  -21.1304   37.0141 F   0  0  0  0  0  0  0  0  0  0  0  0
   29.9971  -21.7190   34.9273 F   0  0  0  0  0  0  0  0  0  0  0  0
   34.0532  -14.8072   36.0938 C   0  0  0  0  0  0  0  0  0  0  0  0
   35.4081  -14.5034   35.8944 C   0  0  0  0  0  0  0  0  0  0  0  0
   35.9575  -13.3231   36.3585 C   0  0  0  0  0  0  0  0  0  0  0  0
   35.1644  -12.4070   37.0317 C   0  0  0  0  0  0  0  0  0  0  0  0
   33.8574  -12.6838   37.2324 C   0  0  0  0  0  0  0  0  0  0  0  0
   33.3166  -13.8763   36.7637 C   0  0  0  0  0  0  0  0  0  0  0  0
   33.0079  -11.7136   37.9401 C   0  0  0  0  0  0  0  0  0  0  0  0
   32.7703  -12.2166   39.2025 F   0  0  0  0  0  0  0  0  0  0  0  0
   31.7956  -11.6123   37.2742 F   0  0  0  0  0  0  0  0  0  0  0  0
   33.5700  -10.4714   37.9345 F   0  0  0  0  0  0  0  0  0  0  0  0
 11 12  1  0  0  0
 12 13  1  0  0  0
 12 14  1  0  0  0
 12  5  1  0  0  0
  5  6  2  0  0  0
  6  7  1  0  0  0
  7  8  2  0  0  0
  8  9  1  0  0  0
  9 10  2  0  0  0
  9  1  1  0  0  0
  1  2  2  0  0  0
  1  3  1  0  0  0
  3 15  1  0  0  0
 15 16  2  0  0  0
 16 17  1  0  0  0
 17 18  2  0  0  0
 18 19  1  0  0  0
 19 20  2  0  0  0
 19 21  1  0  0  0
 21 22  1  0  0  0
 21 23  1  0  0  0
 21 24  1  0  0  0
 10  5  1  0  0  0
 20 15  1  0  0  0
  3  4  1  0  0  0
M  END
> <minimizedAffinity>
-7.89340

> <CNNscore>
0.4667726457

> <CNNaffinity>
4.3150315285

> <CNN_VS>
2.0141386986

> <CNNaffinity_variance>
0.6665276289

$$$$
[H]c1c([H])c(C(=O)N([H])c2c([H])c([H])c([H])c(C(F)(F)F)c2[H])c([H])c(C(F)(F)F)c1[H]


 24 25  0  0  0  0  0  0  0  0999 V2000
   33.1914  -12.3794   37.8105 C   0  0  0  0  0  0  0  0  0  0  0  0
   33.1718  -13.1170   38.8323 O   0  0  0  0  0  0  0  0  0  0  0  0
   34.0902  -12.6604   36.7681 N   0  0  0  0  0  0  0  0  0  0  0  0
   34.0367  -12.0158   35.9247 H   0  0  0  0  0  0  0  0  0  0  0  0
   29.9804  -10.4620   38.0686 C   0  0  0  0  0  0  0  0  0  0  0  0
   30.3902   -9.1888   37.7572 C   0  0  0  0  0  0  0  0  0  0  0  0
   31.7126   -8.9572   37.4618 C   0  0  0  0  0  0  0  0  0  0  0  0
   32.6514   -9.9867   37.4698 C   0  0  0  0  0  0  0  0  0  0  0  0
   32.2595  -11.2695   37.7787 C   0  0  0  0  0  0  0  0  0  0  0  0
   30.9191  -11.4585   38.0711 C   0  0  0  0  0  0  0  0  0  0  0  0
   27.9410   -9.5782   38.8357 F   0  0  0  0  0  0  0  0  0  0  0  0
   28.5570  -10.7275   38.3749 C   0  0  0  0  0  0  0  0  0  0  0  0
   28.4520  -11.7523   39.3297 F   0  0  0  0  0  0  0  0  0  0  0  0
   27.9590  -11.2020   37.2015 F   0  0  0  0  0  0  0  0  0  0  0  0
   35.0240  -13.7039   36.7172 C   0  0  0  0  0  0  0  0  0  0  0  0
   36.2787  -13.5031   37.3115 C   0  0  0  0  0  0  0  0  0  0  0  0
   37.2338  -14.5020   37.3329 C   0  0  0  0  0  0  0  0  0  0  0  0
   36.9586  -15.7362   36.7649 C   0  0  0  0  0  0  0  0  0  0  0  0
   35.7551  -15.9466   36.1884 C   0  0  0  0  0  0  0  0  0  0  0  0
   34.8034  -14.9326   36.1700 C   0  0  0  0  0  0  0  0  0  0  0  0
   35.4534  -17.2558   35.5895 C   0  0  0  0  0  0  0  0  0  0  0  0
   35.4742  -18.1890   36.6052 F   0  0  0  0  0  0  0  0  0  0  0  0
   36.4540  -17.5734   34.6831 F   0  0  0  0  0  0  0  0  0  0  0  0
   34.2820  -17.2199   34.8927 F   0  0  0  0  0  0  0  0  0  0  0  0
 11 12  1  0  0  0
 12 13  1  0  0  0
 12 14  1  0  0  0
 12  5  1  0  0  0
  5  6  2  0  0  0
  6  7  1  0  0  0
  7  8  2  0  0  0
  8  9  1  0  0  0
  9 10  2  0  0  0
  9  1  1  0  0  0
  1  2  2  0  0  0
  1  3  1  0  0  0
  3 15  1  0  0  0
 15 16  2  0  0  0
 16 17  1  0  0  0
 17 18  2  0  0  0
 18 19  1  0  0  0
 19 20  2  0  0  0
 19 21  1  0  0  0
 21 22  1  0  0  0
 21 23  1  0  0  0
 21 24  1  0  0  0
 10  5  1  0  0  0
 20 15  1  0  0  0
  3  4  1  0  0  0
M  END
> <minimizedAffinity>
-8.82569

> <CNNscore>
0.4396203160

> <CNNaffinity>
4.7499537468

> <CNN_VS>
2.0881762505

> <CNNaffinity_variance>
0.5361680388

$$$$
[H]c1c([H])c(C(=O)N([H])c2c([H])c([H])c([H])c(C(F)(F)F)c2[H])c([H])c(C(F)(F)F)c1[H]


 24 25  0  0  0  0  0  0  0  0999 V2000
   32.4682  -12.7693   38.0943 C   0  0  0  0  0  0  0  0  0  0  0  0
   32.9738  -13.0285   39.2193 O   0  0  0  0  0  0  0  0  0  0  0  0
   33.1814  -13.0788   36.9243 N   0  0  0  0  0  0  0  0  0  0  0  0
   32.6870  -12.8589   36.0094 H   0  0  0  0  0  0  0  0  0  0  0  0
   28.8585  -12.1607   38.9026 C   0  0  0  0  0  0  0  0  0  0  0  0
   28.5870  -11.0480   38.1449 C   0  0  0  0  0  0  0  0  0  0  0  0
   29.5805  -10.4985   37.3699 C   0  0  0  0  0  0  0  0  0  0  0  0
   30.8616  -11.0452   37.3336 C   0  0  0  0  0  0  0  0  0  0  0  0
   31.1526  -12.1607   38.0856 C   0  0  0  0  0  0  0  0  0  0  0  0
   30.1236  -12.6812   38.8525 C   0  0  0  0  0  0  0  0  0  0  0  0
   27.0561  -11.7884   40.3660 F   0  0  0  0  0  0  0  0  0  0  0  0
   27.7940  -12.7704   39.7304 C   0  0  0  0  0  0  0  0  0  0  0  0
   28.3579  -13.6436   40.6750 F   0  0  0  0  0  0  0  0  0  0  0  0
   26.9988  -13.5487   38.8809 F   0  0  0  0  0  0  0  0  0  0  0  0
   34.4532  -13.6607   36.8402 C   0  0  0  0  0  0  0  0  0  0  0  0
   35.5728  -12.8491   37.0764 C   0  0  0  0  0  0  0  0  0  0  0  0
   36.8549  -13.3646   37.0485 C   0  0  0  0  0  0  0  0  0  0  0  0
   37.0549  -14.7115   36.7893 C   0  0  0  0  0  0  0  0  0  0  0  0
   35.9877  -15.5074   36.5596 C   0  0  0  0  0  0  0  0  0  0  0  0
   34.7025  -14.9765   36.5870 C   0  0  0  0  0  0  0  0  0  0  0  0
   36.1915  -16.9391   36.2904 C   0  0  0  0  0  0  0  0  0  0  0  0
   37.2945  -17.3423   37.0142 F   0  0  0  0  0  0  0  0  0  0  0  0
   36.4689  -17.1048   34.9416 F   0  0  0  0  0  0  0  0  0  0  0  0
   35.0619  -17.6552   36.5552 F   0  0  0  0  0  0  0  0  0  0  0  0
 11 12  1  0  0  0
 12 13  1  0  0  0
 12 14  1  0  0  0
 12  5  1  0  0  0
  5  6  2  0  0  0
  6  7  1  0  0  0
  7  8  2  0  0  0
  8  9  1  0  0  0
  9 10  2  0  0  0
  9  1  1  0  0  0
  1  2  2  0  0  0
  1  3  1  0  0  0
  3 15  1  0  0  0
 15 16  2  0  0  0
 16 17  1  0  0  0
 17 18  2  0  0  0
 18 19  1  0  0  0
 19 20  2  0  0  0
 19 21  1  0  0  0
 21 22  1  0  0  0
 21 23  1  0  0  0
 21 24  1  0  0  0
 10  5  1  0  0  0
 20 15  1  0  0  0
  3  4  1  0  0  0
M  END
> <minimizedAffinity>
-8.27263

> <CNNscore>
0.4228676558

> <CNNaffinity>
4.6837830544

> <CNN_VS>
1.9806203842

> <CNNaffinity_variance>
0.5486418009

$$$$
[H]c1c([H])c(C(=O)N([H])c2c([H])c([H])c([H])c(C(F)(F)F)c2[H])c([H])c(C(F)(F)F)c1[H]


 24 25  0  0  0  0  0  0  0  0999 V2000
   33.6570  -13.5158   37.2319 C   0  0  0  0  0  0  0  0  0  0  0  0
   34.5565  -13.7751   38.0757 O   0  0  0  0  0  0  0  0  0  0  0  0
   33.4085  -14.4162   36.1826 N   0  0  0  0  0  0  0  0  0  0  0  0
   32.6194  -14.1504   35.5220 H   0  0  0  0  0  0  0  0  0  0  0  0
   30.7925  -11.1725   37.8299 C   0  0  0  0  0  0  0  0  0  0  0  0
   31.4170   -9.9505   37.7800 C   0  0  0  0  0  0  0  0  0  0  0  0
   32.7710   -9.8917   37.5497 C   0  0  0  0  0  0  0  0  0  0  0  0
   33.5285  -11.0462   37.3642 C   0  0  0  0  0  0  0  0  0  0  0  0
   32.9202  -12.2801   37.4100 C   0  0  0  0  0  0  0  0  0  0  0  0
   31.5557  -12.2940   37.6455 C   0  0  0  0  0  0  0  0  0  0  0  0
   28.9389  -10.2825   38.9703 F   0  0  0  0  0  0  0  0  0  0  0  0
   29.3331  -11.2491   38.0632 C   0  0  0  0  0  0  0  0  0  0  0  0
   28.9858  -12.5269   38.5317 F   0  0  0  0  0  0  0  0  0  0  0  0
   28.7031  -11.0853   36.8238 F   0  0  0  0  0  0  0  0  0  0  0  0
   34.0716  -15.6250   35.9331 C   0  0  0  0  0  0  0  0  0  0  0  0
   35.4045  -15.7512   36.3521 C   0  0  0  0  0  0  0  0  0  0  0  0
   36.1073  -16.9280   36.1736 C   0  0  0  0  0  0  0  0  0  0  0  0
   35.4940  -18.0176   35.5753 C   0  0  0  0  0  0  0  0  0  0  0  0
   34.2108  -17.9132   35.1658 C   0  0  0  0  0  0  0  0  0  0  0  0
   33.5149  -16.7229   35.3477 C   0  0  0  0  0  0  0  0  0  0  0  0
   33.5512  -19.0674   34.5361 C   0  0  0  0  0  0  0  0  0  0  0  0
   33.3634  -20.0206   35.5156 F   0  0  0  0  0  0  0  0  0  0  0  0
   34.3968  -19.5930   33.5706 F   0  0  0  0  0  0  0  0  0  0  0  0
   32.4051  -18.6923   33.8999 F   0  0  0  0  0  0  0  0  0  0  0  0
 11 12  1  0  0  0
 12 13  1  0  0  0
 12 14  1  0  0  0
 12  5  1  0  0  0
  5  6  2  0  0  0
  6  7  1  0  0  0
  7  8  2  0  0  0
  8  9  1  0  0  0
  9 10  2  0  0  0
  9  1  1  0  0  0
  1  2  2  0  0  0
  1  3  1  0  0  0
  3 15  1  0  0  0
 15 16  2  0  0  0
 16 17  1  0  0  0
 17 18  2  0  0  0
 18 19  1  0  0  0
 19 20  2  0  0  0
 19 21  1  0  0  0
 21 22  1  0  0  0
 21 23  1  0  0  0
 21 24  1  0  0  0
 10  5  1  0  0  0
 20 15  1  0  0  0
  3  4  1  0  0  0
M  END
> <minimizedAffinity>
-8.10657

> <CNNscore>
0.3986445665

> <CNNaffinity>
4.5323305130

> <CNN_VS>
1.8067889214

> <CNNaffinity_variance>
0.5776085854

$$$$
[H]c1c([H])c(C(=O)N([H])c2c([H])c([H])c([H])c(C(F)(F)F)c2[H])c([H])c(C(F)(F)F)c1[H]


 24 25  0  0  0  0  0  0  0  0999 V2000
   32.8650  -12.7540   37.7627 C   0  0  0  0  0  0  0  0  0  0  0  0
   32.8177  -12.7459   39.0221 O   0  0  0  0  0  0  0  0  0  0  0  0
   32.0496  -11.8744   37.0313 N   0  0  0  0  0  0  0  0  0  0  0  0
   32.1578  -11.9139   35.9747 H   0  0  0  0  0  0  0  0  0  0  0  0
   36.0306  -14.6173   37.0138 C   0  0  0  0  0  0  0  0  0  0  0  0
   35.6241  -15.4670   36.0144 C   0  0  0  0  0  0  0  0  0  0  0  0
   34.3189  -15.4302   35.5846 C   0  0  0  0  0  0  0  0  0  0  0  0
   33.3943  -14.5480   36.1398 C   0  0  0  0  0  0  0  0  0  0  0  0
   33.7832  -13.6883   37.1419 C   0  0  0  0  0  0  0  0  0  0  0  0
   35.1060  -13.7591   37.5455 C   0  0  0  0  0  0  0  0  0  0  0  0
   38.1403  -13.5832   36.9222 F   0  0  0  0  0  0  0  0  0  0  0  0
   37.4364  -14.6370   37.4760 C   0  0  0  0  0  0  0  0  0  0  0  0
   38.0396  -15.8584   37.1341 F   0  0  0  0  0  0  0  0  0  0  0  0
   37.4170  -14.5702   38.8742 F   0  0  0  0  0  0  0  0  0  0  0  0
   31.1350  -10.9462   37.5463 C   0  0  0  0  0  0  0  0  0  0  0  0
   31.5056   -9.5935   37.5759 C   0  0  0  0  0  0  0  0  0  0  0  0
   30.6391   -8.6191   38.0341 C   0  0  0  0  0  0  0  0  0  0  0  0
   29.3710   -8.9692   38.4711 C   0  0  0  0  0  0  0  0  0  0  0  0
   28.9978  -10.2674   38.4493 C   0  0  0  0  0  0  0  0  0  0  0  0
   29.8798  -11.2394   37.9893 C   0  0  0  0  0  0  0  0  0  0  0  0
   27.6515  -10.6458   38.9052 C   0  0  0  0  0  0  0  0  0  0  0  0
   26.9970   -9.4864   39.2668 F   0  0  0  0  0  0  0  0  0  0  0  0
   27.7701  -11.4498   40.0291 F   0  0  0  0  0  0  0  0  0  0  0  0
   26.9994  -11.3789   37.9586 F   0  0  0  0  0  0  0  0  0  0  0  0
 11 12  1  0  0  0
 12 13  1  0  0  0
 12 14  1  0  0  0
 12  5  1  0  0  0
  5  6  2  0  0  0
  6  7  1  0  0  0
  7  8  2  0  0  0
  8  9  1  0  0  0
  9 10  2  0  0  0
  9  1  1  0  0  0
  1  2  2  0  0  0
  1  3  1  0  0  0
  3 15  1  0  0  0
 15 16  2  0  0  0
 16 17  1  0  0  0
 17 18  2  0  0  0
 18 19  1  0  0  0
 19 20  2  0  0  0
 19 21  1  0  0  0
 21 22  1  0  0  0
 21 23  1  0  0  0
 21 24  1  0  0  0
 10  5  1  0  0  0
 20 15  1  0  0  0
  3  4  1  0  0  0
M  END
> <minimizedAffinity>
-8.29535

> <CNNscore>
0.3189080358

> <CNNaffinity>
4.6277117729

> <CNN_VS>
1.4758144617

> <CNNaffinity_variance>
0.3090275228

$$$$
[H]OC(=O)c1c([H])c([H])c([H])c(N([H])C(=O)c2c([H])c([H])c(-c3c([H])c([H])c(S(=O)(=O)C([H])([H])[H])c([H])c3[H])c([H])c2[H])c1[H]


 30 32  0  0  0  0  0  0  0  0999 V2000
   38.2711  -24.5182   37.3964 C   0  0  0  0  0  0  0  0  0  0  0  0
   37.6630  -23.3980   36.9054 C   0  0  0  0  0  0  0  0  0  0  0  0
   36.2959  -23.2319   37.1166 C   0  0  0  0  0  0  0  0  0  0  0  0
   35.5526  -24.1553   37.7984 C   0  0  0  0  0  0  0  0  0  0  0  0
   36.2089  -25.2828   38.2826 C   0  0  0  0  0  0  0  0  0  0  0  0
   37.5407  -25.4506   38.0801 C   0  0  0  0  0  0  0  0  0  0  0  0
   42.4701  -25.0168   36.6859 C   0  0  0  0  0  0  0  0  0  0  0  0
   42.0210  -24.3485   37.8055 C   0  0  0  0  0  0  0  0  0  0  0  0
   40.6669  -24.1897   38.0313 C   0  0  0  0  0  0  0  0  0  0  0  0
   39.7113  -24.6810   37.1671 C   0  0  0  0  0  0  0  0  0  0  0  0
   40.1609  -25.3497   36.0465 C   0  0  0  0  0  0  0  0  0  0  0  0
   41.5216  -25.5118   35.8154 C   0  0  0  0  0  0  0  0  0  0  0  0
   44.9961  -26.0645   37.6886 C   0  0  0  0  0  0  0  0  0  0  0  0
   44.1808  -25.2424   36.3576 S   0  0  0  0  0  0  0  0  0  0  0  0
   44.3732  -26.0540   35.1116 O   0  0  0  0  0  0  0  0  0  0  0  0
   44.8604  -23.9090   36.1420 O   0  0  0  0  0  0  0  0  0  0  0  0
   34.1015  -24.0245   38.0582 C   0  0  0  0  0  0  0  0  0  0  0  0
   33.7366  -23.7447   39.2374 O   0  0  0  0  0  0  0  0  0  0  0  0
   33.2051  -24.2106   37.0105 N   0  0  0  0  0  0  0  0  0  0  0  0
   33.6377  -24.4336   36.0542 H   0  0  0  0  0  0  0  0  0  0  0  0
   31.7897  -24.1306   37.0393 C   0  0  0  0  0  0  0  0  0  0  0  0
   31.0482  -25.3149   36.9443 C   0  0  0  0  0  0  0  0  0  0  0  0
   29.6767  -25.3493   36.9492 C   0  0  0  0  0  0  0  0  0  0  0  0
   28.9621  -24.1795   37.0514 C   0  0  0  0  0  0  0  0  0  0  0  0
   29.6726  -23.0140   37.1448 C   0  0  0  0  0  0  0  0  0  0  0  0
   31.0677  -22.9722   37.1400 C   0  0  0  0  0  0  0  0  0  0  0  0
   28.9434  -21.7586   37.2544 C   0  0  0  0  0  0  0  0  0  0  0  0
   28.4994  -21.0880   36.1048 O   0  0  0  0  0  0  0  0  0  0  0  0
   28.7078  -21.2692   38.3774 O   0  0  0  0  0  0  0  0  0  0  0  0
   29.2155  -20.5842   35.5905 H   0  0  0  0  0  0  0  0  0  0  0  0
 13 14  1  0  0  0
 14 15  2  0  0  0
 14 16  2  0  0  0
 14  7  1  0  0  0
  7  8  2  0  0  0
  8  9  1  0  0  0
  9 10  2  0  0  0
 10 11  1  0  0  0
 11 12  2  0  0  0
 10  1  1  0  0  0
  1  2  2  0  0  0
  2  3  1  0  0  0
  3  4  2  0  0  0
  4  5  1  0  0  0
  5  6  2  0  0  0
  4 17  1  0  0  0
 17 18  2  0  0  0
 17 19  1  0  0  0
 19 21  1  0  0  0
 21 22  2  0  0  0
 22 23  1  0  0  0
 23 24  2  0  0  0
 24 25  1  0  0  0
 25 26  2  0  0  0
 25 27  1  0  0  0
 27 28  1  0  0  0
 27 29  2  0  0  0
 12  7  1  0  0  0
  6  1  1  0  0  0
 26 21  1  0  0  0
 19 20  1  0  0  0
 28 30  1  0  0  0
M  END
> <minimizedAffinity>
-1.89217

> <CNNscore>
0.7405855060

> <CNNaffinity>
4.8325142860

> <CNN_VS>
3.5788900852

> <CNNaffinity_variance>
0.5704671741

$$$$
[H]OC(=O)c1c([H])c([H])c([H])c(N([H])C(=O)c2c([H])c([H])c(-c3c([H])c([H])c(S(=O)(=O)C([H])([H])[H])c([H])c3[H])c([H])c2[H])c1[H]


 30 32  0  0  0  0  0  0  0  0999 V2000
   38.2619  -21.0005   38.8926 C   0  0  0  0  0  0  0  0  0  0  0  0
   38.3840  -20.3049   37.7235 C   0  0  0  0  0  0  0  0  0  0  0  0
   37.2266  -19.8975   37.0635 C   0  0  0  0  0  0  0  0  0  0  0  0
   35.9801  -20.1742   37.5530 C   0  0  0  0  0  0  0  0  0  0  0  0
   35.8980  -20.8851   38.7466 C   0  0  0  0  0  0  0  0  0  0  0  0
   37.0219  -21.2849   39.3945 C   0  0  0  0  0  0  0  0  0  0  0  0
   41.8254  -22.2779   40.9062 C   0  0  0  0  0  0  0  0  0  0  0  0
   41.7760  -21.0539   40.2730 C   0  0  0  0  0  0  0  0  0  0  0  0
   40.6258  -20.6454   39.6250 C   0  0  0  0  0  0  0  0  0  0  0  0
   39.4886  -21.4237   39.5777 C   0  0  0  0  0  0  0  0  0  0  0  0
   39.5382  -22.6488   40.2114 C   0  0  0  0  0  0  0  0  0  0  0  0
   40.6926  -23.0638   40.8642 C   0  0  0  0  0  0  0  0  0  0  0  0
   42.9031  -24.1720   42.8387 C   0  0  0  0  0  0  0  0  0  0  0  0
   43.2650  -22.8387   41.7417 S   0  0  0  0  0  0  0  0  0  0  0  0
   44.2957  -23.3033   40.7567 O   0  0  0  0  0  0  0  0  0  0  0  0
   43.8800  -21.7187   42.5501 O   0  0  0  0  0  0  0  0  0  0  0  0
   34.7200  -19.7584   36.8979 C   0  0  0  0  0  0  0  0  0  0  0  0
   34.6836  -18.6113   36.3642 O   0  0  0  0  0  0  0  0  0  0  0  0
   33.6374  -20.6324   36.8927 N   0  0  0  0  0  0  0  0  0  0  0  0
   33.7952  -21.5808   37.3691 H   0  0  0  0  0  0  0  0  0  0  0  0
   32.3522  -20.4374   36.3260 C   0  0  0  0  0  0  0  0  0  0  0  0
   32.1505  -19.3381   35.4820 C   0  0  0  0  0  0  0  0  0  0  0  0
   30.9454  -19.0501   34.8927 C   0  0  0  0  0  0  0  0  0  0  0  0
   29.8595  -19.8615   35.1209 C   0  0  0  0  0  0  0  0  0  0  0  0
   30.0411  -20.9395   35.9435 C   0  0  0  0  0  0  0  0  0  0  0  0
   31.2640  -21.2378   36.5463 C   0  0  0  0  0  0  0  0  0  0  0  0
   28.9092  -21.8175   36.2039 C   0  0  0  0  0  0  0  0  0  0  0  0
   28.4806  -22.7366   35.2344 O   0  0  0  0  0  0  0  0  0  0  0  0
   28.3107  -21.7575   37.2968 O   0  0  0  0  0  0  0  0  0  0  0  0
   27.9493  -22.3415   34.4644 H   0  0  0  0  0  0  0  0  0  0  0  0
 13 14  1  0  0  0
 14 15  2  0  0  0
 14 16  2  0  0  0
 14  7  1  0  0  0
  7  8  2  0  0  0
  8  9  1  0  0  0
  9 10  2  0  0  0
 10 11  1  0  0  0
 11 12  2  0  0  0
 10  1  1  0  0  0
  1  2  2  0  0  0
  2  3  1  0  0  0
  3  4  2  0  0  0
  4  5  1  0  0  0
  5  6  2  0  0  0
  4 17  1  0  0  0
 17 18  2  0  0  0
 17 19  1  0  0  0
 19 21  1  0  0  0
 21 22  2  0  0  0
 22 23  1  0  0  0
 23 24  2  0  0  0
 24 25  1  0  0  0
 25 26  2  0  0  0
 25 27  1  0  0  0
 27 28  1  0  0  0
 27 29  2  0  0  0
 12  7  1  0  0  0
  6  1  1  0  0  0
 26 21  1  0  0  0
 19 20  1  0  0  0
 28 30  1  0  0  0
M  END
> <minimizedAffinity>
-4.87063

> <CNNscore>
0.6393195391

> <CNNaffinity>
4.3228783607

> <CNN_VS>
2.7637004852

> <CNNaffinity_variance>
0.0781323388

$$$$
[H]OC(=O)c1c([H])c([H])c([H])c(N([H])C(=O)c2c([H])c([H])c(-c3c([H])c([H])c(S(=O)(=O)C([H])([H])[H])c([H])c3[H])c([H])c2[H])c1[H]


 30 32  0  0  0  0  0  0  0  0999 V2000
   38.3082  -22.1213   36.4109 C   0  0  0  0  0  0  0  0  0  0  0  0
   38.1540  -20.7664   36.4888 C   0  0  0  0  0  0  0  0  0  0  0  0
   37.3272  -20.2431   37.4806 C   0  0  0  0  0  0  0  0  0  0  0  0
   36.6710  -21.0459   38.3722 C   0  0  0  0  0  0  0  0  0  0  0  0
   36.8540  -22.4209   38.2597 C   0  0  0  0  0  0  0  0  0  0  0  0
   37.6582  -22.9369   37.2954 C   0  0  0  0  0  0  0  0  0  0  0  0
   40.8297  -23.7289   33.3379 C   0  0  0  0  0  0  0  0  0  0  0  0
   41.1855  -22.5777   34.0087 C   0  0  0  0  0  0  0  0  0  0  0  0
   40.3705  -22.0624   34.9986 C   0  0  0  0  0  0  0  0  0  0  0  0
   39.1817  -22.6594   35.3617 C   0  0  0  0  0  0  0  0  0  0  0  0
   38.8256  -23.8115   34.6903 C   0  0  0  0  0  0  0  0  0  0  0  0
   39.6420  -24.3332   33.6942 C   0  0  0  0  0  0  0  0  0  0  0  0
   41.1724  -25.9427   31.4764 C   0  0  0  0  0  0  0  0  0  0  0  0
   41.8336  -24.4199   32.0731 S   0  0  0  0  0  0  0  0  0  0  0  0
   41.9503  -23.4703   30.9186 O   0  0  0  0  0  0  0  0  0  0  0  0
   43.2303  -24.6839   32.5886 O   0  0  0  0  0  0  0  0  0  0  0  0
   35.7891  -20.5430   39.4490 C   0  0  0  0  0  0  0  0  0  0  0  0
   34.9561  -19.6369   39.1538 O   0  0  0  0  0  0  0  0  0  0  0  0
   35.9066  -21.0784   40.7278 N   0  0  0  0  0  0  0  0  0  0  0  0
   36.6430  -21.8491   40.8501 H   0  0  0  0  0  0  0  0  0  0  0  0
   35.1678  -20.7463   41.8917 C   0  0  0  0  0  0  0  0  0  0  0  0
   35.8521  -20.2156   42.9925 C   0  0  0  0  0  0  0  0  0  0  0  0
   35.2369  -19.8728   44.1700 C   0  0  0  0  0  0  0  0  0  0  0  0
   33.8805  -20.0459   44.3104 C   0  0  0  0  0  0  0  0  0  0  0  0
   33.1983  -20.5636   43.2435 C   0  0  0  0  0  0  0  0  0  0  0  0
   33.8180  -20.9147   42.0432 C   0  0  0  0  0  0  0  0  0  0  0  0
   31.7603  -20.7584   43.3621 C   0  0  0  0  0  0  0  0  0  0  0  0
   31.0976  -21.6956   42.5554 O   0  0  0  0  0  0  0  0  0  0  0  0
   31.1053  -20.0893   44.1865 O   0  0  0  0  0  0  0  0  0  0  0  0
   30.9421  -21.4097   41.5935 H   0  0  0  0  0  0  0  0  0  0  0  0
 13 14  1  0  0  0
 14 15  2  0  0  0
 14 16  2  0  0  0
 14  7  1  0  0  0
  7  8  2  0  0  0
  8  9  1  0  0  0
  9 10  2  0  0  0
 10 11  1  0  0  0
 11 12  2  0  0  0
 10  1  1  0  0  0
  1  2  2  0  0  0
  2  3  1  0  0  0
  3  4  2  0  0  0
  4  5  1  0  0  0
  5  6  2  0  0  0
  4 17  1  0  0  0
 17 18  2  0  0  0
 17 19  1  0  0  0
 19 21  1  0  0  0
 21 22  2  0  0  0
 22 23  1  0  0  0
 23 24  2  0  0  0
 24 25  1  0  0  0
 25 26  2  0  0  0
 25 27  1  0  0  0
 27 28  1  0  0  0
 27 29  2  0  0  0
 12  7  1  0  0  0
  6  1  1  0  0  0
 26 21  1  0  0  0
 19 20  1  0  0  0
 28 30  1  0  0  0
M  END
> <minimizedAffinity>
-3.66063

> <CNNscore>
0.6274017692

> <CNNaffinity>
4.3790998459

> <CNN_VS>
2.7474548817

> <CNNaffinity_variance>
0.0837552845

$$$$
[H]OC(=O)c1c([H])c([H])c([H])c(N([H])C(=O)c2c([H])c([H])c(-c3c([H])c([H])c(S(=O)(=O)C([H])([H])[H])c([H])c3[H])c([H])c2[H])c1[H]


 30 32  0  0  0  0  0  0  0  0999 V2000
   36.0490  -21.3193   37.6338 C   0  0  0  0  0  0  0  0  0  0  0  0
   36.8679  -20.3814   37.0720 C   0  0  0  0  0  0  0  0  0  0  0  0
   38.2058  -20.3436   37.4589 C   0  0  0  0  0  0  0  0  0  0  0  0
   38.7166  -21.2156   38.3802 C   0  0  0  0  0  0  0  0  0  0  0  0
   37.8501  -22.1559   38.9294 C   0  0  0  0  0  0  0  0  0  0  0  0
   36.5454  -22.1979   38.5567 C   0  0  0  0  0  0  0  0  0  0  0  0
   31.9390  -21.3571   36.4125 C   0  0  0  0  0  0  0  0  0  0  0  0
   32.5899  -22.5315   36.7267 C   0  0  0  0  0  0  0  0  0  0  0  0
   33.9146  -22.5156   37.1200 C   0  0  0  0  0  0  0  0  0  0  0  0
   34.6422  -21.3483   37.2176 C   0  0  0  0  0  0  0  0  0  0  0  0
   33.9906  -20.1729   36.9030 C   0  0  0  0  0  0  0  0  0  0  0  0
   32.6587  -20.1842   36.5070 C   0  0  0  0  0  0  0  0  0  0  0  0
   29.1625  -21.5004   37.2808 C   0  0  0  0  0  0  0  0  0  0  0  0
   30.2569  -21.3289   35.9078 S   0  0  0  0  0  0  0  0  0  0  0  0
   29.9405  -20.0406   35.2089 O   0  0  0  0  0  0  0  0  0  0  0  0
   29.9745  -22.4543   34.9383 O   0  0  0  0  0  0  0  0  0  0  0  0
   40.1296  -21.2250   38.8200 C   0  0  0  0  0  0  0  0  0  0  0  0
   40.5982  -20.1613   39.3210 O   0  0  0  0  0  0  0  0  0  0  0  0
   40.8795  -22.3873   38.6690 N   0  0  0  0  0  0  0  0  0  0  0  0
   40.3666  -23.2266   38.2404 H   0  0  0  0  0  0  0  0  0  0  0  0
   42.2345  -22.6117   39.0214 C   0  0  0  0  0  0  0  0  0  0  0  0
   43.0899  -23.1822   38.0704 C   0  0  0  0  0  0  0  0  0  0  0  0
   44.4131  -23.4531   38.3115 C   0  0  0  0  0  0  0  0  0  0  0  0
   44.9598  -23.1621   39.5386 C   0  0  0  0  0  0  0  0  0  0  0  0
   44.1365  -22.6044   40.4782 C   0  0  0  0  0  0  0  0  0  0  0  0
   42.7897  -22.3266   40.2396 C   0  0  0  0  0  0  0  0  0  0  0  0
   44.6871  -22.2848   41.7876 C   0  0  0  0  0  0  0  0  0  0  0  0
   44.8747  -20.9499   42.1768 O   0  0  0  0  0  0  0  0  0  0  0  0
   44.9968  -23.2010   42.5755 O   0  0  0  0  0  0  0  0  0  0  0  0
   45.6791  -20.4855   41.7664 H   0  0  0  0  0  0  0  0  0  0  0  0
 13 14  1  0  0  0
 14 15  2  0  0  0
 14 16  2  0  0  0
 14  7  1  0  0  0
  7  8  2  0  0  0
  8  9  1  0  0  0
  9 10  2  0  0  0
 10 11  1  0  0  0
 11 12  2  0  0  0
 10  1  1  0  0  0
  1  2  2  0  0  0
  2  3  1  0  0  0
  3  4  2  0  0  0
  4  5  1  0  0  0
  5  6  2  0  0  0
  4 17  1  0  0  0
 17 18  2  0  0  0
 17 19  1  0  0  0
 19 21  1  0  0  0
 21 22  2  0  0  0
 22 23  1  0  0  0
 23 24  2  0  0  0
 24 25  1  0  0  0
 25 26  2  0  0  0
 25 27  1  0  0  0
 27 28  1  0  0  0
 27 29  2  0  0  0
 12  7  1  0  0  0
  6  1  1  0  0  0
 26 21  1  0  0  0
 19 20  1  0  0  0
 28 30  1  0  0  0
M  END
> <minimizedAffinity>
-3.20609

> <CNNscore>
0.6001499891

> <CNNaffinity>
4.4453639984

> <CNN_VS>
2.6678850651

> <CNNaffinity_variance>
0.1044362187

$$$$
[H]OC(=O)c1c([H])c([H])c([H])c(N([H])C(=O)c2c([H])c([H])c(-c3c([H])c([H])c(S(=O)(=O)C([H])([H])[H])c([H])c3[H])c([H])c2[H])c1[H]


 30 32  0  0  0  0  0  0  0  0999 V2000
   37.5316  -19.2228   35.3125 C   0  0  0  0  0  0  0  0  0  0  0  0
   36.7888  -18.8201   36.3857 C   0  0  0  0  0  0  0  0  0  0  0  0
   36.8090  -19.5965   37.5423 C   0  0  0  0  0  0  0  0  0  0  0  0
   37.5487  -20.7433   37.6301 C   0  0  0  0  0  0  0  0  0  0  0  0
   38.2918  -21.1196   36.5152 C   0  0  0  0  0  0  0  0  0  0  0  0
   38.2762  -20.3675   35.3853 C   0  0  0  0  0  0  0  0  0  0  0  0
   37.3979  -16.7974   31.7791 C   0  0  0  0  0  0  0  0  0  0  0  0
   38.5653  -17.4279   32.1553 C   0  0  0  0  0  0  0  0  0  0  0  0
   38.6047  -18.2089   33.2947 C   0  0  0  0  0  0  0  0  0  0  0  0
   37.5015  -18.3961   34.1005 C   0  0  0  0  0  0  0  0  0  0  0  0
   36.3332  -17.7649   33.7239 C   0  0  0  0  0  0  0  0  0  0  0  0
   36.2889  -16.9786   32.5790 C   0  0  0  0  0  0  0  0  0  0  0  0
   35.9585  -16.2762   29.3012 C   0  0  0  0  0  0  0  0  0  0  0  0
   37.3008  -15.7953   30.3399 S   0  0  0  0  0  0  0  0  0  0  0  0
   37.1162  -14.3553   30.7148 O   0  0  0  0  0  0  0  0  0  0  0  0
   38.5772  -15.8964   29.5354 O   0  0  0  0  0  0  0  0  0  0  0  0
   37.6130  -21.5994   38.8356 C   0  0  0  0  0  0  0  0  0  0  0  0
   36.8630  -22.6181   38.8758 O   0  0  0  0  0  0  0  0  0  0  0  0
   38.4843  -21.2573   39.8651 N   0  0  0  0  0  0  0  0  0  0  0  0
   39.0756  -20.3758   39.7085 H   0  0  0  0  0  0  0  0  0  0  0  0
   38.7027  -21.9319   41.0930 C   0  0  0  0  0  0  0  0  0  0  0  0
   39.5164  -21.3241   42.0574 C   0  0  0  0  0  0  0  0  0  0  0  0
   39.8029  -21.8949   43.2717 C   0  0  0  0  0  0  0  0  0  0  0  0
   39.2808  -23.1258   43.5906 C   0  0  0  0  0  0  0  0  0  0  0  0
   38.4839  -23.7323   42.6584 C   0  0  0  0  0  0  0  0  0  0  0  0
   38.1889  -23.1572   41.4214 C   0  0  0  0  0  0  0  0  0  0  0  0
   37.9161  -25.0368   42.9677 C   0  0  0  0  0  0  0  0  0  0  0  0
   36.5324  -25.1901   43.1419 O   0  0  0  0  0  0  0  0  0  0  0  0
   38.6606  -26.0313   43.0802 O   0  0  0  0  0  0  0  0  0  0  0  0
   36.1661  -24.8614   44.0302 H   0  0  0  0  0  0  0  0  0  0  0  0
 13 14  1  0  0  0
 14 15  2  0  0  0
 14 16  2  0  0  0
 14  7  1  0  0  0
  7  8  2  0  0  0
  8  9  1  0  0  0
  9 10  2  0  0  0
 10 11  1  0  0  0
 11 12  2  0  0  0
 10  1  1  0  0  0
  1  2  2  0  0  0
  2  3  1  0  0  0
  3  4  2  0  0  0
  4  5  1  0  0  0
  5  6  2  0  0  0
  4 17  1  0  0  0
 17 18  2  0  0  0
 17 19  1  0  0  0
 19 21  1  0  0  0
 21 22  2  0  0  0
 22 23  1  0  0  0
 23 24  2  0  0  0
 24 25  1  0  0  0
 25 26  2  0  0  0
 25 27  1  0  0  0
 27 28  1  0  0  0
 27 29  2  0  0  0
 12  7  1  0  0  0
  6  1  1  0  0  0
 26 21  1  0  0  0
 19 20  1  0  0  0
 28 30  1  0  0  0
M  END
> <minimizedAffinity>
4.02185

> <CNNscore>
0.5513633490

> <CNNaffinity>
4.5698566437

> <CNN_VS>
2.5196514130

> <CNNaffinity_variance>
0.8266895413

$$$$
[H]OC(=O)c1c([H])c([H])c([H])c(N([H])C(=O)c2c([H])c([H])c(-c3c([H])c([H])c(S(=O)(=O)C([H])([H])[H])c([H])c3[H])c([H])c2[H])c1[H]


 30 32  0  0  0  0  0  0  0  0999 V2000
   38.6766  -22.0355   36.7294 C   0  0  0  0  0  0  0  0  0  0  0  0
   39.9314  -22.5674   36.8202 C   0  0  0  0  0  0  0  0  0  0  0  0
   40.6423  -22.8084   35.6465 C   0  0  0  0  0  0  0  0  0  0  0  0
   40.1196  -22.5276   34.4144 C   0  0  0  0  0  0  0  0  0  0  0  0
   38.8384  -21.9867   34.3643 C   0  0  0  0  0  0  0  0  0  0  0  0
   38.1405  -21.7497   35.5042 C   0  0  0  0  0  0  0  0  0  0  0  0
   36.4856  -21.2878   40.3385 C   0  0  0  0  0  0  0  0  0  0  0  0
   37.7011  -21.9381   40.3758 C   0  0  0  0  0  0  0  0  0  0  0  0
   38.4046  -22.1773   39.2107 C   0  0  0  0  0  0  0  0  0  0  0  0
   37.9387  -21.7867   37.9731 C   0  0  0  0  0  0  0  0  0  0  0  0
   36.7221  -21.1359   37.9358 C   0  0  0  0  0  0  0  0  0  0  0  0
   36.0112  -20.8931   39.1049 C   0  0  0  0  0  0  0  0  0  0  0  0
   35.2056  -22.4427   42.6861 C   0  0  0  0  0  0  0  0  0  0  0  0
   35.5565  -20.9623   41.7931 S   0  0  0  0  0  0  0  0  0  0  0  0
   36.3070  -20.0311   42.6975 O   0  0  0  0  0  0  0  0  0  0  0  0
   34.2422  -20.2998   41.4465 O   0  0  0  0  0  0  0  0  0  0  0  0
   40.8337  -22.7553   33.1383 C   0  0  0  0  0  0  0  0  0  0  0  0
   41.6298  -21.8558   32.7396 O   0  0  0  0  0  0  0  0  0  0  0  0
   40.6068  -23.9341   32.4348 N   0  0  0  0  0  0  0  0  0  0  0  0
   39.9168  -24.6239   32.8813 H   0  0  0  0  0  0  0  0  0  0  0  0
   41.1809  -24.3498   31.2067 C   0  0  0  0  0  0  0  0  0  0  0  0
   40.7020  -25.5196   30.6036 C   0  0  0  0  0  0  0  0  0  0  0  0
   41.1952  -26.0170   29.4238 C   0  0  0  0  0  0  0  0  0  0  0  0
   42.2115  -25.3583   28.7738 C   0  0  0  0  0  0  0  0  0  0  0  0
   42.6901  -24.2138   29.3509 C   0  0  0  0  0  0  0  0  0  0  0  0
   42.1931  -23.7027   30.5508 C   0  0  0  0  0  0  0  0  0  0  0  0
   43.7665  -23.4938   28.6856 C   0  0  0  0  0  0  0  0  0  0  0  0
   43.5710  -22.1829   28.2253 O   0  0  0  0  0  0  0  0  0  0  0  0
   44.8753  -24.0411   28.5203 O   0  0  0  0  0  0  0  0  0  0  0  0
   43.0342  -22.0981   27.3675 H   0  0  0  0  0  0  0  0  0  0  0  0
 13 14  1  0  0  0
 14 15  2  0  0  0
 14 16  2  0  0  0
 14  7  1  0  0  0
  7  8  2  0  0  0
  8  9  1  0  0  0
  9 10  2  0  0  0
 10 11  1  0  0  0
 11 12  2  0  0  0
 10  1  1  0  0  0
  1  2  2  0  0  0
  2  3  1  0  0  0
  3  4  2  0  0  0
  4  5  1  0  0  0
  5  6  2  0  0  0
  4 17  1  0  0  0
 17 18  2  0  0  0
 17 19  1  0  0  0
 19 21  1  0  0  0
 21 22  2  0  0  0
 22 23  1  0  0  0
 23 24  2  0  0  0
 24 25  1  0  0  0
 25 26  2  0  0  0
 25 27  1  0  0  0
 27 28  1  0  0  0
 27 29  2  0  0  0
 12  7  1  0  0  0
  6  1  1  0  0  0
 26 21  1  0  0  0
 19 20  1  0  0  0
 28 30  1  0  0  0
M  END
> <minimizedAffinity>
-2.98070

> <CNNscore>
0.5401850343

> <CNNaffinity>
4.5287160873

> <CNN_VS>
2.4463446140

> <CNNaffinity_variance>
0.2516182959

$$$$
[H]OC(=O)c1c([H])c([H])c([H])c(N([H])C(=O)c2c([H])c([H])c(-c3c([H])c([H])c(S(=O)(=O)C([H])([H])[H])c([H])c3[H])c([H])c2[H])c1[H]


 30 32  0  0  0  0  0  0  0  0999 V2000
   38.2658  -21.1789   37.5679 C   0  0  0  0  0  0  0  0  0  0  0  0
   37.9268  -20.6498   36.3552 C   0  0  0  0  0  0  0  0  0  0  0  0
   38.8226  -20.7773   35.2957 C   0  0  0  0  0  0  0  0  0  0  0  0
   40.0242  -21.4145   35.4380 C   0  0  0  0  0  0  0  0  0  0  0  0
   40.3326  -21.9398   36.6893 C   0  0  0  0  0  0  0  0  0  0  0  0
   39.4641  -21.8188   37.7255 C   0  0  0  0  0  0  0  0  0  0  0  0
   35.4533  -20.7433   40.7750 C   0  0  0  0  0  0  0  0  0  0  0  0
   36.6470  -21.4053   40.9717 C   0  0  0  0  0  0  0  0  0  0  0  0
   37.5511  -21.5438   39.9358 C   0  0  0  0  0  0  0  0  0  0  0  0
   37.3135  -21.0378   38.6753 C   0  0  0  0  0  0  0  0  0  0  0  0
   36.1187  -20.3753   38.4785 C   0  0  0  0  0  0  0  0  0  0  0  0
   35.2066  -20.2337   39.5173 C   0  0  0  0  0  0  0  0  0  0  0  0
   34.3216  -18.9158   42.7405 C   0  0  0  0  0  0  0  0  0  0  0  0
   34.2744  -20.5434   42.0615 S   0  0  0  0  0  0  0  0  0  0  0  0
   32.8893  -20.8017   41.5485 O   0  0  0  0  0  0  0  0  0  0  0  0
   34.5367  -21.5269   43.1797 O   0  0  0  0  0  0  0  0  0  0  0  0
   41.0075  -21.5855   34.3454 C   0  0  0  0  0  0  0  0  0  0  0  0
   41.4876  -20.5411   33.8155 O   0  0  0  0  0  0  0  0  0  0  0  0
   41.3631  -22.8705   33.9476 N   0  0  0  0  0  0  0  0  0  0  0  0
   40.8949  -23.6753   34.4808 H   0  0  0  0  0  0  0  0  0  0  0  0
   42.2772  -23.2563   32.9345 C   0  0  0  0  0  0  0  0  0  0  0  0
   43.5937  -23.5640   33.2998 C   0  0  0  0  0  0  0  0  0  0  0  0
   44.5599  -23.9351   32.3991 C   0  0  0  0  0  0  0  0  0  0  0  0
   44.2540  -24.0195   31.0617 C   0  0  0  0  0  0  0  0  0  0  0  0
   42.9717  -23.7217   30.6893 C   0  0  0  0  0  0  0  0  0  0  0  0
   41.9844  -23.3432   31.6003 C   0  0  0  0  0  0  0  0  0  0  0  0
   42.6175  -23.8024   29.2794 C   0  0  0  0  0  0  0  0  0  0  0  0
   42.7637  -22.6866   28.4414 O   0  0  0  0  0  0  0  0  0  0  0  0
   42.1796  -24.8700   28.8055 O   0  0  0  0  0  0  0  0  0  0  0  0
   42.0508  -21.9705   28.5413 H   0  0  0  0  0  0  0  0  0  0  0  0
 13 14  1  0  0  0
 14 15  2  0  0  0
 14 16  2  0  0  0
 14  7  1  0  0  0
  7  8  2  0  0  0
  8  9  1  0  0  0
  9 10  2  0  0  0
 10 11  1  0  0  0
 11 12  2  0  0  0
 10  1  1  0  0  0
  1  2  2  0  0  0
  2  3  1  0  0  0
  3  4  2  0  0  0
  4  5  1  0  0  0
  5  6  2  0  0  0
  4 17  1  0  0  0
 17 18  2  0  0  0
 17 19  1  0  0  0
 19 21  1  0  0  0
 21 22  2  0  0  0
 22 23  1  0  0  0
 23 24  2  0  0  0
 24 25  1  0  0  0
 25 26  2  0  0  0
 25 27  1  0  0  0
 27 28  1  0  0  0
 27 29  2  0  0  0
 12  7  1  0  0  0
  6  1  1  0  0  0
 26 21  1  0  0  0
 19 20  1  0  0  0
 28 30  1  0  0  0
M  END
> <minimizedAffinity>
-4.32905

> <CNNscore>
0.5134801865

> <CNNaffinity>
4.2872085571

> <CNN_VS>
2.2013967037

> <CNNaffinity_variance>
0.0447612479

$$$$
[H]OC(=O)c1c([H])c([H])c([H])c(N([H])C(=O)c2c([H])c([H])c(-c3c([H])c([H])c(S(=O)(=O)C([H])([H])[H])c([H])c3[H])c([H])c2[H])c1[H]


 30 32  0  0  0  0  0  0  0  0999 V2000
   35.8184  -15.9178   36.5502 C   0  0  0  0  0  0  0  0  0  0  0  0
   35.8290  -15.4002   37.8142 C   0  0  0  0  0  0  0  0  0  0  0  0
   36.7276  -14.3775   38.1107 C   0  0  0  0  0  0  0  0  0  0  0  0
   37.5929  -13.8820   37.1749 C   0  0  0  0  0  0  0  0  0  0  0  0
   37.5511  -14.4360   35.8989 C   0  0  0  0  0  0  0  0  0  0  0  0
   36.6780  -15.4327   35.6038 C   0  0  0  0  0  0  0  0  0  0  0  0
   33.0096  -19.0321   35.6573 C   0  0  0  0  0  0  0  0  0  0  0  0
   34.2135  -19.3237   36.2634 C   0  0  0  0  0  0  0  0  0  0  0  0
   35.1164  -18.3174   36.5497 C   0  0  0  0  0  0  0  0  0  0  0  0
   34.8673  -16.9945   36.2511 C   0  0  0  0  0  0  0  0  0  0  0  0
   33.6623  -16.7028   35.6445 C   0  0  0  0  0  0  0  0  0  0  0  0
   32.7514  -17.7114   35.3547 C   0  0  0  0  0  0  0  0  0  0  0  0
   32.5801  -21.6525   34.4605 C   0  0  0  0  0  0  0  0  0  0  0  0
   31.8320  -20.2777   35.2743 S   0  0  0  0  0  0  0  0  0  0  0  0
   31.1667  -20.7726   36.5237 O   0  0  0  0  0  0  0  0  0  0  0  0
   30.7519  -19.7274   34.3706 O   0  0  0  0  0  0  0  0  0  0  0  0
   38.5603  -12.7924   37.4336 C   0  0  0  0  0  0  0  0  0  0  0  0
   38.8762  -12.5576   38.6365 O   0  0  0  0  0  0  0  0  0  0  0  0
   39.0799  -12.0771   36.3591 N   0  0  0  0  0  0  0  0  0  0  0  0
   38.7427  -12.3776   35.3858 H   0  0  0  0  0  0  0  0  0  0  0  0
   40.0106  -11.0076   36.3822 C   0  0  0  0  0  0  0  0  0  0  0  0
   39.6053   -9.7762   36.9120 C   0  0  0  0  0  0  0  0  0  0  0  0
   40.4208   -8.6744   36.9705 C   0  0  0  0  0  0  0  0  0  0  0  0
   41.7078   -8.7482   36.4934 C   0  0  0  0  0  0  0  0  0  0  0  0
   42.1183   -9.9448   35.9725 C   0  0  0  0  0  0  0  0  0  0  0  0
   41.2938  -11.0691   35.9098 C   0  0  0  0  0  0  0  0  0  0  0  0
   43.4766  -10.0538   35.4595 C   0  0  0  0  0  0  0  0  0  0  0  0
   43.9236  -11.2458   34.8698 O   0  0  0  0  0  0  0  0  0  0  0  0
   44.2551   -9.0825   35.5417 O   0  0  0  0  0  0  0  0  0  0  0  0
   44.1479  -11.9949   35.5176 H   0  0  0  0  0  0  0  0  0  0  0  0
 13 14  1  0  0  0
 14 15  2  0  0  0
 14 16  2  0  0  0
 14  7  1  0  0  0
  7  8  2  0  0  0
  8  9  1  0  0  0
  9 10  2  0  0  0
 10 11  1  0  0  0
 11 12  2  0  0  0
 10  1  1  0  0  0
  1  2  2  0  0  0
  2  3  1  0  0  0
  3  4  2  0  0  0
  4  5  1  0  0  0
  5  6  2  0  0  0
  4 17  1  0  0  0
 17 18  2  0  0  0
 17 19  1  0  0  0
 19 21  1  0  0  0
 21 22  2  0  0  0
 22 23  1  0  0  0
 23 24  2  0  0  0
 24 25  1  0  0  0
 25 26  2  0  0  0
 25 27  1  0  0  0
 27 28  1  0  0  0
 27 29  2  0  0  0
 12  7  1  0  0  0
  6  1  1  0  0  0
 26 21  1  0  0  0
 19 20  1  0  0  0
 28 30  1  0  0  0
M  END
> <minimizedAffinity>
25.47815

> <CNNscore>
0.4811676145

> <CNNaffinity>
4.6767683029

> <CNN_VS>
2.2503094673

> <CNNaffinity_variance>
0.3392699063

$$$$
[H]OC(=O)c1c([H])c([H])c([H])c(N([H])C(=O)c2c([H])c([H])c(-c3c([H])c([H])c(S(=O)(=O)C([H])([H])[H])c([H])c3[H])c([H])c2[H])c1[H]


 30 32  0  0  0  0  0  0  0  0999 V2000
   35.6706  -20.2461   36.6636 C   0  0  0  0  0  0  0  0  0  0  0  0
   36.0872  -18.9859   36.9860 C   0  0  0  0  0  0  0  0  0  0  0  0
   37.4518  -18.7520   37.1421 C   0  0  0  0  0  0  0  0  0  0  0  0
   38.3782  -19.7449   36.9816 C   0  0  0  0  0  0  0  0  0  0  0  0
   37.9136  -21.0150   36.6534 C   0  0  0  0  0  0  0  0  0  0  0  0
   36.5853  -21.2494   36.5000 C   0  0  0  0  0  0  0  0  0  0  0  0
   31.4694  -20.9714   36.2065 C   0  0  0  0  0  0  0  0  0  0  0  0
   32.0030  -19.7307   35.9280 C   0  0  0  0  0  0  0  0  0  0  0  0
   33.3575  -19.5005   36.0764 C   0  0  0  0  0  0  0  0  0  0  0  0
   34.2308  -20.4790   36.5021 C   0  0  0  0  0  0  0  0  0  0  0  0
   33.6966  -21.7208   36.7809 C   0  0  0  0  0  0  0  0  0  0  0  0
   32.3352  -21.9568   36.6331 C   0  0  0  0  0  0  0  0  0  0  0  0
   29.4482  -23.0366   35.8409 C   0  0  0  0  0  0  0  0  0  0  0  0
   29.7546  -21.3099   36.0327 S   0  0  0  0  0  0  0  0  0  0  0  0
   29.0001  -20.8264   37.2349 O   0  0  0  0  0  0  0  0  0  0  0  0
   29.1923  -20.5957   34.8244 O   0  0  0  0  0  0  0  0  0  0  0  0
   39.8380  -19.5495   37.1268 C   0  0  0  0  0  0  0  0  0  0  0  0
   40.3221  -18.4359   36.7698 O   0  0  0  0  0  0  0  0  0  0  0  0
   40.6127  -20.5830   37.6442 N   0  0  0  0  0  0  0  0  0  0  0  0
   40.0845  -21.4751   37.9203 H   0  0  0  0  0  0  0  0  0  0  0  0
   42.0129  -20.6059   37.8671 C   0  0  0  0  0  0  0  0  0  0  0  0
   42.8688  -20.3530   36.7877 C   0  0  0  0  0  0  0  0  0  0  0  0
   44.2369  -20.3633   36.8908 C   0  0  0  0  0  0  0  0  0  0  0  0
   44.8311  -20.6319   38.1008 C   0  0  0  0  0  0  0  0  0  0  0  0
   44.0079  -20.8811   39.1647 C   0  0  0  0  0  0  0  0  0  0  0  0
   42.6157  -20.8725   39.0666 C   0  0  0  0  0  0  0  0  0  0  0  0
   44.6082  -21.1687   40.4597 C   0  0  0  0  0  0  0  0  0  0  0  0
   44.9958  -22.4753   40.7927 O   0  0  0  0  0  0  0  0  0  0  0  0
   44.7826  -20.2498   41.2852 O   0  0  0  0  0  0  0  0  0  0  0  0
   44.2387  -23.1030   41.0459 H   0  0  0  0  0  0  0  0  0  0  0  0
 13 14  1  0  0  0
 14 15  2  0  0  0
 14 16  2  0  0  0
 14  7  1  0  0  0
  7  8  2  0  0  0
  8  9  1  0  0  0
  9 10  2  0  0  0
 10 11  1  0  0  0
 11 12  2  0  0  0
 10  1  1  0  0  0
  1  2  2  0  0  0
  2  3  1  0  0  0
  3  4  2  0  0  0
  4  5  1  0  0  0
  5  6  2  0  0  0
  4 17  1  0  0  0
 17 18  2  0  0  0
 17 19  1  0  0  0
 19 21  1  0  0  0
 21 22  2  0  0  0
 22 23  1  0  0  0
 23 24  2  0  0  0
 24 25  1  0  0  0
 25 26  2  0  0  0
 25 27  1  0  0  0
 27 28  1  0  0  0
 27 29  2  0  0  0
 12  7  1  0  0  0
  6  1  1  0  0  0
 26 21  1  0  0  0
 19 20  1  0  0  0
 28 30  1  0  0  0
M  END
> <minimizedAffinity>
-4.07814

> <CNNscore>
0.4518348277

> <CNNaffinity>
4.2561478615

> <CNN_VS>
1.9230757952

> <CNNaffinity_variance>
0.0375294350

$$$$
[H]OC(=O)c1c([H])c([H])c([H])c(N([H])C(=O)c2c([H])c([H])c(-c3c([H])c([H])c(S(=O)(=O)N([H])[H])c([H])c3[H])c([H])c2[H])c1[H]


 32 34  0  0  0  0  0  0  0  0999 V2000
   39.5246  -24.6429   33.2941 C   0  0  0  0  0  0  0  0  0  0  0  0
   38.7461  -25.7489   33.5675 C   0  0  0  0  0  0  0  0  0  0  0  0
   37.9334  -25.7842   34.6811 C   0  0  0  0  0  0  0  0  0  0  0  0
   37.8506  -24.7310   35.5767 C   0  0  0  0  0  0  0  0  0  0  0  0
   38.6169  -23.6317   35.3154 C   0  0  0  0  0  0  0  0  0  0  0  0
   39.4431  -23.5943   34.1844 C   0  0  0  0  0  0  0  0  0  0  0  0
   42.0598  -24.5011   29.8747 C   0  0  0  0  0  0  0  0  0  0  0  0
   40.8639  -25.1910   29.8096 C   0  0  0  0  0  0  0  0  0  0  0  0
   40.0686  -25.2195   30.9244 C   0  0  0  0  0  0  0  0  0  0  0  0
   40.3860  -24.6004   32.1155 C   0  0  0  0  0  0  0  0  0  0  0  0
   41.5934  -23.9169   32.1465 C   0  0  0  0  0  0  0  0  0  0  0  0
   42.4209  -23.8664   31.0424 C   0  0  0  0  0  0  0  0  0  0  0  0
   42.2526  -23.5942   27.2203 N   0  0  0  0  0  0  0  0  0  0  0  0
   43.0902  -24.4533   28.4619 S   0  0  0  0  0  0  0  0  0  0  0  0
   43.4035  -25.8615   27.9893 O   0  0  0  0  0  0  0  0  0  0  0  0
   44.3824  -23.7516   28.8009 O   0  0  0  0  0  0  0  0  0  0  0  0
   41.2309  -23.7421   27.3751 H   0  0  0  0  0  0  0  0  0  0  0  0
   42.4186  -22.5590   27.3882 H   0  0  0  0  0  0  0  0  0  0  0  0
   36.9465  -24.8434   36.7550 C   0  0  0  0  0  0  0  0  0  0  0  0
   35.9804  -25.6585   36.6875 O   0  0  0  0  0  0  0  0  0  0  0  0
   37.1366  -24.0861   37.9079 N   0  0  0  0  0  0  0  0  0  0  0  0
   37.9639  -23.4195   37.9006 H   0  0  0  0  0  0  0  0  0  0  0  0
   36.3441  -24.1374   39.0555 C   0  0  0  0  0  0  0  0  0  0  0  0
   36.4837  -25.0265   40.0944 C   0  0  0  0  0  0  0  0  0  0  0  0
   35.6168  -24.9943   41.1628 C   0  0  0  0  0  0  0  0  0  0  0  0
   34.5891  -24.0950   41.2511 C   0  0  0  0  0  0  0  0  0  0  0  0
   34.4378  -23.1904   40.2079 C   0  0  0  0  0  0  0  0  0  0  0  0
   35.2859  -23.2147   39.1520 C   0  0  0  0  0  0  0  0  0  0  0  0
   33.3618  -22.2131   40.2527 C   0  0  0  0  0  0  0  0  0  0  0  0
   33.6137  -20.8429   40.4109 O   0  0  0  0  0  0  0  0  0  0  0  0
   32.1751  -22.5963   40.1479 O   0  0  0  0  0  0  0  0  0  0  0  0
   34.4649  -20.4222   40.0826 H   0  0  0  0  0  0  0  0  0  0  0  0
 13 14  1  0  0  0
 14 15  2  0  0  0
 14 16  2  0  0  0
 14  7  1  0  0  0
  7  8  2  0  0  0
  8  9  1  0  0  0
  9 10  2  0  0  0
 10 11  1  0  0  0
 11 12  2  0  0  0
 10  1  1  0  0  0
  1  2  2  0  0  0
  2  3  1  0  0  0
  3  4  2  0  0  0
  4  5  1  0  0  0
  5  6  2  0  0  0
  4 19  1  0  0  0
 19 20  2  0  0  0
 19 21  1  0  0  0
 21 23  1  0  0  0
 23 24  2  0  0  0
 24 25  1  0  0  0
 25 26  2  0  0  0
 26 27  1  0  0  0
 27 28  2  0  0  0
 27 29  1  0  0  0
 29 30  1  0  0  0
 29 31  2  0  0  0
 12  7  1  0  0  0
  6  1  1  0  0  0
 28 23  1  0  0  0
 13 17  1  0  0  0
 13 18  1  0  0  0
 21 22  1  0  0  0
 30 32  1  0  0  0
M  END
> <minimizedAffinity>
-2.93700

> <CNNscore>
0.6446865797

> <CNNaffinity>
4.7810254097

> <CNN_VS>
3.0822629929

> <CNNaffinity_variance>
0.6193829775

$$$$
[H]OC(=O)c1c([H])c([H])c([H])c(N([H])C(=O)c2c([H])c([H])c(-c3c([H])c([H])c(S(=O)(=O)N([H])[H])c([H])c3[H])c([H])c2[H])c1[H]


 32 34  0  0  0  0  0  0  0  0999 V2000
   39.9512  -23.5717   34.6597 C   0  0  0  0  0  0  0  0  0  0  0  0
   39.0040  -24.4436   35.1562 C   0  0  0  0  0  0  0  0  0  0  0  0
   38.3800  -24.1990   36.3615 C   0  0  0  0  0  0  0  0  0  0  0  0
   38.6610  -23.0838   37.1330 C   0  0  0  0  0  0  0  0  0  0  0  0
   39.5968  -22.2145   36.6508 C   0  0  0  0  0  0  0  0  0  0  0  0
   40.2316  -22.4616   35.4265 C   0  0  0  0  0  0  0  0  0  0  0  0
   41.8625  -24.3395   30.9319 C   0  0  0  0  0  0  0  0  0  0  0  0
   42.2661  -23.2611   31.6965 C   0  0  0  0  0  0  0  0  0  0  0  0
   41.6337  -23.0385   32.8909 C   0  0  0  0  0  0  0  0  0  0  0  0
   40.6138  -23.8259   33.3833 C   0  0  0  0  0  0  0  0  0  0  0  0
   40.2335  -24.8998   32.5908 C   0  0  0  0  0  0  0  0  0  0  0  0
   40.8479  -25.1554   31.3811 C   0  0  0  0  0  0  0  0  0  0  0  0
   43.6425  -23.2714   29.0355 N   0  0  0  0  0  0  0  0  0  0  0  0
   42.6571  -24.6406   29.4028 S   0  0  0  0  0  0  0  0  0  0  0  0
   41.6288  -24.8419   28.3044 O   0  0  0  0  0  0  0  0  0  0  0  0
   43.5083  -25.8820   29.5101 O   0  0  0  0  0  0  0  0  0  0  0  0
   43.1918  -22.4378   29.4733 H   0  0  0  0  0  0  0  0  0  0  0  0
   44.5626  -23.3998   29.5499 H   0  0  0  0  0  0  0  0  0  0  0  0
   37.9420  -22.8876   38.4226 C   0  0  0  0  0  0  0  0  0  0  0  0
   37.0448  -23.7237   38.7364 O   0  0  0  0  0  0  0  0  0  0  0  0
   38.2292  -21.8250   39.2753 N   0  0  0  0  0  0  0  0  0  0  0  0
   38.9910  -21.1576   38.9537 H   0  0  0  0  0  0  0  0  0  0  0  0
   37.6113  -21.5749   40.5013 C   0  0  0  0  0  0  0  0  0  0  0  0
   38.1726  -21.7622   41.7419 C   0  0  0  0  0  0  0  0  0  0  0  0
   37.4473  -21.5056   42.8830 C   0  0  0  0  0  0  0  0  0  0  0  0
   36.1544  -21.0584   42.8494 C   0  0  0  0  0  0  0  0  0  0  0  0
   35.5758  -20.8643   41.6017 C   0  0  0  0  0  0  0  0  0  0  0  0
   36.2817  -21.1145   40.4730 C   0  0  0  0  0  0  0  0  0  0  0  0
   34.2041  -20.3896   41.5101 C   0  0  0  0  0  0  0  0  0  0  0  0
   33.2208  -21.1014   40.8085 O   0  0  0  0  0  0  0  0  0  0  0  0
   33.8834  -19.3174   42.0699 O   0  0  0  0  0  0  0  0  0  0  0  0
   33.2600  -22.1010   40.7145 H   0  0  0  0  0  0  0  0  0  0  0  0
 13 14  1  0  0  0
 14 15  2  0  0  0
 14 16  2  0  0  0
 14  7  1  0  0  0
  7  8  2  0  0  0
  8  9  1  0  0  0
  9 10  2  0  0  0
 10 11  1  0  0  0
 11 12  2  0  0  0
 10  1  1  0  0  0
  1  2  2  0  0  0
  2  3  1  0  0  0
  3  4  2  0  0  0
  4  5  1  0  0  0
  5  6  2  0  0  0
  4 19  1  0  0  0
 19 20  2  0  0  0
 19 21  1  0  0  0
 21 23  1  0  0  0
 23 24  2  0  0  0
 24 25  1  0  0  0
 25 26  2  0  0  0
 26 27  1  0  0  0
 27 28  2  0  0  0
 27 29  1  0  0  0
 29 30  1  0  0  0
 29 31  2  0  0  0
 12  7  1  0  0  0
  6  1  1  0  0  0
 28 23  1  0  0  0
 13 17  1  0  0  0
 13 18  1  0  0  0
 21 22  1  0  0  0
 30 32  1  0  0  0
M  END
> <minimizedAffinity>
-3.50580

> <CNNscore>
0.6376497149

> <CNNaffinity>
4.5560674667

> <CNN_VS>
2.9051752090

> <CNNaffinity_variance>
0.2231887877

$$$$
[H]OC(=O)c1c([H])c([H])c([H])c(N([H])C(=O)c2c([H])c([H])c(-c3c([H])c([H])c(S(=O)(=O)N([H])[H])c([H])c3[H])c([H])c2[H])c1[H]


 32 34  0  0  0  0  0  0  0  0999 V2000
   36.3761  -20.9801   38.3977 C   0  0  0  0  0  0  0  0  0  0  0  0
   36.0139  -22.3107   38.4458 C   0  0  0  0  0  0  0  0  0  0  0  0
   34.9856  -22.7351   39.2610 C   0  0  0  0  0  0  0  0  0  0  0  0
   34.2670  -21.8674   40.0664 C   0  0  0  0  0  0  0  0  0  0  0  0
   34.6172  -20.5484   40.0264 C   0  0  0  0  0  0  0  0  0  0  0  0
   35.6617  -20.1158   39.1987 C   0  0  0  0  0  0  0  0  0  0  0  0
   39.5312  -19.6255   35.8779 C   0  0  0  0  0  0  0  0  0  0  0  0
   39.6222  -20.8673   36.4779 C   0  0  0  0  0  0  0  0  0  0  0  0
   38.5925  -21.2770   37.2829 C   0  0  0  0  0  0  0  0  0  0  0  0
   37.4636  -20.5258   37.5352 C   0  0  0  0  0  0  0  0  0  0  0  0
   37.4044  -19.2846   36.9173 C   0  0  0  0  0  0  0  0  0  0  0  0
   38.4231  -18.8381   36.0992 C   0  0  0  0  0  0  0  0  0  0  0  0
   40.1457  -18.2003   33.5333 N   0  0  0  0  0  0  0  0  0  0  0  0
   40.8360  -19.0835   34.8465 S   0  0  0  0  0  0  0  0  0  0  0  0
   41.6148  -20.2719   34.3122 O   0  0  0  0  0  0  0  0  0  0  0  0
   41.7711  -18.1997   35.6350 O   0  0  0  0  0  0  0  0  0  0  0  0
   39.1933  -18.5918   33.3622 H   0  0  0  0  0  0  0  0  0  0  0  0
   39.9878  -17.2064   33.8721 H   0  0  0  0  0  0  0  0  0  0  0  0
   33.1674  -22.4019   40.9171 C   0  0  0  0  0  0  0  0  0  0  0  0
   32.4941  -21.5795   41.6046 O   0  0  0  0  0  0  0  0  0  0  0  0
   32.8687  -23.7608   40.9722 N   0  0  0  0  0  0  0  0  0  0  0  0
   33.4717  -24.3986   40.3733 H   0  0  0  0  0  0  0  0  0  0  0  0
   31.8530  -24.3409   41.7332 C   0  0  0  0  0  0  0  0  0  0  0  0
   31.9552  -24.7446   43.0432 C   0  0  0  0  0  0  0  0  0  0  0  0
   30.8856  -25.3331   43.6785 C   0  0  0  0  0  0  0  0  0  0  0  0
   29.6849  -25.5449   43.0571 C   0  0  0  0  0  0  0  0  0  0  0  0
   29.5684  -25.1406   41.7333 C   0  0  0  0  0  0  0  0  0  0  0  0
   30.6158  -24.5609   41.0996 C   0  0  0  0  0  0  0  0  0  0  0  0
   28.3133  -25.3422   41.0267 C   0  0  0  0  0  0  0  0  0  0  0  0
   28.2478  -26.0675   39.8286 O   0  0  0  0  0  0  0  0  0  0  0  0
   27.2577  -24.8589   41.4935 O   0  0  0  0  0  0  0  0  0  0  0  0
   28.8956  -26.8079   39.6245 H   0  0  0  0  0  0  0  0  0  0  0  0
 13 14  1  0  0  0
 14 15  2  0  0  0
 14 16  2  0  0  0
 14  7  1  0  0  0
  7  8  2  0  0  0
  8  9  1  0  0  0
  9 10  2  0  0  0
 10 11  1  0  0  0
 11 12  2  0  0  0
 10  1  1  0  0  0
  1  2  2  0  0  0
  2  3  1  0  0  0
  3  4  2  0  0  0
  4  5  1  0  0  0
  5  6  2  0  0  0
  4 19  1  0  0  0
 19 20  2  0  0  0
 19 21  1  0  0  0
 21 23  1  0  0  0
 23 24  2  0  0  0
 24 25  1  0  0  0
 25 26  2  0  0  0
 26 27  1  0  0  0
 27 28  2  0  0  0
 27 29  1  0  0  0
 29 30  1  0  0  0
 29 31  2  0  0  0
 12  7  1  0  0  0
  6  1  1  0  0  0
 28 23  1  0  0  0
 13 17  1  0  0  0
 13 18  1  0  0  0
 21 22  1  0  0  0
 30 32  1  0  0  0
M  END
> <minimizedAffinity>
-3.23530

> <CNNscore>
0.6080632806

> <CNNaffinity>
4.4785327911

> <CNN_VS>
2.7232313156

> <CNNaffinity_variance>
0.1067107767

$$$$
[H]OC(=O)c1c([H])c([H])c([H])c(N([H])C(=O)c2c([H])c([H])c(-c3c([H])c([H])c(S(=O)(=O)N([H])[H])c([H])c3[H])c([H])c2[H])c1[H]


 32 34  0  0  0  0  0  0  0  0999 V2000
   39.5478  -23.1617   34.7409 C   0  0  0  0  0  0  0  0  0  0  0  0
   39.4121  -21.8465   35.1355 C   0  0  0  0  0  0  0  0  0  0  0  0
   38.4566  -21.4802   36.0601 C   0  0  0  0  0  0  0  0  0  0  0  0
   37.5909  -22.3934   36.6383 C   0  0  0  0  0  0  0  0  0  0  0  0
   37.7167  -23.6977   36.2549 C   0  0  0  0  0  0  0  0  0  0  0  0
   38.6869  -24.0713   35.3156 C   0  0  0  0  0  0  0  0  0  0  0  0
   42.5152  -24.2802   31.8979 C   0  0  0  0  0  0  0  0  0  0  0  0
   41.3971  -25.0753   32.0662 C   0  0  0  0  0  0  0  0  0  0  0  0
   40.4592  -24.6909   32.9874 C   0  0  0  0  0  0  0  0  0  0  0  0
   40.5588  -23.5545   33.7629 C   0  0  0  0  0  0  0  0  0  0  0  0
   41.6933  -22.7793   33.5686 C   0  0  0  0  0  0  0  0  0  0  0  0
   42.6599  -23.1351   32.6492 C   0  0  0  0  0  0  0  0  0  0  0  0
   44.4619  -23.3192   30.1112 N   0  0  0  0  0  0  0  0  0  0  0  0
   43.7251  -24.7542   30.7267 S   0  0  0  0  0  0  0  0  0  0  0  0
   43.0841  -25.5297   29.5901 O   0  0  0  0  0  0  0  0  0  0  0  0
   44.7600  -25.6273   31.3928 O   0  0  0  0  0  0  0  0  0  0  0  0
   43.7482  -22.5589   30.1578 H   0  0  0  0  0  0  0  0  0  0  0  0
   45.2222  -23.0377   30.7970 H   0  0  0  0  0  0  0  0  0  0  0  0
   36.5875  -21.9206   37.6324 C   0  0  0  0  0  0  0  0  0  0  0  0
   35.7839  -21.0088   37.2786 O   0  0  0  0  0  0  0  0  0  0  0  0
   36.5148  -22.4491   38.9186 N   0  0  0  0  0  0  0  0  0  0  0  0
   37.2182  -23.2099   39.1540 H   0  0  0  0  0  0  0  0  0  0  0  0
   35.6023  -22.0702   39.9041 C   0  0  0  0  0  0  0  0  0  0  0  0
   35.7918  -21.0864   40.8451 C   0  0  0  0  0  0  0  0  0  0  0  0
   34.8233  -20.8249   41.7873 C   0  0  0  0  0  0  0  0  0  0  0  0
   33.6417  -21.5131   41.8401 C   0  0  0  0  0  0  0  0  0  0  0  0
   33.4376  -22.5094   40.8940 C   0  0  0  0  0  0  0  0  0  0  0  0
   34.3852  -22.7743   39.9631 C   0  0  0  0  0  0  0  0  0  0  0  0
   32.1984  -23.2706   40.9058 C   0  0  0  0  0  0  0  0  0  0  0  0
   32.1920  -24.6720   40.9486 O   0  0  0  0  0  0  0  0  0  0  0  0
   31.1028  -22.6666   40.8774 O   0  0  0  0  0  0  0  0  0  0  0  0
   32.9332  -25.1893   41.3874 H   0  0  0  0  0  0  0  0  0  0  0  0
 13 14  1  0  0  0
 14 15  2  0  0  0
 14 16  2  0  0  0
 14  7  1  0  0  0
  7  8  2  0  0  0
  8  9  1  0  0  0
  9 10  2  0  0  0
 10 11  1  0  0  0
 11 12  2  0  0  0
 10  1  1  0  0  0
  1  2  2  0  0  0
  2  3  1  0  0  0
  3  4  2  0  0  0
  4  5  1  0  0  0
  5  6  2  0  0  0
  4 19  1  0  0  0
 19 20  2  0  0  0
 19 21  1  0  0  0
 21 23  1  0  0  0
 23 24  2  0  0  0
 24 25  1  0  0  0
 25 26  2  0  0  0
 26 27  1  0  0  0
 27 28  2  0  0  0
 27 29  1  0  0  0
 29 30  1  0  0  0
 29 31  2  0  0  0
 12  7  1  0  0  0
  6  1  1  0  0  0
 28 23  1  0  0  0
 13 17  1  0  0  0
 13 18  1  0  0  0
 21 22  1  0  0  0
 30 32  1  0  0  0
M  END
> <minimizedAffinity>
-2.82645

> <CNNscore>
0.5878144503

> <CNNaffinity>
4.5628576279

> <CNN_VS>
2.6821136475

> <CNNaffinity_variance>
0.3390816152

$$$$
[H]OC(=O)c1c([H])c([H])c([H])c(N([H])C(=O)c2c([H])c([H])c(-c3c([H])c([H])c(S(=O)(=O)N([H])[H])c([H])c3[H])c([H])c2[H])c1[H]


 32 34  0  0  0  0  0  0  0  0999 V2000
   37.1773  -20.4084   38.1793 C   0  0  0  0  0  0  0  0  0  0  0  0
   35.9344  -19.8155   38.0916 C   0  0  0  0  0  0  0  0  0  0  0  0
   34.9573  -20.0785   39.0286 C   0  0  0  0  0  0  0  0  0  0  0  0
   35.1603  -20.9382   40.0953 C   0  0  0  0  0  0  0  0  0  0  0  0
   36.3867  -21.5301   40.1915 C   0  0  0  0  0  0  0  0  0  0  0  0
   37.3804  -21.2639   39.2403 C   0  0  0  0  0  0  0  0  0  0  0  0
   40.1808  -19.5975   35.2705 C   0  0  0  0  0  0  0  0  0  0  0  0
   40.5487  -19.8579   36.5772 C   0  0  0  0  0  0  0  0  0  0  0  0
   39.5615  -20.1155   37.4911 C   0  0  0  0  0  0  0  0  0  0  0  0
   38.2155  -20.1321   37.1900 C   0  0  0  0  0  0  0  0  0  0  0  0
   37.8811  -19.8667   35.8695 C   0  0  0  0  0  0  0  0  0  0  0  0
   38.8488  -19.6028   34.9206 C   0  0  0  0  0  0  0  0  0  0  0  0
   40.9478  -17.8733   33.1862 N   0  0  0  0  0  0  0  0  0  0  0  0
   41.4266  -19.2655   34.0882 S   0  0  0  0  0  0  0  0  0  0  0  0
   41.5955  -20.4493   33.1530 O   0  0  0  0  0  0  0  0  0  0  0  0
   42.7362  -19.0062   34.7915 O   0  0  0  0  0  0  0  0  0  0  0  0
   39.9041  -17.8555   33.1729 H   0  0  0  0  0  0  0  0  0  0  0  0
   41.2395  -17.0202   33.7472 H   0  0  0  0  0  0  0  0  0  0  0  0
   34.0562  -21.1685   41.0681 C   0  0  0  0  0  0  0  0  0  0  0  0
   33.4791  -20.1565   41.5632 O   0  0  0  0  0  0  0  0  0  0  0  0
   33.6518  -22.4485   41.4383 N   0  0  0  0  0  0  0  0  0  0  0  0
   34.1771  -23.2553   40.9888 H   0  0  0  0  0  0  0  0  0  0  0  0
   32.6239  -22.7507   42.3325 C   0  0  0  0  0  0  0  0  0  0  0  0
   32.7510  -22.8817   43.6949 C   0  0  0  0  0  0  0  0  0  0  0  0
   31.6627  -23.2127   44.4696 C   0  0  0  0  0  0  0  0  0  0  0  0
   30.4187  -23.4249   43.9403 C   0  0  0  0  0  0  0  0  0  0  0  0
   30.2768  -23.2947   42.5647 C   0  0  0  0  0  0  0  0  0  0  0  0
   31.3422  -22.9697   41.7941 C   0  0  0  0  0  0  0  0  0  0  0  0
   28.9755  -23.5092   41.9516 C   0  0  0  0  0  0  0  0  0  0  0  0
   28.7888  -23.4243   40.5647 O   0  0  0  0  0  0  0  0  0  0  0  0
   27.9896  -23.7775   42.6740 O   0  0  0  0  0  0  0  0  0  0  0  0
   29.5279  -23.6404   39.9192 H   0  0  0  0  0  0  0  0  0  0  0  0
 13 14  1  0  0  0
 14 15  2  0  0  0
 14 16  2  0  0  0
 14  7  1  0  0  0
  7  8  2  0  0  0
  8  9  1  0  0  0
  9 10  2  0  0  0
 10 11  1  0  0  0
 11 12  2  0  0  0
 10  1  1  0  0  0
  1  2  2  0  0  0
  2  3  1  0  0  0
  3  4  2  0  0  0
  4  5  1  0  0  0
  5  6  2  0  0  0
  4 19  1  0  0  0
 19 20  2  0  0  0
 19 21  1  0  0  0
 21 23  1  0  0  0
 23 24  2  0  0  0
 24 25  1  0  0  0
 25 26  2  0  0  0
 26 27  1  0  0  0
 27 28  2  0  0  0
 27 29  1  0  0  0
 29 30  1  0  0  0
 29 31  2  0  0  0
 12  7  1  0  0  0
  6  1  1  0  0  0
 28 23  1  0  0  0
 13 17  1  0  0  0
 13 18  1  0  0  0
 21 22  1  0  0  0
 30 32  1  0  0  0
M  END
> <minimizedAffinity>
-4.34419

> <CNNscore>
0.5874143243

> <CNNaffinity>
4.5366792679

> <CNN_VS>
2.6649103165

> <CNNaffinity_variance>
0.1385937035

$$$$
[H]OC(=O)c1c([H])c([H])c([H])c(N([H])C(=O)c2c([H])c([H])c(-c3c([H])c([H])c(S(=O)(=O)N([H])[H])c([H])c3[H])c([H])c2[H])c1[H]


 32 34  0  0  0  0  0  0  0  0999 V2000
   38.1040  -21.1553   38.5676 C   0  0  0  0  0  0  0  0  0  0  0  0
   36.9284  -20.5558   38.1644 C   0  0  0  0  0  0  0  0  0  0  0  0
   35.8544  -20.4556   39.0236 C   0  0  0  0  0  0  0  0  0  0  0  0
   35.8896  -20.9418   40.3199 C   0  0  0  0  0  0  0  0  0  0  0  0
   37.0482  -21.5369   40.7290 C   0  0  0  0  0  0  0  0  0  0  0  0
   38.1402  -21.6395   39.8572 C   0  0  0  0  0  0  0  0  0  0  0  0
   41.4136  -21.4483   35.9030 C   0  0  0  0  0  0  0  0  0  0  0  0
   41.4701  -22.0760   37.1331 C   0  0  0  0  0  0  0  0  0  0  0  0
   40.3910  -21.9649   37.9694 C   0  0  0  0  0  0  0  0  0  0  0  0
   39.2444  -21.2627   37.6616 C   0  0  0  0  0  0  0  0  0  0  0  0
   39.2209  -20.6449   36.4191 C   0  0  0  0  0  0  0  0  0  0  0  0
   40.2897  -20.7349   35.5497 C   0  0  0  0  0  0  0  0  0  0  0  0
   43.5747  -20.0444   34.7784 N   0  0  0  0  0  0  0  0  0  0  0  0
   42.7817  -21.5775   34.8205 S   0  0  0  0  0  0  0  0  0  0  0  0
   42.3169  -21.9530   33.4251 O   0  0  0  0  0  0  0  0  0  0  0  0
   43.7274  -22.6401   35.3242 O   0  0  0  0  0  0  0  0  0  0  0  0
   42.8497  -19.3146   34.9561 H   0  0  0  0  0  0  0  0  0  0  0  0
   44.2278  -20.0058   35.6148 H   0  0  0  0  0  0  0  0  0  0  0  0
   34.6891  -20.7926   41.1889 C   0  0  0  0  0  0  0  0  0  0  0  0
   34.0514  -19.7003   41.1395 O   0  0  0  0  0  0  0  0  0  0  0  0
   34.2603  -21.8089   42.0387 N   0  0  0  0  0  0  0  0  0  0  0  0
   34.8396  -22.6996   42.0351 H   0  0  0  0  0  0  0  0  0  0  0  0
   33.1450  -21.7539   42.8756 C   0  0  0  0  0  0  0  0  0  0  0  0
   32.8227  -20.7228   43.7255 C   0  0  0  0  0  0  0  0  0  0  0  0
   31.7056  -20.7999   44.5255 C   0  0  0  0  0  0  0  0  0  0  0  0
   30.8691  -21.8829   44.5207 C   0  0  0  0  0  0  0  0  0  0  0  0
   31.1831  -22.9313   43.6655 C   0  0  0  0  0  0  0  0  0  0  0  0
   32.2808  -22.8647   42.8747 C   0  0  0  0  0  0  0  0  0  0  0  0
   30.3265  -24.1058   43.6214 C   0  0  0  0  0  0  0  0  0  0  0  0
   28.9297  -24.0049   43.6879 O   0  0  0  0  0  0  0  0  0  0  0  0
   30.8415  -25.2419   43.5213 O   0  0  0  0  0  0  0  0  0  0  0  0
   28.4430  -23.1948   43.3471 H   0  0  0  0  0  0  0  0  0  0  0  0
 13 14  1  0  0  0
 14 15  2  0  0  0
 14 16  2  0  0  0
 14  7  1  0  0  0
  7  8  2  0  0  0
  8  9  1  0  0  0
  9 10  2  0  0  0
 10 11  1  0  0  0
 11 12  2  0  0  0
 10  1  1  0  0  0
  1  2  2  0  0  0
  2  3  1  0  0  0
  3  4  2  0  0  0
  4  5  1  0  0  0
  5  6  2  0  0  0
  4 19  1  0  0  0
 19 20  2  0  0  0
 19 21  1  0  0  0
 21 23  1  0  0  0
 23 24  2  0  0  0
 24 25  1  0  0  0
 25 26  2  0  0  0
 26 27  1  0  0  0
 27 28  2  0  0  0
 27 29  1  0  0  0
 29 30  1  0  0  0
 29 31  2  0  0  0
 12  7  1  0  0  0
  6  1  1  0  0  0
 28 23  1  0  0  0
 13 17  1  0  0  0
 13 18  1  0  0  0
 21 22  1  0  0  0
 30 32  1  0  0  0
M  END
> <minimizedAffinity>
-3.10332

> <CNNscore>
0.5805339217

> <CNNaffinity>
4.3269886971

> <CNN_VS>
2.5119636059

> <CNNaffinity_variance>
0.0586472973

$$$$
[H]OC(=O)c1c([H])c([H])c([H])c(N([H])C(=O)c2c([H])c([H])c(-c3c([H])c([H])c(S(=O)(=O)N([H])[H])c([H])c3[H])c([H])c2[H])c1[H]


 32 34  0  0  0  0  0  0  0  0999 V2000
   37.9756  -22.1361   37.3074 C   0  0  0  0  0  0  0  0  0  0  0  0
   36.9589  -21.2031   37.3107 C   0  0  0  0  0  0  0  0  0  0  0  0
   35.6398  -21.5939   37.2159 C   0  0  0  0  0  0  0  0  0  0  0  0
   35.2619  -22.9223   37.1135 C   0  0  0  0  0  0  0  0  0  0  0  0
   36.2601  -23.8537   37.1094 C   0  0  0  0  0  0  0  0  0  0  0  0
   37.6008  -23.4582   37.2056 C   0  0  0  0  0  0  0  0  0  0  0  0
   42.0435  -20.9117   37.6107 C   0  0  0  0  0  0  0  0  0  0  0  0
   41.7474  -22.2314   37.3258 C   0  0  0  0  0  0  0  0  0  0  0  0
   40.4304  -22.5966   37.2341 C   0  0  0  0  0  0  0  0  0  0  0  0
   39.3739  -21.7272   37.4086 C   0  0  0  0  0  0  0  0  0  0  0  0
   39.7065  -20.4102   37.6932 C   0  0  0  0  0  0  0  0  0  0  0  0
   41.0228  -20.0054   37.7934 C   0  0  0  0  0  0  0  0  0  0  0  0
   44.2983  -20.8940   39.2903 N   0  0  0  0  0  0  0  0  0  0  0  0
   43.7194  -20.4251   37.7328 S   0  0  0  0  0  0  0  0  0  0  0  0
   43.8454  -18.9211   37.5701 O   0  0  0  0  0  0  0  0  0  0  0  0
   44.5238  -21.1037   36.6513 O   0  0  0  0  0  0  0  0  0  0  0  0
   43.4834  -20.8782   39.9424 H   0  0  0  0  0  0  0  0  0  0  0  0
   44.5891  -21.9131   39.2234 H   0  0  0  0  0  0  0  0  0  0  0  0
   33.8155  -23.2651   37.0184 C   0  0  0  0  0  0  0  0  0  0  0  0
   33.2647  -23.8034   38.0228 O   0  0  0  0  0  0  0  0  0  0  0  0
   33.0692  -23.0113   35.8705 N   0  0  0  0  0  0  0  0  0  0  0  0
   33.5903  -22.5597   35.0621 H   0  0  0  0  0  0  0  0  0  0  0  0
   31.7125  -23.2918   35.7029 C   0  0  0  0  0  0  0  0  0  0  0  0
   31.1849  -24.2919   34.9214 C   0  0  0  0  0  0  0  0  0  0  0  0
   29.8220  -24.4496   34.8144 C   0  0  0  0  0  0  0  0  0  0  0  0
   28.9329  -23.6387   35.4660 C   0  0  0  0  0  0  0  0  0  0  0  0
   29.4534  -22.6246   36.2599 C   0  0  0  0  0  0  0  0  0  0  0  0
   30.7934  -22.4614   36.3709 C   0  0  0  0  0  0  0  0  0  0  0  0
   28.5517  -21.7350   36.9744 C   0  0  0  0  0  0  0  0  0  0  0  0
   28.4332  -20.3784   36.6405 O   0  0  0  0  0  0  0  0  0  0  0  0
   27.8585  -22.1838   37.9146 O   0  0  0  0  0  0  0  0  0  0  0  0
   28.5908  -20.0505   35.7040 H   0  0  0  0  0  0  0  0  0  0  0  0
 13 14  1  0  0  0
 14 15  2  0  0  0
 14 16  2  0  0  0
 14  7  1  0  0  0
  7  8  2  0  0  0
  8  9  1  0  0  0
  9 10  2  0  0  0
 10 11  1  0  0  0
 11 12  2  0  0  0
 10  1  1  0  0  0
  1  2  2  0  0  0
  2  3  1  0  0  0
  3  4  2  0  0  0
  4  5  1  0  0  0
  5  6  2  0  0  0
  4 19  1  0  0  0
 19 20  2  0  0  0
 19 21  1  0  0  0
 21 23  1  0  0  0
 23 24  2  0  0  0
 24 25  1  0  0  0
 25 26  2  0  0  0
 26 27  1  0  0  0
 27 28  2  0  0  0
 27 29  1  0  0  0
 29 30  1  0  0  0
 29 31  2  0  0  0
 12  7  1  0  0  0
  6  1  1  0  0  0
 28 23  1  0  0  0
 13 17  1  0  0  0
 13 18  1  0  0  0
 21 22  1  0  0  0
 30 32  1  0  0  0
M  END
> <minimizedAffinity>
-3.81128

> <CNNscore>
0.5668009520

> <CNNaffinity>
4.6539058685

> <CNN_VS>
2.6378383636

> <CNNaffinity_variance>
0.2116484940

$$$$
[H]OC(=O)c1c([H])c([H])c([H])c(N([H])C(=O)c2c([H])c([H])c(-c3c([H])c([H])c(S(=O)(=O)N([H])[H])c([H])c3[H])c([H])c2[H])c1[H]


 32 34  0  0  0  0  0  0  0  0999 V2000
   37.4321  -22.7875   40.4784 C   0  0  0  0  0  0  0  0  0  0  0  0
   37.3728  -22.7029   39.1024 C   0  0  0  0  0  0  0  0  0  0  0  0
   36.2058  -22.3361   38.4657 C   0  0  0  0  0  0  0  0  0  0  0  0
   35.0433  -22.0357   39.1560 C   0  0  0  0  0  0  0  0  0  0  0  0
   35.0911  -22.1162   40.5180 C   0  0  0  0  0  0  0  0  0  0  0  0
   36.2760  -22.4888   41.1663 C   0  0  0  0  0  0  0  0  0  0  0  0
   41.0199  -23.9487   42.4581 C   0  0  0  0  0  0  0  0  0  0  0  0
   40.8378  -22.6276   42.0945 C   0  0  0  0  0  0  0  0  0  0  0  0
   39.6742  -22.2829   41.4594 C   0  0  0  0  0  0  0  0  0  0  0  0
   38.6660  -23.1744   41.1572 C   0  0  0  0  0  0  0  0  0  0  0  0
   38.8811  -24.4921   41.5360 C   0  0  0  0  0  0  0  0  0  0  0  0
   40.0415  -24.8766   42.1779 C   0  0  0  0  0  0  0  0  0  0  0  0
   43.1356  -23.0090   44.0537 N   0  0  0  0  0  0  0  0  0  0  0  0
   42.4995  -24.4094   43.2696 S   0  0  0  0  0  0  0  0  0  0  0  0
   43.5087  -24.9386   42.2666 O   0  0  0  0  0  0  0  0  0  0  0  0
   42.2061  -25.4872   44.2842 O   0  0  0  0  0  0  0  0  0  0  0  0
   42.8353  -22.1781   43.4976 H   0  0  0  0  0  0  0  0  0  0  0  0
   42.6395  -22.9199   44.9883 H   0  0  0  0  0  0  0  0  0  0  0  0
   33.8234  -21.6441   38.3966 C   0  0  0  0  0  0  0  0  0  0  0  0
   33.6496  -20.4162   38.1428 O   0  0  0  0  0  0  0  0  0  0  0  0
   32.8869  -22.5809   37.9674 N   0  0  0  0  0  0  0  0  0  0  0  0
   33.0897  -23.5944   38.2137 H   0  0  0  0  0  0  0  0  0  0  0  0
   31.7262  -22.2998   37.2454 C   0  0  0  0  0  0  0  0  0  0  0  0
   30.6423  -23.1330   37.1022 C   0  0  0  0  0  0  0  0  0  0  0  0
   29.5640  -22.7515   36.3368 C   0  0  0  0  0  0  0  0  0  0  0  0
   29.5094  -21.5473   35.6890 C   0  0  0  0  0  0  0  0  0  0  0  0
   30.5982  -20.6958   35.8264 C   0  0  0  0  0  0  0  0  0  0  0  0
   31.6640  -21.0628   36.5773 C   0  0  0  0  0  0  0  0  0  0  0  0
   30.5905  -19.4038   35.1588 C   0  0  0  0  0  0  0  0  0  0  0  0
   31.3469  -18.3224   35.6324 O   0  0  0  0  0  0  0  0  0  0  0  0
   29.8925  -19.2434   34.1325 O   0  0  0  0  0  0  0  0  0  0  0  0
   32.2063  -18.4601   36.1344 H   0  0  0  0  0  0  0  0  0  0  0  0
 13 14  1  0  0  0
 14 15  2  0  0  0
 14 16  2  0  0  0
 14  7  1  0  0  0
  7  8  2  0  0  0
  8  9  1  0  0  0
  9 10  2  0  0  0
 10 11  1  0  0  0
 11 12  2  0  0  0
 10  1  1  0  0  0
  1  2  2  0  0  0
  2  3  1  0  0  0
  3  4  2  0  0  0
  4  5  1  0  0  0
  5  6  2  0  0  0
  4 19  1  0  0  0
 19 20  2  0  0  0
 19 21  1  0  0  0
 21 23  1  0  0  0
 23 24  2  0  0  0
 24 25  1  0  0  0
 25 26  2  0  0  0
 26 27  1  0  0  0
 27 28  2  0  0  0
 27 29  1  0  0  0
 29 30  1  0  0  0
 29 31  2  0  0  0
 12  7  1  0  0  0
  6  1  1  0  0  0
 28 23  1  0  0  0
 13 17  1  0  0  0
 13 18  1  0  0  0
 21 22  1  0  0  0
 30 32  1  0  0  0
M  END
> <minimizedAffinity>
-3.42829

> <CNNscore>
0.5607897639

> <CNNaffinity>
4.3165659904

> <CNN_VS>
2.4206860065

> <CNNaffinity_variance>
0.0578238592

$$$$
[H]OC(=O)c1c([H])c([H])c([H])c(N([H])C(=O)c2c([H])c([H])c(-c3c([H])c([H])c(S(=O)(=O)N([H])[H])c([H])c3[H])c([H])c2[H])c1[H]


 32 34  0  0  0  0  0  0  0  0999 V2000
   42.4146  -23.7806   33.3028 C   0  0  0  0  0  0  0  0  0  0  0  0
   41.6542  -24.6489   34.0591 C   0  0  0  0  0  0  0  0  0  0  0  0
   41.4897  -24.4494   35.4137 C   0  0  0  0  0  0  0  0  0  0  0  0
   42.0673  -23.3848   36.0854 C   0  0  0  0  0  0  0  0  0  0  0  0
   42.8217  -22.5195   35.3464 C   0  0  0  0  0  0  0  0  0  0  0  0
   42.9897  -22.7209   33.9701 C   0  0  0  0  0  0  0  0  0  0  0  0
   42.8945  -24.3890   29.1149 C   0  0  0  0  0  0  0  0  0  0  0  0
   43.9887  -24.0392   29.8836 C   0  0  0  0  0  0  0  0  0  0  0  0
   43.8048  -23.8503   31.2277 C   0  0  0  0  0  0  0  0  0  0  0  0
   42.5907  -23.9872   31.8678 C   0  0  0  0  0  0  0  0  0  0  0  0
   41.5134  -24.3390   31.0667 C   0  0  0  0  0  0  0  0  0  0  0  0
   41.6607  -24.5378   29.7084 C   0  0  0  0  0  0  0  0  0  0  0  0
   44.7807  -24.9510   27.1069 N   0  0  0  0  0  0  0  0  0  0  0  0
   43.1083  -24.6343   27.3961 S   0  0  0  0  0  0  0  0  0  0  0  0
   42.6807  -23.3960   26.6291 O   0  0  0  0  0  0  0  0  0  0  0  0
   42.2700  -25.8044   26.9434 O   0  0  0  0  0  0  0  0  0  0  0  0
   45.3236  -24.4543   27.8473 H   0  0  0  0  0  0  0  0  0  0  0  0
   44.9394  -25.9859   27.2840 H   0  0  0  0  0  0  0  0  0  0  0  0
   41.8401  -23.2352   37.5498 C   0  0  0  0  0  0  0  0  0  0  0  0
   40.7328  -23.6258   38.0227 O   0  0  0  0  0  0  0  0  0  0  0  0
   42.8006  -22.6856   38.3949 N   0  0  0  0  0  0  0  0  0  0  0  0
   43.7074  -22.3756   37.9361 H   0  0  0  0  0  0  0  0  0  0  0  0
   42.6716  -22.5188   39.7744 C   0  0  0  0  0  0  0  0  0  0  0  0
   42.8821  -23.4860   40.7282 C   0  0  0  0  0  0  0  0  0  0  0  0
   42.6932  -23.2047   42.0620 C   0  0  0  0  0  0  0  0  0  0  0  0
   42.2946  -21.9733   42.5063 C   0  0  0  0  0  0  0  0  0  0  0  0
   42.0794  -20.9868   41.5524 C   0  0  0  0  0  0  0  0  0  0  0  0
   42.2624  -21.2544   40.2372 C   0  0  0  0  0  0  0  0  0  0  0  0
   41.6553  -19.6603   41.9714 C   0  0  0  0  0  0  0  0  0  0  0  0
   42.5295  -18.5643   41.9525 O   0  0  0  0  0  0  0  0  0  0  0  0
   40.4795  -19.4827   42.3612 O   0  0  0  0  0  0  0  0  0  0  0  0
   43.2875  -18.5061   41.2956 H   0  0  0  0  0  0  0  0  0  0  0  0
 13 14  1  0  0  0
 14 15  2  0  0  0
 14 16  2  0  0  0
 14  7  1  0  0  0
  7  8  2  0  0  0
  8  9  1  0  0  0
  9 10  2  0  0  0
 10 11  1  0  0  0
 11 12  2  0  0  0
 10  1  1  0  0  0
  1  2  2  0  0  0
  2  3  1  0  0  0
  3  4  2  0  0  0
  4  5  1  0  0  0
  5  6  2  0  0  0
  4 19  1  0  0  0
 19 20  2  0  0  0
 19 21  1  0  0  0
 21 23  1  0  0  0
 23 24  2  0  0  0
 24 25  1  0  0  0
 25 26  2  0  0  0
 26 27  1  0  0  0
 27 28  2  0  0  0
 27 29  1  0  0  0
 29 30  1  0  0  0
 29 31  2  0  0  0
 12  7  1  0  0  0
  6  1  1  0  0  0
 28 23  1  0  0  0
 13 17  1  0  0  0
 13 18  1  0  0  0
 21 22  1  0  0  0
 30 32  1  0  0  0
M  END
> <minimizedAffinity>
-2.66015

> <CNNscore>
0.5589302778

> <CNNaffinity>
4.4587373734

> <CNN_VS>
2.4921233654

> <CNNaffinity_variance>
0.4491819441

$$$$
[H]OC(=O)c1c([H])c([H])c([H])c(N([H])C(=O)c2c([H])c([H])c([H])c(C(F)(F)F)c2[H])c1[H]


 24 25  0  0  0  0  0  0  0  0999 V2000
   33.4431  -17.5850   35.5780 C   0  0  0  0  0  0  0  0  0  0  0  0
   33.8462  -18.5451   36.3362 O   0  0  0  0  0  0  0  0  0  0  0  0
   32.3739  -17.8926   34.7396 N   0  0  0  0  0  0  0  0  0  0  0  0
   31.8265  -17.2596   34.1691 H   0  0  0  0  0  0  0  0  0  0  0  0
   34.4770  -14.0794   36.4092 C   0  0  0  0  0  0  0  0  0  0  0  0
   35.9076  -14.2397   36.4505 C   0  0  0  0  0  0  0  0  0  0  0  0
   36.4386  -15.4655   36.1250 C   0  0  0  0  0  0  0  0  0  0  0  0
   35.5964  -16.5441   35.7679 C   0  0  0  0  0  0  0  0  0  0  0  0
   34.2057  -16.3850   35.7298 C   0  0  0  0  0  0  0  0  0  0  0  0
   33.7935  -15.1317   36.0520 C   0  0  0  0  0  0  0  0  0  0  0  0
   32.7329  -12.5868   36.4475 F   0  0  0  0  0  0  0  0  0  0  0  0
   34.0021  -12.7461   36.8926 C   0  0  0  0  0  0  0  0  0  0  0  0
   34.8352  -11.7199   36.5938 F   0  0  0  0  0  0  0  0  0  0  0  0
   33.9088  -12.9597   38.2984 F   0  0  0  0  0  0  0  0  0  0  0  0
   31.9452  -19.2814   34.7968 C   0  0  0  0  0  0  0  0  0  0  0  0
   32.8273  -20.1404   34.0813 C   0  0  0  0  0  0  0  0  0  0  0  0
   32.4944  -21.5046   34.0746 C   0  0  0  0  0  0  0  0  0  0  0  0
   31.3226  -21.9411   34.7459 C   0  0  0  0  0  0  0  0  0  0  0  0
   30.5263  -21.0417   35.4029 C   0  0  0  0  0  0  0  0  0  0  0  0
   30.8662  -19.6559   35.4245 C   0  0  0  0  0  0  0  0  0  0  0  0
   29.3398  -21.5496   36.0182 C   0  0  0  0  0  0  0  0  0  0  0  0
   28.3115  -22.2560   35.8356 O   0  0  0  0  0  0  0  0  0  0  0  0
   29.3625  -21.0787   37.3983 O   0  0  0  0  0  0  0  0  0  0  0  0
   28.1139  -23.2768   35.9689 H   0  0  0  0  0  0  0  0  0  0  0  0
 11 12  1  0  0  0
 12 13  1  0  0  0
 12 14  1  0  0  0
 12  5  1  0  0  0
  5  6  2  0  0  0
  6  7  1  0  0  0
  7  8  2  0  0  0
  8  9  1  0  0  0
  9 10  2  0  0  0
  9  1  1  0  0  0
  1  2  2  0  0  0
  1  3  1  0  0  0
  3 15  1  0  0  0
 15 16  2  0  0  0
 16 17  1  0  0  0
 17 18  2  0  0  0
 18 19  1  0  0  0
 19 20  2  0  0  0
 19 21  1  0  0  0
 21 22  1  0  0  0
 21 23  2  0  0  0
 10  5  1  0  0  0
 20 15  1  0  0  0
  3  4  1  0  0  0
 22 24  1  0  0  0
M  END
> <minimizedAffinity>
-7.49366

> <CNNscore>
0.8012531400

> <CNNaffinity>
4.4408483505

> <CNN_VS>
3.5582437515

> <CNNaffinity_variance>
0.4647010863

$$$$
[H]OC(=O)c1c([H])c([H])c([H])c(N([H])C(=O)c2c([H])c([H])c([H])c(C(F)(F)F)c2[H])c1[H]


 24 25  0  0  0  0  0  0  0  0999 V2000
   33.0490  -18.1207   35.5227 C   0  0  0  0  0  0  0  0  0  0  0  0
   33.1854  -18.9329   36.5132 O   0  0  0  0  0  0  0  0  0  0  0  0
   32.0530  -18.4542   34.6076 N   0  0  0  0  0  0  0  0  0  0  0  0
   31.6964  -17.8946   33.8424 H   0  0  0  0  0  0  0  0  0  0  0  0
   34.6441  -14.7784   36.0999 C   0  0  0  0  0  0  0  0  0  0  0  0
   36.0345  -15.1393   35.9968 C   0  0  0  0  0  0  0  0  0  0  0  0
   36.3513  -16.4359   35.6663 C   0  0  0  0  0  0  0  0  0  0  0  0
   35.3337  -17.3922   35.4432 C   0  0  0  0  0  0  0  0  0  0  0  0
   33.9827  -17.0380   35.5454 C   0  0  0  0  0  0  0  0  0  0  0  0
   33.7862  -15.7313   35.8589 C   0  0  0  0  0  0  0  0  0  0  0  0
   35.2345  -12.5724   35.8621 F   0  0  0  0  0  0  0  0  0  0  0  0
   34.4147  -13.3795   36.5769 C   0  0  0  0  0  0  0  0  0  0  0  0
   34.5106  -13.2299   37.9204 F   0  0  0  0  0  0  0  0  0  0  0  0
   33.0935  -13.1227   36.1090 F   0  0  0  0  0  0  0  0  0  0  0  0
   31.3876  -19.7192   34.8775 C   0  0  0  0  0  0  0  0  0  0  0  0
   30.0432  -19.5319   35.3080 C   0  0  0  0  0  0  0  0  0  0  0  0
   29.3169  -20.6983   35.5981 C   0  0  0  0  0  0  0  0  0  0  0  0
   29.9461  -21.9637   35.4681 C   0  0  0  0  0  0  0  0  0  0  0  0
   31.2487  -22.0491   35.0547 C   0  0  0  0  0  0  0  0  0  0  0  0
   31.9881  -20.8684   34.7458 C   0  0  0  0  0  0  0  0  0  0  0  0
   31.8275  -23.3549   34.9901 C   0  0  0  0  0  0  0  0  0  0  0  0
   32.6903  -24.1208   35.4990 O   0  0  0  0  0  0  0  0  0  0  0  0
   31.1075  -24.0687   33.9418 O   0  0  0  0  0  0  0  0  0  0  0  0
   32.6543  -24.8149   36.2837 H   0  0  0  0  0  0  0  0  0  0  0  0
 11 12  1  0  0  0
 12 13  1  0  0  0
 12 14  1  0  0  0
 12  5  1  0  0  0
  5  6  2  0  0  0
  6  7  1  0  0  0
  7  8  2  0  0  0
  8  9  1  0  0  0
  9 10  2  0  0  0
  9  1  1  0  0  0
  1  2  2  0  0  0
  1  3  1  0  0  0
  3 15  1  0  0  0
 15 16  2  0  0  0
 16 17  1  0  0  0
 17 18  2  0  0  0
 18 19  1  0  0  0
 19 20  2  0  0  0
 19 21  1  0  0  0
 21 22  1  0  0  0
 21 23  2  0  0  0
 10  5  1  0  0  0
 20 15  1  0  0  0
  3  4  1  0  0  0
 22 24  1  0  0  0
M  END
> <minimizedAffinity>
-7.26763

> <CNNscore>
0.6130333543

> <CNNaffinity>
4.1723198891

> <CNN_VS>
2.5577712059

> <CNNaffinity_variance>
0.5391713381

$$$$
[H]OC(=O)c1c([H])c([H])c([H])c(N([H])C(=O)c2c([H])c([H])c([H])c(C(F)(F)F)c2[H])c1[H]


 24 25  0  0  0  0  0  0  0  0999 V2000
   34.0097  -16.6388   35.8310 C   0  0  0  0  0  0  0  0  0  0  0  0
   34.9246  -17.3290   35.2427 O   0  0  0  0  0  0  0  0  0  0  0  0
   32.8142  -17.3119   36.0727 N   0  0  0  0  0  0  0  0  0  0  0  0
   32.0267  -17.0037   36.6300 H   0  0  0  0  0  0  0  0  0  0  0  0
   34.0273  -13.0803   37.0079 C   0  0  0  0  0  0  0  0  0  0  0  0
   35.4438  -12.8202   37.0092 C   0  0  0  0  0  0  0  0  0  0  0  0
   36.2898  -13.8015   36.5486 C   0  0  0  0  0  0  0  0  0  0  0  0
   35.7785  -15.0392   36.0941 C   0  0  0  0  0  0  0  0  0  0  0  0
   34.4006  -15.2890   36.0953 C   0  0  0  0  0  0  0  0  0  0  0  0
   33.6602  -14.2468   36.5535 C   0  0  0  0  0  0  0  0  0  0  0  0
   31.9961  -12.0103   37.0376 F   0  0  0  0  0  0  0  0  0  0  0  0
   33.2112  -11.9955   37.6358 C   0  0  0  0  0  0  0  0  0  0  0  0
   33.8168  -10.7833   37.6477 F   0  0  0  0  0  0  0  0  0  0  0  0
   33.0142  -12.5015   38.9532 F   0  0  0  0  0  0  0  0  0  0  0  0
   32.7666  -18.6638   35.5381 C   0  0  0  0  0  0  0  0  0  0  0  0
   32.2526  -18.6929   34.2103 C   0  0  0  0  0  0  0  0  0  0  0  0
   32.1635  -19.9582   33.6076 C   0  0  0  0  0  0  0  0  0  0  0  0
   32.5616  -21.1089   34.3366 C   0  0  0  0  0  0  0  0  0  0  0  0
   33.0373  -20.9876   35.6148 C   0  0  0  0  0  0  0  0  0  0  0  0
   33.1426  -19.7035   36.2281 C   0  0  0  0  0  0  0  0  0  0  0  0
   33.3769  -22.1950   36.3010 C   0  0  0  0  0  0  0  0  0  0  0  0
   33.7641  -23.3857   36.1515 O   0  0  0  0  0  0  0  0  0  0  0  0
   33.2433  -21.9066   37.7243 O   0  0  0  0  0  0  0  0  0  0  0  0
   34.7135  -23.8287   36.1187 H   0  0  0  0  0  0  0  0  0  0  0  0
 11 12  1  0  0  0
 12 13  1  0  0  0
 12 14  1  0  0  0
 12  5  1  0  0  0
  5  6  2  0  0  0
  6  7  1  0  0  0
  7  8  2  0  0  0
  8  9  1  0  0  0
  9 10  2  0  0  0
  9  1  1  0  0  0
  1  2  2  0  0  0
  1  3  1  0  0  0
  3 15  1  0  0  0
 15 16  2  0  0  0
 16 17  1  0  0  0
 17 18  2  0  0  0
 18 19  1  0  0  0
 19 20  2  0  0  0
 19 21  1  0  0  0
 21 22  1  0  0  0
 21 23  2  0  0  0
 10  5  1  0  0  0
 20 15  1  0  0  0
  3  4  1  0  0  0
 22 24  1  0  0  0
M  END
> <minimizedAffinity>
-7.65438

> <CNNscore>
0.5997085571

> <CNNaffinity>
4.2535071373

> <CNN_VS>
2.5508646965

> <CNNaffinity_variance>
0.4449438155

$$$$
[H]OC(=O)c1c([H])c([H])c([H])c(N([H])C(=O)c2c([H])c([H])c([H])c(C(F)(F)F)c2[H])c1[H]


 24 25  0  0  0  0  0  0  0  0999 V2000
   33.7982  -17.1973   35.6822 C   0  0  0  0  0  0  0  0  0  0  0  0
   34.7084  -17.1951   36.5938 O   0  0  0  0  0  0  0  0  0  0  0  0
   33.4080  -15.9414   35.2227 N   0  0  0  0  0  0  0  0  0  0  0  0
   32.8144  -15.7235   34.4315 H   0  0  0  0  0  0  0  0  0  0  0  0
   31.7108  -20.2944   35.3675 C   0  0  0  0  0  0  0  0  0  0  0  0
   32.3192  -20.8940   34.2080 C   0  0  0  0  0  0  0  0  0  0  0  0
   33.4213  -20.2833   33.6575 C   0  0  0  0  0  0  0  0  0  0  0  0
   33.9368  -19.0895   34.2135 C   0  0  0  0  0  0  0  0  0  0  0  0
   33.3420  -18.5086   35.3404 C   0  0  0  0  0  0  0  0  0  0  0  0
   32.2739  -19.2038   35.8097 C   0  0  0  0  0  0  0  0  0  0  0  0
   30.3418  -22.1176   35.0966 F   0  0  0  0  0  0  0  0  0  0  0  0
   30.4544  -20.9732   35.8122 C   0  0  0  0  0  0  0  0  0  0  0  0
   29.3558  -20.1804   35.7806 F   0  0  0  0  0  0  0  0  0  0  0  0
   30.7866  -21.3641   37.1416 F   0  0  0  0  0  0  0  0  0  0  0  0
   34.0339  -14.8263   35.9159 C   0  0  0  0  0  0  0  0  0  0  0  0
   35.4489  -14.8270   35.7555 C   0  0  0  0  0  0  0  0  0  0  0  0
   36.1458  -13.7881   36.3936 C   0  0  0  0  0  0  0  0  0  0  0  0
   35.4277  -12.8307   37.1565 C   0  0  0  0  0  0  0  0  0  0  0  0
   34.0651  -12.9126   37.2635 C   0  0  0  0  0  0  0  0  0  0  0  0
   33.3499  -13.9582   36.6066 C   0  0  0  0  0  0  0  0  0  0  0  0
   33.4163  -11.9385   38.0846 C   0  0  0  0  0  0  0  0  0  0  0  0
   33.1651  -10.7097   38.2144 O   0  0  0  0  0  0  0  0  0  0  0  0
   32.7839  -12.6773   39.1714 O   0  0  0  0  0  0  0  0  0  0  0  0
   32.3737  -10.1046   37.8881 H   0  0  0  0  0  0  0  0  0  0  0  0
 11 12  1  0  0  0
 12 13  1  0  0  0
 12 14  1  0  0  0
 12  5  1  0  0  0
  5  6  2  0  0  0
  6  7  1  0  0  0
  7  8  2  0  0  0
  8  9  1  0  0  0
  9 10  2  0  0  0
  9  1  1  0  0  0
  1  2  2  0  0  0
  1  3  1  0  0  0
  3 15  1  0  0  0
 15 16  2  0  0  0
 16 17  1  0  0  0
 17 18  2  0  0  0
 18 19  1  0  0  0
 19 20  2  0  0  0
 19 21  1  0  0  0
 21 22  1  0  0  0
 21 23  2  0  0  0
 10  5  1  0  0  0
 20 15  1  0  0  0
  3  4  1  0  0  0
 22 24  1  0  0  0
M  END
> <minimizedAffinity>
-7.49645

> <CNNscore>
0.5543852448

> <CNNaffinity>
4.2730956078

> <CNN_VS>
2.3689410686

> <CNNaffinity_variance>
0.4020940363

$$$$
[H]OC(=O)c1c([H])c([H])c([H])c(N([H])C(=O)c2c([H])c([H])c([H])c(C(F)(F)F)c2[H])c1[H]


 24 25  0  0  0  0  0  0  0  0999 V2000
   33.8912  -17.1016   35.6361 C   0  0  0  0  0  0  0  0  0  0  0  0
   35.0318  -17.0995   36.2348 O   0  0  0  0  0  0  0  0  0  0  0  0
   33.3075  -15.8496   35.4554 N   0  0  0  0  0  0  0  0  0  0  0  0
   32.4915  -15.6159   34.9029 H   0  0  0  0  0  0  0  0  0  0  0  0
   31.8038  -20.2014   35.3486 C   0  0  0  0  0  0  0  0  0  0  0  0
   32.3926  -20.7963   34.1767 C   0  0  0  0  0  0  0  0  0  0  0  0
   33.4839  -20.1819   33.6088 C   0  0  0  0  0  0  0  0  0  0  0  0
   34.0071  -18.9889   34.1593 C   0  0  0  0  0  0  0  0  0  0  0  0
   33.4313  -18.4127   35.2983 C   0  0  0  0  0  0  0  0  0  0  0  0
   32.3728  -19.1112   35.7842 C   0  0  0  0  0  0  0  0  0  0  0  0
   29.5146  -20.0852   35.4800 F   0  0  0  0  0  0  0  0  0  0  0  0
   30.5566  -20.8837   35.8133 C   0  0  0  0  0  0  0  0  0  0  0  0
   30.5829  -21.2590   37.1152 F   0  0  0  0  0  0  0  0  0  0  0  0
   30.4941  -22.0078   34.9398 F   0  0  0  0  0  0  0  0  0  0  0  0
   34.0464  -14.7495   36.0550 C   0  0  0  0  0  0  0  0  0  0  0  0
   33.2148  -13.6186   36.2950 C   0  0  0  0  0  0  0  0  0  0  0  0
   33.8399  -12.5003   36.8701 C   0  0  0  0  0  0  0  0  0  0  0  0
   35.2290  -12.5471   37.1573 C   0  0  0  0  0  0  0  0  0  0  0  0
   35.9539  -13.6762   36.8846 C   0  0  0  0  0  0  0  0  0  0  0  0
   35.3219  -14.8206   36.3125 C   0  0  0  0  0  0  0  0  0  0  0  0
   37.3561  -13.6327   37.1606 C   0  0  0  0  0  0  0  0  0  0  0  0
   38.4534  -13.1148   36.8177 O   0  0  0  0  0  0  0  0  0  0  0  0
   37.5749  -14.5152   38.3009 O   0  0  0  0  0  0  0  0  0  0  0  0
   38.9617  -12.2509   37.1246 H   0  0  0  0  0  0  0  0  0  0  0  0
 11 12  1  0  0  0
 12 13  1  0  0  0
 12 14  1  0  0  0
 12  5  1  0  0  0
  5  6  2  0  0  0
  6  7  1  0  0  0
  7  8  2  0  0  0
  8  9  1  0  0  0
  9 10  2  0  0  0
  9  1  1  0  0  0
  1  2  2  0  0  0
  1  3  1  0  0  0
  3 15  1  0  0  0
 15 16  2  0  0  0
 16 17  1  0  0  0
 17 18  2  0  0  0
 18 19  1  0  0  0
 19 20  2  0  0  0
 19 21  1  0  0  0
 21 22  1  0  0  0
 21 23  2  0  0  0
 10  5  1  0  0  0
 20 15  1  0  0  0
  3  4  1  0  0  0
 22 24  1  0  0  0
M  END
> <minimizedAffinity>
-7.67824

> <CNNscore>
0.5395774841

> <CNNaffinity>
4.0992403030

> <CNN_VS>
2.2118577957

> <CNNaffinity_variance>
0.5630763769

$$$$
[H]OC(=O)c1c([H])c([H])c([H])c(N([H])C(=O)c2c([H])c([H])c([H])c(C(F)(F)F)c2[H])c1[H]


 24 25  0  0  0  0  0  0  0  0999 V2000
   33.2357  -12.4624   37.3191 C   0  0  0  0  0  0  0  0  0  0  0  0
   33.4027  -13.0677   38.4439 O   0  0  0  0  0  0  0  0  0  0  0  0
   34.0705  -12.8797   36.2848 N   0  0  0  0  0  0  0  0  0  0  0  0
   34.0185  -12.6339   35.3037 H   0  0  0  0  0  0  0  0  0  0  0  0
   30.0192  -10.6308   37.9087 C   0  0  0  0  0  0  0  0  0  0  0  0
   30.4926   -9.2709   37.8810 C   0  0  0  0  0  0  0  0  0  0  0  0
   31.8177   -9.0449   37.5918 C   0  0  0  0  0  0  0  0  0  0  0  0
   32.6944  -10.1251   37.3376 C   0  0  0  0  0  0  0  0  0  0  0  0
   32.2309  -11.4462   37.3665 C   0  0  0  0  0  0  0  0  0  0  0  0
   30.9057  -11.5507   37.6445 C   0  0  0  0  0  0  0  0  0  0  0  0
   27.9035  -11.2862   37.3040 F   0  0  0  0  0  0  0  0  0  0  0  0
   28.5957  -10.7684   38.3467 C   0  0  0  0  0  0  0  0  0  0  0  0
   28.0643   -9.6353   38.8666 F   0  0  0  0  0  0  0  0  0  0  0  0
   28.6869  -11.8050   39.3201 F   0  0  0  0  0  0  0  0  0  0  0  0
   35.0582  -13.8743   36.6734 C   0  0  0  0  0  0  0  0  0  0  0  0
   36.2474  -13.2744   37.1774 C   0  0  0  0  0  0  0  0  0  0  0  0
   37.2654  -14.1557   37.5762 C   0  0  0  0  0  0  0  0  0  0  0  0
   37.0695  -15.5551   37.4441 C   0  0  0  0  0  0  0  0  0  0  0  0
   35.8941  -16.0443   36.9400 C   0  0  0  0  0  0  0  0  0  0  0  0
   34.8508  -15.1545   36.5453 C   0  0  0  0  0  0  0  0  0  0  0  0
   35.7874  -17.4628   36.7958 C   0  0  0  0  0  0  0  0  0  0  0  0
   34.9838  -18.4182   36.6187 O   0  0  0  0  0  0  0  0  0  0  0  0
   37.1492  -17.9819   36.8500 O   0  0  0  0  0  0  0  0  0  0  0  0
   34.6164  -18.8917   35.7587 H   0  0  0  0  0  0  0  0  0  0  0  0
 11 12  1  0  0  0
 12 13  1  0  0  0
 12 14  1  0  0  0
 12  5  1  0  0  0
  5  6  2  0  0  0
  6  7  1  0  0  0
  7  8  2  0  0  0
  8  9  1  0  0  0
  9 10  2  0  0  0
  9  1  1  0  0  0
  1  2  2  0  0  0
  1  3  1  0  0  0
  3 15  1  0  0  0
 15 16  2  0  0  0
 16 17  1  0  0  0
 17 18  2  0  0  0
 18 19  1  0  0  0
 19 20  2  0  0  0
 19 21  1  0  0  0
 21 22  1  0  0  0
 21 23  2  0  0  0
 10  5  1  0  0  0
 20 15  1  0  0  0
  3  4  1  0  0  0
 22 24  1  0  0  0
M  END
> <minimizedAffinity>
-8.80475

> <CNNscore>
0.5244308710

> <CNNaffinity>
4.7271051407

> <CNN_VS>
2.4790399075

> <CNNaffinity_variance>
0.3869927526

$$$$
[H]OC(=O)c1c([H])c([H])c([H])c(N([H])C(=O)c2c([H])c([H])c([H])c(C(F)(F)F)c2[H])c1[H]


 24 25  0  0  0  0  0  0  0  0999 V2000
   32.7945  -12.5110   37.2925 C   0  0  0  0  0  0  0  0  0  0  0  0
   32.8553  -12.2088   38.5433 O   0  0  0  0  0  0  0  0  0  0  0  0
   31.6950  -12.0005   36.6060 N   0  0  0  0  0  0  0  0  0  0  0  0
   31.5255  -12.0066   35.6075 H   0  0  0  0  0  0  0  0  0  0  0  0
   36.1252  -14.2073   37.0149 C   0  0  0  0  0  0  0  0  0  0  0  0
   35.7523  -15.3778   36.2632 C   0  0  0  0  0  0  0  0  0  0  0  0
   34.4519  -15.4910   35.8307 C   0  0  0  0  0  0  0  0  0  0  0  0
   33.5035  -14.4848   36.1271 C   0  0  0  0  0  0  0  0  0  0  0  0
   33.8694  -13.3485   36.8592 C   0  0  0  0  0  0  0  0  0  0  0  0
   35.1787  -13.3330   37.2193 C   0  0  0  0  0  0  0  0  0  0  0  0
   37.4608  -14.1049   38.8796 F   0  0  0  0  0  0  0  0  0  0  0  0
   37.5276  -14.2415   37.5338 C   0  0  0  0  0  0  0  0  0  0  0  0
   38.3659  -13.3703   36.9216 F   0  0  0  0  0  0  0  0  0  0  0  0
   37.8989  -15.5950   37.2873 F   0  0  0  0  0  0  0  0  0  0  0  0
   30.7463  -11.2802   37.4408 C   0  0  0  0  0  0  0  0  0  0  0  0
   30.9922   -9.8775   37.4366 C   0  0  0  0  0  0  0  0  0  0  0  0
   30.1284   -9.0943   38.2192 C   0  0  0  0  0  0  0  0  0  0  0  0
   29.0975   -9.7234   38.9646 C   0  0  0  0  0  0  0  0  0  0  0  0
   28.9395  -11.0826   38.9156 C   0  0  0  0  0  0  0  0  0  0  0  0
   29.8057  -11.8827   38.1121 C   0  0  0  0  0  0  0  0  0  0  0  0
   27.9075  -11.6483   39.7276 C   0  0  0  0  0  0  0  0  0  0  0  0
   27.0366  -11.3948   40.6035 O   0  0  0  0  0  0  0  0  0  0  0  0
   27.8319  -13.0593   39.3667 O   0  0  0  0  0  0  0  0  0  0  0  0
   26.0286  -11.1129   40.5470 H   0  0  0  0  0  0  0  0  0  0  0  0
 11 12  1  0  0  0
 12 13  1  0  0  0
 12 14  1  0  0  0
 12  5  1  0  0  0
  5  6  2  0  0  0
  6  7  1  0  0  0
  7  8  2  0  0  0
  8  9  1  0  0  0
  9 10  2  0  0  0
  9  1  1  0  0  0
  1  2  2  0  0  0
  1  3  1  0  0  0
  3 15  1  0  0  0
 15 16  2  0  0  0
 16 17  1  0  0  0
 17 18  2  0  0  0
 18 19  1  0  0  0
 19 20  2  0  0  0
 19 21  1  0  0  0
 21 22  1  0  0  0
 21 23  2  0  0  0
 10  5  1  0  0  0
 20 15  1  0  0  0
  3  4  1  0  0  0
 22 24  1  0  0  0
M  END
> <minimizedAffinity>
-8.26103

> <CNNscore>
0.4308885038

> <CNNaffinity>
4.6079459190

> <CNN_VS>
1.9855109453

> <CNNaffinity_variance>
0.2681154311

$$$$
[H]OC(=O)c1c([H])c([H])c([H])c(N([H])C(=O)c2c([H])c([H])c([H])c(C(F)(F)F)c2[H])c1[H]


 24 25  0  0  0  0  0  0  0  0999 V2000
   33.1722  -19.4302   35.2836 C   0  0  0  0  0  0  0  0  0  0  0  0
   33.1161  -19.9300   36.4696 O   0  0  0  0  0  0  0  0  0  0  0  0
   32.2102  -19.8972   34.3908 N   0  0  0  0  0  0  0  0  0  0  0  0
   31.9959  -19.5465   33.4651 H   0  0  0  0  0  0  0  0  0  0  0  0
   35.6452  -16.6687   35.8384 C   0  0  0  0  0  0  0  0  0  0  0  0
   36.6760  -17.0611   34.9124 C   0  0  0  0  0  0  0  0  0  0  0  0
   36.4549  -18.1579   34.1131 C   0  0  0  0  0  0  0  0  0  0  0  0
   35.2468  -18.8869   34.2076 C   0  0  0  0  0  0  0  0  0  0  0  0
   34.2471  -18.5032   35.1100 C   0  0  0  0  0  0  0  0  0  0  0  0
   34.5642  -17.3991   35.8344 C   0  0  0  0  0  0  0  0  0  0  0  0
   36.7721  -14.6748   35.9981 F   0  0  0  0  0  0  0  0  0  0  0  0
   36.0355  -15.5385   36.7369 C   0  0  0  0  0  0  0  0  0  0  0  0
   36.6215  -15.9287   37.8948 F   0  0  0  0  0  0  0  0  0  0  0  0
   34.7825  -14.9001   36.9669 F   0  0  0  0  0  0  0  0  0  0  0  0
   31.3522  -20.9435   34.9245 C   0  0  0  0  0  0  0  0  0  0  0  0
   31.8017  -22.2421   34.5509 C   0  0  0  0  0  0  0  0  0  0  0  0
   31.0335  -23.3217   35.0162 C   0  0  0  0  0  0  0  0  0  0  0  0
   29.8748  -23.0700   35.7960 C   0  0  0  0  0  0  0  0  0  0  0  0
   29.5118  -21.7853   36.1006 C   0  0  0  0  0  0  0  0  0  0  0  0
   30.2955  -20.6846   35.6419 C   0  0  0  0  0  0  0  0  0  0  0  0
   28.3086  -21.6091   36.8525 C   0  0  0  0  0  0  0  0  0  0  0  0
   27.3559  -22.2100   37.4193 O   0  0  0  0  0  0  0  0  0  0  0  0
   28.1600  -20.1723   37.0536 O   0  0  0  0  0  0  0  0  0  0  0  0
   27.2184  -22.5703   38.3940 H   0  0  0  0  0  0  0  0  0  0  0  0
 11 12  1  0  0  0
 12 13  1  0  0  0
 12 14  1  0  0  0
 12  5  1  0  0  0
  5  6  2  0  0  0
  6  7  1  0  0  0
  7  8  2  0  0  0
  8  9  1  0  0  0
  9 10  2  0  0  0
  9  1  1  0  0  0
  1  2  2  0  0  0
  1  3  1  0  0  0
  3 15  1  0  0  0
 15 16  2  0  0  0
 16 17  1  0  0  0
 17 18  2  0  0  0
 18 19  1  0  0  0
 19 20  2  0  0  0
 19 21  1  0  0  0
 21 22  1  0  0  0
 21 23  2  0  0  0
 10  5  1  0  0  0
 20 15  1  0  0  0
  3  4  1  0  0  0
 22 24  1  0  0  0
M  END
> <minimizedAffinity>
-6.49636

> <CNNscore>
0.4300068915

> <CNNaffinity>
3.9112389088

> <CNN_VS>
1.6818597317

> <CNNaffinity_variance>
0.5410915613

$$$$
[H]OC(=O)c1c([H])c([H])c([H])c(N([H])C(=O)c2c([H])c([H])c([H])c(C(F)(F)F)c2[H])c1[H]


 24 25  0  0  0  0  0  0  0  0999 V2000
   32.9881  -12.7242   37.4902 C   0  0  0  0  0  0  0  0  0  0  0  0
   32.9274  -12.3982   38.7349 O   0  0  0  0  0  0  0  0  0  0  0  0
   31.9952  -12.1791   36.6793 N   0  0  0  0  0  0  0  0  0  0  0  0
   31.9348  -12.1989   35.6684 H   0  0  0  0  0  0  0  0  0  0  0  0
   34.9823  -15.6154   36.1813 C   0  0  0  0  0  0  0  0  0  0  0  0
   36.3067  -15.0516   36.2267 C   0  0  0  0  0  0  0  0  0  0  0  0
   36.4645  -13.7930   36.7574 C   0  0  0  0  0  0  0  0  0  0  0  0
   35.3492  -13.0681   37.2376 C   0  0  0  0  0  0  0  0  0  0  0  0
   34.0625  -13.6190   37.1908 C   0  0  0  0  0  0  0  0  0  0  0  0
   34.0265  -14.8703   36.6644 C   0  0  0  0  0  0  0  0  0  0  0  0
   36.0742  -17.0987   34.8106 F   0  0  0  0  0  0  0  0  0  0  0  0
   34.9087  -16.9348   35.4808 C   0  0  0  0  0  0  0  0  0  0  0  0
   33.7971  -17.0982   34.7230 F   0  0  0  0  0  0  0  0  0  0  0  0
   34.9437  -17.8494   36.5729 F   0  0  0  0  0  0  0  0  0  0  0  0
   30.9970  -11.3984   37.3934 C   0  0  0  0  0  0  0  0  0  0  0  0
   31.2893  -10.0050   37.3620 C   0  0  0  0  0  0  0  0  0  0  0  0
   30.3825   -9.1661   38.0300 C   0  0  0  0  0  0  0  0  0  0  0  0
   29.2656   -9.7343   38.6961 C   0  0  0  0  0  0  0  0  0  0  0  0
   29.0671  -11.0890   38.6813 C   0  0  0  0  0  0  0  0  0  0  0  0
   29.9777  -11.9456   37.9933 C   0  0  0  0  0  0  0  0  0  0  0  0
   27.9450  -11.5912   39.4113 C   0  0  0  0  0  0  0  0  0  0  0  0
   27.4031  -11.6479   40.5484 O   0  0  0  0  0  0  0  0  0  0  0  0
   27.0995  -12.2753   38.4396 O   0  0  0  0  0  0  0  0  0  0  0  0
   26.7043  -11.0384   41.0373 H   0  0  0  0  0  0  0  0  0  0  0  0
 11 12  1  0  0  0
 12 13  1  0  0  0
 12 14  1  0  0  0
 12  5  1  0  0  0
  5  6  2  0  0  0
  6  7  1  0  0  0
  7  8  2  0  0  0
  8  9  1  0  0  0
  9 10  2  0  0  0
  9  1  1  0  0  0
  1  2  2  0  0  0
  1  3  1  0  0  0
  3 15  1  0  0  0
 15 16  2  0  0  0
 16 17  1  0  0  0
 17 18  2  0  0  0
 18 19  1  0  0  0
 19 20  2  0  0  0
 19 21  1  0  0  0
 21 22  1  0  0  0
 21 23  2  0  0  0
 10  5  1  0  0  0
 20 15  1  0  0  0
  3  4  1  0  0  0
 22 24  1  0  0  0
M  END
> <minimizedAffinity>
-8.41145

> <CNNscore>
0.3950491846

> <CNNaffinity>
4.6458044052

> <CNN_VS>
1.8353211880

> <CNNaffinity_variance>
0.3335049748

$$$$
[H]OC(=O)c1c([H])c([H])c([H])c(N([H])C(=O)c2c([H])c([H])c(-c3c([H])c([H])c(OC([H])([H])[H])c(OC([H])([H])[H])c3[H])c([H])c2[H])c1[H]


 30 32  0  0  0  0  0  0  0  0999 V2000
   33.4707  -22.3588   38.2579 C   0  0  0  0  0  0  0  0  0  0  0  0
   34.7315  -21.8898   38.5506 C   0  0  0  0  0  0  0  0  0  0  0  0
   35.5360  -22.5715   39.4418 C   0  0  0  0  0  0  0  0  0  0  0  0
   35.1079  -23.7362   40.0645 C   0  0  0  0  0  0  0  0  0  0  0  0
   33.8562  -24.1999   39.7723 C   0  0  0  0  0  0  0  0  0  0  0  0
   33.0317  -23.5093   38.8648 C   0  0  0  0  0  0  0  0  0  0  0  0
   31.0563  -20.2043   35.5036 C   0  0  0  0  0  0  0  0  0  0  0  0
   30.5921  -21.3659   36.0802 C   0  0  0  0  0  0  0  0  0  0  0  0
   31.3734  -22.0470   36.9603 C   0  0  0  0  0  0  0  0  0  0  0  0
   32.6400  -21.6250   37.3158 C   0  0  0  0  0  0  0  0  0  0  0  0
   33.0807  -20.4490   36.7170 C   0  0  0  0  0  0  0  0  0  0  0  0
   32.3144  -19.7412   35.8257 C   0  0  0  0  0  0  0  0  0  0  0  0
   29.2013  -18.6952   35.0464 C   0  0  0  0  0  0  0  0  0  0  0  0
   30.2755  -19.4764   34.5908 O   0  0  0  0  0  0  0  0  0  0  0  0
   32.7506  -18.5784   35.2338 O   0  0  0  0  0  0  0  0  0  0  0  0
   33.9828  -17.9550   35.4743 C   0  0  0  0  0  0  0  0  0  0  0  0
   36.0259  -24.4215   41.0054 C   0  0  0  0  0  0  0  0  0  0  0  0
   35.7327  -25.6217   41.3131 O   0  0  0  0  0  0  0  0  0  0  0  0
   37.1588  -23.7832   41.5300 N   0  0  0  0  0  0  0  0  0  0  0  0
   37.3005  -22.7778   41.1882 H   0  0  0  0  0  0  0  0  0  0  0  0
   38.0999  -24.2884   42.4177 C   0  0  0  0  0  0  0  0  0  0  0  0
   37.9677  -25.4160   43.1450 C   0  0  0  0  0  0  0  0  0  0  0  0
   38.9598  -25.8802   44.0163 C   0  0  0  0  0  0  0  0  0  0  0  0
   40.1270  -25.1681   44.1495 C   0  0  0  0  0  0  0  0  0  0  0  0
   40.3025  -24.0070   43.4225 C   0  0  0  0  0  0  0  0  0  0  0  0
   39.3079  -23.5876   42.5814 C   0  0  0  0  0  0  0  0  0  0  0  0
   41.5609  -23.2543   43.5769 C   0  0  0  0  0  0  0  0  0  0  0  0
   41.5697  -21.8882   43.7778 O   0  0  0  0  0  0  0  0  0  0  0  0
   42.6697  -23.8444   43.5287 O   0  0  0  0  0  0  0  0  0  0  0  0
   41.5592  -21.2012   43.0359 H   0  0  0  0  0  0  0  0  0  0  0  0
 13 14  1  0  0  0
 14  7  1  0  0  0
  7  8  2  0  0  0
  8  9  1  0  0  0
  9 10  2  0  0  0
 10 11  1  0  0  0
 11 12  2  0  0  0
 12 15  1  0  0  0
 15 16  1  0  0  0
 10  1  1  0  0  0
  1  2  2  0  0  0
  2  3  1  0  0  0
  3  4  2  0  0  0
  4  5  1  0  0  0
  5  6  2  0  0  0
  4 17  1  0  0  0
 17 18  2  0  0  0
 17 19  1  0  0  0
 19 21  1  0  0  0
 21 22  2  0  0  0
 22 23  1  0  0  0
 23 24  2  0  0  0
 24 25  1  0  0  0
 25 26  2  0  0  0
 25 27  1  0  0  0
 27 28  1  0  0  0
 27 29  2  0  0  0
 12  7  1  0  0  0
  6  1  1  0  0  0
 26 21  1  0  0  0
 19 20  1  0  0  0
 28 30  1  0  0  0
M  END
> <minimizedAffinity>
-2.17392

> <CNNscore>
0.6188991666

> <CNNaffinity>
4.2408576012

> <CNN_VS>
2.6246633530

> <CNNaffinity_variance>
0.1771819890

$$$$
[H]OC(=O)c1c([H])c([H])c([H])c(N([H])C(=O)c2c([H])c([H])c(-c3c([H])c([H])c(OC([H])([H])[H])c(OC([H])([H])[H])c3[H])c([H])c2[H])c1[H]


 30 32  0  0  0  0  0  0  0  0999 V2000
   35.3641  -22.2335   38.0857 C   0  0  0  0  0  0  0  0  0  0  0  0
   35.3769  -22.7386   39.3662 C   0  0  0  0  0  0  0  0  0  0  0  0
   36.4223  -22.4431   40.2184 C   0  0  0  0  0  0  0  0  0  0  0  0
   37.4808  -21.6382   39.8195 C   0  0  0  0  0  0  0  0  0  0  0  0
   37.4658  -21.1378   38.5481 C   0  0  0  0  0  0  0  0  0  0  0  0
   36.4030  -21.4357   37.6750 C   0  0  0  0  0  0  0  0  0  0  0  0
   32.1161  -23.1631   35.5080 C   0  0  0  0  0  0  0  0  0  0  0  0
   32.7803  -24.1627   36.1839 C   0  0  0  0  0  0  0  0  0  0  0  0
   33.8181  -23.8535   37.0062 C   0  0  0  0  0  0  0  0  0  0  0  0
   34.2527  -22.5573   37.2046 C   0  0  0  0  0  0  0  0  0  0  0  0
   33.5623  -21.5700   36.5085 C   0  0  0  0  0  0  0  0  0  0  0  0
   32.5118  -21.8526   35.6723 C   0  0  0  0  0  0  0  0  0  0  0  0
   31.1297  -24.5067   33.7333 C   0  0  0  0  0  0  0  0  0  0  0  0
   31.0403  -23.4476   34.6510 O   0  0  0  0  0  0  0  0  0  0  0  0
   31.8295  -20.8761   34.9841 O   0  0  0  0  0  0  0  0  0  0  0  0
   32.3306  -20.1436   33.8992 C   0  0  0  0  0  0  0  0  0  0  0  0
   38.5669  -21.3554   40.7880 C   0  0  0  0  0  0  0  0  0  0  0  0
   38.2617  -21.4286   42.0220 O   0  0  0  0  0  0  0  0  0  0  0  0
   39.8637  -21.0248   40.3692 N   0  0  0  0  0  0  0  0  0  0  0  0
   39.9954  -21.0040   39.3062 H   0  0  0  0  0  0  0  0  0  0  0  0
   40.9736  -20.7306   41.1503 C   0  0  0  0  0  0  0  0  0  0  0  0
   41.3399  -19.5004   41.5631 C   0  0  0  0  0  0  0  0  0  0  0  0
   42.4665  -19.2695   42.3609 C   0  0  0  0  0  0  0  0  0  0  0  0
   43.2458  -20.3316   42.7504 C   0  0  0  0  0  0  0  0  0  0  0  0
   42.9056  -21.6085   42.3490 C   0  0  0  0  0  0  0  0  0  0  0  0
   41.7960  -21.7914   41.5692 C   0  0  0  0  0  0  0  0  0  0  0  0
   43.7525  -22.7377   42.7755 C   0  0  0  0  0  0  0  0  0  0  0  0
   44.2158  -23.6777   41.8765 O   0  0  0  0  0  0  0  0  0  0  0  0
   44.0773  -22.8741   43.9820 O   0  0  0  0  0  0  0  0  0  0  0  0
   43.7065  -24.5076   41.6037 H   0  0  0  0  0  0  0  0  0  0  0  0
 13 14  1  0  0  0
 14  7  1  0  0  0
  7  8  2  0  0  0
  8  9  1  0  0  0
  9 10  2  0  0  0
 10 11  1  0  0  0
 11 12  2  0  0  0
 12 15  1  0  0  0
 15 16  1  0  0  0
 10  1  1  0  0  0
  1  2  2  0  0  0
  2  3  1  0  0  0
  3  4  2  0  0  0
  4  5  1  0  0  0
  5  6  2  0  0  0
  4 17  1  0  0  0
 17 18  2  0  0  0
 17 19  1  0  0  0
 19 21  1  0  0  0
 21 22  2  0  0  0
 22 23  1  0  0  0
 23 24  2  0  0  0
 24 25  1  0  0  0
 25 26  2  0  0  0
 25 27  1  0  0  0
 27 28  1  0  0  0
 27 29  2  0  0  0
 12  7  1  0  0  0
  6  1  1  0  0  0
 26 21  1  0  0  0
 19 20  1  0  0  0
 28 30  1  0  0  0
M  END
> <minimizedAffinity>
-3.65877

> <CNNscore>
0.6116057634

> <CNNaffinity>
4.3609056473

> <CNN_VS>
2.6671550274

> <CNNaffinity_variance>
0.1569153219

$$$$
[H]OC(=O)c1c([H])c([H])c([H])c(N([H])C(=O)c2c([H])c([H])c(-c3c([H])c([H])c(OC([H])([H])[H])c(OC([H])([H])[H])c3[H])c([H])c2[H])c1[H]


 30 32  0  0  0  0  0  0  0  0999 V2000
   35.6650  -20.7517   38.0055 C   0  0  0  0  0  0  0  0  0  0  0  0
   35.8078  -21.3242   39.2493 C   0  0  0  0  0  0  0  0  0  0  0  0
   37.0592  -21.4380   39.8213 C   0  0  0  0  0  0  0  0  0  0  0  0
   38.2000  -20.9858   39.1719 C   0  0  0  0  0  0  0  0  0  0  0  0
   38.0557  -20.4177   37.9375 C   0  0  0  0  0  0  0  0  0  0  0  0
   36.7827  -20.2991   37.3494 C   0  0  0  0  0  0  0  0  0  0  0  0
   31.7911  -20.4161   36.2915 C   0  0  0  0  0  0  0  0  0  0  0  0
   32.0981  -21.4695   37.1241 C   0  0  0  0  0  0  0  0  0  0  0  0
   33.3410  -21.5667   37.6671 C   0  0  0  0  0  0  0  0  0  0  0  0
   34.3372  -20.6415   37.4215 C   0  0  0  0  0  0  0  0  0  0  0  0
   33.9969  -19.5895   36.5770 C   0  0  0  0  0  0  0  0  0  0  0  0
   32.7512  -19.4660   36.0151 C   0  0  0  0  0  0  0  0  0  0  0  0
   29.5913  -21.3375   35.8018 C   0  0  0  0  0  0  0  0  0  0  0  0
   30.5174  -20.2855   35.7141 O   0  0  0  0  0  0  0  0  0  0  0  0
   32.4152  -18.4256   35.1801 O   0  0  0  0  0  0  0  0  0  0  0  0
   33.2730  -17.8142   34.2553 C   0  0  0  0  0  0  0  0  0  0  0  0
   39.5114  -21.1329   39.8471 C   0  0  0  0  0  0  0  0  0  0  0  0
   39.4839  -21.3500   41.1015 O   0  0  0  0  0  0  0  0  0  0  0  0
   40.7204  -21.0387   39.1430 N   0  0  0  0  0  0  0  0  0  0  0  0
   40.6098  -20.8622   38.0922 H   0  0  0  0  0  0  0  0  0  0  0  0
   42.0150  -21.1474   39.6338 C   0  0  0  0  0  0  0  0  0  0  0  0
   42.8197  -20.1166   39.9623 C   0  0  0  0  0  0  0  0  0  0  0  0
   44.1144  -20.2920   40.4642 C   0  0  0  0  0  0  0  0  0  0  0  0
   44.6042  -21.5638   40.6364 C   0  0  0  0  0  0  0  0  0  0  0  0
   43.8121  -22.6477   40.3118 C   0  0  0  0  0  0  0  0  0  0  0  0
   42.5518  -22.4330   39.8239 C   0  0  0  0  0  0  0  0  0  0  0  0
   44.3527  -24.0062   40.5024 C   0  0  0  0  0  0  0  0  0  0  0  0
   44.6214  -24.8372   39.4329 O   0  0  0  0  0  0  0  0  0  0  0  0
   44.5848  -24.4466   41.6565 O   0  0  0  0  0  0  0  0  0  0  0  0
   43.9443  -25.4535   39.0034 H   0  0  0  0  0  0  0  0  0  0  0  0
 13 14  1  0  0  0
 14  7  1  0  0  0
  7  8  2  0  0  0
  8  9  1  0  0  0
  9 10  2  0  0  0
 10 11  1  0  0  0
 11 12  2  0  0  0
 12 15  1  0  0  0
 15 16  1  0  0  0
 10  1  1  0  0  0
  1  2  2  0  0  0
  2  3  1  0  0  0
  3  4  2  0  0  0
  4  5  1  0  0  0
  5  6  2  0  0  0
  4 17  1  0  0  0
 17 18  2  0  0  0
 17 19  1  0  0  0
 19 21  1  0  0  0
 21 22  2  0  0  0
 22 23  1  0  0  0
 23 24  2  0  0  0
 24 25  1  0  0  0
 25 26  2  0  0  0
 25 27  1  0  0  0
 27 28  1  0  0  0
 27 29  2  0  0  0
 12  7  1  0  0  0
  6  1  1  0  0  0
 26 21  1  0  0  0
 19 20  1  0  0  0
 28 30  1  0  0  0
M  END
> <minimizedAffinity>
-3.85592

> <CNNscore>
0.5769169927

> <CNNaffinity>
4.2277045250

> <CNN_VS>
2.4390344620

> <CNNaffinity_variance>
0.1420102268

$$$$
[H]OC(=O)c1c([H])c([H])c([H])c(N([H])C(=O)c2c([H])c([H])c(-c3c([H])c([H])c(OC([H])([H])[H])c(OC([H])([H])[H])c3[H])c([H])c2[H])c1[H]


 30 32  0  0  0  0  0  0  0  0999 V2000
   34.6305  -21.5555   36.9125 C   0  0  0  0  0  0  0  0  0  0  0  0
   35.2818  -22.5440   37.6153 C   0  0  0  0  0  0  0  0  0  0  0  0
   36.6446  -22.4657   37.8220 C   0  0  0  0  0  0  0  0  0  0  0  0
   37.3944  -21.4032   37.3357 C   0  0  0  0  0  0  0  0  0  0  0  0
   36.7458  -20.4232   36.6385 C   0  0  0  0  0  0  0  0  0  0  0  0
   35.3569  -20.4977   36.4246 C   0  0  0  0  0  0  0  0  0  0  0  0
   30.4349  -21.8704   36.3161 C   0  0  0  0  0  0  0  0  0  0  0  0
   31.0849  -20.6766   36.0935 C   0  0  0  0  0  0  0  0  0  0  0  0
   32.4278  -20.5875   36.2875 C   0  0  0  0  0  0  0  0  0  0  0  0
   33.1941  -21.6579   36.7066 C   0  0  0  0  0  0  0  0  0  0  0  0
   32.5094  -22.8496   36.9230 C   0  0  0  0  0  0  0  0  0  0  0  0
   31.1554  -22.9686   36.7355 C   0  0  0  0  0  0  0  0  0  0  0  0
   28.1564  -21.2783   36.9369 C   0  0  0  0  0  0  0  0  0  0  0  0
   29.0492  -21.9970   36.1255 O   0  0  0  0  0  0  0  0  0  0  0  0
   30.4788  -24.1472   36.9497 O   0  0  0  0  0  0  0  0  0  0  0  0
   29.9015  -24.5456   38.1632 C   0  0  0  0  0  0  0  0  0  0  0  0
   38.8528  -21.3786   37.6002 C   0  0  0  0  0  0  0  0  0  0  0  0
   39.3646  -20.2417   37.8587 O   0  0  0  0  0  0  0  0  0  0  0  0
   39.6300  -22.5453   37.5684 N   0  0  0  0  0  0  0  0  0  0  0  0
   39.0813  -23.4386   37.3476 H   0  0  0  0  0  0  0  0  0  0  0  0
   40.9949  -22.6786   37.7870 C   0  0  0  0  0  0  0  0  0  0  0  0
   41.7705  -21.8088   38.4650 C   0  0  0  0  0  0  0  0  0  0  0  0
   43.1422  -22.0056   38.6617 C   0  0  0  0  0  0  0  0  0  0  0  0
   43.7425  -23.1294   38.1480 C   0  0  0  0  0  0  0  0  0  0  0  0
   42.9837  -24.0458   37.4466 C   0  0  0  0  0  0  0  0  0  0  0  0
   41.6455  -23.8160   37.2766 C   0  0  0  0  0  0  0  0  0  0  0  0
   43.6431  -25.2467   36.9015 C   0  0  0  0  0  0  0  0  0  0  0  0
   43.2234  -25.8344   35.7246 O   0  0  0  0  0  0  0  0  0  0  0  0
   44.6148  -25.7714   37.5018 O   0  0  0  0  0  0  0  0  0  0  0  0
   42.4932  -26.5312   35.6622 H   0  0  0  0  0  0  0  0  0  0  0  0
 13 14  1  0  0  0
 14  7  1  0  0  0
  7  8  2  0  0  0
  8  9  1  0  0  0
  9 10  2  0  0  0
 10 11  1  0  0  0
 11 12  2  0  0  0
 12 15  1  0  0  0
 15 16  1  0  0  0
 10  1  1  0  0  0
  1  2  2  0  0  0
  2  3  1  0  0  0
  3  4  2  0  0  0
  4  5  1  0  0  0
  5  6  2  0  0  0
  4 17  1  0  0  0
 17 18  2  0  0  0
 17 19  1  0  0  0
 19 21  1  0  0  0
 21 22  2  0  0  0
 22 23  1  0  0  0
 23 24  2  0  0  0
 24 25  1  0  0  0
 25 26  2  0  0  0
 25 27  1  0  0  0
 27 28  1  0  0  0
 27 29  2  0  0  0
 12  7  1  0  0  0
  6  1  1  0  0  0
 26 21  1  0  0  0
 19 20  1  0  0  0
 28 30  1  0  0  0
M  END
> <minimizedAffinity>
-2.40103

> <CNNscore>
0.5651007891

> <CNNaffinity>
4.5072422028

> <CNN_VS>
2.5470461845

> <CNNaffinity_variance>
0.3447877169

$$$$
[H]OC(=O)c1c([H])c([H])c([H])c(N([H])C(=O)c2c([H])c([H])c(-c3c([H])c([H])c(OC([H])([H])[H])c(OC([H])([H])[H])c3[H])c([H])c2[H])c1[H]


 30 32  0  0  0  0  0  0  0  0999 V2000
   34.6222  -14.0218   37.0793 C   0  0  0  0  0  0  0  0  0  0  0  0
   34.1295  -15.0658   36.3294 C   0  0  0  0  0  0  0  0  0  0  0  0
   34.8665  -16.2242   36.1840 C   0  0  0  0  0  0  0  0  0  0  0  0
   36.1114  -16.3742   36.7801 C   0  0  0  0  0  0  0  0  0  0  0  0
   36.5983  -15.3366   37.5241 C   0  0  0  0  0  0  0  0  0  0  0  0
   35.8516  -14.1534   37.6758 C   0  0  0  0  0  0  0  0  0  0  0  0
   32.3184  -10.4743   37.4867 C   0  0  0  0  0  0  0  0  0  0  0  0
   31.7177  -11.7110   37.5687 C   0  0  0  0  0  0  0  0  0  0  0  0
   32.4648  -12.8395   37.4370 C   0  0  0  0  0  0  0  0  0  0  0  0
   33.8288  -12.8105   37.2197 C   0  0  0  0  0  0  0  0  0  0  0  0
   34.4066  -11.5471   37.1416 C   0  0  0  0  0  0  0  0  0  0  0  0
   33.6776  -10.3919   37.2708 C   0  0  0  0  0  0  0  0  0  0  0  0
   30.2603   -9.3305   38.1060 C   0  0  0  0  0  0  0  0  0  0  0  0
   31.5764   -9.2890   37.6182 O   0  0  0  0  0  0  0  0  0  0  0  0
   34.2493   -9.1429   37.1934 O   0  0  0  0  0  0  0  0  0  0  0  0
   34.8510   -8.5921   36.0536 C   0  0  0  0  0  0  0  0  0  0  0  0
   36.8457  -17.6476   36.5885 C   0  0  0  0  0  0  0  0  0  0  0  0
   36.5913  -18.5808   37.4165 O   0  0  0  0  0  0  0  0  0  0  0  0
   37.7725  -17.8177   35.5500 N   0  0  0  0  0  0  0  0  0  0  0  0
   37.8917  -16.9622   34.9164 H   0  0  0  0  0  0  0  0  0  0  0  0
   38.5350  -18.9389   35.2496 C   0  0  0  0  0  0  0  0  0  0  0  0
   38.1699  -19.9384   34.4215 C   0  0  0  0  0  0  0  0  0  0  0  0
   38.9902  -21.0394   34.1497 C   0  0  0  0  0  0  0  0  0  0  0  0
   40.2258  -21.1225   34.7441 C   0  0  0  0  0  0  0  0  0  0  0  0
   40.6382  -20.1197   35.5995 C   0  0  0  0  0  0  0  0  0  0  0  0
   39.8060  -19.0600   35.8386 C   0  0  0  0  0  0  0  0  0  0  0  0
   41.9672  -20.2240   36.2296 C   0  0  0  0  0  0  0  0  0  0  0  0
   43.1020  -20.4934   35.4904 O   0  0  0  0  0  0  0  0  0  0  0  0
   42.1017  -20.0685   37.4696 O   0  0  0  0  0  0  0  0  0  0  0  0
   43.4294  -21.4230   35.2639 H   0  0  0  0  0  0  0  0  0  0  0  0
 13 14  1  0  0  0
 14  7  1  0  0  0
  7  8  2  0  0  0
  8  9  1  0  0  0
  9 10  2  0  0  0
 10 11  1  0  0  0
 11 12  2  0  0  0
 12 15  1  0  0  0
 15 16  1  0  0  0
 10  1  1  0  0  0
  1  2  2  0  0  0
  2  3  1  0  0  0
  3  4  2  0  0  0
  4  5  1  0  0  0
  5  6  2  0  0  0
  4 17  1  0  0  0
 17 18  2  0  0  0
 17 19  1  0  0  0
 19 21  1  0  0  0
 21 22  2  0  0  0
 22 23  1  0  0  0
 23 24  2  0  0  0
 24 25  1  0  0  0
 25 26  2  0  0  0
 25 27  1  0  0  0
 27 28  1  0  0  0
 27 29  2  0  0  0
 12  7  1  0  0  0
  6  1  1  0  0  0
 26 21  1  0  0  0
 19 20  1  0  0  0
 28 30  1  0  0  0
M  END
> <minimizedAffinity>
-7.72380

> <CNNscore>
0.5481967926

> <CNNaffinity>
5.1603331566

> <CNN_VS>
2.8288781643

> <CNNaffinity_variance>
0.3694247603

$$$$
[H]OC(=O)c1c([H])c([H])c([H])c(N([H])C(=O)c2c([H])c([H])c(-c3c([H])c([H])c(OC([H])([H])[H])c(OC([H])([H])[H])c3[H])c([H])c2[H])c1[H]


 30 32  0  0  0  0  0  0  0  0999 V2000
   34.3767  -21.3792   36.9431 C   0  0  0  0  0  0  0  0  0  0  0  0
   35.1396  -22.4642   37.3118 C   0  0  0  0  0  0  0  0  0  0  0  0
   36.5163  -22.3658   37.3439 C   0  0  0  0  0  0  0  0  0  0  0  0
   37.1695  -21.1869   37.0106 C   0  0  0  0  0  0  0  0  0  0  0  0
   36.4102  -20.1112   36.6451 C   0  0  0  0  0  0  0  0  0  0  0  0
   35.0065  -20.2056   36.6105 C   0  0  0  0  0  0  0  0  0  0  0  0
   30.1443  -21.7544   36.8798 C   0  0  0  0  0  0  0  0  0  0  0  0
   30.8001  -21.0676   35.8821 C   0  0  0  0  0  0  0  0  0  0  0  0
   32.1548  -20.9539   35.9126 C   0  0  0  0  0  0  0  0  0  0  0  0
   32.9276  -21.5048   36.9165 C   0  0  0  0  0  0  0  0  0  0  0  0
   32.2368  -22.1922   37.9095 C   0  0  0  0  0  0  0  0  0  0  0  0
   30.8709  -22.3227   37.9045 C   0  0  0  0  0  0  0  0  0  0  0  0
   27.9398  -20.8955   37.4541 C   0  0  0  0  0  0  0  0  0  0  0  0
   28.7464  -21.8907   36.8789 O   0  0  0  0  0  0  0  0  0  0  0  0
   30.1883  -23.0025   38.8866 O   0  0  0  0  0  0  0  0  0  0  0  0
   30.1383  -24.3961   39.0279 C   0  0  0  0  0  0  0  0  0  0  0  0
   38.6501  -21.1488   37.0735 C   0  0  0  0  0  0  0  0  0  0  0  0
   39.1633  -20.3125   37.8850 O   0  0  0  0  0  0  0  0  0  0  0  0
   39.4458  -21.9892   36.2818 N   0  0  0  0  0  0  0  0  0  0  0  0
   38.8951  -22.6531   35.6465 H   0  0  0  0  0  0  0  0  0  0  0  0
   40.8314  -22.0641   36.2264 C   0  0  0  0  0  0  0  0  0  0  0  0
   41.6759  -21.7487   37.2291 C   0  0  0  0  0  0  0  0  0  0  0  0
   43.0666  -21.8567   37.1150 C   0  0  0  0  0  0  0  0  0  0  0  0
   43.6138  -22.3019   35.9363 C   0  0  0  0  0  0  0  0  0  0  0  0
   42.7838  -22.6353   34.8839 C   0  0  0  0  0  0  0  0  0  0  0  0
   41.4292  -22.5155   35.0364 C   0  0  0  0  0  0  0  0  0  0  0  0
   43.3869  -23.1113   33.6254 C   0  0  0  0  0  0  0  0  0  0  0  0
   42.8822  -22.7434   32.3939 O   0  0  0  0  0  0  0  0  0  0  0  0
   44.3867  -23.8728   33.6427 O   0  0  0  0  0  0  0  0  0  0  0  0
   42.1383  -23.2304   31.9123 H   0  0  0  0  0  0  0  0  0  0  0  0
 13 14  1  0  0  0
 14  7  1  0  0  0
  7  8  2  0  0  0
  8  9  1  0  0  0
  9 10  2  0  0  0
 10 11  1  0  0  0
 11 12  2  0  0  0
 12 15  1  0  0  0
 15 16  1  0  0  0
 10  1  1  0  0  0
  1  2  2  0  0  0
  2  3  1  0  0  0
  3  4  2  0  0  0
  4  5  1  0  0  0
  5  6  2  0  0  0
  4 17  1  0  0  0
 17 18  2  0  0  0
 17 19  1  0  0  0
 19 21  1  0  0  0
 21 22  2  0  0  0
 22 23  1  0  0  0
 23 24  2  0  0  0
 24 25  1  0  0  0
 25 26  2  0  0  0
 25 27  1  0  0  0
 27 28  1  0  0  0
 27 29  2  0  0  0
 12  7  1  0  0  0
  6  1  1  0  0  0
 26 21  1  0  0  0
 19 20  1  0  0  0
 28 30  1  0  0  0
M  END
> <minimizedAffinity>
-3.35683

> <CNNscore>
0.5237288475

> <CNNaffinity>
4.2100863457

> <CNN_VS>
2.2049436569

> <CNNaffinity_variance>
0.1348240227

$$$$
[H]OC(=O)c1c([H])c([H])c([H])c(N([H])C(=O)c2c([H])c([H])c(-c3c([H])c([H])c(OC([H])([H])[H])c(OC([H])([H])[H])c3[H])c([H])c2[H])c1[H]


 30 32  0  0  0  0  0  0  0  0999 V2000
   34.9853  -22.3114   37.3346 C   0  0  0  0  0  0  0  0  0  0  0  0
   36.0209  -23.2140   37.4246 C   0  0  0  0  0  0  0  0  0  0  0  0
   37.3285  -22.7818   37.3267 C   0  0  0  0  0  0  0  0  0  0  0  0
   37.6399  -21.4422   37.1370 C   0  0  0  0  0  0  0  0  0  0  0  0
   36.6103  -20.5482   37.0481 C   0  0  0  0  0  0  0  0  0  0  0  0
   35.2755  -20.9828   37.1471 C   0  0  0  0  0  0  0  0  0  0  0  0
   30.9837  -23.7106   37.6291 C   0  0  0  0  0  0  0  0  0  0  0  0
   31.5847  -23.0821   38.6972 C   0  0  0  0  0  0  0  0  0  0  0  0
   32.8657  -22.6383   38.5916 C   0  0  0  0  0  0  0  0  0  0  0  0
   33.6151  -22.7883   37.4407 C   0  0  0  0  0  0  0  0  0  0  0  0
   32.9808  -23.4268   36.3796 C   0  0  0  0  0  0  0  0  0  0  0  0
   31.6898  -23.8848   36.4578 C   0  0  0  0  0  0  0  0  0  0  0  0
   29.2665  -25.0064   38.7693 C   0  0  0  0  0  0  0  0  0  0  0  0
   29.6624  -24.1811   37.7044 O   0  0  0  0  0  0  0  0  0  0  0  0
   31.0631  -24.5161   35.4083 O   0  0  0  0  0  0  0  0  0  0  0  0
   31.1819  -24.1624   34.0572 C   0  0  0  0  0  0  0  0  0  0  0  0
   39.0657  -21.0465   37.0477 C   0  0  0  0  0  0  0  0  0  0  0  0
   39.8921  -21.9642   36.7377 O   0  0  0  0  0  0  0  0  0  0  0  0
   39.4846  -19.7306   37.2911 N   0  0  0  0  0  0  0  0  0  0  0  0
   38.6935  -19.0505   37.5346 H   0  0  0  0  0  0  0  0  0  0  0  0
   40.7733  -19.2146   37.2522 C   0  0  0  0  0  0  0  0  0  0  0  0
   41.3534  -18.6297   36.1847 C   0  0  0  0  0  0  0  0  0  0  0  0
   42.6555  -18.1174   36.2118 C   0  0  0  0  0  0  0  0  0  0  0  0
   43.3907  -18.2056   37.3689 C   0  0  0  0  0  0  0  0  0  0  0  0
   42.8338  -18.7978   38.4854 C   0  0  0  0  0  0  0  0  0  0  0  0
   41.5573  -19.2861   38.4173 C   0  0  0  0  0  0  0  0  0  0  0  0
   43.6361  -18.8847   39.7194 C   0  0  0  0  0  0  0  0  0  0  0  0
   43.3390  -18.1251   40.8336 O   0  0  0  0  0  0  0  0  0  0  0  0
   44.6220  -19.6613   39.7885 O   0  0  0  0  0  0  0  0  0  0  0  0
   43.6802  -17.1867   40.9934 H   0  0  0  0  0  0  0  0  0  0  0  0
 13 14  1  0  0  0
 14  7  1  0  0  0
  7  8  2  0  0  0
  8  9  1  0  0  0
  9 10  2  0  0  0
 10 11  1  0  0  0
 11 12  2  0  0  0
 12 15  1  0  0  0
 15 16  1  0  0  0
 10  1  1  0  0  0
  1  2  2  0  0  0
  2  3  1  0  0  0
  3  4  2  0  0  0
  4  5  1  0  0  0
  5  6  2  0  0  0
  4 17  1  0  0  0
 17 18  2  0  0  0
 17 19  1  0  0  0
 19 21  1  0  0  0
 21 22  2  0  0  0
 22 23  1  0  0  0
 23 24  2  0  0  0
 24 25  1  0  0  0
 25 26  2  0  0  0
 25 27  1  0  0  0
 27 28  1  0  0  0
 27 29  2  0  0  0
 12  7  1  0  0  0
  6  1  1  0  0  0
 26 21  1  0  0  0
 19 20  1  0  0  0
 28 30  1  0  0  0
M  END
> <minimizedAffinity>
-4.07317

> <CNNscore>
0.5201347470

> <CNNaffinity>
4.2860121727

> <CNN_VS>
2.2293038368

> <CNNaffinity_variance>
0.1222842559

$$$$
[H]OC(=O)c1c([H])c([H])c([H])c(N([H])C(=O)c2c([H])c([H])c(-c3c([H])c([H])c(OC([H])([H])[H])c(OC([H])([H])[H])c3[H])c([H])c2[H])c1[H]


 30 32  0  0  0  0  0  0  0  0999 V2000
   35.2354  -14.3059   36.9755 C   0  0  0  0  0  0  0  0  0  0  0  0
   34.5820  -15.2177   36.1775 C   0  0  0  0  0  0  0  0  0  0  0  0
   35.0362  -16.5188   36.0951 C   0  0  0  0  0  0  0  0  0  0  0  0
   36.1510  -16.9466   36.8034 C   0  0  0  0  0  0  0  0  0  0  0  0
   36.7979  -16.0398   37.5949 C   0  0  0  0  0  0  0  0  0  0  0  0
   36.3396  -14.7122   37.6829 C   0  0  0  0  0  0  0  0  0  0  0  0
   33.7976  -10.3121   37.1750 C   0  0  0  0  0  0  0  0  0  0  0  0
   33.2552  -11.2911   37.9778 C   0  0  0  0  0  0  0  0  0  0  0  0
   33.7232  -12.5657   37.9056 C   0  0  0  0  0  0  0  0  0  0  0  0
   34.7396  -12.9402   37.0480 C   0  0  0  0  0  0  0  0  0  0  0  0
   35.2669  -11.9295   36.2502 C   0  0  0  0  0  0  0  0  0  0  0  0
   34.8144  -10.6352   36.3019 C   0  0  0  0  0  0  0  0  0  0  0  0
   31.9596   -8.7170   37.2475 C   0  0  0  0  0  0  0  0  0  0  0  0
   33.3377   -8.9859   37.2243 O   0  0  0  0  0  0  0  0  0  0  0  0
   35.3362   -9.6363   35.5128 O   0  0  0  0  0  0  0  0  0  0  0  0
   35.3966   -8.2778   35.8530 C   0  0  0  0  0  0  0  0  0  0  0  0
   36.5799  -18.3597   36.6741 C   0  0  0  0  0  0  0  0  0  0  0  0
   36.9656  -18.7334   35.5197 O   0  0  0  0  0  0  0  0  0  0  0  0
   36.5628  -19.2405   37.7651 N   0  0  0  0  0  0  0  0  0  0  0  0
   36.2256  -18.8037   38.6833 H   0  0  0  0  0  0  0  0  0  0  0  0
   36.9256  -20.5806   37.7973 C   0  0  0  0  0  0  0  0  0  0  0  0
   38.1282  -21.0601   38.1742 C   0  0  0  0  0  0  0  0  0  0  0  0
   38.4297  -22.4266   38.1962 C   0  0  0  0  0  0  0  0  0  0  0  0
   37.4700  -23.3348   37.8202 C   0  0  0  0  0  0  0  0  0  0  0  0
   36.2247  -22.8854   37.4270 C   0  0  0  0  0  0  0  0  0  0  0  0
   35.9703  -21.5408   37.4196 C   0  0  0  0  0  0  0  0  0  0  0  0
   35.2058  -23.8730   37.0263 C   0  0  0  0  0  0  0  0  0  0  0  0
   35.4402  -24.7912   36.0219 O   0  0  0  0  0  0  0  0  0  0  0  0
   34.0856  -23.9038   37.5955 O   0  0  0  0  0  0  0  0  0  0  0  0
   35.2765  -24.6178   35.0392 H   0  0  0  0  0  0  0  0  0  0  0  0
 13 14  1  0  0  0
 14  7  1  0  0  0
  7  8  2  0  0  0
  8  9  1  0  0  0
  9 10  2  0  0  0
 10 11  1  0  0  0
 11 12  2  0  0  0
 12 15  1  0  0  0
 15 16  1  0  0  0
 10  1  1  0  0  0
  1  2  2  0  0  0
  2  3  1  0  0  0
  3  4  2  0  0  0
  4  5  1  0  0  0
  5  6  2  0  0  0
  4 17  1  0  0  0
 17 18  2  0  0  0
 17 19  1  0  0  0
 19 21  1  0  0  0
 21 22  2  0  0  0
 22 23  1  0  0  0
 23 24  2  0  0  0
 24 25  1  0  0  0
 25 26  2  0  0  0
 25 27  1  0  0  0
 27 28  1  0  0  0
 27 29  2  0  0  0
 12  7  1  0  0  0
  6  1  1  0  0  0
 26 21  1  0  0  0
 19 20  1  0  0  0
 28 30  1  0  0  0
M  END
> <minimizedAffinity>
-7.32956

> <CNNscore>
0.5168884397

> <CNNaffinity>
5.0663414001

> <CNN_VS>
2.6187334061

> <CNNaffinity_variance>
0.1533754915

$$$$
[H]OC(=O)c1c([H])c([H])c([H])c(N([H])C(=O)c2c([H])c([H])c(-c3c([H])c([H])c(OC([H])([H])[H])c(OC([H])([H])[H])c3[H])c([H])c2[H])c1[H]


 30 32  0  0  0  0  0  0  0  0999 V2000
   35.4196  -21.0058   37.5988 C   0  0  0  0  0  0  0  0  0  0  0  0
   35.5337  -21.4949   38.8805 C   0  0  0  0  0  0  0  0  0  0  0  0
   36.7717  -21.5691   39.4873 C   0  0  0  0  0  0  0  0  0  0  0  0
   37.9271  -21.1591   38.8358 C   0  0  0  0  0  0  0  0  0  0  0  0
   37.8113  -20.6739   37.5636 C   0  0  0  0  0  0  0  0  0  0  0  0
   36.5521  -20.5959   36.9400 C   0  0  0  0  0  0  0  0  0  0  0  0
   31.5852  -20.7877   35.7800 C   0  0  0  0  0  0  0  0  0  0  0  0
   31.9302  -21.8725   36.5556 C   0  0  0  0  0  0  0  0  0  0  0  0
   33.1600  -21.9315   37.1328 C   0  0  0  0  0  0  0  0  0  0  0  0
   34.1055  -20.9362   36.9786 C   0  0  0  0  0  0  0  0  0  0  0  0
   33.7277  -19.8539   36.1899 C   0  0  0  0  0  0  0  0  0  0  0  0
   32.4941  -19.7676   35.5954 C   0  0  0  0  0  0  0  0  0  0  0  0
   29.3284  -19.8759   35.7264 C   0  0  0  0  0  0  0  0  0  0  0  0
   30.3238  -20.6950   35.1695 O   0  0  0  0  0  0  0  0  0  0  0  0
   32.1211  -18.6974   34.8156 O   0  0  0  0  0  0  0  0  0  0  0  0
   32.9951  -17.7619   34.2450 C   0  0  0  0  0  0  0  0  0  0  0  0
   39.2227  -21.2597   39.5490 C   0  0  0  0  0  0  0  0  0  0  0  0
   39.3404  -22.2154   40.3821 O   0  0  0  0  0  0  0  0  0  0  0  0
   40.2657  -20.3510   39.3195 N   0  0  0  0  0  0  0  0  0  0  0  0
   40.0462  -19.5979   38.5899 H   0  0  0  0  0  0  0  0  0  0  0  0
   41.5223  -20.3134   39.9097 C   0  0  0  0  0  0  0  0  0  0  0  0
   42.6908  -20.1413   39.2593 C   0  0  0  0  0  0  0  0  0  0  0  0
   43.9272  -20.1008   39.9139 C   0  0  0  0  0  0  0  0  0  0  0  0
   43.9718  -20.2411   41.2797 C   0  0  0  0  0  0  0  0  0  0  0  0
   42.7974  -20.4197   41.9841 C   0  0  0  0  0  0  0  0  0  0  0  0
   41.6091  -20.4533   41.3061 C   0  0  0  0  0  0  0  0  0  0  0  0
   42.8624  -20.5688   43.4496 C   0  0  0  0  0  0  0  0  0  0  0  0
   42.2366  -21.6128   44.1015 O   0  0  0  0  0  0  0  0  0  0  0  0
   43.4963  -19.7395   44.1498 O   0  0  0  0  0  0  0  0  0  0  0  0
   41.2741  -21.5986   44.4114 H   0  0  0  0  0  0  0  0  0  0  0  0
 13 14  1  0  0  0
 14  7  1  0  0  0
  7  8  2  0  0  0
  8  9  1  0  0  0
  9 10  2  0  0  0
 10 11  1  0  0  0
 11 12  2  0  0  0
 12 15  1  0  0  0
 15 16  1  0  0  0
 10  1  1  0  0  0
  1  2  2  0  0  0
  2  3  1  0  0  0
  3  4  2  0  0  0
  4  5  1  0  0  0
  5  6  2  0  0  0
  4 17  1  0  0  0
 17 18  2  0  0  0
 17 19  1  0  0  0
 19 21  1  0  0  0
 21 22  2  0  0  0
 22 23  1  0  0  0
 23 24  2  0  0  0
 24 25  1  0  0  0
 25 26  2  0  0  0
 25 27  1  0  0  0
 27 28  1  0  0  0
 27 29  2  0  0  0
 12  7  1  0  0  0
  6  1  1  0  0  0
 26 21  1  0  0  0
 19 20  1  0  0  0
 28 30  1  0  0  0
M  END
> <minimizedAffinity>
-3.71500

> <CNNscore>
0.5141849518

> <CNNaffinity>
4.1290411949

> <CNN_VS>
2.1230907440

> <CNNaffinity_variance>
0.0811525434

$$$$
[H]OC(=O)c1c([H])c([H])c([H])c(-c2c([H])c([H])c(C(=O)N([H])c3c([H])c([H])c([H])c(C(=O)O[H])c3[H])c([H])c2[H])c1[H]


 30 32  0  0  0  0  0  0  0  0999 V2000
   38.9880  -19.8409   37.2051 C   0  0  0  0  0  0  0  0  0  0  0  0
   38.6612  -18.7290   36.4660 C   0  0  0  0  0  0  0  0  0  0  0  0
   37.3569  -18.4051   36.0963 C   0  0  0  0  0  0  0  0  0  0  0  0
   36.3641  -19.2525   36.5004 C   0  0  0  0  0  0  0  0  0  0  0  0
   36.6694  -20.3725   37.2418 C   0  0  0  0  0  0  0  0  0  0  0  0
   37.9610  -20.6813   37.6007 C   0  0  0  0  0  0  0  0  0  0  0  0
   41.9314  -20.8906   39.2456 C   0  0  0  0  0  0  0  0  0  0  0  0
   42.9307  -20.7467   38.3073 C   0  0  0  0  0  0  0  0  0  0  0  0
   42.6432  -20.3078   37.0104 C   0  0  0  0  0  0  0  0  0  0  0  0
   41.3540  -20.0067   36.6334 C   0  0  0  0  0  0  0  0  0  0  0  0
   40.3611  -20.1524   37.5745 C   0  0  0  0  0  0  0  0  0  0  0  0
   40.6271  -20.5840   38.8576 C   0  0  0  0  0  0  0  0  0  0  0  0
   41.9725  -20.5432   41.6987 O   0  0  0  0  0  0  0  0  0  0  0  0
   42.2134  -21.3447   40.5960 C   0  0  0  0  0  0  0  0  0  0  0  0
   42.6868  -22.4939   40.7495 O   0  0  0  0  0  0  0  0  0  0  0  0
   42.0833  -19.5183   41.6782 H   0  0  0  0  0  0  0  0  0  0  0  0
   34.9833  -18.9710   36.1352 C   0  0  0  0  0  0  0  0  0  0  0  0
   34.6938  -17.7393   36.0577 O   0  0  0  0  0  0  0  0  0  0  0  0
   34.0913  -20.0130   35.9010 N   0  0  0  0  0  0  0  0  0  0  0  0
   34.5073  -21.0054   36.0228 H   0  0  0  0  0  0  0  0  0  0  0  0
   32.7235  -19.9476   35.5390 C   0  0  0  0  0  0  0  0  0  0  0  0
   32.2083  -19.1507   34.5645 C   0  0  0  0  0  0  0  0  0  0  0  0
   30.8446  -19.1343   34.2415 C   0  0  0  0  0  0  0  0  0  0  0  0
   29.9727  -19.9448   34.9207 C   0  0  0  0  0  0  0  0  0  0  0  0
   30.4557  -20.7711   35.9203 C   0  0  0  0  0  0  0  0  0  0  0  0
   31.7993  -20.7597   36.2085 C   0  0  0  0  0  0  0  0  0  0  0  0
   29.5216  -21.6299   36.6365 C   0  0  0  0  0  0  0  0  0  0  0  0
   29.2085  -21.3847   37.9631 O   0  0  0  0  0  0  0  0  0  0  0  0
   29.0168  -22.5929   36.0062 O   0  0  0  0  0  0  0  0  0  0  0  0
   28.3412  -21.7528   38.3286 H   0  0  0  0  0  0  0  0  0  0  0  0
 13 14  1  0  0  0
 14 15  2  0  0  0
 14  7  1  0  0  0
  7  8  2  0  0  0
  8  9  1  0  0  0
  9 10  2  0  0  0
 10 11  1  0  0  0
 11 12  2  0  0  0
 11  1  1  0  0  0
  1  2  2  0  0  0
  2  3  1  0  0  0
  3  4  2  0  0  0
  4  5  1  0  0  0
  5  6  2  0  0  0
  4 17  1  0  0  0
 17 18  2  0  0  0
 17 19  1  0  0  0
 19 21  1  0  0  0
 21 22  2  0  0  0
 22 23  1  0  0  0
 23 24  2  0  0  0
 24 25  1  0  0  0
 25 26  2  0  0  0
 25 27  1  0  0  0
 27 28  1  0  0  0
 27 29  2  0  0  0
 12  7  1  0  0  0
  6  1  1  0  0  0
 26 21  1  0  0  0
 13 16  1  0  0  0
 19 20  1  0  0  0
 28 30  1  0  0  0
M  END
> <minimizedAffinity>
-5.18671

> <CNNscore>
0.4626493156

> <CNNaffinity>
4.0316910744

> <CNN_VS>
1.8652591705

> <CNNaffinity_variance>
0.1887414157

$$$$
[H]OC(=O)c1c([H])c([H])c([H])c(-c2c([H])c([H])c(C(=O)N([H])c3c([H])c([H])c([H])c(C(=O)O[H])c3[H])c([H])c2[H])c1[H]


 30 32  0  0  0  0  0  0  0  0999 V2000
   39.0453  -19.8444   36.8207 C   0  0  0  0  0  0  0  0  0  0  0  0
   38.6113  -18.5951   36.4457 C   0  0  0  0  0  0  0  0  0  0  0  0
   37.2764  -18.2880   36.1880 C   0  0  0  0  0  0  0  0  0  0  0  0
   36.3658  -19.2981   36.3206 C   0  0  0  0  0  0  0  0  0  0  0  0
   36.7791  -20.5575   36.6954 C   0  0  0  0  0  0  0  0  0  0  0  0
   38.0998  -20.8482   36.9473 C   0  0  0  0  0  0  0  0  0  0  0  0
   42.4426  -21.3584   36.5128 C   0  0  0  0  0  0  0  0  0  0  0  0
   43.0845  -20.7059   37.5433 C   0  0  0  0  0  0  0  0  0  0  0  0
   42.4086  -19.7728   38.3369 C   0  0  0  0  0  0  0  0  0  0  0  0
   41.0827  -19.4792   38.1120 C   0  0  0  0  0  0  0  0  0  0  0  0
   40.4476  -20.1339   37.0820 C   0  0  0  0  0  0  0  0  0  0  0  0
   41.0992  -21.0566   36.2899 C   0  0  0  0  0  0  0  0  0  0  0  0
   42.6756  -23.6313   35.5538 O   0  0  0  0  0  0  0  0  0  0  0  0
   43.1300  -22.3298   35.6802 C   0  0  0  0  0  0  0  0  0  0  0  0
   44.1591  -21.9643   35.0673 O   0  0  0  0  0  0  0  0  0  0  0  0
   42.2196  -24.1404   36.3258 H   0  0  0  0  0  0  0  0  0  0  0  0
   34.9583  -19.0390   36.0544 C   0  0  0  0  0  0  0  0  0  0  0  0
   34.6610  -17.8157   35.9064 O   0  0  0  0  0  0  0  0  0  0  0  0
   34.0513  -20.0918   35.9795 N   0  0  0  0  0  0  0  0  0  0  0  0
   34.4779  -21.0737   36.1422 H   0  0  0  0  0  0  0  0  0  0  0  0
   32.6573  -20.0479   35.7323 C   0  0  0  0  0  0  0  0  0  0  0  0
   32.0440  -19.2138   34.8502 C   0  0  0  0  0  0  0  0  0  0  0  0
   30.6585  -19.2209   34.6386 C   0  0  0  0  0  0  0  0  0  0  0  0
   29.8662  -20.0945   35.3367 C   0  0  0  0  0  0  0  0  0  0  0  0
   30.4502  -20.9605   36.2446 C   0  0  0  0  0  0  0  0  0  0  0  0
   31.8121  -20.9242   36.4248 C   0  0  0  0  0  0  0  0  0  0  0  0
   29.6001  -21.8863   36.9816 C   0  0  0  0  0  0  0  0  0  0  0  0
   29.4820  -23.2081   36.5855 O   0  0  0  0  0  0  0  0  0  0  0  0
   28.9844  -21.4393   37.9820 O   0  0  0  0  0  0  0  0  0  0  0  0
   29.1851  -23.8903   37.2693 H   0  0  0  0  0  0  0  0  0  0  0  0
 13 14  1  0  0  0
 14 15  2  0  0  0
 14  7  1  0  0  0
  7  8  2  0  0  0
  8  9  1  0  0  0
  9 10  2  0  0  0
 10 11  1  0  0  0
 11 12  2  0  0  0
 11  1  1  0  0  0
  1  2  2  0  0  0
  2  3  1  0  0  0
  3  4  2  0  0  0
  4  5  1  0  0  0
  5  6  2  0  0  0
  4 17  1  0  0  0
 17 18  2  0  0  0
 17 19  1  0  0  0
 19 21  1  0  0  0
 21 22  2  0  0  0
 22 23  1  0  0  0
 23 24  2  0  0  0
 24 25  1  0  0  0
 25 26  2  0  0  0
 25 27  1  0  0  0
 27 28  1  0  0  0
 27 29  2  0  0  0
 12  7  1  0  0  0
  6  1  1  0  0  0
 26 21  1  0  0  0
 13 16  1  0  0  0
 19 20  1  0  0  0
 28 30  1  0  0  0
M  END
> <minimizedAffinity>
-5.13141

> <CNNscore>
0.4213526547

> <CNNaffinity>
4.0376491547

> <CNN_VS>
1.7012741566

> <CNNaffinity_variance>
0.2486070693

$$$$
[H]OC(=O)c1c([H])c([H])c([H])c(-c2c([H])c([H])c(C(=O)N([H])c3c([H])c([H])c([H])c(C(=O)O[H])c3[H])c([H])c2[H])c1[H]


 30 32  0  0  0  0  0  0  0  0999 V2000
   33.0470  -20.8580   36.6839 C   0  0  0  0  0  0  0  0  0  0  0  0
   33.7132  -21.5731   37.6505 C   0  0  0  0  0  0  0  0  0  0  0  0
   35.0806  -21.4537   37.8926 C   0  0  0  0  0  0  0  0  0  0  0  0
   35.7783  -20.5727   37.1154 C   0  0  0  0  0  0  0  0  0  0  0  0
   35.1305  -19.8460   36.1410 C   0  0  0  0  0  0  0  0  0  0  0  0
   33.7800  -19.9725   35.9118 C   0  0  0  0  0  0  0  0  0  0  0  0
   29.5481  -22.1226   36.9794 C   0  0  0  0  0  0  0  0  0  0  0  0
   28.9276  -21.3151   36.0506 C   0  0  0  0  0  0  0  0  0  0  0  0
   29.6510  -20.3593   35.3294 C   0  0  0  0  0  0  0  0  0  0  0  0
   31.0037  -20.1971   35.5262 C   0  0  0  0  0  0  0  0  0  0  0  0
   31.6172  -21.0061   36.4547 C   0  0  0  0  0  0  0  0  0  0  0  0
   30.9188  -21.9536   37.1744 C   0  0  0  0  0  0  0  0  0  0  0  0
   28.5459  -22.9602   39.0852 O   0  0  0  0  0  0  0  0  0  0  0  0
   28.8113  -23.1197   37.7359 C   0  0  0  0  0  0  0  0  0  0  0  0
   28.4128  -24.1448   37.1370 O   0  0  0  0  0  0  0  0  0  0  0  0
   29.1985  -22.4899   39.7302 H   0  0  0  0  0  0  0  0  0  0  0  0
   37.2114  -20.4132   37.3157 C   0  0  0  0  0  0  0  0  0  0  0  0
   37.6041  -20.5831   38.5089 O   0  0  0  0  0  0  0  0  0  0  0  0
   38.0405  -20.0972   36.2438 N   0  0  0  0  0  0  0  0  0  0  0  0
   37.5331  -19.9778   35.2945 H   0  0  0  0  0  0  0  0  0  0  0  0
   39.4434  -19.9025   36.2326 C   0  0  0  0  0  0  0  0  0  0  0  0
   40.0896  -18.8299   36.7635 C   0  0  0  0  0  0  0  0  0  0  0  0
   41.4843  -18.6941   36.7324 C   0  0  0  0  0  0  0  0  0  0  0  0
   42.2518  -19.6680   36.1487 C   0  0  0  0  0  0  0  0  0  0  0  0
   41.6338  -20.7762   35.5961 C   0  0  0  0  0  0  0  0  0  0  0  0
   40.2641  -20.8742   35.6459 C   0  0  0  0  0  0  0  0  0  0  0  0
   42.4579  -21.8069   34.9784 C   0  0  0  0  0  0  0  0  0  0  0  0
   43.7430  -21.5224   34.5474 O   0  0  0  0  0  0  0  0  0  0  0  0
   41.9586  -22.9535   34.8542 O   0  0  0  0  0  0  0  0  0  0  0  0
   44.3969  -22.2864   34.4475 H   0  0  0  0  0  0  0  0  0  0  0  0
 13 14  1  0  0  0
 14 15  2  0  0  0
 14  7  1  0  0  0
  7  8  2  0  0  0
  8  9  1  0  0  0
  9 10  2  0  0  0
 10 11  1  0  0  0
 11 12  2  0  0  0
 11  1  1  0  0  0
  1  2  2  0  0  0
  2  3  1  0  0  0
  3  4  2  0  0  0
  4  5  1  0  0  0
  5  6  2  0  0  0
  4 17  1  0  0  0
 17 18  2  0  0  0
 17 19  1  0  0  0
 19 21  1  0  0  0
 21 22  2  0  0  0
 22 23  1  0  0  0
 23 24  2  0  0  0
 24 25  1  0  0  0
 25 26  2  0  0  0
 25 27  1  0  0  0
 27 28  1  0  0  0
 27 29  2  0  0  0
 12  7  1  0  0  0
  6  1  1  0  0  0
 26 21  1  0  0  0
 13 16  1  0  0  0
 19 20  1  0  0  0
 28 30  1  0  0  0
M  END
> <minimizedAffinity>
-4.58442

> <CNNscore>
0.4091739655

> <CNNaffinity>
3.9686508179

> <CNN_VS>
1.6238685846

> <CNNaffinity_variance>
0.1974777132

$$$$
[H]OC(=O)c1c([H])c([H])c([H])c(-c2c([H])c([H])c(C(=O)N([H])c3c([H])c([H])c([H])c(C(=O)O[H])c3[H])c([H])c2[H])c1[H]


 30 32  0  0  0  0  0  0  0  0999 V2000
   34.4477  -16.5008   36.1028 C   0  0  0  0  0  0  0  0  0  0  0  0
   33.3873  -16.8455   35.2989 C   0  0  0  0  0  0  0  0  0  0  0  0
   32.9546  -18.1576   35.1143 C   0  0  0  0  0  0  0  0  0  0  0  0
   33.6355  -19.1393   35.7772 C   0  0  0  0  0  0  0  0  0  0  0  0
   34.7011  -18.8160   36.5879 C   0  0  0  0  0  0  0  0  0  0  0  0
   35.1185  -17.5169   36.7624 C   0  0  0  0  0  0  0  0  0  0  0  0
   36.6002  -13.5571   36.8968 C   0  0  0  0  0  0  0  0  0  0  0  0
   35.7181  -12.5375   36.6107 C   0  0  0  0  0  0  0  0  0  0  0  0
   34.4226  -12.8113   36.1590 C   0  0  0  0  0  0  0  0  0  0  0  0
   33.9909  -14.1071   35.9871 C   0  0  0  0  0  0  0  0  0  0  0  0
   34.8762  -15.1203   36.2744 C   0  0  0  0  0  0  0  0  0  0  0  0
   36.1570  -14.8679   36.7207 C   0  0  0  0  0  0  0  0  0  0  0  0
   38.7702  -12.3716   36.7360 O   0  0  0  0  0  0  0  0  0  0  0  0
   37.9481  -13.2895   37.3669 C   0  0  0  0  0  0  0  0  0  0  0  0
   38.3622  -13.9139   38.3704 O   0  0  0  0  0  0  0  0  0  0  0  0
   38.7515  -12.2139   35.7173 H   0  0  0  0  0  0  0  0  0  0  0  0
   33.2353  -20.5296   35.6146 C   0  0  0  0  0  0  0  0  0  0  0  0
   33.0831  -20.9025   34.4128 O   0  0  0  0  0  0  0  0  0  0  0  0
   33.0474  -21.3422   36.7285 N   0  0  0  0  0  0  0  0  0  0  0  0
   33.2112  -20.8547   37.6815 H   0  0  0  0  0  0  0  0  0  0  0  0
   32.6637  -22.7046   36.7801 C   0  0  0  0  0  0  0  0  0  0  0  0
   33.3939  -23.7431   36.2918 C   0  0  0  0  0  0  0  0  0  0  0  0
   32.9685  -25.0757   36.3795 C   0  0  0  0  0  0  0  0  0  0  0  0
   31.7711  -25.3718   36.9768 C   0  0  0  0  0  0  0  0  0  0  0  0
   30.9968  -24.3443   37.4868 C   0  0  0  0  0  0  0  0  0  0  0  0
   31.4472  -23.0502   37.3822 C   0  0  0  0  0  0  0  0  0  0  0  0
   29.7256  -24.6686   38.1207 C   0  0  0  0  0  0  0  0  0  0  0  0
   28.8667  -23.6661   38.5394 O   0  0  0  0  0  0  0  0  0  0  0  0
   29.4440  -25.8843   38.2703 O   0  0  0  0  0  0  0  0  0  0  0  0
   27.8871  -23.8877   38.6513 H   0  0  0  0  0  0  0  0  0  0  0  0
 13 14  1  0  0  0
 14 15  2  0  0  0
 14  7  1  0  0  0
  7  8  2  0  0  0
  8  9  1  0  0  0
  9 10  2  0  0  0
 10 11  1  0  0  0
 11 12  2  0  0  0
 11  1  1  0  0  0
  1  2  2  0  0  0
  2  3  1  0  0  0
  3  4  2  0  0  0
  4  5  1  0  0  0
  5  6  2  0  0  0
  4 17  1  0  0  0
 17 18  2  0  0  0
 17 19  1  0  0  0
 19 21  1  0  0  0
 21 22  2  0  0  0
 22 23  1  0  0  0
 23 24  2  0  0  0
 24 25  1  0  0  0
 25 26  2  0  0  0
 25 27  1  0  0  0
 27 28  1  0  0  0
 27 29  2  0  0  0
 12  7  1  0  0  0
  6  1  1  0  0  0
 26 21  1  0  0  0
 13 16  1  0  0  0
 19 20  1  0  0  0
 28 30  1  0  0  0
M  END
> <minimizedAffinity>
-5.56960

> <CNNscore>
0.3949461579

> <CNNaffinity>
4.1963605881

> <CNN_VS>
1.6573364735

> <CNNaffinity_variance>
0.1978426725

$$$$
[H]OC(=O)c1c([H])c([H])c([H])c(-c2c([H])c([H])c(C(=O)N([H])c3c([H])c([H])c([H])c(C(=O)O[H])c3[H])c([H])c2[H])c1[H]


 30 32  0  0  0  0  0  0  0  0999 V2000
   33.6103  -20.2689   36.6285 C   0  0  0  0  0  0  0  0  0  0  0  0
   34.0056  -21.2154   37.5436 C   0  0  0  0  0  0  0  0  0  0  0  0
   35.3089  -21.3245   38.0257 C   0  0  0  0  0  0  0  0  0  0  0  0
   36.2280  -20.4326   37.5497 C   0  0  0  0  0  0  0  0  0  0  0  0
   35.8532  -19.4759   36.6323 C   0  0  0  0  0  0  0  0  0  0  0  0
   34.5634  -19.3782   36.1641 C   0  0  0  0  0  0  0  0  0  0  0  0
   30.0278  -21.1264   36.0295 C   0  0  0  0  0  0  0  0  0  0  0  0
   29.6569  -20.0528   35.2488 C   0  0  0  0  0  0  0  0  0  0  0  0
   30.5756  -19.0506   34.9190 C   0  0  0  0  0  0  0  0  0  0  0  0
   31.8769  -19.1073   35.3644 C   0  0  0  0  0  0  0  0  0  0  0  0
   32.2407  -20.1815   36.1433 C   0  0  0  0  0  0  0  0  0  0  0  0
   31.3475  -21.1783   36.4779 C   0  0  0  0  0  0  0  0  0  0  0  0
   28.5564  -22.2810   37.6550 O   0  0  0  0  0  0  0  0  0  0  0  0
   29.0861  -22.1750   36.3804 C   0  0  0  0  0  0  0  0  0  0  0  0
   28.7552  -22.9967   35.4953 O   0  0  0  0  0  0  0  0  0  0  0  0
   29.0894  -22.0356   38.5028 H   0  0  0  0  0  0  0  0  0  0  0  0
   37.6074  -20.5046   38.0095 C   0  0  0  0  0  0  0  0  0  0  0  0
   37.7481  -20.8712   39.2147 O   0  0  0  0  0  0  0  0  0  0  0  0
   38.6531  -20.1835   37.1494 N   0  0  0  0  0  0  0  0  0  0  0  0
   38.3491  -19.8795   36.1555 H   0  0  0  0  0  0  0  0  0  0  0  0
   40.0466  -20.1912   37.4030 C   0  0  0  0  0  0  0  0  0  0  0  0
   40.7427  -21.2384   37.9215 C   0  0  0  0  0  0  0  0  0  0  0  0
   42.1260  -21.1934   38.1426 C   0  0  0  0  0  0  0  0  0  0  0  0
   42.8300  -20.0592   37.8323 C   0  0  0  0  0  0  0  0  0  0  0  0
   42.1599  -18.9703   37.3026 C   0  0  0  0  0  0  0  0  0  0  0  0
   40.8032  -19.0520   37.1000 C   0  0  0  0  0  0  0  0  0  0  0  0
   42.9167  -17.7691   36.9751 C   0  0  0  0  0  0  0  0  0  0  0  0
   42.3581  -16.7708   36.1944 O   0  0  0  0  0  0  0  0  0  0  0  0
   44.0861  -17.6777   37.4263 O   0  0  0  0  0  0  0  0  0  0  0  0
   42.7397  -15.8376   36.2614 H   0  0  0  0  0  0  0  0  0  0  0  0
 13 14  1  0  0  0
 14 15  2  0  0  0
 14  7  1  0  0  0
  7  8  2  0  0  0
  8  9  1  0  0  0
  9 10  2  0  0  0
 10 11  1  0  0  0
 11 12  2  0  0  0
 11  1  1  0  0  0
  1  2  2  0  0  0
  2  3  1  0  0  0
  3  4  2  0  0  0
  4  5  1  0  0  0
  5  6  2  0  0  0
  4 17  1  0  0  0
 17 18  2  0  0  0
 17 19  1  0  0  0
 19 21  1  0  0  0
 21 22  2  0  0  0
 22 23  1  0  0  0
 23 24  2  0  0  0
 24 25  1  0  0  0
 25 26  2  0  0  0
 25 27  1  0  0  0
 27 28  1  0  0  0
 27 29  2  0  0  0
 12  7  1  0  0  0
  6  1  1  0  0  0
 26 21  1  0  0  0
 13 16  1  0  0  0
 19 20  1  0  0  0
 28 30  1  0  0  0
M  END
> <minimizedAffinity>
-5.39944

> <CNNscore>
0.3808390498

> <CNNaffinity>
4.0495228767

> <CNN_VS>
1.5422164202

> <CNNaffinity_variance>
0.2144800872

$$$$
[H]OC(=O)c1c([H])c([H])c([H])c(-c2c([H])c([H])c(C(=O)N([H])c3c([H])c([H])c([H])c(C(=O)O[H])c3[H])c([H])c2[H])c1[H]


 30 32  0  0  0  0  0  0  0  0999 V2000
   39.7934  -19.6999   37.3392 C   0  0  0  0  0  0  0  0  0  0  0  0
   38.8887  -19.1681   36.4513 C   0  0  0  0  0  0  0  0  0  0  0  0
   37.6039  -19.6749   36.2635 C   0  0  0  0  0  0  0  0  0  0  0  0
   37.2444  -20.7598   37.0121 C   0  0  0  0  0  0  0  0  0  0  0  0
   38.1355  -21.3085   37.9078 C   0  0  0  0  0  0  0  0  0  0  0  0
   39.4010  -20.7990   38.0845 C   0  0  0  0  0  0  0  0  0  0  0  0
   43.0315  -18.7560   38.9368 C   0  0  0  0  0  0  0  0  0  0  0  0
   43.6407  -18.1217   37.8755 C   0  0  0  0  0  0  0  0  0  0  0  0
   42.9946  -18.0029   36.6403 C   0  0  0  0  0  0  0  0  0  0  0  0
   41.7317  -18.5159   36.4486 C   0  0  0  0  0  0  0  0  0  0  0  0
   41.1291  -19.1479   37.5118 C   0  0  0  0  0  0  0  0  0  0  0  0
   41.7519  -19.2738   38.7364 C   0  0  0  0  0  0  0  0  0  0  0  0
   43.1092  -18.4124   41.3896 O   0  0  0  0  0  0  0  0  0  0  0  0
   43.6886  -18.8873   40.2254 C   0  0  0  0  0  0  0  0  0  0  0  0
   44.8080  -19.4471   40.2671 O   0  0  0  0  0  0  0  0  0  0  0  0
   42.5248  -17.5634   41.4157 H   0  0  0  0  0  0  0  0  0  0  0  0
   35.9185  -21.3390   36.8514 C   0  0  0  0  0  0  0  0  0  0  0  0
   35.8198  -22.5505   37.2108 O   0  0  0  0  0  0  0  0  0  0  0  0
   34.8753  -20.5755   36.3365 N   0  0  0  0  0  0  0  0  0  0  0  0
   35.1412  -19.5599   36.0712 H   0  0  0  0  0  0  0  0  0  0  0  0
   33.5291  -20.9508   36.1060 C   0  0  0  0  0  0  0  0  0  0  0  0
   32.8547  -20.7711   34.9384 C   0  0  0  0  0  0  0  0  0  0  0  0
   31.5231  -21.1720   34.7633 C   0  0  0  0  0  0  0  0  0  0  0  0
   30.8498  -21.7719   35.7953 C   0  0  0  0  0  0  0  0  0  0  0  0
   31.4992  -21.9733   37.0007 C   0  0  0  0  0  0  0  0  0  0  0  0
   32.8051  -21.5669   37.1346 C   0  0  0  0  0  0  0  0  0  0  0  0
   30.7756  -22.6125   38.0920 C   0  0  0  0  0  0  0  0  0  0  0  0
   31.3784  -23.5918   38.8638 O   0  0  0  0  0  0  0  0  0  0  0  0
   29.5932  -22.2415   38.3015 O   0  0  0  0  0  0  0  0  0  0  0  0
   31.0113  -23.7690   39.7885 H   0  0  0  0  0  0  0  0  0  0  0  0
 13 14  1  0  0  0
 14 15  2  0  0  0
 14  7  1  0  0  0
  7  8  2  0  0  0
  8  9  1  0  0  0
  9 10  2  0  0  0
 10 11  1  0  0  0
 11 12  2  0  0  0
 11  1  1  0  0  0
  1  2  2  0  0  0
  2  3  1  0  0  0
  3  4  2  0  0  0
  4  5  1  0  0  0
  5  6  2  0  0  0
  4 17  1  0  0  0
 17 18  2  0  0  0
 17 19  1  0  0  0
 19 21  1  0  0  0
 21 22  2  0  0  0
 22 23  1  0  0  0
 23 24  2  0  0  0
 24 25  1  0  0  0
 25 26  2  0  0  0
 25 27  1  0  0  0
 27 28  1  0  0  0
 27 29  2  0  0  0
 12  7  1  0  0  0
  6  1  1  0  0  0
 26 21  1  0  0  0
 13 16  1  0  0  0
 19 20  1  0  0  0
 28 30  1  0  0  0
M  END
> <minimizedAffinity>
-5.59913

> <CNNscore>
0.3683256805

> <CNNaffinity>
3.7549262047

> <CNN_VS>
1.3830357790

> <CNNaffinity_variance>
0.2837673724

$$$$
[H]OC(=O)c1c([H])c([H])c([H])c(-c2c([H])c([H])c(C(=O)N([H])c3c([H])c([H])c([H])c(C(=O)O[H])c3[H])c([H])c2[H])c1[H]


 30 32  0  0  0  0  0  0  0  0999 V2000
   32.4278  -20.5545   35.7363 C   0  0  0  0  0  0  0  0  0  0  0  0
   31.8334  -19.3535   35.4301 C   0  0  0  0  0  0  0  0  0  0  0  0
   32.5088  -18.1343   35.4403 C   0  0  0  0  0  0  0  0  0  0  0  0
   33.8331  -18.1563   35.7761 C   0  0  0  0  0  0  0  0  0  0  0  0
   34.4486  -19.3488   36.0866 C   0  0  0  0  0  0  0  0  0  0  0  0
   33.7711  -20.5459   36.0726 C   0  0  0  0  0  0  0  0  0  0  0  0
   31.1719  -23.8791   34.5970 C   0  0  0  0  0  0  0  0  0  0  0  0
   30.3314  -24.1844   35.6458 C   0  0  0  0  0  0  0  0  0  0  0  0
   30.1756  -23.3057   36.7232 C   0  0  0  0  0  0  0  0  0  0  0  0
   30.8570  -22.1105   36.7675 C   0  0  0  0  0  0  0  0  0  0  0  0
   31.6944  -21.8117   35.7176 C   0  0  0  0  0  0  0  0  0  0  0  0
   31.8597  -22.6667   34.6475 C   0  0  0  0  0  0  0  0  0  0  0  0
   32.1768  -24.4684   32.4099 O   0  0  0  0  0  0  0  0  0  0  0  0
   31.3443  -24.7803   33.4711 C   0  0  0  0  0  0  0  0  0  0  0  0
   30.7164  -25.8638   33.4760 O   0  0  0  0  0  0  0  0  0  0  0  0
   32.3079  -23.5044   32.0685 H   0  0  0  0  0  0  0  0  0  0  0  0
   34.5877  -16.9120   35.8138 C   0  0  0  0  0  0  0  0  0  0  0  0
   35.7288  -16.9647   35.2644 O   0  0  0  0  0  0  0  0  0  0  0  0
   34.0497  -15.7812   36.4206 N   0  0  0  0  0  0  0  0  0  0  0  0
   33.0650  -15.9188   36.8498 H   0  0  0  0  0  0  0  0  0  0  0  0
   34.6183  -14.4913   36.5592 C   0  0  0  0  0  0  0  0  0  0  0  0
   33.9522  -13.3186   36.3830 C   0  0  0  0  0  0  0  0  0  0  0  0
   34.5646  -12.0681   36.5434 C   0  0  0  0  0  0  0  0  0  0  0  0
   35.8882  -11.9961   36.8914 C   0  0  0  0  0  0  0  0  0  0  0  0
   36.6030  -13.1661   37.0801 C   0  0  0  0  0  0  0  0  0  0  0  0
   35.9681  -14.3735   36.9140 C   0  0  0  0  0  0  0  0  0  0  0  0
   38.0095  -13.0799   37.4507 C   0  0  0  0  0  0  0  0  0  0  0  0
   38.4904  -13.7465   38.5653 O   0  0  0  0  0  0  0  0  0  0  0  0
   38.7604  -12.3819   36.7238 O   0  0  0  0  0  0  0  0  0  0  0  0
   39.4779  -13.9560   38.6114 H   0  0  0  0  0  0  0  0  0  0  0  0
 13 14  1  0  0  0
 14 15  2  0  0  0
 14  7  1  0  0  0
  7  8  2  0  0  0
  8  9  1  0  0  0
  9 10  2  0  0  0
 10 11  1  0  0  0
 11 12  2  0  0  0
 11  1  1  0  0  0
  1  2  2  0  0  0
  2  3  1  0  0  0
  3  4  2  0  0  0
  4  5  1  0  0  0
  5  6  2  0  0  0
  4 17  1  0  0  0
 17 18  2  0  0  0
 17 19  1  0  0  0
 19 21  1  0  0  0
 21 22  2  0  0  0
 22 23  1  0  0  0
 23 24  2  0  0  0
 24 25  1  0  0  0
 25 26  2  0  0  0
 25 27  1  0  0  0
 27 28  1  0  0  0
 27 29  2  0  0  0
 12  7  1  0  0  0
  6  1  1  0  0  0
 26 21  1  0  0  0
 13 16  1  0  0  0
 19 20  1  0  0  0
 28 30  1  0  0  0
M  END
> <minimizedAffinity>
-5.79825

> <CNNscore>
0.3653560877

> <CNNaffinity>
4.3334641457

> <CNN_VS>
1.5832575560

> <CNNaffinity_variance>
0.2024655789

$$$$
[H]OC(=O)c1c([H])c([H])c([H])c(-c2c([H])c([H])c(C(=O)N([H])c3c([H])c([H])c([H])c(C(=O)O[H])c3[H])c([H])c2[H])c1[H]


 30 32  0  0  0  0  0  0  0  0999 V2000
   40.1461  -21.4374   35.1092 C   0  0  0  0  0  0  0  0  0  0  0  0
   39.2483  -21.1219   34.1173 C   0  0  0  0  0  0  0  0  0  0  0  0
   38.4010  -20.0163   34.1677 C   0  0  0  0  0  0  0  0  0  0  0  0
   38.4829  -19.2159   35.2721 C   0  0  0  0  0  0  0  0  0  0  0  0
   39.3757  -19.5138   36.2779 C   0  0  0  0  0  0  0  0  0  0  0  0
   40.2071  -20.6080   36.2164 C   0  0  0  0  0  0  0  0  0  0  0  0
   42.6986  -23.9948   36.0437 C   0  0  0  0  0  0  0  0  0  0  0  0
   42.6713  -24.7787   34.9103 C   0  0  0  0  0  0  0  0  0  0  0  0
   41.8202  -24.4722   33.8431 C   0  0  0  0  0  0  0  0  0  0  0  0
   40.9853  -23.3790   33.8934 C   0  0  0  0  0  0  0  0  0  0  0  0
   41.0174  -22.6006   35.0275 C   0  0  0  0  0  0  0  0  0  0  0  0
   41.8504  -22.8885   36.0889 C   0  0  0  0  0  0  0  0  0  0  0  0
   44.1066  -25.5646   37.3451 O   0  0  0  0  0  0  0  0  0  0  0  0
   43.5765  -24.2992   37.1600 C   0  0  0  0  0  0  0  0  0  0  0  0
   43.8511  -23.3819   37.9670 O   0  0  0  0  0  0  0  0  0  0  0  0
   43.5948  -26.4252   37.0992 H   0  0  0  0  0  0  0  0  0  0  0  0
   37.6152  -18.0525   35.3849 C   0  0  0  0  0  0  0  0  0  0  0  0
   36.8102  -17.8933   34.4188 O   0  0  0  0  0  0  0  0  0  0  0  0
   37.7057  -17.2122   36.4904 N   0  0  0  0  0  0  0  0  0  0  0  0
   38.4582  -17.4935   37.2166 H   0  0  0  0  0  0  0  0  0  0  0  0
   36.9594  -16.0444   36.7825 C   0  0  0  0  0  0  0  0  0  0  0  0
   37.3864  -15.0170   37.5649 C   0  0  0  0  0  0  0  0  0  0  0  0
   36.6073  -13.8785   37.8121 C   0  0  0  0  0  0  0  0  0  0  0  0
   35.3599  -13.7711   37.2548 C   0  0  0  0  0  0  0  0  0  0  0  0
   34.8868  -14.7945   36.4521 C   0  0  0  0  0  0  0  0  0  0  0  0
   35.6798  -15.8952   36.2326 C   0  0  0  0  0  0  0  0  0  0  0  0
   33.5598  -14.6713   35.8633 C   0  0  0  0  0  0  0  0  0  0  0  0
   32.7202  -13.6296   36.2208 O   0  0  0  0  0  0  0  0  0  0  0  0
   33.2125  -15.5415   35.0256 O   0  0  0  0  0  0  0  0  0  0  0  0
   31.9816  -13.3667   35.5832 H   0  0  0  0  0  0  0  0  0  0  0  0
 13 14  1  0  0  0
 14 15  2  0  0  0
 14  7  1  0  0  0
  7  8  2  0  0  0
  8  9  1  0  0  0
  9 10  2  0  0  0
 10 11  1  0  0  0
 11 12  2  0  0  0
 11  1  1  0  0  0
  1  2  2  0  0  0
  2  3  1  0  0  0
  3  4  2  0  0  0
  4  5  1  0  0  0
  5  6  2  0  0  0
  4 17  1  0  0  0
 17 18  2  0  0  0
 17 19  1  0  0  0
 19 21  1  0  0  0
 21 22  2  0  0  0
 22 23  1  0  0  0
 23 24  2  0  0  0
 24 25  1  0  0  0
 25 26  2  0  0  0
 25 27  1  0  0  0
 27 28  1  0  0  0
 27 29  2  0  0  0
 12  7  1  0  0  0
  6  1  1  0  0  0
 26 21  1  0  0  0
 13 16  1  0  0  0
 19 20  1  0  0  0
 28 30  1  0  0  0
M  END
> <minimizedAffinity>
-5.30804

> <CNNscore>
0.3487825096

> <CNNaffinity>
4.0912208557

> <CNN_VS>
1.4269462824

> <CNNaffinity_variance>
0.2241686583

$$$$
[H]OC(=O)c1c([H])c([H])c([H])c(-c2c([H])c([H])c(C(=O)N([H])c3c([H])c([H])c([H])c(C(=O)O[H])c3[H])c([H])c2[H])c1[H]


 30 32  0  0  0  0  0  0  0  0999 V2000
   33.7870  -19.6686   35.2683 C   0  0  0  0  0  0  0  0  0  0  0  0
   34.6160  -20.0045   36.3120 C   0  0  0  0  0  0  0  0  0  0  0  0
   35.9985  -19.8285   36.2859 C   0  0  0  0  0  0  0  0  0  0  0  0
   36.5387  -19.2917   35.1514 C   0  0  0  0  0  0  0  0  0  0  0  0
   35.7262  -18.9480   34.0936 C   0  0  0  0  0  0  0  0  0  0  0  0
   34.3628  -19.1264   34.1316 C   0  0  0  0  0  0  0  0  0  0  0  0
   30.4590  -21.0323   36.2650 C   0  0  0  0  0  0  0  0  0  0  0  0
   29.6416  -20.2668   35.4616 C   0  0  0  0  0  0  0  0  0  0  0  0
   30.1769  -19.3067   34.5961 C   0  0  0  0  0  0  0  0  0  0  0  0
   31.5355  -19.0985   34.5215 C   0  0  0  0  0  0  0  0  0  0  0  0
   32.3460  -19.8659   35.3260 C   0  0  0  0  0  0  0  0  0  0  0  0
   31.8347  -20.8168   36.1849 C   0  0  0  0  0  0  0  0  0  0  0  0
   30.1275  -23.3864   36.9640 O   0  0  0  0  0  0  0  0  0  0  0  0
   29.9190  -22.0332   37.1684 C   0  0  0  0  0  0  0  0  0  0  0  0
   29.2496  -21.6452   38.1530 O   0  0  0  0  0  0  0  0  0  0  0  0
   30.1875  -23.8058   36.0241 H   0  0  0  0  0  0  0  0  0  0  0  0
   37.9783  -19.0941   35.0625 C   0  0  0  0  0  0  0  0  0  0  0  0
   38.3565  -18.3624   34.0991 O   0  0  0  0  0  0  0  0  0  0  0  0
   38.8283  -19.6877   35.9907 N   0  0  0  0  0  0  0  0  0  0  0  0
   38.3335  -20.2903   36.7422 H   0  0  0  0  0  0  0  0  0  0  0  0
   40.2405  -19.6173   36.0748 C   0  0  0  0  0  0  0  0  0  0  0  0
   40.9381  -18.6787   36.7694 C   0  0  0  0  0  0  0  0  0  0  0  0
   42.3384  -18.6635   36.8258 C   0  0  0  0  0  0  0  0  0  0  0  0
   43.0585  -19.6225   36.1624 C   0  0  0  0  0  0  0  0  0  0  0  0
   42.3875  -20.5961   35.4433 C   0  0  0  0  0  0  0  0  0  0  0  0
   41.0138  -20.5784   35.4114 C   0  0  0  0  0  0  0  0  0  0  0  0
   43.1613  -21.6120   34.7418 C   0  0  0  0  0  0  0  0  0  0  0  0
   44.5266  -21.7274   34.9437 O   0  0  0  0  0  0  0  0  0  0  0  0
   42.5440  -22.3716   33.9535 O   0  0  0  0  0  0  0  0  0  0  0  0
   44.9708  -22.6105   34.7341 H   0  0  0  0  0  0  0  0  0  0  0  0
 13 14  1  0  0  0
 14 15  2  0  0  0
 14  7  1  0  0  0
  7  8  2  0  0  0
  8  9  1  0  0  0
  9 10  2  0  0  0
 10 11  1  0  0  0
 11 12  2  0  0  0
 11  1  1  0  0  0
  1  2  2  0  0  0
  2  3  1  0  0  0
  3  4  2  0  0  0
  4  5  1  0  0  0
  5  6  2  0  0  0
  4 17  1  0  0  0
 17 18  2  0  0  0
 17 19  1  0  0  0
 19 21  1  0  0  0
 21 22  2  0  0  0
 22 23  1  0  0  0
 23 24  2  0  0  0
 24 25  1  0  0  0
 25 26  2  0  0  0
 25 27  1  0  0  0
 27 28  1  0  0  0
 27 29  2  0  0  0
 12  7  1  0  0  0
  6  1  1  0  0  0
 26 21  1  0  0  0
 13 16  1  0  0  0
 19 20  1  0  0  0
 28 30  1  0  0  0
M  END
> <minimizedAffinity>
-5.84046

> <CNNscore>
0.3351249099

> <CNNaffinity>
3.9741725922

> <CNN_VS>
1.3318442106

> <CNNaffinity_variance>
0.4446966648

$$$$
[H]OC(=O)c1c([H])c([H])c([H])c(C(=O)N([H])c2c([H])c([H])c([H])c(C(F)(F)F)c2[H])c1[H]


 24 25  0  0  0  0  0  0  0  0999 V2000
   33.9869  -17.3425   35.4386 C   0  0  0  0  0  0  0  0  0  0  0  0
   35.1479  -17.3731   35.0396 O   0  0  0  0  0  0  0  0  0  0  0  0
   33.4076  -16.2265   36.0769 N   0  0  0  0  0  0  0  0  0  0  0  0
   32.3787  -16.2914   36.3732 H   0  0  0  0  0  0  0  0  0  0  0  0
   32.2369  -20.5999   36.0681 C   0  0  0  0  0  0  0  0  0  0  0  0
   31.5470  -20.8371   34.8820 C   0  0  0  0  0  0  0  0  0  0  0  0
   31.6673  -19.8982   33.8714 C   0  0  0  0  0  0  0  0  0  0  0  0
   32.4565  -18.7683   34.0599 C   0  0  0  0  0  0  0  0  0  0  0  0
   33.1406  -18.5371   35.2376 C   0  0  0  0  0  0  0  0  0  0  0  0
   33.0128  -19.4824   36.2411 C   0  0  0  0  0  0  0  0  0  0  0  0
   33.3077  -22.1766   37.6617 O   0  0  0  0  0  0  0  0  0  0  0  0
   32.1751  -21.5805   37.1571 C   0  0  0  0  0  0  0  0  0  0  0  0
   31.0762  -21.8932   37.6544 O   0  0  0  0  0  0  0  0  0  0  0  0
   33.5399  -23.1547   37.4618 H   0  0  0  0  0  0  0  0  0  0  0  0
   34.0618  -15.0008   36.3553 C   0  0  0  0  0  0  0  0  0  0  0  0
   33.5382  -13.7397   36.2200 C   0  0  0  0  0  0  0  0  0  0  0  0
   34.2480  -12.5762   36.4985 C   0  0  0  0  0  0  0  0  0  0  0  0
   35.5392  -12.7125   36.9288 C   0  0  0  0  0  0  0  0  0  0  0  0
   36.1134  -13.9719   37.0771 C   0  0  0  0  0  0  0  0  0  0  0  0
   35.3857  -15.0805   36.7989 C   0  0  0  0  0  0  0  0  0  0  0  0
   37.5218  -14.1188   37.5034 C   0  0  0  0  0  0  0  0  0  0  0  0
   38.2716  -13.2476   36.7497 F   0  0  0  0  0  0  0  0  0  0  0  0
   37.5961  -13.9384   38.8403 F   0  0  0  0  0  0  0  0  0  0  0  0
   37.9077  -15.4744   37.2724 F   0  0  0  0  0  0  0  0  0  0  0  0
 11 12  1  0  0  0
 12 13  2  0  0  0
 12  5  1  0  0  0
  5  6  2  0  0  0
  6  7  1  0  0  0
  7  8  2  0  0  0
  8  9  1  0  0  0
  9 10  2  0  0  0
  9  1  1  0  0  0
  1  2  2  0  0  0
  1  3  1  0  0  0
  3 15  1  0  0  0
 15 16  2  0  0  0
 16 17  1  0  0  0
 17 18  2  0  0  0
 18 19  1  0  0  0
 19 20  2  0  0  0
 19 21  1  0  0  0
 21 22  1  0  0  0
 21 23  1  0  0  0
 21 24  1  0  0  0
 10  5  1  0  0  0
 20 15  1  0  0  0
 11 14  1  0  0  0
  3  4  1  0  0  0
M  END
> <minimizedAffinity>
-7.03886

> <CNNscore>
0.7100036740

> <CNNaffinity>
4.2479724884

> <CNN_VS>
3.0160760880

> <CNNaffinity_variance>
0.3190405965

$$$$
[H]OC(=O)c1c([H])c([H])c([H])c(C(=O)N([H])c2c([H])c([H])c([H])c(C(F)(F)F)c2[H])c1[H]


 24 25  0  0  0  0  0  0  0  0999 V2000
   34.2022  -17.3736   35.9179 C   0  0  0  0  0  0  0  0  0  0  0  0
   35.2482  -17.5586   36.5341 O   0  0  0  0  0  0  0  0  0  0  0  0
   33.6539  -16.0980   35.6714 N   0  0  0  0  0  0  0  0  0  0  0  0
   32.7435  -16.0396   35.1071 H   0  0  0  0  0  0  0  0  0  0  0  0
   32.8206  -20.8480   35.6198 C   0  0  0  0  0  0  0  0  0  0  0  0
   32.1072  -20.8167   34.4243 C   0  0  0  0  0  0  0  0  0  0  0  0
   32.0875  -19.6246   33.7203 C   0  0  0  0  0  0  0  0  0  0  0  0
   32.7656  -18.5136   34.2114 C   0  0  0  0  0  0  0  0  0  0  0  0
   33.4734  -18.5489   35.3972 C   0  0  0  0  0  0  0  0  0  0  0  0
   33.4860  -19.7461   36.0927 C   0  0  0  0  0  0  0  0  0  0  0  0
   33.4407  -23.2430   35.8475 O   0  0  0  0  0  0  0  0  0  0  0  0
   32.9061  -22.0956   36.3864 C   0  0  0  0  0  0  0  0  0  0  0  0
   32.4913  -22.1368   37.5607 O   0  0  0  0  0  0  0  0  0  0  0  0
   32.8533  -24.0361   35.5708 H   0  0  0  0  0  0  0  0  0  0  0  0
   34.2083  -14.8638   36.0923 C   0  0  0  0  0  0  0  0  0  0  0  0
   35.5079  -14.4510   35.9391 C   0  0  0  0  0  0  0  0  0  0  0  0
   35.9866  -13.2265   36.3938 C   0  0  0  0  0  0  0  0  0  0  0  0
   35.1013  -12.3991   37.0282 C   0  0  0  0  0  0  0  0  0  0  0  0
   33.7740  -12.7777   37.2096 C   0  0  0  0  0  0  0  0  0  0  0  0
   33.3472  -13.9779   36.7477 C   0  0  0  0  0  0  0  0  0  0  0  0
   32.8262  -11.9012   37.9310 C   0  0  0  0  0  0  0  0  0  0  0  0
   33.4308  -10.6754   38.0771 F   0  0  0  0  0  0  0  0  0  0  0  0
   31.6488  -11.8898   37.2685 F   0  0  0  0  0  0  0  0  0  0  0  0
   32.5537  -12.5031   39.1971 F   0  0  0  0  0  0  0  0  0  0  0  0
 11 12  1  0  0  0
 12 13  2  0  0  0
 12  5  1  0  0  0
  5  6  2  0  0  0
  6  7  1  0  0  0
  7  8  2  0  0  0
  8  9  1  0  0  0
  9 10  2  0  0  0
  9  1  1  0  0  0
  1  2  2  0  0  0
  1  3  1  0  0  0
  3 15  1  0  0  0
 15 16  2  0  0  0
 16 17  1  0  0  0
 17 18  2  0  0  0
 18 19  1  0  0  0
 19 20  2  0  0  0
 19 21  1  0  0  0
 21 22  1  0  0  0
 21 23  1  0  0  0
 21 24  1  0  0  0
 10  5  1  0  0  0
 20 15  1  0  0  0
 11 14  1  0  0  0
  3  4  1  0  0  0
M  END
> <minimizedAffinity>
-7.68704

> <CNNscore>
0.5966639519

> <CNNaffinity>
4.2087688446

> <CNN_VS>
2.5112206936

> <CNNaffinity_variance>
0.5848146677

$$$$
[H]OC(=O)c1c([H])c([H])c([H])c(C(=O)N([H])c2c([H])c([H])c([H])c(C(F)(F)F)c2[H])c1[H]


 24 25  0  0  0  0  0  0  0  0999 V2000
   32.0429  -12.7219   38.3925 C   0  0  0  0  0  0  0  0  0  0  0  0
   32.6693  -12.7416   39.4485 O   0  0  0  0  0  0  0  0  0  0  0  0
   32.5938  -13.0932   37.1485 N   0  0  0  0  0  0  0  0  0  0  0  0
   31.9591  -13.0591   36.2843 H   0  0  0  0  0  0  0  0  0  0  0  0
   28.3924  -12.5733   39.2417 C   0  0  0  0  0  0  0  0  0  0  0  0
   27.9211  -11.5065   38.4810 C   0  0  0  0  0  0  0  0  0  0  0  0
   28.8330  -10.8340   37.6851 C   0  0  0  0  0  0  0  0  0  0  0  0
   30.1659  -11.2313   37.6638 C   0  0  0  0  0  0  0  0  0  0  0  0
   30.6296  -12.2912   38.4189 C   0  0  0  0  0  0  0  0  0  0  0  0
   29.7090  -12.9560   39.2110 C   0  0  0  0  0  0  0  0  0  0  0  0
   27.0311  -14.5986   39.7075 O   0  0  0  0  0  0  0  0  0  0  0  0
   27.4621  -13.3443   40.0732 C   0  0  0  0  0  0  0  0  0  0  0  0
   27.0415  -12.8687   41.1454 O   0  0  0  0  0  0  0  0  0  0  0  0
   26.0802  -14.7656   39.3632 H   0  0  0  0  0  0  0  0  0  0  0  0
   33.9242  -13.5290   36.9298 C   0  0  0  0  0  0  0  0  0  0  0  0
   35.0687  -12.7890   37.0885 C   0  0  0  0  0  0  0  0  0  0  0  0
   36.3458  -13.2809   36.8387 C   0  0  0  0  0  0  0  0  0  0  0  0
   36.4505  -14.5756   36.4100 C   0  0  0  0  0  0  0  0  0  0  0  0
   35.3164  -15.3627   36.2312 C   0  0  0  0  0  0  0  0  0  0  0  0
   34.0908  -14.8460   36.4899 C   0  0  0  0  0  0  0  0  0  0  0  0
   35.4260  -16.7494   35.7292 C   0  0  0  0  0  0  0  0  0  0  0  0
   36.5423  -16.8092   34.9294 F   0  0  0  0  0  0  0  0  0  0  0  0
   35.4220  -17.5977   36.7807 F   0  0  0  0  0  0  0  0  0  0  0  0
   34.2386  -17.0405   34.9908 F   0  0  0  0  0  0  0  0  0  0  0  0
 11 12  1  0  0  0
 12 13  2  0  0  0
 12  5  1  0  0  0
  5  6  2  0  0  0
  6  7  1  0  0  0
  7  8  2  0  0  0
  8  9  1  0  0  0
  9 10  2  0  0  0
  9  1  1  0  0  0
  1  2  2  0  0  0
  1  3  1  0  0  0
  3 15  1  0  0  0
 15 16  2  0  0  0
 16 17  1  0  0  0
 17 18  2  0  0  0
 18 19  1  0  0  0
 19 20  2  0  0  0
 19 21  1  0  0  0
 21 22  1  0  0  0
 21 23  1  0  0  0
 21 24  1  0  0  0
 10  5  1  0  0  0
 20 15  1  0  0  0
 11 14  1  0  0  0
  3  4  1  0  0  0
M  END
> <minimizedAffinity>
-8.56799

> <CNNscore>
0.4656286538

> <CNNaffinity>
4.4740977287

> <CNN_VS>
2.0832681656

> <CNNaffinity_variance>
0.5023158789

$$$$
[H]OC(=O)c1c([H])c([H])c([H])c(C(=O)N([H])c2c([H])c([H])c([H])c(C(F)(F)F)c2[H])c1[H]


 24 25  0  0  0  0  0  0  0  0999 V2000
   34.5119  -16.2883   35.9552 C   0  0  0  0  0  0  0  0  0  0  0  0
   35.4948  -16.9743   36.2222 O   0  0  0  0  0  0  0  0  0  0  0  0
   33.3530  -16.7913   35.3287 N   0  0  0  0  0  0  0  0  0  0  0  0
   32.5390  -16.1148   35.1537 H   0  0  0  0  0  0  0  0  0  0  0  0
   33.3995  -12.9051   37.1323 C   0  0  0  0  0  0  0  0  0  0  0  0
   34.5379  -12.1162   36.9883 C   0  0  0  0  0  0  0  0  0  0  0  0
   35.6816  -12.7240   36.4989 C   0  0  0  0  0  0  0  0  0  0  0  0
   35.6665  -14.0754   36.1693 C   0  0  0  0  0  0  0  0  0  0  0  0
   34.5347  -14.8546   36.3123 C   0  0  0  0  0  0  0  0  0  0  0  0
   33.3971  -14.2363   36.8027 C   0  0  0  0  0  0  0  0  0  0  0  0
   31.9758  -11.9425   38.9265 O   0  0  0  0  0  0  0  0  0  0  0  0
   32.1501  -12.3035   37.6104 C   0  0  0  0  0  0  0  0  0  0  0  0
   31.2101  -12.1028   36.8174 O   0  0  0  0  0  0  0  0  0  0  0  0
   31.3774  -12.4809   39.5610 H   0  0  0  0  0  0  0  0  0  0  0  0
   33.1516  -18.1314   34.9148 C   0  0  0  0  0  0  0  0  0  0  0  0
   33.8888  -18.8259   33.9891 C   0  0  0  0  0  0  0  0  0  0  0  0
   33.6217  -20.1402   33.6196 C   0  0  0  0  0  0  0  0  0  0  0  0
   32.5611  -20.7613   34.2199 C   0  0  0  0  0  0  0  0  0  0  0  0
   31.7828  -20.0945   35.1620 C   0  0  0  0  0  0  0  0  0  0  0  0
   32.0796  -18.8155   35.4966 C   0  0  0  0  0  0  0  0  0  0  0  0
   30.6117  -20.7516   35.7815 C   0  0  0  0  0  0  0  0  0  0  0  0
   30.9761  -21.1256   37.0530 F   0  0  0  0  0  0  0  0  0  0  0  0
   29.5508  -19.9185   35.7056 F   0  0  0  0  0  0  0  0  0  0  0  0
   30.2738  -21.8848   34.9806 F   0  0  0  0  0  0  0  0  0  0  0  0
 11 12  1  0  0  0
 12 13  2  0  0  0
 12  5  1  0  0  0
  5  6  2  0  0  0
  6  7  1  0  0  0
  7  8  2  0  0  0
  8  9  1  0  0  0
  9 10  2  0  0  0
  9  1  1  0  0  0
  1  2  2  0  0  0
  1  3  1  0  0  0
  3 15  1  0  0  0
 15 16  2  0  0  0
 16 17  1  0  0  0
 17 18  2  0  0  0
 18 19  1  0  0  0
 19 20  2  0  0  0
 19 21  1  0  0  0
 21 22  1  0  0  0
 21 23  1  0  0  0
 21 24  1  0  0  0
 10  5  1  0  0  0
 20 15  1  0  0  0
 11 14  1  0  0  0
  3  4  1  0  0  0
M  END
> <minimizedAffinity>
-7.86531

> <CNNscore>
0.4523941576

> <CNNaffinity>
4.4009056091

> <CNN_VS>
1.9909440279

> <CNNaffinity_variance>
0.4102770388

$$$$
[H]OC(=O)c1c([H])c([H])c([H])c(C(=O)N([H])c2c([H])c([H])c([H])c(C(F)(F)F)c2[H])c1[H]


 24 25  0  0  0  0  0  0  0  0999 V2000
   33.1266  -12.6410   37.6645 C   0  0  0  0  0  0  0  0  0  0  0  0
   33.3994  -13.1723   38.7375 O   0  0  0  0  0  0  0  0  0  0  0  0
   33.5798  -13.1179   36.4172 N   0  0  0  0  0  0  0  0  0  0  0  0
   33.2717  -12.5937   35.5334 H   0  0  0  0  0  0  0  0  0  0  0  0
   30.0971  -10.4397   37.8784 C   0  0  0  0  0  0  0  0  0  0  0  0
   30.6059   -9.1595   37.6752 C   0  0  0  0  0  0  0  0  0  0  0  0
   31.9697   -9.0365   37.4704 C   0  0  0  0  0  0  0  0  0  0  0  0
   32.7797  -10.1675   37.4710 C   0  0  0  0  0  0  0  0  0  0  0  0
   32.2710  -11.4362   37.6716 C   0  0  0  0  0  0  0  0  0  0  0  0
   30.9061  -11.5471   37.8756 C   0  0  0  0  0  0  0  0  0  0  0  0
   27.9375  -11.5210   37.2963 O   0  0  0  0  0  0  0  0  0  0  0  0
   28.6546  -10.6313   38.0622 C   0  0  0  0  0  0  0  0  0  0  0  0
   28.0443   -9.9819   38.9332 O   0  0  0  0  0  0  0  0  0  0  0  0
   27.2979  -11.2082   36.5589 H   0  0  0  0  0  0  0  0  0  0  0  0
   34.4050  -14.2520   36.2152 C   0  0  0  0  0  0  0  0  0  0  0  0
   35.7640  -14.3221   36.3910 C   0  0  0  0  0  0  0  0  0  0  0  0
   36.5134  -15.4705   36.1570 C   0  0  0  0  0  0  0  0  0  0  0  0
   35.8448  -16.5835   35.7267 C   0  0  0  0  0  0  0  0  0  0  0  0
   34.4668  -16.5578   35.5309 C   0  0  0  0  0  0  0  0  0  0  0  0
   33.7735  -15.4194   35.7744 C   0  0  0  0  0  0  0  0  0  0  0  0
   33.7491  -17.7486   35.0272 C   0  0  0  0  0  0  0  0  0  0  0  0
   34.6885  -18.7232   34.7882 F   0  0  0  0  0  0  0  0  0  0  0  0
   32.7812  -18.0823   35.9086 F   0  0  0  0  0  0  0  0  0  0  0  0
   33.0699  -17.3730   33.8282 F   0  0  0  0  0  0  0  0  0  0  0  0
 11 12  1  0  0  0
 12 13  2  0  0  0
 12  5  1  0  0  0
  5  6  2  0  0  0
  6  7  1  0  0  0
  7  8  2  0  0  0
  8  9  1  0  0  0
  9 10  2  0  0  0
  9  1  1  0  0  0
  1  2  2  0  0  0
  1  3  1  0  0  0
  3 15  1  0  0  0
 15 16  2  0  0  0
 16 17  1  0  0  0
 17 18  2  0  0  0
 18 19  1  0  0  0
 19 20  2  0  0  0
 19 21  1  0  0  0
 21 22  1  0  0  0
 21 23  1  0  0  0
 21 24  1  0  0  0
 10  5  1  0  0  0
 20 15  1  0  0  0
 11 14  1  0  0  0
  3  4  1  0  0  0
M  END
> <minimizedAffinity>
-8.77492

> <CNNscore>
0.4445163906

> <CNNaffinity>
4.6214876175

> <CNN_VS>
2.0543270111

> <CNNaffinity_variance>
0.4367640913

$$$$
[H]OC(=O)c1c([H])c([H])c([H])c(C(=O)N([H])c2c([H])c([H])c([H])c(C(F)(F)F)c2[H])c1[H]


 24 25  0  0  0  0  0  0  0  0999 V2000
   33.2703  -17.4954   34.7189 C   0  0  0  0  0  0  0  0  0  0  0  0
   33.0391  -16.6959   33.8160 O   0  0  0  0  0  0  0  0  0  0  0  0
   34.0719  -17.1992   35.8406 N   0  0  0  0  0  0  0  0  0  0  0  0
   34.1998  -17.9603   36.5857 H   0  0  0  0  0  0  0  0  0  0  0  0
   30.8418  -20.3317   35.0760 C   0  0  0  0  0  0  0  0  0  0  0  0
   31.5122  -21.4119   34.5080 C   0  0  0  0  0  0  0  0  0  0  0  0
   32.7803  -21.1849   34.0007 C   0  0  0  0  0  0  0  0  0  0  0  0
   33.3418  -19.9140   34.0700 C   0  0  0  0  0  0  0  0  0  0  0  0
   32.6741  -18.8450   34.6355 C   0  0  0  0  0  0  0  0  0  0  0  0
   31.4068  -19.0836   35.1392 C   0  0  0  0  0  0  0  0  0  0  0  0
   28.8400  -21.7211   35.5601 O   0  0  0  0  0  0  0  0  0  0  0  0
   29.5114  -20.5247   35.6626 C   0  0  0  0  0  0  0  0  0  0  0  0
   28.9586  -19.5924   36.2774 O   0  0  0  0  0  0  0  0  0  0  0  0
   28.0354  -21.8389   34.9361 H   0  0  0  0  0  0  0  0  0  0  0  0
   34.7236  -15.9657   36.0893 C   0  0  0  0  0  0  0  0  0  0  0  0
   36.0674  -15.7093   35.9830 C   0  0  0  0  0  0  0  0  0  0  0  0
   36.6405  -14.4724   36.2598 C   0  0  0  0  0  0  0  0  0  0  0  0
   35.8058  -13.4657   36.6607 C   0  0  0  0  0  0  0  0  0  0  0  0
   34.4362  -13.6809   36.7863 C   0  0  0  0  0  0  0  0  0  0  0  0
   33.9176  -14.9002   36.5028 C   0  0  0  0  0  0  0  0  0  0  0  0
   33.5385  -12.6047   37.2584 C   0  0  0  0  0  0  0  0  0  0  0  0
   32.3942  -12.6622   36.4990 F   0  0  0  0  0  0  0  0  0  0  0  0
   33.3559  -12.7392   38.5902 F   0  0  0  0  0  0  0  0  0  0  0  0
   34.2194  -11.3615   37.0833 F   0  0  0  0  0  0  0  0  0  0  0  0
 11 12  1  0  0  0
 12 13  2  0  0  0
 12  5  1  0  0  0
  5  6  2  0  0  0
  6  7  1  0  0  0
  7  8  2  0  0  0
  8  9  1  0  0  0
  9 10  2  0  0  0
  9  1  1  0  0  0
  1  2  2  0  0  0
  1  3  1  0  0  0
  3 15  1  0  0  0
 15 16  2  0  0  0
 16 17  1  0  0  0
 17 18  2  0  0  0
 18 19  1  0  0  0
 19 20  2  0  0  0
 19 21  1  0  0  0
 21 22  1  0  0  0
 21 23  1  0  0  0
 21 24  1  0  0  0
 10  5  1  0  0  0
 20 15  1  0  0  0
 11 14  1  0  0  0
  3  4  1  0  0  0
M  END
> <minimizedAffinity>
-7.13963

> <CNNscore>
0.4069438577

> <CNNaffinity>
4.0869679451

> <CNN_VS>
1.6631665230

> <CNNaffinity_variance>
0.3975101113

$$$$
[H]OC(=O)c1c([H])c([H])c([H])c(C(=O)N([H])c2c([H])c([H])c([H])c(C(F)(F)F)c2[H])c1[H]


 24 25  0  0  0  0  0  0  0  0999 V2000
   32.7774  -18.4618   34.8329 C   0  0  0  0  0  0  0  0  0  0  0  0
   33.0872  -18.1787   33.6789 O   0  0  0  0  0  0  0  0  0  0  0  0
   33.3368  -17.8404   35.9685 N   0  0  0  0  0  0  0  0  0  0  0  0
   32.9867  -18.1455   36.9355 H   0  0  0  0  0  0  0  0  0  0  0  0
   31.1922  -21.8231   35.3411 C   0  0  0  0  0  0  0  0  0  0  0  0
   29.8351  -21.5327   35.4553 C   0  0  0  0  0  0  0  0  0  0  0  0
   29.4537  -20.2047   35.3656 C   0  0  0  0  0  0  0  0  0  0  0  0
   30.4119  -19.2160   35.1669 C   0  0  0  0  0  0  0  0  0  0  0  0
   31.7573  -19.5081   35.0527 C   0  0  0  0  0  0  0  0  0  0  0  0
   32.1270  -20.8392   35.1442 C   0  0  0  0  0  0  0  0  0  0  0  0
   30.8747  -24.2494   34.9119 O   0  0  0  0  0  0  0  0  0  0  0  0
   31.6472  -23.2166   35.3906 C   0  0  0  0  0  0  0  0  0  0  0  0
   32.7625  -23.4926   35.8729 O   0  0  0  0  0  0  0  0  0  0  0  0
   30.3976  -24.9047   35.5392 H   0  0  0  0  0  0  0  0  0  0  0  0
   34.3233  -16.8233   35.9534 C   0  0  0  0  0  0  0  0  0  0  0  0
   35.6709  -16.9874   35.7538 C   0  0  0  0  0  0  0  0  0  0  0  0
   36.5857  -15.9395   35.7683 C   0  0  0  0  0  0  0  0  0  0  0  0
   36.1003  -14.6813   35.9972 C   0  0  0  0  0  0  0  0  0  0  0  0
   34.7411  -14.4677   36.2087 C   0  0  0  0  0  0  0  0  0  0  0  0
   33.8828  -15.5159   36.1824 C   0  0  0  0  0  0  0  0  0  0  0  0
   34.2210  -13.1135   36.4963 C   0  0  0  0  0  0  0  0  0  0  0  0
   35.0716  -12.2125   35.9014 F   0  0  0  0  0  0  0  0  0  0  0  0
   32.9329  -13.0445   36.0949 F   0  0  0  0  0  0  0  0  0  0  0  0
   34.1952  -12.9489   37.9147 F   0  0  0  0  0  0  0  0  0  0  0  0
 11 12  1  0  0  0
 12 13  2  0  0  0
 12  5  1  0  0  0
  5  6  2  0  0  0
  6  7  1  0  0  0
  7  8  2  0  0  0
  8  9  1  0  0  0
  9 10  2  0  0  0
  9  1  1  0  0  0
  1  2  2  0  0  0
  1  3  1  0  0  0
  3 15  1  0  0  0
 15 16  2  0  0  0
 16 17  1  0  0  0
 17 18  2  0  0  0
 18 19  1  0  0  0
 19 20  2  0  0  0
 19 21  1  0  0  0
 21 22  1  0  0  0
 21 23  1  0  0  0
 21 24  1  0  0  0
 10  5  1  0  0  0
 20 15  1  0  0  0
 11 14  1  0  0  0
  3  4  1  0  0  0
M  END
> <minimizedAffinity>
-6.46458

> <CNNscore>
0.3592441380

> <CNNaffinity>
3.9518020153

> <CNN_VS>
1.4196617603

> <CNNaffinity_variance>
0.3950979710

$$$$
[H]OC(=O)c1c([H])c([H])c([H])c(C(=O)N([H])c2c([H])c([H])c([H])c(C(F)(F)F)c2[H])c1[H]


 24 25  0  0  0  0  0  0  0  0999 V2000
   35.4473  -16.9148   35.5904 C   0  0  0  0  0  0  0  0  0  0  0  0
   36.2511  -17.5723   34.9350 O   0  0  0  0  0  0  0  0  0  0  0  0
   34.0834  -17.2489   35.7197 N   0  0  0  0  0  0  0  0  0  0  0  0
   33.4646  -16.6200   36.3299 H   0  0  0  0  0  0  0  0  0  0  0  0
   35.7515  -13.3521   36.7236 C   0  0  0  0  0  0  0  0  0  0  0  0
   36.8346  -13.3766   37.5984 C   0  0  0  0  0  0  0  0  0  0  0  0
   37.4602  -14.5935   37.8104 C   0  0  0  0  0  0  0  0  0  0  0  0
   37.0039  -15.7349   37.1591 C   0  0  0  0  0  0  0  0  0  0  0  0
   35.9298  -15.7064   36.2908 C   0  0  0  0  0  0  0  0  0  0  0  0
   35.3119  -14.4843   36.0867 C   0  0  0  0  0  0  0  0  0  0  0  0
   35.5504  -11.2097   35.4818 O   0  0  0  0  0  0  0  0  0  0  0  0
   35.0762  -12.0828   36.4334 C   0  0  0  0  0  0  0  0  0  0  0  0
   34.0413  -11.7701   37.0530 O   0  0  0  0  0  0  0  0  0  0  0  0
   36.0146  -10.3318   35.7355 H   0  0  0  0  0  0  0  0  0  0  0  0
   33.4445  -18.3637   35.1224 C   0  0  0  0  0  0  0  0  0  0  0  0
   33.9860  -19.2276   34.2042 C   0  0  0  0  0  0  0  0  0  0  0  0
   33.2906  -20.2957   33.6467 C   0  0  0  0  0  0  0  0  0  0  0  0
   31.9951  -20.4817   34.0447 C   0  0  0  0  0  0  0  0  0  0  0  0
   31.4030  -19.6279   34.9711 C   0  0  0  0  0  0  0  0  0  0  0  0
   32.1171  -18.6015   35.4931 C   0  0  0  0  0  0  0  0  0  0  0  0
   29.9903  -19.8040   35.3714 C   0  0  0  0  0  0  0  0  0  0  0  0
   29.4846  -18.5569   35.6513 F   0  0  0  0  0  0  0  0  0  0  0  0
   29.3421  -20.4866   34.4022 F   0  0  0  0  0  0  0  0  0  0  0  0
   29.9659  -20.6478   36.5234 F   0  0  0  0  0  0  0  0  0  0  0  0
 11 12  1  0  0  0
 12 13  2  0  0  0
 12  5  1  0  0  0
  5  6  2  0  0  0
  6  7  1  0  0  0
  7  8  2  0  0  0
  8  9  1  0  0  0
  9 10  2  0  0  0
  9  1  1  0  0  0
  1  2  2  0  0  0
  1  3  1  0  0  0
  3 15  1  0  0  0
 15 16  2  0  0  0
 16 17  1  0  0  0
 17 18  2  0  0  0
 18 19  1  0  0  0
 19 20  2  0  0  0
 19 21  1  0  0  0
 21 22  1  0  0  0
 21 23  1  0  0  0
 21 24  1  0  0  0
 10  5  1  0  0  0
 20 15  1  0  0  0
 11 14  1  0  0  0
  3  4  1  0  0  0
M  END
> <minimizedAffinity>
-7.83374

> <CNNscore>
0.3172570467

> <CNNaffinity>
4.1471719742

> <CNN_VS>
1.3157194853

> <CNNaffinity_variance>
0.4643949568

$$$$
[H]OC(=O)c1c([H])c([H])c([H])c(C(=O)N([H])c2c([H])c([H])c([H])c(C(F)(F)F)c2[H])c1[H]


 24 25  0  0  0  0  0  0  0  0999 V2000
   34.8350  -18.0657   35.3019 C   0  0  0  0  0  0  0  0  0  0  0  0
   35.5871  -17.7957   34.3695 O   0  0  0  0  0  0  0  0  0  0  0  0
   34.7213  -17.2813   36.4683 N   0  0  0  0  0  0  0  0  0  0  0  0
   34.0216  -17.5916   37.2199 H   0  0  0  0  0  0  0  0  0  0  0  0
   32.9415  -21.1613   36.2511 C   0  0  0  0  0  0  0  0  0  0  0  0
   32.4060  -21.6024   35.0438 C   0  0  0  0  0  0  0  0  0  0  0  0
   32.6787  -20.8553   33.9103 C   0  0  0  0  0  0  0  0  0  0  0  0
   33.4633  -19.7103   34.0021 C   0  0  0  0  0  0  0  0  0  0  0  0
   33.9940  -19.2765   35.2015 C   0  0  0  0  0  0  0  0  0  0  0  0
   33.7146  -20.0312   36.3282 C   0  0  0  0  0  0  0  0  0  0  0  0
   32.9981  -21.4229   38.7210 O   0  0  0  0  0  0  0  0  0  0  0  0
   32.7156  -21.9358   37.4761 C   0  0  0  0  0  0  0  0  0  0  0  0
   32.2529  -23.0907   37.4084 O   0  0  0  0  0  0  0  0  0  0  0  0
   33.8079  -21.7371   39.2653 H   0  0  0  0  0  0  0  0  0  0  0  0
   35.4447  -16.0936   36.7404 C   0  0  0  0  0  0  0  0  0  0  0  0
   36.7300  -16.0031   37.2119 C   0  0  0  0  0  0  0  0  0  0  0  0
   37.3728  -14.7971   37.4718 C   0  0  0  0  0  0  0  0  0  0  0  0
   36.6713  -13.6457   37.2413 C   0  0  0  0  0  0  0  0  0  0  0  0
   35.3634  -13.6892   36.7667 C   0  0  0  0  0  0  0  0  0  0  0  0
   34.7753  -14.8851   36.5224 C   0  0  0  0  0  0  0  0  0  0  0  0
   34.5905  -12.4461   36.5557 C   0  0  0  0  0  0  0  0  0  0  0  0
   33.3989  -12.7986   35.9681 F   0  0  0  0  0  0  0  0  0  0  0  0
   34.4834  -11.7916   37.7327 F   0  0  0  0  0  0  0  0  0  0  0  0
   35.3596  -11.5939   35.7060 F   0  0  0  0  0  0  0  0  0  0  0  0
 11 12  1  0  0  0
 12 13  2  0  0  0
 12  5  1  0  0  0
  5  6  2  0  0  0
  6  7  1  0  0  0
  7  8  2  0  0  0
  8  9  1  0  0  0
  9 10  2  0  0  0
  9  1  1  0  0  0
  1  2  2  0  0  0
  1  3  1  0  0  0
  3 15  1  0  0  0
 15 16  2  0  0  0
 16 17  1  0  0  0
 17 18  2  0  0  0
 18 19  1  0  0  0
 19 20  2  0  0  0
 19 21  1  0  0  0
 21 22  1  0  0  0
 21 23  1  0  0  0
 21 24  1  0  0  0
 10  5  1  0  0  0
 20 15  1  0  0  0
 11 14  1  0  0  0
  3  4  1  0  0  0
M  END
> <minimizedAffinity>
-6.93704

> <CNNscore>
0.3045683205

> <CNNaffinity>
3.9964504242

> <CNN_VS>
1.2171921730

> <CNNaffinity_variance>
0.3072485328

$$$$
[H]OC(=O)c1c([H])c([H])c([H])c(N([H])C(=O)c2c([H])c([H])c(-c3c([H])c([H])c([H])c(S(=O)(=O)N([H])[H])c3[H])c([H])c2[H])c1[H]


 32 34  0  0  0  0  0  0  0  0999 V2000
   35.6833  -17.7255   36.5243 C   0  0  0  0  0  0  0  0  0  0  0  0
   34.4922  -18.0392   35.8416 C   0  0  0  0  0  0  0  0  0  0  0  0
   33.9077  -19.3204   36.1796 C   0  0  0  0  0  0  0  0  0  0  0  0
   34.4777  -20.0383   37.0416 C   0  0  0  0  0  0  0  0  0  0  0  0
   35.6560  -19.8265   37.7114 C   0  0  0  0  0  0  0  0  0  0  0  0
   36.2741  -18.5747   37.4155 C   0  0  0  0  0  0  0  0  0  0  0  0
   35.1031  -14.0182   37.2475 C   0  0  0  0  0  0  0  0  0  0  0  0
   36.2703  -13.5905   37.6864 C   0  0  0  0  0  0  0  0  0  0  0  0
   37.3296  -14.5530   37.6041 C   0  0  0  0  0  0  0  0  0  0  0  0
   37.1714  -15.7702   37.1596 C   0  0  0  0  0  0  0  0  0  0  0  0
   35.8355  -16.2028   36.7019 C   0  0  0  0  0  0  0  0  0  0  0  0
   34.8802  -15.3213   36.7599 C   0  0  0  0  0  0  0  0  0  0  0  0
   34.4974  -11.3990   36.6167 N   0  0  0  0  0  0  0  0  0  0  0  0
   33.7691  -12.8432   37.2020 S   0  0  0  0  0  0  0  0  0  0  0  0
   33.1625  -12.6688   38.5627 O   0  0  0  0  0  0  0  0  0  0  0  0
   32.7284  -13.3018   36.2008 O   0  0  0  0  0  0  0  0  0  0  0  0
   35.5203  -11.3934   36.4972 H   0  0  0  0  0  0  0  0  0  0  0  0
   33.9161  -11.0202   35.8809 H   0  0  0  0  0  0  0  0  0  0  0  0
   33.6254  -21.0517   38.0016 C   0  0  0  0  0  0  0  0  0  0  0  0
   32.7881  -21.5039   37.5969 O   0  0  0  0  0  0  0  0  0  0  0  0
   34.3574  -21.0068   39.2207 N   0  0  0  0  0  0  0  0  0  0  0  0
   33.4867  -21.9345   39.6817 H   0  0  0  0  0  0  0  0  0  0  0  0
   35.0325  -20.9758   40.3706 C   0  0  0  0  0  0  0  0  0  0  0  0
   34.4294  -20.0873   41.4079 C   0  0  0  0  0  0  0  0  0  0  0  0
   35.0806  -19.8918   42.5664 C   0  0  0  0  0  0  0  0  0  0  0  0
   36.2494  -20.4907   42.7881 C   0  0  0  0  0  0  0  0  0  0  0  0
   36.8856  -21.3564   41.9275 C   0  0  0  0  0  0  0  0  0  0  0  0
   36.2101  -21.5270   40.7636 C   0  0  0  0  0  0  0  0  0  0  0  0
   38.1735  -21.8936   42.2485 C   0  0  0  0  0  0  0  0  0  0  0  0
   39.3738  -22.2002   42.1343 O   0  0  0  0  0  0  0  0  0  0  0  0
   37.9091  -22.4300   43.6650 O   0  0  0  0  0  0  0  0  0  0  0  0
   39.9559  -22.9661   42.0477 H   0  0  0  0  0  0  0  0  0  0  0  0
 13 14  1  0  0  0
 14 15  2  0  0  0
 14 16  2  0  0  0
 14  7  1  0  0  0
  7  8  2  0  0  0
  8  9  1  0  0  0
  9 10  2  0  0  0
 10 11  1  0  0  0
 11 12  2  0  0  0
 11  1  1  0  0  0
  1  2  2  0  0  0
  2  3  1  0  0  0
  3  4  2  0  0  0
  4  5  1  0  0  0
  5  6  2  0  0  0
  4 19  1  0  0  0
 19 20  2  0  0  0
 19 21  1  0  0  0
 21 23  1  0  0  0
 23 24  2  0  0  0
 24 25  1  0  0  0
 25 26  2  0  0  0
 26 27  1  0  0  0
 27 28  2  0  0  0
 27 29  1  0  0  0
 29 30  1  0  0  0
 29 31  2  0  0  0
 12  7  1  0  0  0
  6  1  1  0  0  0
 28 23  1  0  0  0
 13 17  1  0  0  0
 13 18  1  0  0  0
 21 22  1  0  0  0
 30 32  1  0  0  0
M  END
> <minimizedAffinity>
-7.16828

> <CNNscore>
0.5207583904

> <CNNaffinity>
4.7463159561

> <CNN_VS>
2.4716837406

> <CNNaffinity_variance>
0.2766787112

$$$$
[H]OC(=O)c1c([H])c([H])c([H])c(N([H])C(=O)c2c([H])c([H])c(-c3c([H])c([H])c([H])c(S(=O)(=O)N([H])[H])c3[H])c([H])c2[H])c1[H]


 32 34  0  0  0  0  0  0  0  0999 V2000
   35.2195  -14.4561   36.8023 C   0  0  0  0  0  0  0  0  0  0  0  0
   34.7977  -15.2200   35.6971 C   0  0  0  0  0  0  0  0  0  0  0  0
   35.3263  -16.5672   35.6418 C   0  0  0  0  0  0  0  0  0  0  0  0
   36.0919  -16.9563   36.5615 C   0  0  0  0  0  0  0  0  0  0  0  0
   36.5837  -16.2629   37.6381 C   0  0  0  0  0  0  0  0  0  0  0  0
   36.0919  -14.9272   37.7411 C   0  0  0  0  0  0  0  0  0  0  0  0
   32.4251  -12.5277   38.5564 C   0  0  0  0  0  0  0  0  0  0  0  0
   32.7099  -11.2628   38.3184 C   0  0  0  0  0  0  0  0  0  0  0  0
   33.8052  -11.0556   37.4168 C   0  0  0  0  0  0  0  0  0  0  0  0
   34.4983  -12.0241   36.8821 C   0  0  0  0  0  0  0  0  0  0  0  0
   34.1491  -13.4229   37.2025 C   0  0  0  0  0  0  0  0  0  0  0  0
   33.1426  -13.6084   38.0059 C   0  0  0  0  0  0  0  0  0  0  0  0
   31.5569  -12.6202   41.1761 N   0  0  0  0  0  0  0  0  0  0  0  0
   31.0015  -12.8665   39.5668 S   0  0  0  0  0  0  0  0  0  0  0  0
   30.5039  -14.2632   39.3395 O   0  0  0  0  0  0  0  0  0  0  0  0
   29.9181  -11.8509   39.2669 O   0  0  0  0  0  0  0  0  0  0  0  0
   32.5617  -12.4406   41.3133 H   0  0  0  0  0  0  0  0  0  0  0  0
   30.8849  -12.0430   41.6641 H   0  0  0  0  0  0  0  0  0  0  0  0
   36.1477  -18.5273   37.0130 C   0  0  0  0  0  0  0  0  0  0  0  0
   36.9339  -18.8250   37.6153 O   0  0  0  0  0  0  0  0  0  0  0  0
   34.9904  -19.0674   36.3860 N   0  0  0  0  0  0  0  0  0  0  0  0
   35.3039  -20.2329   36.9983 H   0  0  0  0  0  0  0  0  0  0  0  0
   33.9093  -19.5893   35.8049 C   0  0  0  0  0  0  0  0  0  0  0  0
   33.9404  -19.5503   34.3127 C   0  0  0  0  0  0  0  0  0  0  0  0
   32.8594  -19.9475   33.6213 C   0  0  0  0  0  0  0  0  0  0  0  0
   31.7740  -20.3776   34.2623 C   0  0  0  0  0  0  0  0  0  0  0  0
   31.6390  -20.4931   35.6273 C   0  0  0  0  0  0  0  0  0  0  0  0
   32.7415  -20.0765   36.2988 C   0  0  0  0  0  0  0  0  0  0  0  0
   30.3985  -20.9112   36.2078 C   0  0  0  0  0  0  0  0  0  0  0  0
   29.3293  -20.8622   36.8417 O   0  0  0  0  0  0  0  0  0  0  0  0
   30.3357  -22.3672   35.7178 O   0  0  0  0  0  0  0  0  0  0  0  0
   28.9037  -21.2042   37.6385 H   0  0  0  0  0  0  0  0  0  0  0  0
 13 14  1  0  0  0
 14 15  2  0  0  0
 14 16  2  0  0  0
 14  7  1  0  0  0
  7  8  2  0  0  0
  8  9  1  0  0  0
  9 10  2  0  0  0
 10 11  1  0  0  0
 11 12  2  0  0  0
 11  1  1  0  0  0
  1  2  2  0  0  0
  2  3  1  0  0  0
  3  4  2  0  0  0
  4  5  1  0  0  0
  5  6  2  0  0  0
  4 19  1  0  0  0
 19 20  2  0  0  0
 19 21  1  0  0  0
 21 23  1  0  0  0
 23 24  2  0  0  0
 24 25  1  0  0  0
 25 26  2  0  0  0
 26 27  1  0  0  0
 27 28  2  0  0  0
 27 29  1  0  0  0
 29 30  1  0  0  0
 29 31  2  0  0  0
 12  7  1  0  0  0
  6  1  1  0  0  0
 28 23  1  0  0  0
 13 17  1  0  0  0
 13 18  1  0  0  0
 21 22  1  0  0  0
 30 32  1  0  0  0
M  END
> <minimizedAffinity>
-7.68648

> <CNNscore>
0.4627808928

> <CNNaffinity>
4.9414839745

> <CNN_VS>
2.2868244648

> <CNNaffinity_variance>
0.4117512107

$$$$
[H]OC(=O)c1c([H])c([H])c([H])c(N([H])C(=O)c2c([H])c([H])c(-c3c([H])c([H])c([H])c(S(=O)(=O)N([H])[H])c3[H])c([H])c2[H])c1[H]


 32 34  0  0  0  0  0  0  0  0999 V2000
   35.7309  -17.8249   36.0872 C   0  0  0  0  0  0  0  0  0  0  0  0
   34.6204  -18.4159   36.7200 C   0  0  0  0  0  0  0  0  0  0  0  0
   34.7517  -19.8308   36.9995 C   0  0  0  0  0  0  0  0  0  0  0  0
   35.8193  -20.4153   36.6802 C   0  0  0  0  0  0  0  0  0  0  0  0
   36.9191  -19.9245   36.0236 C   0  0  0  0  0  0  0  0  0  0  0  0
   36.8421  -18.5311   35.7251 C   0  0  0  0  0  0  0  0  0  0  0  0
   35.0644  -14.2240   37.1794 C   0  0  0  0  0  0  0  0  0  0  0  0
   36.1637  -13.8734   37.8170 C   0  0  0  0  0  0  0  0  0  0  0  0
   37.2234  -14.8371   37.7565 C   0  0  0  0  0  0  0  0  0  0  0  0
   37.1240  -15.9880   37.1484 C   0  0  0  0  0  0  0  0  0  0  0  0
   35.8600  -16.3381   36.4695 C   0  0  0  0  0  0  0  0  0  0  0  0
   34.9066  -15.4537   36.5098 C   0  0  0  0  0  0  0  0  0  0  0  0
   33.0165  -13.1086   38.6583 N   0  0  0  0  0  0  0  0  0  0  0  0
   33.7495  -13.0291   37.1042 S   0  0  0  0  0  0  0  0  0  0  0  0
   32.7893  -13.3584   35.9998 O   0  0  0  0  0  0  0  0  0  0  0  0
   34.3370  -11.6453   36.9153 O   0  0  0  0  0  0  0  0  0  0  0  0
   33.3409  -13.8430   39.3033 H   0  0  0  0  0  0  0  0  0  0  0  0
   32.8986  -12.1668   39.0076 H   0  0  0  0  0  0  0  0  0  0  0  0
   36.3764  -21.6938   37.5346 C   0  0  0  0  0  0  0  0  0  0  0  0
   36.7433  -22.5018   37.0034 O   0  0  0  0  0  0  0  0  0  0  0  0
   36.1732  -21.2757   38.8791 N   0  0  0  0  0  0  0  0  0  0  0  0
   36.7696  -22.4348   39.2427 H   0  0  0  0  0  0  0  0  0  0  0  0
   35.9892  -20.8986   40.1452 C   0  0  0  0  0  0  0  0  0  0  0  0
   37.0041  -21.4409   41.0965 C   0  0  0  0  0  0  0  0  0  0  0  0
   36.8575  -21.2180   42.4130 C   0  0  0  0  0  0  0  0  0  0  0  0
   35.8198  -20.5145   42.8626 C   0  0  0  0  0  0  0  0  0  0  0  0
   34.8430  -19.9353   42.0846 C   0  0  0  0  0  0  0  0  0  0  0  0
   35.0119  -20.1848   40.7620 C   0  0  0  0  0  0  0  0  0  0  0  0
   33.7377  -19.2515   42.6855 C   0  0  0  0  0  0  0  0  0  0  0  0
   33.1035  -18.4111   43.3481 O   0  0  0  0  0  0  0  0  0  0  0  0
   32.5653  -20.0948   42.1580 O   0  0  0  0  0  0  0  0  0  0  0  0
   32.5665  -18.3228   44.1461 H   0  0  0  0  0  0  0  0  0  0  0  0
 13 14  1  0  0  0
 14 15  2  0  0  0
 14 16  2  0  0  0
 14  7  1  0  0  0
  7  8  2  0  0  0
  8  9  1  0  0  0
  9 10  2  0  0  0
 10 11  1  0  0  0
 11 12  2  0  0  0
 11  1  1  0  0  0
  1  2  2  0  0  0
  2  3  1  0  0  0
  3  4  2  0  0  0
  4  5  1  0  0  0
  5  6  2  0  0  0
  4 19  1  0  0  0
 19 20  2  0  0  0
 19 21  1  0  0  0
 21 23  1  0  0  0
 23 24  2  0  0  0
 24 25  1  0  0  0
 25 26  2  0  0  0
 26 27  1  0  0  0
 27 28  2  0  0  0
 27 29  1  0  0  0
 29 30  1  0  0  0
 29 31  2  0  0  0
 12  7  1  0  0  0
  6  1  1  0  0  0
 28 23  1  0  0  0
 13 17  1  0  0  0
 13 18  1  0  0  0
 21 22  1  0  0  0
 30 32  1  0  0  0
M  END
> <minimizedAffinity>
-7.02414

> <CNNscore>
0.4409322441

> <CNNaffinity>
4.6687006950

> <CNN_VS>
2.0585806370

> <CNNaffinity_variance>
0.2703075409

$$$$
[H]OC(=O)c1c([H])c([H])c([H])c(N([H])C(=O)c2c([H])c([H])c(-c3c([H])c([H])c([H])c(S(=O)(=O)N([H])[H])c3[H])c([H])c2[H])c1[H]


 32 34  0  0  0  0  0  0  0  0999 V2000
   34.8838  -16.6362   35.8635 C   0  0  0  0  0  0  0  0  0  0  0  0
   33.7683  -17.1233   35.1554 C   0  0  0  0  0  0  0  0  0  0  0  0
   33.4288  -18.5066   35.4171 C   0  0  0  0  0  0  0  0  0  0  0  0
   34.1228  -19.1556   36.2420 C   0  0  0  0  0  0  0  0  0  0  0  0
   35.2443  -18.7701   36.9314 C   0  0  0  0  0  0  0  0  0  0  0  0
   35.6224  -17.4119   36.7104 C   0  0  0  0  0  0  0  0  0  0  0  0
   33.8208  -13.1850   37.1136 C   0  0  0  0  0  0  0  0  0  0  0  0
   34.9443  -12.4962   37.1480 C   0  0  0  0  0  0  0  0  0  0  0  0
   36.0800  -13.1762   36.5975 C   0  0  0  0  0  0  0  0  0  0  0  0
   36.0374  -14.3901   36.1190 C   0  0  0  0  0  0  0  0  0  0  0  0
   34.7556  -15.1237   36.1267 C   0  0  0  0  0  0  0  0  0  0  0  0
   33.7226  -14.4972   36.6095 C   0  0  0  0  0  0  0  0  0  0  0  0
   32.8369  -10.7356   37.9247 N   0  0  0  0  0  0  0  0  0  0  0  0
   32.3433  -12.3628   37.6646 S   0  0  0  0  0  0  0  0  0  0  0  0
   31.8058  -13.0048   38.9091 O   0  0  0  0  0  0  0  0  0  0  0  0
   31.3114  -12.3852   36.5555 O   0  0  0  0  0  0  0  0  0  0  0  0
   33.8406  -10.5208   37.8406 H   0  0  0  0  0  0  0  0  0  0  0  0
   32.1657  -10.1209   37.4837 H   0  0  0  0  0  0  0  0  0  0  0  0
   33.4727  -20.3598   37.1376 C   0  0  0  0  0  0  0  0  0  0  0  0
   32.5410  -20.7132   36.8611 O   0  0  0  0  0  0  0  0  0  0  0  0
   34.4753  -20.5853   38.1215 N   0  0  0  0  0  0  0  0  0  0  0  0
   33.6929  -21.5951   38.5685 H   0  0  0  0  0  0  0  0  0  0  0  0
   35.4054  -20.8091   39.0509 C   0  0  0  0  0  0  0  0  0  0  0  0
   36.7245  -21.2420   38.5015 C   0  0  0  0  0  0  0  0  0  0  0  0
   37.7040  -21.6012   39.3477 C   0  0  0  0  0  0  0  0  0  0  0  0
   37.5005  -21.5647   40.6634 C   0  0  0  0  0  0  0  0  0  0  0  0
   36.3454  -21.1510   41.2875 C   0  0  0  0  0  0  0  0  0  0  0  0
   35.3721  -20.8036   40.4088 C   0  0  0  0  0  0  0  0  0  0  0  0
   36.2202  -21.2133   42.7126 C   0  0  0  0  0  0  0  0  0  0  0  0
   36.5202  -21.1310   43.9171 O   0  0  0  0  0  0  0  0  0  0  0  0
   34.7545  -21.6577   42.8467 O   0  0  0  0  0  0  0  0  0  0  0  0
   36.6656  -21.6757   44.7014 H   0  0  0  0  0  0  0  0  0  0  0  0
 13 14  1  0  0  0
 14 15  2  0  0  0
 14 16  2  0  0  0
 14  7  1  0  0  0
  7  8  2  0  0  0
  8  9  1  0  0  0
  9 10  2  0  0  0
 10 11  1  0  0  0
 11 12  2  0  0  0
 11  1  1  0  0  0
  1  2  2  0  0  0
  2  3  1  0  0  0
  3  4  2  0  0  0
  4  5  1  0  0  0
  5  6  2  0  0  0
  4 19  1  0  0  0
 19 20  2  0  0  0
 19 21  1  0  0  0
 21 23  1  0  0  0
 23 24  2  0  0  0
 24 25  1  0  0  0
 25 26  2  0  0  0
 26 27  1  0  0  0
 27 28  2  0  0  0
 27 29  1  0  0  0
 29 30  1  0  0  0
 29 31  2  0  0  0
 12  7  1  0  0  0
  6  1  1  0  0  0
 28 23  1  0  0  0
 13 17  1  0  0  0
 13 18  1  0  0  0
 21 22  1  0  0  0
 30 32  1  0  0  0
M  END
> <minimizedAffinity>
-7.75037

> <CNNscore>
0.4350250959

> <CNNaffinity>
5.0863351822

> <CNN_VS>
2.2126834393

> <CNNaffinity_variance>
0.1389098912

$$$$
[H]OC(=O)c1c([H])c([H])c([H])c(N([H])C(=O)c2c([H])c([H])c(-c3c([H])c([H])c([H])c(S(=O)(=O)N([H])[H])c3[H])c([H])c2[H])c1[H]


 32 34  0  0  0  0  0  0  0  0999 V2000
   32.6090  -19.3745   34.2015 C   0  0  0  0  0  0  0  0  0  0  0  0
   33.8588  -19.8821   33.7972 C   0  0  0  0  0  0  0  0  0  0  0  0
   34.9986  -19.0568   34.1393 C   0  0  0  0  0  0  0  0  0  0  0  0
   34.8034  -17.9830   34.7654 C   0  0  0  0  0  0  0  0  0  0  0  0
   33.6226  -17.4006   35.1504 C   0  0  0  0  0  0  0  0  0  0  0  0
   32.4654  -18.1751   34.8381 C   0  0  0  0  0  0  0  0  0  0  0  0
   30.9758  -22.7000   35.1382 C   0  0  0  0  0  0  0  0  0  0  0  0
   29.8142  -22.3524   35.6556 C   0  0  0  0  0  0  0  0  0  0  0  0
   29.5101  -20.9548   35.5581 C   0  0  0  0  0  0  0  0  0  0  0  0
   30.3134  -20.0724   35.0285 C   0  0  0  0  0  0  0  0  0  0  0  0
   31.6131  -20.5152   34.4845 C   0  0  0  0  0  0  0  0  0  0  0  0
   31.8782  -21.7870   34.5571 C   0  0  0  0  0  0  0  0  0  0  0  0
   32.9748  -24.5133   35.7220 N   0  0  0  0  0  0  0  0  0  0  0  0
   31.3693  -24.4340   35.1098 S   0  0  0  0  0  0  0  0  0  0  0  0
   31.2580  -24.9855   33.7193 O   0  0  0  0  0  0  0  0  0  0  0  0
   30.4506  -25.1743   36.0603 O   0  0  0  0  0  0  0  0  0  0  0  0
   33.4663  -23.6245   35.8926 H   0  0  0  0  0  0  0  0  0  0  0  0
   33.0160  -25.2388   36.4255 H   0  0  0  0  0  0  0  0  0  0  0  0
   35.9221  -17.3864   35.7987 C   0  0  0  0  0  0  0  0  0  0  0  0
   36.7030  -18.0077   36.0702 O   0  0  0  0  0  0  0  0  0  0  0  0
   35.4452  -16.0676   36.0384 N   0  0  0  0  0  0  0  0  0  0  0  0
   36.5592  -15.8895   36.7861 H   0  0  0  0  0  0  0  0  0  0  0  0
   35.0116  -14.8285   36.2737 C   0  0  0  0  0  0  0  0  0  0  0  0
   36.0999  -13.8125   36.3852 C   0  0  0  0  0  0  0  0  0  0  0  0
   35.7904  -12.5514   36.7292 C   0  0  0  0  0  0  0  0  0  0  0  0
   34.5238  -12.2114   36.9618 C   0  0  0  0  0  0  0  0  0  0  0  0
   33.4345  -13.0462   36.8561 C   0  0  0  0  0  0  0  0  0  0  0  0
   33.7783  -14.3138   36.5169 C   0  0  0  0  0  0  0  0  0  0  0  0
   32.1217  -12.5833   37.1917 C   0  0  0  0  0  0  0  0  0  0  0  0
   30.9859  -12.0931   37.0602 O   0  0  0  0  0  0  0  0  0  0  0  0
   32.0757  -12.9298   38.6890 O   0  0  0  0  0  0  0  0  0  0  0  0
   30.4579  -11.3243   37.3116 H   0  0  0  0  0  0  0  0  0  0  0  0
 13 14  1  0  0  0
 14 15  2  0  0  0
 14 16  2  0  0  0
 14  7  1  0  0  0
  7  8  2  0  0  0
  8  9  1  0  0  0
  9 10  2  0  0  0
 10 11  1  0  0  0
 11 12  2  0  0  0
 11  1  1  0  0  0
  1  2  2  0  0  0
  2  3  1  0  0  0
  3  4  2  0  0  0
  4  5  1  0  0  0
  5  6  2  0  0  0
  4 19  1  0  0  0
 19 20  2  0  0  0
 19 21  1  0  0  0
 21 23  1  0  0  0
 23 24  2  0  0  0
 24 25  1  0  0  0
 25 26  2  0  0  0
 26 27  1  0  0  0
 27 28  2  0  0  0
 27 29  1  0  0  0
 29 30  1  0  0  0
 29 31  2  0  0  0
 12  7  1  0  0  0
  6  1  1  0  0  0
 28 23  1  0  0  0
 13 17  1  0  0  0
 13 18  1  0  0  0
 21 22  1  0  0  0
 30 32  1  0  0  0
M  END
> <minimizedAffinity>
-8.58474

> <CNNscore>
0.4117240608

> <CNNaffinity>
4.8764944077

> <CNN_VS>
2.0077700615

> <CNNaffinity_variance>
0.3720160127

$$$$
[H]OC(=O)c1c([H])c([H])c([H])c(N([H])C(=O)c2c([H])c([H])c(-c3c([H])c([H])c([H])c(S(=O)(=O)N([H])[H])c3[H])c([H])c2[H])c1[H]


 32 34  0  0  0  0  0  0  0  0999 V2000
   35.0839  -14.5567   36.7752 C   0  0  0  0  0  0  0  0  0  0  0  0
   34.4928  -15.4924   35.9045 C   0  0  0  0  0  0  0  0  0  0  0  0
   35.0642  -16.8224   35.9497 C   0  0  0  0  0  0  0  0  0  0  0  0
   36.0110  -17.0486   36.7470 C   0  0  0  0  0  0  0  0  0  0  0  0
   36.6686  -16.1860   37.5867 C   0  0  0  0  0  0  0  0  0  0  0  0
   36.1432  -14.8591   37.5821 C   0  0  0  0  0  0  0  0  0  0  0  0
   32.4476  -12.5300   38.6583 C   0  0  0  0  0  0  0  0  0  0  0  0
   32.7445  -11.2769   38.3762 C   0  0  0  0  0  0  0  0  0  0  0  0
   33.7854  -11.1130   37.4041 C   0  0  0  0  0  0  0  0  0  0  0  0
   34.4224  -12.1076   36.8481 C   0  0  0  0  0  0  0  0  0  0  0  0
   34.0635  -13.4914   37.2191 C   0  0  0  0  0  0  0  0  0  0  0  0
   33.1055  -13.6376   38.0873 C   0  0  0  0  0  0  0  0  0  0  0  0
   30.5622  -14.4115   39.3864 N   0  0  0  0  0  0  0  0  0  0  0  0
   31.0830  -12.8158   39.7622 S   0  0  0  0  0  0  0  0  0  0  0  0
   30.0030  -11.7960   39.5535 O   0  0  0  0  0  0  0  0  0  0  0  0
   31.5798  -12.7921   41.1933 O   0  0  0  0  0  0  0  0  0  0  0  0
   30.9995  -14.8802   38.5803 H   0  0  0  0  0  0  0  0  0  0  0  0
   30.4495  -14.9255   40.2501 H   0  0  0  0  0  0  0  0  0  0  0  0
   36.2279  -18.5276   37.4108 C   0  0  0  0  0  0  0  0  0  0  0  0
   35.4886  -18.8830   38.0406 O   0  0  0  0  0  0  0  0  0  0  0  0
   37.4848  -18.9228   36.8742 N   0  0  0  0  0  0  0  0  0  0  0  0
   37.2961  -20.0989   37.5166 H   0  0  0  0  0  0  0  0  0  0  0  0
   38.6620  -19.3083   36.3799 C   0  0  0  0  0  0  0  0  0  0  0  0
   39.8368  -18.6288   37.0023 C   0  0  0  0  0  0  0  0  0  0  0  0
   41.0657  -18.8560   36.5099 C   0  0  0  0  0  0  0  0  0  0  0  0
   41.2331  -19.6846   35.4806 C   0  0  0  0  0  0  0  0  0  0  0  0
   40.2369  -20.3941   34.8489 C   0  0  0  0  0  0  0  0  0  0  0  0
   39.0073  -20.1376   35.3609 C   0  0  0  0  0  0  0  0  0  0  0  0
   40.5290  -21.2105   33.7093 C   0  0  0  0  0  0  0  0  0  0  0  0
   40.6783  -22.2257   33.0061 O   0  0  0  0  0  0  0  0  0  0  0  0
   40.8619  -20.1299   32.6675 O   0  0  0  0  0  0  0  0  0  0  0  0
   41.3586  -22.7440   32.5571 H   0  0  0  0  0  0  0  0  0  0  0  0
 13 14  1  0  0  0
 14 15  2  0  0  0
 14 16  2  0  0  0
 14  7  1  0  0  0
  7  8  2  0  0  0
  8  9  1  0  0  0
  9 10  2  0  0  0
 10 11  1  0  0  0
 11 12  2  0  0  0
 11  1  1  0  0  0
  1  2  2  0  0  0
  2  3  1  0  0  0
  3  4  2  0  0  0
  4  5  1  0  0  0
  5  6  2  0  0  0
  4 19  1  0  0  0
 19 20  2  0  0  0
 19 21  1  0  0  0
 21 23  1  0  0  0
 23 24  2  0  0  0
 24 25  1  0  0  0
 25 26  2  0  0  0
 26 27  1  0  0  0
 27 28  2  0  0  0
 27 29  1  0  0  0
 29 30  1  0  0  0
 29 31  2  0  0  0
 12  7  1  0  0  0
  6  1  1  0  0  0
 28 23  1  0  0  0
 13 17  1  0  0  0
 13 18  1  0  0  0
 21 22  1  0  0  0
 30 32  1  0  0  0
M  END
> <minimizedAffinity>
-7.15433

> <CNNscore>
0.4075559676

> <CNNaffinity>
4.8222398758

> <CNN_VS>
1.9653326273

> <CNNaffinity_variance>
0.4098750949

$$$$
[H]OC(=O)c1c([H])c([H])c([H])c(N([H])C(=O)c2c([H])c([H])c(-c3c([H])c([H])c([H])c(S(=O)(=O)N([H])[H])c3[H])c([H])c2[H])c1[H]


 32 34  0  0  0  0  0  0  0  0999 V2000
   34.7865  -16.5846   35.8190 C   0  0  0  0  0  0  0  0  0  0  0  0
   33.5328  -17.1108   35.4524 C   0  0  0  0  0  0  0  0  0  0  0  0
   33.3158  -18.4957   35.8162 C   0  0  0  0  0  0  0  0  0  0  0  0
   34.2273  -19.1120   36.4268 C   0  0  0  0  0  0  0  0  0  0  0  0
   35.4844  -18.6876   36.7752 C   0  0  0  0  0  0  0  0  0  0  0  0
   35.7502  -17.3261   36.4402 C   0  0  0  0  0  0  0  0  0  0  0  0
   33.8134  -13.1134   37.0871 C   0  0  0  0  0  0  0  0  0  0  0  0
   34.9524  -12.4501   37.1119 C   0  0  0  0  0  0  0  0  0  0  0  0
   36.0671  -13.1540   36.5488 C   0  0  0  0  0  0  0  0  0  0  0  0
   35.9926  -14.3655   36.0681 C   0  0  0  0  0  0  0  0  0  0  0  0
   34.6948  -15.0703   36.0868 C   0  0  0  0  0  0  0  0  0  0  0  0
   33.6809  -14.4219   36.5811 C   0  0  0  0  0  0  0  0  0  0  0  0
   32.8480  -10.6130   37.7509 N   0  0  0  0  0  0  0  0  0  0  0  0
   32.3603  -12.2597   37.6544 S   0  0  0  0  0  0  0  0  0  0  0  0
   31.9034  -12.8008   38.9766 O   0  0  0  0  0  0  0  0  0  0  0  0
   31.2664  -12.3812   36.6132 O   0  0  0  0  0  0  0  0  0  0  0  0
   33.8425  -10.3983   37.5909 H   0  0  0  0  0  0  0  0  0  0  0  0
   32.1450  -10.0417   37.3011 H   0  0  0  0  0  0  0  0  0  0  0  0
   33.8815  -20.3118   37.4831 C   0  0  0  0  0  0  0  0  0  0  0  0
   34.3787  -20.3097   38.3899 O   0  0  0  0  0  0  0  0  0  0  0  0
   32.9085  -21.0715   36.7759 N   0  0  0  0  0  0  0  0  0  0  0  0
   32.8190  -21.8379   37.8878 H   0  0  0  0  0  0  0  0  0  0  0  0
   31.9953  -21.7946   36.1263 C   0  0  0  0  0  0  0  0  0  0  0  0
   30.6247  -21.7155   36.7131 C   0  0  0  0  0  0  0  0  0  0  0  0
   29.6474  -22.4872   36.2093 C   0  0  0  0  0  0  0  0  0  0  0  0
   29.8992  -23.3094   35.1921 C   0  0  0  0  0  0  0  0  0  0  0  0
   31.1074  -23.4434   34.5463 C   0  0  0  0  0  0  0  0  0  0  0  0
   32.0763  -22.6598   35.0822 C   0  0  0  0  0  0  0  0  0  0  0  0
   31.2763  -24.4077   33.5013 C   0  0  0  0  0  0  0  0  0  0  0  0
   31.7664  -24.9936   32.5194 O   0  0  0  0  0  0  0  0  0  0  0  0
   30.0825  -25.3357   33.7797 O   0  0  0  0  0  0  0  0  0  0  0  0
   31.5921  -25.1928   31.5904 H   0  0  0  0  0  0  0  0  0  0  0  0
 13 14  1  0  0  0
 14 15  2  0  0  0
 14 16  2  0  0  0
 14  7  1  0  0  0
  7  8  2  0  0  0
  8  9  1  0  0  0
  9 10  2  0  0  0
 10 11  1  0  0  0
 11 12  2  0  0  0
 11  1  1  0  0  0
  1  2  2  0  0  0
  2  3  1  0  0  0
  3  4  2  0  0  0
  4  5  1  0  0  0
  5  6  2  0  0  0
  4 19  1  0  0  0
 19 20  2  0  0  0
 19 21  1  0  0  0
 21 23  1  0  0  0
 23 24  2  0  0  0
 24 25  1  0  0  0
 25 26  2  0  0  0
 26 27  1  0  0  0
 27 28  2  0  0  0
 27 29  1  0  0  0
 29 30  1  0  0  0
 29 31  2  0  0  0
 12  7  1  0  0  0
  6  1  1  0  0  0
 28 23  1  0  0  0
 13 17  1  0  0  0
 13 18  1  0  0  0
 21 22  1  0  0  0
 30 32  1  0  0  0
M  END
> <minimizedAffinity>
-8.47426

> <CNNscore>
0.4005099833

> <CNNaffinity>
5.0458474159

> <CNN_VS>
2.0209121704

> <CNNaffinity_variance>
0.1532507539

$$$$
[H]OC(=O)c1c([H])c([H])c([H])c(N([H])C(=O)c2c([H])c([H])c(-c3c([H])c([H])c([H])c(S(=O)(=O)N([H])[H])c3[H])c([H])c2[H])c1[H]


 32 34  0  0  0  0  0  0  0  0999 V2000
   34.8240  -17.0169   35.3971 C   0  0  0  0  0  0  0  0  0  0  0  0
   33.4866  -17.4270   35.5592 C   0  0  0  0  0  0  0  0  0  0  0  0
   33.2998  -18.8463   35.7782 C   0  0  0  0  0  0  0  0  0  0  0  0
   34.3127  -19.5917   35.8203 C   0  0  0  0  0  0  0  0  0  0  0  0
   35.6341  -19.2786   35.6260 C   0  0  0  0  0  0  0  0  0  0  0  0
   35.8745  -17.8890   35.4072 C   0  0  0  0  0  0  0  0  0  0  0  0
   34.4522  -13.6111   37.0902 C   0  0  0  0  0  0  0  0  0  0  0  0
   35.6920  -13.2430   37.3460 C   0  0  0  0  0  0  0  0  0  0  0  0
   36.6972  -14.1092   36.8033 C   0  0  0  0  0  0  0  0  0  0  0  0
   36.4325  -15.1956   36.1295 C   0  0  0  0  0  0  0  0  0  0  0  0
   35.0242  -15.5719   35.8924 C   0  0  0  0  0  0  0  0  0  0  0  0
   34.1141  -14.7739   36.3696 C   0  0  0  0  0  0  0  0  0  0  0  0
   31.9209  -12.7205   36.4388 N   0  0  0  0  0  0  0  0  0  0  0  0
   33.1519  -12.5217   37.6237 S   0  0  0  0  0  0  0  0  0  0  0  0
   33.6411  -11.1063   37.7103 O   0  0  0  0  0  0  0  0  0  0  0  0
   32.6182  -12.9922   38.9613 O   0  0  0  0  0  0  0  0  0  0  0  0
   32.1390  -13.2980   35.6145 H   0  0  0  0  0  0  0  0  0  0  0  0
   31.0372  -12.8557   36.9118 H   0  0  0  0  0  0  0  0  0  0  0  0
   34.3326  -20.9475   36.7348 C   0  0  0  0  0  0  0  0  0  0  0  0
   35.2070  -21.1723   37.2391 O   0  0  0  0  0  0  0  0  0  0  0  0
   33.0193  -21.4619   36.5485 N   0  0  0  0  0  0  0  0  0  0  0  0
   33.3616  -22.4280   37.4322 H   0  0  0  0  0  0  0  0  0  0  0  0
   31.7920  -21.9574   36.3843 C   0  0  0  0  0  0  0  0  0  0  0  0
   31.6856  -22.9746   35.2966 C   0  0  0  0  0  0  0  0  0  0  0  0
   30.4780  -23.4623   34.9673 C   0  0  0  0  0  0  0  0  0  0  0  0
   29.3885  -23.0458   35.6103 C   0  0  0  0  0  0  0  0  0  0  0  0
   29.3634  -22.1436   36.6496 C   0  0  0  0  0  0  0  0  0  0  0  0
   30.5945  -21.6618   36.9534 C   0  0  0  0  0  0  0  0  0  0  0  0
   28.1213  -21.7235   37.2250 C   0  0  0  0  0  0  0  0  0  0  0  0
   27.0145  -21.7851   37.7896 O   0  0  0  0  0  0  0  0  0  0  0  0
   28.2263  -20.2009   37.0393 O   0  0  0  0  0  0  0  0  0  0  0  0
   26.0717  -21.6517   37.6270 H   0  0  0  0  0  0  0  0  0  0  0  0
 13 14  1  0  0  0
 14 15  2  0  0  0
 14 16  2  0  0  0
 14  7  1  0  0  0
  7  8  2  0  0  0
  8  9  1  0  0  0
  9 10  2  0  0  0
 10 11  1  0  0  0
 11 12  2  0  0  0
 11  1  1  0  0  0
  1  2  2  0  0  0
  2  3  1  0  0  0
  3  4  2  0  0  0
  4  5  1  0  0  0
  5  6  2  0  0  0
  4 19  1  0  0  0
 19 20  2  0  0  0
 19 21  1  0  0  0
 21 23  1  0  0  0
 23 24  2  0  0  0
 24 25  1  0  0  0
 25 26  2  0  0  0
 26 27  1  0  0  0
 27 28  2  0  0  0
 27 29  1  0  0  0
 29 30  1  0  0  0
 29 31  2  0  0  0
 12  7  1  0  0  0
  6  1  1  0  0  0
 28 23  1  0  0  0
 13 17  1  0  0  0
 13 18  1  0  0  0
 21 22  1  0  0  0
 30 32  1  0  0  0
M  END
> <minimizedAffinity>
-8.18456

> <CNNscore>
0.3817994595

> <CNNaffinity>
4.9092698097

> <CNN_VS>
1.8743565083

> <CNNaffinity_variance>
0.2571813166

$$$$
[H]OC(=O)c1c([H])c([H])c([H])c(N([H])C(=O)c2c([H])c([H])c(-c3c([H])c([H])c([H])c(S(=O)(=O)N([H])[H])c3[H])c([H])c2[H])c1[H]


 32 34  0  0  0  0  0  0  0  0999 V2000
   34.9597  -16.4607   35.8058 C   0  0  0  0  0  0  0  0  0  0  0  0
   33.7459  -17.0680   35.4302 C   0  0  0  0  0  0  0  0  0  0  0  0
   33.6148  -18.4623   35.7988 C   0  0  0  0  0  0  0  0  0  0  0  0
   34.5580  -19.0162   36.4208 C   0  0  0  0  0  0  0  0  0  0  0  0
   35.7819  -18.5105   36.7788 C   0  0  0  0  0  0  0  0  0  0  0  0
   35.9630  -17.1362   36.4395 C   0  0  0  0  0  0  0  0  0  0  0  0
   33.7774  -13.0554   37.0745 C   0  0  0  0  0  0  0  0  0  0  0  0
   34.8670  -12.3135   37.0649 C   0  0  0  0  0  0  0  0  0  0  0  0
   36.0138  -12.9424   36.4777 C   0  0  0  0  0  0  0  0  0  0  0  0
   36.0125  -14.1604   36.0077 C   0  0  0  0  0  0  0  0  0  0  0  0
   34.7685  -14.9543   36.0653 C   0  0  0  0  0  0  0  0  0  0  0  0
   33.7244  -14.3744   36.5813 C   0  0  0  0  0  0  0  0  0  0  0  0
   32.7112  -10.6537   37.9229 N   0  0  0  0  0  0  0  0  0  0  0  0
   32.2827  -12.3008   37.6736 S   0  0  0  0  0  0  0  0  0  0  0  0
   31.8134  -12.9681   38.9324 O   0  0  0  0  0  0  0  0  0  0  0  0
   31.2186  -12.3676   36.5971 O   0  0  0  0  0  0  0  0  0  0  0  0
   33.7011  -10.3941   37.8082 H   0  0  0  0  0  0  0  0  0  0  0  0
   31.9998  -10.0688   37.5048 H   0  0  0  0  0  0  0  0  0  0  0  0
   34.2798  -20.2312   37.4798 C   0  0  0  0  0  0  0  0  0  0  0  0
   33.3022  -20.5453   37.6024 O   0  0  0  0  0  0  0  0  0  0  0  0
   35.5864  -20.5228   37.9615 N   0  0  0  0  0  0  0  0  0  0  0  0
   35.0124  -21.5232   38.6695 H   0  0  0  0  0  0  0  0  0  0  0  0
   36.8046  -20.8085   38.4232 C   0  0  0  0  0  0  0  0  0  0  0  0
   36.8180  -21.3473   39.8156 C   0  0  0  0  0  0  0  0  0  0  0  0
   37.9948  -21.5677   40.4247 C   0  0  0  0  0  0  0  0  0  0  0  0
   39.1372  -21.3135   39.7887 C   0  0  0  0  0  0  0  0  0  0  0  0
   39.2532  -20.8516   38.4972 C   0  0  0  0  0  0  0  0  0  0  0  0
   38.0500  -20.6296   37.9114 C   0  0  0  0  0  0  0  0  0  0  0  0
   40.5376  -20.5554   37.9380 C   0  0  0  0  0  0  0  0  0  0  0  0
   41.7397  -20.6768   37.6416 O   0  0  0  0  0  0  0  0  0  0  0  0
   40.2338  -19.2282   37.2236 O   0  0  0  0  0  0  0  0  0  0  0  0
   42.6062  -20.2854   37.8122 H   0  0  0  0  0  0  0  0  0  0  0  0
 13 14  1  0  0  0
 14 15  2  0  0  0
 14 16  2  0  0  0
 14  7  1  0  0  0
  7  8  2  0  0  0
  8  9  1  0  0  0
  9 10  2  0  0  0
 10 11  1  0  0  0
 11 12  2  0  0  0
 11  1  1  0  0  0
  1  2  2  0  0  0
  2  3  1  0  0  0
  3  4  2  0  0  0
  4  5  1  0  0  0
  5  6  2  0  0  0
  4 19  1  0  0  0
 19 20  2  0  0  0
 19 21  1  0  0  0
 21 23  1  0  0  0
 23 24  2  0  0  0
 24 25  1  0  0  0
 25 26  2  0  0  0
 26 27  1  0  0  0
 27 28  2  0  0  0
 27 29  1  0  0  0
 29 30  1  0  0  0
 29 31  2  0  0  0
 12  7  1  0  0  0
  6  1  1  0  0  0
 28 23  1  0  0  0
 13 17  1  0  0  0
 13 18  1  0  0  0
 21 22  1  0  0  0
 30 32  1  0  0  0
M  END
> <minimizedAffinity>
-7.94346

> <CNNscore>
0.3590456843

> <CNNaffinity>
5.0021834373

> <CNN_VS>
1.7960124016

> <CNNaffinity_variance>
0.2038413584

$$$$
[H]c1c([H])c(N([H])C(=O)c2c([H])c([H])c(-c3c([H])c([H])c(OC([H])([H])[H])c(OC([H])([H])[H])c3[H])c([H])c2[H])c([H])c(C(F)(F)F)c1[H]


 30 32  0  0  0  0  0  0  0  0999 V2000
   35.2145  -21.6280   38.3871 C   0  0  0  0  0  0  0  0  0  0  0  0
   35.6230  -22.8895   38.0756 C   0  0  0  0  0  0  0  0  0  0  0  0
   36.6593  -23.5504   38.7435 C   0  0  0  0  0  0  0  0  0  0  0  0
   37.2741  -22.8454   39.7709 C   0  0  0  0  0  0  0  0  0  0  0  0
   36.9010  -21.5965   40.1147 C   0  0  0  0  0  0  0  0  0  0  0  0
   35.8592  -20.9660   39.4237 C   0  0  0  0  0  0  0  0  0  0  0  0
   32.2432  -19.6286   36.0900 C   0  0  0  0  0  0  0  0  0  0  0  0
   33.5365  -19.1518   36.1774 C   0  0  0  0  0  0  0  0  0  0  0  0
   34.4855  -19.7985   36.9252 C   0  0  0  0  0  0  0  0  0  0  0  0
   34.1673  -20.9701   37.6284 C   0  0  0  0  0  0  0  0  0  0  0  0
   32.8727  -21.4349   37.5338 C   0  0  0  0  0  0  0  0  0  0  0  0
   31.9163  -20.7766   36.7737 C   0  0  0  0  0  0  0  0  0  0  0  0
   30.6976  -19.5415   34.2058 C   0  0  0  0  0  0  0  0  0  0  0  0
   31.3353  -18.9342   35.3197 O   0  0  0  0  0  0  0  0  0  0  0  0
   30.6486  -21.2717   36.7072 O   0  0  0  0  0  0  0  0  0  0  0  0
   30.2592  -22.6027   36.6705 C   0  0  0  0  0  0  0  0  0  0  0  0
   38.4100  -23.5394   40.4314 C   0  0  0  0  0  0  0  0  0  0  0  0
   38.8404  -24.5972   39.9337 O   0  0  0  0  0  0  0  0  0  0  0  0
   38.9907  -23.0110   41.5943 N   0  0  0  0  0  0  0  0  0  0  0  0
   38.5685  -22.0993   41.9852 H   0  0  0  0  0  0  0  0  0  0  0  0
   40.0705  -23.6134   42.2636 C   0  0  0  0  0  0  0  0  0  0  0  0
   39.7018  -24.5271   43.2697 C   0  0  0  0  0  0  0  0  0  0  0  0
   40.6971  -25.1515   43.9588 C   0  0  0  0  0  0  0  0  0  0  0  0
   42.0362  -24.9451   43.7345 C   0  0  0  0  0  0  0  0  0  0  0  0
   42.3749  -24.0574   42.7561 C   0  0  0  0  0  0  0  0  0  0  0  0
   41.3929  -23.3797   42.0072 C   0  0  0  0  0  0  0  0  0  0  0  0
   43.7993  -23.7750   42.4612 C   0  0  0  0  0  0  0  0  0  0  0  0
   43.9626  -23.4742   41.1181 F   0  0  0  0  0  0  0  0  0  0  0  0
   44.2421  -22.6370   43.1469 F   0  0  0  0  0  0  0  0  0  0  0  0
   44.6134  -24.8340   42.8463 F   0  0  0  0  0  0  0  0  0  0  0  0
 13 14  1  0  0  0
 14  7  1  0  0  0
  7  8  2  0  0  0
  8  9  1  0  0  0
  9 10  2  0  0  0
 10 11  1  0  0  0
 11 12  2  0  0  0
 12 15  1  0  0  0
 15 16  1  0  0  0
 10  1  1  0  0  0
  1  2  2  0  0  0
  2  3  1  0  0  0
  3  4  2  0  0  0
  4  5  1  0  0  0
  5  6  2  0  0  0
  4 17  1  0  0  0
 17 18  2  0  0  0
 17 19  1  0  0  0
 19 21  1  0  0  0
 21 22  2  0  0  0
 22 23  1  0  0  0
 23 24  2  0  0  0
 24 25  1  0  0  0
 25 26  2  0  0  0
 25 27  1  0  0  0
 27 28  1  0  0  0
 27 29  1  0  0  0
 27 30  1  0  0  0
 12  7  1  0  0  0
  6  1  1  0  0  0
 26 21  1  0  0  0
 19 20  1  0  0  0
M  END
> <minimizedAffinity>
-2.45805

> <CNNscore>
0.6720381975

> <CNNaffinity>
4.5038175583

> <CNN_VS>
3.0267374516

> <CNNaffinity_variance>
0.0714078546

$$$$
[H]c1c([H])c(N([H])C(=O)c2c([H])c([H])c(-c3c([H])c([H])c(OC([H])([H])[H])c(OC([H])([H])[H])c3[H])c([H])c2[H])c([H])c(C(F)(F)F)c1[H]


 30 32  0  0  0  0  0  0  0  0999 V2000
   34.1229  -21.8133   38.4950 C   0  0  0  0  0  0  0  0  0  0  0  0
   34.8300  -22.8584   39.0079 C   0  0  0  0  0  0  0  0  0  0  0  0
   36.1658  -22.7606   39.4112 C   0  0  0  0  0  0  0  0  0  0  0  0
   36.7609  -21.5138   39.2632 C   0  0  0  0  0  0  0  0  0  0  0  0
   36.0988  -20.4516   38.7628 C   0  0  0  0  0  0  0  0  0  0  0  0
   34.7619  -20.5867   38.3693 C   0  0  0  0  0  0  0  0  0  0  0  0
   30.1436  -22.2492   37.0536 C   0  0  0  0  0  0  0  0  0  0  0  0
   31.0301  -21.3585   36.4806 C   0  0  0  0  0  0  0  0  0  0  0  0
   32.3080  -21.2196   36.9558 C   0  0  0  0  0  0  0  0  0  0  0  0
   32.7539  -21.9827   38.0454 C   0  0  0  0  0  0  0  0  0  0  0  0
   31.8589  -22.8673   38.6090 C   0  0  0  0  0  0  0  0  0  0  0  0
   30.5665  -23.0046   38.1225 C   0  0  0  0  0  0  0  0  0  0  0  0
   28.5199  -23.3931   35.6387 C   0  0  0  0  0  0  0  0  0  0  0  0
   28.8727  -22.3442   36.5285 O   0  0  0  0  0  0  0  0  0  0  0  0
   29.7150  -23.8920   38.7092 O   0  0  0  0  0  0  0  0  0  0  0  0
   29.8396  -25.2723   38.7711 C   0  0  0  0  0  0  0  0  0  0  0  0
   38.1959  -21.4418   39.6424 C   0  0  0  0  0  0  0  0  0  0  0  0
   38.5116  -21.6019   40.8368 O   0  0  0  0  0  0  0  0  0  0  0  0
   39.1798  -21.2008   38.6715 N   0  0  0  0  0  0  0  0  0  0  0  0
   38.8456  -21.0588   37.6563 H   0  0  0  0  0  0  0  0  0  0  0  0
   40.5535  -21.1275   38.9620 C   0  0  0  0  0  0  0  0  0  0  0  0
   41.2795  -22.2972   38.6661 C   0  0  0  0  0  0  0  0  0  0  0  0
   42.6179  -22.2973   38.9195 C   0  0  0  0  0  0  0  0  0  0  0  0
   43.3023  -21.2294   39.4459 C   0  0  0  0  0  0  0  0  0  0  0  0
   42.5834  -20.1048   39.7258 C   0  0  0  0  0  0  0  0  0  0  0  0
   41.1966  -20.0409   39.4861 C   0  0  0  0  0  0  0  0  0  0  0  0
   43.2497  -18.9142   40.3037 C   0  0  0  0  0  0  0  0  0  0  0  0
   44.6124  -19.1361   40.4250 F   0  0  0  0  0  0  0  0  0  0  0  0
   43.1341  -17.8071   39.4536 F   0  0  0  0  0  0  0  0  0  0  0  0
   42.6828  -18.5615   41.5230 F   0  0  0  0  0  0  0  0  0  0  0  0
 13 14  1  0  0  0
 14  7  1  0  0  0
  7  8  2  0  0  0
  8  9  1  0  0  0
  9 10  2  0  0  0
 10 11  1  0  0  0
 11 12  2  0  0  0
 12 15  1  0  0  0
 15 16  1  0  0  0
 10  1  1  0  0  0
  1  2  2  0  0  0
  2  3  1  0  0  0
  3  4  2  0  0  0
  4  5  1  0  0  0
  5  6  2  0  0  0
  4 17  1  0  0  0
 17 18  2  0  0  0
 17 19  1  0  0  0
 19 21  1  0  0  0
 21 22  2  0  0  0
 22 23  1  0  0  0
 23 24  2  0  0  0
 24 25  1  0  0  0
 25 26  2  0  0  0
 25 27  1  0  0  0
 27 28  1  0  0  0
 27 29  1  0  0  0
 27 30  1  0  0  0
 12  7  1  0  0  0
  6  1  1  0  0  0
 26 21  1  0  0  0
 19 20  1  0  0  0
M  END
> <minimizedAffinity>
-3.77873

> <CNNscore>
0.6293995976

> <CNNaffinity>
4.5336313248

> <CNN_VS>
2.8534657955

> <CNNaffinity_variance>
0.0794060677

$$$$
[H]c1c([H])c(N([H])C(=O)c2c([H])c([H])c(-c3c([H])c([H])c(OC([H])([H])[H])c(OC([H])([H])[H])c3[H])c([H])c2[H])c([H])c(C(F)(F)F)c1[H]


 30 32  0  0  0  0  0  0  0  0999 V2000
   33.8054  -22.4141   39.2539 C   0  0  0  0  0  0  0  0  0  0  0  0
   34.2733  -22.3365   40.5308 C   0  0  0  0  0  0  0  0  0  0  0  0
   35.6110  -22.0768   40.8464 C   0  0  0  0  0  0  0  0  0  0  0  0
   36.4705  -21.8946   39.7700 C   0  0  0  0  0  0  0  0  0  0  0  0
   36.0507  -21.9601   38.4907 C   0  0  0  0  0  0  0  0  0  0  0  0
   34.7038  -22.2221   38.2124 C   0  0  0  0  0  0  0  0  0  0  0  0
   29.7150  -23.3826   38.5955 C   0  0  0  0  0  0  0  0  0  0  0  0
   30.3755  -23.7640   39.7470 C   0  0  0  0  0  0  0  0  0  0  0  0
   31.6952  -23.4537   39.9478 C   0  0  0  0  0  0  0  0  0  0  0  0
   32.4170  -22.7360   38.9822 C   0  0  0  0  0  0  0  0  0  0  0  0
   31.7465  -22.3622   37.8369 C   0  0  0  0  0  0  0  0  0  0  0  0
   30.4096  -22.6781   37.6398 C   0  0  0  0  0  0  0  0  0  0  0  0
   27.3693  -23.0300   39.1613 C   0  0  0  0  0  0  0  0  0  0  0  0
   28.3869  -23.7231   38.4539 O   0  0  0  0  0  0  0  0  0  0  0  0
   29.7856  -22.2878   36.4931 O   0  0  0  0  0  0  0  0  0  0  0  0
   29.2011  -21.0592   36.2220 C   0  0  0  0  0  0  0  0  0  0  0  0
   37.8977  -21.6769   40.1218 C   0  0  0  0  0  0  0  0  0  0  0  0
   38.7152  -21.4529   39.2088 O   0  0  0  0  0  0  0  0  0  0  0  0
   38.3180  -21.7196   41.4598 N   0  0  0  0  0  0  0  0  0  0  0  0
   37.5677  -21.9291   42.2052 H   0  0  0  0  0  0  0  0  0  0  0  0
   39.6501  -21.5158   41.8604 C   0  0  0  0  0  0  0  0  0  0  0  0
   40.1889  -22.5467   42.6541 C   0  0  0  0  0  0  0  0  0  0  0  0
   41.4774  -22.4178   43.0769 C   0  0  0  0  0  0  0  0  0  0  0  0
   42.2824  -21.3460   42.7786 C   0  0  0  0  0  0  0  0  0  0  0  0
   41.7444  -20.3573   42.0085 C   0  0  0  0  0  0  0  0  0  0  0  0
   40.4182  -20.4314   41.5391 C   0  0  0  0  0  0  0  0  0  0  0  0
   42.5479  -19.1646   41.6515 C   0  0  0  0  0  0  0  0  0  0  0  0
   43.8250  -19.5416   41.2673 F   0  0  0  0  0  0  0  0  0  0  0  0
   42.0104  -18.5072   40.5378 F   0  0  0  0  0  0  0  0  0  0  0  0
   42.5824  -18.2487   42.6967 F   0  0  0  0  0  0  0  0  0  0  0  0
 13 14  1  0  0  0
 14  7  1  0  0  0
  7  8  2  0  0  0
  8  9  1  0  0  0
  9 10  2  0  0  0
 10 11  1  0  0  0
 11 12  2  0  0  0
 12 15  1  0  0  0
 15 16  1  0  0  0
 10  1  1  0  0  0
  1  2  2  0  0  0
  2  3  1  0  0  0
  3  4  2  0  0  0
  4  5  1  0  0  0
  5  6  2  0  0  0
  4 17  1  0  0  0
 17 18  2  0  0  0
 17 19  1  0  0  0
 19 21  1  0  0  0
 21 22  2  0  0  0
 22 23  1  0  0  0
 23 24  2  0  0  0
 24 25  1  0  0  0
 25 26  2  0  0  0
 25 27  1  0  0  0
 27 28  1  0  0  0
 27 29  1  0  0  0
 27 30  1  0  0  0
 12  7  1  0  0  0
  6  1  1  0  0  0
 26 21  1  0  0  0
 19 20  1  0  0  0
M  END
> <minimizedAffinity>
-3.25929

> <CNNscore>
0.6285856366

> <CNNaffinity>
4.6163187027

> <CNN_VS>
2.9017515182

> <CNNaffinity_variance>
0.4379210472

$$$$
[H]c1c([H])c(N([H])C(=O)c2c([H])c([H])c(-c3c([H])c([H])c(OC([H])([H])[H])c(OC([H])([H])[H])c3[H])c([H])c2[H])c([H])c(C(F)(F)F)c1[H]


 30 32  0  0  0  0  0  0  0  0999 V2000
   34.6280  -22.0069   38.0101 C   0  0  0  0  0  0  0  0  0  0  0  0
   35.2367  -21.5304   36.8885 C   0  0  0  0  0  0  0  0  0  0  0  0
   36.5268  -20.9897   36.8830 C   0  0  0  0  0  0  0  0  0  0  0  0
   37.1833  -20.9581   38.1071 C   0  0  0  0  0  0  0  0  0  0  0  0
   36.6205  -21.4206   39.2414 C   0  0  0  0  0  0  0  0  0  0  0  0
   35.3269  -21.9552   39.2090 C   0  0  0  0  0  0  0  0  0  0  0  0
   30.6813  -23.5958   37.9687 C   0  0  0  0  0  0  0  0  0  0  0  0
   31.7740  -24.3738   38.2978 C   0  0  0  0  0  0  0  0  0  0  0  0
   33.0427  -23.8554   38.3019 C   0  0  0  0  0  0  0  0  0  0  0  0
   33.2683  -22.5114   37.9686 C   0  0  0  0  0  0  0  0  0  0  0  0
   32.1693  -21.7459   37.6409 C   0  0  0  0  0  0  0  0  0  0  0  0
   30.8868  -22.2761   37.6399 C   0  0  0  0  0  0  0  0  0  0  0  0
   29.0001  -25.0278   36.9345 C   0  0  0  0  0  0  0  0  0  0  0  0
   29.4307  -24.1752   37.9852 O   0  0  0  0  0  0  0  0  0  0  0  0
   29.8287  -21.4831   37.3105 O   0  0  0  0  0  0  0  0  0  0  0  0
   29.2335  -21.3376   36.0659 C   0  0  0  0  0  0  0  0  0  0  0  0
   38.5293  -20.3286   38.0941 C   0  0  0  0  0  0  0  0  0  0  0  0
   38.7608  -19.4200   37.2739 O   0  0  0  0  0  0  0  0  0  0  0  0
   39.5223  -20.7476   38.9925 N   0  0  0  0  0  0  0  0  0  0  0  0
   39.2676  -21.5458   39.6710 H   0  0  0  0  0  0  0  0  0  0  0  0
   40.8122  -20.1899   39.0370 C   0  0  0  0  0  0  0  0  0  0  0  0
   41.3638  -20.0885   40.3287 C   0  0  0  0  0  0  0  0  0  0  0  0
   42.6133  -19.5594   40.4479 C   0  0  0  0  0  0  0  0  0  0  0  0
   43.3674  -19.1182   39.3883 C   0  0  0  0  0  0  0  0  0  0  0  0
   42.8177  -19.2246   38.1448 C   0  0  0  0  0  0  0  0  0  0  0  0
   41.5300  -19.7635   37.9545 C   0  0  0  0  0  0  0  0  0  0  0  0
   43.5663  -18.7621   36.9526 C   0  0  0  0  0  0  0  0  0  0  0  0
   42.7376  -18.0294   36.1177 F   0  0  0  0  0  0  0  0  0  0  0  0
   44.5947  -17.8816   37.3110 F   0  0  0  0  0  0  0  0  0  0  0  0
   44.1500  -19.8288   36.2789 F   0  0  0  0  0  0  0  0  0  0  0  0
 13 14  1  0  0  0
 14  7  1  0  0  0
  7  8  2  0  0  0
  8  9  1  0  0  0
  9 10  2  0  0  0
 10 11  1  0  0  0
 11 12  2  0  0  0
 12 15  1  0  0  0
 15 16  1  0  0  0
 10  1  1  0  0  0
  1  2  2  0  0  0
  2  3  1  0  0  0
  3  4  2  0  0  0
  4  5  1  0  0  0
  5  6  2  0  0  0
  4 17  1  0  0  0
 17 18  2  0  0  0
 17 19  1  0  0  0
 19 21  1  0  0  0
 21 22  2  0  0  0
 22 23  1  0  0  0
 23 24  2  0  0  0
 24 25  1  0  0  0
 25 26  2  0  0  0
 25 27  1  0  0  0
 27 28  1  0  0  0
 27 29  1  0  0  0
 27 30  1  0  0  0
 12  7  1  0  0  0
  6  1  1  0  0  0
 26 21  1  0  0  0
 19 20  1  0  0  0
M  END
> <minimizedAffinity>
-3.57192

> <CNNscore>
0.5300313234

> <CNNaffinity>
4.4974164963

> <CNN_VS>
2.3837716579

> <CNNaffinity_variance>
0.1040557250

$$$$
[H]c1c([H])c(N([H])C(=O)c2c([H])c([H])c(-c3c([H])c([H])c(OC([H])([H])[H])c(OC([H])([H])[H])c3[H])c([H])c2[H])c([H])c(C(F)(F)F)c1[H]


 30 32  0  0  0  0  0  0  0  0999 V2000
   34.3299  -21.0957   37.2141 C   0  0  0  0  0  0  0  0  0  0  0  0
   35.1366  -20.2318   36.5370 C   0  0  0  0  0  0  0  0  0  0  0  0
   36.5083  -20.1071   36.7808 C   0  0  0  0  0  0  0  0  0  0  0  0
   37.0315  -20.9271   37.7730 C   0  0  0  0  0  0  0  0  0  0  0  0
   36.2713  -21.7980   38.4663 C   0  0  0  0  0  0  0  0  0  0  0  0
   34.9012  -21.8957   38.1951 C   0  0  0  0  0  0  0  0  0  0  0  0
   30.1658  -21.1670   36.3436 C   0  0  0  0  0  0  0  0  0  0  0  0
   30.9985  -20.1916   35.8307 C   0  0  0  0  0  0  0  0  0  0  0  0
   32.3375  -20.1723   36.1219 C   0  0  0  0  0  0  0  0  0  0  0  0
   32.9033  -21.1487   36.9556 C   0  0  0  0  0  0  0  0  0  0  0  0
   32.0612  -22.1160   37.4619 C   0  0  0  0  0  0  0  0  0  0  0  0
   30.7063  -22.1312   37.1623 C   0  0  0  0  0  0  0  0  0  0  0  0
   27.8432  -20.7551   36.9617 C   0  0  0  0  0  0  0  0  0  0  0  0
   28.8285  -21.1332   36.0117 O   0  0  0  0  0  0  0  0  0  0  0  0
   29.9104  -23.1067   37.6837 O   0  0  0  0  0  0  0  0  0  0  0  0
   29.6190  -23.3387   39.0200 C   0  0  0  0  0  0  0  0  0  0  0  0
   38.4779  -20.7412   38.0587 C   0  0  0  0  0  0  0  0  0  0  0  0
   39.1740  -20.1006   37.2481 O   0  0  0  0  0  0  0  0  0  0  0  0
   39.0501  -21.2750   39.2233 N   0  0  0  0  0  0  0  0  0  0  0  0
   38.4008  -21.8296   39.8815 H   0  0  0  0  0  0  0  0  0  0  0  0
   40.4084  -21.1296   39.5561 C   0  0  0  0  0  0  0  0  0  0  0  0
   40.6766  -20.1211   40.5017 C   0  0  0  0  0  0  0  0  0  0  0  0
   41.9721  -19.9255   40.8740 C   0  0  0  0  0  0  0  0  0  0  0  0
   43.0319  -20.6488   40.3845 C   0  0  0  0  0  0  0  0  0  0  0  0
   42.7536  -21.6216   39.4701 C   0  0  0  0  0  0  0  0  0  0  0  0
   41.4346  -21.8739   39.0444 C   0  0  0  0  0  0  0  0  0  0  0  0
   43.8450  -22.4386   38.8896 C   0  0  0  0  0  0  0  0  0  0  0  0
   44.6220  -22.9897   39.8963 F   0  0  0  0  0  0  0  0  0  0  0  0
   43.3353  -23.5336   38.1806 F   0  0  0  0  0  0  0  0  0  0  0  0
   44.6159  -21.6940   38.0043 F   0  0  0  0  0  0  0  0  0  0  0  0
 13 14  1  0  0  0
 14  7  1  0  0  0
  7  8  2  0  0  0
  8  9  1  0  0  0
  9 10  2  0  0  0
 10 11  1  0  0  0
 11 12  2  0  0  0
 12 15  1  0  0  0
 15 16  1  0  0  0
 10  1  1  0  0  0
  1  2  2  0  0  0
  2  3  1  0  0  0
  3  4  2  0  0  0
  4  5  1  0  0  0
  5  6  2  0  0  0
  4 17  1  0  0  0
 17 18  2  0  0  0
 17 19  1  0  0  0
 19 21  1  0  0  0
 21 22  2  0  0  0
 22 23  1  0  0  0
 23 24  2  0  0  0
 24 25  1  0  0  0
 25 26  2  0  0  0
 25 27  1  0  0  0
 27 28  1  0  0  0
 27 29  1  0  0  0
 27 30  1  0  0  0
 12  7  1  0  0  0
  6  1  1  0  0  0
 26 21  1  0  0  0
 19 20  1  0  0  0
M  END
> <minimizedAffinity>
-3.30681

> <CNNscore>
0.5213143229

> <CNNaffinity>
4.4281625748

> <CNN_VS>
2.3084645271

> <CNNaffinity_variance>
0.0446206145

$$$$
[H]c1c([H])c(N([H])C(=O)c2c([H])c([H])c(-c3c([H])c([H])c(OC([H])([H])[H])c(OC([H])([H])[H])c3[H])c([H])c2[H])c([H])c(C(F)(F)F)c1[H]


 30 32  0  0  0  0  0  0  0  0999 V2000
   35.2182  -21.8045   37.6049 C   0  0  0  0  0  0  0  0  0  0  0  0
   36.1218  -20.8171   37.3521 C   0  0  0  0  0  0  0  0  0  0  0  0
   37.3690  -20.7350   37.9803 C   0  0  0  0  0  0  0  0  0  0  0  0
   37.6580  -21.7342   38.9015 C   0  0  0  0  0  0  0  0  0  0  0  0
   36.7952  -22.7314   39.1809 C   0  0  0  0  0  0  0  0  0  0  0  0
   35.5553  -22.7815   38.5325 C   0  0  0  0  0  0  0  0  0  0  0  0
   31.4121  -21.6903   35.7066 C   0  0  0  0  0  0  0  0  0  0  0  0
   31.9705  -20.5660   36.2827 C   0  0  0  0  0  0  0  0  0  0  0  0
   33.1940  -20.6134   36.8982 C   0  0  0  0  0  0  0  0  0  0  0  0
   33.9178  -21.8137   36.9615 C   0  0  0  0  0  0  0  0  0  0  0  0
   33.3490  -22.9288   36.3837 C   0  0  0  0  0  0  0  0  0  0  0  0
   32.1102  -22.8743   35.7605 C   0  0  0  0  0  0  0  0  0  0  0  0
   28.9789  -21.6326   35.8572 C   0  0  0  0  0  0  0  0  0  0  0  0
   30.1793  -21.5773   35.1007 O   0  0  0  0  0  0  0  0  0  0  0  0
   31.5856  -24.0007   35.2013 O   0  0  0  0  0  0  0  0  0  0  0  0
   30.9734  -25.0632   35.8501 C   0  0  0  0  0  0  0  0  0  0  0  0
   38.9620  -21.6001   39.6014 C   0  0  0  0  0  0  0  0  0  0  0  0
   39.3043  -22.4831   40.4108 O   0  0  0  0  0  0  0  0  0  0  0  0
   39.7959  -20.4994   39.3529 N   0  0  0  0  0  0  0  0  0  0  0  0
   39.4416  -19.7616   38.6511 H   0  0  0  0  0  0  0  0  0  0  0  0
   41.0432  -20.3161   39.9753 C   0  0  0  0  0  0  0  0  0  0  0  0
   42.1542  -20.4996   39.1296 C   0  0  0  0  0  0  0  0  0  0  0  0
   43.3960  -20.3352   39.6648 C   0  0  0  0  0  0  0  0  0  0  0  0
   43.6318  -20.0031   40.9763 C   0  0  0  0  0  0  0  0  0  0  0  0
   42.5444  -19.8289   41.7806 C   0  0  0  0  0  0  0  0  0  0  0  0
   41.2338  -19.9836   41.2876 C   0  0  0  0  0  0  0  0  0  0  0  0
   42.7180  -19.4780   43.2097 C   0  0  0  0  0  0  0  0  0  0  0  0
   42.8686  -18.1079   43.3545 F   0  0  0  0  0  0  0  0  0  0  0  0
   41.5753  -19.8004   43.9525 F   0  0  0  0  0  0  0  0  0  0  0  0
   43.7860  -20.1677   43.7719 F   0  0  0  0  0  0  0  0  0  0  0  0
 13 14  1  0  0  0
 14  7  1  0  0  0
  7  8  2  0  0  0
  8  9  1  0  0  0
  9 10  2  0  0  0
 10 11  1  0  0  0
 11 12  2  0  0  0
 12 15  1  0  0  0
 15 16  1  0  0  0
 10  1  1  0  0  0
  1  2  2  0  0  0
  2  3  1  0  0  0
  3  4  2  0  0  0
  4  5  1  0  0  0
  5  6  2  0  0  0
  4 17  1  0  0  0
 17 18  2  0  0  0
 17 19  1  0  0  0
 19 21  1  0  0  0
 21 22  2  0  0  0
 22 23  1  0  0  0
 23 24  2  0  0  0
 24 25  1  0  0  0
 25 26  2  0  0  0
 25 27  1  0  0  0
 27 28  1  0  0  0
 27 29  1  0  0  0
 27 30  1  0  0  0
 12  7  1  0  0  0
  6  1  1  0  0  0
 26 21  1  0  0  0
 19 20  1  0  0  0
M  END
> <minimizedAffinity>
-3.86755

> <CNNscore>
0.5177383423

> <CNNaffinity>
4.3395843506

> <CNN_VS>
2.2467691898

> <CNNaffinity_variance>
0.1269872487

$$$$
[H]c1c([H])c(N([H])C(=O)c2c([H])c([H])c(-c3c([H])c([H])c(OC([H])([H])[H])c(OC([H])([H])[H])c3[H])c([H])c2[H])c([H])c(C(F)(F)F)c1[H]


 30 32  0  0  0  0  0  0  0  0999 V2000
   35.2240  -14.2011   36.9049 C   0  0  0  0  0  0  0  0  0  0  0  0
   36.2939  -14.5968   37.6493 C   0  0  0  0  0  0  0  0  0  0  0  0
   36.7729  -15.9108   37.6717 C   0  0  0  0  0  0  0  0  0  0  0  0
   36.0915  -16.8251   36.8777 C   0  0  0  0  0  0  0  0  0  0  0  0
   35.0298  -16.4774   36.1234 C   0  0  0  0  0  0  0  0  0  0  0  0
   34.5781  -15.1522   36.1259 C   0  0  0  0  0  0  0  0  0  0  0  0
   33.7378  -10.2241   37.1838 C   0  0  0  0  0  0  0  0  0  0  0  0
   33.2081  -11.2521   37.9391 C   0  0  0  0  0  0  0  0  0  0  0  0
   33.6884  -12.5316   37.8379 C   0  0  0  0  0  0  0  0  0  0  0  0
   34.7378  -12.8351   36.9574 C   0  0  0  0  0  0  0  0  0  0  0  0
   35.2569  -11.8004   36.2084 C   0  0  0  0  0  0  0  0  0  0  0  0
   34.7673  -10.5063   36.3164 C   0  0  0  0  0  0  0  0  0  0  0  0
   31.8135   -8.7280   37.2576 C   0  0  0  0  0  0  0  0  0  0  0  0
   33.2126   -8.9584   37.3328 O   0  0  0  0  0  0  0  0  0  0  0  0
   35.3107   -9.5134   35.5577 O   0  0  0  0  0  0  0  0  0  0  0  0
   35.3612   -8.1574   35.8460 C   0  0  0  0  0  0  0  0  0  0  0  0
   36.5773  -18.2272   36.9575 C   0  0  0  0  0  0  0  0  0  0  0  0
   37.4798  -18.5965   36.1821 O   0  0  0  0  0  0  0  0  0  0  0  0
   36.0315  -19.1200   37.8922 N   0  0  0  0  0  0  0  0  0  0  0  0
   35.2453  -18.7469   38.5287 H   0  0  0  0  0  0  0  0  0  0  0  0
   36.4501  -20.4557   38.0240 C   0  0  0  0  0  0  0  0  0  0  0  0
   35.6092  -21.3986   37.4021 C   0  0  0  0  0  0  0  0  0  0  0  0
   35.9547  -22.7135   37.4866 C   0  0  0  0  0  0  0  0  0  0  0  0
   37.0700  -23.1765   38.1405 C   0  0  0  0  0  0  0  0  0  0  0  0
   37.8732  -22.2493   38.7364 C   0  0  0  0  0  0  0  0  0  0  0  0
   37.5715  -20.8742   38.6845 C   0  0  0  0  0  0  0  0  0  0  0  0
   39.0902  -22.6720   39.4684 C   0  0  0  0  0  0  0  0  0  0  0  0
   38.8137  -23.7679   40.2705 F   0  0  0  0  0  0  0  0  0  0  0  0
   40.0862  -23.1075   38.5854 F   0  0  0  0  0  0  0  0  0  0  0  0
   39.6228  -21.6230   40.2091 F   0  0  0  0  0  0  0  0  0  0  0  0
 13 14  1  0  0  0
 14  7  1  0  0  0
  7  8  2  0  0  0
  8  9  1  0  0  0
  9 10  2  0  0  0
 10 11  1  0  0  0
 11 12  2  0  0  0
 12 15  1  0  0  0
 15 16  1  0  0  0
 10  1  1  0  0  0
  1  2  2  0  0  0
  2  3  1  0  0  0
  3  4  2  0  0  0
  4  5  1  0  0  0
  5  6  2  0  0  0
  4 17  1  0  0  0
 17 18  2  0  0  0
 17 19  1  0  0  0
 19 21  1  0  0  0
 21 22  2  0  0  0
 22 23  1  0  0  0
 23 24  2  0  0  0
 24 25  1  0  0  0
 25 26  2  0  0  0
 25 27  1  0  0  0
 27 28  1  0  0  0
 27 29  1  0  0  0
 27 30  1  0  0  0
 12  7  1  0  0  0
  6  1  1  0  0  0
 26 21  1  0  0  0
 19 20  1  0  0  0
M  END
> <minimizedAffinity>
-7.13158

> <CNNscore>
0.4968418479

> <CNNaffinity>
5.1645560265

> <CNN_VS>
2.5659675598

> <CNNaffinity_variance>
0.1457441151

$$$$
[H]c1c([H])c(N([H])C(=O)c2c([H])c([H])c(-c3c([H])c([H])c(OC([H])([H])[H])c(OC([H])([H])[H])c3[H])c([H])c2[H])c([H])c(C(F)(F)F)c1[H]


 30 32  0  0  0  0  0  0  0  0999 V2000
   36.2568  -21.8419   39.5097 C   0  0  0  0  0  0  0  0  0  0  0  0
   37.1516  -21.2970   38.6391 C   0  0  0  0  0  0  0  0  0  0  0  0
   36.7777  -20.6163   37.4757 C   0  0  0  0  0  0  0  0  0  0  0  0
   35.4127  -20.5147   37.2370 C   0  0  0  0  0  0  0  0  0  0  0  0
   34.4920  -21.0364   38.0721 C   0  0  0  0  0  0  0  0  0  0  0  0
   34.9033  -21.7114   39.2278 C   0  0  0  0  0  0  0  0  0  0  0  0
   37.4849  -24.1230   42.8847 C   0  0  0  0  0  0  0  0  0  0  0  0
   36.3924  -24.4858   42.1215 C   0  0  0  0  0  0  0  0  0  0  0  0
   35.9997  -23.7413   41.0400 C   0  0  0  0  0  0  0  0  0  0  0  0
   36.7006  -22.5815   40.6763 C   0  0  0  0  0  0  0  0  0  0  0  0
   37.7885  -22.2298   41.4470 C   0  0  0  0  0  0  0  0  0  0  0  0
   38.1823  -22.9886   42.5402 C   0  0  0  0  0  0  0  0  0  0  0  0
   38.9724  -25.7579   43.9150 C   0  0  0  0  0  0  0  0  0  0  0  0
   37.8307  -24.9147   43.9588 O   0  0  0  0  0  0  0  0  0  0  0  0
   39.2645  -22.6047   43.2738 O   0  0  0  0  0  0  0  0  0  0  0  0
   40.4210  -21.9877   42.8195 C   0  0  0  0  0  0  0  0  0  0  0  0
   35.0345  -19.8394   35.9686 C   0  0  0  0  0  0  0  0  0  0  0  0
   33.9810  -20.1789   35.3968 O   0  0  0  0  0  0  0  0  0  0  0  0
   35.8479  -18.8337   35.4249 N   0  0  0  0  0  0  0  0  0  0  0  0
   36.7530  -18.5905   35.9580 H   0  0  0  0  0  0  0  0  0  0  0  0
   35.5447  -18.1514   34.2336 C   0  0  0  0  0  0  0  0  0  0  0  0
   34.1683  -17.9919   33.9823 C   0  0  0  0  0  0  0  0  0  0  0  0
   33.8001  -17.3370   32.8461 C   0  0  0  0  0  0  0  0  0  0  0  0
   34.6863  -16.8241   31.9310 C   0  0  0  0  0  0  0  0  0  0  0  0
   36.0152  -16.9872   32.1908 C   0  0  0  0  0  0  0  0  0  0  0  0
   36.4607  -17.6545   33.3487 C   0  0  0  0  0  0  0  0  0  0  0  0
   37.0324  -16.4688   31.2463 C   0  0  0  0  0  0  0  0  0  0  0  0
   38.2730  -17.0209   31.5237 F   0  0  0  0  0  0  0  0  0  0  0  0
   36.7459  -16.8562   29.9312 F   0  0  0  0  0  0  0  0  0  0  0  0
   37.0792  -15.0796   31.2682 F   0  0  0  0  0  0  0  0  0  0  0  0
 13 14  1  0  0  0
 14  7  1  0  0  0
  7  8  2  0  0  0
  8  9  1  0  0  0
  9 10  2  0  0  0
 10 11  1  0  0  0
 11 12  2  0  0  0
 12 15  1  0  0  0
 15 16  1  0  0  0
 10  1  1  0  0  0
  1  2  2  0  0  0
  2  3  1  0  0  0
  3  4  2  0  0  0
  4  5  1  0  0  0
  5  6  2  0  0  0
  4 17  1  0  0  0
 17 18  2  0  0  0
 17 19  1  0  0  0
 19 21  1  0  0  0
 21 22  2  0  0  0
 22 23  1  0  0  0
 23 24  2  0  0  0
 24 25  1  0  0  0
 25 26  2  0  0  0
 25 27  1  0  0  0
 27 28  1  0  0  0
 27 29  1  0  0  0
 27 30  1  0  0  0
 12  7  1  0  0  0
  6  1  1  0  0  0
 26 21  1  0  0  0
 19 20  1  0  0  0
M  END
> <minimizedAffinity>
6.39052

> <CNNscore>
0.4961296618

> <CNNaffinity>
4.8087291718

> <CNN_VS>
2.3857531548

> <CNNaffinity_variance>
0.8955959082

$$$$
[H]c1c([H])c(N([H])C(=O)c2c([H])c([H])c(-c3c([H])c([H])c(OC([H])([H])[H])c(OC([H])([H])[H])c3[H])c([H])c2[H])c([H])c(C(F)(F)F)c1[H]


 30 32  0  0  0  0  0  0  0  0999 V2000
   35.8079  -20.5564   36.9359 C   0  0  0  0  0  0  0  0  0  0  0  0
   36.7705  -19.5942   36.8798 C   0  0  0  0  0  0  0  0  0  0  0  0
   37.9993  -19.6946   37.5406 C   0  0  0  0  0  0  0  0  0  0  0  0
   38.2049  -20.8531   38.2796 C   0  0  0  0  0  0  0  0  0  0  0  0
   37.2816  -21.8319   38.3612 C   0  0  0  0  0  0  0  0  0  0  0  0
   36.0624  -21.6970   37.6861 C   0  0  0  0  0  0  0  0  0  0  0  0
   32.1155  -19.9240   34.9187 C   0  0  0  0  0  0  0  0  0  0  0  0
   33.0748  -18.9341   35.0050 C   0  0  0  0  0  0  0  0  0  0  0  0
   34.2587  -19.1442   35.6627 C   0  0  0  0  0  0  0  0  0  0  0  0
   34.5303  -20.3787   36.2717 C   0  0  0  0  0  0  0  0  0  0  0  0
   33.5641  -21.3579   36.1793 C   0  0  0  0  0  0  0  0  0  0  0  0
   32.3678  -21.1398   35.5106 C   0  0  0  0  0  0  0  0  0  0  0  0
   29.8350  -19.0607   34.8989 C   0  0  0  0  0  0  0  0  0  0  0  0
   30.9463  -19.6515   34.2415 O   0  0  0  0  0  0  0  0  0  0  0  0
   31.4408  -22.1362   35.4428 O   0  0  0  0  0  0  0  0  0  0  0  0
   31.6409  -23.4557   35.0642 C   0  0  0  0  0  0  0  0  0  0  0  0
   39.4909  -20.9179   39.0213 C   0  0  0  0  0  0  0  0  0  0  0  0
   39.4652  -21.0225   40.2624 O   0  0  0  0  0  0  0  0  0  0  0  0
   40.7140  -20.8656   38.3358 N   0  0  0  0  0  0  0  0  0  0  0  0
   40.6735  -20.7633   37.2633 H   0  0  0  0  0  0  0  0  0  0  0  0
   41.9643  -20.9288   38.9758 C   0  0  0  0  0  0  0  0  0  0  0  0
   42.9632  -20.1248   38.3938 C   0  0  0  0  0  0  0  0  0  0  0  0
   44.2004  -20.1341   38.9636 C   0  0  0  0  0  0  0  0  0  0  0  0
   44.5342  -20.8784   40.0684 C   0  0  0  0  0  0  0  0  0  0  0  0
   43.5543  -21.6507   40.6192 C   0  0  0  0  0  0  0  0  0  0  0  0
   42.2542  -21.6845   40.0776 C   0  0  0  0  0  0  0  0  0  0  0  0
   43.8398  -22.4885   41.8075 C   0  0  0  0  0  0  0  0  0  0  0  0
   44.6122  -23.5826   41.4511 F   0  0  0  0  0  0  0  0  0  0  0  0
   44.6080  -21.7893   42.7469 F   0  0  0  0  0  0  0  0  0  0  0  0
   42.6664  -22.8810   42.4412 F   0  0  0  0  0  0  0  0  0  0  0  0
 13 14  1  0  0  0
 14  7  1  0  0  0
  7  8  2  0  0  0
  8  9  1  0  0  0
  9 10  2  0  0  0
 10 11  1  0  0  0
 11 12  2  0  0  0
 12 15  1  0  0  0
 15 16  1  0  0  0
 10  1  1  0  0  0
  1  2  2  0  0  0
  2  3  1  0  0  0
  3  4  2  0  0  0
  4  5  1  0  0  0
  5  6  2  0  0  0
  4 17  1  0  0  0
 17 18  2  0  0  0
 17 19  1  0  0  0
 19 21  1  0  0  0
 21 22  2  0  0  0
 22 23  1  0  0  0
 23 24  2  0  0  0
 24 25  1  0  0  0
 25 26  2  0  0  0
 25 27  1  0  0  0
 27 28  1  0  0  0
 27 29  1  0  0  0
 27 30  1  0  0  0
 12  7  1  0  0  0
  6  1  1  0  0  0
 26 21  1  0  0  0
 19 20  1  0  0  0
M  END
> <minimizedAffinity>
-3.74978

> <CNNscore>
0.4873480797

> <CNNaffinity>
4.4727482796

> <CNN_VS>
2.1797852516

> <CNNaffinity_variance>
0.0371978730

$$$$
[H]OC(=O)c1c([H])c([H])c(-c2c([H])c([H])c(C(=O)N([H])c3c([H])c([H])c([H])c(C(=O)O[H])c3[H])c([H])c2[H])c([H])c1[H]


 30 32  0  0  0  0  0  0  0  0999 V2000
   35.4118  -21.9603   38.0590 C   0  0  0  0  0  0  0  0  0  0  0  0
   35.7155  -21.0980   37.0386 C   0  0  0  0  0  0  0  0  0  0  0  0
   37.0197  -20.7229   36.7912 C   0  0  0  0  0  0  0  0  0  0  0  0
   38.0716  -21.1914   37.5495 C   0  0  0  0  0  0  0  0  0  0  0  0
   37.7644  -22.0575   38.5743 C   0  0  0  0  0  0  0  0  0  0  0  0
   36.4440  -22.4434   38.8325 C   0  0  0  0  0  0  0  0  0  0  0  0
   31.3992  -23.1686   38.9446 C   0  0  0  0  0  0  0  0  0  0  0  0
   31.7255  -22.6590   37.6903 C   0  0  0  0  0  0  0  0  0  0  0  0
   33.0202  -22.2681   37.4008 C   0  0  0  0  0  0  0  0  0  0  0  0
   34.0255  -22.3672   38.3329 C   0  0  0  0  0  0  0  0  0  0  0  0
   33.6852  -22.8731   39.5669 C   0  0  0  0  0  0  0  0  0  0  0  0
   32.4057  -23.2695   39.8820 C   0  0  0  0  0  0  0  0  0  0  0  0
   29.3884  -22.9799   40.3301 O   0  0  0  0  0  0  0  0  0  0  0  0
   30.0685  -23.5877   39.2924 C   0  0  0  0  0  0  0  0  0  0  0  0
   29.4715  -24.5135   38.6761 O   0  0  0  0  0  0  0  0  0  0  0  0
   29.4201  -23.3045   41.2965 H   0  0  0  0  0  0  0  0  0  0  0  0
   39.4644  -20.7619   37.2593 C   0  0  0  0  0  0  0  0  0  0  0  0
   40.0244  -21.4794   36.3763 O   0  0  0  0  0  0  0  0  0  0  0  0
   40.0477  -19.6797   37.9153 N   0  0  0  0  0  0  0  0  0  0  0  0
   39.4407  -19.1865   38.6342 H   0  0  0  0  0  0  0  0  0  0  0  0
   41.3496  -19.1581   37.7433 C   0  0  0  0  0  0  0  0  0  0  0  0
   42.3859  -19.3179   38.6364 C   0  0  0  0  0  0  0  0  0  0  0  0
   43.6494  -18.7665   38.4067 C   0  0  0  0  0  0  0  0  0  0  0  0
   43.8804  -18.0438   37.2661 C   0  0  0  0  0  0  0  0  0  0  0  0
   42.8761  -17.8551   36.3404 C   0  0  0  0  0  0  0  0  0  0  0  0
   41.6512  -18.4070   36.5936 C   0  0  0  0  0  0  0  0  0  0  0  0
   43.1217  -17.0831   35.1231 C   0  0  0  0  0  0  0  0  0  0  0  0
   42.9037  -17.6932   33.8829 O   0  0  0  0  0  0  0  0  0  0  0  0
   43.5223  -15.8922   35.2244 O   0  0  0  0  0  0  0  0  0  0  0  0
   43.6140  -18.3229   33.4986 H   0  0  0  0  0  0  0  0  0  0  0  0
 13 14  1  0  0  0
 14 15  2  0  0  0
 14  7  1  0  0  0
  7  8  2  0  0  0
  8  9  1  0  0  0
  9 10  2  0  0  0
 10 11  1  0  0  0
 11 12  2  0  0  0
 10  1  1  0  0  0
  1  2  2  0  0  0
  2  3  1  0  0  0
  3  4  2  0  0  0
  4  5  1  0  0  0
  5  6  2  0  0  0
  4 17  1  0  0  0
 17 18  2  0  0  0
 17 19  1  0  0  0
 19 21  1  0  0  0
 21 22  2  0  0  0
 22 23  1  0  0  0
 23 24  2  0  0  0
 24 25  1  0  0  0
 25 26  2  0  0  0
 25 27  1  0  0  0
 27 28  1  0  0  0
 27 29  2  0  0  0
 12  7  1  0  0  0
  6  1  1  0  0  0
 26 21  1  0  0  0
 13 16  1  0  0  0
 19 20  1  0  0  0
 28 30  1  0  0  0
M  END
> <minimizedAffinity>
-3.98157

> <CNNscore>
0.5717488527

> <CNNaffinity>
4.2915163040

> <CNN_VS>
2.4536695480

> <CNNaffinity_variance>
0.0659097657

$$$$
[H]OC(=O)c1c([H])c([H])c(-c2c([H])c([H])c(C(=O)N([H])c3c([H])c([H])c([H])c(C(=O)O[H])c3[H])c([H])c2[H])c([H])c1[H]


 30 32  0  0  0  0  0  0  0  0999 V2000
   40.6204  -19.0769   36.2835 C   0  0  0  0  0  0  0  0  0  0  0  0
   41.3055  -18.9665   35.1021 C   0  0  0  0  0  0  0  0  0  0  0  0
   40.6493  -18.6637   33.9270 C   0  0  0  0  0  0  0  0  0  0  0  0
   39.2866  -18.4591   33.8825 C   0  0  0  0  0  0  0  0  0  0  0  0
   38.6000  -18.5706   35.0703 C   0  0  0  0  0  0  0  0  0  0  0  0
   39.2577  -18.8775   36.2672 C   0  0  0  0  0  0  0  0  0  0  0  0
   42.5589  -20.0820   39.9681 C   0  0  0  0  0  0  0  0  0  0  0  0
   43.0903  -19.1036   39.1315 C   0  0  0  0  0  0  0  0  0  0  0  0
   42.4668  -18.7763   37.9412 C   0  0  0  0  0  0  0  0  0  0  0  0
   41.3085  -19.3996   37.5423 C   0  0  0  0  0  0  0  0  0  0  0  0
   40.7974  -20.3638   38.3812 C   0  0  0  0  0  0  0  0  0  0  0  0
   41.3967  -20.7091   39.5708 C   0  0  0  0  0  0  0  0  0  0  0  0
   42.4548  -21.1557   42.1669 O   0  0  0  0  0  0  0  0  0  0  0  0
   43.1706  -20.4566   41.2143 C   0  0  0  0  0  0  0  0  0  0  0  0
   44.3684  -20.1689   41.4896 O   0  0  0  0  0  0  0  0  0  0  0  0
   41.9153  -20.7120   42.9101 H   0  0  0  0  0  0  0  0  0  0  0  0
   38.6105  -18.1405   32.5980 C   0  0  0  0  0  0  0  0  0  0  0  0
   38.5923  -19.1235   31.7970 O   0  0  0  0  0  0  0  0  0  0  0  0
   38.0708  -16.8803   32.3484 N   0  0  0  0  0  0  0  0  0  0  0  0
   38.1756  -16.1646   33.1264 H   0  0  0  0  0  0  0  0  0  0  0  0
   37.4021  -16.4359   31.1856 C   0  0  0  0  0  0  0  0  0  0  0  0
   36.2118  -16.9474   30.7181 C   0  0  0  0  0  0  0  0  0  0  0  0
   35.6084  -16.4652   29.5535 C   0  0  0  0  0  0  0  0  0  0  0  0
   36.2045  -15.4555   28.8450 C   0  0  0  0  0  0  0  0  0  0  0  0
   37.3966  -14.9093   29.2711 C   0  0  0  0  0  0  0  0  0  0  0  0
   37.9620  -15.4024   30.4140 C   0  0  0  0  0  0  0  0  0  0  0  0
   38.0339  -13.8321   28.5150 C   0  0  0  0  0  0  0  0  0  0  0  0
   38.7096  -14.1482   27.3313 O   0  0  0  0  0  0  0  0  0  0  0  0
   37.9573  -12.6513   28.9498 O   0  0  0  0  0  0  0  0  0  0  0  0
   39.6582  -14.5312   27.3786 H   0  0  0  0  0  0  0  0  0  0  0  0
 13 14  1  0  0  0
 14 15  2  0  0  0
 14  7  1  0  0  0
  7  8  2  0  0  0
  8  9  1  0  0  0
  9 10  2  0  0  0
 10 11  1  0  0  0
 11 12  2  0  0  0
 10  1  1  0  0  0
  1  2  2  0  0  0
  2  3  1  0  0  0
  3  4  2  0  0  0
  4  5  1  0  0  0
  5  6  2  0  0  0
  4 17  1  0  0  0
 17 18  2  0  0  0
 17 19  1  0  0  0
 19 21  1  0  0  0
 21 22  2  0  0  0
 22 23  1  0  0  0
 23 24  2  0  0  0
 24 25  1  0  0  0
 25 26  2  0  0  0
 25 27  1  0  0  0
 27 28  1  0  0  0
 27 29  2  0  0  0
 12  7  1  0  0  0
  6  1  1  0  0  0
 26 21  1  0  0  0
 13 16  1  0  0  0
 19 20  1  0  0  0
 28 30  1  0  0  0
M  END
> <minimizedAffinity>
6.88661

> <CNNscore>
0.5479403734

> <CNNaffinity>
4.2879018784

> <CNN_VS>
2.3495144844

> <CNNaffinity_variance>
0.7981137037

$$$$
[H]OC(=O)c1c([H])c([H])c(-c2c([H])c([H])c(C(=O)N([H])c3c([H])c([H])c([H])c(C(=O)O[H])c3[H])c([H])c2[H])c([H])c1[H]


 30 32  0  0  0  0  0  0  0  0999 V2000
   37.6154  -19.3028   35.9859 C   0  0  0  0  0  0  0  0  0  0  0  0
   36.5213  -19.5534   36.7716 C   0  0  0  0  0  0  0  0  0  0  0  0
   36.6431  -20.2494   37.9564 C   0  0  0  0  0  0  0  0  0  0  0  0
   37.8580  -20.7225   38.4048 C   0  0  0  0  0  0  0  0  0  0  0  0
   38.9560  -20.4699   37.6140 C   0  0  0  0  0  0  0  0  0  0  0  0
   38.8416  -19.7645   36.4104 C   0  0  0  0  0  0  0  0  0  0  0  0
   37.3647  -17.1658   32.2826 C   0  0  0  0  0  0  0  0  0  0  0  0
   36.2500  -17.2854   33.1087 C   0  0  0  0  0  0  0  0  0  0  0  0
   36.3274  -17.9745   34.3054 C   0  0  0  0  0  0  0  0  0  0  0  0
   37.4983  -18.5625   34.7208 C   0  0  0  0  0  0  0  0  0  0  0  0
   38.5898  -18.4341   33.8921 C   0  0  0  0  0  0  0  0  0  0  0  0
   38.5411  -17.7544   32.6967 C   0  0  0  0  0  0  0  0  0  0  0  0
   38.4446  -15.7721   30.5825 O   0  0  0  0  0  0  0  0  0  0  0  0
   37.3332  -16.4600   31.0302 C   0  0  0  0  0  0  0  0  0  0  0  0
   36.3068  -16.4372   30.2959 O   0  0  0  0  0  0  0  0  0  0  0  0
   38.6249  -14.7896   30.7884 H   0  0  0  0  0  0  0  0  0  0  0  0
   37.9525  -21.4742   39.6833 C   0  0  0  0  0  0  0  0  0  0  0  0
   39.0353  -21.2502   40.3044 O   0  0  0  0  0  0  0  0  0  0  0  0
   36.9330  -22.3228   40.1100 N   0  0  0  0  0  0  0  0  0  0  0  0
   36.0912  -22.4022   39.4668 H   0  0  0  0  0  0  0  0  0  0  0  0
   36.8817  -23.0934   41.2932 C   0  0  0  0  0  0  0  0  0  0  0  0
   35.8492  -23.0684   42.2045 C   0  0  0  0  0  0  0  0  0  0  0  0
   35.8670  -23.8526   43.3612 C   0  0  0  0  0  0  0  0  0  0  0  0
   36.9341  -24.6747   43.6107 C   0  0  0  0  0  0  0  0  0  0  0  0
   37.9928  -24.7361   42.7295 C   0  0  0  0  0  0  0  0  0  0  0  0
   37.9459  -23.9570   41.6070 C   0  0  0  0  0  0  0  0  0  0  0  0
   39.1325  -25.6128   42.9956 C   0  0  0  0  0  0  0  0  0  0  0  0
   39.4221  -25.9580   44.3201 O   0  0  0  0  0  0  0  0  0  0  0  0
   39.8210  -26.0320   42.0264 O   0  0  0  0  0  0  0  0  0  0  0  0
   39.9294  -25.2962   44.9147 H   0  0  0  0  0  0  0  0  0  0  0  0
 13 14  1  0  0  0
 14 15  2  0  0  0
 14  7  1  0  0  0
  7  8  2  0  0  0
  8  9  1  0  0  0
  9 10  2  0  0  0
 10 11  1  0  0  0
 11 12  2  0  0  0
 10  1  1  0  0  0
  1  2  2  0  0  0
  2  3  1  0  0  0
  3  4  2  0  0  0
  4  5  1  0  0  0
  5  6  2  0  0  0
  4 17  1  0  0  0
 17 18  2  0  0  0
 17 19  1  0  0  0
 19 21  1  0  0  0
 21 22  2  0  0  0
 22 23  1  0  0  0
 23 24  2  0  0  0
 24 25  1  0  0  0
 25 26  2  0  0  0
 25 27  1  0  0  0
 27 28  1  0  0  0
 27 29  2  0  0  0
 12  7  1  0  0  0
  6  1  1  0  0  0
 26 21  1  0  0  0
 13 16  1  0  0  0
 19 20  1  0  0  0
 28 30  1  0  0  0
M  END
> <minimizedAffinity>
-0.19367

> <CNNscore>
0.5320129395

> <CNNaffinity>
4.2544016838

> <CNN_VS>
2.2633967400

> <CNNaffinity_variance>
0.7654778361

$$$$
[H]OC(=O)c1c([H])c([H])c(-c2c([H])c([H])c(C(=O)N([H])c3c([H])c([H])c([H])c(C(=O)O[H])c3[H])c([H])c2[H])c([H])c1[H]


 30 32  0  0  0  0  0  0  0  0999 V2000
   38.4302  -20.0702   37.3052 C   0  0  0  0  0  0  0  0  0  0  0  0
   37.7179  -20.8939   38.1365 C   0  0  0  0  0  0  0  0  0  0  0  0
   36.3749  -21.1271   37.9240 C   0  0  0  0  0  0  0  0  0  0  0  0
   35.6895  -20.5497   36.8763 C   0  0  0  0  0  0  0  0  0  0  0  0
   36.4068  -19.7223   36.0423 C   0  0  0  0  0  0  0  0  0  0  0  0
   37.7696  -19.4801   36.2504 C   0  0  0  0  0  0  0  0  0  0  0  0
   42.5975  -19.2567   37.8681 C   0  0  0  0  0  0  0  0  0  0  0  0
   41.9500  -20.2115   38.6482 C   0  0  0  0  0  0  0  0  0  0  0  0
   40.6045  -20.4769   38.4690 C   0  0  0  0  0  0  0  0  0  0  0  0
   39.8619  -19.8135   37.5216 C   0  0  0  0  0  0  0  0  0  0  0  0
   40.5179  -18.8735   36.7596 C   0  0  0  0  0  0  0  0  0  0  0  0
   41.8551  -18.5895   36.9165 C   0  0  0  0  0  0  0  0  0  0  0  0
   44.6579  -18.2135   37.0528 O   0  0  0  0  0  0  0  0  0  0  0  0
   43.9934  -18.9460   38.0174 C   0  0  0  0  0  0  0  0  0  0  0  0
   44.6634  -19.3219   39.0190 O   0  0  0  0  0  0  0  0  0  0  0  0
   45.1435  -18.6298   36.2583 H   0  0  0  0  0  0  0  0  0  0  0  0
   34.2409  -20.8177   36.6801 C   0  0  0  0  0  0  0  0  0  0  0  0
   33.8911  -21.9583   37.1101 O   0  0  0  0  0  0  0  0  0  0  0  0
   33.3987  -19.8829   36.0815 N   0  0  0  0  0  0  0  0  0  0  0  0
   33.8539  -18.9742   35.7720 H   0  0  0  0  0  0  0  0  0  0  0  0
   32.0122  -19.9954   35.8331 C   0  0  0  0  0  0  0  0  0  0  0  0
   31.2970  -19.1844   34.9801 C   0  0  0  0  0  0  0  0  0  0  0  0
   29.9224  -19.3466   34.7873 C   0  0  0  0  0  0  0  0  0  0  0  0
   29.2522  -20.3353   35.4581 C   0  0  0  0  0  0  0  0  0  0  0  0
   29.9225  -21.1739   36.3233 C   0  0  0  0  0  0  0  0  0  0  0  0
   31.2669  -20.9900   36.4906 C   0  0  0  0  0  0  0  0  0  0  0  0
   29.2077  -22.2289   37.0403 C   0  0  0  0  0  0  0  0  0  0  0  0
   29.3218  -22.2933   38.4333 O   0  0  0  0  0  0  0  0  0  0  0  0
   28.5103  -23.0495   36.3849 O   0  0  0  0  0  0  0  0  0  0  0  0
   30.1531  -22.7199   38.8523 H   0  0  0  0  0  0  0  0  0  0  0  0
 13 14  1  0  0  0
 14 15  2  0  0  0
 14  7  1  0  0  0
  7  8  2  0  0  0
  8  9  1  0  0  0
  9 10  2  0  0  0
 10 11  1  0  0  0
 11 12  2  0  0  0
 10  1  1  0  0  0
  1  2  2  0  0  0
  2  3  1  0  0  0
  3  4  2  0  0  0
  4  5  1  0  0  0
  5  6  2  0  0  0
  4 17  1  0  0  0
 17 18  2  0  0  0
 17 19  1  0  0  0
 19 21  1  0  0  0
 21 22  2  0  0  0
 22 23  1  0  0  0
 23 24  2  0  0  0
 24 25  1  0  0  0
 25 26  2  0  0  0
 25 27  1  0  0  0
 27 28  1  0  0  0
 27 29  2  0  0  0
 12  7  1  0  0  0
  6  1  1  0  0  0
 26 21  1  0  0  0
 13 16  1  0  0  0
 19 20  1  0  0  0
 28 30  1  0  0  0
M  END
> <minimizedAffinity>
-5.75778

> <CNNscore>
0.5240079761

> <CNNaffinity>
3.9509506226

> <CNN_VS>
2.0703296661

> <CNNaffinity_variance>
0.3106648326

$$$$
[H]OC(=O)c1c([H])c([H])c(-c2c([H])c([H])c(C(=O)N([H])c3c([H])c([H])c([H])c(C(=O)O[H])c3[H])c([H])c2[H])c([H])c1[H]


 30 32  0  0  0  0  0  0  0  0999 V2000
   35.0084  -19.4590   37.0485 C   0  0  0  0  0  0  0  0  0  0  0  0
   36.3650  -19.4982   37.2357 C   0  0  0  0  0  0  0  0  0  0  0  0
   36.9246  -20.3043   38.2053 C   0  0  0  0  0  0  0  0  0  0  0  0
   36.1557  -21.1023   39.0256 C   0  0  0  0  0  0  0  0  0  0  0  0
   34.7929  -21.0615   38.8362 C   0  0  0  0  0  0  0  0  0  0  0  0
   34.2167  -20.2465   37.8549 C   0  0  0  0  0  0  0  0  0  0  0  0
   33.2315  -16.8972   34.1118 C   0  0  0  0  0  0  0  0  0  0  0  0
   33.6045  -18.1985   33.7847 C   0  0  0  0  0  0  0  0  0  0  0  0
   34.1783  -19.0286   34.7305 C   0  0  0  0  0  0  0  0  0  0  0  0
   34.4001  -18.6036   36.0187 C   0  0  0  0  0  0  0  0  0  0  0  0
   34.0252  -17.3149   36.3245 C   0  0  0  0  0  0  0  0  0  0  0  0
   33.4526  -16.4679   35.4036 C   0  0  0  0  0  0  0  0  0  0  0  0
   32.0120  -14.8387   33.5887 O   0  0  0  0  0  0  0  0  0  0  0  0
   32.6323  -15.9977   33.1636 C   0  0  0  0  0  0  0  0  0  0  0  0
   32.6455  -16.2220   31.9215 O   0  0  0  0  0  0  0  0  0  0  0  0
   31.0205  -14.7777   33.8198 H   0  0  0  0  0  0  0  0  0  0  0  0
   36.7909  -21.9543   40.0645 C   0  0  0  0  0  0  0  0  0  0  0  0
   37.5198  -21.2915   40.8631 O   0  0  0  0  0  0  0  0  0  0  0  0
   36.5772  -23.3303   40.1130 N   0  0  0  0  0  0  0  0  0  0  0  0
   35.9396  -23.7309   39.3636 H   0  0  0  0  0  0  0  0  0  0  0  0
   37.1062  -24.2601   41.0361 C   0  0  0  0  0  0  0  0  0  0  0  0
   36.3598  -25.1679   41.7542 C   0  0  0  0  0  0  0  0  0  0  0  0
   36.9485  -26.0555   42.6591 C   0  0  0  0  0  0  0  0  0  0  0  0
   38.3051  -26.0350   42.8490 C   0  0  0  0  0  0  0  0  0  0  0  0
   39.0968  -25.1453   42.1542 C   0  0  0  0  0  0  0  0  0  0  0  0
   38.4913  -24.2899   41.2762 C   0  0  0  0  0  0  0  0  0  0  0  0
   40.5447  -25.1223   42.3569 C   0  0  0  0  0  0  0  0  0  0  0  0
   41.2966  -24.1209   41.7328 O   0  0  0  0  0  0  0  0  0  0  0  0
   41.0743  -26.0036   43.0864 O   0  0  0  0  0  0  0  0  0  0  0  0
   41.5445  -24.2182   40.7440 H   0  0  0  0  0  0  0  0  0  0  0  0
 13 14  1  0  0  0
 14 15  2  0  0  0
 14  7  1  0  0  0
  7  8  2  0  0  0
  8  9  1  0  0  0
  9 10  2  0  0  0
 10 11  1  0  0  0
 11 12  2  0  0  0
 10  1  1  0  0  0
  1  2  2  0  0  0
  2  3  1  0  0  0
  3  4  2  0  0  0
  4  5  1  0  0  0
  5  6  2  0  0  0
  4 17  1  0  0  0
 17 18  2  0  0  0
 17 19  1  0  0  0
 19 21  1  0  0  0
 21 22  2  0  0  0
 22 23  1  0  0  0
 23 24  2  0  0  0
 24 25  1  0  0  0
 25 26  2  0  0  0
 25 27  1  0  0  0
 27 28  1  0  0  0
 27 29  2  0  0  0
 12  7  1  0  0  0
  6  1  1  0  0  0
 26 21  1  0  0  0
 13 16  1  0  0  0
 19 20  1  0  0  0
 28 30  1  0  0  0
M  END
> <minimizedAffinity>
2.56575

> <CNNscore>
0.5125868917

> <CNNaffinity>
4.6016635895

> <CNN_VS>
2.3587524891

> <CNNaffinity_variance>
1.4505871534

$$$$
[H]OC(=O)c1c([H])c([H])c(-c2c([H])c([H])c(C(=O)N([H])c3c([H])c([H])c([H])c(C(=O)O[H])c3[H])c([H])c2[H])c([H])c1[H]


 30 32  0  0  0  0  0  0  0  0999 V2000
   35.6448  -20.7496   37.0457 C   0  0  0  0  0  0  0  0  0  0  0  0
   36.3847  -19.6121   36.8573 C   0  0  0  0  0  0  0  0  0  0  0  0
   37.7369  -19.5918   37.1299 C   0  0  0  0  0  0  0  0  0  0  0  0
   38.4045  -20.7027   37.6003 C   0  0  0  0  0  0  0  0  0  0  0  0
   37.6594  -21.8446   37.7892 C   0  0  0  0  0  0  0  0  0  0  0  0
   36.2871  -21.8740   37.5152 C   0  0  0  0  0  0  0  0  0  0  0  0
   31.4393  -20.9314   36.2550 C   0  0  0  0  0  0  0  0  0  0  0  0
   32.1909  -19.8332   35.8445 C   0  0  0  0  0  0  0  0  0  0  0  0
   33.5491  -19.7713   36.0979 C   0  0  0  0  0  0  0  0  0  0  0  0
   34.2029  -20.7835   36.7592 C   0  0  0  0  0  0  0  0  0  0  0  0
   33.4448  -21.8610   37.1574 C   0  0  0  0  0  0  0  0  0  0  0  0
   32.0925  -21.9488   36.9186 C   0  0  0  0  0  0  0  0  0  0  0  0
   29.2769  -22.0100   36.6542 O   0  0  0  0  0  0  0  0  0  0  0  0
   30.0259  -21.0409   36.0149 C   0  0  0  0  0  0  0  0  0  0  0  0
   29.4158  -20.2702   35.2230 O   0  0  0  0  0  0  0  0  0  0  0  0
   29.1097  -22.9412   36.2731 H   0  0  0  0  0  0  0  0  0  0  0  0
   39.8610  -20.6444   37.8896 C   0  0  0  0  0  0  0  0  0  0  0  0
   40.5626  -21.1875   36.9834 O   0  0  0  0  0  0  0  0  0  0  0  0
   40.3533  -20.0462   39.0478 N   0  0  0  0  0  0  0  0  0  0  0  0
   39.6275  -19.6406   39.7091 H   0  0  0  0  0  0  0  0  0  0  0  0
   41.7006  -19.9139   39.4525 C   0  0  0  0  0  0  0  0  0  0  0  0
   42.6106  -19.0477   38.8880 C   0  0  0  0  0  0  0  0  0  0  0  0
   43.9334  -18.9742   39.3332 C   0  0  0  0  0  0  0  0  0  0  0  0
   44.3529  -19.7795   40.3589 C   0  0  0  0  0  0  0  0  0  0  0  0
   43.4806  -20.6636   40.9578 C   0  0  0  0  0  0  0  0  0  0  0  0
   42.1933  -20.7121   40.5000 C   0  0  0  0  0  0  0  0  0  0  0  0
   43.9278  -21.5240   42.0522 C   0  0  0  0  0  0  0  0  0  0  0  0
   44.1401  -22.8832   41.7970 O   0  0  0  0  0  0  0  0  0  0  0  0
   44.1090  -21.0186   43.1928 O   0  0  0  0  0  0  0  0  0  0  0  0
   43.3400  -23.5216   41.7649 H   0  0  0  0  0  0  0  0  0  0  0  0
 13 14  1  0  0  0
 14 15  2  0  0  0
 14  7  1  0  0  0
  7  8  2  0  0  0
  8  9  1  0  0  0
  9 10  2  0  0  0
 10 11  1  0  0  0
 11 12  2  0  0  0
 10  1  1  0  0  0
  1  2  2  0  0  0
  2  3  1  0  0  0
  3  4  2  0  0  0
  4  5  1  0  0  0
  5  6  2  0  0  0
  4 17  1  0  0  0
 17 18  2  0  0  0
 17 19  1  0  0  0
 19 21  1  0  0  0
 21 22  2  0  0  0
 22 23  1  0  0  0
 23 24  2  0  0  0
 24 25  1  0  0  0
 25 26  2  0  0  0
 25 27  1  0  0  0
 27 28  1  0  0  0
 27 29  2  0  0  0
 12  7  1  0  0  0
  6  1  1  0  0  0
 26 21  1  0  0  0
 13 16  1  0  0  0
 19 20  1  0  0  0
 28 30  1  0  0  0
M  END
> <minimizedAffinity>
-4.06161

> <CNNscore>
0.5003479719

> <CNNaffinity>
3.8852481842

> <CNN_VS>
1.9439760447

> <CNNaffinity_variance>
0.0907286108

$$$$
[H]OC(=O)c1c([H])c([H])c(-c2c([H])c([H])c(C(=O)N([H])c3c([H])c([H])c([H])c(C(=O)O[H])c3[H])c([H])c2[H])c([H])c1[H]


 30 32  0  0  0  0  0  0  0  0999 V2000
   38.6679  -19.5970   36.7420 C   0  0  0  0  0  0  0  0  0  0  0  0
   38.5401  -20.8776   37.2118 C   0  0  0  0  0  0  0  0  0  0  0  0
   37.3218  -21.3546   37.6492 C   0  0  0  0  0  0  0  0  0  0  0  0
   36.1842  -20.5757   37.6357 C   0  0  0  0  0  0  0  0  0  0  0  0
   36.3147  -19.2893   37.1635 C   0  0  0  0  0  0  0  0  0  0  0  0
   37.5469  -18.7972   36.7179 C   0  0  0  0  0  0  0  0  0  0  0  0
   42.4061  -18.0942   35.2886 C   0  0  0  0  0  0  0  0  0  0  0  0
   42.1552  -18.1674   36.6565 C   0  0  0  0  0  0  0  0  0  0  0  0
   40.9494  -18.6524   37.1294 C   0  0  0  0  0  0  0  0  0  0  0  0
   39.9612  -19.0770   36.2736 C   0  0  0  0  0  0  0  0  0  0  0  0
   40.2262  -18.9978   34.9253 C   0  0  0  0  0  0  0  0  0  0  0  0
   41.4166  -18.5198   34.4274 C   0  0  0  0  0  0  0  0  0  0  0  0
   44.6260  -18.4708   34.3249 O   0  0  0  0  0  0  0  0  0  0  0  0
   43.6431  -17.5977   34.7496 C   0  0  0  0  0  0  0  0  0  0  0  0
   43.8831  -16.3631   34.6417 O   0  0  0  0  0  0  0  0  0  0  0  0
   45.3743  -18.8181   34.9247 H   0  0  0  0  0  0  0  0  0  0  0  0
   34.8887  -21.1194   38.1201 C   0  0  0  0  0  0  0  0  0  0  0  0
   33.9341  -20.2937   37.9967 O   0  0  0  0  0  0  0  0  0  0  0  0
   34.7861  -22.4056   38.6461 N   0  0  0  0  0  0  0  0  0  0  0  0
   35.6862  -22.9686   38.6832 H   0  0  0  0  0  0  0  0  0  0  0  0
   33.6311  -23.0537   39.1386 C   0  0  0  0  0  0  0  0  0  0  0  0
   32.9640  -24.0714   38.4933 C   0  0  0  0  0  0  0  0  0  0  0  0
   31.8199  -24.6635   39.0351 C   0  0  0  0  0  0  0  0  0  0  0  0
   31.3350  -24.2312   40.2412 C   0  0  0  0  0  0  0  0  0  0  0  0
   31.9666  -23.2155   40.9273 C   0  0  0  0  0  0  0  0  0  0  0  0
   33.0835  -22.6565   40.3712 C   0  0  0  0  0  0  0  0  0  0  0  0
   31.4492  -22.7530   42.2143 C   0  0  0  0  0  0  0  0  0  0  0  0
   31.7067  -21.4359   42.6099 O   0  0  0  0  0  0  0  0  0  0  0  0
   30.7873  -23.5520   42.9303 O   0  0  0  0  0  0  0  0  0  0  0  0
   32.6180  -21.1989   43.0126 H   0  0  0  0  0  0  0  0  0  0  0  0
 13 14  1  0  0  0
 14 15  2  0  0  0
 14  7  1  0  0  0
  7  8  2  0  0  0
  8  9  1  0  0  0
  9 10  2  0  0  0
 10 11  1  0  0  0
 11 12  2  0  0  0
 10  1  1  0  0  0
  1  2  2  0  0  0
  2  3  1  0  0  0
  3  4  2  0  0  0
  4  5  1  0  0  0
  5  6  2  0  0  0
  4 17  1  0  0  0
 17 18  2  0  0  0
 17 19  1  0  0  0
 19 21  1  0  0  0
 21 22  2  0  0  0
 22 23  1  0  0  0
 23 24  2  0  0  0
 24 25  1  0  0  0
 25 26  2  0  0  0
 25 27  1  0  0  0
 27 28  1  0  0  0
 27 29  2  0  0  0
 12  7  1  0  0  0
  6  1  1  0  0  0
 26 21  1  0  0  0
 13 16  1  0  0  0
 19 20  1  0  0  0
 28 30  1  0  0  0
M  END
> <minimizedAffinity>
-4.27477

> <CNNscore>
0.4990248382

> <CNNaffinity>
4.0060720444

> <CNN_VS>
1.9991294146

> <CNNaffinity_variance>
0.1000799686

$$$$
[H]OC(=O)c1c([H])c([H])c(-c2c([H])c([H])c(C(=O)N([H])c3c([H])c([H])c([H])c(C(=O)O[H])c3[H])c([H])c2[H])c([H])c1[H]


 30 32  0  0  0  0  0  0  0  0999 V2000
   40.7178  -20.7395   38.9014 C   0  0  0  0  0  0  0  0  0  0  0  0
   41.2456  -20.4949   37.6610 C   0  0  0  0  0  0  0  0  0  0  0  0
   40.4344  -20.1475   36.6007 C   0  0  0  0  0  0  0  0  0  0  0  0
   39.0671  -20.0302   36.7341 C   0  0  0  0  0  0  0  0  0  0  0  0
   38.5387  -20.2764   37.9810 C   0  0  0  0  0  0  0  0  0  0  0  0
   39.3543  -20.6295   39.0624 C   0  0  0  0  0  0  0  0  0  0  0  0
   43.2619  -21.8690   42.1566 C   0  0  0  0  0  0  0  0  0  0  0  0
   42.1468  -21.0638   42.3750 C   0  0  0  0  0  0  0  0  0  0  0  0
   41.3230  -20.6974   41.3262 C   0  0  0  0  0  0  0  0  0  0  0  0
   41.5720  -21.1110   40.0393 C   0  0  0  0  0  0  0  0  0  0  0  0
   42.6780  -21.9062   39.8419 C   0  0  0  0  0  0  0  0  0  0  0  0
   43.5144  -22.2858   40.8665 C   0  0  0  0  0  0  0  0  0  0  0  0
   44.9033  -23.4260   43.0949 O   0  0  0  0  0  0  0  0  0  0  0  0
   44.1473  -22.2758   43.2140 C   0  0  0  0  0  0  0  0  0  0  0  0
   44.2720  -21.6120   44.2804 O   0  0  0  0  0  0  0  0  0  0  0  0
   44.5916  -24.3450   43.4090 H   0  0  0  0  0  0  0  0  0  0  0  0
   38.2219  -19.6600   35.5691 C   0  0  0  0  0  0  0  0  0  0  0  0
   38.4379  -20.3907   34.5553 O   0  0  0  0  0  0  0  0  0  0  0  0
   37.3048  -18.6129   35.6341 N   0  0  0  0  0  0  0  0  0  0  0  0
   37.2505  -18.0960   36.5606 H   0  0  0  0  0  0  0  0  0  0  0  0
   36.4383  -18.1520   34.6176 C   0  0  0  0  0  0  0  0  0  0  0  0
   35.0630  -18.2003   34.6739 C   0  0  0  0  0  0  0  0  0  0  0  0
   34.2649  -17.7331   33.6262 C   0  0  0  0  0  0  0  0  0  0  0  0
   34.8511  -17.2093   32.5043 C   0  0  0  0  0  0  0  0  0  0  0  0
   36.2241  -17.1383   32.3989 C   0  0  0  0  0  0  0  0  0  0  0  0
   36.9775  -17.6035   33.4406 C   0  0  0  0  0  0  0  0  0  0  0  0
   36.8505  -16.5801   31.2014 C   0  0  0  0  0  0  0  0  0  0  0  0
   38.2402  -16.4183   31.1811 O   0  0  0  0  0  0  0  0  0  0  0  0
   36.1229  -16.2605   30.2228 O   0  0  0  0  0  0  0  0  0  0  0  0
   38.6609  -15.6096   31.6477 H   0  0  0  0  0  0  0  0  0  0  0  0
 13 14  1  0  0  0
 14 15  2  0  0  0
 14  7  1  0  0  0
  7  8  2  0  0  0
  8  9  1  0  0  0
  9 10  2  0  0  0
 10 11  1  0  0  0
 11 12  2  0  0  0
 10  1  1  0  0  0
  1  2  2  0  0  0
  2  3  1  0  0  0
  3  4  2  0  0  0
  4  5  1  0  0  0
  5  6  2  0  0  0
  4 17  1  0  0  0
 17 18  2  0  0  0
 17 19  1  0  0  0
 19 21  1  0  0  0
 21 22  2  0  0  0
 22 23  1  0  0  0
 23 24  2  0  0  0
 24 25  1  0  0  0
 25 26  2  0  0  0
 25 27  1  0  0  0
 27 28  1  0  0  0
 27 29  2  0  0  0
 12  7  1  0  0  0
  6  1  1  0  0  0
 26 21  1  0  0  0
 13 16  1  0  0  0
 19 20  1  0  0  0
 28 30  1  0  0  0
M  END
> <minimizedAffinity>
2.30108

> <CNNscore>
0.4926016629

> <CNNaffinity>
4.4838113785

> <CNN_VS>
2.2087328434

> <CNNaffinity_variance>
0.8352510333

$$$$
[H]OC(=O)c1c([H])c([H])c(-c2c([H])c([H])c(C(=O)N([H])c3c([H])c([H])c([H])c(C(=O)O[H])c3[H])c([H])c2[H])c([H])c1[H]


 30 32  0  0  0  0  0  0  0  0999 V2000
   33.0161  -19.8241   35.5866 C   0  0  0  0  0  0  0  0  0  0  0  0
   32.3644  -18.8809   34.8365 C   0  0  0  0  0  0  0  0  0  0  0  0
   32.6775  -17.5424   34.9516 C   0  0  0  0  0  0  0  0  0  0  0  0
   33.6511  -17.0912   35.8174 C   0  0  0  0  0  0  0  0  0  0  0  0
   34.3047  -18.0403   36.5703 C   0  0  0  0  0  0  0  0  0  0  0  0
   33.9934  -19.4005   36.4599 C   0  0  0  0  0  0  0  0  0  0  0  0
   32.0303  -23.9715   35.1721 C   0  0  0  0  0  0  0  0  0  0  0  0
   32.7018  -23.5121   36.3024 C   0  0  0  0  0  0  0  0  0  0  0  0
   33.0215  -22.1736   36.4397 C   0  0  0  0  0  0  0  0  0  0  0  0
   32.6909  -21.2537   35.4732 C   0  0  0  0  0  0  0  0  0  0  0  0
   32.0275  -21.7252   34.3632 C   0  0  0  0  0  0  0  0  0  0  0  0
   31.6971  -23.0510   34.2007 C   0  0  0  0  0  0  0  0  0  0  0  0
   31.0647  -26.0657   35.9969 O   0  0  0  0  0  0  0  0  0  0  0  0
   31.6768  -25.3526   34.9843 C   0  0  0  0  0  0  0  0  0  0  0  0
   31.9056  -25.9653   33.9047 O   0  0  0  0  0  0  0  0  0  0  0  0
   31.5724  -26.6026   36.7000 H   0  0  0  0  0  0  0  0  0  0  0  0
   33.9591  -15.6410   35.9209 C   0  0  0  0  0  0  0  0  0  0  0  0
   34.9827  -15.3085   35.2500 O   0  0  0  0  0  0  0  0  0  0  0  0
   33.1761  -14.7798   36.6870 N   0  0  0  0  0  0  0  0  0  0  0  0
   32.3531  -15.2219   37.1928 H   0  0  0  0  0  0  0  0  0  0  0  0
   33.3432  -13.3895   36.8759 C   0  0  0  0  0  0  0  0  0  0  0  0
   34.5577  -12.7414   36.9191 C   0  0  0  0  0  0  0  0  0  0  0  0
   34.6508  -11.3612   37.1181 C   0  0  0  0  0  0  0  0  0  0  0  0
   33.5114  -10.6173   37.2763 C   0  0  0  0  0  0  0  0  0  0  0  0
   32.2711  -11.2185   37.2408 C   0  0  0  0  0  0  0  0  0  0  0  0
   32.2130  -12.5702   37.0446 C   0  0  0  0  0  0  0  0  0  0  0  0
   31.0545  -10.4252   37.4105 C   0  0  0  0  0  0  0  0  0  0  0  0
   29.8152  -11.0376   37.1943 O   0  0  0  0  0  0  0  0  0  0  0  0
   31.1558   -9.2141   37.7458 O   0  0  0  0  0  0  0  0  0  0  0  0
   29.4732  -11.1603   36.2368 H   0  0  0  0  0  0  0  0  0  0  0  0
 13 14  1  0  0  0
 14 15  2  0  0  0
 14  7  1  0  0  0
  7  8  2  0  0  0
  8  9  1  0  0  0
  9 10  2  0  0  0
 10 11  1  0  0  0
 11 12  2  0  0  0
 10  1  1  0  0  0
  1  2  2  0  0  0
  2  3  1  0  0  0
  3  4  2  0  0  0
  4  5  1  0  0  0
  5  6  2  0  0  0
  4 17  1  0  0  0
 17 18  2  0  0  0
 17 19  1  0  0  0
 19 21  1  0  0  0
 21 22  2  0  0  0
 22 23  1  0  0  0
 23 24  2  0  0  0
 24 25  1  0  0  0
 25 26  2  0  0  0
 25 27  1  0  0  0
 27 28  1  0  0  0
 27 29  2  0  0  0
 12  7  1  0  0  0
  6  1  1  0  0  0
 26 21  1  0  0  0
 13 16  1  0  0  0
 19 20  1  0  0  0
 28 30  1  0  0  0
M  END
> <minimizedAffinity>
-5.61239

> <CNNscore>
0.4742440283

> <CNNaffinity>
4.5451955795

> <CNN_VS>
2.1555318832

> <CNNaffinity_variance>
0.1192758307

$$$$
[H]c1c([H])c(C(=O)N2C([H])([H])C([H])([H])N(c3c([H])c([H])c(C#N)c([H])c3[H])C([H])([H])C2([H])[H])c([H])c(C(F)(F)F)c1[H]


 26 28  0  0  0  0  0  0  0  0999 V2000
   38.8506  -21.4639   40.0620 C   0  0  0  0  0  0  0  0  0  0  0  0
   38.4166  -21.9688   41.2523 O   0  0  0  0  0  0  0  0  0  0  0  0
   37.8193  -21.0383   39.2796 N   0  0  0  0  0  0  0  0  0  0  0  0
   36.4458  -21.2747   39.8580 C   0  0  0  0  0  0  0  0  0  0  0  0
   35.7406  -22.2219   38.8621 C   0  0  0  0  0  0  0  0  0  0  0  0
   35.7403  -21.5158   37.5912 N   0  0  0  0  0  0  0  0  0  0  0  0
   37.0778  -21.3154   37.0285 C   0  0  0  0  0  0  0  0  0  0  0  0
   37.7785  -20.3773   38.0298 C   0  0  0  0  0  0  0  0  0  0  0  0
   42.3883  -20.3449   40.2192 C   0  0  0  0  0  0  0  0  0  0  0  0
   43.0736  -21.4765   39.8901 C   0  0  0  0  0  0  0  0  0  0  0  0
   42.3850  -22.6353   39.5977 C   0  0  0  0  0  0  0  0  0  0  0  0
   40.9824  -22.6579   39.6396 C   0  0  0  0  0  0  0  0  0  0  0  0
   40.2812  -21.5270   39.9688 C   0  0  0  0  0  0  0  0  0  0  0  0
   41.0211  -20.3618   40.2606 C   0  0  0  0  0  0  0  0  0  0  0  0
   42.7395  -18.6597   41.8229 F   0  0  0  0  0  0  0  0  0  0  0  0
   43.1065  -19.0878   40.5601 C   0  0  0  0  0  0  0  0  0  0  0  0
   44.4684  -19.3889   40.5949 F   0  0  0  0  0  0  0  0  0  0  0  0
   42.9121  -18.0663   39.6887 F   0  0  0  0  0  0  0  0  0  0  0  0
   34.5595  -21.0539   36.9653 C   0  0  0  0  0  0  0  0  0  0  0  0
   33.5789  -21.9495   36.6397 C   0  0  0  0  0  0  0  0  0  0  0  0
   32.3913  -21.5361   36.0373 C   0  0  0  0  0  0  0  0  0  0  0  0
   32.1462  -20.2081   35.7408 C   0  0  0  0  0  0  0  0  0  0  0  0
   33.1531  -19.3122   36.0760 C   0  0  0  0  0  0  0  0  0  0  0  0
   34.3441  -19.7228   36.6786 C   0  0  0  0  0  0  0  0  0  0  0  0
   30.9349  -19.7484   35.1365 C   0  0  0  0  0  0  0  0  0  0  0  0
   29.9547  -19.3520   34.6328 N   0  0  0  0  0  0  0  0  0  0  0  0
 15 16  1  0  0  0
 16 17  1  0  0  0
 16 18  1  0  0  0
 16  9  1  0  0  0
  9 10  2  0  0  0
 10 11  1  0  0  0
 11 12  2  0  0  0
 12 13  1  0  0  0
 13 14  2  0  0  0
 13  1  1  0  0  0
  1  2  2  0  0  0
  1  3  1  0  0  0
  3  4  1  0  0  0
  4  5  1  0  0  0
  5  6  1  0  0  0
  6  7  1  0  0  0
  7  8  1  0  0  0
  6 19  1  0  0  0
 19 20  2  0  0  0
 20 21  1  0  0  0
 21 22  2  0  0  0
 22 23  1  0  0  0
 23 24  2  0  0  0
 22 25  1  0  0  0
 25 26  3  0  0  0
 14  9  1  0  0  0
  8  3  1  0  0  0
 24 19  1  0  0  0
M  END
> <minimizedAffinity>
-4.47525

> <CNNscore>
0.4770768881

> <CNNaffinity>
4.0473709106

> <CNN_VS>
1.9309071302

> <CNNaffinity_variance>
0.1335197240

$$$$
[H]c1c([H])c(C(=O)N2C([H])([H])C([H])([H])N(c3c([H])c([H])c(C#N)c([H])c3[H])C([H])([H])C2([H])[H])c([H])c(C(F)(F)F)c1[H]


 26 28  0  0  0  0  0  0  0  0999 V2000
   35.1926  -17.1064   35.5335 C   0  0  0  0  0  0  0  0  0  0  0  0
   36.2638  -17.4023   34.7430 O   0  0  0  0  0  0  0  0  0  0  0  0
   34.3516  -18.1692   35.6754 N   0  0  0  0  0  0  0  0  0  0  0  0
   34.7434  -19.3964   34.8895 C   0  0  0  0  0  0  0  0  0  0  0  0
   33.5764  -19.6424   33.9076 C   0  0  0  0  0  0  0  0  0  0  0  0
   32.3992  -19.8181   34.7426 N   0  0  0  0  0  0  0  0  0  0  0  0
   32.0151  -18.6123   35.4802 C   0  0  0  0  0  0  0  0  0  0  0  0
   33.1857  -18.3675   36.4513 C   0  0  0  0  0  0  0  0  0  0  0  0
   36.6290  -13.9798   36.9311 C   0  0  0  0  0  0  0  0  0  0  0  0
   35.5727  -13.1193   36.8832 C   0  0  0  0  0  0  0  0  0  0  0  0
   34.3563  -13.5521   36.3979 C   0  0  0  0  0  0  0  0  0  0  0  0
   34.1995  -14.8728   35.9500 C   0  0  0  0  0  0  0  0  0  0  0  0
   35.2534  -15.7484   35.9930 C   0  0  0  0  0  0  0  0  0  0  0  0
   36.4807  -15.2684   36.4965 C   0  0  0  0  0  0  0  0  0  0  0  0
   38.8785  -14.5574   37.3068 F   0  0  0  0  0  0  0  0  0  0  0  0
   37.9573  -13.5332   37.4294 C   0  0  0  0  0  0  0  0  0  0  0  0
   38.3752  -12.4878   36.6052 F   0  0  0  0  0  0  0  0  0  0  0  0
   37.9674  -13.1002   38.7151 F   0  0  0  0  0  0  0  0  0  0  0  0
   31.7002  -21.0431   34.8429 C   0  0  0  0  0  0  0  0  0  0  0  0
   30.4934  -21.0757   35.4852 C   0  0  0  0  0  0  0  0  0  0  0  0
   29.7618  -22.2578   35.5927 C   0  0  0  0  0  0  0  0  0  0  0  0
   30.2162  -23.4494   35.0585 C   0  0  0  0  0  0  0  0  0  0  0  0
   31.4442  -23.3991   34.4116 C   0  0  0  0  0  0  0  0  0  0  0  0
   32.1800  -22.2171   34.3029 C   0  0  0  0  0  0  0  0  0  0  0  0
   29.4858  -24.6757   35.1386 C   0  0  0  0  0  0  0  0  0  0  0  0
   28.8687  -25.6697   35.1921 N   0  0  0  0  0  0  0  0  0  0  0  0
 15 16  1  0  0  0
 16 17  1  0  0  0
 16 18  1  0  0  0
 16  9  1  0  0  0
  9 10  2  0  0  0
 10 11  1  0  0  0
 11 12  2  0  0  0
 12 13  1  0  0  0
 13 14  2  0  0  0
 13  1  1  0  0  0
  1  2  2  0  0  0
  1  3  1  0  0  0
  3  4  1  0  0  0
  4  5  1  0  0  0
  5  6  1  0  0  0
  6  7  1  0  0  0
  7  8  1  0  0  0
  6 19  1  0  0  0
 19 20  2  0  0  0
 20 21  1  0  0  0
 21 22  2  0  0  0
 22 23  1  0  0  0
 23 24  2  0  0  0
 22 25  1  0  0  0
 25 26  3  0  0  0
 14  9  1  0  0  0
  8  3  1  0  0  0
 24 19  1  0  0  0
M  END
> <minimizedAffinity>
-6.35189

> <CNNscore>
0.4463611841

> <CNNaffinity>
4.7219920158

> <CNN_VS>
2.1077139378

> <CNNaffinity_variance>
0.0702059940

$$$$
[H]c1c([H])c(C(=O)N2C([H])([H])C([H])([H])N(c3c([H])c([H])c(C#N)c([H])c3[H])C([H])([H])C2([H])[H])c([H])c(C(F)(F)F)c1[H]


 26 28  0  0  0  0  0  0  0  0999 V2000
   36.2221  -21.1451   38.9381 C   0  0  0  0  0  0  0  0  0  0  0  0
   37.1439  -21.6459   39.8096 O   0  0  0  0  0  0  0  0  0  0  0  0
   34.9629  -21.5865   39.2148 N   0  0  0  0  0  0  0  0  0  0  0  0
   34.8721  -22.5661   40.3589 C   0  0  0  0  0  0  0  0  0  0  0  0
   34.3157  -23.8673   39.7394 C   0  0  0  0  0  0  0  0  0  0  0  0
   33.0323  -23.5024   39.1618 N   0  0  0  0  0  0  0  0  0  0  0  0
   33.1366  -22.5709   38.0361 C   0  0  0  0  0  0  0  0  0  0  0  0
   33.6994  -21.2789   38.6584 C   0  0  0  0  0  0  0  0  0  0  0  0
   36.8300  -18.1333   36.8521 C   0  0  0  0  0  0  0  0  0  0  0  0
   37.9503  -18.4752   36.1546 C   0  0  0  0  0  0  0  0  0  0  0  0
   38.5278  -19.7129   36.3473 C   0  0  0  0  0  0  0  0  0  0  0  0
   37.9710  -20.6222   37.2598 C   0  0  0  0  0  0  0  0  0  0  0  0
   36.8446  -20.2911   37.9673 C   0  0  0  0  0  0  0  0  0  0  0  0
   36.2831  -19.0167   37.7420 C   0  0  0  0  0  0  0  0  0  0  0  0
   34.8520  -16.9408   36.4049 F   0  0  0  0  0  0  0  0  0  0  0  0
   36.1997  -16.7972   36.6796 C   0  0  0  0  0  0  0  0  0  0  0  0
   36.3139  -16.1283   37.8987 F   0  0  0  0  0  0  0  0  0  0  0  0
   36.7542  -16.0265   35.7105 F   0  0  0  0  0  0  0  0  0  0  0  0
   31.7989  -23.9908   39.6513 C   0  0  0  0  0  0  0  0  0  0  0  0
   30.6551  -23.7566   38.9396 C   0  0  0  0  0  0  0  0  0  0  0  0
   29.4199  -24.2342   39.3759 C   0  0  0  0  0  0  0  0  0  0  0  0
   29.2897  -24.9645   40.5426 C   0  0  0  0  0  0  0  0  0  0  0  0
   30.4605  -25.1914   41.2543 C   0  0  0  0  0  0  0  0  0  0  0  0
   31.6991  -24.7138   40.8208 C   0  0  0  0  0  0  0  0  0  0  0  0
   28.0417  -25.4806   41.0116 C   0  0  0  0  0  0  0  0  0  0  0  0
   27.0114  -25.8802   41.3994 N   0  0  0  0  0  0  0  0  0  0  0  0
 15 16  1  0  0  0
 16 17  1  0  0  0
 16 18  1  0  0  0
 16  9  1  0  0  0
  9 10  2  0  0  0
 10 11  1  0  0  0
 11 12  2  0  0  0
 12 13  1  0  0  0
 13 14  2  0  0  0
 13  1  1  0  0  0
  1  2  2  0  0  0
  1  3  1  0  0  0
  3  4  1  0  0  0
  4  5  1  0  0  0
  5  6  1  0  0  0
  6  7  1  0  0  0
  7  8  1  0  0  0
  6 19  1  0  0  0
 19 20  2  0  0  0
 20 21  1  0  0  0
 21 22  2  0  0  0
 22 23  1  0  0  0
 23 24  2  0  0  0
 22 25  1  0  0  0
 25 26  3  0  0  0
 14  9  1  0  0  0
  8  3  1  0  0  0
 24 19  1  0  0  0
M  END
> <minimizedAffinity>
-3.69783

> <CNNscore>
0.4389890134

> <CNNaffinity>
3.8584446907

> <CNN_VS>
1.6938148737

> <CNNaffinity_variance>
0.1528056562

$$$$
[H]c1c([H])c(C(=O)N2C([H])([H])C([H])([H])N(c3c([H])c([H])c(C#N)c([H])c3[H])C([H])([H])C2([H])[H])c([H])c(C(F)(F)F)c1[H]


 26 28  0  0  0  0  0  0  0  0999 V2000
   39.1432  -20.8136   38.5754 C   0  0  0  0  0  0  0  0  0  0  0  0
   39.8022  -21.5223   39.5363 O   0  0  0  0  0  0  0  0  0  0  0  0
   37.7971  -21.0216   38.6182 N   0  0  0  0  0  0  0  0  0  0  0  0
   37.3432  -22.0215   39.6532 C   0  0  0  0  0  0  0  0  0  0  0  0
   36.6741  -23.1615   38.8538 C   0  0  0  0  0  0  0  0  0  0  0  0
   35.5911  -22.5321   38.1156 N   0  0  0  0  0  0  0  0  0  0  0  0
   36.0464  -21.5829   37.0971 C   0  0  0  0  0  0  0  0  0  0  0  0
   36.7197  -20.4532   37.8994 C   0  0  0  0  0  0  0  0  0  0  0  0
   42.1685  -18.8402   37.7124 C   0  0  0  0  0  0  0  0  0  0  0  0
   41.9855  -18.5786   36.3870 C   0  0  0  0  0  0  0  0  0  0  0  0
   40.8536  -19.0380   35.7467 C   0  0  0  0  0  0  0  0  0  0  0  0
   39.8896  -19.7763   36.4504 C   0  0  0  0  0  0  0  0  0  0  0  0
   40.0612  -20.0461   37.7834 C   0  0  0  0  0  0  0  0  0  0  0  0
   41.2312  -19.5586   38.4028 C   0  0  0  0  0  0  0  0  0  0  0  0
   44.3442  -19.3765   38.4292 F   0  0  0  0  0  0  0  0  0  0  0  0
   43.3902  -18.3753   38.4221 C   0  0  0  0  0  0  0  0  0  0  0  0
   43.9069  -17.3040   37.6925 F   0  0  0  0  0  0  0  0  0  0  0  0
   43.1867  -17.9691   39.7004 F   0  0  0  0  0  0  0  0  0  0  0  0
   34.2263  -22.8016   38.3683 C   0  0  0  0  0  0  0  0  0  0  0  0
   33.8905  -23.7569   39.2873 C   0  0  0  0  0  0  0  0  0  0  0  0
   32.5577  -24.0433   39.5804 C   0  0  0  0  0  0  0  0  0  0  0  0
   31.5147  -23.3800   38.9610 C   0  0  0  0  0  0  0  0  0  0  0  0
   31.8730  -22.4146   38.0291 C   0  0  0  0  0  0  0  0  0  0  0  0
   33.2068  -22.1259   37.7325 C   0  0  0  0  0  0  0  0  0  0  0  0
   30.1382  -23.6388   39.2477 C   0  0  0  0  0  0  0  0  0  0  0  0
   29.0174  -23.8682   39.4986 N   0  0  0  0  0  0  0  0  0  0  0  0
 15 16  1  0  0  0
 16 17  1  0  0  0
 16 18  1  0  0  0
 16  9  1  0  0  0
  9 10  2  0  0  0
 10 11  1  0  0  0
 11 12  2  0  0  0
 12 13  1  0  0  0
 13 14  2  0  0  0
 13  1  1  0  0  0
  1  2  2  0  0  0
  1  3  1  0  0  0
  3  4  1  0  0  0
  4  5  1  0  0  0
  5  6  1  0  0  0
  6  7  1  0  0  0
  7  8  1  0  0  0
  6 19  1  0  0  0
 19 20  2  0  0  0
 20 21  1  0  0  0
 21 22  2  0  0  0
 22 23  1  0  0  0
 23 24  2  0  0  0
 22 25  1  0  0  0
 25 26  3  0  0  0
 14  9  1  0  0  0
  8  3  1  0  0  0
 24 19  1  0  0  0
M  END
> <minimizedAffinity>
-3.61150

> <CNNscore>
0.4292178750

> <CNNaffinity>
3.9658532143

> <CNN_VS>
1.7022150755

> <CNNaffinity_variance>
0.1056282073

$$$$
[H]c1c([H])c(C(=O)N2C([H])([H])C([H])([H])N(c3c([H])c([H])c(C#N)c([H])c3[H])C([H])([H])C2([H])[H])c([H])c(C(F)(F)F)c1[H]


 26 28  0  0  0  0  0  0  0  0999 V2000
   35.3325  -17.6294   35.3323 C   0  0  0  0  0  0  0  0  0  0  0  0
   35.9895  -17.6512   34.1374 O   0  0  0  0  0  0  0  0  0  0  0  0
   34.5163  -18.7096   35.4877 N   0  0  0  0  0  0  0  0  0  0  0  0
   34.4653  -19.6411   34.3017 C   0  0  0  0  0  0  0  0  0  0  0  0
   32.9949  -19.6197   33.8284 C   0  0  0  0  0  0  0  0  0  0  0  0
   32.2145  -20.0646   34.9716 N   0  0  0  0  0  0  0  0  0  0  0  0
   32.2520  -19.1391   36.1064 C   0  0  0  0  0  0  0  0  0  0  0  0
   33.7216  -19.1583   36.5684 C   0  0  0  0  0  0  0  0  0  0  0  0
   35.0260  -14.2540   36.8503 C   0  0  0  0  0  0  0  0  0  0  0  0
   36.1846  -14.1401   37.5596 C   0  0  0  0  0  0  0  0  0  0  0  0
   37.1015  -15.1704   37.5465 C   0  0  0  0  0  0  0  0  0  0  0  0
   36.8480  -16.3375   36.8096 C   0  0  0  0  0  0  0  0  0  0  0  0
   35.6871  -16.4648   36.0919 C   0  0  0  0  0  0  0  0  0  0  0  0
   34.7748  -15.3894   36.1298 C   0  0  0  0  0  0  0  0  0  0  0  0
   33.4948  -13.0171   38.1389 F   0  0  0  0  0  0  0  0  0  0  0  0
   34.0105  -13.1673   36.8645 C   0  0  0  0  0  0  0  0  0  0  0  0
   34.6707  -11.9835   36.5333 F   0  0  0  0  0  0  0  0  0  0  0  0
   32.9775  -13.3416   36.0026 F   0  0  0  0  0  0  0  0  0  0  0  0
   31.4983  -21.2836   34.9897 C   0  0  0  0  0  0  0  0  0  0  0  0
   30.2446  -21.3166   35.5349 C   0  0  0  0  0  0  0  0  0  0  0  0
   29.4958  -22.4926   35.5585 C   0  0  0  0  0  0  0  0  0  0  0  0
   29.9795  -23.6774   35.0351 C   0  0  0  0  0  0  0  0  0  0  0  0
   31.2548  -23.6269   34.4874 C   0  0  0  0  0  0  0  0  0  0  0  0
   32.0079  -22.4510   34.4628 C   0  0  0  0  0  0  0  0  0  0  0  0
   29.2336  -24.8970   35.0304 C   0  0  0  0  0  0  0  0  0  0  0  0
   28.6023  -25.8834   35.0330 N   0  0  0  0  0  0  0  0  0  0  0  0
 15 16  1  0  0  0
 16 17  1  0  0  0
 16 18  1  0  0  0
 16  9  1  0  0  0
  9 10  2  0  0  0
 10 11  1  0  0  0
 11 12  2  0  0  0
 12 13  1  0  0  0
 13 14  2  0  0  0
 13  1  1  0  0  0
  1  2  2  0  0  0
  1  3  1  0  0  0
  3  4  1  0  0  0
  4  5  1  0  0  0
  5  6  1  0  0  0
  6  7  1  0  0  0
  7  8  1  0  0  0
  6 19  1  0  0  0
 19 20  2  0  0  0
 20 21  1  0  0  0
 21 22  2  0  0  0
 22 23  1  0  0  0
 23 24  2  0  0  0
 22 25  1  0  0  0
 25 26  3  0  0  0
 14  9  1  0  0  0
  8  3  1  0  0  0
 24 19  1  0  0  0
M  END
> <minimizedAffinity>
-7.37479

> <CNNscore>
0.4209929705

> <CNNaffinity>
4.5813355446

> <CNN_VS>
1.9287101030

> <CNNaffinity_variance>
0.4174476266

$$$$
[H]c1c([H])c(C(=O)N2C([H])([H])C([H])([H])N(c3c([H])c([H])c(C#N)c([H])c3[H])C([H])([H])C2([H])[H])c([H])c(C(F)(F)F)c1[H]


 26 28  0  0  0  0  0  0  0  0999 V2000
   40.3848  -19.8997   35.0946 C   0  0  0  0  0  0  0  0  0  0  0  0
   40.7418  -20.3051   33.8423 O   0  0  0  0  0  0  0  0  0  0  0  0
   39.0320  -19.8434   35.2486 N   0  0  0  0  0  0  0  0  0  0  0  0
   38.2389  -20.1693   34.0069 C   0  0  0  0  0  0  0  0  0  0  0  0
   37.4399  -18.8872   33.6843 C   0  0  0  0  0  0  0  0  0  0  0  0
   36.6272  -18.6316   34.8624 N   0  0  0  0  0  0  0  0  0  0  0  0
   37.4082  -18.2916   36.0541 C   0  0  0  0  0  0  0  0  0  0  0  0
   38.2086  -19.5705   36.3658 C   0  0  0  0  0  0  0  0  0  0  0  0
   43.0227  -17.9704   36.8586 C   0  0  0  0  0  0  0  0  0  0  0  0
   43.7428  -18.9482   37.4782 C   0  0  0  0  0  0  0  0  0  0  0  0
   43.3823  -20.2702   37.3211 C   0  0  0  0  0  0  0  0  0  0  0  0
   42.2763  -20.6156   36.5293 C   0  0  0  0  0  0  0  0  0  0  0  0
   41.5438  -19.6423   35.9006 C   0  0  0  0  0  0  0  0  0  0  0  0
   41.9443  -18.3022   36.0851 C   0  0  0  0  0  0  0  0  0  0  0  0
   43.5077  -16.2359   38.3723 F   0  0  0  0  0  0  0  0  0  0  0  0
   43.3764  -16.5358   37.0286 C   0  0  0  0  0  0  0  0  0  0  0  0
   44.6220  -16.3457   36.4293 F   0  0  0  0  0  0  0  0  0  0  0  0
   42.4951  -15.6627   36.4795 F   0  0  0  0  0  0  0  0  0  0  0  0
   35.2158  -18.7175   34.8598 C   0  0  0  0  0  0  0  0  0  0  0  0
   34.5941  -19.5090   33.9342 C   0  0  0  0  0  0  0  0  0  0  0  0
   33.2059  -19.6368   33.9059 C   0  0  0  0  0  0  0  0  0  0  0  0
   32.3927  -18.9743   34.8067 C   0  0  0  0  0  0  0  0  0  0  0  0
   33.0400  -18.1732   35.7384 C   0  0  0  0  0  0  0  0  0  0  0  0
   34.4300  -18.0422   35.7691 C   0  0  0  0  0  0  0  0  0  0  0  0
   30.9681  -19.0936   34.8147 C   0  0  0  0  0  0  0  0  0  0  0  0
   29.8032  -19.2132   34.8323 N   0  0  0  0  0  0  0  0  0  0  0  0
 15 16  1  0  0  0
 16 17  1  0  0  0
 16 18  1  0  0  0
 16  9  1  0  0  0
  9 10  2  0  0  0
 10 11  1  0  0  0
 11 12  2  0  0  0
 12 13  1  0  0  0
 13 14  2  0  0  0
 13  1  1  0  0  0
  1  2  2  0  0  0
  1  3  1  0  0  0
  3  4  1  0  0  0
  4  5  1  0  0  0
  5  6  1  0  0  0
  6  7  1  0  0  0
  7  8  1  0  0  0
  6 19  1  0  0  0
 19 20  2  0  0  0
 20 21  1  0  0  0
 21 22  2  0  0  0
 22 23  1  0  0  0
 23 24  2  0  0  0
 22 25  1  0  0  0
 25 26  3  0  0  0
 14  9  1  0  0  0
  8  3  1  0  0  0
 24 19  1  0  0  0
M  END
> <minimizedAffinity>
-5.51030

> <CNNscore>
0.4133731723

> <CNNaffinity>
4.4046301842

> <CNN_VS>
1.8207559586

> <CNNaffinity_variance>
0.2393230945

$$$$
[H]c1c([H])c(C(=O)N2C([H])([H])C([H])([H])N(c3c([H])c([H])c(C#N)c([H])c3[H])C([H])([H])C2([H])[H])c([H])c(C(F)(F)F)c1[H]


 26 28  0  0  0  0  0  0  0  0999 V2000
   40.3214  -19.1422   35.4583 C   0  0  0  0  0  0  0  0  0  0  0  0
   40.6969  -19.6204   34.2375 O   0  0  0  0  0  0  0  0  0  0  0  0
   38.9741  -19.2206   35.6468 N   0  0  0  0  0  0  0  0  0  0  0  0
   38.1983  -19.7453   34.4637 C   0  0  0  0  0  0  0  0  0  0  0  0
   37.2545  -18.5941   34.0510 C   0  0  0  0  0  0  0  0  0  0  0  0
   36.4416  -18.3210   35.2251 N   0  0  0  0  0  0  0  0  0  0  0  0
   37.2028  -17.7883   36.3575 C   0  0  0  0  0  0  0  0  0  0  0  0
   38.1474  -18.9372   36.7590 C   0  0  0  0  0  0  0  0  0  0  0  0
   42.6402  -18.7037   38.3258 C   0  0  0  0  0  0  0  0  0  0  0  0
   43.6320  -17.9356   37.7921 C   0  0  0  0  0  0  0  0  0  0  0  0
   43.5556  -17.5340   36.4748 C   0  0  0  0  0  0  0  0  0  0  0  0
   42.4640  -17.9137   35.6787 C   0  0  0  0  0  0  0  0  0  0  0  0
   41.4599  -18.6856   36.2030 C   0  0  0  0  0  0  0  0  0  0  0  0
   41.5738  -19.0756   37.5539 C   0  0  0  0  0  0  0  0  0  0  0  0
   43.2540  -20.4382   39.7920 F   0  0  0  0  0  0  0  0  0  0  0  0
   42.7084  -19.1686   39.7370 C   0  0  0  0  0  0  0  0  0  0  0  0
   43.5734  -18.3070   40.4123 F   0  0  0  0  0  0  0  0  0  0  0  0
   41.5190  -19.1854   40.3894 F   0  0  0  0  0  0  0  0  0  0  0  0
   35.0489  -18.5610   35.2723 C   0  0  0  0  0  0  0  0  0  0  0  0
   34.2465  -18.0476   34.2913 C   0  0  0  0  0  0  0  0  0  0  0  0
   32.8706  -18.2737   34.2887 C   0  0  0  0  0  0  0  0  0  0  0  0
   32.2517  -19.0241   35.2713 C   0  0  0  0  0  0  0  0  0  0  0  0
   33.0807  -19.5363   36.2609 C   0  0  0  0  0  0  0  0  0  0  0  0
   34.4589  -19.3110   36.2671 C   0  0  0  0  0  0  0  0  0  0  0  0
   30.8466  -19.2869   35.2915 C   0  0  0  0  0  0  0  0  0  0  0  0
   29.6953  -19.4976   35.3323 N   0  0  0  0  0  0  0  0  0  0  0  0
 15 16  1  0  0  0
 16 17  1  0  0  0
 16 18  1  0  0  0
 16  9  1  0  0  0
  9 10  2  0  0  0
 10 11  1  0  0  0
 11 12  2  0  0  0
 12 13  1  0  0  0
 13 14  2  0  0  0
 13  1  1  0  0  0
  1  2  2  0  0  0
  1  3  1  0  0  0
  3  4  1  0  0  0
  4  5  1  0  0  0
  5  6  1  0  0  0
  6  7  1  0  0  0
  7  8  1  0  0  0
  6 19  1  0  0  0
 19 20  2  0  0  0
 20 21  1  0  0  0
 21 22  2  0  0  0
 22 23  1  0  0  0
 23 24  2  0  0  0
 22 25  1  0  0  0
 25 26  3  0  0  0
 14  9  1  0  0  0
  8  3  1  0  0  0
 24 19  1  0  0  0
M  END
> <minimizedAffinity>
-6.50616

> <CNNscore>
0.4111099243

> <CNNaffinity>
4.4177665710

> <CNN_VS>
1.8161877394

> <CNNaffinity_variance>
0.4978047013

$$$$
[H]c1c([H])c(C(=O)N2C([H])([H])C([H])([H])N(c3c([H])c([H])c(C#N)c([H])c3[H])C([H])([H])C2([H])[H])c([H])c(C(F)(F)F)c1[H]


 26 28  0  0  0  0  0  0  0  0999 V2000
   34.6432  -21.7832   37.1723 C   0  0  0  0  0  0  0  0  0  0  0  0
   33.6513  -22.1565   36.3139 O   0  0  0  0  0  0  0  0  0  0  0  0
   34.7016  -20.4309   37.3304 N   0  0  0  0  0  0  0  0  0  0  0  0
   33.7218  -19.6516   36.4879 C   0  0  0  0  0  0  0  0  0  0  0  0
   34.5895  -18.7654   35.5670 C   0  0  0  0  0  0  0  0  0  0  0  0
   35.3914  -17.9468   36.4619 N   0  0  0  0  0  0  0  0  0  0  0  0
   36.3557  -18.7127   37.2552 C   0  0  0  0  0  0  0  0  0  0  0  0
   35.4849  -19.6000   38.1651 C   0  0  0  0  0  0  0  0  0  0  0  0
   37.4734  -24.1035   37.8032 C   0  0  0  0  0  0  0  0  0  0  0  0
   36.9030  -25.0632   38.5856 C   0  0  0  0  0  0  0  0  0  0  0  0
   35.5669  -24.9744   38.9165 C   0  0  0  0  0  0  0  0  0  0  0  0
   34.7907  -23.9002   38.4549 C   0  0  0  0  0  0  0  0  0  0  0  0
   35.3518  -22.9286   37.6672 C   0  0  0  0  0  0  0  0  0  0  0  0
   36.7206  -23.0549   37.3502 C   0  0  0  0  0  0  0  0  0  0  0  0
   39.1971  -23.2539   36.4460 F   0  0  0  0  0  0  0  0  0  0  0  0
   38.9168  -24.1633   37.4495 C   0  0  0  0  0  0  0  0  0  0  0  0
   39.6340  -23.7774   38.5824 F   0  0  0  0  0  0  0  0  0  0  0  0
   39.3566  -25.3846   37.0551 F   0  0  0  0  0  0  0  0  0  0  0  0
   35.2431  -16.5445   36.5658 C   0  0  0  0  0  0  0  0  0  0  0  0
   34.1133  -15.9515   36.0741 C   0  0  0  0  0  0  0  0  0  0  0  0
   33.9175  -14.5744   36.1705 C   0  0  0  0  0  0  0  0  0  0  0  0
   34.8495  -13.7437   36.7645 C   0  0  0  0  0  0  0  0  0  0  0  0
   35.9918  -14.3617   37.2567 C   0  0  0  0  0  0  0  0  0  0  0  0
   36.1916  -15.7405   37.1611 C   0  0  0  0  0  0  0  0  0  0  0  0
   34.6745  -12.3306   36.8923 C   0  0  0  0  0  0  0  0  0  0  0  0
   34.5335  -11.1707   36.9725 N   0  0  0  0  0  0  0  0  0  0  0  0
 15 16  1  0  0  0
 16 17  1  0  0  0
 16 18  1  0  0  0
 16  9  1  0  0  0
  9 10  2  0  0  0
 10 11  1  0  0  0
 11 12  2  0  0  0
 12 13  1  0  0  0
 13 14  2  0  0  0
 13  1  1  0  0  0
  1  2  2  0  0  0
  1  3  1  0  0  0
  3  4  1  0  0  0
  4  5  1  0  0  0
  5  6  1  0  0  0
  6  7  1  0  0  0
  7  8  1  0  0  0
  6 19  1  0  0  0
 19 20  2  0  0  0
 20 21  1  0  0  0
 21 22  2  0  0  0
 22 23  1  0  0  0
 23 24  2  0  0  0
 22 25  1  0  0  0
 25 26  3  0  0  0
 14  9  1  0  0  0
  8  3  1  0  0  0
 24 19  1  0  0  0
M  END
> <minimizedAffinity>
-4.96198

> <CNNscore>
0.4015092850

> <CNNaffinity>
4.4279260635

> <CNN_VS>
1.7778533697

> <CNNaffinity_variance>
0.1187159047

$$$$
[H]c1c([H])c(C(=O)N2C([H])([H])C([H])([H])N(c3c([H])c([H])c(C#N)c([H])c3[H])C([H])([H])C2([H])[H])c([H])c(C(F)(F)F)c1[H]


 26 28  0  0  0  0  0  0  0  0999 V2000
   35.2429  -18.7267   36.9632 C   0  0  0  0  0  0  0  0  0  0  0  0
   36.1956  -19.2704   37.7736 O   0  0  0  0  0  0  0  0  0  0  0  0
   34.1084  -19.4809   36.9289 N   0  0  0  0  0  0  0  0  0  0  0  0
   34.1749  -20.7616   37.7241 C   0  0  0  0  0  0  0  0  0  0  0  0
   33.9865  -21.8943   36.6907 C   0  0  0  0  0  0  0  0  0  0  0  0
   32.6955  -21.6417   36.0714 N   0  0  0  0  0  0  0  0  0  0  0  0
   32.6523  -20.4086   35.2818 C   0  0  0  0  0  0  0  0  0  0  0  0
   32.8489  -19.2840   36.3161 C   0  0  0  0  0  0  0  0  0  0  0  0
   36.6171  -15.2839   36.7382 C   0  0  0  0  0  0  0  0  0  0  0  0
   36.6968  -15.0823   35.3923 C   0  0  0  0  0  0  0  0  0  0  0  0
   36.2893  -16.0739   34.5245 C   0  0  0  0  0  0  0  0  0  0  0  0
   35.7953  -17.2911   35.0183 C   0  0  0  0  0  0  0  0  0  0  0  0
   35.7096  -17.5066   36.3694 C   0  0  0  0  0  0  0  0  0  0  0  0
   36.1355  -16.4684   37.2244 C   0  0  0  0  0  0  0  0  0  0  0  0
   38.2157  -13.6270   37.2224 F   0  0  0  0  0  0  0  0  0  0  0  0
   37.0700  -14.2399   37.6960 C   0  0  0  0  0  0  0  0  0  0  0  0
   36.0663  -13.2725   37.7546 F   0  0  0  0  0  0  0  0  0  0  0  0
   37.3127  -14.6873   38.9536 F   0  0  0  0  0  0  0  0  0  0  0  0
   31.5828  -22.4998   36.2292 C   0  0  0  0  0  0  0  0  0  0  0  0
   30.9790  -23.0254   35.1206 C   0  0  0  0  0  0  0  0  0  0  0  0
   29.8901  -23.8894   35.2299 C   0  0  0  0  0  0  0  0  0  0  0  0
   29.3690  -24.2565   36.4568 C   0  0  0  0  0  0  0  0  0  0  0  0
   29.9925  -23.7122   37.5721 C   0  0  0  0  0  0  0  0  0  0  0  0
   31.0827  -22.8459   37.4663 C   0  0  0  0  0  0  0  0  0  0  0  0
   28.2631  -25.1503   36.6054 C   0  0  0  0  0  0  0  0  0  0  0  0
   27.3505  -25.8776   36.7038 N   0  0  0  0  0  0  0  0  0  0  0  0
 15 16  1  0  0  0
 16 17  1  0  0  0
 16 18  1  0  0  0
 16  9  1  0  0  0
  9 10  2  0  0  0
 10 11  1  0  0  0
 11 12  2  0  0  0
 12 13  1  0  0  0
 13 14  2  0  0  0
 13  1  1  0  0  0
  1  2  2  0  0  0
  1  3  1  0  0  0
  3  4  1  0  0  0
  4  5  1  0  0  0
  5  6  1  0  0  0
  6  7  1  0  0  0
  7  8  1  0  0  0
  6 19  1  0  0  0
 19 20  2  0  0  0
 20 21  1  0  0  0
 21 22  2  0  0  0
 22 23  1  0  0  0
 23 24  2  0  0  0
 22 25  1  0  0  0
 25 26  3  0  0  0
 14  9  1  0  0  0
  8  3  1  0  0  0
 24 19  1  0  0  0
M  END
> <minimizedAffinity>
-3.99987

> <CNNscore>
0.4008064270

> <CNNaffinity>
4.2218313217

> <CNN_VS>
1.6921371222

> <CNNaffinity_variance>
0.1508448422

$$$$
[H]OC(=O)c1c([H])c([H])c(N([H])C(=O)c2c([H])c([H])c([H])c(C(F)(F)F)c2[H])c(S(=O)(=O)N2C([H])([H])C([H])([H])OC([H])([H])C2([H])[H])c1[H]


 33 35  0  0  0  0  0  0  0  0999 V2000
   32.8876  -19.0389   35.7651 C   0  0  0  0  0  0  0  0  0  0  0  0
   31.6976  -19.1778   35.0994 C   0  0  0  0  0  0  0  0  0  0  0  0
   31.2056  -20.4246   34.6921 C   0  0  0  0  0  0  0  0  0  0  0  0
   31.8957  -21.5809   34.9427 C   0  0  0  0  0  0  0  0  0  0  0  0
   33.0821  -21.4575   35.6059 C   0  0  0  0  0  0  0  0  0  0  0  0
   33.5802  -20.2149   36.0162 C   0  0  0  0  0  0  0  0  0  0  0  0
   33.6705  -16.6593   35.4064 C   0  0  0  0  0  0  0  0  0  0  0  0
   33.4174  -16.5900   34.1498 O   0  0  0  0  0  0  0  0  0  0  0  0
   33.4285  -17.7956   36.1817 N   0  0  0  0  0  0  0  0  0  0  0  0
   33.6921  -17.6923   37.2126 H   0  0  0  0  0  0  0  0  0  0  0  0
   36.0769  -14.1719   37.0094 C   0  0  0  0  0  0  0  0  0  0  0  0
   35.2913  -13.0419   37.0584 C   0  0  0  0  0  0  0  0  0  0  0  0
   33.9884  -13.1131   36.5709 C   0  0  0  0  0  0  0  0  0  0  0  0
   33.4790  -14.2694   36.0500 C   0  0  0  0  0  0  0  0  0  0  0  0
   34.2475  -15.4324   35.9856 C   0  0  0  0  0  0  0  0  0  0  0  0
   35.5249  -15.3322   36.4729 C   0  0  0  0  0  0  0  0  0  0  0  0
   38.0384  -15.4174   37.2662 F   0  0  0  0  0  0  0  0  0  0  0  0
   37.4726  -14.1800   37.5086 C   0  0  0  0  0  0  0  0  0  0  0  0
   38.2305  -13.2399   36.8034 F   0  0  0  0  0  0  0  0  0  0  0  0
   37.5562  -13.9201   38.8389 F   0  0  0  0  0  0  0  0  0  0  0  0
   31.3743  -22.8865   34.5217 C   0  0  0  0  0  0  0  0  0  0  0  0
   31.8853  -23.5617   33.4304 O   0  0  0  0  0  0  0  0  0  0  0  0
   30.4360  -23.4148   35.1641 O   0  0  0  0  0  0  0  0  0  0  0  0
   31.5423  -23.2583   32.5220 H   0  0  0  0  0  0  0  0  0  0  0  0
   35.0948  -20.1638   36.8921 S   0  0  0  0  0  0  0  0  0  0  0  0
   34.7738  -19.7964   38.3152 O   0  0  0  0  0  0  0  0  0  0  0  0
   35.7761  -21.4928   36.9586 O   0  0  0  0  0  0  0  0  0  0  0  0
   36.0895  -18.9974   36.1213 N   0  0  0  0  0  0  0  0  0  0  0  0
   37.2215  -18.6164   36.8938 C   0  0  0  0  0  0  0  0  0  0  0  0
   38.3390  -19.5842   36.7330 C   0  0  0  0  0  0  0  0  0  0  0  0
   38.8785  -19.4346   35.4385 O   0  0  0  0  0  0  0  0  0  0  0  0
   37.9629  -19.0076   34.5148 C   0  0  0  0  0  0  0  0  0  0  0  0
   36.5299  -19.3987   34.8150 C   0  0  0  0  0  0  0  0  0  0  0  0
 17 18  1  0  0  0
 18 19  1  0  0  0
 18 20  1  0  0  0
 18 11  1  0  0  0
 11 12  2  0  0  0
 12 13  1  0  0  0
 13 14  2  0  0  0
 14 15  1  0  0  0
 15 16  2  0  0  0
 15  7  1  0  0  0
  7  8  2  0  0  0
  7  9  1  0  0  0
  9  1  1  0  0  0
  1  2  2  0  0  0
  2  3  1  0  0  0
  3  4  2  0  0  0
  4  5  1  0  0  0
  5  6  2  0  0  0
  6 25  1  0  0  0
 25 26  2  0  0  0
 25 27  2  0  0  0
 25 28  1  0  0  0
 28 29  1  0  0  0
 29 30  1  0  0  0
 30 31  1  0  0  0
 31 32  1  0  0  0
 32 33  1  0  0  0
  4 21  1  0  0  0
 21 22  1  0  0  0
 21 23  2  0  0  0
 16 11  1  0  0  0
  6  1  1  0  0  0
 33 28  1  0  0  0
  9 10  1  0  0  0
 22 24  1  0  0  0
M  END
> <minimizedAffinity>
-7.25852

> <CNNscore>
0.2204468101

> <CNNaffinity>
4.8440771103

> <CNN_VS>
1.0678613186

> <CNNaffinity_variance>
0.2280734330

$$$$
[H]OC(=O)c1c([H])c([H])c(N([H])C(=O)c2c([H])c([H])c([H])c(C(F)(F)F)c2[H])c(S(=O)(=O)N2C([H])([H])C([H])([H])OC([H])([H])C2([H])[H])c1[H]


 33 35  0  0  0  0  0  0  0  0999 V2000
   35.9496  -18.6248   34.9831 C   0  0  0  0  0  0  0  0  0  0  0  0
   35.2453  -18.3558   33.8385 C   0  0  0  0  0  0  0  0  0  0  0  0
   33.8562  -18.5174   33.7556 C   0  0  0  0  0  0  0  0  0  0  0  0
   33.1234  -18.9559   34.8265 C   0  0  0  0  0  0  0  0  0  0  0  0
   33.8119  -19.2266   35.9734 C   0  0  0  0  0  0  0  0  0  0  0  0
   35.2001  -19.0673   36.0638 C   0  0  0  0  0  0  0  0  0  0  0  0
   38.3509  -19.2732   34.5164 C   0  0  0  0  0  0  0  0  0  0  0  0
   38.1058  -20.2696   33.7451 O   0  0  0  0  0  0  0  0  0  0  0  0
   37.3562  -18.4888   35.1049 N   0  0  0  0  0  0  0  0  0  0  0  0
   37.7243  -17.6950   35.7193 H   0  0  0  0  0  0  0  0  0  0  0  0
   41.7503  -18.8222   36.1862 C   0  0  0  0  0  0  0  0  0  0  0  0
   42.5380  -18.5173   35.0985 C   0  0  0  0  0  0  0  0  0  0  0  0
   41.9445  -18.4602   33.8396 C   0  0  0  0  0  0  0  0  0  0  0  0
   40.6103  -18.6985   33.6635 C   0  0  0  0  0  0  0  0  0  0  0  0
   39.7837  -19.0100   34.7437 C   0  0  0  0  0  0  0  0  0  0  0  0
   40.3952  -19.0583   35.9696 C   0  0  0  0  0  0  0  0  0  0  0  0
   43.2048  -19.9469   37.6299 F   0  0  0  0  0  0  0  0  0  0  0  0
   42.3040  -18.9013   37.5590 C   0  0  0  0  0  0  0  0  0  0  0  0
   43.0134  -17.7315   37.8488 F   0  0  0  0  0  0  0  0  0  0  0  0
   41.3454  -19.0924   38.5017 F   0  0  0  0  0  0  0  0  0  0  0  0
   31.6673  -19.1170   34.7393 C   0  0  0  0  0  0  0  0  0  0  0  0
   30.8134  -18.5797   35.6827 O   0  0  0  0  0  0  0  0  0  0  0  0
   31.1719  -19.7606   33.7841 O   0  0  0  0  0  0  0  0  0  0  0  0
   30.7079  -19.1162   36.5406 H   0  0  0  0  0  0  0  0  0  0  0  0
   35.9877  -19.4071   37.5896 S   0  0  0  0  0  0  0  0  0  0  0  0
   36.7927  -18.1901   37.9557 O   0  0  0  0  0  0  0  0  0  0  0  0
   35.0223  -19.6095   38.7129 O   0  0  0  0  0  0  0  0  0  0  0  0
   36.9670  -20.7969   37.3585 N   0  0  0  0  0  0  0  0  0  0  0  0
   38.1055  -20.8378   38.2104 C   0  0  0  0  0  0  0  0  0  0  0  0
   37.7608  -21.3805   39.5513 C   0  0  0  0  0  0  0  0  0  0  0  0
   37.5136  -22.7632   39.4250 O   0  0  0  0  0  0  0  0  0  0  0  0
   37.0263  -23.1176   38.1959 C   0  0  0  0  0  0  0  0  0  0  0  0
   36.2440  -22.0306   37.4866 C   0  0  0  0  0  0  0  0  0  0  0  0
 17 18  1  0  0  0
 18 19  1  0  0  0
 18 20  1  0  0  0
 18 11  1  0  0  0
 11 12  2  0  0  0
 12 13  1  0  0  0
 13 14  2  0  0  0
 14 15  1  0  0  0
 15 16  2  0  0  0
 15  7  1  0  0  0
  7  8  2  0  0  0
  7  9  1  0  0  0
  9  1  1  0  0  0
  1  2  2  0  0  0
  2  3  1  0  0  0
  3  4  2  0  0  0
  4  5  1  0  0  0
  5  6  2  0  0  0
  6 25  1  0  0  0
 25 26  2  0  0  0
 25 27  2  0  0  0
 25 28  1  0  0  0
 28 29  1  0  0  0
 29 30  1  0  0  0
 30 31  1  0  0  0
 31 32  1  0  0  0
 32 33  1  0  0  0
  4 21  1  0  0  0
 21 22  1  0  0  0
 21 23  2  0  0  0
 16 11  1  0  0  0
  6  1  1  0  0  0
 33 28  1  0  0  0
  9 10  1  0  0  0
 22 24  1  0  0  0
M  END
> <minimizedAffinity>
-5.84549

> <CNNscore>
0.1960504204

> <CNNaffinity>
4.5339560509

> <CNN_VS>
0.8888840079

> <CNNaffinity_variance>
0.1946265399

$$$$
[H]OC(=O)c1c([H])c([H])c(N([H])C(=O)c2c([H])c([H])c([H])c(C(F)(F)F)c2[H])c(S(=O)(=O)N2C([H])([H])C([H])([H])OC([H])([H])C2([H])[H])c1[H]


 33 35  0  0  0  0  0  0  0  0999 V2000
   33.0861  -20.3871   35.4467 C   0  0  0  0  0  0  0  0  0  0  0  0
   32.1219  -20.0110   34.5481 C   0  0  0  0  0  0  0  0  0  0  0  0
   30.7582  -20.2456   34.7671 C   0  0  0  0  0  0  0  0  0  0  0  0
   30.3145  -20.8682   35.9036 C   0  0  0  0  0  0  0  0  0  0  0  0
   31.2639  -21.2475   36.8077 C   0  0  0  0  0  0  0  0  0  0  0  0
   32.6286  -21.0162   36.5958 C   0  0  0  0  0  0  0  0  0  0  0  0
   35.1874  -18.9818   35.3293 C   0  0  0  0  0  0  0  0  0  0  0  0
   34.6436  -17.8495   35.5940 O   0  0  0  0  0  0  0  0  0  0  0  0
   34.4768  -20.1821   35.2573 N   0  0  0  0  0  0  0  0  0  0  0  0
   35.0756  -21.0378   35.0290 H   0  0  0  0  0  0  0  0  0  0  0  0
   38.9616  -19.2629   35.8028 C   0  0  0  0  0  0  0  0  0  0  0  0
   39.4129  -18.8135   34.5818 C   0  0  0  0  0  0  0  0  0  0  0  0
   38.4771  -18.4227   33.6269 C   0  0  0  0  0  0  0  0  0  0  0  0
   37.1340  -18.4759   33.8742 C   0  0  0  0  0  0  0  0  0  0  0  0
   36.6428  -18.9259   35.1004 C   0  0  0  0  0  0  0  0  0  0  0  0
   37.5868  -19.3030   36.0201 C   0  0  0  0  0  0  0  0  0  0  0  0
   40.6473  -18.6152   37.2872 F   0  0  0  0  0  0  0  0  0  0  0  0
   39.8917  -19.6956   36.8729 C   0  0  0  0  0  0  0  0  0  0  0  0
   39.1620  -20.1325   37.9829 F   0  0  0  0  0  0  0  0  0  0  0  0
   40.7334  -20.6822   36.4699 F   0  0  0  0  0  0  0  0  0  0  0  0
   28.8848  -21.1059   36.1340 C   0  0  0  0  0  0  0  0  0  0  0  0
   28.1306  -20.2923   36.9569 O   0  0  0  0  0  0  0  0  0  0  0  0
   28.3199  -22.0744   35.5727 O   0  0  0  0  0  0  0  0  0  0  0  0
   28.2069  -20.4790   37.9541 H   0  0  0  0  0  0  0  0  0  0  0  0
   33.7665  -21.5084   37.8314 S   0  0  0  0  0  0  0  0  0  0  0  0
   34.3411  -20.2546   38.4322 O   0  0  0  0  0  0  0  0  0  0  0  0
   33.1199  -22.2421   38.9620 O   0  0  0  0  0  0  0  0  0  0  0  0
   34.9594  -22.4770   37.0681 N   0  0  0  0  0  0  0  0  0  0  0  0
   36.2563  -22.3324   37.6342 C   0  0  0  0  0  0  0  0  0  0  0  0
   36.4213  -23.1887   38.8387 C   0  0  0  0  0  0  0  0  0  0  0  0
   36.4959  -24.5348   38.4248 O   0  0  0  0  0  0  0  0  0  0  0  0
   35.8037  -24.7871   37.2710 C   0  0  0  0  0  0  0  0  0  0  0  0
   34.6206  -23.8717   37.0285 C   0  0  0  0  0  0  0  0  0  0  0  0
 17 18  1  0  0  0
 18 19  1  0  0  0
 18 20  1  0  0  0
 18 11  1  0  0  0
 11 12  2  0  0  0
 12 13  1  0  0  0
 13 14  2  0  0  0
 14 15  1  0  0  0
 15 16  2  0  0  0
 15  7  1  0  0  0
  7  8  2  0  0  0
  7  9  1  0  0  0
  9  1  1  0  0  0
  1  2  2  0  0  0
  2  3  1  0  0  0
  3  4  2  0  0  0
  4  5  1  0  0  0
  5  6  2  0  0  0
  6 25  1  0  0  0
 25 26  2  0  0  0
 25 27  2  0  0  0
 25 28  1  0  0  0
 28 29  1  0  0  0
 29 30  1  0  0  0
 30 31  1  0  0  0
 31 32  1  0  0  0
 32 33  1  0  0  0
  4 21  1  0  0  0
 21 22  1  0  0  0
 21 23  2  0  0  0
 16 11  1  0  0  0
  6  1  1  0  0  0
 33 28  1  0  0  0
  9 10  1  0  0  0
 22 24  1  0  0  0
M  END
> <minimizedAffinity>
-5.76411

> <CNNscore>
0.1839765608

> <CNNaffinity>
4.2916803360

> <CNN_VS>
0.7895686030

> <CNNaffinity_variance>
0.3965839446

$$$$
[H]OC(=O)c1c([H])c([H])c(N([H])C(=O)c2c([H])c([H])c([H])c(C(F)(F)F)c2[H])c(S(=O)(=O)N2C([H])([H])C([H])([H])OC([H])([H])C2([H])[H])c1[H]


 33 35  0  0  0  0  0  0  0  0999 V2000
   34.2258  -17.0705   36.1569 C   0  0  0  0  0  0  0  0  0  0  0  0
   33.6857  -15.8122   36.0948 C   0  0  0  0  0  0  0  0  0  0  0  0
   34.4612  -14.6540   36.2343 C   0  0  0  0  0  0  0  0  0  0  0  0
   35.8136  -14.7210   36.4407 C   0  0  0  0  0  0  0  0  0  0  0  0
   36.3651  -15.9678   36.5037 C   0  0  0  0  0  0  0  0  0  0  0  0
   35.5964  -17.1299   36.3650 C   0  0  0  0  0  0  0  0  0  0  0  0
   32.8800  -18.7980   34.8885 C   0  0  0  0  0  0  0  0  0  0  0  0
   32.9428  -18.2407   33.7337 O   0  0  0  0  0  0  0  0  0  0  0  0
   33.4751  -18.2678   36.0355 N   0  0  0  0  0  0  0  0  0  0  0  0
   33.3331  -18.8533   36.9187 H   0  0  0  0  0  0  0  0  0  0  0  0
   30.1953  -21.4151   35.5890 C   0  0  0  0  0  0  0  0  0  0  0  0
   30.7091  -22.5031   34.9191 C   0  0  0  0  0  0  0  0  0  0  0  0
   31.9250  -22.3642   34.2539 C   0  0  0  0  0  0  0  0  0  0  0  0
   32.6115  -21.1825   34.2522 C   0  0  0  0  0  0  0  0  0  0  0  0
   32.1196  -20.0607   34.9209 C   0  0  0  0  0  0  0  0  0  0  0  0
   30.9219  -20.2275   35.5666 C   0  0  0  0  0  0  0  0  0  0  0  0
   28.3228  -20.2288   36.3313 F   0  0  0  0  0  0  0  0  0  0  0  0
   28.9087  -21.4804   36.3223 C   0  0  0  0  0  0  0  0  0  0  0  0
   28.0288  -22.3377   35.6543 F   0  0  0  0  0  0  0  0  0  0  0  0
   29.0565  -21.8973   37.6063 F   0  0  0  0  0  0  0  0  0  0  0  0
   36.6249  -13.5059   36.5789 C   0  0  0  0  0  0  0  0  0  0  0  0
   37.9990  -13.5540   36.7106 O   0  0  0  0  0  0  0  0  0  0  0  0
   36.0646  -12.3842   36.5795 O   0  0  0  0  0  0  0  0  0  0  0  0
   38.3472  -13.7568   37.6447 H   0  0  0  0  0  0  0  0  0  0  0  0
   36.4018  -18.6828   36.4255 S   0  0  0  0  0  0  0  0  0  0  0  0
   36.4923  -19.1926   35.0130 O   0  0  0  0  0  0  0  0  0  0  0  0
   37.8109  -18.5912   36.9162 O   0  0  0  0  0  0  0  0  0  0  0  0
   35.4617  -19.7048   37.4333 N   0  0  0  0  0  0  0  0  0  0  0  0
   35.4614  -21.0660   37.0201 C   0  0  0  0  0  0  0  0  0  0  0  0
   36.6639  -21.7848   37.5187 C   0  0  0  0  0  0  0  0  0  0  0  0
   36.5336  -21.9635   38.9116 O   0  0  0  0  0  0  0  0  0  0  0  0
   35.7981  -20.9814   39.5185 C   0  0  0  0  0  0  0  0  0  0  0  0
   35.8344  -19.6379   38.8183 C   0  0  0  0  0  0  0  0  0  0  0  0
 17 18  1  0  0  0
 18 19  1  0  0  0
 18 20  1  0  0  0
 18 11  1  0  0  0
 11 12  2  0  0  0
 12 13  1  0  0  0
 13 14  2  0  0  0
 14 15  1  0  0  0
 15 16  2  0  0  0
 15  7  1  0  0  0
  7  8  2  0  0  0
  7  9  1  0  0  0
  9  1  1  0  0  0
  1  2  2  0  0  0
  2  3  1  0  0  0
  3  4  2  0  0  0
  4  5  1  0  0  0
  5  6  2  0  0  0
  6 25  1  0  0  0
 25 26  2  0  0  0
 25 27  2  0  0  0
 25 28  1  0  0  0
 28 29  1  0  0  0
 29 30  1  0  0  0
 30 31  1  0  0  0
 31 32  1  0  0  0
 32 33  1  0  0  0
  4 21  1  0  0  0
 21 22  1  0  0  0
 21 23  2  0  0  0
 16 11  1  0  0  0
  6  1  1  0  0  0
 33 28  1  0  0  0
  9 10  1  0  0  0
 22 24  1  0  0  0
M  END
> <minimizedAffinity>
-6.43858

> <CNNscore>
0.1653568149

> <CNNaffinity>
4.6161966324

> <CNN_VS>
0.7633195519

> <CNNaffinity_variance>
0.2525959611

$$$$
[H]OC(=O)c1c([H])c([H])c(N([H])C(=O)c2c([H])c([H])c([H])c(C(F)(F)F)c2[H])c(S(=O)(=O)N2C([H])([H])C([H])([H])OC([H])([H])C2([H])[H])c1[H]


 33 35  0  0  0  0  0  0  0  0999 V2000
   37.5446  -20.7011   37.9804 C   0  0  0  0  0  0  0  0  0  0  0  0
   37.4604  -21.1180   39.2834 C   0  0  0  0  0  0  0  0  0  0  0  0
   38.5933  -21.4185   40.0508 C   0  0  0  0  0  0  0  0  0  0  0  0
   39.8564  -21.3082   39.5325 C   0  0  0  0  0  0  0  0  0  0  0  0
   39.9551  -20.8931   38.2361 C   0  0  0  0  0  0  0  0  0  0  0  0
   38.8274  -20.5909   37.4630 C   0  0  0  0  0  0  0  0  0  0  0  0
   35.6334  -19.2495   37.1775 C   0  0  0  0  0  0  0  0  0  0  0  0
   35.8338  -18.2597   37.9701 O   0  0  0  0  0  0  0  0  0  0  0  0
   36.4236  -20.4012   37.1647 N   0  0  0  0  0  0  0  0  0  0  0  0
   36.1274  -21.1330   36.4439 H   0  0  0  0  0  0  0  0  0  0  0  0
   32.2897  -19.7288   35.4063 C   0  0  0  0  0  0  0  0  0  0  0  0
   32.3207  -18.6899   34.5028 C   0  0  0  0  0  0  0  0  0  0  0  0
   33.4345  -17.8536   34.4851 C   0  0  0  0  0  0  0  0  0  0  0  0
   34.4864  -18.0409   35.3374 C   0  0  0  0  0  0  0  0  0  0  0  0
   34.4875  -19.0836   36.2648 C   0  0  0  0  0  0  0  0  0  0  0  0
   33.3789  -19.8900   36.2586 C   0  0  0  0  0  0  0  0  0  0  0  0
   30.0253  -20.0680   34.9348 F   0  0  0  0  0  0  0  0  0  0  0  0
   31.1426  -20.6641   35.4882 C   0  0  0  0  0  0  0  0  0  0  0  0
   31.4124  -21.8077   34.7300 F   0  0  0  0  0  0  0  0  0  0  0  0
   30.8511  -21.0273   36.7638 F   0  0  0  0  0  0  0  0  0  0  0  0
   41.0418  -21.6163   40.3409 C   0  0  0  0  0  0  0  0  0  0  0  0
   42.1081  -20.7438   40.4389 O   0  0  0  0  0  0  0  0  0  0  0  0
   41.1000  -22.7019   40.9656 O   0  0  0  0  0  0  0  0  0  0  0  0
   42.7692  -20.7644   39.6659 H   0  0  0  0  0  0  0  0  0  0  0  0
   39.0593  -20.0322   35.8205 S   0  0  0  0  0  0  0  0  0  0  0  0
   38.3035  -20.9710   34.9201 O   0  0  0  0  0  0  0  0  0  0  0  0
   38.4768  -18.6772   35.5767 O   0  0  0  0  0  0  0  0  0  0  0  0
   40.7472  -20.0436   35.5125 N   0  0  0  0  0  0  0  0  0  0  0  0
   41.0959  -20.6648   34.2812 C   0  0  0  0  0  0  0  0  0  0  0  0
   40.9572  -19.7222   33.1394 C   0  0  0  0  0  0  0  0  0  0  0  0
   41.9907  -18.7659   33.2197 O   0  0  0  0  0  0  0  0  0  0  0  0
   42.4036  -18.5191   34.5013 C   0  0  0  0  0  0  0  0  0  0  0  0
   41.3439  -18.7387   35.5621 C   0  0  0  0  0  0  0  0  0  0  0  0
 17 18  1  0  0  0
 18 19  1  0  0  0
 18 20  1  0  0  0
 18 11  1  0  0  0
 11 12  2  0  0  0
 12 13  1  0  0  0
 13 14  2  0  0  0
 14 15  1  0  0  0
 15 16  2  0  0  0
 15  7  1  0  0  0
  7  8  2  0  0  0
  7  9  1  0  0  0
  9  1  1  0  0  0
  1  2  2  0  0  0
  2  3  1  0  0  0
  3  4  2  0  0  0
  4  5  1  0  0  0
  5  6  2  0  0  0
  6 25  1  0  0  0
 25 26  2  0  0  0
 25 27  2  0  0  0
 25 28  1  0  0  0
 28 29  1  0  0  0
 29 30  1  0  0  0
 30 31  1  0  0  0
 31 32  1  0  0  0
 32 33  1  0  0  0
  4 21  1  0  0  0
 21 22  1  0  0  0
 21 23  2  0  0  0
 16 11  1  0  0  0
  6  1  1  0  0  0
 33 28  1  0  0  0
  9 10  1  0  0  0
 22 24  1  0  0  0
M  END
> <minimizedAffinity>
-5.60909

> <CNNscore>
0.1643068641

> <CNNaffinity>
4.2770566940

> <CNN_VS>
0.7027497888

> <CNNaffinity_variance>
0.4178070426

$$$$
[H]OC(=O)c1c([H])c([H])c(N([H])C(=O)c2c([H])c([H])c([H])c(C(F)(F)F)c2[H])c(S(=O)(=O)N2C([H])([H])C([H])([H])OC([H])([H])C2([H])[H])c1[H]


 33 35  0  0  0  0  0  0  0  0999 V2000
   36.1187  -18.4513   34.6876 C   0  0  0  0  0  0  0  0  0  0  0  0
   35.4796  -19.5089   34.0945 C   0  0  0  0  0  0  0  0  0  0  0  0
   34.0890  -19.6709   34.1456 C   0  0  0  0  0  0  0  0  0  0  0  0
   33.2888  -18.7698   34.7967 C   0  0  0  0  0  0  0  0  0  0  0  0
   33.9120  -17.7110   35.3910 C   0  0  0  0  0  0  0  0  0  0  0  0
   35.3012  -17.5424   35.3441 C   0  0  0  0  0  0  0  0  0  0  0  0
   38.5200  -19.1509   35.0733 C   0  0  0  0  0  0  0  0  0  0  0  0
   38.2782  -20.3265   35.5286 O   0  0  0  0  0  0  0  0  0  0  0  0
   37.5238  -18.2578   34.6722 N   0  0  0  0  0  0  0  0  0  0  0  0
   37.8892  -17.3190   34.3143 H   0  0  0  0  0  0  0  0  0  0  0  0
   42.1097  -18.2908   36.0335 C   0  0  0  0  0  0  0  0  0  0  0  0
   42.6882  -18.1571   34.7910 C   0  0  0  0  0  0  0  0  0  0  0  0
   41.8952  -18.3460   33.6615 C   0  0  0  0  0  0  0  0  0  0  0  0
   40.5684  -18.6586   33.7601 C   0  0  0  0  0  0  0  0  0  0  0  0
   39.9506  -18.8013   35.0032 C   0  0  0  0  0  0  0  0  0  0  0  0
   40.7555  -18.6091   36.0961 C   0  0  0  0  0  0  0  0  0  0  0  0
   42.1463  -18.5771   38.3533 F   0  0  0  0  0  0  0  0  0  0  0  0
   42.8835  -18.1046   37.2840 C   0  0  0  0  0  0  0  0  0  0  0  0
   44.0562  -18.8644   37.2298 F   0  0  0  0  0  0  0  0  0  0  0  0
   43.1990  -16.8046   37.5179 F   0  0  0  0  0  0  0  0  0  0  0  0
   31.8316  -18.9378   34.8421 C   0  0  0  0  0  0  0  0  0  0  0  0
   31.1199  -19.4494   33.7746 O   0  0  0  0  0  0  0  0  0  0  0  0
   31.2026  -18.6097   35.8760 O   0  0  0  0  0  0  0  0  0  0  0  0
   30.9074  -18.7914   33.0284 H   0  0  0  0  0  0  0  0  0  0  0  0
   36.0032  -16.1322   36.1072 S   0  0  0  0  0  0  0  0  0  0  0  0
   37.0346  -16.6230   37.0863 O   0  0  0  0  0  0  0  0  0  0  0  0
   36.7389  -15.2538   35.1471 O   0  0  0  0  0  0  0  0  0  0  0  0
   34.7262  -15.2784   36.8717 N   0  0  0  0  0  0  0  0  0  0  0  0
   35.1741  -14.2930   37.7946 C   0  0  0  0  0  0  0  0  0  0  0  0
   35.5262  -13.0236   37.1049 C   0  0  0  0  0  0  0  0  0  0  0  0
   34.3362  -12.4077   36.6647 O   0  0  0  0  0  0  0  0  0  0  0  0
   33.3364  -13.2988   36.3814 C   0  0  0  0  0  0  0  0  0  0  0  0
   33.8137  -14.6695   35.9454 C   0  0  0  0  0  0  0  0  0  0  0  0
 17 18  1  0  0  0
 18 19  1  0  0  0
 18 20  1  0  0  0
 18 11  1  0  0  0
 11 12  2  0  0  0
 12 13  1  0  0  0
 13 14  2  0  0  0
 14 15  1  0  0  0
 15 16  2  0  0  0
 15  7  1  0  0  0
  7  8  2  0  0  0
  7  9  1  0  0  0
  9  1  1  0  0  0
  1  2  2  0  0  0
  2  3  1  0  0  0
  3  4  2  0  0  0
  4  5  1  0  0  0
  5  6  2  0  0  0
  6 25  1  0  0  0
 25 26  2  0  0  0
 25 27  2  0  0  0
 25 28  1  0  0  0
 28 29  1  0  0  0
 29 30  1  0  0  0
 30 31  1  0  0  0
 31 32  1  0  0  0
 32 33  1  0  0  0
  4 21  1  0  0  0
 21 22  1  0  0  0
 21 23  2  0  0  0
 16 11  1  0  0  0
  6  1  1  0  0  0
 33 28  1  0  0  0
  9 10  1  0  0  0
 22 24  1  0  0  0
M  END
> <minimizedAffinity>
-6.89552

> <CNNscore>
0.1519384384

> <CNNaffinity>
4.7099289894

> <CNN_VS>
0.7156192660

> <CNNaffinity_variance>
0.2238503397

$$$$
[H]OC(=O)c1c([H])c([H])c(N([H])C(=O)c2c([H])c([H])c([H])c(C(F)(F)F)c2[H])c(S(=O)(=O)N2C([H])([H])C([H])([H])OC([H])([H])C2([H])[H])c1[H]


 33 35  0  0  0  0  0  0  0  0999 V2000
   32.6801  -19.3187   35.8378 C   0  0  0  0  0  0  0  0  0  0  0  0
   31.4839  -19.4711   35.1863 C   0  0  0  0  0  0  0  0  0  0  0  0
   30.9751  -20.7278   34.8337 C   0  0  0  0  0  0  0  0  0  0  0  0
   31.6541  -21.8807   35.1270 C   0  0  0  0  0  0  0  0  0  0  0  0
   32.8465  -21.7438   35.7767 C   0  0  0  0  0  0  0  0  0  0  0  0
   33.3613  -20.4912   36.1323 C   0  0  0  0  0  0  0  0  0  0  0  0
   33.6516  -17.0321   35.3559 C   0  0  0  0  0  0  0  0  0  0  0  0
   33.5728  -17.0858   34.0758 O   0  0  0  0  0  0  0  0  0  0  0  0
   33.2377  -18.0656   36.1995 N   0  0  0  0  0  0  0  0  0  0  0  0
   33.3678  -17.8652   37.2415 H   0  0  0  0  0  0  0  0  0  0  0  0
   36.0280  -14.4813   36.9032 C   0  0  0  0  0  0  0  0  0  0  0  0
   35.2561  -13.3418   36.8555 C   0  0  0  0  0  0  0  0  0  0  0  0
   33.9719  -13.4272   36.3228 C   0  0  0  0  0  0  0  0  0  0  0  0
   33.4674  -14.6065   35.8510 C   0  0  0  0  0  0  0  0  0  0  0  0
   34.2224  -15.7797   35.8844 C   0  0  0  0  0  0  0  0  0  0  0  0
   35.4815  -15.6651   36.4143 C   0  0  0  0  0  0  0  0  0  0  0  0
   38.1346  -13.4691   36.8535 F   0  0  0  0  0  0  0  0  0  0  0  0
   37.4034  -14.4754   37.4558 C   0  0  0  0  0  0  0  0  0  0  0  0
   37.3603  -14.1856   38.8232 F   0  0  0  0  0  0  0  0  0  0  0  0
   38.0513  -15.6535   37.2649 F   0  0  0  0  0  0  0  0  0  0  0  0
   31.1151  -23.1963   34.7634 C   0  0  0  0  0  0  0  0  0  0  0  0
   31.6839  -23.9720   33.7720 O   0  0  0  0  0  0  0  0  0  0  0  0
   30.1076  -23.6400   35.3635 O   0  0  0  0  0  0  0  0  0  0  0  0
   31.4275  -23.7289   32.8181 H   0  0  0  0  0  0  0  0  0  0  0  0
   34.8825  -20.4217   36.9953 S   0  0  0  0  0  0  0  0  0  0  0  0
   35.8735  -19.7344   36.0959 O   0  0  0  0  0  0  0  0  0  0  0  0
   34.8131  -19.5897   38.2354 O   0  0  0  0  0  0  0  0  0  0  0  0
   35.3357  -22.0361   37.3590 N   0  0  0  0  0  0  0  0  0  0  0  0
   36.7252  -22.2884   37.1887 C   0  0  0  0  0  0  0  0  0  0  0  0
   37.5037  -21.8668   38.3835 C   0  0  0  0  0  0  0  0  0  0  0  0
   37.2305  -22.7649   39.4360 O   0  0  0  0  0  0  0  0  0  0  0  0
   35.9796  -23.3168   39.3679 C   0  0  0  0  0  0  0  0  0  0  0  0
   34.9434  -22.4549   38.6751 C   0  0  0  0  0  0  0  0  0  0  0  0
 17 18  1  0  0  0
 18 19  1  0  0  0
 18 20  1  0  0  0
 18 11  1  0  0  0
 11 12  2  0  0  0
 12 13  1  0  0  0
 13 14  2  0  0  0
 14 15  1  0  0  0
 15 16  2  0  0  0
 15  7  1  0  0  0
  7  8  2  0  0  0
  7  9  1  0  0  0
  9  1  1  0  0  0
  1  2  2  0  0  0
  2  3  1  0  0  0
  3  4  2  0  0  0
  4  5  1  0  0  0
  5  6  2  0  0  0
  6 25  1  0  0  0
 25 26  2  0  0  0
 25 27  2  0  0  0
 25 28  1  0  0  0
 28 29  1  0  0  0
 29 30  1  0  0  0
 30 31  1  0  0  0
 31 32  1  0  0  0
 32 33  1  0  0  0
  4 21  1  0  0  0
 21 22  1  0  0  0
 21 23  2  0  0  0
 16 11  1  0  0  0
  6  1  1  0  0  0
 33 28  1  0  0  0
  9 10  1  0  0  0
 22 24  1  0  0  0
M  END
> <minimizedAffinity>
-6.57124

> <CNNscore>
0.1477890164

> <CNNaffinity>
4.5902676582

> <CNN_VS>
0.6783911586

> <CNNaffinity_variance>
0.1828588098

$$$$
[H]OC(=O)c1c([H])c([H])c(N([H])C(=O)c2c([H])c([H])c([H])c(C(F)(F)F)c2[H])c(S(=O)(=O)N2C([H])([H])C([H])([H])OC([H])([H])C2([H])[H])c1[H]


 33 35  0  0  0  0  0  0  0  0999 V2000
   36.3937  -17.2667   36.5858 C   0  0  0  0  0  0  0  0  0  0  0  0
   36.6861  -16.0352   37.1118 C   0  0  0  0  0  0  0  0  0  0  0  0
   35.8164  -14.9431   36.9962 C   0  0  0  0  0  0  0  0  0  0  0  0
   34.6158  -15.0523   36.3459 C   0  0  0  0  0  0  0  0  0  0  0  0
   34.3112  -16.2734   35.8180 C   0  0  0  0  0  0  0  0  0  0  0  0
   35.1753  -17.3695   35.9296 C   0  0  0  0  0  0  0  0  0  0  0  0
   38.2315  -18.7966   35.7575 C   0  0  0  0  0  0  0  0  0  0  0  0
   38.4980  -18.1626   34.6736 O   0  0  0  0  0  0  0  0  0  0  0  0
   37.2515  -18.3933   36.6674 N   0  0  0  0  0  0  0  0  0  0  0  0
   37.1534  -19.0279   37.5222 H   0  0  0  0  0  0  0  0  0  0  0  0
   39.9660  -22.1585   35.2712 C   0  0  0  0  0  0  0  0  0  0  0  0
   40.6448  -22.2779   36.4635 C   0  0  0  0  0  0  0  0  0  0  0  0
   40.5210  -21.2605   37.4068 C   0  0  0  0  0  0  0  0  0  0  0  0
   39.7479  -20.1575   37.1757 C   0  0  0  0  0  0  0  0  0  0  0  0
   39.0468  -20.0050   35.9789 C   0  0  0  0  0  0  0  0  0  0  0  0
   39.1873  -21.0218   35.0703 C   0  0  0  0  0  0  0  0  0  0  0  0
   40.5181  -24.3730   34.7654 F   0  0  0  0  0  0  0  0  0  0  0  0
   40.0435  -23.1970   34.2162 C   0  0  0  0  0  0  0  0  0  0  0  0
   38.7623  -23.4647   33.7239 F   0  0  0  0  0  0  0  0  0  0  0  0
   40.8564  -22.8416   33.1881 F   0  0  0  0  0  0  0  0  0  0  0  0
   33.7032  -13.9086   36.2330 C   0  0  0  0  0  0  0  0  0  0  0  0
   32.6521  -13.8963   35.3368 O   0  0  0  0  0  0  0  0  0  0  0  0
   33.8732  -12.9061   36.9667 O   0  0  0  0  0  0  0  0  0  0  0  0
   32.8912  -13.6558   34.3777 H   0  0  0  0  0  0  0  0  0  0  0  0
   34.6789  -18.9040   35.2495 S   0  0  0  0  0  0  0  0  0  0  0  0
   35.5499  -19.1620   34.0503 O   0  0  0  0  0  0  0  0  0  0  0  0
   34.9094  -20.0551   36.1750 O   0  0  0  0  0  0  0  0  0  0  0  0
   33.0191  -18.7651   34.8376 N   0  0  0  0  0  0  0  0  0  0  0  0
   32.6516  -19.5274   33.6941 C   0  0  0  0  0  0  0  0  0  0  0  0
   32.3800  -20.9451   34.0513 C   0  0  0  0  0  0  0  0  0  0  0  0
   31.1675  -21.0019   34.7695 O   0  0  0  0  0  0  0  0  0  0  0  0
   30.9054  -19.8634   35.4831 C   0  0  0  0  0  0  0  0  0  0  0  0
   32.1345  -19.0921   35.9202 C   0  0  0  0  0  0  0  0  0  0  0  0
 17 18  1  0  0  0
 18 19  1  0  0  0
 18 20  1  0  0  0
 18 11  1  0  0  0
 11 12  2  0  0  0
 12 13  1  0  0  0
 13 14  2  0  0  0
 14 15  1  0  0  0
 15 16  2  0  0  0
 15  7  1  0  0  0
  7  8  2  0  0  0
  7  9  1  0  0  0
  9  1  1  0  0  0
  1  2  2  0  0  0
  2  3  1  0  0  0
  3  4  2  0  0  0
  4  5  1  0  0  0
  5  6  2  0  0  0
  6 25  1  0  0  0
 25 26  2  0  0  0
 25 27  2  0  0  0
 25 28  1  0  0  0
 28 29  1  0  0  0
 29 30  1  0  0  0
 30 31  1  0  0  0
 31 32  1  0  0  0
 32 33  1  0  0  0
  4 21  1  0  0  0
 21 22  1  0  0  0
 21 23  2  0  0  0
 16 11  1  0  0  0
  6  1  1  0  0  0
 33 28  1  0  0  0
  9 10  1  0  0  0
 22 24  1  0  0  0
M  END
> <minimizedAffinity>
-6.59321

> <CNNscore>
0.1407642961

> <CNNaffinity>
4.6305012703

> <CNN_VS>
0.6518092752

> <CNNaffinity_variance>
0.2479639351

$$$$
[H]OC(=O)c1c([H])c([H])c(N([H])C(=O)c2c([H])c([H])c([H])c(C(F)(F)F)c2[H])c(S(=O)(=O)N2C([H])([H])C([H])([H])OC([H])([H])C2([H])[H])c1[H]


 33 35  0  0  0  0  0  0  0  0999 V2000
   38.4784  -20.8186   38.1726 C   0  0  0  0  0  0  0  0  0  0  0  0
   37.9882  -21.7764   39.0218 C   0  0  0  0  0  0  0  0  0  0  0  0
   38.7305  -22.9066   39.3882 C   0  0  0  0  0  0  0  0  0  0  0  0
   39.9982  -23.1131   38.9124 C   0  0  0  0  0  0  0  0  0  0  0  0
   40.4994  -22.1666   38.0665 C   0  0  0  0  0  0  0  0  0  0  0  0
   39.7635  -21.0344   37.6959 C   0  0  0  0  0  0  0  0  0  0  0  0
   36.5518  -19.6138   37.0586 C   0  0  0  0  0  0  0  0  0  0  0  0
   35.9090  -20.6547   36.6698 O   0  0  0  0  0  0  0  0  0  0  0  0
   37.7555  -19.6683   37.7650 N   0  0  0  0  0  0  0  0  0  0  0  0
   38.1639  -18.7132   38.0177 H   0  0  0  0  0  0  0  0  0  0  0  0
   35.7703  -15.8910   36.7798 C   0  0  0  0  0  0  0  0  0  0  0  0
   34.6718  -15.9155   35.9495 C   0  0  0  0  0  0  0  0  0  0  0  0
   34.2032  -17.1473   35.4986 C   0  0  0  0  0  0  0  0  0  0  0  0
   34.8051  -18.3201   35.8594 C   0  0  0  0  0  0  0  0  0  0  0  0
   35.9196  -18.3313   36.6991 C   0  0  0  0  0  0  0  0  0  0  0  0
   36.3576  -17.1048   37.1271 C   0  0  0  0  0  0  0  0  0  0  0  0
   35.2955  -13.7786   37.6613 F   0  0  0  0  0  0  0  0  0  0  0  0
   36.3300  -14.6225   37.3041 C   0  0  0  0  0  0  0  0  0  0  0  0
   37.0675  -14.8773   38.4646 F   0  0  0  0  0  0  0  0  0  0  0  0
   37.1170  -13.9828   36.4011 F   0  0  0  0  0  0  0  0  0  0  0  0
   40.7765  -24.2941   39.3039 C   0  0  0  0  0  0  0  0  0  0  0  0
   41.3254  -24.4242   40.5647 O   0  0  0  0  0  0  0  0  0  0  0  0
   40.9559  -25.2193   38.4769 O   0  0  0  0  0  0  0  0  0  0  0  0
   42.2039  -23.9345   40.7176 H   0  0  0  0  0  0  0  0  0  0  0  0
   40.5073  -19.8592   36.6332 S   0  0  0  0  0  0  0  0  0  0  0  0
   40.0940  -18.4963   37.1179 O   0  0  0  0  0  0  0  0  0  0  0  0
   42.0008  -19.8778   36.6958 O   0  0  0  0  0  0  0  0  0  0  0  0
   39.9514  -20.1869   35.0433 N   0  0  0  0  0  0  0  0  0  0  0  0
   39.6933  -19.0154   34.2788 C   0  0  0  0  0  0  0  0  0  0  0  0
   40.9388  -18.4818   33.6662 C   0  0  0  0  0  0  0  0  0  0  0  0
   41.3380  -19.3529   32.6313 O   0  0  0  0  0  0  0  0  0  0  0  0
   40.9643  -20.6530   32.8417 C   0  0  0  0  0  0  0  0  0  0  0  0
   40.8289  -21.0457   34.2991 C   0  0  0  0  0  0  0  0  0  0  0  0
 17 18  1  0  0  0
 18 19  1  0  0  0
 18 20  1  0  0  0
 18 11  1  0  0  0
 11 12  2  0  0  0
 12 13  1  0  0  0
 13 14  2  0  0  0
 14 15  1  0  0  0
 15 16  2  0  0  0
 15  7  1  0  0  0
  7  8  2  0  0  0
  7  9  1  0  0  0
  9  1  1  0  0  0
  1  2  2  0  0  0
  2  3  1  0  0  0
  3  4  2  0  0  0
  4  5  1  0  0  0
  5  6  2  0  0  0
  6 25  1  0  0  0
 25 26  2  0  0  0
 25 27  2  0  0  0
 25 28  1  0  0  0
 28 29  1  0  0  0
 29 30  1  0  0  0
 30 31  1  0  0  0
 31 32  1  0  0  0
 32 33  1  0  0  0
  4 21  1  0  0  0
 21 22  1  0  0  0
 21 23  2  0  0  0
 16 11  1  0  0  0
  6  1  1  0  0  0
 33 28  1  0  0  0
  9 10  1  0  0  0
 22 24  1  0  0  0
M  END
> <minimizedAffinity>
-5.68894

> <CNNscore>
0.1376964301

> <CNNaffinity>
4.6051759720

> <CNN_VS>
0.6341162920

> <CNNaffinity_variance>
0.2277749777

$$$$
[H]c1c([H])c([H])c(C([H])([H])OC(=O)N2C([H])([H])C([H])([H])N(C(=O)c3c([H])c([H])c(-c4c([H])c([H])c(S(=O)(=O)N([H])[H])c([H])c4[H])c([H])c3[H])C([H])([H])C2([H])[H])c([H])c1[H]


 36 39  0  0  0  0  0  0  0  0999 V2000
   36.4196  -24.9458   36.4290 C   0  0  0  0  0  0  0  0  0  0  0  0
   36.7206  -24.1783   37.5423 C   0  0  0  0  0  0  0  0  0  0  0  0
   35.8601  -23.9589   38.5556 C   0  0  0  0  0  0  0  0  0  0  0  0
   34.5691  -24.5135   38.5396 C   0  0  0  0  0  0  0  0  0  0  0  0
   34.2344  -25.2755   37.4555 C   0  0  0  0  0  0  0  0  0  0  0  0
   35.1571  -25.4868   36.4127 C   0  0  0  0  0  0  0  0  0  0  0  0
   33.6503  -24.1774   39.6016 C   0  0  0  0  0  0  0  0  0  0  0  0
   32.9209  -25.2022   40.0267 O   0  0  0  0  0  0  0  0  0  0  0  0
   33.4514  -22.9548   40.1996 N   0  0  0  0  0  0  0  0  0  0  0  0
   32.5111  -22.9303   41.3668 C   0  0  0  0  0  0  0  0  0  0  0  0
   33.1701  -22.1762   42.4993 C   0  0  0  0  0  0  0  0  0  0  0  0
   33.8043  -20.9882   42.0259 N   0  0  0  0  0  0  0  0  0  0  0  0
   34.7593  -21.0576   40.9478 C   0  0  0  0  0  0  0  0  0  0  0  0
   33.9639  -21.6933   39.7882 C   0  0  0  0  0  0  0  0  0  0  0  0
   33.5090  -19.7399   42.6027 C   0  0  0  0  0  0  0  0  0  0  0  0
   34.0637  -18.6736   42.1852 O   0  0  0  0  0  0  0  0  0  0  0  0
   32.6065  -19.6009   43.6478 O   0  0  0  0  0  0  0  0  0  0  0  0
   32.6227  -18.4314   44.4321 C   0  0  0  0  0  0  0  0  0  0  0  0
   31.3268  -17.7320   44.2703 C   0  0  0  0  0  0  0  0  0  0  0  0
   30.7383  -17.7069   43.0332 C   0  0  0  0  0  0  0  0  0  0  0  0
   29.5283  -17.0557   42.8732 C   0  0  0  0  0  0  0  0  0  0  0  0
   28.9330  -16.4466   43.9429 C   0  0  0  0  0  0  0  0  0  0  0  0
   29.5404  -16.4841   45.1737 C   0  0  0  0  0  0  0  0  0  0  0  0
   30.7524  -17.1280   45.3670 C   0  0  0  0  0  0  0  0  0  0  0  0
   39.1916  -25.6259   33.2560 C   0  0  0  0  0  0  0  0  0  0  0  0
   38.1351  -26.4822   33.4527 C   0  0  0  0  0  0  0  0  0  0  0  0
   37.2371  -26.2527   34.4872 C   0  0  0  0  0  0  0  0  0  0  0  0
   37.3617  -25.1724   35.3511 C   0  0  0  0  0  0  0  0  0  0  0  0
   38.4318  -24.3327   35.1269 C   0  0  0  0  0  0  0  0  0  0  0  0
   39.3400  -24.5561   34.0888 C   0  0  0  0  0  0  0  0  0  0  0  0
   41.3010  -27.2737   32.2182 N   0  0  0  0  0  0  0  0  0  0  0  0
   40.3407  -25.8763   31.9682 S   0  0  0  0  0  0  0  0  0  0  0  0
   41.2471  -24.6607   31.9286 O   0  0  0  0  0  0  0  0  0  0  0  0
   39.5634  -25.9560   30.6760 O   0  0  0  0  0  0  0  0  0  0  0  0
   42.0214  -27.0359   32.9415 H   0  0  0  0  0  0  0  0  0  0  0  0
   40.7336  -28.0594   32.5669 H   0  0  0  0  0  0  0  0  0  0  0  0
 31 32  1  0  0  0
 32 33  2  0  0  0
 32 34  2  0  0  0
 32 25  1  0  0  0
 25 26  2  0  0  0
 26 27  1  0  0  0
 27 28  2  0  0  0
 28 29  1  0  0  0
 29 30  2  0  0  0
 28  1  1  0  0  0
  1  2  2  0  0  0
  2  3  1  0  0  0
  3  4  2  0  0  0
  4  5  1  0  0  0
  5  6  2  0  0  0
  4  7  1  0  0  0
  7  8  2  0  0  0
  7  9  1  0  0  0
  9 10  1  0  0  0
 10 11  1  0  0  0
 11 12  1  0  0  0
 12 13  1  0  0  0
 13 14  1  0  0  0
 12 15  1  0  0  0
 15 16  2  0  0  0
 15 17  1  0  0  0
 17 18  1  0  0  0
 18 19  1  0  0  0
 19 20  2  0  0  0
 20 21  1  0  0  0
 21 22  2  0  0  0
 22 23  1  0  0  0
 23 24  2  0  0  0
 30 25  1  0  0  0
  6  1  1  0  0  0
 14  9  1  0  0  0
 24 19  1  0  0  0
 31 35  1  0  0  0
 31 36  1  0  0  0
M  END
> <minimizedAffinity>
-3.40917

> <CNNscore>
0.5686019659

> <CNNaffinity>
4.7304582596

> <CNN_VS>
2.6897478104

> <CNNaffinity_variance>
0.5125670433

$$$$
[H]c1c([H])c([H])c(C([H])([H])OC(=O)N2C([H])([H])C([H])([H])N(C(=O)c3c([H])c([H])c(-c4c([H])c([H])c(S(=O)(=O)N([H])[H])c([H])c4[H])c([H])c3[H])C([H])([H])C2([H])[H])c([H])c1[H]


 36 39  0  0  0  0  0  0  0  0999 V2000
   37.0884  -18.1274   36.9166 C   0  0  0  0  0  0  0  0  0  0  0  0
   36.6161  -19.3212   37.4371 C   0  0  0  0  0  0  0  0  0  0  0  0
   37.3232  -20.4682   37.4416 C   0  0  0  0  0  0  0  0  0  0  0  0
   38.6195  -20.5194   36.9018 C   0  0  0  0  0  0  0  0  0  0  0  0
   39.1192  -19.3609   36.3763 C   0  0  0  0  0  0  0  0  0  0  0  0
   38.3552  -18.1780   36.3878 C   0  0  0  0  0  0  0  0  0  0  0  0
   39.3040  -21.7896   36.8455 C   0  0  0  0  0  0  0  0  0  0  0  0
   39.2233  -22.3926   35.6652 O   0  0  0  0  0  0  0  0  0  0  0  0
   40.0043  -22.4240   37.8450 N   0  0  0  0  0  0  0  0  0  0  0  0
   40.7173  -23.6852   37.4604 C   0  0  0  0  0  0  0  0  0  0  0  0
   42.1346  -23.6142   37.9814 C   0  0  0  0  0  0  0  0  0  0  0  0
   42.1669  -23.1160   39.3187 N   0  0  0  0  0  0  0  0  0  0  0  0
   41.5317  -21.8619   39.6397 C   0  0  0  0  0  0  0  0  0  0  0  0
   40.0612  -22.0735   39.2224 C   0  0  0  0  0  0  0  0  0  0  0  0
   42.8165  -23.8372   40.3365 C   0  0  0  0  0  0  0  0  0  0  0  0
   42.8468  -23.4058   41.5331 O   0  0  0  0  0  0  0  0  0  0  0  0
   43.4545  -25.0462   40.0971 O   0  0  0  0  0  0  0  0  0  0  0  0
   44.8596  -25.1175   40.1597 C   0  0  0  0  0  0  0  0  0  0  0  0
   45.2473  -25.7467   41.4436 C   0  0  0  0  0  0  0  0  0  0  0  0
   44.7287  -26.9743   41.7622 C   0  0  0  0  0  0  0  0  0  0  0  0
   45.0852  -27.5689   42.9593 C   0  0  0  0  0  0  0  0  0  0  0  0
   45.9462  -26.9320   43.8093 C   0  0  0  0  0  0  0  0  0  0  0  0
   46.4541  -25.7022   43.4700 C   0  0  0  0  0  0  0  0  0  0  0  0
   46.1166  -25.0799   42.2785 C   0  0  0  0  0  0  0  0  0  0  0  0
   34.8074  -14.5205   36.9538 C   0  0  0  0  0  0  0  0  0  0  0  0
   35.9642  -14.6200   37.6888 C   0  0  0  0  0  0  0  0  0  0  0  0
   36.7009  -15.7974   37.6700 C   0  0  0  0  0  0  0  0  0  0  0  0
   36.3124  -16.9034   36.9252 C   0  0  0  0  0  0  0  0  0  0  0  0
   35.1479  -16.7710   36.1993 C   0  0  0  0  0  0  0  0  0  0  0  0
   34.4004  -15.5904   36.2125 C   0  0  0  0  0  0  0  0  0  0  0  0
   32.4610  -13.1991   35.9590 N   0  0  0  0  0  0  0  0  0  0  0  0
   33.8540  -13.0603   36.9478 S   0  0  0  0  0  0  0  0  0  0  0  0
   34.7317  -11.9496   36.4029 O   0  0  0  0  0  0  0  0  0  0  0  0
   33.4936  -12.7480   38.3806 O   0  0  0  0  0  0  0  0  0  0  0  0
   32.7721  -13.1118   34.9619 H   0  0  0  0  0  0  0  0  0  0  0  0
   32.0059  -14.1150   36.0812 H   0  0  0  0  0  0  0  0  0  0  0  0
 31 32  1  0  0  0
 32 33  2  0  0  0
 32 34  2  0  0  0
 32 25  1  0  0  0
 25 26  2  0  0  0
 26 27  1  0  0  0
 27 28  2  0  0  0
 28 29  1  0  0  0
 29 30  2  0  0  0
 28  1  1  0  0  0
  1  2  2  0  0  0
  2  3  1  0  0  0
  3  4  2  0  0  0
  4  5  1  0  0  0
  5  6  2  0  0  0
  4  7  1  0  0  0
  7  8  2  0  0  0
  7  9  1  0  0  0
  9 10  1  0  0  0
 10 11  1  0  0  0
 11 12  1  0  0  0
 12 13  1  0  0  0
 13 14  1  0  0  0
 12 15  1  0  0  0
 15 16  2  0  0  0
 15 17  1  0  0  0
 17 18  1  0  0  0
 18 19  1  0  0  0
 19 20  2  0  0  0
 20 21  1  0  0  0
 21 22  2  0  0  0
 22 23  1  0  0  0
 23 24  2  0  0  0
 30 25  1  0  0  0
  6  1  1  0  0  0
 14  9  1  0  0  0
 24 19  1  0  0  0
 31 35  1  0  0  0
 31 36  1  0  0  0
M  END
> <minimizedAffinity>
-5.80064

> <CNNscore>
0.4938598573

> <CNNaffinity>
4.8049364090

> <CNN_VS>
2.3729650974

> <CNNaffinity_variance>
0.1954808235

$$$$
[H]c1c([H])c([H])c(C([H])([H])OC(=O)N2C([H])([H])C([H])([H])N(C(=O)c3c([H])c([H])c(-c4c([H])c([H])c(S(=O)(=O)N([H])[H])c([H])c4[H])c([H])c3[H])C([H])([H])C2([H])[H])c([H])c1[H]


 36 39  0  0  0  0  0  0  0  0999 V2000
   40.6048  -19.7439   37.4887 C   0  0  0  0  0  0  0  0  0  0  0  0
   39.3376  -19.7781   36.9302 C   0  0  0  0  0  0  0  0  0  0  0  0
   38.3709  -20.6327   37.3182 C   0  0  0  0  0  0  0  0  0  0  0  0
   38.6011  -21.5662   38.3430 C   0  0  0  0  0  0  0  0  0  0  0  0
   39.8414  -21.5643   38.9172 C   0  0  0  0  0  0  0  0  0  0  0  0
   40.8302  -20.6573   38.4896 C   0  0  0  0  0  0  0  0  0  0  0  0
   37.5675  -22.5224   38.6632 C   0  0  0  0  0  0  0  0  0  0  0  0
   37.7126  -23.6949   38.0572 O   0  0  0  0  0  0  0  0  0  0  0  0
   36.4849  -22.3586   39.4957 N   0  0  0  0  0  0  0  0  0  0  0  0
   35.6391  -23.5730   39.7338 C   0  0  0  0  0  0  0  0  0  0  0  0
   35.4053  -23.7120   41.2209 C   0  0  0  0  0  0  0  0  0  0  0  0
   35.0866  -22.4522   41.8116 N   0  0  0  0  0  0  0  0  0  0  0  0
   35.9611  -21.3215   41.6216 C   0  0  0  0  0  0  0  0  0  0  0  0
   36.0206  -21.1521   40.0890 C   0  0  0  0  0  0  0  0  0  0  0  0
   33.9217  -22.2974   42.5843 C   0  0  0  0  0  0  0  0  0  0  0  0
   33.6245  -21.1779   43.1109 O   0  0  0  0  0  0  0  0  0  0  0  0
   33.0401  -23.3443   42.8143 O   0  0  0  0  0  0  0  0  0  0  0  0
   31.7634  -23.3240   42.2204 C   0  0  0  0  0  0  0  0  0  0  0  0
   31.7787  -24.2045   41.0292 C   0  0  0  0  0  0  0  0  0  0  0  0
   31.8948  -25.5580   41.2083 C   0  0  0  0  0  0  0  0  0  0  0  0
   31.9102  -26.3876   40.1014 C   0  0  0  0  0  0  0  0  0  0  0  0
   31.8101  -25.8547   38.8461 C   0  0  0  0  0  0  0  0  0  0  0  0
   31.6946  -24.4955   38.6898 C   0  0  0  0  0  0  0  0  0  0  0  0
   31.6761  -23.6375   39.7781 C   0  0  0  0  0  0  0  0  0  0  0  0
   43.6216  -17.0088   36.2108 C   0  0  0  0  0  0  0  0  0  0  0  0
   42.6556  -17.4393   35.3334 C   0  0  0  0  0  0  0  0  0  0  0  0
   41.6769  -18.3287   35.7582 C   0  0  0  0  0  0  0  0  0  0  0  0
   41.6296  -18.8134   37.0588 C   0  0  0  0  0  0  0  0  0  0  0  0
   42.6125  -18.3622   37.9137 C   0  0  0  0  0  0  0  0  0  0  0  0
   43.6009  -17.4676   37.4950 C   0  0  0  0  0  0  0  0  0  0  0  0
   46.4286  -16.5952   35.7734 N   0  0  0  0  0  0  0  0  0  0  0  0
   44.8669  -15.8912   35.7193 S   0  0  0  0  0  0  0  0  0  0  0  0
   44.8259  -14.7178   36.6797 O   0  0  0  0  0  0  0  0  0  0  0  0
   44.5198  -15.4070   34.3318 O   0  0  0  0  0  0  0  0  0  0  0  0
   46.7245  -16.6290   36.7784 H   0  0  0  0  0  0  0  0  0  0  0  0
   46.4183  -17.5560   35.4025 H   0  0  0  0  0  0  0  0  0  0  0  0
 31 32  1  0  0  0
 32 33  2  0  0  0
 32 34  2  0  0  0
 32 25  1  0  0  0
 25 26  2  0  0  0
 26 27  1  0  0  0
 27 28  2  0  0  0
 28 29  1  0  0  0
 29 30  2  0  0  0
 28  1  1  0  0  0
  1  2  2  0  0  0
  2  3  1  0  0  0
  3  4  2  0  0  0
  4  5  1  0  0  0
  5  6  2  0  0  0
  4  7  1  0  0  0
  7  8  2  0  0  0
  7  9  1  0  0  0
  9 10  1  0  0  0
 10 11  1  0  0  0
 11 12  1  0  0  0
 12 13  1  0  0  0
 13 14  1  0  0  0
 12 15  1  0  0  0
 15 16  2  0  0  0
 15 17  1  0  0  0
 17 18  1  0  0  0
 18 19  1  0  0  0
 19 20  2  0  0  0
 20 21  1  0  0  0
 21 22  2  0  0  0
 22 23  1  0  0  0
 23 24  2  0  0  0
 30 25  1  0  0  0
  6  1  1  0  0  0
 14  9  1  0  0  0
 24 19  1  0  0  0
 31 35  1  0  0  0
 31 36  1  0  0  0
M  END
> <minimizedAffinity>
-4.17789

> <CNNscore>
0.4926264882

> <CNNaffinity>
4.6930832863

> <CNN_VS>
2.3119370937

> <CNNaffinity_variance>
0.0729345158

$$$$
[H]c1c([H])c([H])c(C([H])([H])OC(=O)N2C([H])([H])C([H])([H])N(C(=O)c3c([H])c([H])c(-c4c([H])c([H])c(S(=O)(=O)N([H])[H])c([H])c4[H])c([H])c3[H])C([H])([H])C2([H])[H])c([H])c1[H]


 36 39  0  0  0  0  0  0  0  0999 V2000
   39.3488  -20.6662   36.7343 C   0  0  0  0  0  0  0  0  0  0  0  0
   38.3171  -20.4846   37.6408 C   0  0  0  0  0  0  0  0  0  0  0  0
   37.3376  -21.3855   37.8511 C   0  0  0  0  0  0  0  0  0  0  0  0
   37.3065  -22.5975   37.1407 C   0  0  0  0  0  0  0  0  0  0  0  0
   38.3073  -22.8118   36.2349 C   0  0  0  0  0  0  0  0  0  0  0  0
   39.3176  -21.8505   36.0389 C   0  0  0  0  0  0  0  0  0  0  0  0
   36.1891  -23.4919   37.3320 C   0  0  0  0  0  0  0  0  0  0  0  0
   36.5366  -24.7093   37.7321 O   0  0  0  0  0  0  0  0  0  0  0  0
   34.8507  -23.2326   37.1496 N   0  0  0  0  0  0  0  0  0  0  0  0
   33.9019  -24.3239   37.5445 C   0  0  0  0  0  0  0  0  0  0  0  0
   32.8054  -23.7233   38.3946 C   0  0  0  0  0  0  0  0  0  0  0  0
   32.3398  -22.4932   37.8399 N   0  0  0  0  0  0  0  0  0  0  0  0
   33.2728  -21.4358   37.5386 C   0  0  0  0  0  0  0  0  0  0  0  0
   34.2625  -22.0853   36.5487 C   0  0  0  0  0  0  0  0  0  0  0  0
   30.9713  -22.2959   37.5822 C   0  0  0  0  0  0  0  0  0  0  0  0
   30.5455  -21.2059   37.0828 O   0  0  0  0  0  0  0  0  0  0  0  0
   30.0181  -23.2670   37.8548 O   0  0  0  0  0  0  0  0  0  0  0  0
   29.3092  -23.2263   39.0709 C   0  0  0  0  0  0  0  0  0  0  0  0
   28.4036  -24.3970   39.1333 C   0  0  0  0  0  0  0  0  0  0  0  0
   28.3296  -25.2348   38.0516 C   0  0  0  0  0  0  0  0  0  0  0  0
   27.4863  -26.3302   38.1014 C   0  0  0  0  0  0  0  0  0  0  0  0
   26.7384  -26.5671   39.2213 C   0  0  0  0  0  0  0  0  0  0  0  0
   26.8281  -25.7145   40.2938 C   0  0  0  0  0  0  0  0  0  0  0  0
   27.6633  -24.6085   40.2754 C   0  0  0  0  0  0  0  0  0  0  0  0
   42.4324  -17.7827   36.1090 C   0  0  0  0  0  0  0  0  0  0  0  0
   41.6851  -18.2429   35.0517 C   0  0  0  0  0  0  0  0  0  0  0  0
   40.6827  -19.1806   35.2645 C   0  0  0  0  0  0  0  0  0  0  0  0
   40.3953  -19.6854   36.5260 C   0  0  0  0  0  0  0  0  0  0  0  0
   41.1629  -19.2035   37.5649 C   0  0  0  0  0  0  0  0  0  0  0  0
   42.1733  -18.2603   37.3599 C   0  0  0  0  0  0  0  0  0  0  0  0
   43.4976  -15.7011   34.4435 N   0  0  0  0  0  0  0  0  0  0  0  0
   43.6987  -16.6044   35.8860 S   0  0  0  0  0  0  0  0  0  0  0  0
   45.0115  -17.3606   35.8104 O   0  0  0  0  0  0  0  0  0  0  0  0
   43.7100  -15.7146   37.1059 O   0  0  0  0  0  0  0  0  0  0  0  0
   43.7959  -16.3113   33.6452 H   0  0  0  0  0  0  0  0  0  0  0  0
   42.5122  -15.4362   34.3029 H   0  0  0  0  0  0  0  0  0  0  0  0
 31 32  1  0  0  0
 32 33  2  0  0  0
 32 34  2  0  0  0
 32 25  1  0  0  0
 25 26  2  0  0  0
 26 27  1  0  0  0
 27 28  2  0  0  0
 28 29  1  0  0  0
 29 30  2  0  0  0
 28  1  1  0  0  0
  1  2  2  0  0  0
  2  3  1  0  0  0
  3  4  2  0  0  0
  4  5  1  0  0  0
  5  6  2  0  0  0
  4  7  1  0  0  0
  7  8  2  0  0  0
  7  9  1  0  0  0
  9 10  1  0  0  0
 10 11  1  0  0  0
 11 12  1  0  0  0
 12 13  1  0  0  0
 13 14  1  0  0  0
 12 15  1  0  0  0
 15 16  2  0  0  0
 15 17  1  0  0  0
 17 18  1  0  0  0
 18 19  1  0  0  0
 19 20  2  0  0  0
 20 21  1  0  0  0
 21 22  2  0  0  0
 22 23  1  0  0  0
 23 24  2  0  0  0
 30 25  1  0  0  0
  6  1  1  0  0  0
 14  9  1  0  0  0
 24 19  1  0  0  0
 31 35  1  0  0  0
 31 36  1  0  0  0
M  END
> <minimizedAffinity>
-4.54064

> <CNNscore>
0.4767142236

> <CNNaffinity>
4.5255775452

> <CNN_VS>
2.1574072838

> <CNNaffinity_variance>
0.1541450769

$$$$
[H]c1c([H])c([H])c(C([H])([H])OC(=O)N2C([H])([H])C([H])([H])N(C(=O)c3c([H])c([H])c(-c4c([H])c([H])c(S(=O)(=O)N([H])[H])c([H])c4[H])c([H])c3[H])C([H])([H])C2([H])[H])c([H])c1[H]


 36 39  0  0  0  0  0  0  0  0999 V2000
   41.0552  -22.3540   34.2457 C   0  0  0  0  0  0  0  0  0  0  0  0
   41.2850  -21.1415   34.8751 C   0  0  0  0  0  0  0  0  0  0  0  0
   40.3241  -20.4200   35.4846 C   0  0  0  0  0  0  0  0  0  0  0  0
   38.9937  -20.8709   35.5170 C   0  0  0  0  0  0  0  0  0  0  0  0
   38.7272  -22.0631   34.9041 C   0  0  0  0  0  0  0  0  0  0  0  0
   39.7543  -22.7941   34.2764 C   0  0  0  0  0  0  0  0  0  0  0  0
   37.9816  -20.0223   36.1009 C   0  0  0  0  0  0  0  0  0  0  0  0
   37.4870  -19.1194   35.2624 O   0  0  0  0  0  0  0  0  0  0  0  0
   37.4915  -20.0430   37.3859 N   0  0  0  0  0  0  0  0  0  0  0  0
   36.3492  -19.1171   37.6771 C   0  0  0  0  0  0  0  0  0  0  0  0
   35.2708  -19.8954   38.3959 C   0  0  0  0  0  0  0  0  0  0  0  0
   35.8289  -20.7341   39.4072 N   0  0  0  0  0  0  0  0  0  0  0  0
   36.8786  -21.6660   39.0769 C   0  0  0  0  0  0  0  0  0  0  0  0
   37.9965  -20.7748   38.4962 C   0  0  0  0  0  0  0  0  0  0  0  0
   35.3641  -20.6645   40.7328 C   0  0  0  0  0  0  0  0  0  0  0  0
   35.8580  -21.4031   41.6436 O   0  0  0  0  0  0  0  0  0  0  0  0
   34.3521  -19.7969   41.1190 O   0  0  0  0  0  0  0  0  0  0  0  0
   34.4816  -19.0624   42.3135 C   0  0  0  0  0  0  0  0  0  0  0  0
   33.3435  -19.3943   43.2019 C   0  0  0  0  0  0  0  0  0  0  0  0
   33.4441  -20.4831   44.0275 C   0  0  0  0  0  0  0  0  0  0  0  0
   32.3858  -20.8003   44.8601 C   0  0  0  0  0  0  0  0  0  0  0  0
   31.2558  -20.0306   44.8530 C   0  0  0  0  0  0  0  0  0  0  0  0
   31.1763  -18.9439   44.0176 C   0  0  0  0  0  0  0  0  0  0  0  0
   32.2188  -18.5996   43.1716 C   0  0  0  0  0  0  0  0  0  0  0  0
   44.1364  -24.6082   32.3381 C   0  0  0  0  0  0  0  0  0  0  0  0
   42.8335  -24.7129   31.9143 C   0  0  0  0  0  0  0  0  0  0  0  0
   41.8371  -23.9747   32.5402 C   0  0  0  0  0  0  0  0  0  0  0  0
   42.1045  -23.1164   33.5988 C   0  0  0  0  0  0  0  0  0  0  0  0
   43.4210  -23.0342   33.9996 C   0  0  0  0  0  0  0  0  0  0  0  0
   44.4296  -23.7732   33.3758 C   0  0  0  0  0  0  0  0  0  0  0  0
   46.4966  -24.5091   30.7068 N   0  0  0  0  0  0  0  0  0  0  0  0
   45.4177  -25.5155   31.5788 S   0  0  0  0  0  0  0  0  0  0  0  0
   44.7705  -26.4906   30.6138 O   0  0  0  0  0  0  0  0  0  0  0  0
   46.1284  -26.2905   32.6625 O   0  0  0  0  0  0  0  0  0  0  0  0
   46.0249  -24.2442   29.8091 H   0  0  0  0  0  0  0  0  0  0  0  0
   46.7107  -23.6485   31.2307 H   0  0  0  0  0  0  0  0  0  0  0  0
 31 32  1  0  0  0
 32 33  2  0  0  0
 32 34  2  0  0  0
 32 25  1  0  0  0
 25 26  2  0  0  0
 26 27  1  0  0  0
 27 28  2  0  0  0
 28 29  1  0  0  0
 29 30  2  0  0  0
 28  1  1  0  0  0
  1  2  2  0  0  0
  2  3  1  0  0  0
  3  4  2  0  0  0
  4  5  1  0  0  0
  5  6  2  0  0  0
  4  7  1  0  0  0
  7  8  2  0  0  0
  7  9  1  0  0  0
  9 10  1  0  0  0
 10 11  1  0  0  0
 11 12  1  0  0  0
 12 13  1  0  0  0
 13 14  1  0  0  0
 12 15  1  0  0  0
 15 16  2  0  0  0
 15 17  1  0  0  0
 17 18  1  0  0  0
 18 19  1  0  0  0
 19 20  2  0  0  0
 20 21  1  0  0  0
 21 22  2  0  0  0
 22 23  1  0  0  0
 23 24  2  0  0  0
 30 25  1  0  0  0
  6  1  1  0  0  0
 14  9  1  0  0  0
 24 19  1  0  0  0
 31 35  1  0  0  0
 31 36  1  0  0  0
M  END
> <minimizedAffinity>
-3.97457

> <CNNscore>
0.4667939842

> <CNNaffinity>
4.4174246788

> <CNN_VS>
2.0620272160

> <CNNaffinity_variance>
0.1036117524

$$$$
[H]c1c([H])c([H])c(C([H])([H])OC(=O)N2C([H])([H])C([H])([H])N(C(=O)c3c([H])c([H])c(-c4c([H])c([H])c(S(=O)(=O)N([H])[H])c([H])c4[H])c([H])c3[H])C([H])([H])C2([H])[H])c([H])c1[H]


 36 39  0  0  0  0  0  0  0  0999 V2000
   35.5322  -14.1162   36.7456 C   0  0  0  0  0  0  0  0  0  0  0  0
   36.5106  -14.5709   37.6146 C   0  0  0  0  0  0  0  0  0  0  0  0
   36.7839  -15.8744   37.8188 C   0  0  0  0  0  0  0  0  0  0  0  0
   36.0697  -16.8768   37.1410 C   0  0  0  0  0  0  0  0  0  0  0  0
   35.0939  -16.4668   36.2762 C   0  0  0  0  0  0  0  0  0  0  0  0
   34.8331  -15.0963   36.0840 C   0  0  0  0  0  0  0  0  0  0  0  0
   36.3338  -18.2604   37.4588 C   0  0  0  0  0  0  0  0  0  0  0  0
   35.3943  -18.8301   38.2044 O   0  0  0  0  0  0  0  0  0  0  0  0
   37.4147  -19.0269   37.0900 N   0  0  0  0  0  0  0  0  0  0  0  0
   37.3613  -20.4769   37.4663 C   0  0  0  0  0  0  0  0  0  0  0  0
   37.7197  -21.3023   36.2515 C   0  0  0  0  0  0  0  0  0  0  0  0
   38.8436  -20.7492   35.5670 N   0  0  0  0  0  0  0  0  0  0  0  0
   38.8320  -19.3674   35.1548 C   0  0  0  0  0  0  0  0  0  0  0  0
   38.6181  -18.5898   36.4704 C   0  0  0  0  0  0  0  0  0  0  0  0
   39.9715  -21.5406   35.2852 C   0  0  0  0  0  0  0  0  0  0  0  0
   40.9813  -21.0569   34.6808 O   0  0  0  0  0  0  0  0  0  0  0  0
   40.0471  -22.8787   35.6458 O   0  0  0  0  0  0  0  0  0  0  0  0
   40.7660  -23.2507   36.7981 C   0  0  0  0  0  0  0  0  0  0  0  0
   40.0103  -24.3075   37.5099 C   0  0  0  0  0  0  0  0  0  0  0  0
   40.2620  -24.5193   38.8400 C   0  0  0  0  0  0  0  0  0  0  0  0
   39.5610  -25.5044   39.5122 C   0  0  0  0  0  0  0  0  0  0  0  0
   38.6291  -26.2538   38.8493 C   0  0  0  0  0  0  0  0  0  0  0  0
   38.3928  -26.0247   37.5163 C   0  0  0  0  0  0  0  0  0  0  0  0
   39.0781  -25.0456   36.8144 C   0  0  0  0  0  0  0  0  0  0  0  0
   34.7333   -9.9692   36.1307 C   0  0  0  0  0  0  0  0  0  0  0  0
   35.7650  -10.5855   35.4644 C   0  0  0  0  0  0  0  0  0  0  0  0
   36.0172  -11.9359   35.6697 C   0  0  0  0  0  0  0  0  0  0  0  0
   35.2566  -12.7086   36.5376 C   0  0  0  0  0  0  0  0  0  0  0  0
   34.2297  -12.0605   37.1903 C   0  0  0  0  0  0  0  0  0  0  0  0
   33.9689  -10.7024   36.9898 C   0  0  0  0  0  0  0  0  0  0  0  0
   33.8497   -7.9356   34.3072 N   0  0  0  0  0  0  0  0  0  0  0  0
   34.3813   -8.2767   35.9004 S   0  0  0  0  0  0  0  0  0  0  0  0
   35.6627   -7.5087   36.1633 O   0  0  0  0  0  0  0  0  0  0  0  0
   33.3492   -7.8839   36.9303 O   0  0  0  0  0  0  0  0  0  0  0  0
   34.6935   -7.9411   33.6853 H   0  0  0  0  0  0  0  0  0  0  0  0
   33.1907   -8.6525   33.9717 H   0  0  0  0  0  0  0  0  0  0  0  0
 31 32  1  0  0  0
 32 33  2  0  0  0
 32 34  2  0  0  0
 32 25  1  0  0  0
 25 26  2  0  0  0
 26 27  1  0  0  0
 27 28  2  0  0  0
 28 29  1  0  0  0
 29 30  2  0  0  0
 28  1  1  0  0  0
  1  2  2  0  0  0
  2  3  1  0  0  0
  3  4  2  0  0  0
  4  5  1  0  0  0
  5  6  2  0  0  0
  4  7  1  0  0  0
  7  8  2  0  0  0
  7  9  1  0  0  0
  9 10  1  0  0  0
 10 11  1  0  0  0
 11 12  1  0  0  0
 12 13  1  0  0  0
 13 14  1  0  0  0
 12 15  1  0  0  0
 15 16  2  0  0  0
 15 17  1  0  0  0
 17 18  1  0  0  0
 18 19  1  0  0  0
 19 20  2  0  0  0
 20 21  1  0  0  0
 21 22  2  0  0  0
 22 23  1  0  0  0
 23 24  2  0  0  0
 30 25  1  0  0  0
  6  1  1  0  0  0
 14  9  1  0  0  0
 24 19  1  0  0  0
 31 35  1  0  0  0
 31 36  1  0  0  0
M  END
> <minimizedAffinity>
-5.82733

> <CNNscore>
0.4455384314

> <CNNaffinity>
5.1091737747

> <CNN_VS>
2.2763333321

> <CNNaffinity_variance>
0.1630183756

$$$$
[H]c1c([H])c([H])c(C([H])([H])OC(=O)N2C([H])([H])C([H])([H])N(C(=O)c3c([H])c([H])c(-c4c([H])c([H])c(S(=O)(=O)N([H])[H])c([H])c4[H])c([H])c3[H])C([H])([H])C2([H])[H])c([H])c1[H]


 36 39  0  0  0  0  0  0  0  0999 V2000
   35.5481  -13.9935   36.7430 C   0  0  0  0  0  0  0  0  0  0  0  0
   36.5251  -14.4400   37.6178 C   0  0  0  0  0  0  0  0  0  0  0  0
   36.8063  -15.7412   37.8256 C   0  0  0  0  0  0  0  0  0  0  0  0
   36.1025  -16.7496   37.1457 C   0  0  0  0  0  0  0  0  0  0  0  0
   35.1284  -16.3477   36.2752 C   0  0  0  0  0  0  0  0  0  0  0  0
   34.8592  -14.9794   36.0794 C   0  0  0  0  0  0  0  0  0  0  0  0
   36.3745  -18.1308   37.4672 C   0  0  0  0  0  0  0  0  0  0  0  0
   35.5122  -18.6637   38.3250 O   0  0  0  0  0  0  0  0  0  0  0  0
   37.3941  -18.9281   37.0017 N   0  0  0  0  0  0  0  0  0  0  0  0
   37.3557  -20.3677   37.4176 C   0  0  0  0  0  0  0  0  0  0  0  0
   37.5635  -21.2279   36.1920 C   0  0  0  0  0  0  0  0  0  0  0  0
   38.6153  -20.7142   35.3751 N   0  0  0  0  0  0  0  0  0  0  0  0
   38.5840  -19.3423   34.9323 C   0  0  0  0  0  0  0  0  0  0  0  0
   38.5301  -18.5305   36.2436 C   0  0  0  0  0  0  0  0  0  0  0  0
   39.6908  -21.5354   34.9916 C   0  0  0  0  0  0  0  0  0  0  0  0
   40.6368  -21.0868   34.2685 O   0  0  0  0  0  0  0  0  0  0  0  0
   39.7810  -22.8661   35.3750 O   0  0  0  0  0  0  0  0  0  0  0  0
   40.6827  -23.2397   36.3900 C   0  0  0  0  0  0  0  0  0  0  0  0
   41.4579  -24.4150   35.9291 C   0  0  0  0  0  0  0  0  0  0  0  0
   41.3792  -24.7844   34.6120 C   0  0  0  0  0  0  0  0  0  0  0  0
   42.0996  -25.8809   34.1732 C   0  0  0  0  0  0  0  0  0  0  0  0
   42.8789  -26.5826   35.0505 C   0  0  0  0  0  0  0  0  0  0  0  0
   42.9431  -26.1949   36.3661 C   0  0  0  0  0  0  0  0  0  0  0  0
   42.2337  -25.1012   36.8371 C   0  0  0  0  0  0  0  0  0  0  0  0
   34.6988   -9.8574   36.1215 C   0  0  0  0  0  0  0  0  0  0  0  0
   33.9140  -10.6105   36.9612 C   0  0  0  0  0  0  0  0  0  0  0  0
   34.1983  -11.9558   37.1585 C   0  0  0  0  0  0  0  0  0  0  0  0
   35.2639  -12.5881   36.5313 C   0  0  0  0  0  0  0  0  0  0  0  0
   36.0314  -11.8050   35.6957 C   0  0  0  0  0  0  0  0  0  0  0  0
   35.7526  -10.4511   35.4913 C   0  0  0  0  0  0  0  0  0  0  0  0
   33.8799   -7.8517   34.2379 N   0  0  0  0  0  0  0  0  0  0  0  0
   34.3781   -8.1653   35.8475 S   0  0  0  0  0  0  0  0  0  0  0  0
   35.6669   -7.4117   36.1161 O   0  0  0  0  0  0  0  0  0  0  0  0
   33.3346   -7.7333   36.8499 O   0  0  0  0  0  0  0  0  0  0  0  0
   34.7342   -7.8844   33.6314 H   0  0  0  0  0  0  0  0  0  0  0  0
   33.2155   -8.5656   33.9067 H   0  0  0  0  0  0  0  0  0  0  0  0
 31 32  1  0  0  0
 32 33  2  0  0  0
 32 34  2  0  0  0
 32 25  1  0  0  0
 25 26  2  0  0  0
 26 27  1  0  0  0
 27 28  2  0  0  0
 28 29  1  0  0  0
 29 30  2  0  0  0
 28  1  1  0  0  0
  1  2  2  0  0  0
  2  3  1  0  0  0
  3  4  2  0  0  0
  4  5  1  0  0  0
  5  6  2  0  0  0
  4  7  1  0  0  0
  7  8  2  0  0  0
  7  9  1  0  0  0
  9 10  1  0  0  0
 10 11  1  0  0  0
 11 12  1  0  0  0
 12 13  1  0  0  0
 13 14  1  0  0  0
 12 15  1  0  0  0
 15 16  2  0  0  0
 15 17  1  0  0  0
 17 18  1  0  0  0
 18 19  1  0  0  0
 19 20  2  0  0  0
 20 21  1  0  0  0
 21 22  2  0  0  0
 22 23  1  0  0  0
 23 24  2  0  0  0
 30 25  1  0  0  0
  6  1  1  0  0  0
 14  9  1  0  0  0
 24 19  1  0  0  0
 31 35  1  0  0  0
 31 36  1  0  0  0
M  END
> <minimizedAffinity>
-5.95025

> <CNNscore>
0.4394721687

> <CNNaffinity>
5.1203389168

> <CNN_VS>
2.2502465248

> <CNNaffinity_variance>
0.1834618300

$$$$
[H]c1c([H])c([H])c(C([H])([H])OC(=O)N2C([H])([H])C([H])([H])N(C(=O)c3c([H])c([H])c(-c4c([H])c([H])c(S(=O)(=O)N([H])[H])c([H])c4[H])c([H])c3[H])C([H])([H])C2([H])[H])c([H])c1[H]


 36 39  0  0  0  0  0  0  0  0999 V2000
   39.5010  -19.7466   36.9535 C   0  0  0  0  0  0  0  0  0  0  0  0
   39.3447  -20.6075   38.0276 C   0  0  0  0  0  0  0  0  0  0  0  0
   38.1846  -21.2209   38.3331 C   0  0  0  0  0  0  0  0  0  0  0  0
   37.0324  -21.0154   37.5555 C   0  0  0  0  0  0  0  0  0  0  0  0
   37.1470  -20.1699   36.4878 C   0  0  0  0  0  0  0  0  0  0  0  0
   38.3742  -19.5447   36.1942 C   0  0  0  0  0  0  0  0  0  0  0  0
   35.7897  -21.6207   37.9730 C   0  0  0  0  0  0  0  0  0  0  0  0
   35.4613  -22.7064   37.2827 O   0  0  0  0  0  0  0  0  0  0  0  0
   34.9361  -21.2103   38.9704 N   0  0  0  0  0  0  0  0  0  0  0  0
   33.7732  -22.1100   39.2626 C   0  0  0  0  0  0  0  0  0  0  0  0
   33.6956  -22.3254   40.7569 C   0  0  0  0  0  0  0  0  0  0  0  0
   33.8886  -21.1006   41.4640 N   0  0  0  0  0  0  0  0  0  0  0  0
   35.0566  -20.2941   41.2100 C   0  0  0  0  0  0  0  0  0  0  0  0
   34.9756  -19.9896   39.6993 C   0  0  0  0  0  0  0  0  0  0  0  0
   32.9475  -20.6661   42.4146 C   0  0  0  0  0  0  0  0  0  0  0  0
   33.1061  -19.5734   43.0468 O   0  0  0  0  0  0  0  0  0  0  0  0
   31.8055  -21.3956   42.7144 O   0  0  0  0  0  0  0  0  0  0  0  0
   30.8737  -20.8839   43.6380 C   0  0  0  0  0  0  0  0  0  0  0  0
   29.7863  -21.8743   43.8151 C   0  0  0  0  0  0  0  0  0  0  0  0
   29.7602  -22.6312   44.9570 C   0  0  0  0  0  0  0  0  0  0  0  0
   28.7484  -23.5585   45.1304 C   0  0  0  0  0  0  0  0  0  0  0  0
   27.7891  -23.7118   44.1682 C   0  0  0  0  0  0  0  0  0  0  0  0
   27.8346  -22.9427   43.0316 C   0  0  0  0  0  0  0  0  0  0  0  0
   28.8348  -22.0051   42.8278 C   0  0  0  0  0  0  0  0  0  0  0  0
   43.2071  -17.8365   36.0421 C   0  0  0  0  0  0  0  0  0  0  0  0
   42.9154  -18.2102   37.3319 C   0  0  0  0  0  0  0  0  0  0  0  0
   41.7073  -18.8324   37.6193 C   0  0  0  0  0  0  0  0  0  0  0  0
   40.7595  -19.0997   36.6400 C   0  0  0  0  0  0  0  0  0  0  0  0
   41.0826  -18.7123   35.3570 C   0  0  0  0  0  0  0  0  0  0  0  0
   42.2955  -18.0858   35.0588 C   0  0  0  0  0  0  0  0  0  0  0  0
   44.7394  -15.4100   36.1181 N   0  0  0  0  0  0  0  0  0  0  0  0
   44.7127  -17.0549   35.6378 S   0  0  0  0  0  0  0  0  0  0  0  0
   44.8688  -17.1268   34.1306 O   0  0  0  0  0  0  0  0  0  0  0  0
   45.8229  -17.8453   36.2882 O   0  0  0  0  0  0  0  0  0  0  0  0
   44.1653  -14.8703   35.4269 H   0  0  0  0  0  0  0  0  0  0  0  0
   44.3264  -15.2873   37.0537 H   0  0  0  0  0  0  0  0  0  0  0  0
 31 32  1  0  0  0
 32 33  2  0  0  0
 32 34  2  0  0  0
 32 25  1  0  0  0
 25 26  2  0  0  0
 26 27  1  0  0  0
 27 28  2  0  0  0
 28 29  1  0  0  0
 29 30  2  0  0  0
 28  1  1  0  0  0
  1  2  2  0  0  0
  2  3  1  0  0  0
  3  4  2  0  0  0
  4  5  1  0  0  0
  5  6  2  0  0  0
  4  7  1  0  0  0
  7  8  2  0  0  0
  7  9  1  0  0  0
  9 10  1  0  0  0
 10 11  1  0  0  0
 11 12  1  0  0  0
 12 13  1  0  0  0
 13 14  1  0  0  0
 12 15  1  0  0  0
 15 16  2  0  0  0
 15 17  1  0  0  0
 17 18  1  0  0  0
 18 19  1  0  0  0
 19 20  2  0  0  0
 20 21  1  0  0  0
 21 22  2  0  0  0
 22 23  1  0  0  0
 23 24  2  0  0  0
 30 25  1  0  0  0
  6  1  1  0  0  0
 14  9  1  0  0  0
 24 19  1  0  0  0
 31 35  1  0  0  0
 31 36  1  0  0  0
M  END
> <minimizedAffinity>
-4.64170

> <CNNscore>
0.4233425260

> <CNNaffinity>
4.2817649841

> <CNN_VS>
1.8126531839

> <CNNaffinity_variance>
0.1238387227

$$$$
[H]c1c([H])c([H])c(C([H])([H])OC(=O)N2C([H])([H])C([H])([H])N(C(=O)c3c([H])c([H])c(-c4c([H])c([H])c(S(=O)(=O)N([H])[H])c([H])c4[H])c([H])c3[H])C([H])([H])C2([H])[H])c([H])c1[H]


 36 39  0  0  0  0  0  0  0  0999 V2000
   34.7607  -14.4772   37.0023 C   0  0  0  0  0  0  0  0  0  0  0  0
   35.8522  -14.7684   37.8042 C   0  0  0  0  0  0  0  0  0  0  0  0
   36.5444  -15.9224   37.7370 C   0  0  0  0  0  0  0  0  0  0  0  0
   36.1869  -16.9265   36.8214 C   0  0  0  0  0  0  0  0  0  0  0  0
   35.1128  -16.6765   36.0140 C   0  0  0  0  0  0  0  0  0  0  0  0
   34.4106  -15.4595   36.1081 C   0  0  0  0  0  0  0  0  0  0  0  0
   36.8992  -18.1824   36.8472 C   0  0  0  0  0  0  0  0  0  0  0  0
   38.0865  -18.1400   36.2541 O   0  0  0  0  0  0  0  0  0  0  0  0
   36.4973  -19.3775   37.3967 N   0  0  0  0  0  0  0  0  0  0  0  0
   37.5029  -20.4890   37.3796 C   0  0  0  0  0  0  0  0  0  0  0  0
   37.5638  -21.1035   38.7595 C   0  0  0  0  0  0  0  0  0  0  0  0
   36.2551  -21.2885   39.2986 N   0  0  0  0  0  0  0  0  0  0  0  0
   35.3366  -20.1790   39.3665 C   0  0  0  0  0  0  0  0  0  0  0  0
   35.2101  -19.7120   37.9011 C   0  0  0  0  0  0  0  0  0  0  0  0
   35.8459  -22.5488   39.7699 C   0  0  0  0  0  0  0  0  0  0  0  0
   34.6799  -22.7268   40.2472 O   0  0  0  0  0  0  0  0  0  0  0  0
   36.6803  -23.6575   39.7420 O   0  0  0  0  0  0  0  0  0  0  0  0
   36.4771  -24.6588   38.7730 C   0  0  0  0  0  0  0  0  0  0  0  0
   37.5586  -24.5714   37.7644 C   0  0  0  0  0  0  0  0  0  0  0  0
   37.2245  -24.3595   36.4525 C   0  0  0  0  0  0  0  0  0  0  0  0
   38.2281  -24.2769   35.5041 C   0  0  0  0  0  0  0  0  0  0  0  0
   39.5364  -24.4062   35.8800 C   0  0  0  0  0  0  0  0  0  0  0  0
   39.8486  -24.6182   37.2002 C   0  0  0  0  0  0  0  0  0  0  0  0
   38.8667  -24.7059   38.1744 C   0  0  0  0  0  0  0  0  0  0  0  0
   32.6254  -10.7910   37.2599 C   0  0  0  0  0  0  0  0  0  0  0  0
   33.9816  -10.7957   37.0385 C   0  0  0  0  0  0  0  0  0  0  0  0
   34.6684  -12.0001   36.9550 C   0  0  0  0  0  0  0  0  0  0  0  0
   34.0320  -13.2273   37.0882 C   0  0  0  0  0  0  0  0  0  0  0  0
   32.6718  -13.1880   37.3094 C   0  0  0  0  0  0  0  0  0  0  0  0
   31.9729  -11.9810   37.3949 C   0  0  0  0  0  0  0  0  0  0  0  0
   30.3454   -9.4501   38.3758 N   0  0  0  0  0  0  0  0  0  0  0  0
   31.7247   -9.3016   37.3695 S   0  0  0  0  0  0  0  0  0  0  0  0
   31.2706   -8.9439   35.9671 O   0  0  0  0  0  0  0  0  0  0  0  0
   32.6700   -8.2358   37.8702 O   0  0  0  0  0  0  0  0  0  0  0  0
   29.6115   -9.9634   37.8312 H   0  0  0  0  0  0  0  0  0  0  0  0
   30.5598   -9.9902   39.2263 H   0  0  0  0  0  0  0  0  0  0  0  0
 31 32  1  0  0  0
 32 33  2  0  0  0
 32 34  2  0  0  0
 32 25  1  0  0  0
 25 26  2  0  0  0
 26 27  1  0  0  0
 27 28  2  0  0  0
 28 29  1  0  0  0
 29 30  2  0  0  0
 28  1  1  0  0  0
  1  2  2  0  0  0
  2  3  1  0  0  0
  3  4  2  0  0  0
  4  5  1  0  0  0
  5  6  2  0  0  0
  4  7  1  0  0  0
  7  8  2  0  0  0
  7  9  1  0  0  0
  9 10  1  0  0  0
 10 11  1  0  0  0
 11 12  1  0  0  0
 12 13  1  0  0  0
 13 14  1  0  0  0
 12 15  1  0  0  0
 15 16  2  0  0  0
 15 17  1  0  0  0
 17 18  1  0  0  0
 18 19  1  0  0  0
 19 20  2  0  0  0
 20 21  1  0  0  0
 21 22  2  0  0  0
 22 23  1  0  0  0
 23 24  2  0  0  0
 30 25  1  0  0  0
  6  1  1  0  0  0
 14  9  1  0  0  0
 24 19  1  0  0  0
 31 35  1  0  0  0
 31 36  1  0  0  0
M  END
> <minimizedAffinity>
-5.37558

> <CNNscore>
0.4197975397

> <CNNaffinity>
4.9093570709

> <CNN_VS>
2.0609359741

> <CNNaffinity_variance>
0.2574923635

$$$$
[H]c1c([H])c(C#N)c([H])c(N([H])C(=O)c2c([H])c([H])c([H])c(C(F)(F)F)c2[H])c1[H]


 22 23  0  0  0  0  0  0  0  0999 V2000
   34.0761  -17.2352   35.7671 C   0  0  0  0  0  0  0  0  0  0  0  0
   35.3042  -17.3234   36.0356 O   0  0  0  0  0  0  0  0  0  0  0  0
   33.3749  -16.0452   35.8443 N   0  0  0  0  0  0  0  0  0  0  0  0
   32.3385  -16.0602   35.6095 H   0  0  0  0  0  0  0  0  0  0  0  0
   32.9586  -20.7934   35.7016 C   0  0  0  0  0  0  0  0  0  0  0  0
   32.3288  -20.8511   34.4844 C   0  0  0  0  0  0  0  0  0  0  0  0
   32.2572  -19.7359   33.6906 C   0  0  0  0  0  0  0  0  0  0  0  0
   32.8250  -18.5631   34.1298 C   0  0  0  0  0  0  0  0  0  0  0  0
   33.4637  -18.4944   35.3602 C   0  0  0  0  0  0  0  0  0  0  0  0
   33.5256  -19.6176   36.1413 C   0  0  0  0  0  0  0  0  0  0  0  0
   34.3515  -22.4304   36.5759 F   0  0  0  0  0  0  0  0  0  0  0  0
   33.0235  -22.0266   36.5126 C   0  0  0  0  0  0  0  0  0  0  0  0
   32.3389  -23.0209   35.8211 F   0  0  0  0  0  0  0  0  0  0  0  0
   32.5336  -21.8423   37.7595 F   0  0  0  0  0  0  0  0  0  0  0  0
   33.9245  -14.7981   36.2138 C   0  0  0  0  0  0  0  0  0  0  0  0
   33.2440  -13.6106   36.2668 C   0  0  0  0  0  0  0  0  0  0  0  0
   33.8607  -12.4013   36.6388 C   0  0  0  0  0  0  0  0  0  0  0  0
   35.1975  -12.3790   36.9692 C   0  0  0  0  0  0  0  0  0  0  0  0
   35.9205  -13.5555   36.9304 C   0  0  0  0  0  0  0  0  0  0  0  0
   35.2817  -14.7077   36.5636 C   0  0  0  0  0  0  0  0  0  0  0  0
   37.3405  -13.5292   37.2729 C   0  0  0  0  0  0  0  0  0  0  0  0
   38.4597  -13.4966   37.5636 N   0  0  0  0  0  0  0  0  0  0  0  0
 11 12  1  0  0  0
 12 13  1  0  0  0
 12 14  1  0  0  0
 12  5  1  0  0  0
  5  6  2  0  0  0
  6  7  1  0  0  0
  7  8  2  0  0  0
  8  9  1  0  0  0
  9 10  2  0  0  0
  9  1  1  0  0  0
  1  2  2  0  0  0
  1  3  1  0  0  0
  3 15  1  0  0  0
 15 16  2  0  0  0
 16 17  1  0  0  0
 17 18  2  0  0  0
 18 19  1  0  0  0
 19 20  2  0  0  0
 19 21  1  0  0  0
 21 22  3  0  0  0
 10  5  1  0  0  0
 20 15  1  0  0  0
  3  4  1  0  0  0
M  END
> <minimizedAffinity>
-6.76039

> <CNNscore>
0.7222868204

> <CNNaffinity>
4.4421620369

> <CNN_VS>
3.2085151672

> <CNNaffinity_variance>
0.3624074459

$$$$
[H]c1c([H])c(C#N)c([H])c(N([H])C(=O)c2c([H])c([H])c([H])c(C(F)(F)F)c2[H])c1[H]


 22 23  0  0  0  0  0  0  0  0999 V2000
   34.0480  -17.4966   35.7935 C   0  0  0  0  0  0  0  0  0  0  0  0
   35.0351  -17.7629   36.5303 O   0  0  0  0  0  0  0  0  0  0  0  0
   33.6339  -16.2026   35.5329 N   0  0  0  0  0  0  0  0  0  0  0  0
   32.7855  -16.0662   34.9077 H   0  0  0  0  0  0  0  0  0  0  0  0
   31.6901  -20.3359   35.2527 C   0  0  0  0  0  0  0  0  0  0  0  0
   32.2403  -20.9301   34.1456 C   0  0  0  0  0  0  0  0  0  0  0  0
   33.3677  -20.4054   33.5689 C   0  0  0  0  0  0  0  0  0  0  0  0
   33.9379  -19.2796   34.1150 C   0  0  0  0  0  0  0  0  0  0  0  0
   33.3883  -18.6707   35.2346 C   0  0  0  0  0  0  0  0  0  0  0  0
   32.2613  -19.2073   35.7981 C   0  0  0  0  0  0  0  0  0  0  0  0
   29.4953  -19.9759   35.9142 F   0  0  0  0  0  0  0  0  0  0  0  0
   30.4846  -20.9492   35.8471 C   0  0  0  0  0  0  0  0  0  0  0  0
   30.7920  -21.2938   37.1595 F   0  0  0  0  0  0  0  0  0  0  0  0
   30.0464  -22.0089   35.1304 F   0  0  0  0  0  0  0  0  0  0  0  0
   34.2487  -15.0340   36.0333 C   0  0  0  0  0  0  0  0  0  0  0  0
   35.5984  -14.8188   36.1237 C   0  0  0  0  0  0  0  0  0  0  0  0
   36.1415  -13.6278   36.6412 C   0  0  0  0  0  0  0  0  0  0  0  0
   35.3102  -12.6213   37.0799 C   0  0  0  0  0  0  0  0  0  0  0  0
   33.9420  -12.7971   37.0049 C   0  0  0  0  0  0  0  0  0  0  0  0
   33.4571  -13.9697   36.4951 C   0  0  0  0  0  0  0  0  0  0  0  0
   33.0611  -11.7322   37.4784 C   0  0  0  0  0  0  0  0  0  0  0  0
   32.3607  -10.9005   37.8734 N   0  0  0  0  0  0  0  0  0  0  0  0
 11 12  1  0  0  0
 12 13  1  0  0  0
 12 14  1  0  0  0
 12  5  1  0  0  0
  5  6  2  0  0  0
  6  7  1  0  0  0
  7  8  2  0  0  0
  8  9  1  0  0  0
  9 10  2  0  0  0
  9  1  1  0  0  0
  1  2  2  0  0  0
  1  3  1  0  0  0
  3 15  1  0  0  0
 15 16  2  0  0  0
 16 17  1  0  0  0
 17 18  2  0  0  0
 18 19  1  0  0  0
 19 20  2  0  0  0
 19 21  1  0  0  0
 21 22  3  0  0  0
 10  5  1  0  0  0
 20 15  1  0  0  0
  3  4  1  0  0  0
M  END
> <minimizedAffinity>
-6.67655

> <CNNscore>
0.7187626958

> <CNNaffinity>
4.3900809288

> <CNN_VS>
3.1554265022

> <CNNaffinity_variance>
0.4868083894

$$$$
[H]c1c([H])c(C#N)c([H])c(N([H])C(=O)c2c([H])c([H])c([H])c(C(F)(F)F)c2[H])c1[H]


 22 23  0  0  0  0  0  0  0  0999 V2000
   34.5188  -16.7210   35.9622 C   0  0  0  0  0  0  0  0  0  0  0  0
   35.1801  -17.6179   36.5509 O   0  0  0  0  0  0  0  0  0  0  0  0
   33.4574  -17.0019   35.1206 N   0  0  0  0  0  0  0  0  0  0  0  0
   32.9588  -16.1863   34.6563 H   0  0  0  0  0  0  0  0  0  0  0  0
   36.6183  -13.7956   36.9358 C   0  0  0  0  0  0  0  0  0  0  0  0
   35.7081  -12.7736   36.8433 C   0  0  0  0  0  0  0  0  0  0  0  0
   34.4186  -13.0305   36.4558 C   0  0  0  0  0  0  0  0  0  0  0  0
   34.0515  -14.3230   36.1636 C   0  0  0  0  0  0  0  0  0  0  0  0
   34.9654  -15.3639   36.2535 C   0  0  0  0  0  0  0  0  0  0  0  0
   36.2499  -15.0898   36.6413 C   0  0  0  0  0  0  0  0  0  0  0  0
   38.7403  -14.6394   37.3472 F   0  0  0  0  0  0  0  0  0  0  0  0
   37.9911  -13.4696   37.3737 C   0  0  0  0  0  0  0  0  0  0  0  0
   37.9241  -13.0712   38.7050 F   0  0  0  0  0  0  0  0  0  0  0  0
   38.5666  -12.5310   36.5885 F   0  0  0  0  0  0  0  0  0  0  0  0
   32.9749  -18.2948   34.8214 C   0  0  0  0  0  0  0  0  0  0  0  0
   33.5805  -19.1999   33.9907 C   0  0  0  0  0  0  0  0  0  0  0  0
   33.0366  -20.4722   33.7329 C   0  0  0  0  0  0  0  0  0  0  0  0
   31.8523  -20.8515   34.3248 C   0  0  0  0  0  0  0  0  0  0  0  0
   31.2094  -19.9689   35.1711 C   0  0  0  0  0  0  0  0  0  0  0  0
   31.7732  -18.7431   35.3938 C   0  0  0  0  0  0  0  0  0  0  0  0
   29.9489  -20.3691   35.7919 C   0  0  0  0  0  0  0  0  0  0  0  0
   28.9508  -20.6660   36.2956 N   0  0  0  0  0  0  0  0  0  0  0  0
 11 12  1  0  0  0
 12 13  1  0  0  0
 12 14  1  0  0  0
 12  5  1  0  0  0
  5  6  2  0  0  0
  6  7  1  0  0  0
  7  8  2  0  0  0
  8  9  1  0  0  0
  9 10  2  0  0  0
  9  1  1  0  0  0
  1  2  2  0  0  0
  1  3  1  0  0  0
  3 15  1  0  0  0
 15 16  2  0  0  0
 16 17  1  0  0  0
 17 18  2  0  0  0
 18 19  1  0  0  0
 19 20  2  0  0  0
 19 21  1  0  0  0
 21 22  3  0  0  0
 10  5  1  0  0  0
 20 15  1  0  0  0
  3  4  1  0  0  0
M  END
> <minimizedAffinity>
-6.78198

> <CNNscore>
0.6698290706

> <CNNaffinity>
4.2525863647

> <CNN_VS>
2.8485059738

> <CNNaffinity_variance>
0.3435594738

$$$$
[H]c1c([H])c(C#N)c([H])c(N([H])C(=O)c2c([H])c([H])c([H])c(C(F)(F)F)c2[H])c1[H]


 22 23  0  0  0  0  0  0  0  0999 V2000
   34.4009  -16.4422   35.9699 C   0  0  0  0  0  0  0  0  0  0  0  0
   35.2472  -17.2714   36.3993 O   0  0  0  0  0  0  0  0  0  0  0  0
   33.2987  -16.8146   35.2214 N   0  0  0  0  0  0  0  0  0  0  0  0
   32.6385  -16.0504   34.8905 H   0  0  0  0  0  0  0  0  0  0  0  0
   34.0283  -12.9367   37.1891 C   0  0  0  0  0  0  0  0  0  0  0  0
   35.2839  -12.4384   36.9510 C   0  0  0  0  0  0  0  0  0  0  0  0
   36.2529  -13.2401   36.4059 C   0  0  0  0  0  0  0  0  0  0  0  0
   35.9489  -14.5460   36.1009 C   0  0  0  0  0  0  0  0  0  0  0  0
   34.6816  -15.0597   36.3389 C   0  0  0  0  0  0  0  0  0  0  0  0
   33.7253  -14.2455   36.8848 C   0  0  0  0  0  0  0  0  0  0  0  0
   32.6817  -12.4979   39.0272 F   0  0  0  0  0  0  0  0  0  0  0  0
   33.0143  -12.0280   37.7626 C   0  0  0  0  0  0  0  0  0  0  0  0
   31.8660  -12.1353   36.9846 F   0  0  0  0  0  0  0  0  0  0  0  0
   33.4597  -10.7537   37.8424 F   0  0  0  0  0  0  0  0  0  0  0  0
   32.9727  -18.1386   34.8544 C   0  0  0  0  0  0  0  0  0  0  0  0
   33.7413  -18.9629   34.0760 C   0  0  0  0  0  0  0  0  0  0  0  0
   33.3483  -20.2731   33.7442 C   0  0  0  0  0  0  0  0  0  0  0  0
   32.1517  -20.7746   34.2059 C   0  0  0  0  0  0  0  0  0  0  0  0
   31.3468  -19.9766   34.9956 C   0  0  0  0  0  0  0  0  0  0  0  0
   31.7673  -18.7099   35.2938 C   0  0  0  0  0  0  0  0  0  0  0  0
   30.0737  -20.5066   35.4779 C   0  0  0  0  0  0  0  0  0  0  0  0
   29.0545  -20.9141   35.8433 N   0  0  0  0  0  0  0  0  0  0  0  0
 11 12  1  0  0  0
 12 13  1  0  0  0
 12 14  1  0  0  0
 12  5  1  0  0  0
  5  6  2  0  0  0
  6  7  1  0  0  0
  7  8  2  0  0  0
  8  9  1  0  0  0
  9 10  2  0  0  0
  9  1  1  0  0  0
  1  2  2  0  0  0
  1  3  1  0  0  0
  3 15  1  0  0  0
 15 16  2  0  0  0
 16 17  1  0  0  0
 17 18  2  0  0  0
 18 19  1  0  0  0
 19 20  2  0  0  0
 19 21  1  0  0  0
 21 22  3  0  0  0
 10  5  1  0  0  0
 20 15  1  0  0  0
  3  4  1  0  0  0
M  END
> <minimizedAffinity>
-7.75601

> <CNNscore>
0.5970664620

> <CNNaffinity>
4.2865281105

> <CNN_VS>
2.5593421459

> <CNNaffinity_variance>
0.7956148386

$$$$
[H]c1c([H])c(C#N)c([H])c(N([H])C(=O)c2c([H])c([H])c([H])c(C(F)(F)F)c2[H])c1[H]


 22 23  0  0  0  0  0  0  0  0999 V2000
   32.3415  -12.8923   38.0208 C   0  0  0  0  0  0  0  0  0  0  0  0
   33.0341  -12.9592   39.0716 O   0  0  0  0  0  0  0  0  0  0  0  0
   32.7304  -13.4745   36.8277 N   0  0  0  0  0  0  0  0  0  0  0  0
   32.0915  -13.3626   35.9859 H   0  0  0  0  0  0  0  0  0  0  0  0
   28.9090  -11.8877   39.0805 C   0  0  0  0  0  0  0  0  0  0  0  0
   28.7392  -10.7295   38.3655 C   0  0  0  0  0  0  0  0  0  0  0  0
   29.7395  -10.2692   37.5491 C   0  0  0  0  0  0  0  0  0  0  0  0
   30.9110  -10.9833   37.4566 C   0  0  0  0  0  0  0  0  0  0  0  0
   31.0927  -12.1558   38.1768 C   0  0  0  0  0  0  0  0  0  0  0  0
   30.0836  -12.6014   38.9883 C   0  0  0  0  0  0  0  0  0  0  0  0
   27.0131  -13.2214   39.1845 F   0  0  0  0  0  0  0  0  0  0  0  0
   27.7951  -12.3507   39.9334 C   0  0  0  0  0  0  0  0  0  0  0  0
   26.9978  -11.2470   40.2192 F   0  0  0  0  0  0  0  0  0  0  0  0
   28.2342  -12.9671   41.0541 F   0  0  0  0  0  0  0  0  0  0  0  0
   33.9180  -14.2123   36.6301 C   0  0  0  0  0  0  0  0  0  0  0  0
   33.9977  -15.4624   36.0760 C   0  0  0  0  0  0  0  0  0  0  0  0
   35.2197  -16.1424   35.9159 C   0  0  0  0  0  0  0  0  0  0  0  0
   36.3973  -15.5542   36.3205 C   0  0  0  0  0  0  0  0  0  0  0  0
   36.3616  -14.2929   36.8831 C   0  0  0  0  0  0  0  0  0  0  0  0
   35.1528  -13.6682   37.0197 C   0  0  0  0  0  0  0  0  0  0  0  0
   37.6105  -13.6733   37.3197 C   0  0  0  0  0  0  0  0  0  0  0  0
   38.6081  -13.1854   37.6439 N   0  0  0  0  0  0  0  0  0  0  0  0
 11 12  1  0  0  0
 12 13  1  0  0  0
 12 14  1  0  0  0
 12  5  1  0  0  0
  5  6  2  0  0  0
  6  7  1  0  0  0
  7  8  2  0  0  0
  8  9  1  0  0  0
  9 10  2  0  0  0
  9  1  1  0  0  0
  1  2  2  0  0  0
  1  3  1  0  0  0
  3 15  1  0  0  0
 15 16  2  0  0  0
 16 17  1  0  0  0
 17 18  2  0  0  0
 18 19  1  0  0  0
 19 20  2  0  0  0
 19 21  1  0  0  0
 21 22  3  0  0  0
 10  5  1  0  0  0
 20 15  1  0  0  0
  3  4  1  0  0  0
M  END
> <minimizedAffinity>
-8.02054

> <CNNscore>
0.5851272941

> <CNNaffinity>
4.8534235954

> <CNN_VS>
2.8398706913

> <CNNaffinity_variance>
0.3751476109

$$$$
[H]c1c([H])c(C#N)c([H])c(N([H])C(=O)c2c([H])c([H])c([H])c(C(F)(F)F)c2[H])c1[H]


 22 23  0  0  0  0  0  0  0  0999 V2000
   34.2061  -17.6297   35.8058 C   0  0  0  0  0  0  0  0  0  0  0  0
   35.3254  -17.9163   36.3092 O   0  0  0  0  0  0  0  0  0  0  0  0
   33.7484  -16.3297   35.6859 N   0  0  0  0  0  0  0  0  0  0  0  0
   32.7880  -16.1761   35.2576 H   0  0  0  0  0  0  0  0  0  0  0  0
   32.7921  -21.0690   35.5140 C   0  0  0  0  0  0  0  0  0  0  0  0
   32.0099  -20.9399   34.3946 C   0  0  0  0  0  0  0  0  0  0  0  0
   31.9325  -19.7373   33.7414 C   0  0  0  0  0  0  0  0  0  0  0  0
   32.6489  -18.6664   34.2218 C   0  0  0  0  0  0  0  0  0  0  0  0
   33.4425  -18.7868   35.3542 C   0  0  0  0  0  0  0  0  0  0  0  0
   33.5080  -19.9951   35.9954 C   0  0  0  0  0  0  0  0  0  0  0  0
   32.0531  -22.3442   37.3063 F   0  0  0  0  0  0  0  0  0  0  0  0
   32.8550  -22.3900   36.1726 C   0  0  0  0  0  0  0  0  0  0  0  0
   34.1602  -22.5764   36.6168 F   0  0  0  0  0  0  0  0  0  0  0  0
   32.4470  -23.3866   35.3546 F   0  0  0  0  0  0  0  0  0  0  0  0
   34.4558  -15.1763   36.0895 C   0  0  0  0  0  0  0  0  0  0  0  0
   35.8156  -15.0180   36.0449 C   0  0  0  0  0  0  0  0  0  0  0  0
   36.4544  -13.8386   36.4717 C   0  0  0  0  0  0  0  0  0  0  0  0
   35.7110  -12.7853   36.9561 C   0  0  0  0  0  0  0  0  0  0  0  0
   34.3359  -12.9030   37.0166 C   0  0  0  0  0  0  0  0  0  0  0  0
   33.7565  -14.0664   36.5914 C   0  0  0  0  0  0  0  0  0  0  0  0
   33.5490  -11.7882   37.5385 C   0  0  0  0  0  0  0  0  0  0  0  0
   32.9086  -10.9204   37.9570 N   0  0  0  0  0  0  0  0  0  0  0  0
 11 12  1  0  0  0
 12 13  1  0  0  0
 12 14  1  0  0  0
 12  5  1  0  0  0
  5  6  2  0  0  0
  6  7  1  0  0  0
  7  8  2  0  0  0
  8  9  1  0  0  0
  9 10  2  0  0  0
  9  1  1  0  0  0
  1  2  2  0  0  0
  1  3  1  0  0  0
  3 15  1  0  0  0
 15 16  2  0  0  0
 16 17  1  0  0  0
 17 18  2  0  0  0
 18 19  1  0  0  0
 19 20  2  0  0  0
 19 21  1  0  0  0
 21 22  3  0  0  0
 10  5  1  0  0  0
 20 15  1  0  0  0
  3  4  1  0  0  0
M  END
> <minimizedAffinity>
-6.57487

> <CNNscore>
0.5704148412

> <CNNaffinity>
4.2765970230

> <CNN_VS>
2.4394345284

> <CNNaffinity_variance>
0.4860811830

$$$$
[H]c1c([H])c(C#N)c([H])c(N([H])C(=O)c2c([H])c([H])c([H])c(C(F)(F)F)c2[H])c1[H]


 22 23  0  0  0  0  0  0  0  0999 V2000
   34.0918  -13.0728   37.2267 C   0  0  0  0  0  0  0  0  0  0  0  0
   33.3066  -13.6140   38.0506 O   0  0  0  0  0  0  0  0  0  0  0  0
   35.0110  -13.7915   36.4834 N   0  0  0  0  0  0  0  0  0  0  0  0
   35.6426  -13.2558   35.8174 H   0  0  0  0  0  0  0  0  0  0  0  0
   32.6312   -9.6410   37.1742 C   0  0  0  0  0  0  0  0  0  0  0  0
   33.7297   -8.8905   36.8404 C   0  0  0  0  0  0  0  0  0  0  0  0
   34.9443   -9.4943   36.6429 C   0  0  0  0  0  0  0  0  0  0  0  0
   35.0450  -10.8586   36.7823 C   0  0  0  0  0  0  0  0  0  0  0  0
   33.9395  -11.6266   37.1206 C   0  0  0  0  0  0  0  0  0  0  0  0
   32.7335  -11.0075   37.3152 C   0  0  0  0  0  0  0  0  0  0  0  0
   31.0603   -8.2413   36.1957 F   0  0  0  0  0  0  0  0  0  0  0  0
   31.3412   -8.9452   37.3602 C   0  0  0  0  0  0  0  0  0  0  0  0
   31.5155   -7.9982   38.3642 F   0  0  0  0  0  0  0  0  0  0  0  0
   30.3347   -9.8046   37.6383 F   0  0  0  0  0  0  0  0  0  0  0  0
   35.1846  -15.1918   36.5355 C   0  0  0  0  0  0  0  0  0  0  0  0
   36.1371  -15.8510   37.2664 C   0  0  0  0  0  0  0  0  0  0  0  0
   36.2556  -17.2536   37.2648 C   0  0  0  0  0  0  0  0  0  0  0  0
   35.3948  -18.0200   36.5109 C   0  0  0  0  0  0  0  0  0  0  0  0
   34.4182  -17.3948   35.7601 C   0  0  0  0  0  0  0  0  0  0  0  0
   34.3386  -16.0299   35.7909 C   0  0  0  0  0  0  0  0  0  0  0  0
   33.5110  -18.2083   34.9541 C   0  0  0  0  0  0  0  0  0  0  0  0
   32.8018  -18.8430   34.2966 N   0  0  0  0  0  0  0  0  0  0  0  0
 11 12  1  0  0  0
 12 13  1  0  0  0
 12 14  1  0  0  0
 12  5  1  0  0  0
  5  6  2  0  0  0
  6  7  1  0  0  0
  7  8  2  0  0  0
  8  9  1  0  0  0
  9 10  2  0  0  0
  9  1  1  0  0  0
  1  2  2  0  0  0
  1  3  1  0  0  0
  3 15  1  0  0  0
 15 16  2  0  0  0
 16 17  1  0  0  0
 17 18  2  0  0  0
 18 19  1  0  0  0
 19 20  2  0  0  0
 19 21  1  0  0  0
 21 22  3  0  0  0
 10  5  1  0  0  0
 20 15  1  0  0  0
  3  4  1  0  0  0
M  END
> <minimizedAffinity>
-5.79765

> <CNNscore>
0.4871024787

> <CNNaffinity>
4.4135713577

> <CNN_VS>
2.1498615742

> <CNNaffinity_variance>
0.5886563063

$$$$
[H]c1c([H])c(C#N)c([H])c(N([H])C(=O)c2c([H])c([H])c([H])c(C(F)(F)F)c2[H])c1[H]


 22 23  0  0  0  0  0  0  0  0999 V2000
   32.8942  -12.5388   37.6509 C   0  0  0  0  0  0  0  0  0  0  0  0
   33.1587  -13.0956   38.7501 O   0  0  0  0  0  0  0  0  0  0  0  0
   33.4521  -12.9437   36.4515 N   0  0  0  0  0  0  0  0  0  0  0  0
   33.1821  -12.4134   35.5710 H   0  0  0  0  0  0  0  0  0  0  0  0
   29.7622  -10.5743   38.1460 C   0  0  0  0  0  0  0  0  0  0  0  0
   30.1993   -9.3041   37.8683 C   0  0  0  0  0  0  0  0  0  0  0  0
   31.5094   -9.0831   37.5314 C   0  0  0  0  0  0  0  0  0  0  0  0
   32.3758  -10.1494   37.4745 C   0  0  0  0  0  0  0  0  0  0  0  0
   31.9433  -11.4382   37.7545 C   0  0  0  0  0  0  0  0  0  0  0  0
   30.6313  -11.6416   38.0904 C   0  0  0  0  0  0  0  0  0  0  0  0
   28.2585  -11.7212   39.4907 F   0  0  0  0  0  0  0  0  0  0  0  0
   28.3373  -10.7626   38.4880 C   0  0  0  0  0  0  0  0  0  0  0  0
   27.7051  -11.3022   37.3724 F   0  0  0  0  0  0  0  0  0  0  0  0
   27.7558   -9.6125   38.8977 F   0  0  0  0  0  0  0  0  0  0  0  0
   34.3610  -14.0131   36.2955 C   0  0  0  0  0  0  0  0  0  0  0  0
   35.7230  -13.9255   36.4096 C   0  0  0  0  0  0  0  0  0  0  0  0
   36.5700  -15.0359   36.2339 C   0  0  0  0  0  0  0  0  0  0  0  0
   36.0388  -16.2713   35.9365 C   0  0  0  0  0  0  0  0  0  0  0  0
   34.6691  -16.4037   35.8141 C   0  0  0  0  0  0  0  0  0  0  0  0
   33.8834  -15.2988   35.9931 C   0  0  0  0  0  0  0  0  0  0  0  0
   34.1073  -17.7128   35.4903 C   0  0  0  0  0  0  0  0  0  0  0  0
   33.6690  -18.7465   35.2118 N   0  0  0  0  0  0  0  0  0  0  0  0
 11 12  1  0  0  0
 12 13  1  0  0  0
 12 14  1  0  0  0
 12  5  1  0  0  0
  5  6  2  0  0  0
  6  7  1  0  0  0
  7  8  2  0  0  0
  8  9  1  0  0  0
  9 10  2  0  0  0
  9  1  1  0  0  0
  1  2  2  0  0  0
  1  3  1  0  0  0
  3 15  1  0  0  0
 15 16  2  0  0  0
 16 17  1  0  0  0
 17 18  2  0  0  0
 18 19  1  0  0  0
 19 20  2  0  0  0
 19 21  1  0  0  0
 21 22  3  0  0  0
 10  5  1  0  0  0
 20 15  1  0  0  0
  3  4  1  0  0  0
M  END
> <minimizedAffinity>
-8.14752

> <CNNscore>
0.4748827815

> <CNNaffinity>
4.7239999771

> <CNN_VS>
2.2433462143

> <CNNaffinity_variance>
0.3212730289

$$$$
[H]c1c([H])c(C#N)c([H])c(N([H])C(=O)c2c([H])c([H])c([H])c(C(F)(F)F)c2[H])c1[H]


 22 23  0  0  0  0  0  0  0  0999 V2000
   31.9709  -12.8949   38.7399 C   0  0  0  0  0  0  0  0  0  0  0  0
   32.8166  -12.7668   39.6655 O   0  0  0  0  0  0  0  0  0  0  0  0
   32.3195  -13.2507   37.4493 N   0  0  0  0  0  0  0  0  0  0  0  0
   31.5447  -13.3278   36.7260 H   0  0  0  0  0  0  0  0  0  0  0  0
   28.7381  -11.2018   39.5118 C   0  0  0  0  0  0  0  0  0  0  0  0
   28.0032  -12.2478   40.0092 C   0  0  0  0  0  0  0  0  0  0  0  0
   28.5509  -13.5021   40.0846 C   0  0  0  0  0  0  0  0  0  0  0  0
   29.8435  -13.6957   39.6573 C   0  0  0  0  0  0  0  0  0  0  0  0
   30.5949  -12.6439   39.1517 C   0  0  0  0  0  0  0  0  0  0  0  0
   30.0323  -11.3972   39.0825 C   0  0  0  0  0  0  0  0  0  0  0  0
   27.6251   -9.5751   40.7363 F   0  0  0  0  0  0  0  0  0  0  0  0
   28.1084   -9.8661   39.4665 C   0  0  0  0  0  0  0  0  0  0  0  0
   27.0001   -9.9521   38.6301 F   0  0  0  0  0  0  0  0  0  0  0  0
   28.9754   -8.9078   39.0681 F   0  0  0  0  0  0  0  0  0  0  0  0
   33.6322  -13.5223   37.0053 C   0  0  0  0  0  0  0  0  0  0  0  0
   34.6542  -12.6132   36.9337 C   0  0  0  0  0  0  0  0  0  0  0  0
   35.9396  -12.9549   36.4731 C   0  0  0  0  0  0  0  0  0  0  0  0
   36.2117  -14.2444   36.0737 C   0  0  0  0  0  0  0  0  0  0  0  0
   35.2091  -15.1931   36.1316 C   0  0  0  0  0  0  0  0  0  0  0  0
   33.9749  -14.8181   36.5857 C   0  0  0  0  0  0  0  0  0  0  0  0
   35.4964  -16.5588   35.6997 C   0  0  0  0  0  0  0  0  0  0  0  0
   35.7224  -17.6333   35.3354 N   0  0  0  0  0  0  0  0  0  0  0  0
 11 12  1  0  0  0
 12 13  1  0  0  0
 12 14  1  0  0  0
 12  5  1  0  0  0
  5  6  2  0  0  0
  6  7  1  0  0  0
  7  8  2  0  0  0
  8  9  1  0  0  0
  9 10  2  0  0  0
  9  1  1  0  0  0
  1  2  2  0  0  0
  1  3  1  0  0  0
  3 15  1  0  0  0
 15 16  2  0  0  0
 16 17  1  0  0  0
 17 18  2  0  0  0
 18 19  1  0  0  0
 19 20  2  0  0  0
 19 21  1  0  0  0
 21 22  3  0  0  0
 10  5  1  0  0  0
 20 15  1  0  0  0
  3  4  1  0  0  0
M  END
> <minimizedAffinity>
-6.80112

> <CNNscore>
0.4455531538

> <CNNaffinity>
4.5803842545

> <CNN_VS>
2.0408046246

> <CNNaffinity_variance>
0.3605034053

$$$$
[H]c1c([H])c(-c2c([H])c([H])c(S(=O)(=O)N([H])[H])c([H])c2[H])c([H])c([H])c1C(=O)N1C([H])([H])C([H])([H])N(C(=O)C2([H])C([H])([H])C2([H])[H])C([H])([H])C1([H])[H]


 31 34  0  0  0  0  0  0  0  0999 V2000
   37.5467  -24.4690   39.2767 C   0  0  0  0  0  0  0  0  0  0  0  0
   37.1163  -23.6716   38.2455 C   0  0  0  0  0  0  0  0  0  0  0  0
   35.9533  -23.9671   37.5697 C   0  0  0  0  0  0  0  0  0  0  0  0
   35.1452  -25.0754   37.8783 C   0  0  0  0  0  0  0  0  0  0  0  0
   35.5739  -25.8550   38.8953 C   0  0  0  0  0  0  0  0  0  0  0  0
   36.7730  -25.5517   39.5919 C   0  0  0  0  0  0  0  0  0  0  0  0
   33.9436  -25.2438   37.1467 C   0  0  0  0  0  0  0  0  0  0  0  0
   34.0616  -25.8793   35.9775 O   0  0  0  0  0  0  0  0  0  0  0  0
   32.6541  -24.8535   37.4533 N   0  0  0  0  0  0  0  0  0  0  0  0
   32.0921  -24.2164   38.5986 C   0  0  0  0  0  0  0  0  0  0  0  0
   31.7784  -22.8040   38.2262 C   0  0  0  0  0  0  0  0  0  0  0  0
   31.3790  -22.6351   36.8269 N   0  0  0  0  0  0  0  0  0  0  0  0
   31.1025  -23.7199   35.9542 C   0  0  0  0  0  0  0  0  0  0  0  0
   31.5900  -25.0771   36.4077 C   0  0  0  0  0  0  0  0  0  0  0  0
   31.2557  -21.2993   36.3909 C   0  0  0  0  0  0  0  0  0  0  0  0
   31.5044  -20.4384   37.3606 O   0  0  0  0  0  0  0  0  0  0  0  0
   30.9086  -20.7569   35.0906 C   0  0  0  0  0  0  0  0  0  0  0  0
   30.6570  -19.3278   34.7889 C   0  0  0  0  0  0  0  0  0  0  0  0
   31.7870  -20.0806   34.1407 C   0  0  0  0  0  0  0  0  0  0  0  0
   41.1359  -23.6467   41.4464 C   0  0  0  0  0  0  0  0  0  0  0  0
   40.2221  -24.5724   41.9017 C   0  0  0  0  0  0  0  0  0  0  0  0
   39.0642  -24.8308   41.1921 C   0  0  0  0  0  0  0  0  0  0  0  0
   38.7712  -24.1826   40.0089 C   0  0  0  0  0  0  0  0  0  0  0  0
   39.6906  -23.2570   39.5592 C   0  0  0  0  0  0  0  0  0  0  0  0
   40.8490  -22.9959   40.2656 C   0  0  0  0  0  0  0  0  0  0  0  0
   42.6059  -21.6958   42.9510 N   0  0  0  0  0  0  0  0  0  0  0  0
   42.6121  -23.3100   42.3387 S   0  0  0  0  0  0  0  0  0  0  0  0
   43.7540  -23.5217   41.3812 O   0  0  0  0  0  0  0  0  0  0  0  0
   42.7748  -24.2813   43.4732 O   0  0  0  0  0  0  0  0  0  0  0  0
   43.4020  -21.6159   43.6217 H   0  0  0  0  0  0  0  0  0  0  0  0
   41.6812  -21.5537   43.4150 H   0  0  0  0  0  0  0  0  0  0  0  0
 26 27  1  0  0  0
 27 28  2  0  0  0
 27 29  2  0  0  0
 27 20  1  0  0  0
 20 21  2  0  0  0
 21 22  1  0  0  0
 22 23  2  0  0  0
 23 24  1  0  0  0
 24 25  2  0  0  0
 23  1  1  0  0  0
  1  2  2  0  0  0
  2  3  1  0  0  0
  3  4  2  0  0  0
  4  5  1  0  0  0
  5  6  2  0  0  0
  4  7  1  0  0  0
  7  8  2  0  0  0
  7  9  1  0  0  0
  9 10  1  0  0  0
 10 11  1  0  0  0
 11 12  1  0  0  0
 12 13  1  0  0  0
 13 14  1  0  0  0
 12 15  1  0  0  0
 15 16  2  0  0  0
 15 17  1  0  0  0
 17 18  1  0  0  0
 18 19  1  0  0  0
 25 20  1  0  0  0
  6  1  1  0  0  0
 14  9  1  0  0  0
 19 17  1  0  0  0
 26 30  1  0  0  0
 26 31  1  0  0  0
M  END
> <minimizedAffinity>
-2.11941

> <CNNscore>
0.6613033414

> <CNNaffinity>
4.6301178932

> <CNN_VS>
3.0619125366

> <CNNaffinity_variance>
0.0705955401

$$$$
[H]c1c([H])c(-c2c([H])c([H])c(S(=O)(=O)N([H])[H])c([H])c2[H])c([H])c([H])c1C(=O)N1C([H])([H])C([H])([H])N(C(=O)C2([H])C([H])([H])C2([H])[H])C([H])([H])C1([H])[H]


 31 34  0  0  0  0  0  0  0  0999 V2000
   33.4000  -22.5940   37.1422 C   0  0  0  0  0  0  0  0  0  0  0  0
   34.4424  -23.4223   37.4767 C   0  0  0  0  0  0  0  0  0  0  0  0
   35.6817  -22.9024   37.7771 C   0  0  0  0  0  0  0  0  0  0  0  0
   35.9614  -21.5247   37.7635 C   0  0  0  0  0  0  0  0  0  0  0  0
   34.9305  -20.7152   37.4349 C   0  0  0  0  0  0  0  0  0  0  0  0
   33.6529  -21.2501   37.1244 C   0  0  0  0  0  0  0  0  0  0  0  0
   37.2612  -21.1083   38.1437 C   0  0  0  0  0  0  0  0  0  0  0  0
   37.7797  -20.1045   37.4305 O   0  0  0  0  0  0  0  0  0  0  0  0
   38.0872  -21.5780   39.1468 N   0  0  0  0  0  0  0  0  0  0  0  0
   37.9048  -22.5738   40.1510 C   0  0  0  0  0  0  0  0  0  0  0  0
   38.7169  -23.7663   39.7630 C   0  0  0  0  0  0  0  0  0  0  0  0
   39.9537  -23.4346   39.0514 N   0  0  0  0  0  0  0  0  0  0  0  0
   40.4546  -22.1125   38.9247 C   0  0  0  0  0  0  0  0  0  0  0  0
   39.4781  -21.0005   39.2332 C   0  0  0  0  0  0  0  0  0  0  0  0
   40.6511  -24.5335   38.5076 C   0  0  0  0  0  0  0  0  0  0  0  0
   40.0526  -25.6796   38.7753 O   0  0  0  0  0  0  0  0  0  0  0  0
   41.8770  -24.5864   37.7332 C   0  0  0  0  0  0  0  0  0  0  0  0
   42.1899  -25.5770   36.6760 C   0  0  0  0  0  0  0  0  0  0  0  0
   42.0958  -24.1064   36.3719 C   0  0  0  0  0  0  0  0  0  0  0  0
   29.5293  -24.1454   36.2055 C   0  0  0  0  0  0  0  0  0  0  0  0
   30.4934  -24.9367   36.7916 C   0  0  0  0  0  0  0  0  0  0  0  0
   31.7424  -24.4248   37.0904 C   0  0  0  0  0  0  0  0  0  0  0  0
   32.0796  -23.1138   36.8197 C   0  0  0  0  0  0  0  0  0  0  0  0
   31.1094  -22.3274   36.2326 C   0  0  0  0  0  0  0  0  0  0  0  0
   29.8600  -22.8354   35.9324 C   0  0  0  0  0  0  0  0  0  0  0  0
   27.9757  -25.6874   34.3510 N   0  0  0  0  0  0  0  0  0  0  0  0
   27.9376  -24.7838   35.8216 S   0  0  0  0  0  0  0  0  0  0  0  0
   27.0135  -23.6013   35.7069 O   0  0  0  0  0  0  0  0  0  0  0  0
   27.4362  -25.6548   36.9384 O   0  0  0  0  0  0  0  0  0  0  0  0
   27.0661  -26.1942   34.2752 H   0  0  0  0  0  0  0  0  0  0  0  0
   28.7882  -26.3399   34.4199 H   0  0  0  0  0  0  0  0  0  0  0  0
 26 27  1  0  0  0
 27 28  2  0  0  0
 27 29  2  0  0  0
 27 20  1  0  0  0
 20 21  2  0  0  0
 21 22  1  0  0  0
 22 23  2  0  0  0
 23 24  1  0  0  0
 24 25  2  0  0  0
 23  1  1  0  0  0
  1  2  2  0  0  0
  2  3  1  0  0  0
  3  4  2  0  0  0
  4  5  1  0  0  0
  5  6  2  0  0  0
  4  7  1  0  0  0
  7  8  2  0  0  0
  7  9  1  0  0  0
  9 10  1  0  0  0
 10 11  1  0  0  0
 11 12  1  0  0  0
 12 13  1  0  0  0
 13 14  1  0  0  0
 12 15  1  0  0  0
 15 16  2  0  0  0
 15 17  1  0  0  0
 17 18  1  0  0  0
 18 19  1  0  0  0
 25 20  1  0  0  0
  6  1  1  0  0  0
 14  9  1  0  0  0
 19 17  1  0  0  0
 26 30  1  0  0  0
 26 31  1  0  0  0
M  END
> <minimizedAffinity>
-2.65543

> <CNNscore>
0.5849661827

> <CNNaffinity>
4.8100571632

> <CNN_VS>
2.8137207031

> <CNNaffinity_variance>
0.2290026844

$$$$
[H]c1c([H])c(-c2c([H])c([H])c(S(=O)(=O)N([H])[H])c([H])c2[H])c([H])c([H])c1C(=O)N1C([H])([H])C([H])([H])N(C(=O)C2([H])C([H])([H])C2([H])[H])C([H])([H])C1([H])[H]


 31 34  0  0  0  0  0  0  0  0999 V2000
   37.2951  -21.8376   38.2446 C   0  0  0  0  0  0  0  0  0  0  0  0
   36.2922  -21.2633   38.9854 C   0  0  0  0  0  0  0  0  0  0  0  0
   35.7466  -21.9285   40.0608 C   0  0  0  0  0  0  0  0  0  0  0  0
   36.1653  -23.2077   40.4665 C   0  0  0  0  0  0  0  0  0  0  0  0
   37.1538  -23.7664   39.7340 C   0  0  0  0  0  0  0  0  0  0  0  0
   37.7163  -23.0819   38.6249 C   0  0  0  0  0  0  0  0  0  0  0  0
   35.5648  -23.7664   41.6218 C   0  0  0  0  0  0  0  0  0  0  0  0
   35.9299  -25.0172   41.9170 O   0  0  0  0  0  0  0  0  0  0  0  0
   34.6533  -23.2178   42.5034 N   0  0  0  0  0  0  0  0  0  0  0  0
   34.0610  -21.9234   42.5879 C   0  0  0  0  0  0  0  0  0  0  0  0
   32.6387  -22.0435   42.1468 C   0  0  0  0  0  0  0  0  0  0  0  0
   32.0213  -23.3294   42.4809 N   0  0  0  0  0  0  0  0  0  0  0  0
   32.6277  -24.2932   43.3284 C   0  0  0  0  0  0  0  0  0  0  0  0
   34.1060  -24.1123   43.5879 C   0  0  0  0  0  0  0  0  0  0  0  0
   30.7461  -23.5511   41.9204 C   0  0  0  0  0  0  0  0  0  0  0  0
   30.3342  -22.5193   41.2069 O   0  0  0  0  0  0  0  0  0  0  0  0
   29.8590  -24.6958   42.0111 C   0  0  0  0  0  0  0  0  0  0  0  0
   28.4477  -24.6624   42.4625 C   0  0  0  0  0  0  0  0  0  0  0  0
   28.8173  -25.0960   41.0700 C   0  0  0  0  0  0  0  0  0  0  0  0
   39.0673  -19.8627   34.8942 C   0  0  0  0  0  0  0  0  0  0  0  0
   39.7253  -20.8770   35.5557 C   0  0  0  0  0  0  0  0  0  0  0  0
   39.1429  -21.5092   36.6385 C   0  0  0  0  0  0  0  0  0  0  0  0
   37.8908  -21.1596   37.1032 C   0  0  0  0  0  0  0  0  0  0  0  0
   37.2380  -20.1433   36.4361 C   0  0  0  0  0  0  0  0  0  0  0  0
   37.8167  -19.5090   35.3535 C   0  0  0  0  0  0  0  0  0  0  0  0
   38.6339  -18.0794   32.6891 N   0  0  0  0  0  0  0  0  0  0  0  0
   39.7963  -19.0520   33.5158 S   0  0  0  0  0  0  0  0  0  0  0  0
   40.3379  -20.1305   32.6165 O   0  0  0  0  0  0  0  0  0  0  0  0
   40.9498  -18.1968   33.9576 O   0  0  0  0  0  0  0  0  0  0  0  0
   39.1562  -17.4826   32.0101 H   0  0  0  0  0  0  0  0  0  0  0  0
   38.1425  -17.5142   33.4170 H   0  0  0  0  0  0  0  0  0  0  0  0
 26 27  1  0  0  0
 27 28  2  0  0  0
 27 29  2  0  0  0
 27 20  1  0  0  0
 20 21  2  0  0  0
 21 22  1  0  0  0
 22 23  2  0  0  0
 23 24  1  0  0  0
 24 25  2  0  0  0
 23  1  1  0  0  0
  1  2  2  0  0  0
  2  3  1  0  0  0
  3  4  2  0  0  0
  4  5  1  0  0  0
  5  6  2  0  0  0
  4  7  1  0  0  0
  7  8  2  0  0  0
  7  9  1  0  0  0
  9 10  1  0  0  0
 10 11  1  0  0  0
 11 12  1  0  0  0
 12 13  1  0  0  0
 13 14  1  0  0  0
 12 15  1  0  0  0
 15 16  2  0  0  0
 15 17  1  0  0  0
 17 18  1  0  0  0
 18 19  1  0  0  0
 25 20  1  0  0  0
  6  1  1  0  0  0
 14  9  1  0  0  0
 19 17  1  0  0  0
 26 30  1  0  0  0
 26 31  1  0  0  0
M  END
> <minimizedAffinity>
-3.08239

> <CNNscore>
0.5549408197

> <CNNaffinity>
4.5510721207

> <CNN_VS>
2.5255756378

> <CNNaffinity_variance>
0.1823268235

$$$$
[H]c1c([H])c(-c2c([H])c([H])c(S(=O)(=O)N([H])[H])c([H])c2[H])c([H])c([H])c1C(=O)N1C([H])([H])C([H])([H])N(C(=O)C2([H])C([H])([H])C2([H])[H])C([H])([H])C1([H])[H]


 31 34  0  0  0  0  0  0  0  0999 V2000
   37.8833  -22.1540   37.2511 C   0  0  0  0  0  0  0  0  0  0  0  0
   36.6361  -21.6448   37.5146 C   0  0  0  0  0  0  0  0  0  0  0  0
   35.6502  -22.4459   38.0464 C   0  0  0  0  0  0  0  0  0  0  0  0
   35.8441  -23.8050   38.3494 C   0  0  0  0  0  0  0  0  0  0  0  0
   37.0745  -24.2993   38.0890 C   0  0  0  0  0  0  0  0  0  0  0  0
   38.0911  -23.4745   37.5401 C   0  0  0  0  0  0  0  0  0  0  0  0
   34.7694  -24.5116   38.9437 C   0  0  0  0  0  0  0  0  0  0  0  0
   34.9340  -25.8331   39.0509 O   0  0  0  0  0  0  0  0  0  0  0  0
   33.5655  -24.0473   39.4377 N   0  0  0  0  0  0  0  0  0  0  0  0
   33.0255  -22.7341   39.5686 C   0  0  0  0  0  0  0  0  0  0  0  0
   31.9628  -22.5729   38.5310 C   0  0  0  0  0  0  0  0  0  0  0  0
   31.2364  -23.8090   38.2299 N   0  0  0  0  0  0  0  0  0  0  0  0
   31.3672  -25.0001   38.9909 C   0  0  0  0  0  0  0  0  0  0  0  0
   32.5641  -25.0713   39.9115 C   0  0  0  0  0  0  0  0  0  0  0  0
   30.3572  -23.7402   37.1291 C   0  0  0  0  0  0  0  0  0  0  0  0
   30.3389  -22.5367   36.5862 O   0  0  0  0  0  0  0  0  0  0  0  0
   29.5059  -24.7532   36.5338 C   0  0  0  0  0  0  0  0  0  0  0  0
   29.0521  -24.7815   35.1231 C   0  0  0  0  0  0  0  0  0  0  0  0
   29.9079  -25.8787   35.6954 C   0  0  0  0  0  0  0  0  0  0  0  0
   40.9919  -19.7191   35.6157 C   0  0  0  0  0  0  0  0  0  0  0  0
   40.0697  -19.2020   36.4996 C   0  0  0  0  0  0  0  0  0  0  0  0
   39.0680  -19.9984   37.0227 C   0  0  0  0  0  0  0  0  0  0  0  0
   38.9448  -21.3324   36.6892 C   0  0  0  0  0  0  0  0  0  0  0  0
   39.8716  -21.8433   35.8036 C   0  0  0  0  0  0  0  0  0  0  0  0
   40.8741  -21.0505   35.2786 C   0  0  0  0  0  0  0  0  0  0  0  0
   42.2370  -17.1346   35.6329 N   0  0  0  0  0  0  0  0  0  0  0  0
   42.2705  -18.7175   34.9445 S   0  0  0  0  0  0  0  0  0  0  0  0
   42.0441  -18.6662   33.4574 O   0  0  0  0  0  0  0  0  0  0  0  0
   43.6135  -19.3463   35.1856 O   0  0  0  0  0  0  0  0  0  0  0  0
   43.1186  -16.6539   35.3472 H   0  0  0  0  0  0  0  0  0  0  0  0
   42.1706  -17.2581   36.6678 H   0  0  0  0  0  0  0  0  0  0  0  0
 26 27  1  0  0  0
 27 28  2  0  0  0
 27 29  2  0  0  0
 27 20  1  0  0  0
 20 21  2  0  0  0
 21 22  1  0  0  0
 22 23  2  0  0  0
 23 24  1  0  0  0
 24 25  2  0  0  0
 23  1  1  0  0  0
  1  2  2  0  0  0
  2  3  1  0  0  0
  3  4  2  0  0  0
  4  5  1  0  0  0
  5  6  2  0  0  0
  4  7  1  0  0  0
  7  8  2  0  0  0
  7  9  1  0  0  0
  9 10  1  0  0  0
 10 11  1  0  0  0
 11 12  1  0  0  0
 12 13  1  0  0  0
 13 14  1  0  0  0
 12 15  1  0  0  0
 15 16  2  0  0  0
 15 17  1  0  0  0
 17 18  1  0  0  0
 18 19  1  0  0  0
 25 20  1  0  0  0
  6  1  1  0  0  0
 14  9  1  0  0  0
 19 17  1  0  0  0
 26 30  1  0  0  0
 26 31  1  0  0  0
M  END
> <minimizedAffinity>
-3.21271

> <CNNscore>
0.5406884551

> <CNNaffinity>
4.6008682251

> <CNN_VS>
2.4876363277

> <CNNaffinity_variance>
0.1040763259

$$$$
[H]c1c([H])c(-c2c([H])c([H])c(S(=O)(=O)N([H])[H])c([H])c2[H])c([H])c([H])c1C(=O)N1C([H])([H])C([H])([H])N(C(=O)C2([H])C([H])([H])C2([H])[H])C([H])([H])C1([H])[H]


 31 34  0  0  0  0  0  0  0  0999 V2000
   37.8050  -23.4684   36.2353 C   0  0  0  0  0  0  0  0  0  0  0  0
   37.0539  -22.3296   36.3886 C   0  0  0  0  0  0  0  0  0  0  0  0
   35.8542  -22.3672   37.0637 C   0  0  0  0  0  0  0  0  0  0  0  0
   35.3265  -23.5414   37.6290 C   0  0  0  0  0  0  0  0  0  0  0  0
   36.0717  -24.6581   37.4757 C   0  0  0  0  0  0  0  0  0  0  0  0
   37.3081  -24.6206   36.7794 C   0  0  0  0  0  0  0  0  0  0  0  0
   34.1087  -23.4425   38.3464 C   0  0  0  0  0  0  0  0  0  0  0  0
   33.0345  -23.1170   37.6218 O   0  0  0  0  0  0  0  0  0  0  0  0
   33.8508  -23.6331   39.6903 N   0  0  0  0  0  0  0  0  0  0  0  0
   34.6802  -24.0363   40.7778 C   0  0  0  0  0  0  0  0  0  0  0  0
   34.9387  -22.8327   41.6244 C   0  0  0  0  0  0  0  0  0  0  0  0
   33.8245  -21.8820   41.6584 N   0  0  0  0  0  0  0  0  0  0  0  0
   32.5397  -22.1609   41.1233 C   0  0  0  0  0  0  0  0  0  0  0  0
   32.4548  -23.3401   40.1814 C   0  0  0  0  0  0  0  0  0  0  0  0
   34.0990  -20.6521   42.2921 C   0  0  0  0  0  0  0  0  0  0  0  0
   35.3299  -20.6055   42.7676 O   0  0  0  0  0  0  0  0  0  0  0  0
   33.2626  -19.4833   42.4912 C   0  0  0  0  0  0  0  0  0  0  0  0
   32.2383  -19.3232   43.5504 C   0  0  0  0  0  0  0  0  0  0  0  0
   33.4364  -18.4165   43.4725 C   0  0  0  0  0  0  0  0  0  0  0  0
   41.5289  -23.4636   34.1380 C   0  0  0  0  0  0  0  0  0  0  0  0
   40.5108  -24.3223   33.7840 C   0  0  0  0  0  0  0  0  0  0  0  0
   39.3101  -24.3157   34.4692 C   0  0  0  0  0  0  0  0  0  0  0  0
   39.0761  -23.4600   35.5270 C   0  0  0  0  0  0  0  0  0  0  0  0
   40.1000  -22.6031   35.8758 C   0  0  0  0  0  0  0  0  0  0  0  0
   41.3015  -22.6068   35.1935 C   0  0  0  0  0  0  0  0  0  0  0  0
   42.8191  -23.1261   31.5979 N   0  0  0  0  0  0  0  0  0  0  0  0
   43.0595  -23.4615   33.2743 S   0  0  0  0  0  0  0  0  0  0  0  0
   43.6695  -24.8231   33.4722 O   0  0  0  0  0  0  0  0  0  0  0  0
   43.9959  -22.4458   33.8648 O   0  0  0  0  0  0  0  0  0  0  0  0
   43.7591  -22.9493   31.1795 H   0  0  0  0  0  0  0  0  0  0  0  0
   42.1980  -22.2883   31.5449 H   0  0  0  0  0  0  0  0  0  0  0  0
 26 27  1  0  0  0
 27 28  2  0  0  0
 27 29  2  0  0  0
 27 20  1  0  0  0
 20 21  2  0  0  0
 21 22  1  0  0  0
 22 23  2  0  0  0
 23 24  1  0  0  0
 24 25  2  0  0  0
 23  1  1  0  0  0
  1  2  2  0  0  0
  2  3  1  0  0  0
  3  4  2  0  0  0
  4  5  1  0  0  0
  5  6  2  0  0  0
  4  7  1  0  0  0
  7  8  2  0  0  0
  7  9  1  0  0  0
  9 10  1  0  0  0
 10 11  1  0  0  0
 11 12  1  0  0  0
 12 13  1  0  0  0
 13 14  1  0  0  0
 12 15  1  0  0  0
 15 16  2  0  0  0
 15 17  1  0  0  0
 17 18  1  0  0  0
 18 19  1  0  0  0
 25 20  1  0  0  0
  6  1  1  0  0  0
 14  9  1  0  0  0
 19 17  1  0  0  0
 26 30  1  0  0  0
 26 31  1  0  0  0
M  END
> <minimizedAffinity>
-1.90522

> <CNNscore>
0.5265237689

> <CNNaffinity>
4.5168733597

> <CNN_VS>
2.3782413006

> <CNNaffinity_variance>
0.4052913785

$$$$
[H]c1c([H])c(-c2c([H])c([H])c(S(=O)(=O)N([H])[H])c([H])c2[H])c([H])c([H])c1C(=O)N1C([H])([H])C([H])([H])N(C(=O)C2([H])C([H])([H])C2([H])[H])C([H])([H])C1([H])[H]


 31 34  0  0  0  0  0  0  0  0999 V2000
   39.2537  -23.5568   35.0812 C   0  0  0  0  0  0  0  0  0  0  0  0
   39.4620  -22.6365   36.0783 C   0  0  0  0  0  0  0  0  0  0  0  0
   38.5953  -22.5511   37.1451 C   0  0  0  0  0  0  0  0  0  0  0  0
   37.4663  -23.3770   37.2865 C   0  0  0  0  0  0  0  0  0  0  0  0
   37.2683  -24.2815   36.3024 C   0  0  0  0  0  0  0  0  0  0  0  0
   38.1606  -24.3698   35.2020 C   0  0  0  0  0  0  0  0  0  0  0  0
   36.6800  -23.2303   38.4560 C   0  0  0  0  0  0  0  0  0  0  0  0
   36.7803  -24.2189   39.3491 O   0  0  0  0  0  0  0  0  0  0  0  0
   35.8180  -22.2159   38.8261 N   0  0  0  0  0  0  0  0  0  0  0  0
   35.4725  -20.9783   38.2078 C   0  0  0  0  0  0  0  0  0  0  0  0
   34.0934  -21.1171   37.6501 C   0  0  0  0  0  0  0  0  0  0  0  0
   33.2221  -21.9944   38.4357 N   0  0  0  0  0  0  0  0  0  0  0  0
   33.5671  -22.4984   39.7170 C   0  0  0  0  0  0  0  0  0  0  0  0
   35.0270  -22.4013   40.0972 C   0  0  0  0  0  0  0  0  0  0  0  0
   31.9779  -22.2972   37.8442 C   0  0  0  0  0  0  0  0  0  0  0  0
   31.8251  -21.6941   36.6796 O   0  0  0  0  0  0  0  0  0  0  0  0
   30.8887  -23.1356   38.3090 C   0  0  0  0  0  0  0  0  0  0  0  0
   30.3556  -24.3279   37.6084 C   0  0  0  0  0  0  0  0  0  0  0  0
   30.9796  -24.4323   38.9735 C   0  0  0  0  0  0  0  0  0  0  0  0
   41.9027  -23.8664   31.7416 C   0  0  0  0  0  0  0  0  0  0  0  0
   41.9438  -22.7792   32.5876 C   0  0  0  0  0  0  0  0  0  0  0  0
   41.0823  -22.6890   33.6651 C   0  0  0  0  0  0  0  0  0  0  0  0
   40.1516  -23.6705   33.9417 C   0  0  0  0  0  0  0  0  0  0  0  0
   40.1161  -24.7559   33.0904 C   0  0  0  0  0  0  0  0  0  0  0  0
   40.9755  -24.8496   32.0125 C   0  0  0  0  0  0  0  0  0  0  0  0
   42.4721  -22.9780   29.0738 N   0  0  0  0  0  0  0  0  0  0  0  0
   42.9931  -23.9934   30.3692 S   0  0  0  0  0  0  0  0  0  0  0  0
   42.9995  -25.4402   29.9544 O   0  0  0  0  0  0  0  0  0  0  0  0
   44.3922  -23.6225   30.7721 O   0  0  0  0  0  0  0  0  0  0  0  0
   43.2463  -22.9467   28.3741 H   0  0  0  0  0  0  0  0  0  0  0  0
   42.2743  -22.0399   29.4879 H   0  0  0  0  0  0  0  0  0  0  0  0
 26 27  1  0  0  0
 27 28  2  0  0  0
 27 29  2  0  0  0
 27 20  1  0  0  0
 20 21  2  0  0  0
 21 22  1  0  0  0
 22 23  2  0  0  0
 23 24  1  0  0  0
 24 25  2  0  0  0
 23  1  1  0  0  0
  1  2  2  0  0  0
  2  3  1  0  0  0
  3  4  2  0  0  0
  4  5  1  0  0  0
  5  6  2  0  0  0
  4  7  1  0  0  0
  7  8  2  0  0  0
  7  9  1  0  0  0
  9 10  1  0  0  0
 10 11  1  0  0  0
 11 12  1  0  0  0
 12 13  1  0  0  0
 13 14  1  0  0  0
 12 15  1  0  0  0
 15 16  2  0  0  0
 15 17  1  0  0  0
 17 18  1  0  0  0
 18 19  1  0  0  0
 25 20  1  0  0  0
  6  1  1  0  0  0
 14  9  1  0  0  0
 19 17  1  0  0  0
 26 30  1  0  0  0
 26 31  1  0  0  0
M  END
> <minimizedAffinity>
-3.23111

> <CNNscore>
0.5181945562

> <CNNaffinity>
4.6191220284

> <CNN_VS>
2.3936038017

> <CNNaffinity_variance>
0.2390797436

$$$$
[H]c1c([H])c(-c2c([H])c([H])c(S(=O)(=O)N([H])[H])c([H])c2[H])c([H])c([H])c1C(=O)N1C([H])([H])C([H])([H])N(C(=O)C2([H])C([H])([H])C2([H])[H])C([H])([H])C1([H])[H]


 31 34  0  0  0  0  0  0  0  0999 V2000
   38.1967  -20.9115   37.2068 C   0  0  0  0  0  0  0  0  0  0  0  0
   37.0048  -20.3777   37.6298 C   0  0  0  0  0  0  0  0  0  0  0  0
   35.8761  -21.1624   37.7135 C   0  0  0  0  0  0  0  0  0  0  0  0
   35.8631  -22.5284   37.3814 C   0  0  0  0  0  0  0  0  0  0  0  0
   37.0399  -23.0476   36.9673 C   0  0  0  0  0  0  0  0  0  0  0  0
   38.2036  -22.2395   36.8799 C   0  0  0  0  0  0  0  0  0  0  0  0
   34.6525  -23.2426   37.5604 C   0  0  0  0  0  0  0  0  0  0  0  0
   33.6848  -22.9721   36.6798 O   0  0  0  0  0  0  0  0  0  0  0  0
   34.3093  -24.1864   38.5094 N   0  0  0  0  0  0  0  0  0  0  0  0
   35.0461  -24.7916   39.5696 C   0  0  0  0  0  0  0  0  0  0  0  0
   34.5541  -24.2116   40.8555 C   0  0  0  0  0  0  0  0  0  0  0  0
   33.1303  -23.8669   40.8434 N   0  0  0  0  0  0  0  0  0  0  0  0
   32.2426  -24.2388   39.8000 C   0  0  0  0  0  0  0  0  0  0  0  0
   32.8876  -24.6907   38.5097 C   0  0  0  0  0  0  0  0  0  0  0  0
   32.6730  -23.1488   41.9681 C   0  0  0  0  0  0  0  0  0  0  0  0
   33.6356  -22.9449   42.8485 O   0  0  0  0  0  0  0  0  0  0  0  0
   31.3570  -22.6267   42.2860 C   0  0  0  0  0  0  0  0  0  0  0  0
   30.2590  -23.3843   42.9319 C   0  0  0  0  0  0  0  0  0  0  0  0
   30.8656  -22.1710   43.5829 C   0  0  0  0  0  0  0  0  0  0  0  0
   41.7575  -18.5632   36.9387 C   0  0  0  0  0  0  0  0  0  0  0  0
   41.5793  -19.4771   37.9548 C   0  0  0  0  0  0  0  0  0  0  0  0
   40.4234  -20.2316   38.0322 C   0  0  0  0  0  0  0  0  0  0  0  0
   39.4056  -20.1077   37.1078 C   0  0  0  0  0  0  0  0  0  0  0  0
   39.5910  -19.1907   36.0934 C   0  0  0  0  0  0  0  0  0  0  0  0
   40.7447  -18.4347   36.0126 C   0  0  0  0  0  0  0  0  0  0  0  0
   44.3501  -18.3158   35.7354 N   0  0  0  0  0  0  0  0  0  0  0  0
   43.2226  -17.5988   36.8286 S   0  0  0  0  0  0  0  0  0  0  0  0
   43.7928  -17.5182   38.2192 O   0  0  0  0  0  0  0  0  0  0  0  0
   42.9007  -16.2015   36.3800 O   0  0  0  0  0  0  0  0  0  0  0  0
   45.1049  -17.6149   35.5650 H   0  0  0  0  0  0  0  0  0  0  0  0
   43.8203  -18.5468   34.8656 H   0  0  0  0  0  0  0  0  0  0  0  0
 26 27  1  0  0  0
 27 28  2  0  0  0
 27 29  2  0  0  0
 27 20  1  0  0  0
 20 21  2  0  0  0
 21 22  1  0  0  0
 22 23  2  0  0  0
 23 24  1  0  0  0
 24 25  2  0  0  0
 23  1  1  0  0  0
  1  2  2  0  0  0
  2  3  1  0  0  0
  3  4  2  0  0  0
  4  5  1  0  0  0
  5  6  2  0  0  0
  4  7  1  0  0  0
  7  8  2  0  0  0
  7  9  1  0  0  0
  9 10  1  0  0  0
 10 11  1  0  0  0
 11 12  1  0  0  0
 12 13  1  0  0  0
 13 14  1  0  0  0
 12 15  1  0  0  0
 15 16  2  0  0  0
 15 17  1  0  0  0
 17 18  1  0  0  0
 18 19  1  0  0  0
 25 20  1  0  0  0
  6  1  1  0  0  0
 14  9  1  0  0  0
 19 17  1  0  0  0
 26 30  1  0  0  0
 26 31  1  0  0  0
M  END
> <minimizedAffinity>
-3.38508

> <CNNscore>
0.5098933578

> <CNNaffinity>
4.4543542862

> <CNN_VS>
2.2712457180

> <CNNaffinity_variance>
0.0991877243

$$$$
[H]c1c([H])c(-c2c([H])c([H])c(S(=O)(=O)N([H])[H])c([H])c2[H])c([H])c([H])c1C(=O)N1C([H])([H])C([H])([H])N(C(=O)C2([H])C([H])([H])C2([H])[H])C([H])([H])C1([H])[H]


 31 34  0  0  0  0  0  0  0  0999 V2000
   35.9627  -18.6322   37.1520 C   0  0  0  0  0  0  0  0  0  0  0  0
   34.9053  -19.3327   37.6771 C   0  0  0  0  0  0  0  0  0  0  0  0
   34.9801  -20.6984   37.8376 C   0  0  0  0  0  0  0  0  0  0  0  0
   36.1129  -21.4530   37.4856 C   0  0  0  0  0  0  0  0  0  0  0  0
   37.1505  -20.7570   36.9709 C   0  0  0  0  0  0  0  0  0  0  0  0
   37.0740  -19.3494   36.8042 C   0  0  0  0  0  0  0  0  0  0  0  0
   36.0902  -22.8450   37.7488 C   0  0  0  0  0  0  0  0  0  0  0  0
   36.0378  -23.6369   36.6741 O   0  0  0  0  0  0  0  0  0  0  0  0
   36.1161  -23.5225   38.9527 N   0  0  0  0  0  0  0  0  0  0  0  0
   36.2271  -23.0753   40.3022 C   0  0  0  0  0  0  0  0  0  0  0  0
   34.8867  -23.2277   40.9443 C   0  0  0  0  0  0  0  0  0  0  0  0
   34.1168  -24.3694   40.4445 N   0  0  0  0  0  0  0  0  0  0  0  0
   34.6585  -25.3678   39.5932 C   0  0  0  0  0  0  0  0  0  0  0  0
   35.9635  -25.0228   38.9126 C   0  0  0  0  0  0  0  0  0  0  0  0
   32.7798  -24.4375   40.8889 C   0  0  0  0  0  0  0  0  0  0  0  0
   32.4820  -23.4485   41.7115 O   0  0  0  0  0  0  0  0  0  0  0  0
   31.7310  -25.3944   40.5894 C   0  0  0  0  0  0  0  0  0  0  0  0
   30.3642  -25.0616   40.1229 C   0  0  0  0  0  0  0  0  0  0  0  0
   31.3069  -25.8742   39.2775 C   0  0  0  0  0  0  0  0  0  0  0  0
   35.8281  -14.3909   36.6430 C   0  0  0  0  0  0  0  0  0  0  0  0
   36.3112  -14.9562   37.8034 C   0  0  0  0  0  0  0  0  0  0  0  0
   36.3502  -16.3295   37.9577 C   0  0  0  0  0  0  0  0  0  0  0  0
   35.9130  -17.1893   36.9701 C   0  0  0  0  0  0  0  0  0  0  0  0
   35.4305  -16.6163   35.8112 C   0  0  0  0  0  0  0  0  0  0  0  0
   35.3899  -15.2442   35.6532 C   0  0  0  0  0  0  0  0  0  0  0  0
   34.4807  -11.9578   37.3468 N   0  0  0  0  0  0  0  0  0  0  0  0
   35.7742  -12.6467   36.4341 S   0  0  0  0  0  0  0  0  0  0  0  0
   35.5932  -12.3930   34.9616 O   0  0  0  0  0  0  0  0  0  0  0  0
   37.0765  -12.0257   36.8530 O   0  0  0  0  0  0  0  0  0  0  0  0
   34.6135  -10.9223   37.3392 H   0  0  0  0  0  0  0  0  0  0  0  0
   34.5450  -12.3584   38.3091 H   0  0  0  0  0  0  0  0  0  0  0  0
 26 27  1  0  0  0
 27 28  2  0  0  0
 27 29  2  0  0  0
 27 20  1  0  0  0
 20 21  2  0  0  0
 21 22  1  0  0  0
 22 23  2  0  0  0
 23 24  1  0  0  0
 24 25  2  0  0  0
 23  1  1  0  0  0
  1  2  2  0  0  0
  2  3  1  0  0  0
  3  4  2  0  0  0
  4  5  1  0  0  0
  5  6  2  0  0  0
  4  7  1  0  0  0
  7  8  2  0  0  0
  7  9  1  0  0  0
  9 10  1  0  0  0
 10 11  1  0  0  0
 11 12  1  0  0  0
 12 13  1  0  0  0
 13 14  1  0  0  0
 12 15  1  0  0  0
 15 16  2  0  0  0
 15 17  1  0  0  0
 17 18  1  0  0  0
 18 19  1  0  0  0
 25 20  1  0  0  0
  6  1  1  0  0  0
 14  9  1  0  0  0
 19 17  1  0  0  0
 26 30  1  0  0  0
 26 31  1  0  0  0
M  END
> <minimizedAffinity>
-2.88378

> <CNNscore>
0.4898307025

> <CNNaffinity>
4.8574447632

> <CNN_VS>
2.3793256283

> <CNNaffinity_variance>
0.3096250892

$$$$
[H]c1c([H])c(-c2c([H])c([H])c(S(=O)(=O)N([H])[H])c([H])c2[H])c([H])c([H])c1C(=O)N1C([H])([H])C([H])([H])N(C(=O)C2([H])C([H])([H])C2([H])[H])C([H])([H])C1([H])[H]


 31 34  0  0  0  0  0  0  0  0999 V2000
   35.7553  -16.5565   36.5376 C   0  0  0  0  0  0  0  0  0  0  0  0
   35.8293  -15.3406   37.1706 C   0  0  0  0  0  0  0  0  0  0  0  0
   34.8193  -14.4151   37.0303 C   0  0  0  0  0  0  0  0  0  0  0  0
   33.6715  -14.6418   36.2507 C   0  0  0  0  0  0  0  0  0  0  0  0
   33.6045  -15.8411   35.6318 C   0  0  0  0  0  0  0  0  0  0  0  0
   34.6454  -16.7955   35.7752 C   0  0  0  0  0  0  0  0  0  0  0  0
   32.6761  -13.6339   36.2277 C   0  0  0  0  0  0  0  0  0  0  0  0
   31.9047  -13.6065   35.1372 O   0  0  0  0  0  0  0  0  0  0  0  0
   32.3703  -12.6649   37.1640 N   0  0  0  0  0  0  0  0  0  0  0  0
   32.8946  -12.3852   38.4602 C   0  0  0  0  0  0  0  0  0  0  0  0
   33.7319  -11.1522   38.3567 C   0  0  0  0  0  0  0  0  0  0  0  0
   33.2482  -10.1892   37.3643 N   0  0  0  0  0  0  0  0  0  0  0  0
   31.9924  -10.3000   36.7118 C   0  0  0  0  0  0  0  0  0  0  0  0
   31.3163  -11.6493   36.7987 C   0  0  0  0  0  0  0  0  0  0  0  0
   34.1105   -9.1033   37.1059 C   0  0  0  0  0  0  0  0  0  0  0  0
   35.2021   -9.1524   37.8471 O   0  0  0  0  0  0  0  0  0  0  0  0
   33.9781   -7.9882   36.1870 C   0  0  0  0  0  0  0  0  0  0  0  0
   34.5917   -7.8994   34.8408 C   0  0  0  0  0  0  0  0  0  0  0  0
   33.0986   -7.8861   35.0262 C   0  0  0  0  0  0  0  0  0  0  0  0
   38.8603  -19.4708   36.9017 C   0  0  0  0  0  0  0  0  0  0  0  0
   39.0554  -18.3035   36.1956 C   0  0  0  0  0  0  0  0  0  0  0  0
   38.0442  -17.3674   36.0840 C   0  0  0  0  0  0  0  0  0  0  0  0
   36.8067  -17.5543   36.6666 C   0  0  0  0  0  0  0  0  0  0  0  0
   36.6185  -18.7253   37.3719 C   0  0  0  0  0  0  0  0  0  0  0  0
   37.6266  -19.6633   37.4857 C   0  0  0  0  0  0  0  0  0  0  0  0
   40.4710  -21.4064   35.5271 N   0  0  0  0  0  0  0  0  0  0  0  0
   40.1379  -20.6681   37.0518 S   0  0  0  0  0  0  0  0  0  0  0  0
   39.6616  -21.6855   38.0536 O   0  0  0  0  0  0  0  0  0  0  0  0
   41.3894  -20.0377   37.5934 O   0  0  0  0  0  0  0  0  0  0  0  0
   41.3511  -21.9574   35.6355 H   0  0  0  0  0  0  0  0  0  0  0  0
   40.5713  -20.6321   34.8336 H   0  0  0  0  0  0  0  0  0  0  0  0
 26 27  1  0  0  0
 27 28  2  0  0  0
 27 29  2  0  0  0
 27 20  1  0  0  0
 20 21  2  0  0  0
 21 22  1  0  0  0
 22 23  2  0  0  0
 23 24  1  0  0  0
 24 25  2  0  0  0
 23  1  1  0  0  0
  1  2  2  0  0  0
  2  3  1  0  0  0
  3  4  2  0  0  0
  4  5  1  0  0  0
  5  6  2  0  0  0
  4  7  1  0  0  0
  7  8  2  0  0  0
  7  9  1  0  0  0
  9 10  1  0  0  0
 10 11  1  0  0  0
 11 12  1  0  0  0
 12 13  1  0  0  0
 13 14  1  0  0  0
 12 15  1  0  0  0
 15 16  2  0  0  0
 15 17  1  0  0  0
 17 18  1  0  0  0
 18 19  1  0  0  0
 25 20  1  0  0  0
  6  1  1  0  0  0
 14  9  1  0  0  0
 19 17  1  0  0  0
 26 30  1  0  0  0
 26 31  1  0  0  0
M  END
> <minimizedAffinity>
-1.58214

> <CNNscore>
0.4783024490

> <CNNaffinity>
5.6832361221

> <CNN_VS>
2.7183058262

> <CNNaffinity_variance>
0.8610695004

$$$$
