[H]c1nc(N([H])c2c([H])c([H])c(C(=O)N3C([H])([H])C([H])([H])SC([H])([H])C3([H])[H])c(Cl)c2[H])c2nc([H])c([C@@]([H])(N3C([H])([H])C([H])([H])C([H])([H])C([H])([H])[C@]3([H])C([H])([H])[H])C([H])([H])[H])n2n1


 35 39  0  0  0  0  0  0  0  0999 V2000
   33.2166  -22.1845   37.6367 C   0  0  0  0  0  0  0  0  0  0  0  0
   33.9824  -23.0427   36.8783 C   0  0  0  0  0  0  0  0  0  0  0  0
   35.2278  -23.1368   37.4234 N   0  0  0  0  0  0  0  0  0  0  0  0
   35.2358  -22.3534   38.4986 C   0  0  0  0  0  0  0  0  0  0  0  0
   36.2826  -22.1046   39.4087 C   0  0  0  0  0  0  0  0  0  0  0  0
   35.9742  -21.2671   40.3898 N   0  0  0  0  0  0  0  0  0  0  0  0
   34.7646  -20.6989   40.5114 C   0  0  0  0  0  0  0  0  0  0  0  0
   33.7730  -20.9429   39.6380 N   0  0  0  0  0  0  0  0  0  0  0  0
   34.0344  -21.7731   38.6416 N   0  0  0  0  0  0  0  0  0  0  0  0
   30.8640  -22.8781   37.9030 C   0  0  0  0  0  0  0  0  0  0  0  0
   31.7998  -21.8099   37.3842 C   0  0  0  0  0  0  0  0  0  0  0  0
   31.5915  -21.4577   36.0225 N   0  0  0  0  0  0  0  0  0  0  0  0
   30.3232  -21.7730   35.4818 C   0  0  0  0  0  0  0  0  0  0  0  0
   29.3999  -20.5891   35.5564 C   0  0  0  0  0  0  0  0  0  0  0  0
   29.9908  -19.3532   34.9568 C   0  0  0  0  0  0  0  0  0  0  0  0
   31.4011  -19.0853   35.3817 C   0  0  0  0  0  0  0  0  0  0  0  0
   32.2411  -20.3118   35.5431 C   0  0  0  0  0  0  0  0  0  0  0  0
   32.9489  -20.6681   34.2279 C   0  0  0  0  0  0  0  0  0  0  0  0
   37.5180  -22.7267   39.2705 N   0  0  0  0  0  0  0  0  0  0  0  0
   37.5531  -23.7890   39.3844 H   0  0  0  0  0  0  0  0  0  0  0  0
   38.7373  -22.1031   38.9914 C   0  0  0  0  0  0  0  0  0  0  0  0
   39.3475  -21.2025   39.8104 C   0  0  0  0  0  0  0  0  0  0  0  0
   40.5866  -20.6382   39.4818 C   0  0  0  0  0  0  0  0  0  0  0  0
   41.2493  -20.9550   38.3293 C   0  0  0  0  0  0  0  0  0  0  0  0
   40.6187  -21.8715   37.5027 C   0  0  0  0  0  0  0  0  0  0  0  0
   41.4416  -22.2982   36.0147 Cl  0  0  0  0  0  0  0  0  0  0  0  0
   39.4238  -22.4264   37.8041 C   0  0  0  0  0  0  0  0  0  0  0  0
   42.5310  -20.3873   37.9542 C   0  0  0  0  0  0  0  0  0  0  0  0
   43.5802  -20.9606   38.3175 O   0  0  0  0  0  0  0  0  0  0  0  0
   42.5687  -19.1854   37.1792 N   0  0  0  0  0  0  0  0  0  0  0  0
   43.8523  -18.6239   36.8142 C   0  0  0  0  0  0  0  0  0  0  0  0
   44.0928  -18.8542   35.3422 C   0  0  0  0  0  0  0  0  0  0  0  0
   42.6132  -18.4642   34.3655 S   0  0  0  0  0  0  0  0  0  0  0  0
   41.1040  -18.8116   35.3171 C   0  0  0  0  0  0  0  0  0  0  0  0
   41.3715  -18.5207   36.7628 C   0  0  0  0  0  0  0  0  0  0  0  0
 10 11  1  0  0  0
 11 12  1  0  0  0
 12 13  1  0  0  0
 13 14  1  0  0  0
 14 15  1  0  0  0
 15 16  1  0  0  0
 16 17  1  0  0  0
 17 18  1  0  0  0
 11  1  1  0  0  0
  1  2  2  0  0  0
  2  3  1  0  0  0
  3  4  2  0  0  0
  4  5  1  0  0  0
  5 19  1  0  0  0
 19 21  1  0  0  0
 21 22  2  0  0  0
 22 23  1  0  0  0
 23 24  2  0  0  0
 24 28  1  0  0  0
 28 29  2  0  0  0
 28 30  1  0  0  0
 30 31  1  0  0  0
 31 32  1  0  0  0
 32 33  1  0  0  0
 33 34  1  0  0  0
 34 35  1  0  0  0
 24 25  1  0  0  0
 25 26  1  0  0  0
 25 27  2  0  0  0
  5  6  2  0  0  0
  6  7  1  0  0  0
  7  8  2  0  0  0
  8  9  1  0  0  0
 17 12  1  0  0  0
  9  1  1  0  0  0
  9  4  1  0  0  0
 27 21  1  0  0  0
 35 30  1  0  0  0
 19 20  1  0  0  0
M  END
> <minimizedAffinity>
-5.30523

> <CNNscore>
0.2911945879

> <CNNaffinity>
5.6254925728

> <CNN_VS>
1.6381130219

> <CNNaffinity_variance>
0.0454221144

$$$$
[H]c1nc(N([H])c2c([H])c([H])c(C(=O)N3C([H])([H])C([H])([H])SC([H])([H])C3([H])[H])c(Cl)c2[H])c2nc([H])c([C@@]([H])(N3C([H])([H])C([H])([H])C([H])([H])C([H])([H])[C@]3([H])C([H])([H])[H])C([H])([H])[H])n2n1


 35 39  0  0  0  0  0  0  0  0999 V2000
   34.0069  -13.6273   37.4412 C   0  0  0  0  0  0  0  0  0  0  0  0
   33.3393  -14.5450   36.6601 C   0  0  0  0  0  0  0  0  0  0  0  0
   34.2179  -15.4925   36.2273 N   0  0  0  0  0  0  0  0  0  0  0  0
   35.4070  -15.1704   36.7292 C   0  0  0  0  0  0  0  0  0  0  0  0
   36.6431  -15.8305   36.5791 C   0  0  0  0  0  0  0  0  0  0  0  0
   37.6567  -15.2558   37.2125 N   0  0  0  0  0  0  0  0  0  0  0  0
   37.5227  -14.1358   37.9395 C   0  0  0  0  0  0  0  0  0  0  0  0
   36.3394  -13.5140   38.0764 N   0  0  0  0  0  0  0  0  0  0  0  0
   35.2983  -14.0515   37.4618 N   0  0  0  0  0  0  0  0  0  0  0  0
   32.2255  -12.8371   38.9542 C   0  0  0  0  0  0  0  0  0  0  0  0
   33.4126  -12.4379   38.1072 C   0  0  0  0  0  0  0  0  0  0  0  0
   33.1447  -11.4004   37.1727 N   0  0  0  0  0  0  0  0  0  0  0  0
   31.8764  -11.4336   36.5477 C   0  0  0  0  0  0  0  0  0  0  0  0
   30.9005  -10.5465   37.2689 C   0  0  0  0  0  0  0  0  0  0  0  0
   31.4126   -9.1545   37.4597 C   0  0  0  0  0  0  0  0  0  0  0  0
   32.8212   -9.0880   37.9622 C   0  0  0  0  0  0  0  0  0  0  0  0
   33.7234  -10.1465   37.4131 C   0  0  0  0  0  0  0  0  0  0  0  0
   34.4053   -9.6699   36.1225 C   0  0  0  0  0  0  0  0  0  0  0  0
   36.7465  -17.0028   35.8393 N   0  0  0  0  0  0  0  0  0  0  0  0
   37.0369  -16.9174   34.8140 H   0  0  0  0  0  0  0  0  0  0  0  0
   36.5106  -18.3012   36.2997 C   0  0  0  0  0  0  0  0  0  0  0  0
   37.3963  -19.0321   37.0315 C   0  0  0  0  0  0  0  0  0  0  0  0
   37.0818  -20.3186   37.4871 C   0  0  0  0  0  0  0  0  0  0  0  0
   35.8783  -20.9108   37.2252 C   0  0  0  0  0  0  0  0  0  0  0  0
   34.9850  -20.1585   36.4788 C   0  0  0  0  0  0  0  0  0  0  0  0
   33.4321  -20.8902   36.1234 Cl  0  0  0  0  0  0  0  0  0  0  0  0
   35.2713  -18.9158   36.0316 C   0  0  0  0  0  0  0  0  0  0  0  0
   35.5198  -22.2425   37.6766 C   0  0  0  0  0  0  0  0  0  0  0  0
   35.8368  -23.2281   36.9768 O   0  0  0  0  0  0  0  0  0  0  0  0
   34.8118  -22.4010   38.9095 N   0  0  0  0  0  0  0  0  0  0  0  0
   34.4542  -23.7333   39.3490 C   0  0  0  0  0  0  0  0  0  0  0  0
   35.3334  -24.1237   40.5119 C   0  0  0  0  0  0  0  0  0  0  0  0
   35.4721  -22.7708   41.7142 S   0  0  0  0  0  0  0  0  0  0  0  0
   35.3738  -21.1578   40.8822 C   0  0  0  0  0  0  0  0  0  0  0  0
   34.4417  -21.2769   39.7146 C   0  0  0  0  0  0  0  0  0  0  0  0
 10 11  1  0  0  0
 11 12  1  0  0  0
 12 13  1  0  0  0
 13 14  1  0  0  0
 14 15  1  0  0  0
 15 16  1  0  0  0
 16 17  1  0  0  0
 17 18  1  0  0  0
 11  1  1  0  0  0
  1  2  2  0  0  0
  2  3  1  0  0  0
  3  4  2  0  0  0
  4  5  1  0  0  0
  5 19  1  0  0  0
 19 21  1  0  0  0
 21 22  2  0  0  0
 22 23  1  0  0  0
 23 24  2  0  0  0
 24 28  1  0  0  0
 28 29  2  0  0  0
 28 30  1  0  0  0
 30 31  1  0  0  0
 31 32  1  0  0  0
 32 33  1  0  0  0
 33 34  1  0  0  0
 34 35  1  0  0  0
 24 25  1  0  0  0
 25 26  1  0  0  0
 25 27  2  0  0  0
  5  6  2  0  0  0
  6  7  1  0  0  0
  7  8  2  0  0  0
  8  9  1  0  0  0
 17 12  1  0  0  0
  9  1  1  0  0  0
  9  4  1  0  0  0
 27 21  1  0  0  0
 35 30  1  0  0  0
 19 20  1  0  0  0
M  END
> <minimizedAffinity>
-5.28868

> <CNNscore>
0.2133896351

> <CNNaffinity>
6.3080339432

> <CNN_VS>
1.3460690975

> <CNNaffinity_variance>
0.0476123020

$$$$
[H]c1nc(N([H])c2c([H])c([H])c(C(=O)N3C([H])([H])C([H])([H])SC([H])([H])C3([H])[H])c(Cl)c2[H])c2nc([H])c([C@@]([H])(N3C([H])([H])C([H])([H])C([H])([H])C([H])([H])[C@]3([H])C([H])([H])[H])C([H])([H])[H])n2n1


 35 39  0  0  0  0  0  0  0  0999 V2000
   32.9706  -22.3810   37.3542 C   0  0  0  0  0  0  0  0  0  0  0  0
   33.4979  -23.6467   37.2201 C   0  0  0  0  0  0  0  0  0  0  0  0
   34.8507  -23.5900   37.3740 N   0  0  0  0  0  0  0  0  0  0  0  0
   35.1578  -22.3154   37.5993 C   0  0  0  0  0  0  0  0  0  0  0  0
   36.4209  -21.7324   37.8251 C   0  0  0  0  0  0  0  0  0  0  0  0
   36.3967  -20.4211   38.0221 N   0  0  0  0  0  0  0  0  0  0  0  0
   35.2641  -19.7016   38.0087 C   0  0  0  0  0  0  0  0  0  0  0  0
   34.0645  -20.2672   37.7925 N   0  0  0  0  0  0  0  0  0  0  0  0
   34.0391  -21.5745   37.5908 N   0  0  0  0  0  0  0  0  0  0  0  0
   30.6859  -22.9266   38.1087 C   0  0  0  0  0  0  0  0  0  0  0  0
   31.5340  -22.0093   37.2571 C   0  0  0  0  0  0  0  0  0  0  0  0
   31.1143  -21.9113   35.9022 N   0  0  0  0  0  0  0  0  0  0  0  0
   30.0652  -21.0008   35.6366 C   0  0  0  0  0  0  0  0  0  0  0  0
   30.6089  -19.6727   35.1895 C   0  0  0  0  0  0  0  0  0  0  0  0
   31.5701  -19.7926   34.0501 C   0  0  0  0  0  0  0  0  0  0  0  0
   32.5945  -20.8695   34.2292 C   0  0  0  0  0  0  0  0  0  0  0  0
   32.0845  -22.1002   34.9082 C   0  0  0  0  0  0  0  0  0  0  0  0
   31.5415  -23.1065   33.8834 C   0  0  0  0  0  0  0  0  0  0  0  0
   37.5746  -22.5072   37.8571 N   0  0  0  0  0  0  0  0  0  0  0  0
   37.4975  -23.4939   38.2612 H   0  0  0  0  0  0  0  0  0  0  0  0
   38.8432  -22.1300   37.4081 C   0  0  0  0  0  0  0  0  0  0  0  0
   39.1102  -21.6599   36.1584 C   0  0  0  0  0  0  0  0  0  0  0  0
   40.4026  -21.2707   35.7845 C   0  0  0  0  0  0  0  0  0  0  0  0
   41.4624  -21.3403   36.6447 C   0  0  0  0  0  0  0  0  0  0  0  0
   41.1796  -21.8211   37.9134 C   0  0  0  0  0  0  0  0  0  0  0  0
   42.5180  -21.9250   39.0410 Cl  0  0  0  0  0  0  0  0  0  0  0  0
   39.9389  -22.2006   38.2914 C   0  0  0  0  0  0  0  0  0  0  0  0
   42.8147  -20.9504   36.2910 C   0  0  0  0  0  0  0  0  0  0  0  0
   43.5657  -21.7865   35.7444 O   0  0  0  0  0  0  0  0  0  0  0  0
   43.2612  -19.6213   36.5749 N   0  0  0  0  0  0  0  0  0  0  0  0
   44.6137  -19.2434   36.2229 C   0  0  0  0  0  0  0  0  0  0  0  0
   44.5749  -18.3188   35.0307 C   0  0  0  0  0  0  0  0  0  0  0  0
   43.2921  -17.0493   35.2249 S   0  0  0  0  0  0  0  0  0  0  0  0
   41.8883  -17.6941   36.1826 C   0  0  0  0  0  0  0  0  0  0  0  0
   42.4084  -18.6594   37.2044 C   0  0  0  0  0  0  0  0  0  0  0  0
 10 11  1  0  0  0
 11 12  1  0  0  0
 12 13  1  0  0  0
 13 14  1  0  0  0
 14 15  1  0  0  0
 15 16  1  0  0  0
 16 17  1  0  0  0
 17 18  1  0  0  0
 11  1  1  0  0  0
  1  2  2  0  0  0
  2  3  1  0  0  0
  3  4  2  0  0  0
  4  5  1  0  0  0
  5 19  1  0  0  0
 19 21  1  0  0  0
 21 22  2  0  0  0
 22 23  1  0  0  0
 23 24  2  0  0  0
 24 28  1  0  0  0
 28 29  2  0  0  0
 28 30  1  0  0  0
 30 31  1  0  0  0
 31 32  1  0  0  0
 32 33  1  0  0  0
 33 34  1  0  0  0
 34 35  1  0  0  0
 24 25  1  0  0  0
 25 26  1  0  0  0
 25 27  2  0  0  0
  5  6  2  0  0  0
  6  7  1  0  0  0
  7  8  2  0  0  0
  8  9  1  0  0  0
 17 12  1  0  0  0
  9  1  1  0  0  0
  9  4  1  0  0  0
 27 21  1  0  0  0
 35 30  1  0  0  0
 19 20  1  0  0  0
M  END
> <minimizedAffinity>
-4.79716

> <CNNscore>
0.2097449005

> <CNNaffinity>
5.6615753174

> <CNN_VS>
1.1874865294

> <CNNaffinity_variance>
0.0267590173

$$$$
[H]c1nc(N([H])c2c([H])c([H])c(C(=O)N3C([H])([H])C([H])([H])SC([H])([H])C3([H])[H])c(Cl)c2[H])c2nc([H])c([C@@]([H])(N3C([H])([H])C([H])([H])C([H])([H])C([H])([H])[C@]3([H])C([H])([H])[H])C([H])([H])[H])n2n1


 35 39  0  0  0  0  0  0  0  0999 V2000
   33.9909  -13.5385   37.4610 C   0  0  0  0  0  0  0  0  0  0  0  0
   33.3534  -14.4612   36.6608 C   0  0  0  0  0  0  0  0  0  0  0  0
   34.2606  -15.3761   36.2171 N   0  0  0  0  0  0  0  0  0  0  0  0
   35.4376  -15.0293   36.7312 C   0  0  0  0  0  0  0  0  0  0  0  0
   36.6925  -15.6518   36.5771 C   0  0  0  0  0  0  0  0  0  0  0  0
   37.6862  -15.0597   37.2259 N   0  0  0  0  0  0  0  0  0  0  0  0
   37.5169  -13.9565   37.9708 C   0  0  0  0  0  0  0  0  0  0  0  0
   36.3158  -13.3706   38.1113 N   0  0  0  0  0  0  0  0  0  0  0  0
   35.2936  -13.9265   37.4818 N   0  0  0  0  0  0  0  0  0  0  0  0
   32.1860  -12.8256   38.9845 C   0  0  0  0  0  0  0  0  0  0  0  0
   33.3598  -12.3776   38.1435 C   0  0  0  0  0  0  0  0  0  0  0  0
   33.0594  -11.3360   37.2235 N   0  0  0  0  0  0  0  0  0  0  0  0
   31.8276  -11.4439   36.5369 C   0  0  0  0  0  0  0  0  0  0  0  0
   30.7558  -10.6516   37.2319 C   0  0  0  0  0  0  0  0  0  0  0  0
   31.1534   -9.2320   37.4825 C   0  0  0  0  0  0  0  0  0  0  0  0
   32.5282   -9.0772   38.0545 C   0  0  0  0  0  0  0  0  0  0  0  0
   33.5313  -10.0507   37.5235 C   0  0  0  0  0  0  0  0  0  0  0  0
   34.2354   -9.4885   36.2801 C   0  0  0  0  0  0  0  0  0  0  0  0
   36.8328  -16.8081   35.8182 N   0  0  0  0  0  0  0  0  0  0  0  0
   36.8851  -16.7000   34.7559 H   0  0  0  0  0  0  0  0  0  0  0  0
   36.9169  -18.1164   36.3025 C   0  0  0  0  0  0  0  0  0  0  0  0
   37.7302  -19.0786   35.7859 C   0  0  0  0  0  0  0  0  0  0  0  0
   37.7868  -20.3631   36.3411 C   0  0  0  0  0  0  0  0  0  0  0  0
   37.0347  -20.7231   37.4239 C   0  0  0  0  0  0  0  0  0  0  0  0
   36.2098  -19.7366   37.9409 C   0  0  0  0  0  0  0  0  0  0  0  0
   35.2297  -20.1666   39.3294 Cl  0  0  0  0  0  0  0  0  0  0  0  0
   36.1428  -18.4921   37.4184 C   0  0  0  0  0  0  0  0  0  0  0  0
   37.0640  -22.0448   38.0225 C   0  0  0  0  0  0  0  0  0  0  0  0
   36.2818  -22.9223   37.5984 O   0  0  0  0  0  0  0  0  0  0  0  0
   37.9839  -22.3166   39.0837 N   0  0  0  0  0  0  0  0  0  0  0  0
   38.0022  -23.6367   39.6779 C   0  0  0  0  0  0  0  0  0  0  0  0
   39.2489  -24.3622   39.2340 C   0  0  0  0  0  0  0  0  0  0  0  0
   40.7088  -23.2891   39.3457 S   0  0  0  0  0  0  0  0  0  0  0  0
   40.2579  -21.5552   39.0387 C   0  0  0  0  0  0  0  0  0  0  0  0
   38.8801  -21.3158   39.5776 C   0  0  0  0  0  0  0  0  0  0  0  0
 10 11  1  0  0  0
 11 12  1  0  0  0
 12 13  1  0  0  0
 13 14  1  0  0  0
 14 15  1  0  0  0
 15 16  1  0  0  0
 16 17  1  0  0  0
 17 18  1  0  0  0
 11  1  1  0  0  0
  1  2  2  0  0  0
  2  3  1  0  0  0
  3  4  2  0  0  0
  4  5  1  0  0  0
  5 19  1  0  0  0
 19 21  1  0  0  0
 21 22  2  0  0  0
 22 23  1  0  0  0
 23 24  2  0  0  0
 24 28  1  0  0  0
 28 29  2  0  0  0
 28 30  1  0  0  0
 30 31  1  0  0  0
 31 32  1  0  0  0
 32 33  1  0  0  0
 33 34  1  0  0  0
 34 35  1  0  0  0
 24 25  1  0  0  0
 25 26  1  0  0  0
 25 27  2  0  0  0
  5  6  2  0  0  0
  6  7  1  0  0  0
  7  8  2  0  0  0
  8  9  1  0  0  0
 17 12  1  0  0  0
  9  1  1  0  0  0
  9  4  1  0  0  0
 27 21  1  0  0  0
 35 30  1  0  0  0
 19 20  1  0  0  0
M  END
> <minimizedAffinity>
-5.33035

> <CNNscore>
0.1926930994

> <CNNaffinity>
6.3002872467

> <CNN_VS>
1.2140219212

> <CNNaffinity_variance>
0.0339276269

$$$$
[H]c1nc(N([H])c2c([H])c([H])c(C(=O)N3C([H])([H])C([H])([H])SC([H])([H])C3([H])[H])c(Cl)c2[H])c2nc([H])c([C@@]([H])(N3C([H])([H])C([H])([H])C([H])([H])C([H])([H])[C@]3([H])C([H])([H])[H])C([H])([H])[H])n2n1


 35 39  0  0  0  0  0  0  0  0999 V2000
   36.1251  -21.5713   38.7342 C   0  0  0  0  0  0  0  0  0  0  0  0
   37.3257  -20.9097   38.5966 C   0  0  0  0  0  0  0  0  0  0  0  0
   37.1624  -19.8497   37.7559 N   0  0  0  0  0  0  0  0  0  0  0  0
   35.8866  -19.8524   37.3789 C   0  0  0  0  0  0  0  0  0  0  0  0
   35.2129  -18.9637   36.5173 C   0  0  0  0  0  0  0  0  0  0  0  0
   33.9268  -19.2346   36.3400 N   0  0  0  0  0  0  0  0  0  0  0  0
   33.3107  -20.2701   36.9306 C   0  0  0  0  0  0  0  0  0  0  0  0
   33.9623  -21.1118   37.7507 N   0  0  0  0  0  0  0  0  0  0  0  0
   35.2484  -20.8809   37.9579 N   0  0  0  0  0  0  0  0  0  0  0  0
   36.5356  -22.6454   40.9171 C   0  0  0  0  0  0  0  0  0  0  0  0
   35.8742  -22.7796   39.5641 C   0  0  0  0  0  0  0  0  0  0  0  0
   36.2095  -23.9695   38.8619 N   0  0  0  0  0  0  0  0  0  0  0  0
   35.9416  -25.1868   39.5304 C   0  0  0  0  0  0  0  0  0  0  0  0
   34.6088  -25.7440   39.1149 C   0  0  0  0  0  0  0  0  0  0  0  0
   34.4640  -25.8575   37.6309 C   0  0  0  0  0  0  0  0  0  0  0  0
   34.9030  -24.6380   36.8817 C   0  0  0  0  0  0  0  0  0  0  0  0
   36.0963  -23.9511   37.4649 C   0  0  0  0  0  0  0  0  0  0  0  0
   37.3959  -24.5060   36.8642 C   0  0  0  0  0  0  0  0  0  0  0  0
   35.8723  -17.8853   35.9387 N   0  0  0  0  0  0  0  0  0  0  0  0
   36.7244  -18.0954   35.3283 H   0  0  0  0  0  0  0  0  0  0  0  0
   35.5340  -16.5356   36.0691 C   0  0  0  0  0  0  0  0  0  0  0  0
   34.3279  -16.0065   35.7231 C   0  0  0  0  0  0  0  0  0  0  0  0
   34.0454  -14.6474   35.9094 C   0  0  0  0  0  0  0  0  0  0  0  0
   34.9564  -13.7801   36.4439 C   0  0  0  0  0  0  0  0  0  0  0  0
   36.1808  -14.3289   36.7913 C   0  0  0  0  0  0  0  0  0  0  0  0
   37.3730  -13.2424   37.4780 Cl  0  0  0  0  0  0  0  0  0  0  0  0
   36.4703  -15.6376   36.6191 C   0  0  0  0  0  0  0  0  0  0  0  0
   34.7005  -12.3662   36.6472 C   0  0  0  0  0  0  0  0  0  0  0  0
   35.2909  -11.5315   35.9285 O   0  0  0  0  0  0  0  0  0  0  0  0
   33.7813  -11.9563   37.6637 N   0  0  0  0  0  0  0  0  0  0  0  0
   33.5364  -10.5433   37.8623 C   0  0  0  0  0  0  0  0  0  0  0  0
   32.1623  -10.2009   37.3404 C   0  0  0  0  0  0  0  0  0  0  0  0
   30.9329  -11.4255   37.8732 S   0  0  0  0  0  0  0  0  0  0  0  0
   31.6891  -13.0710   38.0285 C   0  0  0  0  0  0  0  0  0  0  0  0
   33.1043  -12.9060   38.4935 C   0  0  0  0  0  0  0  0  0  0  0  0
 10 11  1  0  0  0
 11 12  1  0  0  0
 12 13  1  0  0  0
 13 14  1  0  0  0
 14 15  1  0  0  0
 15 16  1  0  0  0
 16 17  1  0  0  0
 17 18  1  0  0  0
 11  1  1  0  0  0
  1  2  2  0  0  0
  2  3  1  0  0  0
  3  4  2  0  0  0
  4  5  1  0  0  0
  5 19  1  0  0  0
 19 21  1  0  0  0
 21 22  2  0  0  0
 22 23  1  0  0  0
 23 24  2  0  0  0
 24 28  1  0  0  0
 28 29  2  0  0  0
 28 30  1  0  0  0
 30 31  1  0  0  0
 31 32  1  0  0  0
 32 33  1  0  0  0
 33 34  1  0  0  0
 34 35  1  0  0  0
 24 25  1  0  0  0
 25 26  1  0  0  0
 25 27  2  0  0  0
  5  6  2  0  0  0
  6  7  1  0  0  0
  7  8  2  0  0  0
  8  9  1  0  0  0
 17 12  1  0  0  0
  9  1  1  0  0  0
  9  4  1  0  0  0
 27 21  1  0  0  0
 35 30  1  0  0  0
 19 20  1  0  0  0
M  END
> <minimizedAffinity>
-6.67854

> <CNNscore>
0.1765459031

> <CNNaffinity>
6.1295557022

> <CNN_VS>
1.0821479559

> <CNNaffinity_variance>
0.2039728612

$$$$
[H]c1nc(N([H])c2c([H])c([H])c(C(=O)N3C([H])([H])C([H])([H])SC([H])([H])C3([H])[H])c(Cl)c2[H])c2nc([H])c([C@@]([H])(N3C([H])([H])C([H])([H])C([H])([H])C([H])([H])[C@]3([H])C([H])([H])[H])C([H])([H])[H])n2n1


 35 39  0  0  0  0  0  0  0  0999 V2000
   35.2261  -21.1869   38.9958 C   0  0  0  0  0  0  0  0  0  0  0  0
   36.4128  -20.4890   38.9430 C   0  0  0  0  0  0  0  0  0  0  0  0
   36.3432  -19.5558   37.9523 N   0  0  0  0  0  0  0  0  0  0  0  0
   35.1381  -19.6713   37.4009 C   0  0  0  0  0  0  0  0  0  0  0  0
   34.5724  -18.9361   36.3399 C   0  0  0  0  0  0  0  0  0  0  0  0
   33.3358  -19.2920   36.0189 N   0  0  0  0  0  0  0  0  0  0  0  0
   32.6712  -20.2724   36.6498 C   0  0  0  0  0  0  0  0  0  0  0  0
   33.2197  -20.9675   37.6605 N   0  0  0  0  0  0  0  0  0  0  0  0
   34.4532  -20.6474   38.0162 N   0  0  0  0  0  0  0  0  0  0  0  0
   34.4289  -23.5143   39.1817 C   0  0  0  0  0  0  0  0  0  0  0  0
   34.8923  -22.2891   39.9367 C   0  0  0  0  0  0  0  0  0  0  0  0
   33.9977  -21.8514   40.9513 N   0  0  0  0  0  0  0  0  0  0  0  0
   32.8588  -22.6603   41.1726 C   0  0  0  0  0  0  0  0  0  0  0  0
   33.0981  -23.6251   42.3003 C   0  0  0  0  0  0  0  0  0  0  0  0
   33.5789  -22.9535   43.5469 C   0  0  0  0  0  0  0  0  0  0  0  0
   34.6755  -21.9602   43.3186 C   0  0  0  0  0  0  0  0  0  0  0  0
   34.5455  -21.1771   42.0514 C   0  0  0  0  0  0  0  0  0  0  0  0
   33.7413  -19.8898   42.2829 C   0  0  0  0  0  0  0  0  0  0  0  0
   35.2766  -17.9096   35.7213 N   0  0  0  0  0  0  0  0  0  0  0  0
   36.0538  -18.1827   35.0400 H   0  0  0  0  0  0  0  0  0  0  0  0
   35.0726  -16.5379   35.8949 C   0  0  0  0  0  0  0  0  0  0  0  0
   33.9258  -15.8816   35.5658 C   0  0  0  0  0  0  0  0  0  0  0  0
   33.7780  -14.5080   35.7957 C   0  0  0  0  0  0  0  0  0  0  0  0
   34.7683  -13.7523   36.3580 C   0  0  0  0  0  0  0  0  0  0  0  0
   35.9314  -14.4300   36.6879 C   0  0  0  0  0  0  0  0  0  0  0  0
   37.2226  -13.4890   37.4094 Cl  0  0  0  0  0  0  0  0  0  0  0  0
   36.0910  -15.7548   36.4738 C   0  0  0  0  0  0  0  0  0  0  0  0
   34.6524  -12.3273   36.6066 C   0  0  0  0  0  0  0  0  0  0  0  0
   35.3445  -11.5339   35.9334 O   0  0  0  0  0  0  0  0  0  0  0  0
   33.7519  -11.8596   37.6150 N   0  0  0  0  0  0  0  0  0  0  0  0
   33.6470  -10.4365   37.8591 C   0  0  0  0  0  0  0  0  0  0  0  0
   32.3299   -9.9370   37.3172 C   0  0  0  0  0  0  0  0  0  0  0  0
   30.9678  -11.0460   37.7751 S   0  0  0  0  0  0  0  0  0  0  0  0
   31.5477  -12.7649   37.8883 C   0  0  0  0  0  0  0  0  0  0  0  0
   32.9589  -12.7622   38.3929 C   0  0  0  0  0  0  0  0  0  0  0  0
 10 11  1  0  0  0
 11 12  1  0  0  0
 12 13  1  0  0  0
 13 14  1  0  0  0
 14 15  1  0  0  0
 15 16  1  0  0  0
 16 17  1  0  0  0
 17 18  1  0  0  0
 11  1  1  0  0  0
  1  2  2  0  0  0
  2  3  1  0  0  0
  3  4  2  0  0  0
  4  5  1  0  0  0
  5 19  1  0  0  0
 19 21  1  0  0  0
 21 22  2  0  0  0
 22 23  1  0  0  0
 23 24  2  0  0  0
 24 28  1  0  0  0
 28 29  2  0  0  0
 28 30  1  0  0  0
 30 31  1  0  0  0
 31 32  1  0  0  0
 32 33  1  0  0  0
 33 34  1  0  0  0
 34 35  1  0  0  0
 24 25  1  0  0  0
 25 26  1  0  0  0
 25 27  2  0  0  0
  5  6  2  0  0  0
  6  7  1  0  0  0
  7  8  2  0  0  0
  8  9  1  0  0  0
 17 12  1  0  0  0
  9  1  1  0  0  0
  9  4  1  0  0  0
 27 21  1  0  0  0
 35 30  1  0  0  0
 19 20  1  0  0  0
M  END
> <minimizedAffinity>
-7.14333

> <CNNscore>
0.1609751582

> <CNNaffinity>
5.9324355125

> <CNN_VS>
0.9549747705

> <CNNaffinity_variance>
0.3981011510

$$$$
[H]c1nc(N([H])c2c([H])c([H])c(C(=O)N3C([H])([H])C([H])([H])SC([H])([H])C3([H])[H])c(Cl)c2[H])c2nc([H])c([C@@]([H])(N3C([H])([H])C([H])([H])C([H])([H])C([H])([H])[C@]3([H])C([H])([H])[H])C([H])([H])[H])n2n1


 35 39  0  0  0  0  0  0  0  0999 V2000
   31.9971  -19.9407   34.4750 C   0  0  0  0  0  0  0  0  0  0  0  0
   32.7051  -20.7416   33.6058 C   0  0  0  0  0  0  0  0  0  0  0  0
   33.9566  -20.2291   33.4386 N   0  0  0  0  0  0  0  0  0  0  0  0
   34.0251  -19.1324   34.1885 C   0  0  0  0  0  0  0  0  0  0  0  0
   35.1039  -18.2430   34.3652 C   0  0  0  0  0  0  0  0  0  0  0  0
   34.8579  -17.2332   35.1891 N   0  0  0  0  0  0  0  0  0  0  0  0
   33.6789  -17.0663   35.8078 C   0  0  0  0  0  0  0  0  0  0  0  0
   32.6564  -17.9204   35.6325 N   0  0  0  0  0  0  0  0  0  0  0  0
   32.8555  -18.9442   34.8186 N   0  0  0  0  0  0  0  0  0  0  0  0
   29.8590  -18.8318   35.0096 C   0  0  0  0  0  0  0  0  0  0  0  0
   30.5946  -20.1499   34.9232 C   0  0  0  0  0  0  0  0  0  0  0  0
   30.5407  -20.9314   36.1097 N   0  0  0  0  0  0  0  0  0  0  0  0
   29.2639  -21.0890   36.6974 C   0  0  0  0  0  0  0  0  0  0  0  0
   28.6234  -22.3733   36.2503 C   0  0  0  0  0  0  0  0  0  0  0  0
   29.5040  -23.5641   36.4573 C   0  0  0  0  0  0  0  0  0  0  0  0
   30.9145  -23.3650   35.9969 C   0  0  0  0  0  0  0  0  0  0  0  0
   31.4521  -21.9894   36.2306 C   0  0  0  0  0  0  0  0  0  0  0  0
   32.1307  -21.8925   37.6045 C   0  0  0  0  0  0  0  0  0  0  0  0
   36.3217  -18.4551   33.7294 N   0  0  0  0  0  0  0  0  0  0  0  0
   36.3246  -18.4808   32.6607 H   0  0  0  0  0  0  0  0  0  0  0  0
   37.5621  -18.6385   34.3468 C   0  0  0  0  0  0  0  0  0  0  0  0
   37.7390  -18.8053   35.6866 C   0  0  0  0  0  0  0  0  0  0  0  0
   39.0103  -19.0151   36.2355 C   0  0  0  0  0  0  0  0  0  0  0  0
   40.1381  -19.0633   35.4650 C   0  0  0  0  0  0  0  0  0  0  0  0
   39.9467  -18.8911   34.1032 C   0  0  0  0  0  0  0  0  0  0  0  0
   41.3739  -18.9453   33.0865 Cl  0  0  0  0  0  0  0  0  0  0  0  0
   38.7276  -18.6882   33.5564 C   0  0  0  0  0  0  0  0  0  0  0  0
   41.4708  -19.2740   35.9990 C   0  0  0  0  0  0  0  0  0  0  0  0
   42.1494  -18.2847   36.3493 O   0  0  0  0  0  0  0  0  0  0  0  0
   41.9812  -20.6055   36.1128 N   0  0  0  0  0  0  0  0  0  0  0  0
   43.3139  -20.8052   36.6420 C   0  0  0  0  0  0  0  0  0  0  0  0
   43.2128  -21.3808   38.0335 C   0  0  0  0  0  0  0  0  0  0  0  0
   41.9911  -22.7215   38.1032 S   0  0  0  0  0  0  0  0  0  0  0  0
   40.6456  -22.4283   36.9168 C   0  0  0  0  0  0  0  0  0  0  0  0
   41.2117  -21.7432   35.7100 C   0  0  0  0  0  0  0  0  0  0  0  0
 10 11  1  0  0  0
 11 12  1  0  0  0
 12 13  1  0  0  0
 13 14  1  0  0  0
 14 15  1  0  0  0
 15 16  1  0  0  0
 16 17  1  0  0  0
 17 18  1  0  0  0
 11  1  1  0  0  0
  1  2  2  0  0  0
  2  3  1  0  0  0
  3  4  2  0  0  0
  4  5  1  0  0  0
  5 19  1  0  0  0
 19 21  1  0  0  0
 21 22  2  0  0  0
 22 23  1  0  0  0
 23 24  2  0  0  0
 24 28  1  0  0  0
 28 29  2  0  0  0
 28 30  1  0  0  0
 30 31  1  0  0  0
 31 32  1  0  0  0
 32 33  1  0  0  0
 33 34  1  0  0  0
 34 35  1  0  0  0
 24 25  1  0  0  0
 25 26  1  0  0  0
 25 27  2  0  0  0
  5  6  2  0  0  0
  6  7  1  0  0  0
  7  8  2  0  0  0
  8  9  1  0  0  0
 17 12  1  0  0  0
  9  1  1  0  0  0
  9  4  1  0  0  0
 27 21  1  0  0  0
 35 30  1  0  0  0
 19 20  1  0  0  0
M  END
> <minimizedAffinity>
-6.59341

> <CNNscore>
0.1546162963

> <CNNaffinity>
5.8555665016

> <CNN_VS>
0.9053660035

> <CNNaffinity_variance>
0.2063696086

$$$$
[H]c1nc(N([H])c2c([H])c([H])c(C(=O)N3C([H])([H])C([H])([H])SC([H])([H])C3([H])[H])c(Cl)c2[H])c2nc([H])c([C@@]([H])(N3C([H])([H])C([H])([H])C([H])([H])C([H])([H])[C@]3([H])C([H])([H])[H])C([H])([H])[H])n2n1


 35 39  0  0  0  0  0  0  0  0999 V2000
   32.2417  -19.9357   34.4836 C   0  0  0  0  0  0  0  0  0  0  0  0
   32.9532  -20.6253   33.5264 C   0  0  0  0  0  0  0  0  0  0  0  0
   34.1631  -20.0252   33.3446 N   0  0  0  0  0  0  0  0  0  0  0  0
   34.2028  -18.9842   34.1719 C   0  0  0  0  0  0  0  0  0  0  0  0
   35.2347  -18.0447   34.3688 C   0  0  0  0  0  0  0  0  0  0  0  0
   34.9695  -17.1151   35.2768 N   0  0  0  0  0  0  0  0  0  0  0  0
   33.8135  -17.0675   35.9568 C   0  0  0  0  0  0  0  0  0  0  0  0
   32.8358  -17.9683   35.7615 N   0  0  0  0  0  0  0  0  0  0  0  0
   33.0555  -18.9156   34.8644 N   0  0  0  0  0  0  0  0  0  0  0  0
   30.0168  -19.0217   35.0328 C   0  0  0  0  0  0  0  0  0  0  0  0
   30.8769  -20.2638   34.9748 C   0  0  0  0  0  0  0  0  0  0  0  0
   30.9265  -21.0009   36.1896 N   0  0  0  0  0  0  0  0  0  0  0  0
   29.6821  -21.2963   36.7932 C   0  0  0  0  0  0  0  0  0  0  0  0
   29.2075  -22.6670   36.3989 C   0  0  0  0  0  0  0  0  0  0  0  0
   30.2323  -23.7285   36.6420 C   0  0  0  0  0  0  0  0  0  0  0  0
   31.6047  -23.3704   36.1629 C   0  0  0  0  0  0  0  0  0  0  0  0
   31.9649  -21.9302   36.3416 C   0  0  0  0  0  0  0  0  0  0  0  0
   32.6307  -21.6970   37.7054 C   0  0  0  0  0  0  0  0  0  0  0  0
   36.4311  -18.1338   33.6667 N   0  0  0  0  0  0  0  0  0  0  0  0
   36.4521  -17.7422   32.6722 H   0  0  0  0  0  0  0  0  0  0  0  0
   37.6286  -18.6861   34.1296 C   0  0  0  0  0  0  0  0  0  0  0  0
   38.7693  -18.7811   33.3920 C   0  0  0  0  0  0  0  0  0  0  0  0
   39.9449  -19.3195   33.9302 C   0  0  0  0  0  0  0  0  0  0  0  0
   40.0149  -19.7780   35.2158 C   0  0  0  0  0  0  0  0  0  0  0  0
   38.8481  -19.6777   35.9569 C   0  0  0  0  0  0  0  0  0  0  0  0
   38.9035  -20.2591   37.6098 Cl  0  0  0  0  0  0  0  0  0  0  0  0
   37.7052  -19.1606   35.4542 C   0  0  0  0  0  0  0  0  0  0  0  0
   41.2133  -20.3459   35.8051 C   0  0  0  0  0  0  0  0  0  0  0  0
   41.3815  -21.5836   35.7688 O   0  0  0  0  0  0  0  0  0  0  0  0
   42.1756  -19.4808   36.4152 N   0  0  0  0  0  0  0  0  0  0  0  0
   43.3655  -20.0571   37.0049 C   0  0  0  0  0  0  0  0  0  0  0  0
   44.5529  -19.7486   36.1258 C   0  0  0  0  0  0  0  0  0  0  0  0
   44.5444  -18.0127   35.5951 S   0  0  0  0  0  0  0  0  0  0  0  0
   42.8415  -17.3999   35.4255 C   0  0  0  0  0  0  0  0  0  0  0  0
   41.9882  -18.0626   36.4642 C   0  0  0  0  0  0  0  0  0  0  0  0
 10 11  1  0  0  0
 11 12  1  0  0  0
 12 13  1  0  0  0
 13 14  1  0  0  0
 14 15  1  0  0  0
 15 16  1  0  0  0
 16 17  1  0  0  0
 17 18  1  0  0  0
 11  1  1  0  0  0
  1  2  2  0  0  0
  2  3  1  0  0  0
  3  4  2  0  0  0
  4  5  1  0  0  0
  5 19  1  0  0  0
 19 21  1  0  0  0
 21 22  2  0  0  0
 22 23  1  0  0  0
 23 24  2  0  0  0
 24 28  1  0  0  0
 28 29  2  0  0  0
 28 30  1  0  0  0
 30 31  1  0  0  0
 31 32  1  0  0  0
 32 33  1  0  0  0
 33 34  1  0  0  0
 34 35  1  0  0  0
 24 25  1  0  0  0
 25 26  1  0  0  0
 25 27  2  0  0  0
  5  6  2  0  0  0
  6  7  1  0  0  0
  7  8  2  0  0  0
  8  9  1  0  0  0
 17 12  1  0  0  0
  9  1  1  0  0  0
  9  4  1  0  0  0
 27 21  1  0  0  0
 35 30  1  0  0  0
 19 20  1  0  0  0
M  END
> <minimizedAffinity>
-6.38697

> <CNNscore>
0.1465876102

> <CNNaffinity>
5.8839726448

> <CNN_VS>
0.8625174761

> <CNNaffinity_variance>
0.3195024133

$$$$
[H]c1nc(N([H])c2c([H])c([H])c(C(=O)N3C([H])([H])C([H])([H])SC([H])([H])C3([H])[H])c(Cl)c2[H])c2nc([H])c([C@@]([H])(N3C([H])([H])C([H])([H])C([H])([H])C([H])([H])[C@]3([H])C([H])([H])[H])C([H])([H])[H])n2n1


 35 39  0  0  0  0  0  0  0  0999 V2000
   36.2004  -21.4218   38.7663 C   0  0  0  0  0  0  0  0  0  0  0  0
   37.3516  -20.7027   38.5305 C   0  0  0  0  0  0  0  0  0  0  0  0
   37.0918  -19.7213   37.6214 N   0  0  0  0  0  0  0  0  0  0  0  0
   35.8056  -19.8283   37.2990 C   0  0  0  0  0  0  0  0  0  0  0  0
   35.0465  -19.0491   36.4029 C   0  0  0  0  0  0  0  0  0  0  0  0
   33.7741  -19.4084   36.2997 N   0  0  0  0  0  0  0  0  0  0  0  0
   33.2457  -20.4305   36.9902 C   0  0  0  0  0  0  0  0  0  0  0  0
   33.9782  -21.1673   37.8423 N   0  0  0  0  0  0  0  0  0  0  0  0
   35.2543  -20.8456   37.9783 N   0  0  0  0  0  0  0  0  0  0  0  0
   34.6118  -22.7536   40.1042 C   0  0  0  0  0  0  0  0  0  0  0  0
   36.0558  -22.5760   39.6928 C   0  0  0  0  0  0  0  0  0  0  0  0
   36.9690  -22.4864   40.7789 N   0  0  0  0  0  0  0  0  0  0  0  0
   36.4700  -22.8611   42.0482 C   0  0  0  0  0  0  0  0  0  0  0  0
   36.8040  -24.2946   42.3531 C   0  0  0  0  0  0  0  0  0  0  0  0
   38.2596  -24.5982   42.1936 C   0  0  0  0  0  0  0  0  0  0  0  0
   38.8579  -24.0626   40.9302 C   0  0  0  0  0  0  0  0  0  0  0  0
   38.3225  -22.7314   40.5093 C   0  0  0  0  0  0  0  0  0  0  0  0
   39.1534  -21.5905   41.1142 C   0  0  0  0  0  0  0  0  0  0  0  0
   35.6158  -17.9808   35.7195 N   0  0  0  0  0  0  0  0  0  0  0  0
   36.3512  -18.2037   34.9763 H   0  0  0  0  0  0  0  0  0  0  0  0
   35.3233  -16.6262   35.9003 C   0  0  0  0  0  0  0  0  0  0  0  0
   34.1173  -16.0553   35.6287 C   0  0  0  0  0  0  0  0  0  0  0  0
   33.8836  -14.6943   35.8629 C   0  0  0  0  0  0  0  0  0  0  0  0
   34.8445  -13.8668   36.3725 C   0  0  0  0  0  0  0  0  0  0  0  0
   36.0683  -14.4580   36.6441 C   0  0  0  0  0  0  0  0  0  0  0  0
   37.3238  -13.4232   37.2969 Cl  0  0  0  0  0  0  0  0  0  0  0  0
   36.3112  -15.7692   36.4249 C   0  0  0  0  0  0  0  0  0  0  0  0
   34.6398  -12.4523   36.6236 C   0  0  0  0  0  0  0  0  0  0  0  0
   35.2586  -11.6156   35.9316 O   0  0  0  0  0  0  0  0  0  0  0  0
   33.7374  -12.0440   37.6558 N   0  0  0  0  0  0  0  0  0  0  0  0
   33.5436  -10.6306   37.9021 C   0  0  0  0  0  0  0  0  0  0  0  0
   32.1819  -10.2219   37.3958 C   0  0  0  0  0  0  0  0  0  0  0  0
   30.9102  -11.4189   37.8907 S   0  0  0  0  0  0  0  0  0  0  0  0
   31.6072  -13.0947   37.9889 C   0  0  0  0  0  0  0  0  0  0  0  0
   33.0281  -12.9961   38.4552 C   0  0  0  0  0  0  0  0  0  0  0  0
 10 11  1  0  0  0
 11 12  1  0  0  0
 12 13  1  0  0  0
 13 14  1  0  0  0
 14 15  1  0  0  0
 15 16  1  0  0  0
 16 17  1  0  0  0
 17 18  1  0  0  0
 11  1  1  0  0  0
  1  2  2  0  0  0
  2  3  1  0  0  0
  3  4  2  0  0  0
  4  5  1  0  0  0
  5 19  1  0  0  0
 19 21  1  0  0  0
 21 22  2  0  0  0
 22 23  1  0  0  0
 23 24  2  0  0  0
 24 28  1  0  0  0
 28 29  2  0  0  0
 28 30  1  0  0  0
 30 31  1  0  0  0
 31 32  1  0  0  0
 32 33  1  0  0  0
 33 34  1  0  0  0
 34 35  1  0  0  0
 24 25  1  0  0  0
 25 26  1  0  0  0
 25 27  2  0  0  0
  5  6  2  0  0  0
  6  7  1  0  0  0
  7  8  2  0  0  0
  8  9  1  0  0  0
 17 12  1  0  0  0
  9  1  1  0  0  0
  9  4  1  0  0  0
 27 21  1  0  0  0
 35 30  1  0  0  0
 19 20  1  0  0  0
M  END
> <minimizedAffinity>
-6.61052

> <CNNscore>
0.1453744322

> <CNNaffinity>
5.9581384659

> <CNN_VS>
0.8661609888

> <CNNaffinity_variance>
0.1929023564

$$$$
[H]c1nc(N([H])[H])c2nc([H])c(C([H])([H])N3C4([H])C([H])([H])C([H])([H])C3([H])C([H])([H])C([H])(N([H])c3nc(C(F)(F)F)c([H])s3)C4([H])[H])n2c1[H]


 32 36  0  0  0  0  0  0  0  0999 V2000
   40.6180  -20.4152   35.2537 N   0  0  0  0  0  0  0  0  0  0  0  0
   40.4780  -19.0239   35.1564 C   0  0  0  0  0  0  0  0  0  0  0  0
   40.7857  -18.6059   33.7301 C   0  0  0  0  0  0  0  0  0  0  0  0
   40.8771  -19.9103   32.9706 C   0  0  0  0  0  0  0  0  0  0  0  0
   40.2857  -20.9050   33.9847 C   0  0  0  0  0  0  0  0  0  0  0  0
   38.7790  -20.7978   33.8026 C   0  0  0  0  0  0  0  0  0  0  0  0
   38.1341  -19.7741   34.6387 C   0  0  0  0  0  0  0  0  0  0  0  0
   38.9655  -18.7732   35.3363 C   0  0  0  0  0  0  0  0  0  0  0  0
   37.1432  -19.0591   33.8585 N   0  0  0  0  0  0  0  0  0  0  0  0
   37.4441  -18.6768   32.9415 H   0  0  0  0  0  0  0  0  0  0  0  0
   35.7858  -18.8753   34.2789 C   0  0  0  0  0  0  0  0  0  0  0  0
   34.7179  -19.6101   34.0250 N   0  0  0  0  0  0  0  0  0  0  0  0
   33.5611  -19.2581   34.4651 C   0  0  0  0  0  0  0  0  0  0  0  0
   33.4750  -18.1015   35.2009 C   0  0  0  0  0  0  0  0  0  0  0  0
   35.1263  -17.5968   35.2022 S   0  0  0  0  0  0  0  0  0  0  0  0
   32.3040  -20.0743   34.2025 C   0  0  0  0  0  0  0  0  0  0  0  0
   32.6337  -21.3730   33.8642 F   0  0  0  0  0  0  0  0  0  0  0  0
   31.4712  -20.0091   35.2931 F   0  0  0  0  0  0  0  0  0  0  0  0
   31.6839  -19.4999   33.1103 F   0  0  0  0  0  0  0  0  0  0  0  0
   41.6202  -20.9671   36.0327 C   0  0  0  0  0  0  0  0  0  0  0  0
   42.7606  -18.5184   41.4425 N   0  0  0  0  0  0  0  0  0  0  0  0
   42.0077  -19.3607   40.5928 C   0  0  0  0  0  0  0  0  0  0  0  0
   40.9659  -20.0538   41.1150 N   0  0  0  0  0  0  0  0  0  0  0  0
   40.2468  -20.8633   40.3104 C   0  0  0  0  0  0  0  0  0  0  0  0
   40.5455  -21.0010   38.9750 C   0  0  0  0  0  0  0  0  0  0  0  0
   41.5874  -20.3141   38.4304 N   0  0  0  0  0  0  0  0  0  0  0  0
   42.1094  -20.2451   37.1923 C   0  0  0  0  0  0  0  0  0  0  0  0
   43.1653  -19.3688   37.2785 C   0  0  0  0  0  0  0  0  0  0  0  0
   43.2927  -18.9039   38.5436 N   0  0  0  0  0  0  0  0  0  0  0  0
   42.2990  -19.4999   39.2603 C   0  0  0  0  0  0  0  0  0  0  0  0
   42.7341  -18.6994   42.4648 H   0  0  0  0  0  0  0  0  0  0  0  0
   43.3248  -17.7456   41.0515 H   0  0  0  0  0  0  0  0  0  0  0  0
 21 22  1  0  0  0
 22 23  2  0  0  0
 23 24  1  0  0  0
 24 25  2  0  0  0
 25 26  1  0  0  0
 26 27  1  0  0  0
 27 20  1  0  0  0
 20  1  1  0  0  0
  1  2  1  0  0  0
  2  3  1  0  0  0
  3  4  1  0  0  0
  4  5  1  0  0  0
  5  6  1  0  0  0
  6  7  1  0  0  0
  7  8  1  0  0  0
  7  9  1  0  0  0
  9 11  1  0  0  0
 11 12  2  0  0  0
 12 13  1  0  0  0
 13 14  2  0  0  0
 14 15  1  0  0  0
 13 16  1  0  0  0
 16 17  1  0  0  0
 16 18  1  0  0  0
 16 19  1  0  0  0
 27 28  2  0  0  0
 28 29  1  0  0  0
 29 30  2  0  0  0
 30 22  1  0  0  0
 30 26  1  0  0  0
  5  1  1  0  0  0
 15 11  1  0  0  0
  8  2  1  0  0  0
 21 31  1  0  0  0
 21 32  1  0  0  0
  9 10  1  0  0  0
M  END
> <minimizedAffinity>
-6.11814

> <CNNscore>
0.4980795383

> <CNNaffinity>
5.6158356667

> <CNN_VS>
2.7971327305

> <CNNaffinity_variance>
0.2705436945

$$$$
[H]c1nc(N([H])[H])c2nc([H])c(C([H])([H])N3C4([H])C([H])([H])C([H])([H])C3([H])C([H])([H])C([H])(N([H])c3nc(C(F)(F)F)c([H])s3)C4([H])[H])n2c1[H]


 32 36  0  0  0  0  0  0  0  0999 V2000
   34.8598  -19.3278   34.3619 N   0  0  0  0  0  0  0  0  0  0  0  0
   35.2544  -17.9994   34.1510 C   0  0  0  0  0  0  0  0  0  0  0  0
   35.0983  -17.2364   35.4538 C   0  0  0  0  0  0  0  0  0  0  0  0
   34.8096  -18.3077   36.4812 C   0  0  0  0  0  0  0  0  0  0  0  0
   35.1600  -19.5888   35.7044 C   0  0  0  0  0  0  0  0  0  0  0  0
   36.6683  -19.7300   35.8456 C   0  0  0  0  0  0  0  0  0  0  0  0
   37.4460  -19.0481   34.8002 C   0  0  0  0  0  0  0  0  0  0  0  0
   36.7765  -18.0813   33.9075 C   0  0  0  0  0  0  0  0  0  0  0  0
   38.5874  -18.3821   35.3963 N   0  0  0  0  0  0  0  0  0  0  0  0
   38.5656  -17.3451   35.4379 H   0  0  0  0  0  0  0  0  0  0  0  0
   39.7164  -19.0779   35.9387 C   0  0  0  0  0  0  0  0  0  0  0  0
   40.4529  -18.7932   36.9977 N   0  0  0  0  0  0  0  0  0  0  0  0
   41.4634  -19.5265   37.3088 C   0  0  0  0  0  0  0  0  0  0  0  0
   41.7485  -20.6058   36.5086 C   0  0  0  0  0  0  0  0  0  0  0  0
   40.4920  -20.4750   35.3314 S   0  0  0  0  0  0  0  0  0  0  0  0
   42.3376  -19.2411   38.5212 C   0  0  0  0  0  0  0  0  0  0  0  0
   43.0808  -18.0934   38.3209 F   0  0  0  0  0  0  0  0  0  0  0  0
   41.5583  -19.1738   39.6506 F   0  0  0  0  0  0  0  0  0  0  0  0
   43.2186  -20.2992   38.6279 F   0  0  0  0  0  0  0  0  0  0  0  0
   33.7369  -19.8351   33.7313 C   0  0  0  0  0  0  0  0  0  0  0  0
   28.5062  -21.0276   36.5208 N   0  0  0  0  0  0  0  0  0  0  0  0
   29.6858  -21.4413   35.8607 C   0  0  0  0  0  0  0  0  0  0  0  0
   29.9082  -22.7678   35.6889 N   0  0  0  0  0  0  0  0  0  0  0  0
   31.0345  -23.1692   35.0644 C   0  0  0  0  0  0  0  0  0  0  0  0
   31.9605  -22.2652   34.5986 C   0  0  0  0  0  0  0  0  0  0  0  0
   31.7568  -20.9288   34.7607 N   0  0  0  0  0  0  0  0  0  0  0  0
   32.4615  -19.8335   34.4231 C   0  0  0  0  0  0  0  0  0  0  0  0
   31.7231  -18.7612   34.8650 C   0  0  0  0  0  0  0  0  0  0  0  0
   30.5841  -19.1845   35.4620 N   0  0  0  0  0  0  0  0  0  0  0  0
   30.6112  -20.5449   35.3918 C   0  0  0  0  0  0  0  0  0  0  0  0
   28.0260  -21.7065   37.1428 H   0  0  0  0  0  0  0  0  0  0  0  0
   28.1369  -20.0713   36.3877 H   0  0  0  0  0  0  0  0  0  0  0  0
 21 22  1  0  0  0
 22 23  2  0  0  0
 23 24  1  0  0  0
 24 25  2  0  0  0
 25 26  1  0  0  0
 26 27  1  0  0  0
 27 20  1  0  0  0
 20  1  1  0  0  0
  1  2  1  0  0  0
  2  3  1  0  0  0
  3  4  1  0  0  0
  4  5  1  0  0  0
  5  6  1  0  0  0
  6  7  1  0  0  0
  7  8  1  0  0  0
  7  9  1  0  0  0
  9 11  1  0  0  0
 11 12  2  0  0  0
 12 13  1  0  0  0
 13 14  2  0  0  0
 14 15  1  0  0  0
 13 16  1  0  0  0
 16 17  1  0  0  0
 16 18  1  0  0  0
 16 19  1  0  0  0
 27 28  2  0  0  0
 28 29  1  0  0  0
 29 30  2  0  0  0
 30 22  1  0  0  0
 30 26  1  0  0  0
  5  1  1  0  0  0
 15 11  1  0  0  0
  8  2  1  0  0  0
 21 31  1  0  0  0
 21 32  1  0  0  0
  9 10  1  0  0  0
M  END
> <minimizedAffinity>
-6.45720

> <CNNscore>
0.2604686916

> <CNNaffinity>
5.4809312820

> <CNN_VS>
1.4276109934

> <CNNaffinity_variance>
0.5480145216

$$$$
[H]c1nc(N([H])[H])c2nc([H])c(C([H])([H])N3C4([H])C([H])([H])C([H])([H])C3([H])C([H])([H])C([H])(N([H])c3nc(C(F)(F)F)c([H])s3)C4([H])[H])n2c1[H]


 32 36  0  0  0  0  0  0  0  0999 V2000
   36.6917  -17.6217   36.5387 N   0  0  0  0  0  0  0  0  0  0  0  0
   37.4700  -18.7672   36.7550 C   0  0  0  0  0  0  0  0  0  0  0  0
   36.6005  -19.9913   36.5323 C   0  0  0  0  0  0  0  0  0  0  0  0
   35.3253  -19.4395   35.9358 C   0  0  0  0  0  0  0  0  0  0  0  0
   35.7420  -18.0011   35.5823 C   0  0  0  0  0  0  0  0  0  0  0  0
   36.4330  -18.1163   34.2317 C   0  0  0  0  0  0  0  0  0  0  0  0
   37.8796  -18.3706   34.3056 C   0  0  0  0  0  0  0  0  0  0  0  0
   38.4843  -18.7719   35.5913 C   0  0  0  0  0  0  0  0  0  0  0  0
   38.2532  -19.3597   33.3138 N   0  0  0  0  0  0  0  0  0  0  0  0
   37.6864  -19.4010   32.4451 H   0  0  0  0  0  0  0  0  0  0  0  0
   39.3616  -20.2549   33.4661 C   0  0  0  0  0  0  0  0  0  0  0  0
   39.4100  -21.4480   34.0309 N   0  0  0  0  0  0  0  0  0  0  0  0
   40.5214  -22.0923   34.1060 C   0  0  0  0  0  0  0  0  0  0  0  0
   41.6463  -21.5018   33.5841 C   0  0  0  0  0  0  0  0  0  0  0  0
   40.9896  -20.0140   33.0040 S   0  0  0  0  0  0  0  0  0  0  0  0
   40.6253  -23.4705   34.7426 C   0  0  0  0  0  0  0  0  0  0  0  0
   40.7835  -23.3594   36.1109 F   0  0  0  0  0  0  0  0  0  0  0  0
   39.5303  -24.2253   34.3983 F   0  0  0  0  0  0  0  0  0  0  0  0
   41.7691  -24.0531   34.2331 F   0  0  0  0  0  0  0  0  0  0  0  0
   36.4023  -16.7620   37.5842 C   0  0  0  0  0  0  0  0  0  0  0  0
   35.2962  -10.9444   36.3617 N   0  0  0  0  0  0  0  0  0  0  0  0
   34.8867  -12.2938   36.4603 C   0  0  0  0  0  0  0  0  0  0  0  0
   33.6025  -12.6110   36.1621 N   0  0  0  0  0  0  0  0  0  0  0  0
   33.2043  -13.8962   36.2593 C   0  0  0  0  0  0  0  0  0  0  0  0
   34.0695  -14.8901   36.6528 C   0  0  0  0  0  0  0  0  0  0  0  0
   35.3631  -14.5934   36.9568 N   0  0  0  0  0  0  0  0  0  0  0  0
   36.4151  -15.3284   37.3608 C   0  0  0  0  0  0  0  0  0  0  0  0
   37.4581  -14.4441   37.5037 C   0  0  0  0  0  0  0  0  0  0  0  0
   37.0598  -13.1881   37.1928 N   0  0  0  0  0  0  0  0  0  0  0  0
   35.7453  -13.2894   36.8494 C   0  0  0  0  0  0  0  0  0  0  0  0
   34.5686  -10.2045   36.4043 H   0  0  0  0  0  0  0  0  0  0  0  0
   36.2959  -10.7047   36.2541 H   0  0  0  0  0  0  0  0  0  0  0  0
 21 22  1  0  0  0
 22 23  2  0  0  0
 23 24  1  0  0  0
 24 25  2  0  0  0
 25 26  1  0  0  0
 26 27  1  0  0  0
 27 20  1  0  0  0
 20  1  1  0  0  0
  1  2  1  0  0  0
  2  3  1  0  0  0
  3  4  1  0  0  0
  4  5  1  0  0  0
  5  6  1  0  0  0
  6  7  1  0  0  0
  7  8  1  0  0  0
  7  9  1  0  0  0
  9 11  1  0  0  0
 11 12  2  0  0  0
 12 13  1  0  0  0
 13 14  2  0  0  0
 14 15  1  0  0  0
 13 16  1  0  0  0
 16 17  1  0  0  0
 16 18  1  0  0  0
 16 19  1  0  0  0
 27 28  2  0  0  0
 28 29  1  0  0  0
 29 30  2  0  0  0
 30 22  1  0  0  0
 30 26  1  0  0  0
  5  1  1  0  0  0
 15 11  1  0  0  0
  8  2  1  0  0  0
 21 31  1  0  0  0
 21 32  1  0  0  0
  9 10  1  0  0  0
M  END
> <minimizedAffinity>
-6.37452

> <CNNscore>
0.2248150557

> <CNNaffinity>
6.0226707458

> <CNN_VS>
1.3539870977

> <CNNaffinity_variance>
0.1539212465

$$$$
[H]c1nc(N([H])[H])c2nc([H])c(C([H])([H])N3C4([H])C([H])([H])C([H])([H])C3([H])C([H])([H])C([H])(N([H])c3nc(C(F)(F)F)c([H])s3)C4([H])[H])n2c1[H]


 32 36  0  0  0  0  0  0  0  0999 V2000
   35.8143  -19.4307   37.3838 N   0  0  0  0  0  0  0  0  0  0  0  0
   35.8118  -20.5527   36.5437 C   0  0  0  0  0  0  0  0  0  0  0  0
   36.6139  -21.6563   37.2090 C   0  0  0  0  0  0  0  0  0  0  0  0
   36.8680  -21.1414   38.6078 C   0  0  0  0  0  0  0  0  0  0  0  0
   35.9003  -19.9474   38.6824 C   0  0  0  0  0  0  0  0  0  0  0  0
   34.5563  -20.5576   39.0516 C   0  0  0  0  0  0  0  0  0  0  0  0
   33.7377  -20.9726   37.9025 C   0  0  0  0  0  0  0  0  0  0  0  0
   34.3492  -21.0462   36.5608 C   0  0  0  0  0  0  0  0  0  0  0  0
   33.1226  -22.2559   38.1788 N   0  0  0  0  0  0  0  0  0  0  0  0
   33.7418  -23.0186   38.5142 H   0  0  0  0  0  0  0  0  0  0  0  0
   31.7203  -22.5106   38.0310 C   0  0  0  0  0  0  0  0  0  0  0  0
   30.8180  -21.8672   37.3122 N   0  0  0  0  0  0  0  0  0  0  0  0
   29.5828  -22.2271   37.3374 C   0  0  0  0  0  0  0  0  0  0  0  0
   29.2372  -23.2933   38.1312 C   0  0  0  0  0  0  0  0  0  0  0  0
   30.7741  -23.7088   38.7997 S   0  0  0  0  0  0  0  0  0  0  0  0
   28.5091  -21.5201   36.5233 C   0  0  0  0  0  0  0  0  0  0  0  0
   28.9125  -20.2379   36.2025 F   0  0  0  0  0  0  0  0  0  0  0  0
   28.1994  -22.2682   35.4134 F   0  0  0  0  0  0  0  0  0  0  0  0
   27.3996  -21.4199   37.3395 F   0  0  0  0  0  0  0  0  0  0  0  0
   36.4517  -18.2648   36.9961 C   0  0  0  0  0  0  0  0  0  0  0  0
   34.0675  -12.7833   36.0841 N   0  0  0  0  0  0  0  0  0  0  0  0
   35.0850  -13.6296   36.5808 C   0  0  0  0  0  0  0  0  0  0  0  0
   36.1558  -13.0722   37.1982 N   0  0  0  0  0  0  0  0  0  0  0  0
   37.1327  -13.8741   37.6697 C   0  0  0  0  0  0  0  0  0  0  0  0
   37.0673  -15.2417   37.5389 C   0  0  0  0  0  0  0  0  0  0  0  0
   36.0010  -15.8219   36.9222 N   0  0  0  0  0  0  0  0  0  0  0  0
   35.6646  -17.0959   36.6505 C   0  0  0  0  0  0  0  0  0  0  0  0
   34.4547  -17.0341   36.0004 C   0  0  0  0  0  0  0  0  0  0  0  0
   34.0502  -15.7483   35.8742 N   0  0  0  0  0  0  0  0  0  0  0  0
   35.0241  -14.9936   36.4558 C   0  0  0  0  0  0  0  0  0  0  0  0
   34.3030  -11.7903   35.8916 H   0  0  0  0  0  0  0  0  0  0  0  0
   33.1155  -13.1489   35.9146 H   0  0  0  0  0  0  0  0  0  0  0  0
 21 22  1  0  0  0
 22 23  2  0  0  0
 23 24  1  0  0  0
 24 25  2  0  0  0
 25 26  1  0  0  0
 26 27  1  0  0  0
 27 20  1  0  0  0
 20  1  1  0  0  0
  1  2  1  0  0  0
  2  3  1  0  0  0
  3  4  1  0  0  0
  4  5  1  0  0  0
  5  6  1  0  0  0
  6  7  1  0  0  0
  7  8  1  0  0  0
  7  9  1  0  0  0
  9 11  1  0  0  0
 11 12  2  0  0  0
 12 13  1  0  0  0
 13 14  2  0  0  0
 14 15  1  0  0  0
 13 16  1  0  0  0
 16 17  1  0  0  0
 16 18  1  0  0  0
 16 19  1  0  0  0
 27 28  2  0  0  0
 28 29  1  0  0  0
 29 30  2  0  0  0
 30 22  1  0  0  0
 30 26  1  0  0  0
  5  1  1  0  0  0
 15 11  1  0  0  0
  8  2  1  0  0  0
 21 31  1  0  0  0
 21 32  1  0  0  0
  9 10  1  0  0  0
M  END
> <minimizedAffinity>
-6.19953

> <CNNscore>
0.2090081573

> <CNNaffinity>
5.5490303040

> <CNN_VS>
1.1597925425

> <CNNaffinity_variance>
0.3747140467

$$$$
[H]c1nc(N([H])[H])c2nc([H])c(C([H])([H])N3C4([H])C([H])([H])C([H])([H])C3([H])C([H])([H])C([H])(N([H])c3nc(C(F)(F)F)c([H])s3)C4([H])[H])n2c1[H]


 32 36  0  0  0  0  0  0  0  0999 V2000
   38.8545  -20.7055   36.1270 N   0  0  0  0  0  0  0  0  0  0  0  0
   39.4948  -19.5060   36.4675 C   0  0  0  0  0  0  0  0  0  0  0  0
   40.3263  -19.0490   35.2827 C   0  0  0  0  0  0  0  0  0  0  0  0
   39.9096  -19.9691   34.1574 C   0  0  0  0  0  0  0  0  0  0  0  0
   38.6500  -20.6301   34.7438 C   0  0  0  0  0  0  0  0  0  0  0  0
   37.5277  -19.6392   34.4728 C   0  0  0  0  0  0  0  0  0  0  0  0
   37.3279  -18.6383   35.5316 C   0  0  0  0  0  0  0  0  0  0  0  0
   38.3512  -18.4756   36.5833 C   0  0  0  0  0  0  0  0  0  0  0  0
   37.0954  -17.3369   34.9363 N   0  0  0  0  0  0  0  0  0  0  0  0
   37.6539  -17.0906   34.0967 H   0  0  0  0  0  0  0  0  0  0  0  0
   36.1334  -16.3988   35.4335 C   0  0  0  0  0  0  0  0  0  0  0  0
   36.3110  -15.1739   35.8952 N   0  0  0  0  0  0  0  0  0  0  0  0
   35.3150  -14.4905   36.3386 C   0  0  0  0  0  0  0  0  0  0  0  0
   34.0714  -15.0732   36.3167 C   0  0  0  0  0  0  0  0  0  0  0  0
   34.4491  -16.6129   35.6324 S   0  0  0  0  0  0  0  0  0  0  0  0
   35.4697  -13.0750   36.8754 C   0  0  0  0  0  0  0  0  0  0  0  0
   36.7232  -12.9040   37.4314 F   0  0  0  0  0  0  0  0  0  0  0  0
   35.2079  -12.1682   35.8771 F   0  0  0  0  0  0  0  0  0  0  0  0
   34.5389  -12.9343   37.8858 F   0  0  0  0  0  0  0  0  0  0  0  0
   39.1819  -21.8844   36.7743 C   0  0  0  0  0  0  0  0  0  0  0  0
   38.4048  -21.7081   42.7683 N   0  0  0  0  0  0  0  0  0  0  0  0
   37.9156  -21.5910   41.4472 C   0  0  0  0  0  0  0  0  0  0  0  0
   36.6070  -21.2902   41.2586 N   0  0  0  0  0  0  0  0  0  0  0  0
   36.1330  -21.1822   40.0003 C   0  0  0  0  0  0  0  0  0  0  0  0
   36.9454  -21.3696   38.9064 C   0  0  0  0  0  0  0  0  0  0  0  0
   38.2623  -21.6724   39.0734 N   0  0  0  0  0  0  0  0  0  0  0  0
   39.2773  -21.9072   38.2220 C   0  0  0  0  0  0  0  0  0  0  0  0
   40.3762  -22.1601   39.0085 C   0  0  0  0  0  0  0  0  0  0  0  0
   40.0480  -22.0816   40.3197 N   0  0  0  0  0  0  0  0  0  0  0  0
   38.7212  -21.7740   40.3529 C   0  0  0  0  0  0  0  0  0  0  0  0
   37.7256  -21.9020   43.5296 H   0  0  0  0  0  0  0  0  0  0  0  0
   39.4143  -21.6064   42.9663 H   0  0  0  0  0  0  0  0  0  0  0  0
 21 22  1  0  0  0
 22 23  2  0  0  0
 23 24  1  0  0  0
 24 25  2  0  0  0
 25 26  1  0  0  0
 26 27  1  0  0  0
 27 20  1  0  0  0
 20  1  1  0  0  0
  1  2  1  0  0  0
  2  3  1  0  0  0
  3  4  1  0  0  0
  4  5  1  0  0  0
  5  6  1  0  0  0
  6  7  1  0  0  0
  7  8  1  0  0  0
  7  9  1  0  0  0
  9 11  1  0  0  0
 11 12  2  0  0  0
 12 13  1  0  0  0
 13 14  2  0  0  0
 14 15  1  0  0  0
 13 16  1  0  0  0
 16 17  1  0  0  0
 16 18  1  0  0  0
 16 19  1  0  0  0
 27 28  2  0  0  0
 28 29  1  0  0  0
 29 30  2  0  0  0
 30 22  1  0  0  0
 30 26  1  0  0  0
  5  1  1  0  0  0
 15 11  1  0  0  0
  8  2  1  0  0  0
 21 31  1  0  0  0
 21 32  1  0  0  0
  9 10  1  0  0  0
M  END
> <minimizedAffinity>
-6.01526

> <CNNscore>
0.1947071701

> <CNNaffinity>
5.5678668022

> <CNN_VS>
1.0841035843

> <CNNaffinity_variance>
0.2306553572

$$$$
[H]c1nc(N([H])[H])c2nc([H])c(C([H])([H])N3C4([H])C([H])([H])C([H])([H])C3([H])C([H])([H])C([H])(N([H])c3nc(C(F)(F)F)c([H])s3)C4([H])[H])n2c1[H]


 32 36  0  0  0  0  0  0  0  0999 V2000
   34.1445  -19.3900   35.3254 N   0  0  0  0  0  0  0  0  0  0  0  0
   35.4364  -19.5452   35.8466 C   0  0  0  0  0  0  0  0  0  0  0  0
   36.4370  -19.0809   34.8039 C   0  0  0  0  0  0  0  0  0  0  0  0
   35.5882  -18.4239   33.7389 C   0  0  0  0  0  0  0  0  0  0  0  0
   34.2315  -18.2977   34.4536 C   0  0  0  0  0  0  0  0  0  0  0  0
   34.3433  -17.0252   35.2802 C   0  0  0  0  0  0  0  0  0  0  0  0
   34.8828  -17.2218   36.6340 C   0  0  0  0  0  0  0  0  0  0  0  0
   35.5226  -18.5054   36.9843 C   0  0  0  0  0  0  0  0  0  0  0  0
   35.8209  -16.1612   36.9451 N   0  0  0  0  0  0  0  0  0  0  0  0
   36.8038  -16.4352   37.1354 H   0  0  0  0  0  0  0  0  0  0  0  0
   35.4642  -14.7739   36.9827 C   0  0  0  0  0  0  0  0  0  0  0  0
   34.3614  -14.1989   37.4276 N   0  0  0  0  0  0  0  0  0  0  0  0
   34.2067  -12.9244   37.3410 C   0  0  0  0  0  0  0  0  0  0  0  0
   35.2185  -12.1884   36.7742 C   0  0  0  0  0  0  0  0  0  0  0  0
   36.3531  -13.4350   36.4002 S   0  0  0  0  0  0  0  0  0  0  0  0
   32.9567  -12.2170   37.8437 C   0  0  0  0  0  0  0  0  0  0  0  0
   33.2129  -10.8755   38.0543 F   0  0  0  0  0  0  0  0  0  0  0  0
   31.9206  -12.4241   36.9657 F   0  0  0  0  0  0  0  0  0  0  0  0
   32.6497  -12.7832   39.0653 F   0  0  0  0  0  0  0  0  0  0  0  0
   33.3546  -20.4966   35.0658 C   0  0  0  0  0  0  0  0  0  0  0  0
   27.8255  -21.2940   37.3802 N   0  0  0  0  0  0  0  0  0  0  0  0
   29.2022  -21.6077   37.3128 C   0  0  0  0  0  0  0  0  0  0  0  0
   29.6965  -22.5633   38.1380 N   0  0  0  0  0  0  0  0  0  0  0  0
   31.0104  -22.8635   38.0822 C   0  0  0  0  0  0  0  0  0  0  0  0
   31.8585  -22.2237   37.2086 C   0  0  0  0  0  0  0  0  0  0  0  0
   31.3829  -21.2611   36.3714 N   0  0  0  0  0  0  0  0  0  0  0  0
   31.9513  -20.4807   35.4343 C   0  0  0  0  0  0  0  0  0  0  0  0
   30.9373  -19.7018   34.9290 C   0  0  0  0  0  0  0  0  0  0  0  0
   29.7653  -19.9956   35.5399 N   0  0  0  0  0  0  0  0  0  0  0  0
   30.0520  -20.9753   36.4423 C   0  0  0  0  0  0  0  0  0  0  0  0
   27.3089  -21.5290   38.2499 H   0  0  0  0  0  0  0  0  0  0  0  0
   27.3502  -20.8388   36.5831 H   0  0  0  0  0  0  0  0  0  0  0  0
 21 22  1  0  0  0
 22 23  2  0  0  0
 23 24  1  0  0  0
 24 25  2  0  0  0
 25 26  1  0  0  0
 26 27  1  0  0  0
 27 20  1  0  0  0
 20  1  1  0  0  0
  1  2  1  0  0  0
  2  3  1  0  0  0
  3  4  1  0  0  0
  4  5  1  0  0  0
  5  6  1  0  0  0
  6  7  1  0  0  0
  7  8  1  0  0  0
  7  9  1  0  0  0
  9 11  1  0  0  0
 11 12  2  0  0  0
 12 13  1  0  0  0
 13 14  2  0  0  0
 14 15  1  0  0  0
 13 16  1  0  0  0
 16 17  1  0  0  0
 16 18  1  0  0  0
 16 19  1  0  0  0
 27 28  2  0  0  0
 28 29  1  0  0  0
 29 30  2  0  0  0
 30 22  1  0  0  0
 30 26  1  0  0  0
  5  1  1  0  0  0
 15 11  1  0  0  0
  8  2  1  0  0  0
 21 31  1  0  0  0
 21 32  1  0  0  0
  9 10  1  0  0  0
M  END
> <minimizedAffinity>
-7.05678

> <CNNscore>
0.1888645440

> <CNNaffinity>
5.9379830360

> <CNN_VS>
1.1214745045

> <CNNaffinity_variance>
0.1747465879

$$$$
[H]c1nc(N([H])[H])c2nc([H])c(C([H])([H])N3C4([H])C([H])([H])C([H])([H])C3([H])C([H])([H])C([H])(N([H])c3nc(C(F)(F)F)c([H])s3)C4([H])[H])n2c1[H]


 32 36  0  0  0  0  0  0  0  0999 V2000
   37.0303  -18.2676   36.1241 N   0  0  0  0  0  0  0  0  0  0  0  0
   36.5905  -17.2937   35.2171 C   0  0  0  0  0  0  0  0  0  0  0  0
   36.4076  -17.9459   33.8588 C   0  0  0  0  0  0  0  0  0  0  0  0
   36.5511  -19.4259   34.1333 C   0  0  0  0  0  0  0  0  0  0  0  0
   36.4718  -19.4685   35.6693 C   0  0  0  0  0  0  0  0  0  0  0  0
   34.9831  -19.4604   35.9831 C   0  0  0  0  0  0  0  0  0  0  0  0
   34.3965  -18.1196   36.1273 C   0  0  0  0  0  0  0  0  0  0  0  0
   35.1657  -16.9370   35.6921 C   0  0  0  0  0  0  0  0  0  0  0  0
   33.1074  -18.0763   35.4654 N   0  0  0  0  0  0  0  0  0  0  0  0
   32.7886  -17.1573   35.1032 H   0  0  0  0  0  0  0  0  0  0  0  0
   32.2759  -19.2275   35.2744 C   0  0  0  0  0  0  0  0  0  0  0  0
   31.1250  -19.5396   35.8426 N   0  0  0  0  0  0  0  0  0  0  0  0
   30.5387  -20.6513   35.5668 C   0  0  0  0  0  0  0  0  0  0  0  0
   31.1456  -21.4958   34.6695 C   0  0  0  0  0  0  0  0  0  0  0  0
   32.5614  -20.5876   34.2791 S   0  0  0  0  0  0  0  0  0  0  0  0
   29.2106  -21.0517   36.1922 C   0  0  0  0  0  0  0  0  0  0  0  0
   28.4575  -19.9307   36.4850 F   0  0  0  0  0  0  0  0  0  0  0  0
   28.5518  -21.9274   35.3634 F   0  0  0  0  0  0  0  0  0  0  0  0
   29.5115  -21.6793   37.3849 F   0  0  0  0  0  0  0  0  0  0  0  0
   38.2967  -18.1908   36.6775 C   0  0  0  0  0  0  0  0  0  0  0  0
   42.3472  -22.3117   34.8957 N   0  0  0  0  0  0  0  0  0  0  0  0
   41.5752  -21.1491   34.6710 C   0  0  0  0  0  0  0  0  0  0  0  0
   41.6970  -20.5021   33.4856 N   0  0  0  0  0  0  0  0  0  0  0  0
   40.9668  -19.3890   33.2672 C   0  0  0  0  0  0  0  0  0  0  0  0
   40.1030  -18.8968   34.2174 C   0  0  0  0  0  0  0  0  0  0  0  0
   39.9656  -19.5310   35.4144 N   0  0  0  0  0  0  0  0  0  0  0  0
   39.2223  -19.2958   36.5109 C   0  0  0  0  0  0  0  0  0  0  0  0
   39.5293  -20.3025   37.3955 C   0  0  0  0  0  0  0  0  0  0  0  0
   40.4424  -21.1442   36.8564 N   0  0  0  0  0  0  0  0  0  0  0  0
   40.7104  -20.6551   35.6134 C   0  0  0  0  0  0  0  0  0  0  0  0
   43.2071  -22.4489   34.3298 H   0  0  0  0  0  0  0  0  0  0  0  0
   42.0615  -23.0031   35.6092 H   0  0  0  0  0  0  0  0  0  0  0  0
 21 22  1  0  0  0
 22 23  2  0  0  0
 23 24  1  0  0  0
 24 25  2  0  0  0
 25 26  1  0  0  0
 26 27  1  0  0  0
 27 20  1  0  0  0
 20  1  1  0  0  0
  1  2  1  0  0  0
  2  3  1  0  0  0
  3  4  1  0  0  0
  4  5  1  0  0  0
  5  6  1  0  0  0
  6  7  1  0  0  0
  7  8  1  0  0  0
  7  9  1  0  0  0
  9 11  1  0  0  0
 11 12  2  0  0  0
 12 13  1  0  0  0
 13 14  2  0  0  0
 14 15  1  0  0  0
 13 16  1  0  0  0
 16 17  1  0  0  0
 16 18  1  0  0  0
 16 19  1  0  0  0
 27 28  2  0  0  0
 28 29  1  0  0  0
 29 30  2  0  0  0
 30 22  1  0  0  0
 30 26  1  0  0  0
  5  1  1  0  0  0
 15 11  1  0  0  0
  8  2  1  0  0  0
 21 31  1  0  0  0
 21 32  1  0  0  0
  9 10  1  0  0  0
M  END
> <minimizedAffinity>
-6.01678

> <CNNscore>
0.1859082282

> <CNNaffinity>
5.6265230179

> <CNN_VS>
1.0460169315

> <CNNaffinity_variance>
0.1289748251

$$$$
[H]c1nc(N([H])[H])c2nc([H])c(C([H])([H])N3C4([H])C([H])([H])C([H])([H])C3([H])C([H])([H])C([H])(N([H])c3nc(C(F)(F)F)c([H])s3)C4([H])[H])n2c1[H]


 32 36  0  0  0  0  0  0  0  0999 V2000
   36.7841  -18.2057   36.5127 N   0  0  0  0  0  0  0  0  0  0  0  0
   37.0522  -19.0852   35.4548 C   0  0  0  0  0  0  0  0  0  0  0  0
   37.6721  -20.3491   36.0224 C   0  0  0  0  0  0  0  0  0  0  0  0
   37.5091  -20.2049   37.5188 C   0  0  0  0  0  0  0  0  0  0  0  0
   36.5210  -19.0293   37.6141 C   0  0  0  0  0  0  0  0  0  0  0  0
   35.1478  -19.6586   37.4322 C   0  0  0  0  0  0  0  0  0  0  0  0
   34.6961  -19.7455   36.0354 C   0  0  0  0  0  0  0  0  0  0  0  0
   35.6597  -19.5103   34.9418 C   0  0  0  0  0  0  0  0  0  0  0  0
   34.0701  -21.0324   35.8034 N   0  0  0  0  0  0  0  0  0  0  0  0
   34.6328  -21.7546   35.3141 H   0  0  0  0  0  0  0  0  0  0  0  0
   32.7400  -21.3544   36.2279 C   0  0  0  0  0  0  0  0  0  0  0  0
   31.5793  -20.9706   35.7275 N   0  0  0  0  0  0  0  0  0  0  0  0
   30.4755  -21.3387   36.2769 C   0  0  0  0  0  0  0  0  0  0  0  0
   30.5446  -22.1369   37.3926 C   0  0  0  0  0  0  0  0  0  0  0  0
   32.2546  -22.3012   37.5659 S   0  0  0  0  0  0  0  0  0  0  0  0
   29.1152  -20.9261   35.7339 C   0  0  0  0  0  0  0  0  0  0  0  0
   28.4598  -22.0166   35.1946 F   0  0  0  0  0  0  0  0  0  0  0  0
   28.3873  -20.3100   36.7229 F   0  0  0  0  0  0  0  0  0  0  0  0
   29.3561  -20.0316   34.7097 F   0  0  0  0  0  0  0  0  0  0  0  0
   37.4664  -17.0060   36.6183 C   0  0  0  0  0  0  0  0  0  0  0  0
   33.6915  -12.3974   37.6549 N   0  0  0  0  0  0  0  0  0  0  0  0
   34.0390  -13.5938   36.9870 C   0  0  0  0  0  0  0  0  0  0  0  0
   33.1775  -14.1073   36.0745 N   0  0  0  0  0  0  0  0  0  0  0  0
   33.5010  -15.2516   35.4376 C   0  0  0  0  0  0  0  0  0  0  0  0
   34.6827  -15.9078   35.6920 C   0  0  0  0  0  0  0  0  0  0  0  0
   35.5618  -15.4094   36.6044 N   0  0  0  0  0  0  0  0  0  0  0  0
   36.7627  -15.8149   37.0558 C   0  0  0  0  0  0  0  0  0  0  0  0
   37.1504  -14.8782   37.9845 C   0  0  0  0  0  0  0  0  0  0  0  0
   36.2094  -13.9121   38.1038 N   0  0  0  0  0  0  0  0  0  0  0  0
   35.2167  -14.2510   37.2344 C   0  0  0  0  0  0  0  0  0  0  0  0
   32.6885  -12.1317   37.6996 H   0  0  0  0  0  0  0  0  0  0  0  0
   34.4202  -11.8071   38.0899 H   0  0  0  0  0  0  0  0  0  0  0  0
 21 22  1  0  0  0
 22 23  2  0  0  0
 23 24  1  0  0  0
 24 25  2  0  0  0
 25 26  1  0  0  0
 26 27  1  0  0  0
 27 20  1  0  0  0
 20  1  1  0  0  0
  1  2  1  0  0  0
  2  3  1  0  0  0
  3  4  1  0  0  0
  4  5  1  0  0  0
  5  6  1  0  0  0
  6  7  1  0  0  0
  7  8  1  0  0  0
  7  9  1  0  0  0
  9 11  1  0  0  0
 11 12  2  0  0  0
 12 13  1  0  0  0
 13 14  2  0  0  0
 14 15  1  0  0  0
 13 16  1  0  0  0
 16 17  1  0  0  0
 16 18  1  0  0  0
 16 19  1  0  0  0
 27 28  2  0  0  0
 28 29  1  0  0  0
 29 30  2  0  0  0
 30 22  1  0  0  0
 30 26  1  0  0  0
  5  1  1  0  0  0
 15 11  1  0  0  0
  8  2  1  0  0  0
 21 31  1  0  0  0
 21 32  1  0  0  0
  9 10  1  0  0  0
M  END
> <minimizedAffinity>
-6.21081

> <CNNscore>
0.1675357521

> <CNNaffinity>
5.9166436195

> <CNN_VS>
0.9912493229

> <CNNaffinity_variance>
0.0711136237

$$$$
[H]c1nc(N([H])[H])c2nc([H])c(C([H])([H])N3C4([H])C([H])([H])C([H])([H])C3([H])C([H])([H])C([H])(N([H])c3nc(C(F)(F)F)c([H])s3)C4([H])[H])n2c1[H]


 32 36  0  0  0  0  0  0  0  0999 V2000
   41.4251  -20.1248   36.6335 N   0  0  0  0  0  0  0  0  0  0  0  0
   41.3524  -18.7285   36.5353 C   0  0  0  0  0  0  0  0  0  0  0  0
   41.9069  -18.3094   35.1860 C   0  0  0  0  0  0  0  0  0  0  0  0
   42.0769  -19.6094   34.4325 C   0  0  0  0  0  0  0  0  0  0  0  0
   41.2909  -20.5905   35.3197 C   0  0  0  0  0  0  0  0  0  0  0  0
   39.8400  -20.4255   34.8926 C   0  0  0  0  0  0  0  0  0  0  0  0
   39.1019  -19.3861   35.6258 C   0  0  0  0  0  0  0  0  0  0  0  0
   39.8408  -18.4232   36.4663 C   0  0  0  0  0  0  0  0  0  0  0  0
   38.2799  -18.6276   34.7033 N   0  0  0  0  0  0  0  0  0  0  0  0
   38.6405  -18.5000   33.7383 H   0  0  0  0  0  0  0  0  0  0  0  0
   37.0058  -18.0718   35.0506 C   0  0  0  0  0  0  0  0  0  0  0  0
   36.7021  -16.8560   35.4683 N   0  0  0  0  0  0  0  0  0  0  0  0
   35.4891  -16.5516   35.7711 C   0  0  0  0  0  0  0  0  0  0  0  0
   34.5289  -17.5258   35.6470 C   0  0  0  0  0  0  0  0  0  0  0  0
   35.4835  -18.8489   35.0817 S   0  0  0  0  0  0  0  0  0  0  0  0
   35.0907  -15.1638   36.2517 C   0  0  0  0  0  0  0  0  0  0  0  0
   35.7926  -14.1940   35.5616 F   0  0  0  0  0  0  0  0  0  0  0  0
   33.7301  -15.0072   36.1432 F   0  0  0  0  0  0  0  0  0  0  0  0
   35.4620  -15.0866   37.5796 F   0  0  0  0  0  0  0  0  0  0  0  0
   42.2642  -20.7208   37.5591 C   0  0  0  0  0  0  0  0  0  0  0  0
   42.4837  -18.3839   43.1317 N   0  0  0  0  0  0  0  0  0  0  0  0
   41.8612  -19.1740   42.1385 C   0  0  0  0  0  0  0  0  0  0  0  0
   40.7013  -19.8086   42.4394 N   0  0  0  0  0  0  0  0  0  0  0  0
   40.1051  -20.5683   41.4975 C   0  0  0  0  0  0  0  0  0  0  0  0
   40.6458  -20.7133   40.2413 C   0  0  0  0  0  0  0  0  0  0  0  0
   41.8097  -20.0849   39.9183 N   0  0  0  0  0  0  0  0  0  0  0  0
   42.5622  -20.0375   38.8039 C   0  0  0  0  0  0  0  0  0  0  0  0
   43.6297  -19.2255   39.1062 C   0  0  0  0  0  0  0  0  0  0  0  0
   43.5384  -18.7784   40.3808 N   0  0  0  0  0  0  0  0  0  0  0  0
   42.3939  -19.3202   40.8836 C   0  0  0  0  0  0  0  0  0  0  0  0
   42.2518  -18.5707   44.1266 H   0  0  0  0  0  0  0  0  0  0  0  0
   43.1550  -17.6427   42.8699 H   0  0  0  0  0  0  0  0  0  0  0  0
 21 22  1  0  0  0
 22 23  2  0  0  0
 23 24  1  0  0  0
 24 25  2  0  0  0
 25 26  1  0  0  0
 26 27  1  0  0  0
 27 20  1  0  0  0
 20  1  1  0  0  0
  1  2  1  0  0  0
  2  3  1  0  0  0
  3  4  1  0  0  0
  4  5  1  0  0  0
  5  6  1  0  0  0
  6  7  1  0  0  0
  7  8  1  0  0  0
  7  9  1  0  0  0
  9 11  1  0  0  0
 11 12  2  0  0  0
 12 13  1  0  0  0
 13 14  2  0  0  0
 14 15  1  0  0  0
 13 16  1  0  0  0
 16 17  1  0  0  0
 16 18  1  0  0  0
 16 19  1  0  0  0
 27 28  2  0  0  0
 28 29  1  0  0  0
 29 30  2  0  0  0
 30 22  1  0  0  0
 30 26  1  0  0  0
  5  1  1  0  0  0
 15 11  1  0  0  0
  8  2  1  0  0  0
 21 31  1  0  0  0
 21 32  1  0  0  0
  9 10  1  0  0  0
M  END
> <minimizedAffinity>
-6.35084

> <CNNscore>
0.1537860930

> <CNNaffinity>
5.4767265320

> <CNN_VS>
0.8422443867

> <CNNaffinity_variance>
0.2796431184

$$$$
[H]c1sc(N([H])c2c(C([H])([H])[H])sc3c(OC([H])([H])[H])c([H])c([H])c([H])c23)nc1C([H])([H])N1C([H])([H])C([H])([H])N(C([H])([H])[H])C([H])([H])C1([H])[H]


 27 30  0  0  0  0  0  0  0  0999 V2000
   33.0745  -17.3538   34.6486 N   0  0  0  0  0  0  0  0  0  0  0  0
   32.4870  -16.7464   34.0871 H   0  0  0  0  0  0  0  0  0  0  0  0
   36.2309  -14.5609   37.1848 C   0  0  0  0  0  0  0  0  0  0  0  0
   35.2942  -13.6394   37.5984 C   0  0  0  0  0  0  0  0  0  0  0  0
   34.0043  -13.8752   37.1661 C   0  0  0  0  0  0  0  0  0  0  0  0
   33.6459  -14.9302   36.3873 C   0  0  0  0  0  0  0  0  0  0  0  0
   34.6019  -15.8727   35.9639 C   0  0  0  0  0  0  0  0  0  0  0  0
   34.3750  -16.9617   35.1920 C   0  0  0  0  0  0  0  0  0  0  0  0
   35.4684  -17.7460   34.9050 C   0  0  0  0  0  0  0  0  0  0  0  0
   35.5136  -19.0057   34.0795 C   0  0  0  0  0  0  0  0  0  0  0  0
   36.7424  -16.9522   35.7042 S   0  0  0  0  0  0  0  0  0  0  0  0
   35.8721  -15.6499   36.3832 C   0  0  0  0  0  0  0  0  0  0  0  0
   38.3106  -13.2972   37.5301 C   0  0  0  0  0  0  0  0  0  0  0  0
   37.5629  -14.4690   37.5296 O   0  0  0  0  0  0  0  0  0  0  0  0
   32.6098  -18.6796   34.9316 C   0  0  0  0  0  0  0  0  0  0  0  0
   32.7362  -19.3694   36.0532 N   0  0  0  0  0  0  0  0  0  0  0  0
   32.2556  -20.5637   36.1400 C   0  0  0  0  0  0  0  0  0  0  0  0
   31.6183  -21.0775   35.0357 C   0  0  0  0  0  0  0  0  0  0  0  0
   31.7581  -19.7826   33.9311 S   0  0  0  0  0  0  0  0  0  0  0  0
   32.3644  -21.4088   37.3955 C   0  0  0  0  0  0  0  0  0  0  0  0
   33.7474  -21.5522   37.8122 N   0  0  0  0  0  0  0  0  0  0  0  0
   34.3626  -22.6912   37.1535 C   0  0  0  0  0  0  0  0  0  0  0  0
   35.8078  -22.8515   37.5884 C   0  0  0  0  0  0  0  0  0  0  0  0
   35.9200  -22.7095   39.0358 N   0  0  0  0  0  0  0  0  0  0  0  0
   36.4747  -21.4015   39.3052 C   0  0  0  0  0  0  0  0  0  0  0  0
   34.6232  -22.7913   39.6672 C   0  0  0  0  0  0  0  0  0  0  0  0
   33.8097  -21.5982   39.2421 C   0  0  0  0  0  0  0  0  0  0  0  0
 13 14  1  0  0  0
 14  3  1  0  0  0
  3  4  2  0  0  0
  4  5  1  0  0  0
  5  6  2  0  0  0
  6  7  1  0  0  0
  7  8  1  0  0  0
  8  1  1  0  0  0
  1 15  1  0  0  0
 15 16  2  0  0  0
 16 17  1  0  0  0
 17 20  1  0  0  0
 20 21  1  0  0  0
 21 22  1  0  0  0
 22 23  1  0  0  0
 23 24  1  0  0  0
 24 25  1  0  0  0
 24 26  1  0  0  0
 26 27  1  0  0  0
 17 18  2  0  0  0
 18 19  1  0  0  0
  8  9  2  0  0  0
  9 10  1  0  0  0
  9 11  1  0  0  0
 11 12  1  0  0  0
 12  3  1  0  0  0
 12  7  2  0  0  0
 19 15  1  0  0  0
 27 21  1  0  0  0
  1  2  1  0  0  0
M  END
> <minimizedAffinity>
-6.46300

> <CNNscore>
0.7330222726

> <CNNaffinity>
5.6903853416

> <CNN_VS>
4.1711792946

> <CNNaffinity_variance>
0.3700688779

$$$$
[H]c1sc(N([H])c2c(C([H])([H])[H])sc3c(OC([H])([H])[H])c([H])c([H])c([H])c23)nc1C([H])([H])N1C([H])([H])C([H])([H])N(C([H])([H])[H])C([H])([H])C1([H])[H]


 27 30  0  0  0  0  0  0  0  0999 V2000
   34.0361  -17.9640   34.0219 N   0  0  0  0  0  0  0  0  0  0  0  0
   33.9525  -17.6635   33.0565 H   0  0  0  0  0  0  0  0  0  0  0  0
   35.8757  -14.8390   37.3455 C   0  0  0  0  0  0  0  0  0  0  0  0
   34.7817  -14.0021   37.3644 C   0  0  0  0  0  0  0  0  0  0  0  0
   33.7462  -14.3662   36.5270 C   0  0  0  0  0  0  0  0  0  0  0  0
   33.7681  -15.4648   35.7267 C   0  0  0  0  0  0  0  0  0  0  0  0
   34.8851  -16.3211   35.7063 C   0  0  0  0  0  0  0  0  0  0  0  0
   35.0302  -17.4411   34.9594 C   0  0  0  0  0  0  0  0  0  0  0  0
   36.2153  -18.1244   35.1061 C   0  0  0  0  0  0  0  0  0  0  0  0
   36.6471  -19.3898   34.4113 C   0  0  0  0  0  0  0  0  0  0  0  0
   37.0629  -17.1994   36.2540 S   0  0  0  0  0  0  0  0  0  0  0  0
   35.9078  -15.9720   36.5254 C   0  0  0  0  0  0  0  0  0  0  0  0
   37.9918  -13.6911   37.8414 C   0  0  0  0  0  0  0  0  0  0  0  0
   36.9927  -14.6158   38.1227 O   0  0  0  0  0  0  0  0  0  0  0  0
   33.1285  -18.9619   34.5058 C   0  0  0  0  0  0  0  0  0  0  0  0
   33.0510  -20.2358   34.1577 N   0  0  0  0  0  0  0  0  0  0  0  0
   32.1650  -21.0044   34.6954 C   0  0  0  0  0  0  0  0  0  0  0  0
   31.3211  -20.4507   35.6287 C   0  0  0  0  0  0  0  0  0  0  0  0
   31.8723  -18.8347   35.6670 S   0  0  0  0  0  0  0  0  0  0  0  0
   32.0223  -22.4733   34.3433 C   0  0  0  0  0  0  0  0  0  0  0  0
   31.3986  -23.2131   35.4253 N   0  0  0  0  0  0  0  0  0  0  0  0
   32.3793  -24.0356   36.1119 C   0  0  0  0  0  0  0  0  0  0  0  0
   31.7337  -24.8170   37.2415 C   0  0  0  0  0  0  0  0  0  0  0  0
   30.4806  -25.4137   36.7931 N   0  0  0  0  0  0  0  0  0  0  0  0
   29.3996  -24.6285   37.3465 C   0  0  0  0  0  0  0  0  0  0  0  0
   30.3755  -25.3791   35.3528 C   0  0  0  0  0  0  0  0  0  0  0  0
   30.2759  -23.9419   34.9163 C   0  0  0  0  0  0  0  0  0  0  0  0
 13 14  1  0  0  0
 14  3  1  0  0  0
  3  4  2  0  0  0
  4  5  1  0  0  0
  5  6  2  0  0  0
  6  7  1  0  0  0
  7  8  1  0  0  0
  8  1  1  0  0  0
  1 15  1  0  0  0
 15 16  2  0  0  0
 16 17  1  0  0  0
 17 20  1  0  0  0
 20 21  1  0  0  0
 21 22  1  0  0  0
 22 23  1  0  0  0
 23 24  1  0  0  0
 24 25  1  0  0  0
 24 26  1  0  0  0
 26 27  1  0  0  0
 17 18  2  0  0  0
 18 19  1  0  0  0
  8  9  2  0  0  0
  9 10  1  0  0  0
  9 11  1  0  0  0
 11 12  1  0  0  0
 12  3  1  0  0  0
 12  7  2  0  0  0
 19 15  1  0  0  0
 27 21  1  0  0  0
  1  2  1  0  0  0
M  END
> <minimizedAffinity>
-6.07011

> <CNNscore>
0.6599256992

> <CNNaffinity>
5.3790736198

> <CNN_VS>
3.5497889519

> <CNNaffinity_variance>
0.6179203987

$$$$
[H]c1sc(N([H])c2c(C([H])([H])[H])sc3c(OC([H])([H])[H])c([H])c([H])c([H])c23)nc1C([H])([H])N1C([H])([H])C([H])([H])N(C([H])([H])[H])C([H])([H])C1([H])[H]


 27 30  0  0  0  0  0  0  0  0999 V2000
   33.8059  -17.8799   34.5092 N   0  0  0  0  0  0  0  0  0  0  0  0
   33.5679  -17.6142   33.5594 H   0  0  0  0  0  0  0  0  0  0  0  0
   35.9945  -14.5593   37.4040 C   0  0  0  0  0  0  0  0  0  0  0  0
   34.8885  -13.7496   37.5414 C   0  0  0  0  0  0  0  0  0  0  0  0
   33.7579  -14.1778   36.8748 C   0  0  0  0  0  0  0  0  0  0  0  0
   33.7016  -15.3115   36.1268 C   0  0  0  0  0  0  0  0  0  0  0  0
   34.8308  -16.1400   35.9855 C   0  0  0  0  0  0  0  0  0  0  0  0
   34.9046  -17.2895   35.2739 C   0  0  0  0  0  0  0  0  0  0  0  0
   36.1192  -17.9358   35.2809 C   0  0  0  0  0  0  0  0  0  0  0  0
   36.4886  -19.2210   34.5865 C   0  0  0  0  0  0  0  0  0  0  0  0
   37.0900  -16.9377   36.2572 S   0  0  0  0  0  0  0  0  0  0  0  0
   35.9467  -15.7280   36.6365 C   0  0  0  0  0  0  0  0  0  0  0  0
   38.1696  -13.4179   37.4907 C   0  0  0  0  0  0  0  0  0  0  0  0
   37.2018  -14.2726   38.0054 O   0  0  0  0  0  0  0  0  0  0  0  0
   33.0229  -18.8953   35.1491 C   0  0  0  0  0  0  0  0  0  0  0  0
   31.7349  -19.1544   34.9951 N   0  0  0  0  0  0  0  0  0  0  0  0
   31.1808  -20.1141   35.6561 C   0  0  0  0  0  0  0  0  0  0  0  0
   31.9740  -20.8416   36.5113 C   0  0  0  0  0  0  0  0  0  0  0  0
   33.4877  -20.0797   36.2998 S   0  0  0  0  0  0  0  0  0  0  0  0
   29.7105  -20.4656   35.5264 C   0  0  0  0  0  0  0  0  0  0  0  0
   29.3688  -21.6048   36.3584 N   0  0  0  0  0  0  0  0  0  0  0  0
   28.8598  -22.6954   35.5453 C   0  0  0  0  0  0  0  0  0  0  0  0
   28.4947  -23.8889   36.4088 C   0  0  0  0  0  0  0  0  0  0  0  0
   27.7450  -23.4547   37.5822 N   0  0  0  0  0  0  0  0  0  0  0  0
   28.6412  -23.5027   38.7161 C   0  0  0  0  0  0  0  0  0  0  0  0
   27.2810  -22.0954   37.4278 C   0  0  0  0  0  0  0  0  0  0  0  0
   28.4781  -21.1833   37.3974 C   0  0  0  0  0  0  0  0  0  0  0  0
 13 14  1  0  0  0
 14  3  1  0  0  0
  3  4  2  0  0  0
  4  5  1  0  0  0
  5  6  2  0  0  0
  6  7  1  0  0  0
  7  8  1  0  0  0
  8  1  1  0  0  0
  1 15  1  0  0  0
 15 16  2  0  0  0
 16 17  1  0  0  0
 17 20  1  0  0  0
 20 21  1  0  0  0
 21 22  1  0  0  0
 22 23  1  0  0  0
 23 24  1  0  0  0
 24 25  1  0  0  0
 24 26  1  0  0  0
 26 27  1  0  0  0
 17 18  2  0  0  0
 18 19  1  0  0  0
  8  9  2  0  0  0
  9 10  1  0  0  0
  9 11  1  0  0  0
 11 12  1  0  0  0
 12  3  1  0  0  0
 12  7  2  0  0  0
 19 15  1  0  0  0
 27 21  1  0  0  0
  1  2  1  0  0  0
M  END
> <minimizedAffinity>
-6.38249

> <CNNscore>
0.5876461267

> <CNNaffinity>
5.3470506668

> <CNN_VS>
3.1421735287

> <CNNaffinity_variance>
0.5197347403

$$$$
[H]c1sc(N([H])c2c(C([H])([H])[H])sc3c(OC([H])([H])[H])c([H])c([H])c([H])c23)nc1C([H])([H])N1C([H])([H])C([H])([H])N(C([H])([H])[H])C([H])([H])C1([H])[H]


 27 30  0  0  0  0  0  0  0  0999 V2000
   37.5783  -18.1725   35.1856 N   0  0  0  0  0  0  0  0  0  0  0  0
   38.1247  -18.1034   34.3336 H   0  0  0  0  0  0  0  0  0  0  0  0
   34.7747  -14.6051   37.0853 C   0  0  0  0  0  0  0  0  0  0  0  0
   35.7957  -13.9779   37.7649 C   0  0  0  0  0  0  0  0  0  0  0  0
   37.0392  -14.5629   37.6317 C   0  0  0  0  0  0  0  0  0  0  0  0
   37.2779  -15.6778   36.8915 C   0  0  0  0  0  0  0  0  0  0  0  0
   36.2357  -16.3198   36.1964 C   0  0  0  0  0  0  0  0  0  0  0  0
   36.3415  -17.4296   35.4280 C   0  0  0  0  0  0  0  0  0  0  0  0
   35.1814  -17.8796   34.8411 C   0  0  0  0  0  0  0  0  0  0  0  0
   35.0011  -19.0764   33.9435 C   0  0  0  0  0  0  0  0  0  0  0  0
   34.0136  -16.7630   35.3717 S   0  0  0  0  0  0  0  0  0  0  0  0
   35.0101  -15.7529   36.3209 C   0  0  0  0  0  0  0  0  0  0  0  0
   32.9478  -13.1753   36.2730 C   0  0  0  0  0  0  0  0  0  0  0  0
   33.4742  -14.1476   37.1154 O   0  0  0  0  0  0  0  0  0  0  0  0
   38.0391  -19.0496   36.2210 C   0  0  0  0  0  0  0  0  0  0  0  0
   37.3186  -19.7811   37.0550 N   0  0  0  0  0  0  0  0  0  0  0  0
   37.8986  -20.5225   37.9376 C   0  0  0  0  0  0  0  0  0  0  0  0
   39.2728  -20.5184   37.9717 C   0  0  0  0  0  0  0  0  0  0  0  0
   39.6395  -19.4287   36.7088 S   0  0  0  0  0  0  0  0  0  0  0  0
   37.1334  -21.3862   38.9229 C   0  0  0  0  0  0  0  0  0  0  0  0
   38.0111  -21.9059   39.9556 N   0  0  0  0  0  0  0  0  0  0  0  0
   37.9976  -23.3582   39.9526 C   0  0  0  0  0  0  0  0  0  0  0  0
   38.9089  -23.9096   41.0338 C   0  0  0  0  0  0  0  0  0  0  0  0
   38.7026  -23.1900   42.2857 N   0  0  0  0  0  0  0  0  0  0  0  0
   39.8191  -22.2878   42.4607 C   0  0  0  0  0  0  0  0  0  0  0  0
   37.4893  -22.4071   42.2403 C   0  0  0  0  0  0  0  0  0  0  0  0
   37.6620  -21.3191   41.2143 C   0  0  0  0  0  0  0  0  0  0  0  0
 13 14  1  0  0  0
 14  3  1  0  0  0
  3  4  2  0  0  0
  4  5  1  0  0  0
  5  6  2  0  0  0
  6  7  1  0  0  0
  7  8  1  0  0  0
  8  1  1  0  0  0
  1 15  1  0  0  0
 15 16  2  0  0  0
 16 17  1  0  0  0
 17 20  1  0  0  0
 20 21  1  0  0  0
 21 22  1  0  0  0
 22 23  1  0  0  0
 23 24  1  0  0  0
 24 25  1  0  0  0
 24 26  1  0  0  0
 26 27  1  0  0  0
 17 18  2  0  0  0
 18 19  1  0  0  0
  8  9  2  0  0  0
  9 10  1  0  0  0
  9 11  1  0  0  0
 11 12  1  0  0  0
 12  3  1  0  0  0
 12  7  2  0  0  0
 19 15  1  0  0  0
 27 21  1  0  0  0
  1  2  1  0  0  0
M  END
> <minimizedAffinity>
-5.38721

> <CNNscore>
0.4609400630

> <CNNaffinity>
5.1554965973

> <CNN_VS>
2.3763749599

> <CNNaffinity_variance>
0.3080693781

$$$$
[H]c1sc(N([H])c2c(C([H])([H])[H])sc3c(OC([H])([H])[H])c([H])c([H])c([H])c23)nc1C([H])([H])N1C([H])([H])C([H])([H])N(C([H])([H])[H])C([H])([H])C1([H])[H]


 27 30  0  0  0  0  0  0  0  0999 V2000
   36.6565  -18.4816   35.8228 N   0  0  0  0  0  0  0  0  0  0  0  0
   37.2471  -18.6834   35.0229 H   0  0  0  0  0  0  0  0  0  0  0  0
   35.1149  -13.9836   37.0825 C   0  0  0  0  0  0  0  0  0  0  0  0
   36.2657  -13.6283   37.7511 C   0  0  0  0  0  0  0  0  0  0  0  0
   37.2547  -14.5914   37.7753 C   0  0  0  0  0  0  0  0  0  0  0  0
   37.1378  -15.8139   37.1924 C   0  0  0  0  0  0  0  0  0  0  0  0
   35.9625  -16.1784   36.5088 C   0  0  0  0  0  0  0  0  0  0  0  0
   35.7223  -17.3576   35.8882 C   0  0  0  0  0  0  0  0  0  0  0  0
   34.4950  -17.4897   35.2805 C   0  0  0  0  0  0  0  0  0  0  0  0
   33.9596  -18.6768   34.5226 C   0  0  0  0  0  0  0  0  0  0  0  0
   33.7398  -15.9980   35.5914 S   0  0  0  0  0  0  0  0  0  0  0  0
   34.9848  -15.2392   36.4794 C   0  0  0  0  0  0  0  0  0  0  0  0
   33.0231  -12.9946   37.9117 C   0  0  0  0  0  0  0  0  0  0  0  0
   34.0334  -13.1359   36.9675 O   0  0  0  0  0  0  0  0  0  0  0  0
   36.7357  -19.3456   36.9633 C   0  0  0  0  0  0  0  0  0  0  0  0
   37.8015  -19.9542   37.4569 N   0  0  0  0  0  0  0  0  0  0  0  0
   37.6964  -20.7060   38.5002 C   0  0  0  0  0  0  0  0  0  0  0  0
   36.4509  -20.8436   39.0655 C   0  0  0  0  0  0  0  0  0  0  0  0
   35.5025  -19.8638   38.0373 S   0  0  0  0  0  0  0  0  0  0  0  0
   38.8771  -21.4316   39.1181 C   0  0  0  0  0  0  0  0  0  0  0  0
   38.6886  -22.8702   39.0752 N   0  0  0  0  0  0  0  0  0  0  0  0
   39.4166  -23.5120   40.1558 C   0  0  0  0  0  0  0  0  0  0  0  0
   39.2292  -25.0175   40.1145 C   0  0  0  0  0  0  0  0  0  0  0  0
   39.3833  -25.5099   38.7502 N   0  0  0  0  0  0  0  0  0  0  0  0
   38.0626  -25.8026   38.2390 C   0  0  0  0  0  0  0  0  0  0  0  0
   39.9865  -24.5080   37.9020 C   0  0  0  0  0  0  0  0  0  0  0  0
   39.0283  -23.3544   37.7711 C   0  0  0  0  0  0  0  0  0  0  0  0
 13 14  1  0  0  0
 14  3  1  0  0  0
  3  4  2  0  0  0
  4  5  1  0  0  0
  5  6  2  0  0  0
  6  7  1  0  0  0
  7  8  1  0  0  0
  8  1  1  0  0  0
  1 15  1  0  0  0
 15 16  2  0  0  0
 16 17  1  0  0  0
 17 20  1  0  0  0
 20 21  1  0  0  0
 21 22  1  0  0  0
 22 23  1  0  0  0
 23 24  1  0  0  0
 24 25  1  0  0  0
 24 26  1  0  0  0
 26 27  1  0  0  0
 17 18  2  0  0  0
 18 19  1  0  0  0
  8  9  2  0  0  0
  9 10  1  0  0  0
  9 11  1  0  0  0
 11 12  1  0  0  0
 12  3  1  0  0  0
 12  7  2  0  0  0
 19 15  1  0  0  0
 27 21  1  0  0  0
  1  2  1  0  0  0
M  END
> <minimizedAffinity>
-5.07712

> <CNNscore>
0.4378892779

> <CNNaffinity>
5.0689740181

> <CNN_VS>
2.2196493149

> <CNNaffinity_variance>
0.2394031584

$$$$
[H]c1sc(N([H])c2c(C([H])([H])[H])sc3c(OC([H])([H])[H])c([H])c([H])c([H])c23)nc1C([H])([H])N1C([H])([H])C([H])([H])N(C([H])([H])[H])C([H])([H])C1([H])[H]


 27 30  0  0  0  0  0  0  0  0999 V2000
   37.4954  -17.7368   35.0397 N   0  0  0  0  0  0  0  0  0  0  0  0
   38.0453  -17.5345   34.2114 H   0  0  0  0  0  0  0  0  0  0  0  0
   34.5312  -14.3581   37.0381 C   0  0  0  0  0  0  0  0  0  0  0  0
   35.5389  -13.6216   37.6209 C   0  0  0  0  0  0  0  0  0  0  0  0
   36.8164  -14.1018   37.4124 C   0  0  0  0  0  0  0  0  0  0  0  0
   37.0990  -15.2178   36.6894 C   0  0  0  0  0  0  0  0  0  0  0  0
   36.0704  -15.9715   36.0932 C   0  0  0  0  0  0  0  0  0  0  0  0
   36.2184  -17.0948   35.3519 C   0  0  0  0  0  0  0  0  0  0  0  0
   35.0634  -17.6636   34.8667 C   0  0  0  0  0  0  0  0  0  0  0  0
   34.9256  -18.9027   34.0206 C   0  0  0  0  0  0  0  0  0  0  0  0
   33.8427  -16.6333   35.4501 S   0  0  0  0  0  0  0  0  0  0  0  0
   34.8117  -15.5080   36.2923 C   0  0  0  0  0  0  0  0  0  0  0  0
   32.7160  -12.9116   37.8470 C   0  0  0  0  0  0  0  0  0  0  0  0
   33.2009  -14.0134   37.1519 O   0  0  0  0  0  0  0  0  0  0  0  0
   37.9928  -18.7100   35.9665 C   0  0  0  0  0  0  0  0  0  0  0  0
   39.2054  -19.2345   36.0308 N   0  0  0  0  0  0  0  0  0  0  0  0
   39.4889  -20.1089   36.9364 C   0  0  0  0  0  0  0  0  0  0  0  0
   38.4931  -20.4642   37.8149 C   0  0  0  0  0  0  0  0  0  0  0  0
   37.1965  -19.4977   37.2660 S   0  0  0  0  0  0  0  0  0  0  0  0
   40.8585  -20.7487   37.0672 C   0  0  0  0  0  0  0  0  0  0  0  0
   41.7386  -19.9388   37.8894 N   0  0  0  0  0  0  0  0  0  0  0  0
   42.6046  -19.1218   37.0574 C   0  0  0  0  0  0  0  0  0  0  0  0
   43.5323  -18.2757   37.9100 C   0  0  0  0  0  0  0  0  0  0  0  0
   44.1115  -19.0803   38.9799 N   0  0  0  0  0  0  0  0  0  0  0  0
   43.4304  -18.7316   40.2070 C   0  0  0  0  0  0  0  0  0  0  0  0
   43.9122  -20.4900   38.7351 C   0  0  0  0  0  0  0  0  0  0  0  0
   42.4377  -20.7834   38.8106 C   0  0  0  0  0  0  0  0  0  0  0  0
 13 14  1  0  0  0
 14  3  1  0  0  0
  3  4  2  0  0  0
  4  5  1  0  0  0
  5  6  2  0  0  0
  6  7  1  0  0  0
  7  8  1  0  0  0
  8  1  1  0  0  0
  1 15  1  0  0  0
 15 16  2  0  0  0
 16 17  1  0  0  0
 17 20  1  0  0  0
 20 21  1  0  0  0
 21 22  1  0  0  0
 22 23  1  0  0  0
 23 24  1  0  0  0
 24 25  1  0  0  0
 24 26  1  0  0  0
 26 27  1  0  0  0
 17 18  2  0  0  0
 18 19  1  0  0  0
  8  9  2  0  0  0
  9 10  1  0  0  0
  9 11  1  0  0  0
 11 12  1  0  0  0
 12  3  1  0  0  0
 12  7  2  0  0  0
 19 15  1  0  0  0
 27 21  1  0  0  0
  1  2  1  0  0  0
M  END
> <minimizedAffinity>
-6.45811

> <CNNscore>
0.4343552589

> <CNNaffinity>
5.3641557693

> <CNN_VS>
2.3299493790

> <CNNaffinity_variance>
0.3612323701

$$$$
[H]c1sc(N([H])c2c(C([H])([H])[H])sc3c(OC([H])([H])[H])c([H])c([H])c([H])c23)nc1C([H])([H])N1C([H])([H])C([H])([H])N(C([H])([H])[H])C([H])([H])C1([H])[H]


 27 30  0  0  0  0  0  0  0  0999 V2000
   36.3748  -18.4029   35.6334 N   0  0  0  0  0  0  0  0  0  0  0  0
   36.9609  -18.5676   34.8218 H   0  0  0  0  0  0  0  0  0  0  0  0
   35.2309  -13.8828   37.2005 C   0  0  0  0  0  0  0  0  0  0  0  0
   36.4376  -13.6452   37.8210 C   0  0  0  0  0  0  0  0  0  0  0  0
   37.3540  -14.6748   37.7419 C   0  0  0  0  0  0  0  0  0  0  0  0
   37.1187  -15.8530   37.1060 C   0  0  0  0  0  0  0  0  0  0  0  0
   35.8861  -16.0973   36.4714 C   0  0  0  0  0  0  0  0  0  0  0  0
   35.5292  -17.2217   35.8069 C   0  0  0  0  0  0  0  0  0  0  0  0
   34.2656  -17.2350   35.2626 C   0  0  0  0  0  0  0  0  0  0  0  0
   33.6070  -18.3393   34.4772 C   0  0  0  0  0  0  0  0  0  0  0  0
   33.6378  -15.7132   35.6893 S   0  0  0  0  0  0  0  0  0  0  0  0
   34.9789  -15.0920   36.5435 C   0  0  0  0  0  0  0  0  0  0  0  0
   33.1030  -12.9742   38.0302 C   0  0  0  0  0  0  0  0  0  0  0  0
   34.2091  -12.9568   37.1885 O   0  0  0  0  0  0  0  0  0  0  0  0
   36.3687  -19.3825   36.6794 C   0  0  0  0  0  0  0  0  0  0  0  0
   37.0855  -20.4907   36.7672 N   0  0  0  0  0  0  0  0  0  0  0  0
   36.9553  -21.2707   37.7868 C   0  0  0  0  0  0  0  0  0  0  0  0
   36.0552  -20.9053   38.7595 C   0  0  0  0  0  0  0  0  0  0  0  0
   35.4495  -19.4392   38.1267 S   0  0  0  0  0  0  0  0  0  0  0  0
   37.7463  -22.5550   37.9511 C   0  0  0  0  0  0  0  0  0  0  0  0
   39.1266  -22.2784   38.3050 N   0  0  0  0  0  0  0  0  0  0  0  0
   39.2064  -21.1226   39.1809 C   0  0  0  0  0  0  0  0  0  0  0  0
   40.6474  -20.8232   39.5511 C   0  0  0  0  0  0  0  0  0  0  0  0
   41.4987  -20.8908   38.3685 N   0  0  0  0  0  0  0  0  0  0  0  0
   42.2337  -22.1347   38.4293 C   0  0  0  0  0  0  0  0  0  0  0  0
   40.7082  -20.8894   37.1594 C   0  0  0  0  0  0  0  0  0  0  0  0
   39.9086  -22.1638   37.1109 C   0  0  0  0  0  0  0  0  0  0  0  0
 13 14  1  0  0  0
 14  3  1  0  0  0
  3  4  2  0  0  0
  4  5  1  0  0  0
  5  6  2  0  0  0
  6  7  1  0  0  0
  7  8  1  0  0  0
  8  1  1  0  0  0
  1 15  1  0  0  0
 15 16  2  0  0  0
 16 17  1  0  0  0
 17 20  1  0  0  0
 20 21  1  0  0  0
 21 22  1  0  0  0
 22 23  1  0  0  0
 23 24  1  0  0  0
 24 25  1  0  0  0
 24 26  1  0  0  0
 26 27  1  0  0  0
 17 18  2  0  0  0
 18 19  1  0  0  0
  8  9  2  0  0  0
  9 10  1  0  0  0
  9 11  1  0  0  0
 11 12  1  0  0  0
 12  3  1  0  0  0
 12  7  2  0  0  0
 19 15  1  0  0  0
 27 21  1  0  0  0
  1  2  1  0  0  0
M  END
> <minimizedAffinity>
-5.30162

> <CNNscore>
0.4190773070

> <CNNaffinity>
5.2104673386

> <CNN_VS>
2.1835885048

> <CNNaffinity_variance>
0.3262209296

$$$$
[H]c1sc(N([H])c2c(C([H])([H])[H])sc3c(OC([H])([H])[H])c([H])c([H])c([H])c23)nc1C([H])([H])N1C([H])([H])C([H])([H])N(C([H])([H])[H])C([H])([H])C1([H])[H]


 27 30  0  0  0  0  0  0  0  0999 V2000
   36.8842  -18.5553   36.5870 N   0  0  0  0  0  0  0  0  0  0  0  0
   36.8943  -19.1489   37.4096 H   0  0  0  0  0  0  0  0  0  0  0  0
   34.8675  -14.0688   36.6081 C   0  0  0  0  0  0  0  0  0  0  0  0
   35.9217  -13.4496   37.2428 C   0  0  0  0  0  0  0  0  0  0  0  0
   36.9818  -14.2732   37.5654 C   0  0  0  0  0  0  0  0  0  0  0  0
   37.0189  -15.6043   37.2922 C   0  0  0  0  0  0  0  0  0  0  0  0
   35.9426  -16.2386   36.6436 C   0  0  0  0  0  0  0  0  0  0  0  0
   35.8571  -17.5494   36.3154 C   0  0  0  0  0  0  0  0  0  0  0  0
   34.7031  -17.9465   35.6802 C   0  0  0  0  0  0  0  0  0  0  0  0
   34.3372  -19.3277   35.2020 C   0  0  0  0  0  0  0  0  0  0  0  0
   33.8015  -16.5089   35.5680 S   0  0  0  0  0  0  0  0  0  0  0  0
   34.8962  -15.4381   36.3226 C   0  0  0  0  0  0  0  0  0  0  0  0
   32.7634  -12.8903   37.0827 C   0  0  0  0  0  0  0  0  0  0  0  0
   33.7331  -13.3877   36.2199 O   0  0  0  0  0  0  0  0  0  0  0  0
   37.9369  -18.7045   35.6262 C   0  0  0  0  0  0  0  0  0  0  0  0
   39.1803  -19.1072   35.8301 N   0  0  0  0  0  0  0  0  0  0  0  0
   40.0091  -19.1843   34.8442 C   0  0  0  0  0  0  0  0  0  0  0  0
   39.5508  -18.8361   33.5959 C   0  0  0  0  0  0  0  0  0  0  0  0
   37.9309  -18.4149   33.9353 S   0  0  0  0  0  0  0  0  0  0  0  0
   41.4475  -19.6389   35.0076 C   0  0  0  0  0  0  0  0  0  0  0  0
   42.0443  -19.0697   36.2020 N   0  0  0  0  0  0  0  0  0  0  0  0
   42.8064  -17.8780   35.8726 C   0  0  0  0  0  0  0  0  0  0  0  0
   43.4386  -17.2797   37.1159 C   0  0  0  0  0  0  0  0  0  0  0  0
   44.0524  -18.3262   37.9257 N   0  0  0  0  0  0  0  0  0  0  0  0
   43.1838  -18.5709   39.0556 C   0  0  0  0  0  0  0  0  0  0  0  0
   44.1794  -19.5548   37.1764 C   0  0  0  0  0  0  0  0  0  0  0  0
   42.7992  -20.0787   36.8822 C   0  0  0  0  0  0  0  0  0  0  0  0
 13 14  1  0  0  0
 14  3  1  0  0  0
  3  4  2  0  0  0
  4  5  1  0  0  0
  5  6  2  0  0  0
  6  7  1  0  0  0
  7  8  1  0  0  0
  8  1  1  0  0  0
  1 15  1  0  0  0
 15 16  2  0  0  0
 16 17  1  0  0  0
 17 20  1  0  0  0
 20 21  1  0  0  0
 21 22  1  0  0  0
 22 23  1  0  0  0
 23 24  1  0  0  0
 24 25  1  0  0  0
 24 26  1  0  0  0
 26 27  1  0  0  0
 17 18  2  0  0  0
 18 19  1  0  0  0
  8  9  2  0  0  0
  9 10  1  0  0  0
  9 11  1  0  0  0
 11 12  1  0  0  0
 12  3  1  0  0  0
 12  7  2  0  0  0
 19 15  1  0  0  0
 27 21  1  0  0  0
  1  2  1  0  0  0
M  END
> <minimizedAffinity>
-6.84265

> <CNNscore>
0.3586171269

> <CNNaffinity>
5.2482824326

> <CNN_VS>
1.8821239471

> <CNNaffinity_variance>
0.4501838684

$$$$
[H]c1sc(N([H])c2c(C([H])([H])[H])sc3c(OC([H])([H])[H])c([H])c([H])c([H])c23)nc1C([H])([H])N1C([H])([H])C([H])([H])N(C([H])([H])[H])C([H])([H])C1([H])[H]


 27 30  0  0  0  0  0  0  0  0999 V2000
   36.1433  -18.1582   36.4449 N   0  0  0  0  0  0  0  0  0  0  0  0
   35.8912  -18.8665   37.1262 H   0  0  0  0  0  0  0  0  0  0  0  0
   35.5819  -13.2905   36.8769 C   0  0  0  0  0  0  0  0  0  0  0  0
   36.8033  -13.0657   37.4729 C   0  0  0  0  0  0  0  0  0  0  0  0
   37.5789  -14.1908   37.6706 C   0  0  0  0  0  0  0  0  0  0  0  0
   37.1984  -15.4466   37.3158 C   0  0  0  0  0  0  0  0  0  0  0  0
   35.9506  -15.6780   36.7066 C   0  0  0  0  0  0  0  0  0  0  0  0
   35.4568  -16.8736   36.3067 C   0  0  0  0  0  0  0  0  0  0  0  0
   34.2075  -16.8572   35.7306 C   0  0  0  0  0  0  0  0  0  0  0  0
   33.4183  -18.0244   35.1966 C   0  0  0  0  0  0  0  0  0  0  0  0
   33.7788  -15.2120   35.7683 S   0  0  0  0  0  0  0  0  0  0  0  0
   35.1812  -14.5792   36.5081 C   0  0  0  0  0  0  0  0  0  0  0  0
   33.7608  -11.7669   37.5121 C   0  0  0  0  0  0  0  0  0  0  0  0
   34.6894  -12.2737   36.6104 O   0  0  0  0  0  0  0  0  0  0  0  0
   37.2381  -18.4239   35.5592 C   0  0  0  0  0  0  0  0  0  0  0  0
   38.4063  -18.9751   35.8441 N   0  0  0  0  0  0  0  0  0  0  0  0
   39.2898  -19.1421   34.9187 C   0  0  0  0  0  0  0  0  0  0  0  0
   38.9688  -18.7295   33.6473 C   0  0  0  0  0  0  0  0  0  0  0  0
   37.3903  -18.1197   33.8778 S   0  0  0  0  0  0  0  0  0  0  0  0
   40.6478  -19.7681   35.1760 C   0  0  0  0  0  0  0  0  0  0  0  0
   40.6454  -21.1806   34.8416 N   0  0  0  0  0  0  0  0  0  0  0  0
   41.0141  -21.9787   35.9978 C   0  0  0  0  0  0  0  0  0  0  0  0
   41.0194  -23.4571   35.6547 C   0  0  0  0  0  0  0  0  0  0  0  0
   41.6950  -23.6791   34.3812 N   0  0  0  0  0  0  0  0  0  0  0  0
   40.6779  -23.9313   33.3847 C   0  0  0  0  0  0  0  0  0  0  0  0
   42.4434  -22.5103   33.9802 C   0  0  0  0  0  0  0  0  0  0  0  0
   41.4716  -21.3974   33.6923 C   0  0  0  0  0  0  0  0  0  0  0  0
 13 14  1  0  0  0
 14  3  1  0  0  0
  3  4  2  0  0  0
  4  5  1  0  0  0
  5  6  2  0  0  0
  6  7  1  0  0  0
  7  8  1  0  0  0
  8  1  1  0  0  0
  1 15  1  0  0  0
 15 16  2  0  0  0
 16 17  1  0  0  0
 17 20  1  0  0  0
 20 21  1  0  0  0
 21 22  1  0  0  0
 22 23  1  0  0  0
 23 24  1  0  0  0
 24 25  1  0  0  0
 24 26  1  0  0  0
 26 27  1  0  0  0
 17 18  2  0  0  0
 18 19  1  0  0  0
  8  9  2  0  0  0
  9 10  1  0  0  0
  9 11  1  0  0  0
 11 12  1  0  0  0
 12  3  1  0  0  0
 12  7  2  0  0  0
 19 15  1  0  0  0
 27 21  1  0  0  0
  1  2  1  0  0  0
M  END
> <minimizedAffinity>
-6.32718

> <CNNscore>
0.3439525962

> <CNNaffinity>
5.1652326584

> <CNN_VS>
1.7765952349

> <CNNaffinity_variance>
0.4242770672

$$$$
[H]c1c([H])c(N([H])S(=O)(=O)c2c([H])c([H])c(N([H])C(=O)N([H])C([H])([H])C([H])([H])N(C([H])(C([H])([H])[H])C([H])([H])[H])C([H])(C([H])([H])[H])C([H])([H])[H])c([H])c2[H])c([H])c([H])c1F


 33 34  0  0  0  0  0  0  0  0999 V2000
   34.2819  -13.9217   37.1783 C   0  0  0  0  0  0  0  0  0  0  0  0
   33.7152  -14.7608   36.2681 C   0  0  0  0  0  0  0  0  0  0  0  0
   34.3761  -15.9260   35.8359 C   0  0  0  0  0  0  0  0  0  0  0  0
   35.6171  -16.2586   36.3174 C   0  0  0  0  0  0  0  0  0  0  0  0
   36.1691  -15.3968   37.2364 C   0  0  0  0  0  0  0  0  0  0  0  0
   35.5507  -14.2621   37.6716 C   0  0  0  0  0  0  0  0  0  0  0  0
   31.9949  -10.9729   37.7304 N   0  0  0  0  0  0  0  0  0  0  0  0
   32.5126  -12.1917   37.1708 C   0  0  0  0  0  0  0  0  0  0  0  0
   31.9102  -12.7993   36.2608 O   0  0  0  0  0  0  0  0  0  0  0  0
   33.7357  -12.7333   37.6493 N   0  0  0  0  0  0  0  0  0  0  0  0
   32.5506  -10.5181   38.5059 H   0  0  0  0  0  0  0  0  0  0  0  0
   34.2579  -12.1968   38.4109 H   0  0  0  0  0  0  0  0  0  0  0  0
   30.7635  -10.3997   37.2438 C   0  0  0  0  0  0  0  0  0  0  0  0
   29.9845   -9.7234   38.3298 C   0  0  0  0  0  0  0  0  0  0  0  0
   28.9789  -10.4145   38.9937 N   0  0  0  0  0  0  0  0  0  0  0  0
   28.3863  -10.0598   41.3009 C   0  0  0  0  0  0  0  0  0  0  0  0
   28.0630   -9.8116   39.8539 C   0  0  0  0  0  0  0  0  0  0  0  0
   27.8986   -8.3101   39.6285 C   0  0  0  0  0  0  0  0  0  0  0  0
   28.5675  -11.6637   38.4196 C   0  0  0  0  0  0  0  0  0  0  0  0
   27.0797  -11.6463   38.1868 C   0  0  0  0  0  0  0  0  0  0  0  0
   28.9529  -12.8710   39.1877 C   0  0  0  0  0  0  0  0  0  0  0  0
   36.5066  -17.6627   35.8378 S   0  0  0  0  0  0  0  0  0  0  0  0
   36.9795  -17.4147   34.4187 O   0  0  0  0  0  0  0  0  0  0  0  0
   37.7174  -17.7946   36.7330 O   0  0  0  0  0  0  0  0  0  0  0  0
   35.5656  -19.0884   35.8712 N   0  0  0  0  0  0  0  0  0  0  0  0
   36.0230  -19.9746   36.2973 H   0  0  0  0  0  0  0  0  0  0  0  0
   34.2626  -19.2909   35.4200 C   0  0  0  0  0  0  0  0  0  0  0  0
   33.2338  -19.5215   36.3363 C   0  0  0  0  0  0  0  0  0  0  0  0
   31.9360  -19.7395   35.9710 C   0  0  0  0  0  0  0  0  0  0  0  0
   31.5958  -19.7377   34.6376 C   0  0  0  0  0  0  0  0  0  0  0  0
   30.3141  -19.9525   34.2639 F   0  0  0  0  0  0  0  0  0  0  0  0
   32.5770  -19.5144   33.7002 C   0  0  0  0  0  0  0  0  0  0  0  0
   33.8988  -19.2932   34.1012 C   0  0  0  0  0  0  0  0  0  0  0  0
 16 17  1  0  0  0
 17 18  1  0  0  0
 17 15  1  0  0  0
 15 14  1  0  0  0
 14 13  1  0  0  0
 13  7  1  0  0  0
  7  8  1  0  0  0
  8  9  2  0  0  0
  8 10  1  0  0  0
 10  1  1  0  0  0
  1  2  2  0  0  0
  2  3  1  0  0  0
  3  4  2  0  0  0
  4  5  1  0  0  0
  5  6  2  0  0  0
  4 22  1  0  0  0
 22 23  2  0  0  0
 22 24  2  0  0  0
 22 25  1  0  0  0
 25 27  1  0  0  0
 27 28  2  0  0  0
 28 29  1  0  0  0
 29 30  2  0  0  0
 30 31  1  0  0  0
 30 32  1  0  0  0
 32 33  2  0  0  0
 15 19  1  0  0  0
 19 20  1  0  0  0
 19 21  1  0  0  0
  6  1  1  0  0  0
 33 27  1  0  0  0
  7 11  1  0  0  0
 10 12  1  0  0  0
 25 26  1  0  0  0
M  END
> <minimizedAffinity>
-7.78270

> <CNNscore>
0.5890406370

> <CNNaffinity>
6.4690384865

> <CNN_VS>
3.8105266094

> <CNNaffinity_variance>
0.2576897740

$$$$
[H]c1c([H])c(N([H])S(=O)(=O)c2c([H])c([H])c(N([H])C(=O)N([H])C([H])([H])C([H])([H])N(C([H])(C([H])([H])[H])C([H])([H])[H])C([H])(C([H])([H])[H])C([H])([H])[H])c([H])c2[H])c([H])c([H])c1F


 33 34  0  0  0  0  0  0  0  0999 V2000
   33.7808  -15.0589   35.0982 C   0  0  0  0  0  0  0  0  0  0  0  0
   35.0695  -14.6262   35.1729 C   0  0  0  0  0  0  0  0  0  0  0  0
   36.1499  -15.5225   35.0681 C   0  0  0  0  0  0  0  0  0  0  0  0
   35.9424  -16.8665   34.8865 C   0  0  0  0  0  0  0  0  0  0  0  0
   34.6326  -17.2801   34.8131 C   0  0  0  0  0  0  0  0  0  0  0  0
   33.5684  -16.4334   34.9115 C   0  0  0  0  0  0  0  0  0  0  0  0
   31.2324  -12.5732   36.3462 N   0  0  0  0  0  0  0  0  0  0  0  0
   32.4209  -13.3810   36.3059 C   0  0  0  0  0  0  0  0  0  0  0  0
   33.2790  -13.3247   37.2117 O   0  0  0  0  0  0  0  0  0  0  0  0
   32.6427  -14.2701   35.2203 N   0  0  0  0  0  0  0  0  0  0  0  0
   30.5546  -12.6629   35.5402 H   0  0  0  0  0  0  0  0  0  0  0  0
   31.8943  -14.3310   34.4609 H   0  0  0  0  0  0  0  0  0  0  0  0
   30.9830  -11.6783   37.4500 C   0  0  0  0  0  0  0  0  0  0  0  0
   30.3702  -12.3808   38.6226 C   0  0  0  0  0  0  0  0  0  0  0  0
   29.0398  -12.1508   38.9494 N   0  0  0  0  0  0  0  0  0  0  0  0
   29.4293   -9.7803   38.7779 C   0  0  0  0  0  0  0  0  0  0  0  0
   28.4304  -10.8993   38.8788 C   0  0  0  0  0  0  0  0  0  0  0  0
   27.4163  -10.7684   37.7446 C   0  0  0  0  0  0  0  0  0  0  0  0
   28.1563  -13.2799   38.8882 C   0  0  0  0  0  0  0  0  0  0  0  0
   27.2259  -13.2572   40.0724 C   0  0  0  0  0  0  0  0  0  0  0  0
   28.8219  -14.5997   38.7835 C   0  0  0  0  0  0  0  0  0  0  0  0
   37.2061  -18.0409   34.7564 S   0  0  0  0  0  0  0  0  0  0  0  0
   36.5989  -19.2621   34.0937 O   0  0  0  0  0  0  0  0  0  0  0  0
   38.2851  -17.4890   33.8531 O   0  0  0  0  0  0  0  0  0  0  0  0
   37.8521  -18.4920   36.2724 N   0  0  0  0  0  0  0  0  0  0  0  0
   38.5029  -17.7787   36.7663 H   0  0  0  0  0  0  0  0  0  0  0  0
   37.6648  -19.6718   36.9904 C   0  0  0  0  0  0  0  0  0  0  0  0
   38.5595  -20.0221   38.0044 C   0  0  0  0  0  0  0  0  0  0  0  0
   38.4491  -21.1655   38.7430 C   0  0  0  0  0  0  0  0  0  0  0  0
   37.4124  -22.0362   38.4967 C   0  0  0  0  0  0  0  0  0  0  0  0
   37.2929  -23.1716   39.2215 F   0  0  0  0  0  0  0  0  0  0  0  0
   36.5072  -21.7313   37.5073 C   0  0  0  0  0  0  0  0  0  0  0  0
   36.6429  -20.5529   36.7656 C   0  0  0  0  0  0  0  0  0  0  0  0
 16 17  1  0  0  0
 17 18  1  0  0  0
 17 15  1  0  0  0
 15 14  1  0  0  0
 14 13  1  0  0  0
 13  7  1  0  0  0
  7  8  1  0  0  0
  8  9  2  0  0  0
  8 10  1  0  0  0
 10  1  1  0  0  0
  1  2  2  0  0  0
  2  3  1  0  0  0
  3  4  2  0  0  0
  4  5  1  0  0  0
  5  6  2  0  0  0
  4 22  1  0  0  0
 22 23  2  0  0  0
 22 24  2  0  0  0
 22 25  1  0  0  0
 25 27  1  0  0  0
 27 28  2  0  0  0
 28 29  1  0  0  0
 29 30  2  0  0  0
 30 31  1  0  0  0
 30 32  1  0  0  0
 32 33  2  0  0  0
 15 19  1  0  0  0
 19 20  1  0  0  0
 19 21  1  0  0  0
  6  1  1  0  0  0
 33 27  1  0  0  0
  7 11  1  0  0  0
 10 12  1  0  0  0
 25 26  1  0  0  0
M  END
> <minimizedAffinity>
0.38863

> <CNNscore>
0.4943382442

> <CNNaffinity>
5.6621556282

> <CNN_VS>
2.7990200520

> <CNNaffinity_variance>
0.5124170184

$$$$
[H]c1c([H])c(N([H])S(=O)(=O)c2c([H])c([H])c(N([H])C(=O)N([H])C([H])([H])C([H])([H])N(C([H])(C([H])([H])[H])C([H])([H])[H])C([H])(C([H])([H])[H])C([H])([H])[H])c([H])c2[H])c([H])c([H])c1F


 33 34  0  0  0  0  0  0  0  0999 V2000
   33.7736  -12.7970   37.0135 C   0  0  0  0  0  0  0  0  0  0  0  0
   34.8386  -13.3361   37.6684 C   0  0  0  0  0  0  0  0  0  0  0  0
   35.3432  -14.6046   37.3254 C   0  0  0  0  0  0  0  0  0  0  0  0
   34.7790  -15.3444   36.3170 C   0  0  0  0  0  0  0  0  0  0  0  0
   33.7052  -14.7792   35.6692 C   0  0  0  0  0  0  0  0  0  0  0  0
   33.1969  -13.5531   35.9816 C   0  0  0  0  0  0  0  0  0  0  0  0
   31.2359  -10.1166   37.7918 N   0  0  0  0  0  0  0  0  0  0  0  0
   31.7770  -11.4109   37.4777 C   0  0  0  0  0  0  0  0  0  0  0  0
   31.0426  -12.4147   37.3630 O   0  0  0  0  0  0  0  0  0  0  0  0
   33.1758  -11.5727   37.2891 N   0  0  0  0  0  0  0  0  0  0  0  0
   31.9166   -9.3134   37.8855 H   0  0  0  0  0  0  0  0  0  0  0  0
   33.7957  -10.7064   37.3653 H   0  0  0  0  0  0  0  0  0  0  0  0
   29.8161   -9.9312   37.9689 C   0  0  0  0  0  0  0  0  0  0  0  0
   29.3890  -10.1435   39.3889 C   0  0  0  0  0  0  0  0  0  0  0  0
   28.0681  -10.4657   39.6736 N   0  0  0  0  0  0  0  0  0  0  0  0
   27.0102  -11.9991   38.1472 C   0  0  0  0  0  0  0  0  0  0  0  0
   27.5360  -11.7461   39.5327 C   0  0  0  0  0  0  0  0  0  0  0  0
   28.5051  -12.8638   39.9118 C   0  0  0  0  0  0  0  0  0  0  0  0
   27.3734   -9.5971   40.5803 C   0  0  0  0  0  0  0  0  0  0  0  0
   27.2851   -8.2155   39.9875 C   0  0  0  0  0  0  0  0  0  0  0  0
   27.9342   -9.5330   41.9505 C   0  0  0  0  0  0  0  0  0  0  0  0
   35.3252  -16.9131   35.8334 S   0  0  0  0  0  0  0  0  0  0  0  0
   36.7494  -16.7453   35.3408 O   0  0  0  0  0  0  0  0  0  0  0  0
   35.3382  -17.8137   37.0474 O   0  0  0  0  0  0  0  0  0  0  0  0
   34.3781  -17.5896   34.5827 N   0  0  0  0  0  0  0  0  0  0  0  0
   34.4790  -17.1555   33.5940 H   0  0  0  0  0  0  0  0  0  0  0  0
   33.4689  -18.6442   34.6425 C   0  0  0  0  0  0  0  0  0  0  0  0
   32.3810  -18.5800   35.5164 C   0  0  0  0  0  0  0  0  0  0  0  0
   31.4555  -19.5767   35.6399 C   0  0  0  0  0  0  0  0  0  0  0  0
   31.5765  -20.7149   34.8760 C   0  0  0  0  0  0  0  0  0  0  0  0
   30.6663  -21.7085   34.9897 F   0  0  0  0  0  0  0  0  0  0  0  0
   32.6325  -20.8210   34.0014 C   0  0  0  0  0  0  0  0  0  0  0  0
   33.5665  -19.7850   33.8939 C   0  0  0  0  0  0  0  0  0  0  0  0
 16 17  1  0  0  0
 17 18  1  0  0  0
 17 15  1  0  0  0
 15 14  1  0  0  0
 14 13  1  0  0  0
 13  7  1  0  0  0
  7  8  1  0  0  0
  8  9  2  0  0  0
  8 10  1  0  0  0
 10  1  1  0  0  0
  1  2  2  0  0  0
  2  3  1  0  0  0
  3  4  2  0  0  0
  4  5  1  0  0  0
  5  6  2  0  0  0
  4 22  1  0  0  0
 22 23  2  0  0  0
 22 24  2  0  0  0
 22 25  1  0  0  0
 25 27  1  0  0  0
 27 28  2  0  0  0
 28 29  1  0  0  0
 29 30  2  0  0  0
 30 31  1  0  0  0
 30 32  1  0  0  0
 32 33  2  0  0  0
 15 19  1  0  0  0
 19 20  1  0  0  0
 19 21  1  0  0  0
  6  1  1  0  0  0
 33 27  1  0  0  0
  7 11  1  0  0  0
 10 12  1  0  0  0
 25 26  1  0  0  0
M  END
> <minimizedAffinity>
-7.12217

> <CNNscore>
0.4918986559

> <CNNaffinity>
6.1090259552

> <CNN_VS>
3.0050215721

> <CNNaffinity_variance>
0.1978930980

$$$$
[H]c1c([H])c(N([H])S(=O)(=O)c2c([H])c([H])c(N([H])C(=O)N([H])C([H])([H])C([H])([H])N(C([H])(C([H])([H])[H])C([H])([H])[H])C([H])(C([H])([H])[H])C([H])([H])[H])c([H])c2[H])c([H])c([H])c1F


 33 34  0  0  0  0  0  0  0  0999 V2000
   34.5231  -14.3481   36.2699 C   0  0  0  0  0  0  0  0  0  0  0  0
   35.7804  -14.5346   36.7580 C   0  0  0  0  0  0  0  0  0  0  0  0
   36.3663  -15.8138   36.8016 C   0  0  0  0  0  0  0  0  0  0  0  0
   35.6903  -16.9202   36.3531 C   0  0  0  0  0  0  0  0  0  0  0  0
   34.4226  -16.7073   35.8637 C   0  0  0  0  0  0  0  0  0  0  0  0
   33.8318  -15.4795   35.8102 C   0  0  0  0  0  0  0  0  0  0  0  0
   32.3190  -11.4059   37.1159 N   0  0  0  0  0  0  0  0  0  0  0  0
   32.9684  -12.6829   37.2358 C   0  0  0  0  0  0  0  0  0  0  0  0
   32.7881  -13.4155   38.2312 O   0  0  0  0  0  0  0  0  0  0  0  0
   33.8378  -13.1402   36.2095 N   0  0  0  0  0  0  0  0  0  0  0  0
   32.5264  -10.8329   36.2522 H   0  0  0  0  0  0  0  0  0  0  0  0
   33.9695  -12.5198   35.3503 H   0  0  0  0  0  0  0  0  0  0  0  0
   31.4192  -10.9342   38.1402 C   0  0  0  0  0  0  0  0  0  0  0  0
   30.0316  -11.4714   37.9677 C   0  0  0  0  0  0  0  0  0  0  0  0
   29.2541  -11.7519   39.0843 N   0  0  0  0  0  0  0  0  0  0  0  0
   29.0069  -12.1191   41.4516 C   0  0  0  0  0  0  0  0  0  0  0  0
   29.7039  -12.4954   40.1739 C   0  0  0  0  0  0  0  0  0  0  0  0
   29.6034  -14.0062   39.9755 C   0  0  0  0  0  0  0  0  0  0  0  0
   28.1546  -10.8669   39.3433 C   0  0  0  0  0  0  0  0  0  0  0  0
   26.9977  -11.2240   38.4477 C   0  0  0  0  0  0  0  0  0  0  0  0
   28.4646   -9.4221   39.2302 C   0  0  0  0  0  0  0  0  0  0  0  0
   36.3260  -18.5290   36.3763 S   0  0  0  0  0  0  0  0  0  0  0  0
   37.7796  -18.4288   35.9567 O   0  0  0  0  0  0  0  0  0  0  0  0
   36.2687  -19.0488   37.7946 O   0  0  0  0  0  0  0  0  0  0  0  0
   35.5081  -19.5818   35.3078 N   0  0  0  0  0  0  0  0  0  0  0  0
   36.1133  -20.1420   34.6035 H   0  0  0  0  0  0  0  0  0  0  0  0
   34.1419  -19.8360   35.2004 C   0  0  0  0  0  0  0  0  0  0  0  0
   33.4262  -20.2891   36.3111 C   0  0  0  0  0  0  0  0  0  0  0  0
   32.0901  -20.5704   36.2813 C   0  0  0  0  0  0  0  0  0  0  0  0
   31.3874  -20.4083   35.1092 C   0  0  0  0  0  0  0  0  0  0  0  0
   30.0642  -20.6839   35.0676 F   0  0  0  0  0  0  0  0  0  0  0  0
   32.0519  -19.9638   33.9902 C   0  0  0  0  0  0  0  0  0  0  0  0
   33.4211  -19.6822   34.0480 C   0  0  0  0  0  0  0  0  0  0  0  0
 16 17  1  0  0  0
 17 18  1  0  0  0
 17 15  1  0  0  0
 15 14  1  0  0  0
 14 13  1  0  0  0
 13  7  1  0  0  0
  7  8  1  0  0  0
  8  9  2  0  0  0
  8 10  1  0  0  0
 10  1  1  0  0  0
  1  2  2  0  0  0
  2  3  1  0  0  0
  3  4  2  0  0  0
  4  5  1  0  0  0
  5  6  2  0  0  0
  4 22  1  0  0  0
 22 23  2  0  0  0
 22 24  2  0  0  0
 22 25  1  0  0  0
 25 27  1  0  0  0
 27 28  2  0  0  0
 28 29  1  0  0  0
 29 30  2  0  0  0
 30 31  1  0  0  0
 30 32  1  0  0  0
 32 33  2  0  0  0
 15 19  1  0  0  0
 19 20  1  0  0  0
 19 21  1  0  0  0
  6  1  1  0  0  0
 33 27  1  0  0  0
  7 11  1  0  0  0
 10 12  1  0  0  0
 25 26  1  0  0  0
M  END
> <minimizedAffinity>
-7.26846

> <CNNscore>
0.4305353463

> <CNNaffinity>
6.0302062035

> <CNN_VS>
2.5962169170

> <CNNaffinity_variance>
0.2250703275

$$$$
[H]c1c([H])c(N([H])S(=O)(=O)c2c([H])c([H])c(N([H])C(=O)N([H])C([H])([H])C([H])([H])N(C([H])(C([H])([H])[H])C([H])([H])[H])C([H])(C([H])([H])[H])C([H])([H])[H])c([H])c2[H])c([H])c([H])c1F


 33 34  0  0  0  0  0  0  0  0999 V2000
   34.0464  -12.9699   36.9807 C   0  0  0  0  0  0  0  0  0  0  0  0
   35.1634  -13.4121   37.6214 C   0  0  0  0  0  0  0  0  0  0  0  0
   35.6880  -14.6952   37.3768 C   0  0  0  0  0  0  0  0  0  0  0  0
   35.0914  -15.5476   36.4823 C   0  0  0  0  0  0  0  0  0  0  0  0
   33.9653  -15.0789   35.8466 C   0  0  0  0  0  0  0  0  0  0  0  0
   33.4366  -13.8411   36.0652 C   0  0  0  0  0  0  0  0  0  0  0  0
   31.4509  -10.2784   37.4805 N   0  0  0  0  0  0  0  0  0  0  0  0
   32.0173  -11.5800   37.2532 C   0  0  0  0  0  0  0  0  0  0  0  0
   31.2963  -12.5919   37.1252 O   0  0  0  0  0  0  0  0  0  0  0  0
   33.4263  -11.7399   37.1683 N   0  0  0  0  0  0  0  0  0  0  0  0
   32.1205   -9.4681   37.5913 H   0  0  0  0  0  0  0  0  0  0  0  0
   34.0363  -10.8676   37.2551 H   0  0  0  0  0  0  0  0  0  0  0  0
   30.0216  -10.0954   37.5515 C   0  0  0  0  0  0  0  0  0  0  0  0
   29.5590   -9.7733   38.9393 C   0  0  0  0  0  0  0  0  0  0  0  0
   28.3246  -10.2321   39.3816 N   0  0  0  0  0  0  0  0  0  0  0  0
   27.3658  -12.2338   38.4468 C   0  0  0  0  0  0  0  0  0  0  0  0
   28.0377  -11.5750   39.6192 C   0  0  0  0  0  0  0  0  0  0  0  0
   29.2529  -12.4038   40.0299 C   0  0  0  0  0  0  0  0  0  0  0  0
   27.4925   -9.2849   40.0669 C   0  0  0  0  0  0  0  0  0  0  0  0
   27.8808   -7.8870   39.6628 C   0  0  0  0  0  0  0  0  0  0  0  0
   27.4778   -9.4072   41.5437 C   0  0  0  0  0  0  0  0  0  0  0  0
   35.6591  -17.1423   36.1254 S   0  0  0  0  0  0  0  0  0  0  0  0
   35.5827  -17.9310   37.4181 O   0  0  0  0  0  0  0  0  0  0  0  0
   34.7227  -17.7729   35.1202 O   0  0  0  0  0  0  0  0  0  0  0  0
   37.2692  -17.1617   35.5542 N   0  0  0  0  0  0  0  0  0  0  0  0
   37.7669  -16.2048   35.4410 H   0  0  0  0  0  0  0  0  0  0  0  0
   38.0621  -18.2520   35.2007 C   0  0  0  0  0  0  0  0  0  0  0  0
   38.0099  -18.7618   33.9012 C   0  0  0  0  0  0  0  0  0  0  0  0
   38.7468  -19.8329   33.4831 C   0  0  0  0  0  0  0  0  0  0  0  0
   39.5930  -20.4623   34.3672 C   0  0  0  0  0  0  0  0  0  0  0  0
   40.3275  -21.5239   33.9648 F   0  0  0  0  0  0  0  0  0  0  0  0
   39.6766  -19.9938   35.6575 C   0  0  0  0  0  0  0  0  0  0  0  0
   38.9110  -18.8942   36.0599 C   0  0  0  0  0  0  0  0  0  0  0  0
 16 17  1  0  0  0
 17 18  1  0  0  0
 17 15  1  0  0  0
 15 14  1  0  0  0
 14 13  1  0  0  0
 13  7  1  0  0  0
  7  8  1  0  0  0
  8  9  2  0  0  0
  8 10  1  0  0  0
 10  1  1  0  0  0
  1  2  2  0  0  0
  2  3  1  0  0  0
  3  4  2  0  0  0
  4  5  1  0  0  0
  5  6  2  0  0  0
  4 22  1  0  0  0
 22 23  2  0  0  0
 22 24  2  0  0  0
 22 25  1  0  0  0
 25 27  1  0  0  0
 27 28  2  0  0  0
 28 29  1  0  0  0
 29 30  2  0  0  0
 30 31  1  0  0  0
 30 32  1  0  0  0
 32 33  2  0  0  0
 15 19  1  0  0  0
 19 20  1  0  0  0
 19 21  1  0  0  0
  6  1  1  0  0  0
 33 27  1  0  0  0
  7 11  1  0  0  0
 10 12  1  0  0  0
 25 26  1  0  0  0
M  END
> <minimizedAffinity>
-7.17702

> <CNNscore>
0.4058671594

> <CNNaffinity>
5.9100427628

> <CNN_VS>
2.3986923695

> <CNNaffinity_variance>
0.1338932216

$$$$
[H]c1c([H])c(N([H])S(=O)(=O)c2c([H])c([H])c(N([H])C(=O)N([H])C([H])([H])C([H])([H])N(C([H])(C([H])([H])[H])C([H])([H])[H])C([H])(C([H])([H])[H])C([H])([H])[H])c([H])c2[H])c([H])c([H])c1F


 33 34  0  0  0  0  0  0  0  0999 V2000
   35.7895  -16.2454   36.5892 C   0  0  0  0  0  0  0  0  0  0  0  0
   36.3590  -15.2962   37.3819 C   0  0  0  0  0  0  0  0  0  0  0  0
   35.6776  -14.1077   37.7054 C   0  0  0  0  0  0  0  0  0  0  0  0
   34.4130  -13.8630   37.2328 C   0  0  0  0  0  0  0  0  0  0  0  0
   33.8578  -14.8363   36.4350 C   0  0  0  0  0  0  0  0  0  0  0  0
   34.4958  -15.9958   36.1065 C   0  0  0  0  0  0  0  0  0  0  0  0
   36.9020  -19.8459   36.4172 N   0  0  0  0  0  0  0  0  0  0  0  0
   36.2901  -18.6461   36.9200 C   0  0  0  0  0  0  0  0  0  0  0  0
   35.6711  -18.6348   38.0048 O   0  0  0  0  0  0  0  0  0  0  0  0
   36.3807  -17.4358   36.1817 N   0  0  0  0  0  0  0  0  0  0  0  0
   37.3997  -19.7860   35.4867 H   0  0  0  0  0  0  0  0  0  0  0  0
   36.9311  -17.4464   35.2666 H   0  0  0  0  0  0  0  0  0  0  0  0
   36.8349  -21.0793   37.1627 C   0  0  0  0  0  0  0  0  0  0  0  0
   37.7178  -22.1414   36.5830 C   0  0  0  0  0  0  0  0  0  0  0  0
   38.2473  -23.1270   37.4064 N   0  0  0  0  0  0  0  0  0  0  0  0
   39.9101  -24.0858   38.8610 C   0  0  0  0  0  0  0  0  0  0  0  0
   39.1261  -22.8684   38.4568 C   0  0  0  0  0  0  0  0  0  0  0  0
   40.0931  -21.7181   38.1852 C   0  0  0  0  0  0  0  0  0  0  0  0
   37.5126  -24.3565   37.4951 C   0  0  0  0  0  0  0  0  0  0  0  0
   37.0545  -24.7706   36.1215 C   0  0  0  0  0  0  0  0  0  0  0  0
   36.3678  -24.3434   38.4360 C   0  0  0  0  0  0  0  0  0  0  0  0
   33.5047  -12.4298   37.5701 S   0  0  0  0  0  0  0  0  0  0  0  0
   33.5131  -12.2535   39.0761 O   0  0  0  0  0  0  0  0  0  0  0  0
   34.2143  -11.2514   36.9431 O   0  0  0  0  0  0  0  0  0  0  0  0
   31.8871  -12.5258   37.0285 N   0  0  0  0  0  0  0  0  0  0  0  0
   31.7133  -12.9953   36.0665 H   0  0  0  0  0  0  0  0  0  0  0  0
   30.7243  -12.0784   37.6532 C   0  0  0  0  0  0  0  0  0  0  0  0
   30.2070  -12.7749   38.7479 C   0  0  0  0  0  0  0  0  0  0  0  0
   29.0677  -12.4056   39.4043 C   0  0  0  0  0  0  0  0  0  0  0  0
   28.3729  -11.2937   38.9867 C   0  0  0  0  0  0  0  0  0  0  0  0
   27.2434  -10.9184   39.6286 F   0  0  0  0  0  0  0  0  0  0  0  0
   28.8461  -10.5771   37.9125 C   0  0  0  0  0  0  0  0  0  0  0  0
   30.0161  -10.9768   37.2580 C   0  0  0  0  0  0  0  0  0  0  0  0
 16 17  1  0  0  0
 17 18  1  0  0  0
 17 15  1  0  0  0
 15 14  1  0  0  0
 14 13  1  0  0  0
 13  7  1  0  0  0
  7  8  1  0  0  0
  8  9  2  0  0  0
  8 10  1  0  0  0
 10  1  1  0  0  0
  1  2  2  0  0  0
  2  3  1  0  0  0
  3  4  2  0  0  0
  4  5  1  0  0  0
  5  6  2  0  0  0
  4 22  1  0  0  0
 22 23  2  0  0  0
 22 24  2  0  0  0
 22 25  1  0  0  0
 25 27  1  0  0  0
 27 28  2  0  0  0
 28 29  1  0  0  0
 29 30  2  0  0  0
 30 31  1  0  0  0
 30 32  1  0  0  0
 32 33  2  0  0  0
 15 19  1  0  0  0
 19 20  1  0  0  0
 19 21  1  0  0  0
  6  1  1  0  0  0
 33 27  1  0  0  0
  7 11  1  0  0  0
 10 12  1  0  0  0
 25 26  1  0  0  0
M  END
> <minimizedAffinity>
-5.90355

> <CNNscore>
0.3876740634

> <CNNaffinity>
5.2636828423

> <CNN_VS>
2.0405933857

> <CNNaffinity_variance>
0.3186904788

$$$$
[H]c1c([H])c(N([H])S(=O)(=O)c2c([H])c([H])c(N([H])C(=O)N([H])C([H])([H])C([H])([H])N(C([H])(C([H])([H])[H])C([H])([H])[H])C([H])(C([H])([H])[H])C([H])([H])[H])c([H])c2[H])c([H])c([H])c1F


 33 34  0  0  0  0  0  0  0  0999 V2000
   39.2134  -20.1306   35.8375 C   0  0  0  0  0  0  0  0  0  0  0  0
   39.9721  -21.2523   35.9786 C   0  0  0  0  0  0  0  0  0  0  0  0
   41.3014  -21.1839   36.4366 C   0  0  0  0  0  0  0  0  0  0  0  0
   41.8809  -19.9825   36.7579 C   0  0  0  0  0  0  0  0  0  0  0  0
   41.0951  -18.8635   36.6084 C   0  0  0  0  0  0  0  0  0  0  0  0
   39.8056  -18.9018   36.1668 C   0  0  0  0  0  0  0  0  0  0  0  0
   35.4686  -19.7272   35.6256 N   0  0  0  0  0  0  0  0  0  0  0  0
   36.7877  -19.7954   36.1934 C   0  0  0  0  0  0  0  0  0  0  0  0
   36.9832  -19.6108   37.4131 O   0  0  0  0  0  0  0  0  0  0  0  0
   37.9068  -20.0786   35.3655 N   0  0  0  0  0  0  0  0  0  0  0  0
   35.3778  -19.8821   34.5840 H   0  0  0  0  0  0  0  0  0  0  0  0
   37.7304  -20.2587   34.3277 H   0  0  0  0  0  0  0  0  0  0  0  0
   34.3190  -19.4584   36.4549 C   0  0  0  0  0  0  0  0  0  0  0  0
   33.4216  -20.6507   36.5842 C   0  0  0  0  0  0  0  0  0  0  0  0
   32.3202  -20.7820   35.7478 N   0  0  0  0  0  0  0  0  0  0  0  0
   31.5883  -22.9361   34.9575 C   0  0  0  0  0  0  0  0  0  0  0  0
   31.3560  -21.7786   35.8882 C   0  0  0  0  0  0  0  0  0  0  0  0
   31.2134  -22.3046   37.3148 C   0  0  0  0  0  0  0  0  0  0  0  0
   31.9033  -19.6049   35.0409 C   0  0  0  0  0  0  0  0  0  0  0  0
   30.4183  -19.4163   35.2066 C   0  0  0  0  0  0  0  0  0  0  0  0
   32.2687  -19.5659   33.6052 C   0  0  0  0  0  0  0  0  0  0  0  0
   43.5075  -19.8018   37.3188 S   0  0  0  0  0  0  0  0  0  0  0  0
   44.1847  -21.1453   37.1301 O   0  0  0  0  0  0  0  0  0  0  0  0
   44.2067  -18.7833   36.4477 O   0  0  0  0  0  0  0  0  0  0  0  0
   43.5964  -19.3585   38.9664 N   0  0  0  0  0  0  0  0  0  0  0  0
   44.5103  -18.8812   39.3029 H   0  0  0  0  0  0  0  0  0  0  0  0
   42.6457  -19.5230   39.9722 C   0  0  0  0  0  0  0  0  0  0  0  0
   42.8190  -18.8936   41.2071 C   0  0  0  0  0  0  0  0  0  0  0  0
   41.9385  -19.0159   42.2439 C   0  0  0  0  0  0  0  0  0  0  0  0
   40.8135  -19.7937   42.0919 C   0  0  0  0  0  0  0  0  0  0  0  0
   39.9346  -19.9225   43.1114 F   0  0  0  0  0  0  0  0  0  0  0  0
   40.6022  -20.4321   40.8922 C   0  0  0  0  0  0  0  0  0  0  0  0
   41.5198  -20.2896   39.8459 C   0  0  0  0  0  0  0  0  0  0  0  0
 16 17  1  0  0  0
 17 18  1  0  0  0
 17 15  1  0  0  0
 15 14  1  0  0  0
 14 13  1  0  0  0
 13  7  1  0  0  0
  7  8  1  0  0  0
  8  9  2  0  0  0
  8 10  1  0  0  0
 10  1  1  0  0  0
  1  2  2  0  0  0
  2  3  1  0  0  0
  3  4  2  0  0  0
  4  5  1  0  0  0
  5  6  2  0  0  0
  4 22  1  0  0  0
 22 23  2  0  0  0
 22 24  2  0  0  0
 22 25  1  0  0  0
 25 27  1  0  0  0
 27 28  2  0  0  0
 28 29  1  0  0  0
 29 30  2  0  0  0
 30 31  1  0  0  0
 30 32  1  0  0  0
 32 33  2  0  0  0
 15 19  1  0  0  0
 19 20  1  0  0  0
 19 21  1  0  0  0
  6  1  1  0  0  0
 33 27  1  0  0  0
  7 11  1  0  0  0
 10 12  1  0  0  0
 25 26  1  0  0  0
M  END
> <minimizedAffinity>
-4.94678

> <CNNscore>
0.3836024404

> <CNNaffinity>
4.6990580559

> <CNN_VS>
1.8025701046

> <CNNaffinity_variance>
0.5698004365

$$$$
[H]c1c([H])c(N([H])S(=O)(=O)c2c([H])c([H])c(N([H])C(=O)N([H])C([H])([H])C([H])([H])N(C([H])(C([H])([H])[H])C([H])([H])[H])C([H])(C([H])([H])[H])C([H])([H])[H])c([H])c2[H])c([H])c([H])c1F


 33 34  0  0  0  0  0  0  0  0999 V2000
   34.2446  -14.8877   35.8805 C   0  0  0  0  0  0  0  0  0  0  0  0
   35.5553  -14.7646   36.2278 C   0  0  0  0  0  0  0  0  0  0  0  0
   36.3906  -15.8916   36.3447 C   0  0  0  0  0  0  0  0  0  0  0  0
   35.9130  -17.1566   36.1123 C   0  0  0  0  0  0  0  0  0  0  0  0
   34.5866  -17.2562   35.7619 C   0  0  0  0  0  0  0  0  0  0  0  0
   33.7561  -16.1814   35.6418 C   0  0  0  0  0  0  0  0  0  0  0  0
   31.8384  -12.0972   36.6887 N   0  0  0  0  0  0  0  0  0  0  0  0
   32.7594  -13.1832   36.8863 C   0  0  0  0  0  0  0  0  0  0  0  0
   33.0823  -13.5646   38.0310 O   0  0  0  0  0  0  0  0  0  0  0  0
   33.3255  -13.8510   35.7675 N   0  0  0  0  0  0  0  0  0  0  0  0
   31.6190  -11.8193   35.6928 H   0  0  0  0  0  0  0  0  0  0  0  0
   33.0274  -13.5357   34.7916 H   0  0  0  0  0  0  0  0  0  0  0  0
   31.2405  -11.4199   37.8136 C   0  0  0  0  0  0  0  0  0  0  0  0
   29.9027  -11.9896   38.1733 C   0  0  0  0  0  0  0  0  0  0  0  0
   29.3074  -11.6491   39.3813 N   0  0  0  0  0  0  0  0  0  0  0  0
   28.5553   -9.3616   39.3363 C   0  0  0  0  0  0  0  0  0  0  0  0
   28.1970  -10.8136   39.4888 C   0  0  0  0  0  0  0  0  0  0  0  0
   27.0695  -11.1554   38.5173 C   0  0  0  0  0  0  0  0  0  0  0  0
   29.5247  -12.5436   40.4821 C   0  0  0  0  0  0  0  0  0  0  0  0
   29.1475  -13.9440   40.0762 C   0  0  0  0  0  0  0  0  0  0  0  0
   28.8411  -12.1729   41.7436 C   0  0  0  0  0  0  0  0  0  0  0  0
   36.8617  -18.5975   36.2406 S   0  0  0  0  0  0  0  0  0  0  0  0
   36.7447  -19.0693   37.6769 O   0  0  0  0  0  0  0  0  0  0  0  0
   36.2621  -19.6507   35.3371 O   0  0  0  0  0  0  0  0  0  0  0  0
   38.5099  -18.3427   35.8695 N   0  0  0  0  0  0  0  0  0  0  0  0
   38.9567  -17.4144   36.2083 H   0  0  0  0  0  0  0  0  0  0  0  0
   39.3918  -19.1702   35.1767 C   0  0  0  0  0  0  0  0  0  0  0  0
   39.7151  -18.8892   33.8472 C   0  0  0  0  0  0  0  0  0  0  0  0
   40.5609  -19.6584   33.1000 C   0  0  0  0  0  0  0  0  0  0  0  0
   41.1389  -20.7742   33.6608 C   0  0  0  0  0  0  0  0  0  0  0  0
   41.9778  -21.5435   32.9308 F   0  0  0  0  0  0  0  0  0  0  0  0
   40.8491  -21.0889   34.9678 C   0  0  0  0  0  0  0  0  0  0  0  0
   39.9795  -20.2838   35.7113 C   0  0  0  0  0  0  0  0  0  0  0  0
 16 17  1  0  0  0
 17 18  1  0  0  0
 17 15  1  0  0  0
 15 14  1  0  0  0
 14 13  1  0  0  0
 13  7  1  0  0  0
  7  8  1  0  0  0
  8  9  2  0  0  0
  8 10  1  0  0  0
 10  1  1  0  0  0
  1  2  2  0  0  0
  2  3  1  0  0  0
  3  4  2  0  0  0
  4  5  1  0  0  0
  5  6  2  0  0  0
  4 22  1  0  0  0
 22 23  2  0  0  0
 22 24  2  0  0  0
 22 25  1  0  0  0
 25 27  1  0  0  0
 27 28  2  0  0  0
 28 29  1  0  0  0
 29 30  2  0  0  0
 30 31  1  0  0  0
 30 32  1  0  0  0
 32 33  2  0  0  0
 15 19  1  0  0  0
 19 20  1  0  0  0
 19 21  1  0  0  0
  6  1  1  0  0  0
 33 27  1  0  0  0
  7 11  1  0  0  0
 10 12  1  0  0  0
 25 26  1  0  0  0
M  END
> <minimizedAffinity>
-7.18826

> <CNNscore>
0.3569923341

> <CNNaffinity>
5.5409951210

> <CNN_VS>
1.9780927896

> <CNNaffinity_variance>
0.1617417037

$$$$
[H]c1c([H])c(N([H])S(=O)(=O)c2c([H])c([H])c(N([H])C(=O)N([H])C([H])([H])C([H])([H])N(C([H])(C([H])([H])[H])C([H])([H])[H])C([H])(C([H])([H])[H])C([H])([H])[H])c([H])c2[H])c([H])c([H])c1F


 33 34  0  0  0  0  0  0  0  0999 V2000
   35.5930  -15.2086   35.8750 C   0  0  0  0  0  0  0  0  0  0  0  0
   36.1972  -14.1070   36.3995 C   0  0  0  0  0  0  0  0  0  0  0  0
   35.4501  -13.0883   37.0205 C   0  0  0  0  0  0  0  0  0  0  0  0
   34.0841  -13.1693   37.1197 C   0  0  0  0  0  0  0  0  0  0  0  0
   33.4961  -14.2914   36.5838 C   0  0  0  0  0  0  0  0  0  0  0  0
   34.1960  -15.2921   35.9772 C   0  0  0  0  0  0  0  0  0  0  0  0
   37.6898  -18.2512   35.1157 N   0  0  0  0  0  0  0  0  0  0  0  0
   37.0961  -17.1742   35.8602 C   0  0  0  0  0  0  0  0  0  0  0  0
   37.3257  -17.0189   37.0781 O   0  0  0  0  0  0  0  0  0  0  0  0
   36.2266  -16.2549   35.2145 N   0  0  0  0  0  0  0  0  0  0  0  0
   37.4424  -18.3298   34.0911 H   0  0  0  0  0  0  0  0  0  0  0  0
   36.0528  -16.3791   34.1681 H   0  0  0  0  0  0  0  0  0  0  0  0
   38.5891  -19.1830   35.7517 C   0  0  0  0  0  0  0  0  0  0  0  0
   38.2283  -20.6076   35.4617 C   0  0  0  0  0  0  0  0  0  0  0  0
   38.9317  -21.6380   36.0728 N   0  0  0  0  0  0  0  0  0  0  0  0
   40.4765  -22.0320   34.2677 C   0  0  0  0  0  0  0  0  0  0  0  0
   40.2454  -21.9751   35.7521 C   0  0  0  0  0  0  0  0  0  0  0  0
   41.2910  -21.0605   36.3864 C   0  0  0  0  0  0  0  0  0  0  0  0
   38.4838  -22.0407   37.3752 C   0  0  0  0  0  0  0  0  0  0  0  0
   37.1400  -22.7112   37.2617 C   0  0  0  0  0  0  0  0  0  0  0  0
   38.4350  -20.9615   38.3897 C   0  0  0  0  0  0  0  0  0  0  0  0
   33.0852  -11.9639   37.8561 S   0  0  0  0  0  0  0  0  0  0  0  0
   33.0173  -12.2981   39.3336 O   0  0  0  0  0  0  0  0  0  0  0  0
   33.7569  -10.6191   37.6968 O   0  0  0  0  0  0  0  0  0  0  0  0
   31.5009  -11.9336   37.2175 N   0  0  0  0  0  0  0  0  0  0  0  0
   31.3446  -12.4100   36.2559 H   0  0  0  0  0  0  0  0  0  0  0  0
   30.3464  -11.3722   37.7601 C   0  0  0  0  0  0  0  0  0  0  0  0
   30.2890   -9.9996   38.0126 C   0  0  0  0  0  0  0  0  0  0  0  0
   29.1988   -9.3790   38.5526 C   0  0  0  0  0  0  0  0  0  0  0  0
   28.0850  -10.1203   38.8747 C   0  0  0  0  0  0  0  0  0  0  0  0
   26.9997   -9.5169   39.4100 F   0  0  0  0  0  0  0  0  0  0  0  0
   28.0971  -11.4758   38.6428 C   0  0  0  0  0  0  0  0  0  0  0  0
   29.2268  -12.0867   38.0881 C   0  0  0  0  0  0  0  0  0  0  0  0
 16 17  1  0  0  0
 17 18  1  0  0  0
 17 15  1  0  0  0
 15 14  1  0  0  0
 14 13  1  0  0  0
 13  7  1  0  0  0
  7  8  1  0  0  0
  8  9  2  0  0  0
  8 10  1  0  0  0
 10  1  1  0  0  0
  1  2  2  0  0  0
  2  3  1  0  0  0
  3  4  2  0  0  0
  4  5  1  0  0  0
  5  6  2  0  0  0
  4 22  1  0  0  0
 22 23  2  0  0  0
 22 24  2  0  0  0
 22 25  1  0  0  0
 25 27  1  0  0  0
 27 28  2  0  0  0
 28 29  1  0  0  0
 29 30  2  0  0  0
 30 31  1  0  0  0
 30 32  1  0  0  0
 32 33  2  0  0  0
 15 19  1  0  0  0
 19 20  1  0  0  0
 19 21  1  0  0  0
  6  1  1  0  0  0
 33 27  1  0  0  0
  7 11  1  0  0  0
 10 12  1  0  0  0
 25 26  1  0  0  0
M  END
> <minimizedAffinity>
-6.79995

> <CNNscore>
0.3443369865

> <CNNaffinity>
5.3917241096

> <CNN_VS>
1.8565700054

> <CNNaffinity_variance>
0.4234637320

$$$$
[H]c1nc2c(OC([H])([H])[H])nc(N([H])[H])nc2n1[H]


 15 16  0  0  0  0  0  0  0  0999 V2000
   34.9916  -15.5409   36.5313 C   0  0  0  0  0  0  0  0  0  0  0  0
   33.8071  -14.9996   36.2333 N   0  0  0  0  0  0  0  0  0  0  0  0
   33.5823  -13.6700   36.2330 C   0  0  0  0  0  0  0  0  0  0  0  0
   32.2856  -13.1421   35.9038 N   0  0  0  0  0  0  0  0  0  0  0  0
   34.6145  -12.8690   36.5509 N   0  0  0  0  0  0  0  0  0  0  0  0
   35.8406  -13.3293   36.8638 C   0  0  0  0  0  0  0  0  0  0  0  0
   37.0207  -12.7839   37.2103 N   0  0  0  0  0  0  0  0  0  0  0  0
   37.9481  -13.7349   37.4194 C   0  0  0  0  0  0  0  0  0  0  0  0
   37.3256  -14.9061   37.1962 N   0  0  0  0  0  0  0  0  0  0  0  0
   36.0430  -14.7048   36.8560 C   0  0  0  0  0  0  0  0  0  0  0  0
   31.4481  -13.4301   36.4750 H   0  0  0  0  0  0  0  0  0  0  0  0
   32.1396  -12.4759   35.1106 H   0  0  0  0  0  0  0  0  0  0  0  0
   37.1646  -11.7426   37.2972 H   0  0  0  0  0  0  0  0  0  0  0  0
   35.5075  -17.6279   35.3421 C   0  0  0  0  0  0  0  0  0  0  0  0
   35.2432  -16.9051   36.5374 O   0  0  0  0  0  0  0  0  0  0  0  0
 14 15  1  0  0  0
 15  1  1  0  0  0
  1  2  2  0  0  0
  2  3  1  0  0  0
  3  4  1  0  0  0
  3  5  2  0  0  0
  5  6  1  0  0  0
  6  7  1  0  0  0
  7  8  1  0  0  0
  8  9  2  0  0  0
  9 10  1  0  0  0
 10  1  1  0  0  0
 10  6  2  0  0  0
  4 11  1  0  0  0
  4 12  1  0  0  0
  7 13  1  0  0  0
M  END
> <minimizedAffinity>
-4.86991

> <CNNscore>
0.5007855892

> <CNNaffinity>
3.7244076729

> <CNN_VS>
1.8651297092

> <CNNaffinity_variance>
0.7568167448

$$$$
[H]c1nc2c(OC([H])([H])[H])nc(N([H])[H])nc2n1[H]


 15 16  0  0  0  0  0  0  0  0999 V2000
   35.8870  -14.1396   37.1294 C   0  0  0  0  0  0  0  0  0  0  0  0
   35.3177  -12.9485   37.3349 N   0  0  0  0  0  0  0  0  0  0  0  0
   34.0486  -12.6655   36.9774 C   0  0  0  0  0  0  0  0  0  0  0  0
   33.4866  -11.3647   37.2232 N   0  0  0  0  0  0  0  0  0  0  0  0
   33.3404  -13.6442   36.3870 N   0  0  0  0  0  0  0  0  0  0  0  0
   33.8350  -14.8724   36.1420 C   0  0  0  0  0  0  0  0  0  0  0  0
   33.3757  -16.0086   35.5868 N   0  0  0  0  0  0  0  0  0  0  0  0
   34.3202  -16.9656   35.5964 C   0  0  0  0  0  0  0  0  0  0  0  0
   35.3987  -16.4074   36.1748 N   0  0  0  0  0  0  0  0  0  0  0  0
   35.1464  -15.1356   36.5215 C   0  0  0  0  0  0  0  0  0  0  0  0
   33.9474  -10.5134   36.8066 H   0  0  0  0  0  0  0  0  0  0  0  0
   32.6286  -11.2289   37.8060 H   0  0  0  0  0  0  0  0  0  0  0  0
   32.3973  -16.1019   35.2041 H   0  0  0  0  0  0  0  0  0  0  0  0
   38.1904  -13.4511   37.6355 C   0  0  0  0  0  0  0  0  0  0  0  0
   37.1900  -14.4506   37.4895 O   0  0  0  0  0  0  0  0  0  0  0  0
 14 15  1  0  0  0
 15  1  1  0  0  0
  1  2  2  0  0  0
  2  3  1  0  0  0
  3  4  1  0  0  0
  3  5  2  0  0  0
  5  6  1  0  0  0
  6  7  1  0  0  0
  7  8  1  0  0  0
  8  9  2  0  0  0
  9 10  1  0  0  0
 10  1  1  0  0  0
 10  6  2  0  0  0
  4 11  1  0  0  0
  4 12  1  0  0  0
  7 13  1  0  0  0
M  END
> <minimizedAffinity>
-5.51707

> <CNNscore>
0.4722230434

> <CNNaffinity>
3.7272026539

> <CNN_VS>
1.7600710392

> <CNNaffinity_variance>
0.7213844061

$$$$
[H]c1nc2c(OC([H])([H])[H])nc(N([H])[H])nc2n1[H]


 15 16  0  0  0  0  0  0  0  0999 V2000
   36.1621  -14.9477   37.3464 C   0  0  0  0  0  0  0  0  0  0  0  0
   36.2906  -16.1534   36.7856 N   0  0  0  0  0  0  0  0  0  0  0  0
   35.3340  -16.7174   36.0204 C   0  0  0  0  0  0  0  0  0  0  0  0
   35.5264  -18.0196   35.4413 N   0  0  0  0  0  0  0  0  0  0  0  0
   34.2046  -16.0142   35.8258 N   0  0  0  0  0  0  0  0  0  0  0  0
   33.9916  -14.7934   36.3525 C   0  0  0  0  0  0  0  0  0  0  0  0
   32.9963  -13.8884   36.3287 N   0  0  0  0  0  0  0  0  0  0  0  0
   33.3173  -12.8003   37.0507 C   0  0  0  0  0  0  0  0  0  0  0  0
   34.5486  -13.0364   37.5377 N   0  0  0  0  0  0  0  0  0  0  0  0
   34.9954  -14.2369   37.1372 C   0  0  0  0  0  0  0  0  0  0  0  0
   35.7135  -18.8444   36.0701 H   0  0  0  0  0  0  0  0  0  0  0  0
   35.4876  -18.1821   34.4087 H   0  0  0  0  0  0  0  0  0  0  0  0
   32.0956  -14.0442   35.8024 H   0  0  0  0  0  0  0  0  0  0  0  0
   38.1211  -13.4853   37.5908 C   0  0  0  0  0  0  0  0  0  0  0  0
   37.1336  -14.3503   38.1362 O   0  0  0  0  0  0  0  0  0  0  0  0
 14 15  1  0  0  0
 15  1  1  0  0  0
  1  2  2  0  0  0
  2  3  1  0  0  0
  3  4  1  0  0  0
  3  5  2  0  0  0
  5  6  1  0  0  0
  6  7  1  0  0  0
  7  8  1  0  0  0
  8  9  2  0  0  0
  9 10  1  0  0  0
 10  1  1  0  0  0
 10  6  2  0  0  0
  4 11  1  0  0  0
  4 12  1  0  0  0
  7 13  1  0  0  0
M  END
> <minimizedAffinity>
-5.06085

> <CNNscore>
0.4659756124

> <CNNaffinity>
3.5745506287

> <CNN_VS>
1.6656534672

> <CNNaffinity_variance>
0.5769260526

$$$$
[H]c1nc2c(OC([H])([H])[H])nc(N([H])[H])nc2n1[H]


 15 16  0  0  0  0  0  0  0  0999 V2000
   35.6417  -15.4582   36.6572 C   0  0  0  0  0  0  0  0  0  0  0  0
   36.9038  -15.1196   36.9350 N   0  0  0  0  0  0  0  0  0  0  0  0
   37.3020  -13.8448   37.1221 C   0  0  0  0  0  0  0  0  0  0  0  0
   38.6752  -13.5379   37.4191 N   0  0  0  0  0  0  0  0  0  0  0  0
   36.3666  -12.8843   37.0194 N   0  0  0  0  0  0  0  0  0  0  0  0
   35.0730  -13.1362   36.7428 C   0  0  0  0  0  0  0  0  0  0  0  0
   33.9558  -12.4034   36.5849 N   0  0  0  0  0  0  0  0  0  0  0  0
   32.8995  -13.1887   36.3098 C   0  0  0  0  0  0  0  0  0  0  0  0
   33.3746  -14.4469   36.2963 N   0  0  0  0  0  0  0  0  0  0  0  0
   34.6915  -14.4598   36.5548 C   0  0  0  0  0  0  0  0  0  0  0  0
   39.4294  -13.8270   36.7421 H   0  0  0  0  0  0  0  0  0  0  0  0
   38.9580  -13.0333   38.2906 H   0  0  0  0  0  0  0  0  0  0  0  0
   33.9455  -11.3523   36.6724 H   0  0  0  0  0  0  0  0  0  0  0  0
   35.9394  -17.8782   36.9592 C   0  0  0  0  0  0  0  0  0  0  0  0
   35.2121  -16.7627   36.4614 O   0  0  0  0  0  0  0  0  0  0  0  0
 14 15  1  0  0  0
 15  1  1  0  0  0
  1  2  2  0  0  0
  2  3  1  0  0  0
  3  4  1  0  0  0
  3  5  2  0  0  0
  5  6  1  0  0  0
  6  7  1  0  0  0
  7  8  1  0  0  0
  8  9  2  0  0  0
  9 10  1  0  0  0
 10  1  1  0  0  0
 10  6  2  0  0  0
  4 11  1  0  0  0
  4 12  1  0  0  0
  7 13  1  0  0  0
M  END
> <minimizedAffinity>
-4.77051

> <CNNscore>
0.4278486967

> <CNNaffinity>
3.7129516602

> <CNN_VS>
1.5885815620

> <CNNaffinity_variance>
0.8856816292

$$$$
[H]c1nc2c(OC([H])([H])[H])nc(N([H])[H])nc2n1[H]


 15 16  0  0  0  0  0  0  0  0999 V2000
   30.3894  -20.9146   35.7934 C   0  0  0  0  0  0  0  0  0  0  0  0
   30.4868  -22.1665   35.3373 N   0  0  0  0  0  0  0  0  0  0  0  0
   31.5311  -22.6068   34.6066 C   0  0  0  0  0  0  0  0  0  0  0  0
   31.5836  -23.9666   34.1413 N   0  0  0  0  0  0  0  0  0  0  0  0
   32.5104  -21.7261   34.3358 N   0  0  0  0  0  0  0  0  0  0  0  0
   32.4933  -20.4467   34.7555 C   0  0  0  0  0  0  0  0  0  0  0  0
   33.3033  -19.3786   34.6403 N   0  0  0  0  0  0  0  0  0  0  0  0
   32.7863  -18.3114   35.2743 C   0  0  0  0  0  0  0  0  0  0  0  0
   31.6202  -18.7288   35.7988 N   0  0  0  0  0  0  0  0  0  0  0  0
   31.4039  -20.0208   35.5070 C   0  0  0  0  0  0  0  0  0  0  0  0
   30.8113  -24.3344   33.5258 H   0  0  0  0  0  0  0  0  0  0  0  0
   32.3673  -24.6123   34.3928 H   0  0  0  0  0  0  0  0  0  0  0  0
   34.2171  -19.4093   34.1146 H   0  0  0  0  0  0  0  0  0  0  0  0
   28.4247  -21.3190   37.2119 C   0  0  0  0  0  0  0  0  0  0  0  0
   29.3241  -20.4423   36.5461 O   0  0  0  0  0  0  0  0  0  0  0  0
 14 15  1  0  0  0
 15  1  1  0  0  0
  1  2  2  0  0  0
  2  3  1  0  0  0
  3  4  1  0  0  0
  3  5  2  0  0  0
  5  6  1  0  0  0
  6  7  1  0  0  0
  7  8  1  0  0  0
  8  9  2  0  0  0
  9 10  1  0  0  0
 10  1  1  0  0  0
 10  6  2  0  0  0
  4 11  1  0  0  0
  4 12  1  0  0  0
  7 13  1  0  0  0
M  END
> <minimizedAffinity>
-3.93522

> <CNNscore>
0.4044219553

> <CNNaffinity>
3.2287032604

> <CNN_VS>
1.3057584763

> <CNNaffinity_variance>
0.3051613867

$$$$
[H]c1nc2c(OC([H])([H])[H])nc(N([H])[H])nc2n1[H]


 15 16  0  0  0  0  0  0  0  0999 V2000
   35.9489  -17.4089   36.6190 C   0  0  0  0  0  0  0  0  0  0  0  0
   34.8956  -17.8137   35.9037 N   0  0  0  0  0  0  0  0  0  0  0  0
   33.9148  -16.9817   35.4985 C   0  0  0  0  0  0  0  0  0  0  0  0
   32.8030  -17.4727   34.7297 N   0  0  0  0  0  0  0  0  0  0  0  0
   34.0226  -15.6862   35.8423 N   0  0  0  0  0  0  0  0  0  0  0  0
   35.0492  -15.1931   36.5607 C   0  0  0  0  0  0  0  0  0  0  0  0
   35.4081  -13.9863   37.0351 N   0  0  0  0  0  0  0  0  0  0  0  0
   36.5683  -14.0599   37.7108 C   0  0  0  0  0  0  0  0  0  0  0  0
   36.9413  -15.3509   37.6547 N   0  0  0  0  0  0  0  0  0  0  0  0
   36.0458  -16.0742   36.9648 C   0  0  0  0  0  0  0  0  0  0  0  0
   32.1919  -18.2330   35.1287 H   0  0  0  0  0  0  0  0  0  0  0  0
   32.5745  -17.1005   33.7791 H   0  0  0  0  0  0  0  0  0  0  0  0
   34.8314  -13.1171   36.8789 H   0  0  0  0  0  0  0  0  0  0  0  0
   37.9918  -18.6965   36.1671 C   0  0  0  0  0  0  0  0  0  0  0  0
   36.9678  -18.2483   37.0454 O   0  0  0  0  0  0  0  0  0  0  0  0
 14 15  1  0  0  0
 15  1  1  0  0  0
  1  2  2  0  0  0
  2  3  1  0  0  0
  3  4  1  0  0  0
  3  5  2  0  0  0
  5  6  1  0  0  0
  6  7  1  0  0  0
  7  8  1  0  0  0
  8  9  2  0  0  0
  9 10  1  0  0  0
 10  1  1  0  0  0
 10  6  2  0  0  0
  4 11  1  0  0  0
  4 12  1  0  0  0
  7 13  1  0  0  0
M  END
> <minimizedAffinity>
-4.27367

> <CNNscore>
0.3898754716

> <CNNaffinity>
3.3920402527

> <CNN_VS>
1.3224732876

> <CNNaffinity_variance>
0.6368734837

$$$$
[H]c1nc2c(OC([H])([H])[H])nc(N([H])[H])nc2n1[H]


 15 16  0  0  0  0  0  0  0  0999 V2000
   34.4202  -13.6419   36.5082 C   0  0  0  0  0  0  0  0  0  0  0  0
   33.6630  -14.6217   36.0068 N   0  0  0  0  0  0  0  0  0  0  0  0
   34.1032  -15.8861   35.8461 C   0  0  0  0  0  0  0  0  0  0  0  0
   33.2436  -16.9019   35.3007 N   0  0  0  0  0  0  0  0  0  0  0  0
   35.3688  -16.1510   36.2152 N   0  0  0  0  0  0  0  0  0  0  0  0
   36.2002  -15.2247   36.7289 C   0  0  0  0  0  0  0  0  0  0  0  0
   37.4709  -15.2020   37.1707 N   0  0  0  0  0  0  0  0  0  0  0  0
   37.8128  -13.9716   37.5915 C   0  0  0  0  0  0  0  0  0  0  0  0
   36.7220  -13.2068   37.4056 N   0  0  0  0  0  0  0  0  0  0  0  0
   35.7190  -13.9295   36.8831 C   0  0  0  0  0  0  0  0  0  0  0  0
   32.8292  -16.7701   34.3407 H   0  0  0  0  0  0  0  0  0  0  0  0
   33.0108  -17.7763   35.8255 H   0  0  0  0  0  0  0  0  0  0  0  0
   38.0898  -16.0561   37.1725 H   0  0  0  0  0  0  0  0  0  0  0  0
   33.2427  -11.9339   37.8244 C   0  0  0  0  0  0  0  0  0  0  0  0
   33.9864  -12.3356   36.6814 O   0  0  0  0  0  0  0  0  0  0  0  0
 14 15  1  0  0  0
 15  1  1  0  0  0
  1  2  2  0  0  0
  2  3  1  0  0  0
  3  4  1  0  0  0
  3  5  2  0  0  0
  5  6  1  0  0  0
  6  7  1  0  0  0
  7  8  1  0  0  0
  8  9  2  0  0  0
  9 10  1  0  0  0
 10  1  1  0  0  0
 10  6  2  0  0  0
  4 11  1  0  0  0
  4 12  1  0  0  0
  7 13  1  0  0  0
M  END
> <minimizedAffinity>
-5.10348

> <CNNscore>
0.3794485033

> <CNNaffinity>
3.5722336769

> <CNN_VS>
1.3554787636

> <CNNaffinity_variance>
0.6853215098

$$$$
[H]c1nc2c(OC([H])([H])[H])nc(N([H])[H])nc2n1[H]


 15 16  0  0  0  0  0  0  0  0999 V2000
   35.2220  -16.9258   35.7455 C   0  0  0  0  0  0  0  0  0  0  0  0
   33.9002  -17.0996   35.6598 N   0  0  0  0  0  0  0  0  0  0  0  0
   33.3304  -18.0811   34.9314 C   0  0  0  0  0  0  0  0  0  0  0  0
   31.9002  -18.2214   34.8752 N   0  0  0  0  0  0  0  0  0  0  0  0
   34.1515  -18.9135   34.2674 N   0  0  0  0  0  0  0  0  0  0  0  0
   35.4938  -18.8109   34.2981 C   0  0  0  0  0  0  0  0  0  0  0  0
   36.5288  -19.4764   33.7538 N   0  0  0  0  0  0  0  0  0  0  0  0
   37.7007  -18.9328   34.1269 C   0  0  0  0  0  0  0  0  0  0  0  0
   37.3845  -17.8987   34.9268 N   0  0  0  0  0  0  0  0  0  0  0  0
   36.0532  -17.7894   35.0573 C   0  0  0  0  0  0  0  0  0  0  0  0
   31.3139  -17.4202   34.5218 H   0  0  0  0  0  0  0  0  0  0  0  0
   31.4135  -19.0975   35.1749 H   0  0  0  0  0  0  0  0  0  0  0  0
   36.4016  -20.3111   33.1217 H   0  0  0  0  0  0  0  0  0  0  0  0
   36.0871  -14.6351   35.9460 C   0  0  0  0  0  0  0  0  0  0  0  0
   35.8275  -15.9231   36.4887 O   0  0  0  0  0  0  0  0  0  0  0  0
 14 15  1  0  0  0
 15  1  1  0  0  0
  1  2  2  0  0  0
  2  3  1  0  0  0
  3  4  1  0  0  0
  3  5  2  0  0  0
  5  6  1  0  0  0
  6  7  1  0  0  0
  7  8  1  0  0  0
  8  9  2  0  0  0
  9 10  1  0  0  0
 10  1  1  0  0  0
 10  6  2  0  0  0
  4 11  1  0  0  0
  4 12  1  0  0  0
  7 13  1  0  0  0
M  END
> <minimizedAffinity>
-4.51780

> <CNNscore>
0.3636264801

> <CNNaffinity>
3.3655982018

> <CNN_VS>
1.2238206863

> <CNNaffinity_variance>
0.4853278100

$$$$
[H]c1nc2c(OC([H])([H])[H])nc(N([H])[H])nc2n1[H]


 15 16  0  0  0  0  0  0  0  0999 V2000
   32.3999  -21.2875   35.7503 C   0  0  0  0  0  0  0  0  0  0  0  0
   32.8497  -20.0319   35.6720 N   0  0  0  0  0  0  0  0  0  0  0  0
   32.0365  -18.9621   35.5597 C   0  0  0  0  0  0  0  0  0  0  0  0
   32.5762  -17.6315   35.4791 N   0  0  0  0  0  0  0  0  0  0  0  0
   30.7123  -19.1937   35.5270 N   0  0  0  0  0  0  0  0  0  0  0  0
   30.1734  -20.4255   35.6003 C   0  0  0  0  0  0  0  0  0  0  0  0
   28.9308  -20.9412   35.5923 N   0  0  0  0  0  0  0  0  0  0  0  0
   28.9647  -22.2815   35.6956 C   0  0  0  0  0  0  0  0  0  0  0  0
   30.2673  -22.6083   35.7699 N   0  0  0  0  0  0  0  0  0  0  0  0
   31.0362  -21.5096   35.7155 C   0  0  0  0  0  0  0  0  0  0  0  0
   33.2430  -17.3886   34.6999 H   0  0  0  0  0  0  0  0  0  0  0  0
   32.3303  -16.8870   36.1714 H   0  0  0  0  0  0  0  0  0  0  0  0
   28.0653  -20.3435   35.5140 H   0  0  0  0  0  0  0  0  0  0  0  0
   33.9166  -22.7015   37.0680 C   0  0  0  0  0  0  0  0  0  0  0  0
   33.2193  -22.4008   35.8661 O   0  0  0  0  0  0  0  0  0  0  0  0
 14 15  1  0  0  0
 15  1  1  0  0  0
  1  2  2  0  0  0
  2  3  1  0  0  0
  3  4  1  0  0  0
  3  5  2  0  0  0
  5  6  1  0  0  0
  6  7  1  0  0  0
  7  8  1  0  0  0
  8  9  2  0  0  0
  9 10  1  0  0  0
 10  1  1  0  0  0
 10  6  2  0  0  0
  4 11  1  0  0  0
  4 12  1  0  0  0
  7 13  1  0  0  0
M  END
> <minimizedAffinity>
-3.52207

> <CNNscore>
0.3585738540

> <CNNaffinity>
3.1414532661

> <CNN_VS>
1.1264430285

> <CNNaffinity_variance>
0.2649706900

$$$$
[H]Oc1c([H])c([H])c([H])c2sc(C3=NC([H])([H])C4([H])C([H])([H])c5c([H])c(OC([H])([H])[H])c(OC([H])([H])[H])c([H])c5OC([H])([H])C34[H])nc12


 29 33  0  0  0  0  0  0  0  0999 V2000
   34.9318  -13.3839   36.8672 C   0  0  0  0  0  0  0  0  0  0  0  0
   33.9343  -14.2816   36.5634 C   0  0  0  0  0  0  0  0  0  0  0  0
   34.2680  -15.5299   36.0827 C   0  0  0  0  0  0  0  0  0  0  0  0
   33.1711  -16.3368   35.8164 O   0  0  0  0  0  0  0  0  0  0  0  0
   32.9577  -17.7229   35.8792 C   0  0  0  0  0  0  0  0  0  0  0  0
   34.1198  -18.5677   35.4874 C   0  0  0  0  0  0  0  0  0  0  0  0
   35.1217  -17.8902   34.6076 C   0  0  0  0  0  0  0  0  0  0  0  0
   35.6572  -18.9946   33.7638 C   0  0  0  0  0  0  0  0  0  0  0  0
   34.6043  -19.9648   33.7512 N   0  0  0  0  0  0  0  0  0  0  0  0
   33.7506  -19.7505   34.6868 C   0  0  0  0  0  0  0  0  0  0  0  0
   36.1928  -17.1739   35.3986 C   0  0  0  0  0  0  0  0  0  0  0  0
   35.5912  -15.9091   35.8953 C   0  0  0  0  0  0  0  0  0  0  0  0
   36.5986  -15.0066   36.2005 C   0  0  0  0  0  0  0  0  0  0  0  0
   36.2644  -13.7492   36.6848 C   0  0  0  0  0  0  0  0  0  0  0  0
   32.5719  -20.6027   34.8946 C   0  0  0  0  0  0  0  0  0  0  0  0
   32.4882  -21.9184   34.8516 N   0  0  0  0  0  0  0  0  0  0  0  0
   31.3480  -22.5079   35.0638 C   0  0  0  0  0  0  0  0  0  0  0  0
   31.1248  -23.9000   35.0465 C   0  0  0  0  0  0  0  0  0  0  0  0
   32.1498  -24.8046   34.7896 O   0  0  0  0  0  0  0  0  0  0  0  0
   29.8706  -24.3804   35.2876 C   0  0  0  0  0  0  0  0  0  0  0  0
   28.7695  -23.6007   35.5547 C   0  0  0  0  0  0  0  0  0  0  0  0
   28.9812  -22.2416   35.5729 C   0  0  0  0  0  0  0  0  0  0  0  0
   30.2622  -21.7172   35.3280 C   0  0  0  0  0  0  0  0  0  0  0  0
   30.9574  -20.1519   35.2543 S   0  0  0  0  0  0  0  0  0  0  0  0
   33.1002  -24.4777   34.6052 H   0  0  0  0  0  0  0  0  0  0  0  0
   33.3632  -11.7226   37.7463 C   0  0  0  0  0  0  0  0  0  0  0  0
   34.6633  -12.1116   37.3549 O   0  0  0  0  0  0  0  0  0  0  0  0
   37.2445  -12.8215   37.0005 O   0  0  0  0  0  0  0  0  0  0  0  0
   38.4386  -13.2785   37.6362 C   0  0  0  0  0  0  0  0  0  0  0  0
 26 27  1  0  0  0
 27  1  1  0  0  0
  1  2  2  0  0  0
  2  3  1  0  0  0
  3  4  1  0  0  0
  4  5  1  0  0  0
  5  6  1  0  0  0
  6  7  1  0  0  0
  7  8  1  0  0  0
  8  9  1  0  0  0
  9 10  2  0  0  0
 10 15  1  0  0  0
 15 16  2  0  0  0
 16 17  1  0  0  0
 17 18  2  0  0  0
 18 19  1  0  0  0
 18 20  1  0  0  0
 20 21  2  0  0  0
 21 22  1  0  0  0
 22 23  2  0  0  0
 23 24  1  0  0  0
  7 11  1  0  0  0
 11 12  1  0  0  0
 12 13  1  0  0  0
 13 14  2  0  0  0
 14 28  1  0  0  0
 28 29  1  0  0  0
 14  1  1  0  0  0
 12  3  2  0  0  0
 10  6  1  0  0  0
 24 15  1  0  0  0
 23 17  1  0  0  0
 19 25  1  0  0  0
M  END
> <minimizedAffinity>
-7.46425

> <CNNscore>
0.5928755999

> <CNNaffinity>
5.8757843971

> <CNN_VS>
3.4836091995

> <CNNaffinity_variance>
0.1354319453

$$$$
[H]Oc1c([H])c([H])c([H])c2sc(C3=NC([H])([H])C4([H])C([H])([H])c5c([H])c(OC([H])([H])[H])c(OC([H])([H])[H])c([H])c5OC([H])([H])C34[H])nc12


 29 33  0  0  0  0  0  0  0  0999 V2000
   40.1034  -22.3870   36.5505 C   0  0  0  0  0  0  0  0  0  0  0  0
   38.8474  -22.9460   36.4952 C   0  0  0  0  0  0  0  0  0  0  0  0
   37.8061  -22.3433   37.1684 C   0  0  0  0  0  0  0  0  0  0  0  0
   36.5950  -23.0064   37.0315 O   0  0  0  0  0  0  0  0  0  0  0  0
   35.2595  -22.5749   36.9990 C   0  0  0  0  0  0  0  0  0  0  0  0
   34.9349  -21.4300   37.8943 C   0  0  0  0  0  0  0  0  0  0  0  0
   35.8704  -21.2481   39.0470 C   0  0  0  0  0  0  0  0  0  0  0  0
   35.0049  -20.6860   40.1209 C   0  0  0  0  0  0  0  0  0  0  0  0
   33.6907  -21.1436   39.7839 N   0  0  0  0  0  0  0  0  0  0  0  0
   33.6290  -21.5557   38.5688 C   0  0  0  0  0  0  0  0  0  0  0  0
   37.0434  -20.3584   38.7028 C   0  0  0  0  0  0  0  0  0  0  0  0
   37.9906  -21.1802   37.9053 C   0  0  0  0  0  0  0  0  0  0  0  0
   39.2552  -20.6146   37.9629 C   0  0  0  0  0  0  0  0  0  0  0  0
   40.3049  -21.2201   37.2856 C   0  0  0  0  0  0  0  0  0  0  0  0
   32.3925  -22.0771   37.9706 C   0  0  0  0  0  0  0  0  0  0  0  0
   31.4355  -21.4162   37.3483 N   0  0  0  0  0  0  0  0  0  0  0  0
   30.4022  -22.0513   36.8777 C   0  0  0  0  0  0  0  0  0  0  0  0
   29.3158  -21.4657   36.1958 C   0  0  0  0  0  0  0  0  0  0  0  0
   29.2513  -20.0970   35.9562 O   0  0  0  0  0  0  0  0  0  0  0  0
   28.2955  -22.2578   35.7559 C   0  0  0  0  0  0  0  0  0  0  0  0
   28.2317  -23.6213   35.9247 C   0  0  0  0  0  0  0  0  0  0  0  0
   29.2889  -24.1983   36.5893 C   0  0  0  0  0  0  0  0  0  0  0  0
   30.3544  -23.4079   37.0543 C   0  0  0  0  0  0  0  0  0  0  0  0
   31.8195  -23.6913   37.8982 S   0  0  0  0  0  0  0  0  0  0  0  0
   29.9988  -19.4762   36.2724 H   0  0  0  0  0  0  0  0  0  0  0  0
   41.3951  -22.7764   34.5076 C   0  0  0  0  0  0  0  0  0  0  0  0
   41.1941  -22.9439   35.8956 O   0  0  0  0  0  0  0  0  0  0  0  0
   41.5822  -20.6831   37.3206 O   0  0  0  0  0  0  0  0  0  0  0  0
   41.7498  -19.2985   37.0150 C   0  0  0  0  0  0  0  0  0  0  0  0
 26 27  1  0  0  0
 27  1  1  0  0  0
  1  2  2  0  0  0
  2  3  1  0  0  0
  3  4  1  0  0  0
  4  5  1  0  0  0
  5  6  1  0  0  0
  6  7  1  0  0  0
  7  8  1  0  0  0
  8  9  1  0  0  0
  9 10  2  0  0  0
 10 15  1  0  0  0
 15 16  2  0  0  0
 16 17  1  0  0  0
 17 18  2  0  0  0
 18 19  1  0  0  0
 18 20  1  0  0  0
 20 21  2  0  0  0
 21 22  1  0  0  0
 22 23  2  0  0  0
 23 24  1  0  0  0
  7 11  1  0  0  0
 11 12  1  0  0  0
 12 13  1  0  0  0
 13 14  2  0  0  0
 14 28  1  0  0  0
 28 29  1  0  0  0
 14  1  1  0  0  0
 12  3  2  0  0  0
 10  6  1  0  0  0
 24 15  1  0  0  0
 23 17  1  0  0  0
 19 25  1  0  0  0
M  END
> <minimizedAffinity>
-4.36930

> <CNNscore>
0.4776474535

> <CNNaffinity>
5.1411290169

> <CNN_VS>
2.4556472301

> <CNNaffinity_variance>
0.2915370464

$$$$
[H]Oc1c([H])c([H])c([H])c2sc(C3=NC([H])([H])C4([H])C([H])([H])c5c([H])c(OC([H])([H])[H])c(OC([H])([H])[H])c([H])c5OC([H])([H])C34[H])nc12


 29 33  0  0  0  0  0  0  0  0999 V2000
   33.9153  -21.4586   40.1900 C   0  0  0  0  0  0  0  0  0  0  0  0
   35.2054  -20.9839   40.1317 C   0  0  0  0  0  0  0  0  0  0  0  0
   36.0531  -21.4416   39.1454 C   0  0  0  0  0  0  0  0  0  0  0  0
   37.3229  -20.8849   39.1983 O   0  0  0  0  0  0  0  0  0  0  0  0
   38.2760  -20.5664   38.2181 C   0  0  0  0  0  0  0  0  0  0  0  0
   38.3534  -21.5114   37.0697 C   0  0  0  0  0  0  0  0  0  0  0  0
   37.8327  -22.8852   37.3496 C   0  0  0  0  0  0  0  0  0  0  0  0
   38.6704  -23.7645   36.4874 C   0  0  0  0  0  0  0  0  0  0  0  0
   39.8812  -23.0223   36.3056 N   0  0  0  0  0  0  0  0  0  0  0  0
   39.7309  -21.7855   36.6185 C   0  0  0  0  0  0  0  0  0  0  0  0
   36.3529  -23.0100   37.0654 C   0  0  0  0  0  0  0  0  0  0  0  0
   35.6386  -22.3745   38.2031 C   0  0  0  0  0  0  0  0  0  0  0  0
   34.3391  -22.8547   38.2594 C   0  0  0  0  0  0  0  0  0  0  0  0
   33.4842  -22.3948   39.2518 C   0  0  0  0  0  0  0  0  0  0  0  0
   40.8213  -20.8055   36.5223 C   0  0  0  0  0  0  0  0  0  0  0  0
   40.9989  -19.8555   35.6245 N   0  0  0  0  0  0  0  0  0  0  0  0
   42.0348  -19.0719   35.6984 C   0  0  0  0  0  0  0  0  0  0  0  0
   42.3394  -18.0231   34.8066 C   0  0  0  0  0  0  0  0  0  0  0  0
   41.5226  -17.7214   33.7219 O   0  0  0  0  0  0  0  0  0  0  0  0
   43.4655  -17.2791   35.0072 C   0  0  0  0  0  0  0  0  0  0  0  0
   44.3584  -17.4686   36.0360 C   0  0  0  0  0  0  0  0  0  0  0  0
   44.0664  -18.4906   36.9094 C   0  0  0  0  0  0  0  0  0  0  0  0
   42.9135  -19.2742   36.7284 C   0  0  0  0  0  0  0  0  0  0  0  0
   42.1857  -20.5976   37.5394 S   0  0  0  0  0  0  0  0  0  0  0  0
   40.6722  -18.2592   33.5436 H   0  0  0  0  0  0  0  0  0  0  0  0
   33.3742  -20.9304   42.5184 C   0  0  0  0  0  0  0  0  0  0  0  0
   33.0120  -21.0385   41.1575 O   0  0  0  0  0  0  0  0  0  0  0  0
   32.1788  -22.8524   39.3388 O   0  0  0  0  0  0  0  0  0  0  0  0
   31.3567  -22.7985   38.1726 C   0  0  0  0  0  0  0  0  0  0  0  0
 26 27  1  0  0  0
 27  1  1  0  0  0
  1  2  2  0  0  0
  2  3  1  0  0  0
  3  4  1  0  0  0
  4  5  1  0  0  0
  5  6  1  0  0  0
  6  7  1  0  0  0
  7  8  1  0  0  0
  8  9  1  0  0  0
  9 10  2  0  0  0
 10 15  1  0  0  0
 15 16  2  0  0  0
 16 17  1  0  0  0
 17 18  2  0  0  0
 18 19  1  0  0  0
 18 20  1  0  0  0
 20 21  2  0  0  0
 21 22  1  0  0  0
 22 23  2  0  0  0
 23 24  1  0  0  0
  7 11  1  0  0  0
 11 12  1  0  0  0
 12 13  1  0  0  0
 13 14  2  0  0  0
 14 28  1  0  0  0
 28 29  1  0  0  0
 14  1  1  0  0  0
 12  3  2  0  0  0
 10  6  1  0  0  0
 24 15  1  0  0  0
 23 17  1  0  0  0
 19 25  1  0  0  0
M  END
> <minimizedAffinity>
-4.33440

> <CNNscore>
0.4702290595

> <CNNaffinity>
5.2464237213

> <CNN_VS>
2.4670209885

> <CNNaffinity_variance>
0.4305008352

$$$$
[H]Oc1c([H])c([H])c([H])c2sc(C3=NC([H])([H])C4([H])C([H])([H])c5c([H])c(OC([H])([H])[H])c(OC([H])([H])[H])c([H])c5OC([H])([H])C34[H])nc12


 29 33  0  0  0  0  0  0  0  0999 V2000
   32.2799  -20.8835   35.8755 C   0  0  0  0  0  0  0  0  0  0  0  0
   33.2030  -20.3882   36.7674 C   0  0  0  0  0  0  0  0  0  0  0  0
   34.0817  -21.2526   37.3850 C   0  0  0  0  0  0  0  0  0  0  0  0
   34.9586  -20.6267   38.2593 O   0  0  0  0  0  0  0  0  0  0  0  0
   36.2821  -20.8886   38.6472 C   0  0  0  0  0  0  0  0  0  0  0  0
   36.6437  -22.3290   38.7569 C   0  0  0  0  0  0  0  0  0  0  0  0
   35.4868  -23.2538   38.9651 C   0  0  0  0  0  0  0  0  0  0  0  0
   36.0579  -24.3571   39.7867 C   0  0  0  0  0  0  0  0  0  0  0  0
   37.1652  -23.7507   40.4622 N   0  0  0  0  0  0  0  0  0  0  0  0
   37.5032  -22.6387   39.9152 C   0  0  0  0  0  0  0  0  0  0  0  0
   34.8890  -23.7321   37.6613 C   0  0  0  0  0  0  0  0  0  0  0  0
   34.0610  -22.6182   37.1303 C   0  0  0  0  0  0  0  0  0  0  0  0
   33.1318  -23.1202   36.2320 C   0  0  0  0  0  0  0  0  0  0  0  0
   32.2463  -22.2512   35.6092 C   0  0  0  0  0  0  0  0  0  0  0  0
   38.6122  -21.8145   40.4148 C   0  0  0  0  0  0  0  0  0  0  0  0
   39.5691  -21.2178   39.7304 N   0  0  0  0  0  0  0  0  0  0  0  0
   40.4774  -20.5209   40.3483 C   0  0  0  0  0  0  0  0  0  0  0  0
   41.5484  -19.8372   39.7370 C   0  0  0  0  0  0  0  0  0  0  0  0
   41.7353  -19.8486   38.3587 O   0  0  0  0  0  0  0  0  0  0  0  0
   42.4300  -19.1428   40.5132 C   0  0  0  0  0  0  0  0  0  0  0  0
   42.3635  -19.0482   41.8837 C   0  0  0  0  0  0  0  0  0  0  0  0
   41.3207  -19.7133   42.4857 C   0  0  0  0  0  0  0  0  0  0  0  0
   40.3966  -20.4371   41.7122 C   0  0  0  0  0  0  0  0  0  0  0  0
   38.9992  -21.3790   42.0271 S   0  0  0  0  0  0  0  0  0  0  0  0
   41.0932  -20.3590   37.7493 H   0  0  0  0  0  0  0  0  0  0  0  0
   31.7772  -18.9370   34.4785 C   0  0  0  0  0  0  0  0  0  0  0  0
   31.3675  -20.0670   35.2201 O   0  0  0  0  0  0  0  0  0  0  0  0
   31.3042  -22.7173   34.7057 O   0  0  0  0  0  0  0  0  0  0  0  0
   30.3992  -23.7378   35.1277 C   0  0  0  0  0  0  0  0  0  0  0  0
 26 27  1  0  0  0
 27  1  1  0  0  0
  1  2  2  0  0  0
  2  3  1  0  0  0
  3  4  1  0  0  0
  4  5  1  0  0  0
  5  6  1  0  0  0
  6  7  1  0  0  0
  7  8  1  0  0  0
  8  9  1  0  0  0
  9 10  2  0  0  0
 10 15  1  0  0  0
 15 16  2  0  0  0
 16 17  1  0  0  0
 17 18  2  0  0  0
 18 19  1  0  0  0
 18 20  1  0  0  0
 20 21  2  0  0  0
 21 22  1  0  0  0
 22 23  2  0  0  0
 23 24  1  0  0  0
  7 11  1  0  0  0
 11 12  1  0  0  0
 12 13  1  0  0  0
 13 14  2  0  0  0
 14 28  1  0  0  0
 28 29  1  0  0  0
 14  1  1  0  0  0
 12  3  2  0  0  0
 10  6  1  0  0  0
 24 15  1  0  0  0
 23 17  1  0  0  0
 19 25  1  0  0  0
M  END
> <minimizedAffinity>
-4.47412

> <CNNscore>
0.4595628977

> <CNNaffinity>
4.5649714470

> <CNN_VS>
2.0978915691

> <CNNaffinity_variance>
0.0679606348

$$$$
[H]Oc1c([H])c([H])c([H])c2sc(C3=NC([H])([H])C4([H])C([H])([H])c5c([H])c(OC([H])([H])[H])c(OC([H])([H])[H])c([H])c5OC([H])([H])C34[H])nc12


 29 33  0  0  0  0  0  0  0  0999 V2000
   41.5852  -19.6747   35.1338 C   0  0  0  0  0  0  0  0  0  0  0  0
   40.5922  -20.5088   35.5934 C   0  0  0  0  0  0  0  0  0  0  0  0
   40.3956  -20.6461   36.9511 C   0  0  0  0  0  0  0  0  0  0  0  0
   39.3652  -21.5150   37.2807 O   0  0  0  0  0  0  0  0  0  0  0  0
   38.4486  -21.5624   38.3429 C   0  0  0  0  0  0  0  0  0  0  0  0
   38.9778  -21.1262   39.6648 C   0  0  0  0  0  0  0  0  0  0  0  0
   40.4643  -21.2110   39.8063 C   0  0  0  0  0  0  0  0  0  0  0  0
   40.6666  -21.5112   41.2510 C   0  0  0  0  0  0  0  0  0  0  0  0
   39.4480  -22.1497   41.6477 N   0  0  0  0  0  0  0  0  0  0  0  0
   38.5091  -21.9521   40.7937 C   0  0  0  0  0  0  0  0  0  0  0  0
   41.1593  -19.9447   39.3596 C   0  0  0  0  0  0  0  0  0  0  0  0
   41.1768  -19.9617   37.8737 C   0  0  0  0  0  0  0  0  0  0  0  0
   42.1783  -19.1205   37.4135 C   0  0  0  0  0  0  0  0  0  0  0  0
   42.3775  -18.9809   36.0467 C   0  0  0  0  0  0  0  0  0  0  0  0
   37.1560  -22.4991   40.9627 C   0  0  0  0  0  0  0  0  0  0  0  0
   36.0122  -21.8506   41.0685 N   0  0  0  0  0  0  0  0  0  0  0  0
   34.8991  -22.5084   41.2140 C   0  0  0  0  0  0  0  0  0  0  0  0
   33.6156  -21.9381   41.3380 C   0  0  0  0  0  0  0  0  0  0  0  0
   33.4188  -20.5612   41.3144 O   0  0  0  0  0  0  0  0  0  0  0  0
   32.5316  -22.7536   41.4856 C   0  0  0  0  0  0  0  0  0  0  0  0
   32.5828  -24.1274   41.5254 C   0  0  0  0  0  0  0  0  0  0  0  0
   33.8325  -24.6896   41.4049 C   0  0  0  0  0  0  0  0  0  0  0  0
   34.9679  -23.8750   41.2517 C   0  0  0  0  0  0  0  0  0  0  0  0
   36.6530  -24.1343   41.0728 S   0  0  0  0  0  0  0  0  0  0  0  0
   34.2092  -19.9229   41.2053 H   0  0  0  0  0  0  0  0  0  0  0  0
   40.9347  -19.9423   32.7889 C   0  0  0  0  0  0  0  0  0  0  0  0
   41.8348  -19.4922   33.7799 O   0  0  0  0  0  0  0  0  0  0  0  0
   43.3689  -18.1490   35.5505 O   0  0  0  0  0  0  0  0  0  0  0  0
   43.2368  -16.7400   35.7402 C   0  0  0  0  0  0  0  0  0  0  0  0
 26 27  1  0  0  0
 27  1  1  0  0  0
  1  2  2  0  0  0
  2  3  1  0  0  0
  3  4  1  0  0  0
  4  5  1  0  0  0
  5  6  1  0  0  0
  6  7  1  0  0  0
  7  8  1  0  0  0
  8  9  1  0  0  0
  9 10  2  0  0  0
 10 15  1  0  0  0
 15 16  2  0  0  0
 16 17  1  0  0  0
 17 18  2  0  0  0
 18 19  1  0  0  0
 18 20  1  0  0  0
 20 21  2  0  0  0
 21 22  1  0  0  0
 22 23  2  0  0  0
 23 24  1  0  0  0
  7 11  1  0  0  0
 11 12  1  0  0  0
 12 13  1  0  0  0
 13 14  2  0  0  0
 14 28  1  0  0  0
 28 29  1  0  0  0
 14  1  1  0  0  0
 12  3  2  0  0  0
 10  6  1  0  0  0
 24 15  1  0  0  0
 23 17  1  0  0  0
 19 25  1  0  0  0
M  END
> <minimizedAffinity>
-3.86691

> <CNNscore>
0.4535696507

> <CNNaffinity>
4.8906612396

> <CNN_VS>
2.2182555199

> <CNNaffinity_variance>
0.1564809978

$$$$
[H]Oc1c([H])c([H])c([H])c2sc(C3=NC([H])([H])C4([H])C([H])([H])c5c([H])c(OC([H])([H])[H])c(OC([H])([H])[H])c([H])c5OC([H])([H])C34[H])nc12


 29 33  0  0  0  0  0  0  0  0999 V2000
   34.4154  -22.5940   37.2409 C   0  0  0  0  0  0  0  0  0  0  0  0
   35.3229  -21.5603   37.2724 C   0  0  0  0  0  0  0  0  0  0  0  0
   36.6534  -21.8323   37.5099 C   0  0  0  0  0  0  0  0  0  0  0  0
   37.4612  -20.7042   37.5157 O   0  0  0  0  0  0  0  0  0  0  0  0
   38.7974  -20.4751   37.1511 C   0  0  0  0  0  0  0  0  0  0  0  0
   39.7423  -21.5863   37.4512 C   0  0  0  0  0  0  0  0  0  0  0  0
   39.2923  -22.5208   38.5289 C   0  0  0  0  0  0  0  0  0  0  0  0
   40.5629  -22.9654   39.1662 C   0  0  0  0  0  0  0  0  0  0  0  0
   41.4800  -21.9000   38.8943 N   0  0  0  0  0  0  0  0  0  0  0  0
   41.0510  -21.1321   37.9582 C   0  0  0  0  0  0  0  0  0  0  0  0
   38.4650  -23.6662   37.9906 C   0  0  0  0  0  0  0  0  0  0  0  0
   37.1062  -23.1288   37.7197 C   0  0  0  0  0  0  0  0  0  0  0  0
   36.1940  -24.1725   37.6886 C   0  0  0  0  0  0  0  0  0  0  0  0
   34.8539  -23.9004   37.4494 C   0  0  0  0  0  0  0  0  0  0  0  0
   41.8034  -19.9619   37.4858 C   0  0  0  0  0  0  0  0  0  0  0  0
   42.0087  -19.5594   36.2465 N   0  0  0  0  0  0  0  0  0  0  0  0
   42.7078  -18.4869   36.0151 C   0  0  0  0  0  0  0  0  0  0  0  0
   42.9991  -17.9521   34.7434 C   0  0  0  0  0  0  0  0  0  0  0  0
   42.5441  -18.5512   33.5733 O   0  0  0  0  0  0  0  0  0  0  0  0
   43.7479  -16.8152   34.6503 C   0  0  0  0  0  0  0  0  0  0  0  0
   44.2599  -16.1228   35.7226 C   0  0  0  0  0  0  0  0  0  0  0  0
   43.9790  -16.6398   36.9660 C   0  0  0  0  0  0  0  0  0  0  0  0
   43.2102  -17.8097   37.0935 C   0  0  0  0  0  0  0  0  0  0  0  0
   42.6380  -18.7704   38.3930 S   0  0  0  0  0  0  0  0  0  0  0  0
   41.9812  -19.4033   33.6083 H   0  0  0  0  0  0  0  0  0  0  0  0
   32.5666  -22.0818   35.7201 C   0  0  0  0  0  0  0  0  0  0  0  0
   33.0621  -22.3878   37.0068 O   0  0  0  0  0  0  0  0  0  0  0  0
   33.9139  -24.9183   37.4112 O   0  0  0  0  0  0  0  0  0  0  0  0
   33.9069  -25.8000   36.2881 C   0  0  0  0  0  0  0  0  0  0  0  0
 26 27  1  0  0  0
 27  1  1  0  0  0
  1  2  2  0  0  0
  2  3  1  0  0  0
  3  4  1  0  0  0
  4  5  1  0  0  0
  5  6  1  0  0  0
  6  7  1  0  0  0
  7  8  1  0  0  0
  8  9  1  0  0  0
  9 10  2  0  0  0
 10 15  1  0  0  0
 15 16  2  0  0  0
 16 17  1  0  0  0
 17 18  2  0  0  0
 18 19  1  0  0  0
 18 20  1  0  0  0
 20 21  2  0  0  0
 21 22  1  0  0  0
 22 23  2  0  0  0
 23 24  1  0  0  0
  7 11  1  0  0  0
 11 12  1  0  0  0
 12 13  1  0  0  0
 13 14  2  0  0  0
 14 28  1  0  0  0
 28 29  1  0  0  0
 14  1  1  0  0  0
 12  3  2  0  0  0
 10  6  1  0  0  0
 24 15  1  0  0  0
 23 17  1  0  0  0
 19 25  1  0  0  0
M  END
> <minimizedAffinity>
-3.87850

> <CNNscore>
0.4456332922

> <CNNaffinity>
5.0734391212

> <CNN_VS>
2.2608933449

> <CNNaffinity_variance>
0.1643920541

$$$$
[H]Oc1c([H])c([H])c([H])c2sc(C3=NC([H])([H])C4([H])C([H])([H])c5c([H])c(OC([H])([H])[H])c(OC([H])([H])[H])c([H])c5OC([H])([H])C34[H])nc12


 29 33  0  0  0  0  0  0  0  0999 V2000
   30.4271  -22.5545   36.1092 C   0  0  0  0  0  0  0  0  0  0  0  0
   30.9507  -21.4022   36.6490 C   0  0  0  0  0  0  0  0  0  0  0  0
   31.9131  -20.7028   35.9524 C   0  0  0  0  0  0  0  0  0  0  0  0
   32.3565  -19.5620   36.6060 O   0  0  0  0  0  0  0  0  0  0  0  0
   32.8181  -18.3141   36.1585 C   0  0  0  0  0  0  0  0  0  0  0  0
   33.6287  -18.3418   34.9095 C   0  0  0  0  0  0  0  0  0  0  0  0
   34.2739  -19.6569   34.6077 C   0  0  0  0  0  0  0  0  0  0  0  0
   35.5334  -19.2815   33.9067 C   0  0  0  0  0  0  0  0  0  0  0  0
   35.8132  -17.9589   34.3784 N   0  0  0  0  0  0  0  0  0  0  0  0
   34.7840  -17.4249   34.9313 C   0  0  0  0  0  0  0  0  0  0  0  0
   33.3834  -20.5611   33.7858 C   0  0  0  0  0  0  0  0  0  0  0  0
   32.3718  -21.1314   34.7131 C   0  0  0  0  0  0  0  0  0  0  0  0
   31.8461  -22.2921   34.1666 C   0  0  0  0  0  0  0  0  0  0  0  0
   30.8769  -22.9977   34.8667 C   0  0  0  0  0  0  0  0  0  0  0  0
   34.8029  -16.0698   35.4989 C   0  0  0  0  0  0  0  0  0  0  0  0
   33.8084  -15.2111   35.6154 N   0  0  0  0  0  0  0  0  0  0  0  0
   34.0129  -14.0430   36.1507 C   0  0  0  0  0  0  0  0  0  0  0  0
   33.0400  -13.0389   36.3329 C   0  0  0  0  0  0  0  0  0  0  0  0
   31.7180  -13.2175   35.9389 O   0  0  0  0  0  0  0  0  0  0  0  0
   33.3983  -11.8561   36.9113 C   0  0  0  0  0  0  0  0  0  0  0  0
   34.6661  -11.5475   37.3462 C   0  0  0  0  0  0  0  0  0  0  0  0
   35.6196  -12.5234   37.1709 C   0  0  0  0  0  0  0  0  0  0  0  0
   35.2804  -13.7520   36.5780 C   0  0  0  0  0  0  0  0  0  0  0  0
   36.1124  -15.1967   36.1785 S   0  0  0  0  0  0  0  0  0  0  0  0
   31.4170  -14.0913   35.5029 H   0  0  0  0  0  0  0  0  0  0  0  0
   28.2368  -22.7350   37.1876 C   0  0  0  0  0  0  0  0  0  0  0  0
   29.4559  -23.3049   36.7590 O   0  0  0  0  0  0  0  0  0  0  0  0
   30.3288  -24.1618   34.3515 O   0  0  0  0  0  0  0  0  0  0  0  0
   31.0562  -24.8750   33.3509 C   0  0  0  0  0  0  0  0  0  0  0  0
 26 27  1  0  0  0
 27  1  1  0  0  0
  1  2  2  0  0  0
  2  3  1  0  0  0
  3  4  1  0  0  0
  4  5  1  0  0  0
  5  6  1  0  0  0
  6  7  1  0  0  0
  7  8  1  0  0  0
  8  9  1  0  0  0
  9 10  2  0  0  0
 10 15  1  0  0  0
 15 16  2  0  0  0
 16 17  1  0  0  0
 17 18  2  0  0  0
 18 19  1  0  0  0
 18 20  1  0  0  0
 20 21  2  0  0  0
 21 22  1  0  0  0
 22 23  2  0  0  0
 23 24  1  0  0  0
  7 11  1  0  0  0
 11 12  1  0  0  0
 12 13  1  0  0  0
 13 14  2  0  0  0
 14 28  1  0  0  0
 28 29  1  0  0  0
 14  1  1  0  0  0
 12  3  2  0  0  0
 10  6  1  0  0  0
 24 15  1  0  0  0
 23 17  1  0  0  0
 19 25  1  0  0  0
M  END
> <minimizedAffinity>
-6.09911

> <CNNscore>
0.4307873249

> <CNNaffinity>
5.6870164871

> <CNN_VS>
2.4498946667

> <CNNaffinity_variance>
0.0731300265

$$$$
[H]Oc1c([H])c([H])c([H])c2sc(C3=NC([H])([H])C4([H])C([H])([H])c5c([H])c(OC([H])([H])[H])c(OC([H])([H])[H])c([H])c5OC([H])([H])C34[H])nc12


 29 33  0  0  0  0  0  0  0  0999 V2000
   42.7495  -23.6693   37.2794 C   0  0  0  0  0  0  0  0  0  0  0  0
   41.6551  -22.8505   37.4371 C   0  0  0  0  0  0  0  0  0  0  0  0
   41.2645  -22.0321   36.3987 C   0  0  0  0  0  0  0  0  0  0  0  0
   40.1492  -21.2587   36.6868 O   0  0  0  0  0  0  0  0  0  0  0  0
   39.0931  -20.7636   35.9056 C   0  0  0  0  0  0  0  0  0  0  0  0
   39.4587  -20.3525   34.5218 C   0  0  0  0  0  0  0  0  0  0  0  0
   40.9037  -20.0202   34.3255 C   0  0  0  0  0  0  0  0  0  0  0  0
   40.8858  -18.9693   33.2702 C   0  0  0  0  0  0  0  0  0  0  0  0
   39.5886  -18.3757   33.3922 N   0  0  0  0  0  0  0  0  0  0  0  0
   38.7904  -19.1160   34.0738 C   0  0  0  0  0  0  0  0  0  0  0  0
   41.7271  -21.2300   33.9454 C   0  0  0  0  0  0  0  0  0  0  0  0
   41.9493  -22.0108   35.1901 C   0  0  0  0  0  0  0  0  0  0  0  0
   43.0525  -22.8348   35.0282 C   0  0  0  0  0  0  0  0  0  0  0  0
   43.4471  -23.6597   36.0728 C   0  0  0  0  0  0  0  0  0  0  0  0
   37.3971  -18.7377   34.3465 C   0  0  0  0  0  0  0  0  0  0  0  0
   36.2890  -19.3481   33.9728 N   0  0  0  0  0  0  0  0  0  0  0  0
   35.1300  -18.8632   34.3105 C   0  0  0  0  0  0  0  0  0  0  0  0
   33.8768  -19.4165   33.9766 C   0  0  0  0  0  0  0  0  0  0  0  0
   33.7655  -20.5808   33.2237 O   0  0  0  0  0  0  0  0  0  0  0  0
   32.7370  -18.7977   34.4007 C   0  0  0  0  0  0  0  0  0  0  0  0
   32.7021  -17.6444   35.1492 C   0  0  0  0  0  0  0  0  0  0  0  0
   33.9219  -17.0999   35.4780 C   0  0  0  0  0  0  0  0  0  0  0  0
   35.1132  -17.7149   35.0554 C   0  0  0  0  0  0  0  0  0  0  0  0
   36.7893  -17.3983   35.2273 S   0  0  0  0  0  0  0  0  0  0  0  0
   34.5994  -21.0686   32.8908 H   0  0  0  0  0  0  0  0  0  0  0  0
   43.7088  -24.0214   39.5040 C   0  0  0  0  0  0  0  0  0  0  0  0
   43.1946  -24.5169   38.2854 O   0  0  0  0  0  0  0  0  0  0  0  0
   44.5448  -24.4965   35.9469 O   0  0  0  0  0  0  0  0  0  0  0  0
   44.6220  -25.3559   34.8093 C   0  0  0  0  0  0  0  0  0  0  0  0
 26 27  1  0  0  0
 27  1  1  0  0  0
  1  2  2  0  0  0
  2  3  1  0  0  0
  3  4  1  0  0  0
  4  5  1  0  0  0
  5  6  1  0  0  0
  6  7  1  0  0  0
  7  8  1  0  0  0
  8  9  1  0  0  0
  9 10  2  0  0  0
 10 15  1  0  0  0
 15 16  2  0  0  0
 16 17  1  0  0  0
 17 18  2  0  0  0
 18 19  1  0  0  0
 18 20  1  0  0  0
 20 21  2  0  0  0
 21 22  1  0  0  0
 22 23  2  0  0  0
 23 24  1  0  0  0
  7 11  1  0  0  0
 11 12  1  0  0  0
 12 13  1  0  0  0
 13 14  2  0  0  0
 14 28  1  0  0  0
 28 29  1  0  0  0
 14  1  1  0  0  0
 12  3  2  0  0  0
 10  6  1  0  0  0
 24 15  1  0  0  0
 23 17  1  0  0  0
 19 25  1  0  0  0
M  END
> <minimizedAffinity>
-5.19778

> <CNNscore>
0.4052138329

> <CNNaffinity>
5.2062730789

> <CNN_VS>
2.1096539497

> <CNNaffinity_variance>
0.0244263150

$$$$
[H]Oc1c([H])c([H])c([H])c2sc(C3=NC([H])([H])C4([H])C([H])([H])c5c([H])c(OC([H])([H])[H])c(OC([H])([H])[H])c([H])c5OC([H])([H])C34[H])nc12


 29 33  0  0  0  0  0  0  0  0999 V2000
   42.9891  -21.7061   36.8621 C   0  0  0  0  0  0  0  0  0  0  0  0
   41.7361  -21.7328   36.2943 C   0  0  0  0  0  0  0  0  0  0  0  0
   40.6314  -21.4673   37.0752 C   0  0  0  0  0  0  0  0  0  0  0  0
   39.4309  -21.5266   36.3821 O   0  0  0  0  0  0  0  0  0  0  0  0
   38.2108  -20.8441   36.5099 C   0  0  0  0  0  0  0  0  0  0  0  0
   37.7966  -20.5295   37.9053 C   0  0  0  0  0  0  0  0  0  0  0  0
   38.4092  -21.4013   38.9549 C   0  0  0  0  0  0  0  0  0  0  0  0
   37.3623  -21.4731   40.0118 C   0  0  0  0  0  0  0  0  0  0  0  0
   36.1397  -21.2283   39.3079 N   0  0  0  0  0  0  0  0  0  0  0  0
   36.3535  -20.7115   38.1515 C   0  0  0  0  0  0  0  0  0  0  0  0
   39.7266  -20.8573   39.4595 C   0  0  0  0  0  0  0  0  0  0  0  0
   40.7486  -21.1720   38.4276 C   0  0  0  0  0  0  0  0  0  0  0  0
   42.0099  -21.1445   39.0025 C   0  0  0  0  0  0  0  0  0  0  0  0
   43.1235  -21.4114   38.2177 C   0  0  0  0  0  0  0  0  0  0  0  0
   35.2669  -20.3624   37.2263 C   0  0  0  0  0  0  0  0  0  0  0  0
   34.4329  -21.1653   36.5940 N   0  0  0  0  0  0  0  0  0  0  0  0
   33.5230  -20.6727   35.8052 C   0  0  0  0  0  0  0  0  0  0  0  0
   32.5751  -21.4182   35.0745 C   0  0  0  0  0  0  0  0  0  0  0  0
   32.5281  -22.8070   35.1362 O   0  0  0  0  0  0  0  0  0  0  0  0
   31.6758  -20.7655   34.2828 C   0  0  0  0  0  0  0  0  0  0  0  0
   31.6106  -19.4002   34.1298 C   0  0  0  0  0  0  0  0  0  0  0  0
   32.5330  -18.6676   34.8403 C   0  0  0  0  0  0  0  0  0  0  0  0
   33.4720  -19.3121   35.6643 C   0  0  0  0  0  0  0  0  0  0  0  0
   34.7538  -18.8172   36.6895 S   0  0  0  0  0  0  0  0  0  0  0  0
   33.1873  -23.3261   35.7194 H   0  0  0  0  0  0  0  0  0  0  0  0
   44.1101  -22.6941   34.9229 C   0  0  0  0  0  0  0  0  0  0  0  0
   44.1416  -21.9640   36.1315 O   0  0  0  0  0  0  0  0  0  0  0  0
   44.3996  -21.3927   38.7582 O   0  0  0  0  0  0  0  0  0  0  0  0
   44.6212  -20.6573   39.9619 C   0  0  0  0  0  0  0  0  0  0  0  0
 26 27  1  0  0  0
 27  1  1  0  0  0
  1  2  2  0  0  0
  2  3  1  0  0  0
  3  4  1  0  0  0
  4  5  1  0  0  0
  5  6  1  0  0  0
  6  7  1  0  0  0
  7  8  1  0  0  0
  8  9  1  0  0  0
  9 10  2  0  0  0
 10 15  1  0  0  0
 15 16  2  0  0  0
 16 17  1  0  0  0
 17 18  2  0  0  0
 18 19  1  0  0  0
 18 20  1  0  0  0
 20 21  2  0  0  0
 21 22  1  0  0  0
 22 23  2  0  0  0
 23 24  1  0  0  0
  7 11  1  0  0  0
 11 12  1  0  0  0
 12 13  1  0  0  0
 13 14  2  0  0  0
 14 28  1  0  0  0
 28 29  1  0  0  0
 14  1  1  0  0  0
 12  3  2  0  0  0
 10  6  1  0  0  0
 24 15  1  0  0  0
 23 17  1  0  0  0
 19 25  1  0  0  0
M  END
> <minimizedAffinity>
-4.37255

> <CNNscore>
0.4006522596

> <CNNaffinity>
5.1228766441

> <CNN_VS>
2.0524921417

> <CNNaffinity_variance>
0.1280561537

$$$$
[H]c1nc(N([H])C([H])([H])c2c([H])c([H])c([H])c(Cl)c2[H])c2c([H])c([H])c([H])c(C(=O)N([H])[H])c2n1


 25 27  0  0  0  0  0  0  0  0999 V2000
   36.1406  -13.9951   37.0192 C   0  0  0  0  0  0  0  0  0  0  0  0
   35.2181  -12.9716   36.9873 C   0  0  0  0  0  0  0  0  0  0  0  0
   33.9534  -13.2187   36.5102 C   0  0  0  0  0  0  0  0  0  0  0  0
   33.6362  -14.5089   36.0681 C   0  0  0  0  0  0  0  0  0  0  0  0
   34.5842  -15.5299   36.1091 C   0  0  0  0  0  0  0  0  0  0  0  0
   34.3086  -16.8047   35.6846 C   0  0  0  0  0  0  0  0  0  0  0  0
   35.2764  -17.7538   35.7509 N   0  0  0  0  0  0  0  0  0  0  0  0
   36.5047  -17.4972   36.2186 C   0  0  0  0  0  0  0  0  0  0  0  0
   36.7851  -16.2530   36.6366 N   0  0  0  0  0  0  0  0  0  0  0  0
   35.8420  -15.2732   36.5864 C   0  0  0  0  0  0  0  0  0  0  0  0
   38.3962  -12.9892   36.7718 N   0  0  0  0  0  0  0  0  0  0  0  0
   37.4877  -13.7447   37.5240 C   0  0  0  0  0  0  0  0  0  0  0  0
   37.7859  -14.2381   38.6581 O   0  0  0  0  0  0  0  0  0  0  0  0
   38.4522  -11.9648   36.9226 H   0  0  0  0  0  0  0  0  0  0  0  0
   39.0032  -13.4498   36.0749 H   0  0  0  0  0  0  0  0  0  0  0  0
   33.0384  -17.1505   35.1798 N   0  0  0  0  0  0  0  0  0  0  0  0
   32.1722  -16.8118   35.5954 H   0  0  0  0  0  0  0  0  0  0  0  0
   32.9570  -18.0211   34.0257 C   0  0  0  0  0  0  0  0  0  0  0  0
   32.2813  -19.2737   34.4020 C   0  0  0  0  0  0  0  0  0  0  0  0
   32.9229  -20.4623   34.0668 C   0  0  0  0  0  0  0  0  0  0  0  0
   32.3146  -21.6433   34.4062 C   0  0  0  0  0  0  0  0  0  0  0  0
   31.0944  -21.6964   35.0652 C   0  0  0  0  0  0  0  0  0  0  0  0
   30.4602  -20.5109   35.3964 C   0  0  0  0  0  0  0  0  0  0  0  0
   28.9160  -20.5724   36.2304 Cl  0  0  0  0  0  0  0  0  0  0  0  0
   31.0709  -19.3224   35.0558 C   0  0  0  0  0  0  0  0  0  0  0  0
 11 12  1  0  0  0
 12 13  2  0  0  0
 12  1  1  0  0  0
  1  2  2  0  0  0
  2  3  1  0  0  0
  3  4  2  0  0  0
  4  5  1  0  0  0
  5  6  2  0  0  0
  6 16  1  0  0  0
 16 18  1  0  0  0
 18 19  1  0  0  0
 19 20  2  0  0  0
 20 21  1  0  0  0
 21 22  2  0  0  0
 22 23  1  0  0  0
 23 24  1  0  0  0
 23 25  2  0  0  0
  6  7  1  0  0  0
  7  8  2  0  0  0
  8  9  1  0  0  0
  9 10  2  0  0  0
 10  1  1  0  0  0
 10  5  1  0  0  0
 25 19  1  0  0  0
 11 14  1  0  0  0
 11 15  1  0  0  0
 16 17  1  0  0  0
M  END
> <minimizedAffinity>
-7.56883

> <CNNscore>
0.9017314315

> <CNNaffinity>
5.1303815842

> <CNN_VS>
4.6262264252

> <CNNaffinity_variance>
0.6545075178

$$$$
[H]c1nc(N([H])C([H])([H])c2c([H])c([H])c([H])c(Cl)c2[H])c2c([H])c([H])c([H])c(C(=O)N([H])[H])c2n1


 25 27  0  0  0  0  0  0  0  0999 V2000
   34.7435  -14.1039   37.1154 C   0  0  0  0  0  0  0  0  0  0  0  0
   35.8272  -13.4378   37.6460 C   0  0  0  0  0  0  0  0  0  0  0  0
   37.0792  -13.9938   37.5376 C   0  0  0  0  0  0  0  0  0  0  0  0
   37.2191  -15.2265   36.8885 C   0  0  0  0  0  0  0  0  0  0  0  0
   36.1098  -15.8835   36.3587 C   0  0  0  0  0  0  0  0  0  0  0  0
   36.2097  -17.0914   35.7168 C   0  0  0  0  0  0  0  0  0  0  0  0
   35.0904  -17.6792   35.2232 N   0  0  0  0  0  0  0  0  0  0  0  0
   33.8769  -17.1246   35.3369 C   0  0  0  0  0  0  0  0  0  0  0  0
   33.7678  -15.9426   35.9633 N   0  0  0  0  0  0  0  0  0  0  0  0
   34.8663  -15.3209   36.4721 C   0  0  0  0  0  0  0  0  0  0  0  0
   32.6517  -13.2675   36.0735 N   0  0  0  0  0  0  0  0  0  0  0  0
   33.4082  -13.5232   37.2243 C   0  0  0  0  0  0  0  0  0  0  0  0
   32.9777  -13.2676   38.3939 O   0  0  0  0  0  0  0  0  0  0  0  0
   32.0014  -13.9943   35.7214 H   0  0  0  0  0  0  0  0  0  0  0  0
   32.7422  -12.3636   35.5825 H   0  0  0  0  0  0  0  0  0  0  0  0
   37.4533  -17.7367   35.5585 N   0  0  0  0  0  0  0  0  0  0  0  0
   38.3018  -17.2362   35.2991 H   0  0  0  0  0  0  0  0  0  0  0  0
   37.5323  -19.1666   35.7720 C   0  0  0  0  0  0  0  0  0  0  0  0
   38.6847  -19.4713   36.6358 C   0  0  0  0  0  0  0  0  0  0  0  0
   38.5039  -20.4520   37.6066 C   0  0  0  0  0  0  0  0  0  0  0  0
   39.5619  -20.7547   38.4245 C   0  0  0  0  0  0  0  0  0  0  0  0
   40.7944  -20.1253   38.3209 C   0  0  0  0  0  0  0  0  0  0  0  0
   40.9690  -19.1502   37.3534 C   0  0  0  0  0  0  0  0  0  0  0  0
   42.5266  -18.3505   37.2179 Cl  0  0  0  0  0  0  0  0  0  0  0  0
   39.9058  -18.8447   36.5300 C   0  0  0  0  0  0  0  0  0  0  0  0
 11 12  1  0  0  0
 12 13  2  0  0  0
 12  1  1  0  0  0
  1  2  2  0  0  0
  2  3  1  0  0  0
  3  4  2  0  0  0
  4  5  1  0  0  0
  5  6  2  0  0  0
  6 16  1  0  0  0
 16 18  1  0  0  0
 18 19  1  0  0  0
 19 20  2  0  0  0
 20 21  1  0  0  0
 21 22  2  0  0  0
 22 23  1  0  0  0
 23 24  1  0  0  0
 23 25  2  0  0  0
  6  7  1  0  0  0
  7  8  2  0  0  0
  8  9  1  0  0  0
  9 10  2  0  0  0
 10  1  1  0  0  0
 10  5  1  0  0  0
 25 19  1  0  0  0
 11 14  1  0  0  0
 11 15  1  0  0  0
 16 17  1  0  0  0
M  END
> <minimizedAffinity>
-7.19321

> <CNNscore>
0.5327908993

> <CNNaffinity>
4.9289560318

> <CNN_VS>
2.6261029243

> <CNNaffinity_variance>
0.2847691774

$$$$
[H]c1nc(N([H])C([H])([H])c2c([H])c([H])c([H])c(Cl)c2[H])c2c([H])c([H])c([H])c(C(=O)N([H])[H])c2n1


 25 27  0  0  0  0  0  0  0  0999 V2000
   30.9572  -21.8843   35.7529 C   0  0  0  0  0  0  0  0  0  0  0  0
   29.7461  -21.3876   35.3212 C   0  0  0  0  0  0  0  0  0  0  0  0
   29.6195  -20.0422   35.0722 C   0  0  0  0  0  0  0  0  0  0  0  0
   30.7291  -19.2102   35.2649 C   0  0  0  0  0  0  0  0  0  0  0  0
   31.9450  -19.7330   35.7020 C   0  0  0  0  0  0  0  0  0  0  0  0
   33.0520  -18.9481   35.9013 C   0  0  0  0  0  0  0  0  0  0  0  0
   34.2068  -19.5193   36.3282 N   0  0  0  0  0  0  0  0  0  0  0  0
   34.3144  -20.8326   36.5666 C   0  0  0  0  0  0  0  0  0  0  0  0
   33.2371  -21.6099   36.3748 N   0  0  0  0  0  0  0  0  0  0  0  0
   32.0608  -21.0754   35.9474 C   0  0  0  0  0  0  0  0  0  0  0  0
   31.8812  -24.1144   35.1756 N   0  0  0  0  0  0  0  0  0  0  0  0
   31.1041  -23.3121   36.0207 C   0  0  0  0  0  0  0  0  0  0  0  0
   30.5022  -23.7785   37.0400 O   0  0  0  0  0  0  0  0  0  0  0  0
   32.8853  -24.2563   35.3918 H   0  0  0  0  0  0  0  0  0  0  0  0
   31.4563  -24.5592   34.3462 H   0  0  0  0  0  0  0  0  0  0  0  0
   33.0156  -17.5575   35.6715 N   0  0  0  0  0  0  0  0  0  0  0  0
   32.2139  -16.9810   35.9219 H   0  0  0  0  0  0  0  0  0  0  0  0
   34.1602  -16.9195   35.0555 C   0  0  0  0  0  0  0  0  0  0  0  0
   34.7437  -15.9464   35.9935 C   0  0  0  0  0  0  0  0  0  0  0  0
   35.9571  -16.2879   36.5834 C   0  0  0  0  0  0  0  0  0  0  0  0
   36.5221  -15.3988   37.4610 C   0  0  0  0  0  0  0  0  0  0  0  0
   35.9342  -14.1827   37.7796 C   0  0  0  0  0  0  0  0  0  0  0  0
   34.7269  -13.8478   37.1899 C   0  0  0  0  0  0  0  0  0  0  0  0
   33.9786  -12.3101   37.5895 Cl  0  0  0  0  0  0  0  0  0  0  0  0
   34.1575  -14.7410   36.3070 C   0  0  0  0  0  0  0  0  0  0  0  0
 11 12  1  0  0  0
 12 13  2  0  0  0
 12  1  1  0  0  0
  1  2  2  0  0  0
  2  3  1  0  0  0
  3  4  2  0  0  0
  4  5  1  0  0  0
  5  6  2  0  0  0
  6 16  1  0  0  0
 16 18  1  0  0  0
 18 19  1  0  0  0
 19 20  2  0  0  0
 20 21  1  0  0  0
 21 22  2  0  0  0
 22 23  1  0  0  0
 23 24  1  0  0  0
 23 25  2  0  0  0
  6  7  1  0  0  0
  7  8  2  0  0  0
  8  9  1  0  0  0
  9 10  2  0  0  0
 10  1  1  0  0  0
 10  5  1  0  0  0
 25 19  1  0  0  0
 11 14  1  0  0  0
 11 15  1  0  0  0
 16 17  1  0  0  0
M  END
> <minimizedAffinity>
-6.26588

> <CNNscore>
0.4880059361

> <CNNaffinity>
4.5420932770

> <CNN_VS>
2.2165684700

> <CNNaffinity_variance>
0.4450718760

$$$$
[H]c1nc(N([H])C([H])([H])c2c([H])c([H])c([H])c(Cl)c2[H])c2c([H])c([H])c([H])c(C(=O)N([H])[H])c2n1


 25 27  0  0  0  0  0  0  0  0999 V2000
   34.6274  -14.0854   36.9805 C   0  0  0  0  0  0  0  0  0  0  0  0
   35.6489  -13.3518   37.5443 C   0  0  0  0  0  0  0  0  0  0  0  0
   36.9200  -13.8735   37.5680 C   0  0  0  0  0  0  0  0  0  0  0  0
   37.1423  -15.1411   37.0164 C   0  0  0  0  0  0  0  0  0  0  0  0
   36.0950  -15.8664   36.4510 C   0  0  0  0  0  0  0  0  0  0  0  0
   36.2762  -17.1102   35.9019 C   0  0  0  0  0  0  0  0  0  0  0  0
   35.2143  -17.7644   35.3669 N   0  0  0  0  0  0  0  0  0  0  0  0
   33.9812  -17.2425   35.3514 C   0  0  0  0  0  0  0  0  0  0  0  0
   33.7927  -16.0259   35.8862 N   0  0  0  0  0  0  0  0  0  0  0  0
   34.8318  -15.3375   36.4323 C   0  0  0  0  0  0  0  0  0  0  0  0
   32.6009  -13.3846   35.7303 N   0  0  0  0  0  0  0  0  0  0  0  0
   33.2726  -13.5416   36.9494 C   0  0  0  0  0  0  0  0  0  0  0  0
   32.7462  -13.2251   38.0635 O   0  0  0  0  0  0  0  0  0  0  0  0
   31.9995  -14.1529   35.3792 H   0  0  0  0  0  0  0  0  0  0  0  0
   32.7050  -12.5118   35.1885 H   0  0  0  0  0  0  0  0  0  0  0  0
   37.5451  -17.7245   35.8814 N   0  0  0  0  0  0  0  0  0  0  0  0
   38.2617  -17.5263   36.5776 H   0  0  0  0  0  0  0  0  0  0  0  0
   37.8458  -18.6750   34.8313 C   0  0  0  0  0  0  0  0  0  0  0  0
   39.3045  -18.8405   34.7217 C   0  0  0  0  0  0  0  0  0  0  0  0
   39.8587  -18.7280   33.4500 C   0  0  0  0  0  0  0  0  0  0  0  0
   41.2154  -18.8780   33.3206 C   0  0  0  0  0  0  0  0  0  0  0  0
   42.0482  -19.1354   34.4005 C   0  0  0  0  0  0  0  0  0  0  0  0
   41.4918  -19.2463   35.6635 C   0  0  0  0  0  0  0  0  0  0  0  0
   42.5411  -19.5719   37.0336 Cl  0  0  0  0  0  0  0  0  0  0  0  0
   40.1274  -19.0957   35.7953 C   0  0  0  0  0  0  0  0  0  0  0  0
 11 12  1  0  0  0
 12 13  2  0  0  0
 12  1  1  0  0  0
  1  2  2  0  0  0
  2  3  1  0  0  0
  3  4  2  0  0  0
  4  5  1  0  0  0
  5  6  2  0  0  0
  6 16  1  0  0  0
 16 18  1  0  0  0
 18 19  1  0  0  0
 19 20  2  0  0  0
 20 21  1  0  0  0
 21 22  2  0  0  0
 22 23  1  0  0  0
 23 24  1  0  0  0
 23 25  2  0  0  0
  6  7  1  0  0  0
  7  8  2  0  0  0
  8  9  1  0  0  0
  9 10  2  0  0  0
 10  1  1  0  0  0
 10  5  1  0  0  0
 25 19  1  0  0  0
 11 14  1  0  0  0
 11 15  1  0  0  0
 16 17  1  0  0  0
M  END
> <minimizedAffinity>
-7.22041

> <CNNscore>
0.4646067917

> <CNNaffinity>
4.7545766830

> <CNN_VS>
2.2090086937

> <CNNaffinity_variance>
0.3671476543

$$$$
[H]c1nc(N([H])C([H])([H])c2c([H])c([H])c([H])c(Cl)c2[H])c2c([H])c([H])c([H])c(C(=O)N([H])[H])c2n1


 25 27  0  0  0  0  0  0  0  0999 V2000
   30.9682  -20.8018   36.1616 C   0  0  0  0  0  0  0  0  0  0  0  0
   30.5266  -20.0325   35.1068 C   0  0  0  0  0  0  0  0  0  0  0  0
   31.3675  -19.0941   34.5584 C   0  0  0  0  0  0  0  0  0  0  0  0
   32.6547  -18.9454   35.0891 C   0  0  0  0  0  0  0  0  0  0  0  0
   33.0815  -19.7339   36.1563 C   0  0  0  0  0  0  0  0  0  0  0  0
   34.3347  -19.6155   36.7010 C   0  0  0  0  0  0  0  0  0  0  0  0
   34.6887  -20.4139   37.7398 N   0  0  0  0  0  0  0  0  0  0  0  0
   33.8576  -21.3240   38.2634 C   0  0  0  0  0  0  0  0  0  0  0  0
   32.6288  -21.4481   37.7379 N   0  0  0  0  0  0  0  0  0  0  0  0
   32.2357  -20.6663   36.6957 C   0  0  0  0  0  0  0  0  0  0  0  0
   30.1872  -23.1479   36.3780 N   0  0  0  0  0  0  0  0  0  0  0  0
   30.0839  -21.8021   36.7527 C   0  0  0  0  0  0  0  0  0  0  0  0
   29.2334  -21.3957   37.6071 O   0  0  0  0  0  0  0  0  0  0  0  0
   30.8041  -23.7802   36.9209 H   0  0  0  0  0  0  0  0  0  0  0  0
   29.6535  -23.5044   35.5691 H   0  0  0  0  0  0  0  0  0  0  0  0
   35.2647  -18.6800   36.2033 N   0  0  0  0  0  0  0  0  0  0  0  0
   35.3297  -18.4440   35.2145 H   0  0  0  0  0  0  0  0  0  0  0  0
   36.1649  -18.0266   37.1304 C   0  0  0  0  0  0  0  0  0  0  0  0
   36.1002  -16.5692   36.9330 C   0  0  0  0  0  0  0  0  0  0  0  0
   34.9958  -16.0737   36.2463 C   0  0  0  0  0  0  0  0  0  0  0  0
   34.9115  -14.7195   36.0490 C   0  0  0  0  0  0  0  0  0  0  0  0
   35.8776  -13.8334   36.5046 C   0  0  0  0  0  0  0  0  0  0  0  0
   36.9744  -14.3316   37.1872 C   0  0  0  0  0  0  0  0  0  0  0  0
   38.1998  -13.2147   37.7659 Cl  0  0  0  0  0  0  0  0  0  0  0  0
   37.0605  -15.6933   37.3864 C   0  0  0  0  0  0  0  0  0  0  0  0
 11 12  1  0  0  0
 12 13  2  0  0  0
 12  1  1  0  0  0
  1  2  2  0  0  0
  2  3  1  0  0  0
  3  4  2  0  0  0
  4  5  1  0  0  0
  5  6  2  0  0  0
  6 16  1  0  0  0
 16 18  1  0  0  0
 18 19  1  0  0  0
 19 20  2  0  0  0
 20 21  1  0  0  0
 21 22  2  0  0  0
 22 23  1  0  0  0
 23 24  1  0  0  0
 23 25  2  0  0  0
  6  7  1  0  0  0
  7  8  2  0  0  0
  8  9  1  0  0  0
  9 10  2  0  0  0
 10  1  1  0  0  0
 10  5  1  0  0  0
 25 19  1  0  0  0
 11 14  1  0  0  0
 11 15  1  0  0  0
 16 17  1  0  0  0
M  END
> <minimizedAffinity>
-6.83313

> <CNNscore>
0.4488662183

> <CNNaffinity>
4.3420190811

> <CNN_VS>
1.9489856958

> <CNNaffinity_variance>
0.5391508341

$$$$
[H]c1nc(N([H])C([H])([H])c2c([H])c([H])c([H])c(Cl)c2[H])c2c([H])c([H])c([H])c(C(=O)N([H])[H])c2n1


 25 27  0  0  0  0  0  0  0  0999 V2000
   29.8304  -21.9628   37.0212 C   0  0  0  0  0  0  0  0  0  0  0  0
   30.5139  -22.9333   37.7217 C   0  0  0  0  0  0  0  0  0  0  0  0
   31.8831  -22.9968   37.6241 C   0  0  0  0  0  0  0  0  0  0  0  0
   32.5481  -22.0698   36.8122 C   0  0  0  0  0  0  0  0  0  0  0  0
   31.8377  -21.0962   36.1121 C   0  0  0  0  0  0  0  0  0  0  0  0
   32.4558  -20.1728   35.3081 C   0  0  0  0  0  0  0  0  0  0  0  0
   31.7062  -19.2503   34.6532 N   0  0  0  0  0  0  0  0  0  0  0  0
   30.3721  -19.2013   34.7586 C   0  0  0  0  0  0  0  0  0  0  0  0
   29.7570  -20.1004   35.5427 N   0  0  0  0  0  0  0  0  0  0  0  0
   30.4732  -21.0414   36.2162 C   0  0  0  0  0  0  0  0  0  0  0  0
   27.7688  -20.8725   37.8707 N   0  0  0  0  0  0  0  0  0  0  0  0
   28.3755  -21.8853   37.1169 C   0  0  0  0  0  0  0  0  0  0  0  0
   27.7029  -22.7668   36.4932 O   0  0  0  0  0  0  0  0  0  0  0  0
   27.5054  -19.9830   37.4073 H   0  0  0  0  0  0  0  0  0  0  0  0
   27.5867  -21.0124   38.8775 H   0  0  0  0  0  0  0  0  0  0  0  0
   33.8565  -20.1616   35.1475 N   0  0  0  0  0  0  0  0  0  0  0  0
   34.4661  -20.8399   35.6014 H   0  0  0  0  0  0  0  0  0  0  0  0
   34.4566  -19.1481   34.3054 C   0  0  0  0  0  0  0  0  0  0  0  0
   34.9916  -18.0646   35.1462 C   0  0  0  0  0  0  0  0  0  0  0  0
   36.2714  -18.2409   35.6639 C   0  0  0  0  0  0  0  0  0  0  0  0
   36.7932  -17.2464   36.4503 C   0  0  0  0  0  0  0  0  0  0  0  0
   36.0989  -16.0817   36.7463 C   0  0  0  0  0  0  0  0  0  0  0  0
   34.8259  -15.9113   36.2287 C   0  0  0  0  0  0  0  0  0  0  0  0
   33.9429  -14.4394   36.6000 Cl  0  0  0  0  0  0  0  0  0  0  0  0
   34.2999  -16.9107   35.4375 C   0  0  0  0  0  0  0  0  0  0  0  0
 11 12  1  0  0  0
 12 13  2  0  0  0
 12  1  1  0  0  0
  1  2  2  0  0  0
  2  3  1  0  0  0
  3  4  2  0  0  0
  4  5  1  0  0  0
  5  6  2  0  0  0
  6 16  1  0  0  0
 16 18  1  0  0  0
 18 19  1  0  0  0
 19 20  2  0  0  0
 20 21  1  0  0  0
 21 22  2  0  0  0
 22 23  1  0  0  0
 23 24  1  0  0  0
 23 25  2  0  0  0
  6  7  1  0  0  0
  7  8  2  0  0  0
  8  9  1  0  0  0
  9 10  2  0  0  0
 10  1  1  0  0  0
 10  5  1  0  0  0
 25 19  1  0  0  0
 11 14  1  0  0  0
 11 15  1  0  0  0
 16 17  1  0  0  0
M  END
> <minimizedAffinity>
-5.70883

> <CNNscore>
0.3605669737

> <CNNaffinity>
4.4235367775

> <CNN_VS>
1.5949813128

> <CNNaffinity_variance>
0.3600345850

$$$$
[H]c1nc(N([H])C([H])([H])c2c([H])c([H])c([H])c(Cl)c2[H])c2c([H])c([H])c([H])c(C(=O)N([H])[H])c2n1


 25 27  0  0  0  0  0  0  0  0999 V2000
   32.5620  -22.5108   35.6302 C   0  0  0  0  0  0  0  0  0  0  0  0
   33.3461  -23.0747   36.6136 C   0  0  0  0  0  0  0  0  0  0  0  0
   34.2770  -22.2986   37.2612 C   0  0  0  0  0  0  0  0  0  0  0  0
   34.4033  -20.9511   36.9022 C   0  0  0  0  0  0  0  0  0  0  0  0
   33.6003  -20.4006   35.9048 C   0  0  0  0  0  0  0  0  0  0  0  0
   33.6966  -19.0854   35.5276 C   0  0  0  0  0  0  0  0  0  0  0  0
   32.8849  -18.6108   34.5490 N   0  0  0  0  0  0  0  0  0  0  0  0
   31.9824  -19.3800   33.9271 C   0  0  0  0  0  0  0  0  0  0  0  0
   31.8797  -20.6686   34.2883 N   0  0  0  0  0  0  0  0  0  0  0  0
   32.6754  -21.1826   35.2654 C   0  0  0  0  0  0  0  0  0  0  0  0
   31.7815  -23.7197   33.6078 N   0  0  0  0  0  0  0  0  0  0  0  0
   31.5694  -23.3253   34.9350 C   0  0  0  0  0  0  0  0  0  0  0  0
   30.5248  -23.6507   35.5843 O   0  0  0  0  0  0  0  0  0  0  0  0
   32.2484  -24.6254   33.4156 H   0  0  0  0  0  0  0  0  0  0  0  0
   31.4752  -23.1131   32.8303 H   0  0  0  0  0  0  0  0  0  0  0  0
   34.6230  -18.2143   36.1366 N   0  0  0  0  0  0  0  0  0  0  0  0
   34.8056  -18.2213   37.1387 H   0  0  0  0  0  0  0  0  0  0  0  0
   35.3456  -17.2711   35.3091 C   0  0  0  0  0  0  0  0  0  0  0  0
   35.3853  -15.9605   35.9783 C   0  0  0  0  0  0  0  0  0  0  0  0
   34.1790  -15.2771   36.0999 C   0  0  0  0  0  0  0  0  0  0  0  0
   34.1886  -14.0540   36.7193 C   0  0  0  0  0  0  0  0  0  0  0  0
   35.3457  -13.4780   37.2248 C   0  0  0  0  0  0  0  0  0  0  0  0
   36.5431  -14.1621   37.1013 C   0  0  0  0  0  0  0  0  0  0  0  0
   38.0104  -13.4378   37.7391 Cl  0  0  0  0  0  0  0  0  0  0  0  0
   36.5351  -15.3923   36.4785 C   0  0  0  0  0  0  0  0  0  0  0  0
 11 12  1  0  0  0
 12 13  2  0  0  0
 12  1  1  0  0  0
  1  2  2  0  0  0
  2  3  1  0  0  0
  3  4  2  0  0  0
  4  5  1  0  0  0
  5  6  2  0  0  0
  6 16  1  0  0  0
 16 18  1  0  0  0
 18 19  1  0  0  0
 19 20  2  0  0  0
 20 21  1  0  0  0
 21 22  2  0  0  0
 22 23  1  0  0  0
 23 24  1  0  0  0
 23 25  2  0  0  0
  6  7  1  0  0  0
  7  8  2  0  0  0
  8  9  1  0  0  0
  9 10  2  0  0  0
 10  1  1  0  0  0
 10  5  1  0  0  0
 25 19  1  0  0  0
 11 14  1  0  0  0
 11 15  1  0  0  0
 16 17  1  0  0  0
M  END
> <minimizedAffinity>
-6.72325

> <CNNscore>
0.3419501781

> <CNNaffinity>
4.4420614243

> <CNN_VS>
1.5189636946

> <CNNaffinity_variance>
0.3343556821

$$$$
[H]c1nc(N([H])C([H])([H])c2c([H])c([H])c([H])c(Cl)c2[H])c2c([H])c([H])c([H])c(C(=O)N([H])[H])c2n1


 25 27  0  0  0  0  0  0  0  0999 V2000
   31.7391  -20.4644   35.9208 C   0  0  0  0  0  0  0  0  0  0  0  0
   31.3222  -19.7865   34.7955 C   0  0  0  0  0  0  0  0  0  0  0  0
   32.1287  -18.8125   34.2578 C   0  0  0  0  0  0  0  0  0  0  0  0
   33.3567  -18.5351   34.8710 C   0  0  0  0  0  0  0  0  0  0  0  0
   33.7594  -19.2327   36.0085 C   0  0  0  0  0  0  0  0  0  0  0  0
   34.9547  -18.9875   36.6348 C   0  0  0  0  0  0  0  0  0  0  0  0
   35.2881  -19.7021   37.7394 N   0  0  0  0  0  0  0  0  0  0  0  0
   34.4909  -20.6484   38.2515 C   0  0  0  0  0  0  0  0  0  0  0  0
   33.3188  -20.8965   37.6464 N   0  0  0  0  0  0  0  0  0  0  0  0
   32.9481  -20.2016   36.5366 C   0  0  0  0  0  0  0  0  0  0  0  0
   31.2040  -22.8548   36.3214 N   0  0  0  0  0  0  0  0  0  0  0  0
   30.8908  -21.5014   36.5013 C   0  0  0  0  0  0  0  0  0  0  0  0
   29.8746  -21.1191   37.1644 O   0  0  0  0  0  0  0  0  0  0  0  0
   31.7941  -23.3373   37.0244 H   0  0  0  0  0  0  0  0  0  0  0  0
   30.8498  -23.3648   35.4964 H   0  0  0  0  0  0  0  0  0  0  0  0
   35.8463  -18.0067   36.1543 N   0  0  0  0  0  0  0  0  0  0  0  0
   35.9600  -17.8079   35.1617 H   0  0  0  0  0  0  0  0  0  0  0  0
   36.6333  -17.2497   37.1052 C   0  0  0  0  0  0  0  0  0  0  0  0
   36.2398  -15.8322   37.0503 C   0  0  0  0  0  0  0  0  0  0  0  0
   37.1773  -14.8997   37.4845 C   0  0  0  0  0  0  0  0  0  0  0  0
   36.8357  -13.5725   37.4436 C   0  0  0  0  0  0  0  0  0  0  0  0
   35.6015  -13.1291   36.9895 C   0  0  0  0  0  0  0  0  0  0  0  0
   34.6724  -14.0610   36.5587 C   0  0  0  0  0  0  0  0  0  0  0  0
   33.1090  -13.5053   35.9831 Cl  0  0  0  0  0  0  0  0  0  0  0  0
   35.0145  -15.3962   36.5992 C   0  0  0  0  0  0  0  0  0  0  0  0
 11 12  1  0  0  0
 12 13  2  0  0  0
 12  1  1  0  0  0
  1  2  2  0  0  0
  2  3  1  0  0  0
  3  4  2  0  0  0
  4  5  1  0  0  0
  5  6  2  0  0  0
  6 16  1  0  0  0
 16 18  1  0  0  0
 18 19  1  0  0  0
 19 20  2  0  0  0
 20 21  1  0  0  0
 21 22  2  0  0  0
 22 23  1  0  0  0
 23 24  1  0  0  0
 23 25  2  0  0  0
  6  7  1  0  0  0
  7  8  2  0  0  0
  8  9  1  0  0  0
  9 10  2  0  0  0
 10  1  1  0  0  0
 10  5  1  0  0  0
 25 19  1  0  0  0
 11 14  1  0  0  0
 11 15  1  0  0  0
 16 17  1  0  0  0
M  END
> <minimizedAffinity>
-6.85617

> <CNNscore>
0.3410834670

> <CNNaffinity>
4.4629025459

> <CNN_VS>
1.5222222805

> <CNNaffinity_variance>
0.5087594390

$$$$
[H]c1nc(N([H])C([H])([H])c2c([H])c([H])c([H])c(Cl)c2[H])c2c([H])c([H])c([H])c(C(=O)N([H])[H])c2n1


 25 27  0  0  0  0  0  0  0  0999 V2000
   32.8194  -21.5158   35.4901 C   0  0  0  0  0  0  0  0  0  0  0  0
   32.0831  -21.2370   34.3588 C   0  0  0  0  0  0  0  0  0  0  0  0
   32.1926  -19.9997   33.7712 C   0  0  0  0  0  0  0  0  0  0  0  0
   33.0528  -19.0530   34.3408 C   0  0  0  0  0  0  0  0  0  0  0  0
   33.7887  -19.3555   35.4852 C   0  0  0  0  0  0  0  0  0  0  0  0
   34.6404  -18.4532   36.0698 C   0  0  0  0  0  0  0  0  0  0  0  0
   35.3284  -18.8103   37.1838 N   0  0  0  0  0  0  0  0  0  0  0  0
   35.2108  -20.0205   37.7448 C   0  0  0  0  0  0  0  0  0  0  0  0
   34.3800  -20.9111   37.1809 N   0  0  0  0  0  0  0  0  0  0  0  0
   33.6724  -20.5917   36.0632 C   0  0  0  0  0  0  0  0  0  0  0  0
   33.8347  -23.6576   36.2267 N   0  0  0  0  0  0  0  0  0  0  0  0
   32.7115  -22.8270   36.1234 C   0  0  0  0  0  0  0  0  0  0  0  0
   31.5687  -23.1675   36.5667 O   0  0  0  0  0  0  0  0  0  0  0  0
   34.4272  -23.6071   37.0762 H   0  0  0  0  0  0  0  0  0  0  0  0
   34.0683  -24.3128   35.4636 H   0  0  0  0  0  0  0  0  0  0  0  0
   34.8166  -17.1600   35.5366 N   0  0  0  0  0  0  0  0  0  0  0  0
   35.6347  -16.8994   34.9886 H   0  0  0  0  0  0  0  0  0  0  0  0
   33.7971  -16.1596   35.7748 C   0  0  0  0  0  0  0  0  0  0  0  0
   34.4323  -14.9058   36.2128 C   0  0  0  0  0  0  0  0  0  0  0  0
   33.6163  -13.7817   36.2995 C   0  0  0  0  0  0  0  0  0  0  0  0
   34.1833  -12.6011   36.7050 C   0  0  0  0  0  0  0  0  0  0  0  0
   35.5279  -12.4869   37.0291 C   0  0  0  0  0  0  0  0  0  0  0  0
   36.3354  -13.6083   36.9411 C   0  0  0  0  0  0  0  0  0  0  0  0
   38.0376  -13.4694   37.3500 Cl  0  0  0  0  0  0  0  0  0  0  0  0
   35.7665  -14.7964   36.5334 C   0  0  0  0  0  0  0  0  0  0  0  0
 11 12  1  0  0  0
 12 13  2  0  0  0
 12  1  1  0  0  0
  1  2  2  0  0  0
  2  3  1  0  0  0
  3  4  2  0  0  0
  4  5  1  0  0  0
  5  6  2  0  0  0
  6 16  1  0  0  0
 16 18  1  0  0  0
 18 19  1  0  0  0
 19 20  2  0  0  0
 20 21  1  0  0  0
 21 22  2  0  0  0
 22 23  1  0  0  0
 23 24  1  0  0  0
 23 25  2  0  0  0
  6  7  1  0  0  0
  7  8  2  0  0  0
  8  9  1  0  0  0
  9 10  2  0  0  0
 10  1  1  0  0  0
 10  5  1  0  0  0
 25 19  1  0  0  0
 11 14  1  0  0  0
 11 15  1  0  0  0
 16 17  1  0  0  0
M  END
> <minimizedAffinity>
-6.87263

> <CNNscore>
0.3399029970

> <CNNaffinity>
4.4826235771

> <CNN_VS>
1.5236572027

> <CNNaffinity_variance>
0.4163415432

$$$$
[H]c1nc(C#N)c(C(=O)N([H])C([H])([H])C2([H])C([H])([H])C([H])([H])N(C(=O)OC(C([H])([H])[H])(C([H])([H])[H])C([H])([H])[H])C([H])([H])C2([H])[H])c(-c2c([H])c([H])c3c(c([H])nn3[H])c2[H])c1[H]


 36 39  0  0  0  0  0  0  0  0999 V2000
   35.4191  -21.4896   36.7046 N   0  0  0  0  0  0  0  0  0  0  0  0
   34.3905  -20.5449   36.8940 C   0  0  0  0  0  0  0  0  0  0  0  0
   33.7726  -20.4956   38.0311 O   0  0  0  0  0  0  0  0  0  0  0  0
   35.9530  -21.5231   35.8305 H   0  0  0  0  0  0  0  0  0  0  0  0
   33.9180  -19.5691   35.9323 C   0  0  0  0  0  0  0  0  0  0  0  0
   34.6206  -18.3608   35.8227 C   0  0  0  0  0  0  0  0  0  0  0  0
   34.2550  -17.3856   34.9793 N   0  0  0  0  0  0  0  0  0  0  0  0
   33.1909  -17.5492   34.2089 C   0  0  0  0  0  0  0  0  0  0  0  0
   32.4643  -18.7191   34.2789 C   0  0  0  0  0  0  0  0  0  0  0  0
   32.8119  -19.7664   35.1510 C   0  0  0  0  0  0  0  0  0  0  0  0
   31.9171  -20.9073   35.1916 C   0  0  0  0  0  0  0  0  0  0  0  0
   32.2859  -22.1231   34.6563 C   0  0  0  0  0  0  0  0  0  0  0  0
   31.4393  -23.2117   34.6354 C   0  0  0  0  0  0  0  0  0  0  0  0
   30.1627  -23.1088   35.1659 C   0  0  0  0  0  0  0  0  0  0  0  0
   29.1407  -23.9570   35.2908 N   0  0  0  0  0  0  0  0  0  0  0  0
   28.1265  -23.3610   35.8777 N   0  0  0  0  0  0  0  0  0  0  0  0
   28.4655  -22.1044   36.1505 C   0  0  0  0  0  0  0  0  0  0  0  0
   29.7509  -21.9048   35.7141 C   0  0  0  0  0  0  0  0  0  0  0  0
   30.6235  -20.8316   35.7198 C   0  0  0  0  0  0  0  0  0  0  0  0
   29.1145  -24.9483   34.9817 H   0  0  0  0  0  0  0  0  0  0  0  0
   35.8046  -18.0946   36.6165 C   0  0  0  0  0  0  0  0  0  0  0  0
   36.7566  -17.8568   37.2424 N   0  0  0  0  0  0  0  0  0  0  0  0
   35.7568  -22.3914   37.7562 C   0  0  0  0  0  0  0  0  0  0  0  0
   40.7618  -20.5717   37.9531 C   0  0  0  0  0  0  0  0  0  0  0  0
   41.7239  -20.7263   37.1461 O   0  0  0  0  0  0  0  0  0  0  0  0
   39.5338  -21.2358   37.7039 N   0  0  0  0  0  0  0  0  0  0  0  0
   39.2763  -22.0867   36.5953 C   0  0  0  0  0  0  0  0  0  0  0  0
   37.8839  -22.5459   36.4390 C   0  0  0  0  0  0  0  0  0  0  0  0
   37.1646  -22.8904   37.7068 C   0  0  0  0  0  0  0  0  0  0  0  0
   37.8779  -22.3932   38.9440 C   0  0  0  0  0  0  0  0  0  0  0  0
   38.4652  -21.0217   38.6616 C   0  0  0  0  0  0  0  0  0  0  0  0
   40.9777  -19.7531   39.0392 O   0  0  0  0  0  0  0  0  0  0  0  0
   41.3132  -19.6288   41.4402 C   0  0  0  0  0  0  0  0  0  0  0  0
   41.8657  -20.0102   40.0819 C   0  0  0  0  0  0  0  0  0  0  0  0
   43.2056  -19.3646   39.9211 C   0  0  0  0  0  0  0  0  0  0  0  0
   42.0956  -21.5196   40.1239 C   0  0  0  0  0  0  0  0  0  0  0  0
 33 34  1  0  0  0
 34 35  1  0  0  0
 34 36  1  0  0  0
 34 32  1  0  0  0
 32 24  1  0  0  0
 24 25  2  0  0  0
 24 26  1  0  0  0
 26 27  1  0  0  0
 27 28  1  0  0  0
 28 29  1  0  0  0
 29 23  1  0  0  0
 23  1  1  0  0  0
  1  2  1  0  0  0
  2  3  2  0  0  0
  2  5  1  0  0  0
  5  6  2  0  0  0
  6  7  1  0  0  0
  7  8  2  0  0  0
  8  9  1  0  0  0
  9 10  2  0  0  0
 10 11  1  0  0  0
 11 12  2  0  0  0
 12 13  1  0  0  0
 13 14  2  0  0  0
 14 15  1  0  0  0
 15 16  1  0  0  0
 16 17  2  0  0  0
 17 18  1  0  0  0
 18 19  2  0  0  0
  6 21  1  0  0  0
 21 22  3  0  0  0
 29 30  1  0  0  0
 30 31  1  0  0  0
 31 26  1  0  0  0
 10  5  1  0  0  0
 19 11  1  0  0  0
 18 14  1  0  0  0
  1  4  1  0  0  0
 15 20  1  0  0  0
M  END
> <minimizedAffinity>
-5.67065

> <CNNscore>
0.3738787770

> <CNNaffinity>
5.3327045441

> <CNN_VS>
1.9937850237

> <CNNaffinity_variance>
0.1048885733

$$$$
[H]c1nc(C#N)c(C(=O)N([H])C([H])([H])C2([H])C([H])([H])C([H])([H])N(C(=O)OC(C([H])([H])[H])(C([H])([H])[H])C([H])([H])[H])C([H])([H])C2([H])[H])c(-c2c([H])c([H])c3c(c([H])nn3[H])c2[H])c1[H]


 36 39  0  0  0  0  0  0  0  0999 V2000
   33.8647  -17.0657   35.8397 N   0  0  0  0  0  0  0  0  0  0  0  0
   34.2145  -15.7022   35.9072 C   0  0  0  0  0  0  0  0  0  0  0  0
   33.4689  -14.8234   35.3163 O   0  0  0  0  0  0  0  0  0  0  0  0
   34.4124  -17.7780   36.3326 H   0  0  0  0  0  0  0  0  0  0  0  0
   35.3553  -15.1299   36.5937 C   0  0  0  0  0  0  0  0  0  0  0  0
   36.5621  -15.8433   36.5703 C   0  0  0  0  0  0  0  0  0  0  0  0
   37.6694  -15.4117   37.1897 N   0  0  0  0  0  0  0  0  0  0  0  0
   37.6451  -14.2679   37.8558 C   0  0  0  0  0  0  0  0  0  0  0  0
   36.4826  -13.5283   37.9105 C   0  0  0  0  0  0  0  0  0  0  0  0
   35.2982  -13.9454   37.2767 C   0  0  0  0  0  0  0  0  0  0  0  0
   34.1220  -13.1218   37.4823 C   0  0  0  0  0  0  0  0  0  0  0  0
   34.0815  -11.8141   37.0475 C   0  0  0  0  0  0  0  0  0  0  0  0
   32.9975  -10.9913   37.2715 C   0  0  0  0  0  0  0  0  0  0  0  0
   31.8922  -11.4704   37.9574 C   0  0  0  0  0  0  0  0  0  0  0  0
   30.7249  -10.9365   38.3209 N   0  0  0  0  0  0  0  0  0  0  0  0
   30.0029  -11.8240   38.9684 N   0  0  0  0  0  0  0  0  0  0  0  0
   30.6860  -12.9626   39.0424 C   0  0  0  0  0  0  0  0  0  0  0  0
   31.8909  -12.7792   38.4122 C   0  0  0  0  0  0  0  0  0  0  0  0
   32.9934  -13.5790   38.1716 C   0  0  0  0  0  0  0  0  0  0  0  0
   30.4009   -9.9670   38.1367 H   0  0  0  0  0  0  0  0  0  0  0  0
   36.6892  -17.0998   35.8577 C   0  0  0  0  0  0  0  0  0  0  0  0
   36.7863  -18.0955   35.2628 N   0  0  0  0  0  0  0  0  0  0  0  0
   32.7076  -17.4661   35.1089 C   0  0  0  0  0  0  0  0  0  0  0  0
   30.7684  -22.3965   35.6852 C   0  0  0  0  0  0  0  0  0  0  0  0
   31.3662  -23.5017   35.8320 O   0  0  0  0  0  0  0  0  0  0  0  0
   31.5296  -21.2191   35.4715 N   0  0  0  0  0  0  0  0  0  0  0  0
   32.9480  -21.1651   35.4048 C   0  0  0  0  0  0  0  0  0  0  0  0
   33.5440  -19.8181   35.3379 C   0  0  0  0  0  0  0  0  0  0  0  0
   32.8126  -18.8227   34.4907 C   0  0  0  0  0  0  0  0  0  0  0  0
   31.4177  -19.2744   34.1206 C   0  0  0  0  0  0  0  0  0  0  0  0
   30.7919  -19.9802   35.3105 C   0  0  0  0  0  0  0  0  0  0  0  0
   29.3927  -22.4131   35.7441 O   0  0  0  0  0  0  0  0  0  0  0  0
   29.4568  -22.8205   38.1363 C   0  0  0  0  0  0  0  0  0  0  0  0
   28.6338  -22.4782   36.9111 C   0  0  0  0  0  0  0  0  0  0  0  0
   27.4785  -23.4260   36.8407 C   0  0  0  0  0  0  0  0  0  0  0  0
   28.0586  -21.0852   37.1598 C   0  0  0  0  0  0  0  0  0  0  0  0
 33 34  1  0  0  0
 34 35  1  0  0  0
 34 36  1  0  0  0
 34 32  1  0  0  0
 32 24  1  0  0  0
 24 25  2  0  0  0
 24 26  1  0  0  0
 26 27  1  0  0  0
 27 28  1  0  0  0
 28 29  1  0  0  0
 29 23  1  0  0  0
 23  1  1  0  0  0
  1  2  1  0  0  0
  2  3  2  0  0  0
  2  5  1  0  0  0
  5  6  2  0  0  0
  6  7  1  0  0  0
  7  8  2  0  0  0
  8  9  1  0  0  0
  9 10  2  0  0  0
 10 11  1  0  0  0
 11 12  2  0  0  0
 12 13  1  0  0  0
 13 14  2  0  0  0
 14 15  1  0  0  0
 15 16  1  0  0  0
 16 17  2  0  0  0
 17 18  1  0  0  0
 18 19  2  0  0  0
  6 21  1  0  0  0
 21 22  3  0  0  0
 29 30  1  0  0  0
 30 31  1  0  0  0
 31 26  1  0  0  0
 10  5  1  0  0  0
 19 11  1  0  0  0
 18 14  1  0  0  0
  1  4  1  0  0  0
 15 20  1  0  0  0
M  END
> <minimizedAffinity>
-7.17330

> <CNNscore>
0.3363092840

> <CNNaffinity>
6.1601781845

> <CNN_VS>
2.0717251301

> <CNNaffinity_variance>
0.0350066014

$$$$
[H]c1nc(C#N)c(C(=O)N([H])C([H])([H])C2([H])C([H])([H])C([H])([H])N(C(=O)OC(C([H])([H])[H])(C([H])([H])[H])C([H])([H])[H])C([H])([H])C2([H])[H])c(-c2c([H])c([H])c3c(c([H])nn3[H])c2[H])c1[H]


 36 39  0  0  0  0  0  0  0  0999 V2000
   36.7518  -21.7765   36.6461 N   0  0  0  0  0  0  0  0  0  0  0  0
   37.1814  -20.4343   36.6470 C   0  0  0  0  0  0  0  0  0  0  0  0
   37.0659  -19.7293   37.7273 O   0  0  0  0  0  0  0  0  0  0  0  0
   36.8696  -22.3697   35.8187 H   0  0  0  0  0  0  0  0  0  0  0  0
   37.7713  -19.7092   35.5396 C   0  0  0  0  0  0  0  0  0  0  0  0
   39.1640  -19.7619   35.3869 C   0  0  0  0  0  0  0  0  0  0  0  0
   39.8094  -19.1117   34.4088 N   0  0  0  0  0  0  0  0  0  0  0  0
   39.1236  -18.3849   33.5404 C   0  0  0  0  0  0  0  0  0  0  0  0
   37.7515  -18.2991   33.6472 C   0  0  0  0  0  0  0  0  0  0  0  0
   37.0353  -18.9636   34.6591 C   0  0  0  0  0  0  0  0  0  0  0  0
   35.6061  -18.7227   34.7141 C   0  0  0  0  0  0  0  0  0  0  0  0
   35.0934  -17.6111   35.3485 C   0  0  0  0  0  0  0  0  0  0  0  0
   33.7383  -17.3801   35.4604 C   0  0  0  0  0  0  0  0  0  0  0  0
   32.8334  -18.2828   34.9239 C   0  0  0  0  0  0  0  0  0  0  0  0
   31.5016  -18.3381   34.8706 N   0  0  0  0  0  0  0  0  0  0  0  0
   31.1183  -19.4242   34.2367 N   0  0  0  0  0  0  0  0  0  0  0  0
   32.1965  -20.1053   33.8601 C   0  0  0  0  0  0  0  0  0  0  0  0
   33.3056  -19.4138   34.2777 C   0  0  0  0  0  0  0  0  0  0  0  0
   34.6704  -19.6170   34.1821 C   0  0  0  0  0  0  0  0  0  0  0  0
   30.8347  -17.6440   35.2611 H   0  0  0  0  0  0  0  0  0  0  0  0
   39.9984  -20.5405   36.2816 C   0  0  0  0  0  0  0  0  0  0  0  0
   40.6499  -21.1620   37.0190 N   0  0  0  0  0  0  0  0  0  0  0  0
   36.1792  -22.3391   37.8246 C   0  0  0  0  0  0  0  0  0  0  0  0
   30.9449  -23.1302   38.4394 C   0  0  0  0  0  0  0  0  0  0  0  0
   30.3184  -24.0645   39.0183 O   0  0  0  0  0  0  0  0  0  0  0  0
   32.3586  -23.1959   38.3475 N   0  0  0  0  0  0  0  0  0  0  0  0
   33.1620  -24.2489   38.8625 C   0  0  0  0  0  0  0  0  0  0  0  0
   34.6206  -24.0415   38.8026 C   0  0  0  0  0  0  0  0  0  0  0  0
   35.1342  -23.3751   37.5634 C   0  0  0  0  0  0  0  0  0  0  0  0
   34.0392  -22.7341   36.7407 C   0  0  0  0  0  0  0  0  0  0  0  0
   33.0248  -22.0971   37.6740 C   0  0  0  0  0  0  0  0  0  0  0  0
   30.1964  -22.0935   37.9283 O   0  0  0  0  0  0  0  0  0  0  0  0
   28.8427  -20.8357   36.3540 C   0  0  0  0  0  0  0  0  0  0  0  0
   29.3138  -22.1862   36.8539 C   0  0  0  0  0  0  0  0  0  0  0  0
   28.1109  -23.0355   37.1184 C   0  0  0  0  0  0  0  0  0  0  0  0
   30.0722  -22.8289   35.6942 C   0  0  0  0  0  0  0  0  0  0  0  0
 33 34  1  0  0  0
 34 35  1  0  0  0
 34 36  1  0  0  0
 34 32  1  0  0  0
 32 24  1  0  0  0
 24 25  2  0  0  0
 24 26  1  0  0  0
 26 27  1  0  0  0
 27 28  1  0  0  0
 28 29  1  0  0  0
 29 23  1  0  0  0
 23  1  1  0  0  0
  1  2  1  0  0  0
  2  3  2  0  0  0
  2  5  1  0  0  0
  5  6  2  0  0  0
  6  7  1  0  0  0
  7  8  2  0  0  0
  8  9  1  0  0  0
  9 10  2  0  0  0
 10 11  1  0  0  0
 11 12  2  0  0  0
 12 13  1  0  0  0
 13 14  2  0  0  0
 14 15  1  0  0  0
 15 16  1  0  0  0
 16 17  2  0  0  0
 17 18  1  0  0  0
 18 19  2  0  0  0
  6 21  1  0  0  0
 21 22  3  0  0  0
 29 30  1  0  0  0
 30 31  1  0  0  0
 31 26  1  0  0  0
 10  5  1  0  0  0
 19 11  1  0  0  0
 18 14  1  0  0  0
  1  4  1  0  0  0
 15 20  1  0  0  0
M  END
> <minimizedAffinity>
-5.98743

> <CNNscore>
0.3232505322

> <CNNaffinity>
5.6003403664

> <CNN_VS>
1.8103129864

> <CNNaffinity_variance>
0.2213532180

$$$$
[H]c1nc(C#N)c(C(=O)N([H])C([H])([H])C2([H])C([H])([H])C([H])([H])N(C(=O)OC(C([H])([H])[H])(C([H])([H])[H])C([H])([H])[H])C([H])([H])C2([H])[H])c(-c2c([H])c([H])c3c(c([H])nn3[H])c2[H])c1[H]


 36 39  0  0  0  0  0  0  0  0999 V2000
   36.5632  -18.2403   37.3669 N   0  0  0  0  0  0  0  0  0  0  0  0
   36.4878  -17.2648   36.3525 C   0  0  0  0  0  0  0  0  0  0  0  0
   37.4177  -17.2085   35.4528 O   0  0  0  0  0  0  0  0  0  0  0  0
   35.8205  -18.3350   38.0668 H   0  0  0  0  0  0  0  0  0  0  0  0
   35.4468  -16.2721   36.1761 C   0  0  0  0  0  0  0  0  0  0  0  0
   35.6974  -14.9693   36.6294 C   0  0  0  0  0  0  0  0  0  0  0  0
   34.7949  -13.9835   36.5317 N   0  0  0  0  0  0  0  0  0  0  0  0
   33.6128  -14.2277   35.9881 C   0  0  0  0  0  0  0  0  0  0  0  0
   33.3156  -15.4930   35.5274 C   0  0  0  0  0  0  0  0  0  0  0  0
   34.2327  -16.5561   35.6121 C   0  0  0  0  0  0  0  0  0  0  0  0
   33.7673  -17.8573   35.1713 C   0  0  0  0  0  0  0  0  0  0  0  0
   34.3477  -18.4963   34.0963 C   0  0  0  0  0  0  0  0  0  0  0  0
   33.8958  -19.7104   33.6229 C   0  0  0  0  0  0  0  0  0  0  0  0
   32.8186  -20.3355   34.2315 C   0  0  0  0  0  0  0  0  0  0  0  0
   32.1673  -21.4791   34.0131 N   0  0  0  0  0  0  0  0  0  0  0  0
   31.1947  -21.6203   34.8863 N   0  0  0  0  0  0  0  0  0  0  0  0
   31.1894  -20.5671   35.6981 C   0  0  0  0  0  0  0  0  0  0  0  0
   32.2054  -19.7281   35.3153 C   0  0  0  0  0  0  0  0  0  0  0  0
   32.6822  -18.5105   35.7662 C   0  0  0  0  0  0  0  0  0  0  0  0
   32.3707  -22.1784   33.2726 H   0  0  0  0  0  0  0  0  0  0  0  0
   36.9663  -14.6032   37.2282 C   0  0  0  0  0  0  0  0  0  0  0  0
   37.9750  -14.2850   37.7141 N   0  0  0  0  0  0  0  0  0  0  0  0
   37.6676  -19.1415   37.4042 C   0  0  0  0  0  0  0  0  0  0  0  0
   35.5608  -23.9584   38.2755 C   0  0  0  0  0  0  0  0  0  0  0  0
   36.0620  -25.1114   38.1340 O   0  0  0  0  0  0  0  0  0  0  0  0
   36.3178  -22.8214   37.8941 N   0  0  0  0  0  0  0  0  0  0  0  0
   37.6299  -22.8595   37.3499 C   0  0  0  0  0  0  0  0  0  0  0  0
   38.2978  -21.5567   37.1741 C   0  0  0  0  0  0  0  0  0  0  0  0
   37.4260  -20.4360   36.6975 C   0  0  0  0  0  0  0  0  0  0  0  0
   35.9506  -20.7521   36.7975 C   0  0  0  0  0  0  0  0  0  0  0  0
   35.6938  -21.5247   38.0792 C   0  0  0  0  0  0  0  0  0  0  0  0
   34.2897  -23.8855   38.8003 O   0  0  0  0  0  0  0  0  0  0  0  0
   32.3792  -25.3348   38.4232 C   0  0  0  0  0  0  0  0  0  0  0  0
   33.1073  -24.0507   38.0816 C   0  0  0  0  0  0  0  0  0  0  0  0
   33.2768  -23.9870   36.5966 C   0  0  0  0  0  0  0  0  0  0  0  0
   32.1699  -22.9113   38.4769 C   0  0  0  0  0  0  0  0  0  0  0  0
 33 34  1  0  0  0
 34 35  1  0  0  0
 34 36  1  0  0  0
 34 32  1  0  0  0
 32 24  1  0  0  0
 24 25  2  0  0  0
 24 26  1  0  0  0
 26 27  1  0  0  0
 27 28  1  0  0  0
 28 29  1  0  0  0
 29 23  1  0  0  0
 23  1  1  0  0  0
  1  2  1  0  0  0
  2  3  2  0  0  0
  2  5  1  0  0  0
  5  6  2  0  0  0
  6  7  1  0  0  0
  7  8  2  0  0  0
  8  9  1  0  0  0
  9 10  2  0  0  0
 10 11  1  0  0  0
 11 12  2  0  0  0
 12 13  1  0  0  0
 13 14  2  0  0  0
 14 15  1  0  0  0
 15 16  1  0  0  0
 16 17  2  0  0  0
 17 18  1  0  0  0
 18 19  2  0  0  0
  6 21  1  0  0  0
 21 22  3  0  0  0
 29 30  1  0  0  0
 30 31  1  0  0  0
 31 26  1  0  0  0
 10  5  1  0  0  0
 19 11  1  0  0  0
 18 14  1  0  0  0
  1  4  1  0  0  0
 15 20  1  0  0  0
M  END
> <minimizedAffinity>
-5.34937

> <CNNscore>
0.3075867891

> <CNNaffinity>
5.6742148399

> <CNN_VS>
1.7453135252

> <CNNaffinity_variance>
0.0646369010

$$$$
[H]c1nc(C#N)c(C(=O)N([H])C([H])([H])C2([H])C([H])([H])C([H])([H])N(C(=O)OC(C([H])([H])[H])(C([H])([H])[H])C([H])([H])[H])C([H])([H])C2([H])[H])c(-c2c([H])c([H])c3c(c([H])nn3[H])c2[H])c1[H]


 36 39  0  0  0  0  0  0  0  0999 V2000
   37.1078  -17.8190   37.1512 N   0  0  0  0  0  0  0  0  0  0  0  0
   36.6872  -17.0190   36.0699 C   0  0  0  0  0  0  0  0  0  0  0  0
   37.3333  -17.0727   34.9487 O   0  0  0  0  0  0  0  0  0  0  0  0
   36.5906  -17.8281   38.0359 H   0  0  0  0  0  0  0  0  0  0  0  0
   35.5638  -16.1037   36.0506 C   0  0  0  0  0  0  0  0  0  0  0  0
   35.7683  -14.8020   36.5296 C   0  0  0  0  0  0  0  0  0  0  0  0
   34.7914  -13.8856   36.5732 N   0  0  0  0  0  0  0  0  0  0  0  0
   33.5769  -14.2008   36.1513 C   0  0  0  0  0  0  0  0  0  0  0  0
   33.3227  -15.4684   35.6716 C   0  0  0  0  0  0  0  0  0  0  0  0
   34.3181  -16.4602   35.6102 C   0  0  0  0  0  0  0  0  0  0  0  0
   33.9020  -17.7772   35.1670 C   0  0  0  0  0  0  0  0  0  0  0  0
   34.5009  -18.3888   34.0862 C   0  0  0  0  0  0  0  0  0  0  0  0
   34.0946  -19.6180   33.6106 C   0  0  0  0  0  0  0  0  0  0  0  0
   33.0465  -20.2875   34.2229 C   0  0  0  0  0  0  0  0  0  0  0  0
   32.4397  -21.4552   34.0038 N   0  0  0  0  0  0  0  0  0  0  0  0
   31.4786  -21.6380   34.8820 N   0  0  0  0  0  0  0  0  0  0  0  0
   31.4365  -20.5888   35.6979 C   0  0  0  0  0  0  0  0  0  0  0  0
   32.4161  -19.7088   35.3126 C   0  0  0  0  0  0  0  0  0  0  0  0
   32.8471  -18.4750   35.7655 C   0  0  0  0  0  0  0  0  0  0  0  0
   32.6662  -22.1432   33.2593 H   0  0  0  0  0  0  0  0  0  0  0  0
   37.0662  -14.3605   37.0021 C   0  0  0  0  0  0  0  0  0  0  0  0
   38.1196  -14.0217   37.3630 N   0  0  0  0  0  0  0  0  0  0  0  0
   38.2476  -18.6637   37.0077 C   0  0  0  0  0  0  0  0  0  0  0  0
   36.2290  -22.6723   39.8813 C   0  0  0  0  0  0  0  0  0  0  0  0
   36.7052  -23.8143   40.1452 O   0  0  0  0  0  0  0  0  0  0  0  0
   36.9436  -21.8059   39.0153 N   0  0  0  0  0  0  0  0  0  0  0  0
   38.1856  -22.1126   38.3967 C   0  0  0  0  0  0  0  0  0  0  0  0
   38.8358  -21.0103   37.6644 C   0  0  0  0  0  0  0  0  0  0  0  0
   37.9213  -20.1169   36.8841 C   0  0  0  0  0  0  0  0  0  0  0  0
   36.4651  -20.2992   37.2489 C   0  0  0  0  0  0  0  0  0  0  0  0
   36.3510  -20.5088   38.7484 C   0  0  0  0  0  0  0  0  0  0  0  0
   35.0258  -22.3428   40.4644 O   0  0  0  0  0  0  0  0  0  0  0  0
   36.1712  -21.5649   42.4583 C   0  0  0  0  0  0  0  0  0  0  0  0
   34.8593  -21.8745   41.7663 C   0  0  0  0  0  0  0  0  0  0  0  0
   34.0649  -22.7838   42.6496 C   0  0  0  0  0  0  0  0  0  0  0  0
   34.0995  -20.5521   41.6821 C   0  0  0  0  0  0  0  0  0  0  0  0
 33 34  1  0  0  0
 34 35  1  0  0  0
 34 36  1  0  0  0
 34 32  1  0  0  0
 32 24  1  0  0  0
 24 25  2  0  0  0
 24 26  1  0  0  0
 26 27  1  0  0  0
 27 28  1  0  0  0
 28 29  1  0  0  0
 29 23  1  0  0  0
 23  1  1  0  0  0
  1  2  1  0  0  0
  2  3  2  0  0  0
  2  5  1  0  0  0
  5  6  2  0  0  0
  6  7  1  0  0  0
  7  8  2  0  0  0
  8  9  1  0  0  0
  9 10  2  0  0  0
 10 11  1  0  0  0
 11 12  2  0  0  0
 12 13  1  0  0  0
 13 14  2  0  0  0
 14 15  1  0  0  0
 15 16  1  0  0  0
 16 17  2  0  0  0
 17 18  1  0  0  0
 18 19  2  0  0  0
  6 21  1  0  0  0
 21 22  3  0  0  0
 29 30  1  0  0  0
 30 31  1  0  0  0
 31 26  1  0  0  0
 10  5  1  0  0  0
 19 11  1  0  0  0
 18 14  1  0  0  0
  1  4  1  0  0  0
 15 20  1  0  0  0
M  END
> <minimizedAffinity>
-5.68459

> <CNNscore>
0.2846202254

> <CNNaffinity>
5.5413780212

> <CNN_VS>
1.5771882534

> <CNNaffinity_variance>
0.2046301812

$$$$
[H]c1nc(C#N)c(C(=O)N([H])C([H])([H])C2([H])C([H])([H])C([H])([H])N(C(=O)OC(C([H])([H])[H])(C([H])([H])[H])C([H])([H])[H])C([H])([H])C2([H])[H])c(-c2c([H])c([H])c3c(c([H])nn3[H])c2[H])c1[H]


 36 39  0  0  0  0  0  0  0  0999 V2000
   33.1388  -17.7433   35.7549 N   0  0  0  0  0  0  0  0  0  0  0  0
   34.3518  -17.1410   35.3650 C   0  0  0  0  0  0  0  0  0  0  0  0
   34.7256  -17.2053   34.1266 O   0  0  0  0  0  0  0  0  0  0  0  0
   32.7980  -17.6720   36.7188 H   0  0  0  0  0  0  0  0  0  0  0  0
   35.2761  -16.4173   36.2147 C   0  0  0  0  0  0  0  0  0  0  0  0
   35.0013  -15.0697   36.4868 C   0  0  0  0  0  0  0  0  0  0  0  0
   35.8018  -14.3070   37.2441 N   0  0  0  0  0  0  0  0  0  0  0  0
   36.9014  -14.8270   37.7666 C   0  0  0  0  0  0  0  0  0  0  0  0
   37.2181  -16.1478   37.5285 C   0  0  0  0  0  0  0  0  0  0  0  0
   36.4071  -16.9825   36.7386 C   0  0  0  0  0  0  0  0  0  0  0  0
   36.8953  -18.3261   36.4935 C   0  0  0  0  0  0  0  0  0  0  0  0
   36.6858  -19.3390   37.4051 C   0  0  0  0  0  0  0  0  0  0  0  0
   37.1798  -20.6139   37.2237 C   0  0  0  0  0  0  0  0  0  0  0  0
   37.9188  -20.9176   36.0909 C   0  0  0  0  0  0  0  0  0  0  0  0
   38.5136  -22.0242   35.6425 N   0  0  0  0  0  0  0  0  0  0  0  0
   39.0991  -21.7883   34.4892 N   0  0  0  0  0  0  0  0  0  0  0  0
   38.8984  -20.5163   34.1575 C   0  0  0  0  0  0  0  0  0  0  0  0
   38.1532  -19.9291   35.1488 C   0  0  0  0  0  0  0  0  0  0  0  0
   37.6443  -18.6604   35.3597 C   0  0  0  0  0  0  0  0  0  0  0  0
   38.5321  -22.9523   36.1086 H   0  0  0  0  0  0  0  0  0  0  0  0
   33.8156  -14.4154   35.9684 C   0  0  0  0  0  0  0  0  0  0  0  0
   32.8721  -13.8674   35.5633 N   0  0  0  0  0  0  0  0  0  0  0  0
   32.3457  -18.4313   34.7900 C   0  0  0  0  0  0  0  0  0  0  0  0
   33.2650  -23.4796   36.2287 C   0  0  0  0  0  0  0  0  0  0  0  0
   32.7177  -24.5546   35.8473 O   0  0  0  0  0  0  0  0  0  0  0  0
   32.7754  -22.2410   35.7415 N   0  0  0  0  0  0  0  0  0  0  0  0
   31.6914  -22.0916   34.8349 C   0  0  0  0  0  0  0  0  0  0  0  0
   31.4498  -20.7270   34.3311 C   0  0  0  0  0  0  0  0  0  0  0  0
   31.6230  -19.6233   35.3287 C   0  0  0  0  0  0  0  0  0  0  0  0
   32.3352  -20.0701   36.5856 C   0  0  0  0  0  0  0  0  0  0  0  0
   33.4413  -21.0408   36.2117 C   0  0  0  0  0  0  0  0  0  0  0  0
   34.3191  -23.5885   37.1081 O   0  0  0  0  0  0  0  0  0  0  0  0
   34.5393  -25.2786   38.8366 C   0  0  0  0  0  0  0  0  0  0  0  0
   34.2101  -23.8450   38.4735 C   0  0  0  0  0  0  0  0  0  0  0  0
   32.8750  -23.5067   39.0576 C   0  0  0  0  0  0  0  0  0  0  0  0
   35.2457  -22.9766   39.1852 C   0  0  0  0  0  0  0  0  0  0  0  0
 33 34  1  0  0  0
 34 35  1  0  0  0
 34 36  1  0  0  0
 34 32  1  0  0  0
 32 24  1  0  0  0
 24 25  2  0  0  0
 24 26  1  0  0  0
 26 27  1  0  0  0
 27 28  1  0  0  0
 28 29  1  0  0  0
 29 23  1  0  0  0
 23  1  1  0  0  0
  1  2  1  0  0  0
  2  3  2  0  0  0
  2  5  1  0  0  0
  5  6  2  0  0  0
  6  7  1  0  0  0
  7  8  2  0  0  0
  8  9  1  0  0  0
  9 10  2  0  0  0
 10 11  1  0  0  0
 11 12  2  0  0  0
 12 13  1  0  0  0
 13 14  2  0  0  0
 14 15  1  0  0  0
 15 16  1  0  0  0
 16 17  2  0  0  0
 17 18  1  0  0  0
 18 19  2  0  0  0
  6 21  1  0  0  0
 21 22  3  0  0  0
 29 30  1  0  0  0
 30 31  1  0  0  0
 31 26  1  0  0  0
 10  5  1  0  0  0
 19 11  1  0  0  0
 18 14  1  0  0  0
  1  4  1  0  0  0
 15 20  1  0  0  0
M  END
> <minimizedAffinity>
-5.54639

> <CNNscore>
0.2738181353

> <CNNaffinity>
5.7334508896

> <CNN_VS>
1.5699228048

> <CNNaffinity_variance>
0.0881946236

$$$$
[H]c1nc(C#N)c(C(=O)N([H])C([H])([H])C2([H])C([H])([H])C([H])([H])N(C(=O)OC(C([H])([H])[H])(C([H])([H])[H])C([H])([H])[H])C([H])([H])C2([H])[H])c(-c2c([H])c([H])c3c(c([H])nn3[H])c2[H])c1[H]


 36 39  0  0  0  0  0  0  0  0999 V2000
   35.4762  -21.3203   36.7258 N   0  0  0  0  0  0  0  0  0  0  0  0
   34.3828  -20.4495   36.9051 C   0  0  0  0  0  0  0  0  0  0  0  0
   33.7348  -20.4633   38.0264 O   0  0  0  0  0  0  0  0  0  0  0  0
   36.0328  -21.3014   35.8655 H   0  0  0  0  0  0  0  0  0  0  0  0
   33.8705  -19.4884   35.9490 C   0  0  0  0  0  0  0  0  0  0  0  0
   34.5171  -18.2481   35.8531 C   0  0  0  0  0  0  0  0  0  0  0  0
   34.1111  -17.2837   35.0158 N   0  0  0  0  0  0  0  0  0  0  0  0
   33.0596  -17.4897   34.2384 C   0  0  0  0  0  0  0  0  0  0  0  0
   32.3873  -18.6923   34.2949 C   0  0  0  0  0  0  0  0  0  0  0  0
   32.7786  -19.7299   35.1602 C   0  0  0  0  0  0  0  0  0  0  0  0
   31.9371  -20.9111   35.1866 C   0  0  0  0  0  0  0  0  0  0  0  0
   30.8968  -21.0264   36.0840 C   0  0  0  0  0  0  0  0  0  0  0  0
   30.1106  -22.1566   36.1668 C   0  0  0  0  0  0  0  0  0  0  0  0
   30.3525  -23.2335   35.3282 C   0  0  0  0  0  0  0  0  0  0  0  0
   29.7847  -24.4304   35.1708 N   0  0  0  0  0  0  0  0  0  0  0  0
   30.3976  -25.1012   34.2207 N   0  0  0  0  0  0  0  0  0  0  0  0
   31.3839  -24.3535   33.7342 C   0  0  0  0  0  0  0  0  0  0  0  0
   31.3885  -23.1600   34.4111 C   0  0  0  0  0  0  0  0  0  0  0  0
   32.1588  -22.0127   34.3528 C   0  0  0  0  0  0  0  0  0  0  0  0
   28.9769  -24.8097   35.7022 H   0  0  0  0  0  0  0  0  0  0  0  0
   35.6836  -17.9344   36.6554 C   0  0  0  0  0  0  0  0  0  0  0  0
   36.6328  -17.6753   37.2771 N   0  0  0  0  0  0  0  0  0  0  0  0
   35.8469  -22.2183   37.7697 C   0  0  0  0  0  0  0  0  0  0  0  0
   41.0954  -22.0305   38.6747 C   0  0  0  0  0  0  0  0  0  0  0  0
   41.7638  -22.3539   39.6990 O   0  0  0  0  0  0  0  0  0  0  0  0
   39.6798  -22.1045   38.7184 N   0  0  0  0  0  0  0  0  0  0  0  0
   38.9186  -22.5220   39.8434 C   0  0  0  0  0  0  0  0  0  0  0  0
   37.4692  -22.6809   39.6238 C   0  0  0  0  0  0  0  0  0  0  0  0
   36.8259  -21.6516   38.7463 C   0  0  0  0  0  0  0  0  0  0  0  0
   37.8286  -20.8250   37.9731 C   0  0  0  0  0  0  0  0  0  0  0  0
   38.9647  -21.7224   37.5152 C   0  0  0  0  0  0  0  0  0  0  0  0
   41.8022  -21.6206   37.5663 O   0  0  0  0  0  0  0  0  0  0  0  0
   41.7352  -19.3226   38.3456 C   0  0  0  0  0  0  0  0  0  0  0  0
   42.2269  -20.3175   37.3141 C   0  0  0  0  0  0  0  0  0  0  0  0
   41.8643  -19.8050   35.9562 C   0  0  0  0  0  0  0  0  0  0  0  0
   43.7515  -20.3084   37.4063 C   0  0  0  0  0  0  0  0  0  0  0  0
 33 34  1  0  0  0
 34 35  1  0  0  0
 34 36  1  0  0  0
 34 32  1  0  0  0
 32 24  1  0  0  0
 24 25  2  0  0  0
 24 26  1  0  0  0
 26 27  1  0  0  0
 27 28  1  0  0  0
 28 29  1  0  0  0
 29 23  1  0  0  0
 23  1  1  0  0  0
  1  2  1  0  0  0
  2  3  2  0  0  0
  2  5  1  0  0  0
  5  6  2  0  0  0
  6  7  1  0  0  0
  7  8  2  0  0  0
  8  9  1  0  0  0
  9 10  2  0  0  0
 10 11  1  0  0  0
 11 12  2  0  0  0
 12 13  1  0  0  0
 13 14  2  0  0  0
 14 15  1  0  0  0
 15 16  1  0  0  0
 16 17  2  0  0  0
 17 18  1  0  0  0
 18 19  2  0  0  0
  6 21  1  0  0  0
 21 22  3  0  0  0
 29 30  1  0  0  0
 30 31  1  0  0  0
 31 26  1  0  0  0
 10  5  1  0  0  0
 19 11  1  0  0  0
 18 14  1  0  0  0
  1  4  1  0  0  0
 15 20  1  0  0  0
M  END
> <minimizedAffinity>
-5.25656

> <CNNscore>
0.2679631412

> <CNNaffinity>
5.1581315994

> <CNN_VS>
1.3821891546

> <CNNaffinity_variance>
0.2679041922

$$$$
[H]c1nc(C#N)c(C(=O)N([H])C([H])([H])C2([H])C([H])([H])C([H])([H])N(C(=O)OC(C([H])([H])[H])(C([H])([H])[H])C([H])([H])[H])C([H])([H])C2([H])[H])c(-c2c([H])c([H])c3c(c([H])nn3[H])c2[H])c1[H]


 36 39  0  0  0  0  0  0  0  0999 V2000
   36.5710  -18.1750   37.3142 N   0  0  0  0  0  0  0  0  0  0  0  0
   36.5373  -17.0969   36.4072 C   0  0  0  0  0  0  0  0  0  0  0  0
   37.5345  -16.9105   35.6021 O   0  0  0  0  0  0  0  0  0  0  0  0
   35.7783  -18.3712   37.9334 H   0  0  0  0  0  0  0  0  0  0  0  0
   35.4727  -16.1265   36.2490 C   0  0  0  0  0  0  0  0  0  0  0  0
   35.6881  -14.8293   36.7354 C   0  0  0  0  0  0  0  0  0  0  0  0
   34.7617  -13.8642   36.6565 N   0  0  0  0  0  0  0  0  0  0  0  0
   33.5889  -14.1244   36.1002 C   0  0  0  0  0  0  0  0  0  0  0  0
   33.3260  -15.3850   35.6071 C   0  0  0  0  0  0  0  0  0  0  0  0
   34.2690  -16.4267   35.6712 C   0  0  0  0  0  0  0  0  0  0  0  0
   33.8387  -17.7279   35.1961 C   0  0  0  0  0  0  0  0  0  0  0  0
   34.4761  -18.3500   34.1437 C   0  0  0  0  0  0  0  0  0  0  0  0
   34.0599  -19.5636   33.6375 C   0  0  0  0  0  0  0  0  0  0  0  0
   32.9616  -20.2057   34.1880 C   0  0  0  0  0  0  0  0  0  0  0  0
   32.3334  -21.3534   33.9278 N   0  0  0  0  0  0  0  0  0  0  0  0
   31.3220  -21.5133   34.7524 N   0  0  0  0  0  0  0  0  0  0  0  0
   31.2673  -20.4685   35.5732 C   0  0  0  0  0  0  0  0  0  0  0  0
   32.2914  -19.6155   35.2473 C   0  0  0  0  0  0  0  0  0  0  0  0
   32.7335  -18.3979   35.7323 C   0  0  0  0  0  0  0  0  0  0  0  0
   32.5790  -22.0431   33.1909 H   0  0  0  0  0  0  0  0  0  0  0  0
   36.9444  -14.4464   37.3503 C   0  0  0  0  0  0  0  0  0  0  0  0
   37.9544  -14.1186   37.8268 N   0  0  0  0  0  0  0  0  0  0  0  0
   37.7063  -19.0371   37.3499 C   0  0  0  0  0  0  0  0  0  0  0  0
   40.7479  -22.6085   34.8210 C   0  0  0  0  0  0  0  0  0  0  0  0
   40.7612  -22.9620   33.6064 O   0  0  0  0  0  0  0  0  0  0  0  0
   39.7718  -21.6791   35.2624 N   0  0  0  0  0  0  0  0  0  0  0  0
   38.7750  -21.0895   34.4389 C   0  0  0  0  0  0  0  0  0  0  0  0
   37.9637  -20.0272   35.0614 C   0  0  0  0  0  0  0  0  0  0  0  0
   37.5789  -20.2536   36.4911 C   0  0  0  0  0  0  0  0  0  0  0  0
   38.3644  -21.3684   37.1444 C   0  0  0  0  0  0  0  0  0  0  0  0
   39.8039  -21.3092   36.6649 C   0  0  0  0  0  0  0  0  0  0  0  0
   41.7007  -23.1614   35.6473 O   0  0  0  0  0  0  0  0  0  0  0  0
   42.6252  -25.4055   35.6980 C   0  0  0  0  0  0  0  0  0  0  0  0
   41.6196  -24.4155   36.2496 C   0  0  0  0  0  0  0  0  0  0  0  0
   40.2618  -25.0403   36.1872 C   0  0  0  0  0  0  0  0  0  0  0  0
   41.9648  -24.2356   37.7266 C   0  0  0  0  0  0  0  0  0  0  0  0
 33 34  1  0  0  0
 34 35  1  0  0  0
 34 36  1  0  0  0
 34 32  1  0  0  0
 32 24  1  0  0  0
 24 25  2  0  0  0
 24 26  1  0  0  0
 26 27  1  0  0  0
 27 28  1  0  0  0
 28 29  1  0  0  0
 29 23  1  0  0  0
 23  1  1  0  0  0
  1  2  1  0  0  0
  2  3  2  0  0  0
  2  5  1  0  0  0
  5  6  2  0  0  0
  6  7  1  0  0  0
  7  8  2  0  0  0
  8  9  1  0  0  0
  9 10  2  0  0  0
 10 11  1  0  0  0
 11 12  2  0  0  0
 12 13  1  0  0  0
 13 14  2  0  0  0
 14 15  1  0  0  0
 15 16  1  0  0  0
 16 17  2  0  0  0
 17 18  1  0  0  0
 18 19  2  0  0  0
  6 21  1  0  0  0
 21 22  3  0  0  0
 29 30  1  0  0  0
 30 31  1  0  0  0
 31 26  1  0  0  0
 10  5  1  0  0  0
 19 11  1  0  0  0
 18 14  1  0  0  0
  1  4  1  0  0  0
 15 20  1  0  0  0
M  END
> <minimizedAffinity>
-5.53581

> <CNNscore>
0.2613772154

> <CNNaffinity>
5.7855377197

> <CNN_VS>
1.5122077465

> <CNNaffinity_variance>
0.0544229075

$$$$
[H]c1nc(C#N)c(C(=O)N([H])C([H])([H])C2([H])C([H])([H])C([H])([H])N(C(=O)OC(C([H])([H])[H])(C([H])([H])[H])C([H])([H])[H])C([H])([H])C2([H])[H])c(-c2c([H])c([H])c3c(c([H])nn3[H])c2[H])c1[H]


 36 39  0  0  0  0  0  0  0  0999 V2000
   37.7420  -20.9653   36.9372 N   0  0  0  0  0  0  0  0  0  0  0  0
   38.6437  -19.9093   36.6964 C   0  0  0  0  0  0  0  0  0  0  0  0
   39.1131  -19.2323   37.6958 O   0  0  0  0  0  0  0  0  0  0  0  0
   37.3876  -21.5444   36.1695 H   0  0  0  0  0  0  0  0  0  0  0  0
   39.1419  -19.4675   35.4092 C   0  0  0  0  0  0  0  0  0  0  0  0
   40.4793  -19.7438   35.0920 C   0  0  0  0  0  0  0  0  0  0  0  0
   41.0425  -19.3619   33.9376 N   0  0  0  0  0  0  0  0  0  0  0  0
   40.3250  -18.6962   33.0462 C   0  0  0  0  0  0  0  0  0  0  0  0
   39.0048  -18.3980   33.3099 C   0  0  0  0  0  0  0  0  0  0  0  0
   38.3755  -18.7782   34.5090 C   0  0  0  0  0  0  0  0  0  0  0  0
   37.0098  -18.3290   34.7013 C   0  0  0  0  0  0  0  0  0  0  0  0
   36.7238  -17.2266   35.4782 C   0  0  0  0  0  0  0  0  0  0  0  0
   35.4332  -16.8044   35.7200 C   0  0  0  0  0  0  0  0  0  0  0  0
   34.3628  -17.4955   35.1740 C   0  0  0  0  0  0  0  0  0  0  0  0
   33.0386  -17.3406   35.2228 N   0  0  0  0  0  0  0  0  0  0  0  0
   32.4464  -18.2811   34.5207 N   0  0  0  0  0  0  0  0  0  0  0  0
   33.3750  -19.0747   33.9954 C   0  0  0  0  0  0  0  0  0  0  0  0
   34.6051  -18.6096   34.3868 C   0  0  0  0  0  0  0  0  0  0  0  0
   35.9108  -19.0076   34.1631 C   0  0  0  0  0  0  0  0  0  0  0  0
   32.5181  -16.5986   35.7301 H   0  0  0  0  0  0  0  0  0  0  0  0
   41.3404  -20.4770   35.9996 C   0  0  0  0  0  0  0  0  0  0  0  0
   42.0463  -21.0735   36.7072 N   0  0  0  0  0  0  0  0  0  0  0  0
   37.3419  -21.2664   38.2723 C   0  0  0  0  0  0  0  0  0  0  0  0
   32.1325  -22.2795   37.7865 C   0  0  0  0  0  0  0  0  0  0  0  0
   31.1967  -21.5643   37.3246 O   0  0  0  0  0  0  0  0  0  0  0  0
   33.4399  -21.7376   37.8767 N   0  0  0  0  0  0  0  0  0  0  0  0
   33.8073  -20.4225   37.4833 C   0  0  0  0  0  0  0  0  0  0  0  0
   35.2494  -20.1160   37.5096 C   0  0  0  0  0  0  0  0  0  0  0  0
   36.0176  -20.6918   38.6592 C   0  0  0  0  0  0  0  0  0  0  0  0
   35.2493  -21.7574   39.4081 C   0  0  0  0  0  0  0  0  0  0  0  0
   34.4739  -22.6026   38.4131 C   0  0  0  0  0  0  0  0  0  0  0  0
   31.8107  -23.5601   38.1776 O   0  0  0  0  0  0  0  0  0  0  0  0
   32.1953  -24.4645   35.9579 C   0  0  0  0  0  0  0  0  0  0  0  0
   31.5500  -24.6265   37.3192 C   0  0  0  0  0  0  0  0  0  0  0  0
   30.0954  -24.9128   37.1190 C   0  0  0  0  0  0  0  0  0  0  0  0
   32.1732  -25.8751   37.9401 C   0  0  0  0  0  0  0  0  0  0  0  0
 33 34  1  0  0  0
 34 35  1  0  0  0
 34 36  1  0  0  0
 34 32  1  0  0  0
 32 24  1  0  0  0
 24 25  2  0  0  0
 24 26  1  0  0  0
 26 27  1  0  0  0
 27 28  1  0  0  0
 28 29  1  0  0  0
 29 23  1  0  0  0
 23  1  1  0  0  0
  1  2  1  0  0  0
  2  3  2  0  0  0
  2  5  1  0  0  0
  5  6  2  0  0  0
  6  7  1  0  0  0
  7  8  2  0  0  0
  8  9  1  0  0  0
  9 10  2  0  0  0
 10 11  1  0  0  0
 11 12  2  0  0  0
 12 13  1  0  0  0
 13 14  2  0  0  0
 14 15  1  0  0  0
 15 16  1  0  0  0
 16 17  2  0  0  0
 17 18  1  0  0  0
 18 19  2  0  0  0
  6 21  1  0  0  0
 21 22  3  0  0  0
 29 30  1  0  0  0
 30 31  1  0  0  0
 31 26  1  0  0  0
 10  5  1  0  0  0
 19 11  1  0  0  0
 18 14  1  0  0  0
  1  4  1  0  0  0
 15 20  1  0  0  0
M  END
> <minimizedAffinity>
-5.26597

> <CNNscore>
0.2436667234

> <CNNaffinity>
5.4863729477

> <CNN_VS>
1.3368464708

> <CNNaffinity_variance>
0.1944459677

$$$$
[H]c1c([H])c([C@]([H])(N([H])C(=O)N([H])c2nc3c(OC([H])([H])[H])c([H])c([H])c([H])c3s2)C([H])([H])[H])c([H])c(F)c1OC([H])([H])[H]


 28 30  0  0  0  0  0  0  0  0999 V2000
   32.0769  -12.3841   36.5317 N   0  0  0  0  0  0  0  0  0  0  0  0
   33.1673  -12.9303   37.2850 C   0  0  0  0  0  0  0  0  0  0  0  0
   33.2740  -12.7005   38.5307 O   0  0  0  0  0  0  0  0  0  0  0  0
   34.1147  -13.7238   36.6195 N   0  0  0  0  0  0  0  0  0  0  0  0
   32.0099  -12.5822   35.5261 H   0  0  0  0  0  0  0  0  0  0  0  0
   34.0592  -13.9325   35.6003 H   0  0  0  0  0  0  0  0  0  0  0  0
   27.8770  -11.4213   38.7979 C   0  0  0  0  0  0  0  0  0  0  0  0
   27.1755  -10.4360   39.4199 C   0  0  0  0  0  0  0  0  0  0  0  0
   27.6065   -9.1380   39.5998 C   0  0  0  0  0  0  0  0  0  0  0  0
   28.8680   -8.8502   39.0894 C   0  0  0  0  0  0  0  0  0  0  0  0
   29.6067   -9.8509   38.4453 C   0  0  0  0  0  0  0  0  0  0  0  0
   31.1519   -9.9355   37.6911 S   0  0  0  0  0  0  0  0  0  0  0  0
   31.1146  -11.5743   37.2248 C   0  0  0  0  0  0  0  0  0  0  0  0
   29.9427  -11.9720   37.6604 N   0  0  0  0  0  0  0  0  0  0  0  0
   29.1574  -11.1314   38.2791 C   0  0  0  0  0  0  0  0  0  0  0  0
   27.4133  -13.5653   39.7830 C   0  0  0  0  0  0  0  0  0  0  0  0
   27.3423  -12.6948   38.6742 O   0  0  0  0  0  0  0  0  0  0  0  0
   35.2170  -14.2795   37.3659 C   0  0  0  0  0  0  0  0  0  0  0  0
   36.4514  -13.4007   37.1572 C   0  0  0  0  0  0  0  0  0  0  0  0
   35.5574  -15.6086   36.7913 C   0  0  0  0  0  0  0  0  0  0  0  0
   36.6971  -16.2804   37.1447 C   0  0  0  0  0  0  0  0  0  0  0  0
   37.0277  -17.5280   36.6120 C   0  0  0  0  0  0  0  0  0  0  0  0
   36.1859  -18.1137   35.6983 C   0  0  0  0  0  0  0  0  0  0  0  0
   35.0403  -17.4564   35.3323 C   0  0  0  0  0  0  0  0  0  0  0  0
   34.1798  -17.9952   34.4345 F   0  0  0  0  0  0  0  0  0  0  0  0
   34.7072  -16.2071   35.8643 C   0  0  0  0  0  0  0  0  0  0  0  0
   36.4908  -19.3458   35.1579 O   0  0  0  0  0  0  0  0  0  0  0  0
   37.4021  -19.4397   34.0961 C   0  0  0  0  0  0  0  0  0  0  0  0
 16 17  1  0  0  0
 17  7  1  0  0  0
  7  8  2  0  0  0
  8  9  1  0  0  0
  9 10  2  0  0  0
 10 11  1  0  0  0
 11 12  1  0  0  0
 12 13  1  0  0  0
 13  1  1  0  0  0
  1  2  1  0  0  0
  2  3  2  0  0  0
  2  4  1  0  0  0
  4 18  1  0  0  0
 18 19  1  0  0  0
 18 20  1  0  0  0
 20 21  2  0  0  0
 21 22  1  0  0  0
 22 23  2  0  0  0
 23 27  1  0  0  0
 27 28  1  0  0  0
 23 24  1  0  0  0
 24 25  1  0  0  0
 24 26  2  0  0  0
 13 14  2  0  0  0
 14 15  1  0  0  0
 15  7  1  0  0  0
 15 11  2  0  0  0
 26 20  1  0  0  0
  1  5  1  0  0  0
  4  6  1  0  0  0
M  END
> <minimizedAffinity>
-8.60903

> <CNNscore>
0.6473659873

> <CNNaffinity>
6.2433805466

> <CNN_VS>
4.0417523384

> <CNNaffinity_variance>
0.2211580575

$$$$
[H]c1c([H])c([C@]([H])(N([H])C(=O)N([H])c2nc3c(OC([H])([H])[H])c([H])c([H])c([H])c3s2)C([H])([H])[H])c([H])c(F)c1OC([H])([H])[H]


 28 30  0  0  0  0  0  0  0  0999 V2000
   33.3542  -18.2053   34.5811 N   0  0  0  0  0  0  0  0  0  0  0  0
   33.1386  -19.4493   35.2600 C   0  0  0  0  0  0  0  0  0  0  0  0
   33.6594  -19.6646   36.3994 O   0  0  0  0  0  0  0  0  0  0  0  0
   32.3408  -20.4245   34.6414 N   0  0  0  0  0  0  0  0  0  0  0  0
   32.9240  -18.0522   33.6611 H   0  0  0  0  0  0  0  0  0  0  0  0
   31.8987  -20.2826   33.7087 H   0  0  0  0  0  0  0  0  0  0  0  0
   34.3128  -13.9735   36.7888 C   0  0  0  0  0  0  0  0  0  0  0  0
   35.3099  -13.2393   37.3513 C   0  0  0  0  0  0  0  0  0  0  0  0
   36.6298  -13.6273   37.4528 C   0  0  0  0  0  0  0  0  0  0  0  0
   36.9277  -14.8793   36.9251 C   0  0  0  0  0  0  0  0  0  0  0  0
   35.9150  -15.6512   36.3415 C   0  0  0  0  0  0  0  0  0  0  0  0
   35.8361  -17.1993   35.5925 S   0  0  0  0  0  0  0  0  0  0  0  0
   34.1720  -17.2162   35.2252 C   0  0  0  0  0  0  0  0  0  0  0  0
   33.7629  -16.0574   35.6848 N   0  0  0  0  0  0  0  0  0  0  0  0
   34.6129  -15.2442   36.2526 C   0  0  0  0  0  0  0  0  0  0  0  0
   32.7089  -12.3256   37.4920 C   0  0  0  0  0  0  0  0  0  0  0  0
   33.0173  -13.4809   36.7420 O   0  0  0  0  0  0  0  0  0  0  0  0
   32.1159  -21.6807   35.3138 C   0  0  0  0  0  0  0  0  0  0  0  0
   31.9182  -22.7769   34.2656 C   0  0  0  0  0  0  0  0  0  0  0  0
   30.8347  -21.5948   36.0645 C   0  0  0  0  0  0  0  0  0  0  0  0
   29.7964  -20.8101   35.6385 C   0  0  0  0  0  0  0  0  0  0  0  0
   28.5894  -20.7207   36.3345 C   0  0  0  0  0  0  0  0  0  0  0  0
   28.4252  -21.4426   37.4915 C   0  0  0  0  0  0  0  0  0  0  0  0
   29.4532  -22.2336   37.9337 C   0  0  0  0  0  0  0  0  0  0  0  0
   29.3369  -22.9636   39.0697 F   0  0  0  0  0  0  0  0  0  0  0  0
   30.6628  -22.3247   37.2384 C   0  0  0  0  0  0  0  0  0  0  0  0
   27.2418  -21.3708   38.1969 O   0  0  0  0  0  0  0  0  0  0  0  0
   27.0778  -20.3989   39.1943 C   0  0  0  0  0  0  0  0  0  0  0  0
 16 17  1  0  0  0
 17  7  1  0  0  0
  7  8  2  0  0  0
  8  9  1  0  0  0
  9 10  2  0  0  0
 10 11  1  0  0  0
 11 12  1  0  0  0
 12 13  1  0  0  0
 13  1  1  0  0  0
  1  2  1  0  0  0
  2  3  2  0  0  0
  2  4  1  0  0  0
  4 18  1  0  0  0
 18 19  1  0  0  0
 18 20  1  0  0  0
 20 21  2  0  0  0
 21 22  1  0  0  0
 22 23  2  0  0  0
 23 27  1  0  0  0
 27 28  1  0  0  0
 23 24  1  0  0  0
 24 25  1  0  0  0
 24 26  2  0  0  0
 13 14  2  0  0  0
 14 15  1  0  0  0
 15  7  1  0  0  0
 15 11  2  0  0  0
 26 20  1  0  0  0
  1  5  1  0  0  0
  4  6  1  0  0  0
M  END
> <minimizedAffinity>
-6.72061

> <CNNscore>
0.4587135911

> <CNNaffinity>
5.1668224335

> <CNN_VS>
2.3700916767

> <CNNaffinity_variance>
0.2488175929

$$$$
[H]c1c([H])c([C@]([H])(N([H])C(=O)N([H])c2nc3c(OC([H])([H])[H])c([H])c([H])c([H])c3s2)C([H])([H])[H])c([H])c(F)c1OC([H])([H])[H]


 28 30  0  0  0  0  0  0  0  0999 V2000
   37.7560  -18.4382   34.8098 N   0  0  0  0  0  0  0  0  0  0  0  0
   37.9697  -19.6166   35.5976 C   0  0  0  0  0  0  0  0  0  0  0  0
   37.3261  -19.7993   36.6784 O   0  0  0  0  0  0  0  0  0  0  0  0
   38.9040  -20.5644   35.1514 N   0  0  0  0  0  0  0  0  0  0  0  0
   38.2869  -18.3104   33.9399 H   0  0  0  0  0  0  0  0  0  0  0  0
   39.4494  -20.4475   34.2715 H   0  0  0  0  0  0  0  0  0  0  0  0
   36.1733  -14.6180   37.3794 C   0  0  0  0  0  0  0  0  0  0  0  0
   35.0749  -13.8592   37.6392 C   0  0  0  0  0  0  0  0  0  0  0  0
   33.8242  -14.0469   37.0885 C   0  0  0  0  0  0  0  0  0  0  0  0
   33.7158  -15.1100   36.1981 C   0  0  0  0  0  0  0  0  0  0  0  0
   34.8352  -15.9036   35.9169 C   0  0  0  0  0  0  0  0  0  0  0  0
   35.1447  -17.2697   34.9161 S   0  0  0  0  0  0  0  0  0  0  0  0
   36.7973  -17.4767   35.2775 C   0  0  0  0  0  0  0  0  0  0  0  0
   37.0298  -16.5082   36.1314 N   0  0  0  0  0  0  0  0  0  0  0  0
   36.0656  -15.6974   36.4762 C   0  0  0  0  0  0  0  0  0  0  0  0
   38.1861  -13.3048   37.4585 C   0  0  0  0  0  0  0  0  0  0  0  0
   37.3843  -14.3358   37.9935 O   0  0  0  0  0  0  0  0  0  0  0  0
   39.1287  -21.7546   35.9349 C   0  0  0  0  0  0  0  0  0  0  0  0
   40.2506  -21.4842   36.9387 C   0  0  0  0  0  0  0  0  0  0  0  0
   39.6323  -22.8270   35.0354 C   0  0  0  0  0  0  0  0  0  0  0  0
   40.9700  -23.0781   34.8855 C   0  0  0  0  0  0  0  0  0  0  0  0
   41.4548  -24.0813   34.0441 C   0  0  0  0  0  0  0  0  0  0  0  0
   40.5662  -24.8520   33.3349 C   0  0  0  0  0  0  0  0  0  0  0  0
   39.2233  -24.6155   33.4720 C   0  0  0  0  0  0  0  0  0  0  0  0
   38.3095  -25.3504   32.7925 F   0  0  0  0  0  0  0  0  0  0  0  0
   38.7355  -23.6116   34.3140 C   0  0  0  0  0  0  0  0  0  0  0  0
   41.0210  -25.8493   32.4972 O   0  0  0  0  0  0  0  0  0  0  0  0
   41.1398  -25.6089   31.1207 C   0  0  0  0  0  0  0  0  0  0  0  0
 16 17  1  0  0  0
 17  7  1  0  0  0
  7  8  2  0  0  0
  8  9  1  0  0  0
  9 10  2  0  0  0
 10 11  1  0  0  0
 11 12  1  0  0  0
 12 13  1  0  0  0
 13  1  1  0  0  0
  1  2  1  0  0  0
  2  3  2  0  0  0
  2  4  1  0  0  0
  4 18  1  0  0  0
 18 19  1  0  0  0
 18 20  1  0  0  0
 20 21  2  0  0  0
 21 22  1  0  0  0
 22 23  2  0  0  0
 23 27  1  0  0  0
 27 28  1  0  0  0
 23 24  1  0  0  0
 24 25  1  0  0  0
 24 26  2  0  0  0
 13 14  2  0  0  0
 14 15  1  0  0  0
 15  7  1  0  0  0
 15 11  2  0  0  0
 26 20  1  0  0  0
  1  5  1  0  0  0
  4  6  1  0  0  0
M  END
> <minimizedAffinity>
-5.22132

> <CNNscore>
0.4167164564

> <CNNaffinity>
4.7580900192

> <CNN_VS>
1.9827743769

> <CNNaffinity_variance>
0.1585493386

$$$$
[H]c1c([H])c([C@]([H])(N([H])C(=O)N([H])c2nc3c(OC([H])([H])[H])c([H])c([H])c([H])c3s2)C([H])([H])[H])c([H])c(F)c1OC([H])([H])[H]


 28 30  0  0  0  0  0  0  0  0999 V2000
   33.7543  -19.9607   34.3849 N   0  0  0  0  0  0  0  0  0  0  0  0
   34.5715  -19.4710   35.4561 C   0  0  0  0  0  0  0  0  0  0  0  0
   34.1934  -19.5852   36.6643 O   0  0  0  0  0  0  0  0  0  0  0  0
   35.7976  -18.8631   35.1439 N   0  0  0  0  0  0  0  0  0  0  0  0
   34.0790  -19.8580   33.4160 H   0  0  0  0  0  0  0  0  0  0  0  0
   36.1389  -18.7521   34.1658 H   0  0  0  0  0  0  0  0  0  0  0  0
   30.6758  -23.6599   35.1197 C   0  0  0  0  0  0  0  0  0  0  0  0
   29.3972  -23.9595   35.4734 C   0  0  0  0  0  0  0  0  0  0  0  0
   28.4180  -23.0406   35.7892 C   0  0  0  0  0  0  0  0  0  0  0  0
   28.8077  -21.7067   35.7301 C   0  0  0  0  0  0  0  0  0  0  0  0
   30.1200  -21.3769   35.3679 C   0  0  0  0  0  0  0  0  0  0  0  0
   31.0027  -19.9118   35.1731 S   0  0  0  0  0  0  0  0  0  0  0  0
   32.5027  -20.5807   34.7182 C   0  0  0  0  0  0  0  0  0  0  0  0
   32.2615  -21.8702   34.7367 N   0  0  0  0  0  0  0  0  0  0  0  0
   31.0734  -22.3068   35.0590 C   0  0  0  0  0  0  0  0  0  0  0  0
   32.2776  -25.2820   35.8845 C   0  0  0  0  0  0  0  0  0  0  0  0
   31.5783  -24.6699   34.8222 O   0  0  0  0  0  0  0  0  0  0  0  0
   36.6295  -18.3659   36.2124 C   0  0  0  0  0  0  0  0  0  0  0  0
   36.3343  -19.1633   37.4839 C   0  0  0  0  0  0  0  0  0  0  0  0
   36.2352  -16.9623   36.5072 C   0  0  0  0  0  0  0  0  0  0  0  0
   35.0997  -16.4035   35.9842 C   0  0  0  0  0  0  0  0  0  0  0  0
   34.7194  -15.0873   36.2532 C   0  0  0  0  0  0  0  0  0  0  0  0
   35.5057  -14.3139   37.0719 C   0  0  0  0  0  0  0  0  0  0  0  0
   36.6461  -14.8559   37.6048 C   0  0  0  0  0  0  0  0  0  0  0  0
   37.4527  -14.1311   38.4177 F   0  0  0  0  0  0  0  0  0  0  0  0
   37.0289  -16.1737   37.3369 C   0  0  0  0  0  0  0  0  0  0  0  0
   35.1509  -13.0107   37.3524 O   0  0  0  0  0  0  0  0  0  0  0  0
   35.1788  -12.0425   36.3384 C   0  0  0  0  0  0  0  0  0  0  0  0
 16 17  1  0  0  0
 17  7  1  0  0  0
  7  8  2  0  0  0
  8  9  1  0  0  0
  9 10  2  0  0  0
 10 11  1  0  0  0
 11 12  1  0  0  0
 12 13  1  0  0  0
 13  1  1  0  0  0
  1  2  1  0  0  0
  2  3  2  0  0  0
  2  4  1  0  0  0
  4 18  1  0  0  0
 18 19  1  0  0  0
 18 20  1  0  0  0
 20 21  2  0  0  0
 21 22  1  0  0  0
 22 23  2  0  0  0
 23 27  1  0  0  0
 27 28  1  0  0  0
 23 24  1  0  0  0
 24 25  1  0  0  0
 24 26  2  0  0  0
 13 14  2  0  0  0
 14 15  1  0  0  0
 15  7  1  0  0  0
 15 11  2  0  0  0
 26 20  1  0  0  0
  1  5  1  0  0  0
  4  6  1  0  0  0
M  END
> <minimizedAffinity>
-7.12215

> <CNNscore>
0.3785381913

> <CNNaffinity>
5.0451927185

> <CNN_VS>
1.9097981453

> <CNNaffinity_variance>
0.2741746604

$$$$
[H]c1c([H])c([C@]([H])(N([H])C(=O)N([H])c2nc3c(OC([H])([H])[H])c([H])c([H])c([H])c3s2)C([H])([H])[H])c([H])c(F)c1OC([H])([H])[H]


 28 30  0  0  0  0  0  0  0  0999 V2000
   35.8517  -21.0954   36.4750 N   0  0  0  0  0  0  0  0  0  0  0  0
   34.9224  -20.0087   36.5777 C   0  0  0  0  0  0  0  0  0  0  0  0
   34.1438  -19.9140   37.5779 O   0  0  0  0  0  0  0  0  0  0  0  0
   34.8899  -19.0515   35.5516 N   0  0  0  0  0  0  0  0  0  0  0  0
   36.4717  -21.1528   35.6582 H   0  0  0  0  0  0  0  0  0  0  0  0
   35.5126  -19.0976   34.7176 H   0  0  0  0  0  0  0  0  0  0  0  0
   36.9369  -22.8521   40.8839 C   0  0  0  0  0  0  0  0  0  0  0  0
   36.8026  -23.9425   41.6856 C   0  0  0  0  0  0  0  0  0  0  0  0
   36.1566  -25.1125   41.3438 C   0  0  0  0  0  0  0  0  0  0  0  0
   35.6099  -25.1426   40.0652 C   0  0  0  0  0  0  0  0  0  0  0  0
   35.7372  -24.0300   39.2238 C   0  0  0  0  0  0  0  0  0  0  0  0
   35.2348  -23.6443   37.6230 S   0  0  0  0  0  0  0  0  0  0  0  0
   35.8749  -22.0675   37.5318 C   0  0  0  0  0  0  0  0  0  0  0  0
   36.4327  -21.9135   38.7093 N   0  0  0  0  0  0  0  0  0  0  0  0
   36.3829  -22.8805   39.5859 C   0  0  0  0  0  0  0  0  0  0  0  0
   39.0205  -21.7280   41.3046 C   0  0  0  0  0  0  0  0  0  0  0  0
   37.6093  -21.7262   41.3346 O   0  0  0  0  0  0  0  0  0  0  0  0
   33.9594  -17.9530   35.6425 C   0  0  0  0  0  0  0  0  0  0  0  0
   33.3932  -17.6649   34.2511 C   0  0  0  0  0  0  0  0  0  0  0  0
   34.7059  -16.7303   36.0431 C   0  0  0  0  0  0  0  0  0  0  0  0
   35.9751  -16.7910   36.5537 C   0  0  0  0  0  0  0  0  0  0  0  0
   36.6857  -15.6508   36.9336 C   0  0  0  0  0  0  0  0  0  0  0  0
   36.1002  -14.4161   36.7946 C   0  0  0  0  0  0  0  0  0  0  0  0
   34.8305  -14.3353   36.2854 C   0  0  0  0  0  0  0  0  0  0  0  0
   34.2126  -13.1391   36.1301 F   0  0  0  0  0  0  0  0  0  0  0  0
   34.1170  -15.4757   35.9042 C   0  0  0  0  0  0  0  0  0  0  0  0
   36.7822  -13.2749   37.1630 O   0  0  0  0  0  0  0  0  0  0  0  0
   38.1291  -13.3553   37.5449 C   0  0  0  0  0  0  0  0  0  0  0  0
 16 17  1  0  0  0
 17  7  1  0  0  0
  7  8  2  0  0  0
  8  9  1  0  0  0
  9 10  2  0  0  0
 10 11  1  0  0  0
 11 12  1  0  0  0
 12 13  1  0  0  0
 13  1  1  0  0  0
  1  2  1  0  0  0
  2  3  2  0  0  0
  2  4  1  0  0  0
  4 18  1  0  0  0
 18 19  1  0  0  0
 18 20  1  0  0  0
 20 21  2  0  0  0
 21 22  1  0  0  0
 22 23  2  0  0  0
 23 27  1  0  0  0
 27 28  1  0  0  0
 23 24  1  0  0  0
 24 25  1  0  0  0
 24 26  2  0  0  0
 13 14  2  0  0  0
 14 15  1  0  0  0
 15  7  1  0  0  0
 15 11  2  0  0  0
 26 20  1  0  0  0
  1  5  1  0  0  0
  4  6  1  0  0  0
M  END
> <minimizedAffinity>
-5.46793

> <CNNscore>
0.3523113430

> <CNNaffinity>
4.8428850174

> <CNN_VS>
1.7062033415

> <CNNaffinity_variance>
0.1575482190

$$$$
[H]c1c([H])c([C@]([H])(N([H])C(=O)N([H])c2nc3c(OC([H])([H])[H])c([H])c([H])c([H])c3s2)C([H])([H])[H])c([H])c(F)c1OC([H])([H])[H]


 28 30  0  0  0  0  0  0  0  0999 V2000
   35.6668  -19.0856   35.8130 N   0  0  0  0  0  0  0  0  0  0  0  0
   37.0643  -19.3479   35.6302 C   0  0  0  0  0  0  0  0  0  0  0  0
   37.9032  -18.3937   35.5917 O   0  0  0  0  0  0  0  0  0  0  0  0
   37.4873  -20.6794   35.4946 N   0  0  0  0  0  0  0  0  0  0  0  0
   35.0061  -19.8715   35.8409 H   0  0  0  0  0  0  0  0  0  0  0  0
   36.8282  -21.4857   35.5208 H   0  0  0  0  0  0  0  0  0  0  0  0
   36.0977  -14.4031   37.0737 C   0  0  0  0  0  0  0  0  0  0  0  0
   35.4449  -13.2099   37.0726 C   0  0  0  0  0  0  0  0  0  0  0  0
   34.1728  -12.9941   36.5847 C   0  0  0  0  0  0  0  0  0  0  0  0
   33.5362  -14.1130   36.0579 C   0  0  0  0  0  0  0  0  0  0  0  0
   34.1912  -15.3511   36.0496 C   0  0  0  0  0  0  0  0  0  0  0  0
   33.7956  -16.9395   35.5165 S   0  0  0  0  0  0  0  0  0  0  0  0
   35.2476  -17.7191   35.9506 C   0  0  0  0  0  0  0  0  0  0  0  0
   35.9536  -16.7447   36.4734 N   0  0  0  0  0  0  0  0  0  0  0  0
   35.4534  -15.5398   36.5397 C   0  0  0  0  0  0  0  0  0  0  0  0
   38.2314  -13.3809   37.5030 C   0  0  0  0  0  0  0  0  0  0  0  0
   37.3798  -14.5029   37.5926 O   0  0  0  0  0  0  0  0  0  0  0  0
   38.8908  -20.9571   35.3100 C   0  0  0  0  0  0  0  0  0  0  0  0
   39.0504  -22.3883   34.7947 C   0  0  0  0  0  0  0  0  0  0  0  0
   39.5604  -20.9218   36.6378 C   0  0  0  0  0  0  0  0  0  0  0  0
   39.0887  -21.6364   37.7065 C   0  0  0  0  0  0  0  0  0  0  0  0
   39.7080  -21.6109   38.9575 C   0  0  0  0  0  0  0  0  0  0  0  0
   40.8336  -20.8441   39.1353 C   0  0  0  0  0  0  0  0  0  0  0  0
   41.3206  -20.1220   38.0773 C   0  0  0  0  0  0  0  0  0  0  0  0
   42.4281  -19.3514   38.2055 F   0  0  0  0  0  0  0  0  0  0  0  0
   40.7022  -20.1458   36.8236 C   0  0  0  0  0  0  0  0  0  0  0  0
   41.4633  -20.8028   40.3621 O   0  0  0  0  0  0  0  0  0  0  0  0
   40.7029  -20.7732   41.5400 C   0  0  0  0  0  0  0  0  0  0  0  0
 16 17  1  0  0  0
 17  7  1  0  0  0
  7  8  2  0  0  0
  8  9  1  0  0  0
  9 10  2  0  0  0
 10 11  1  0  0  0
 11 12  1  0  0  0
 12 13  1  0  0  0
 13  1  1  0  0  0
  1  2  1  0  0  0
  2  3  2  0  0  0
  2  4  1  0  0  0
  4 18  1  0  0  0
 18 19  1  0  0  0
 18 20  1  0  0  0
 20 21  2  0  0  0
 21 22  1  0  0  0
 22 23  2  0  0  0
 23 27  1  0  0  0
 27 28  1  0  0  0
 23 24  1  0  0  0
 24 25  1  0  0  0
 24 26  2  0  0  0
 13 14  2  0  0  0
 14 15  1  0  0  0
 15  7  1  0  0  0
 15 11  2  0  0  0
 26 20  1  0  0  0
  1  5  1  0  0  0
  4  6  1  0  0  0
M  END
> <minimizedAffinity>
-6.07166

> <CNNscore>
0.3095107675

> <CNNaffinity>
4.9325537682

> <CNN_VS>
1.5266784430

> <CNNaffinity_variance>
0.1853407174

$$$$
[H]c1c([H])c([C@]([H])(N([H])C(=O)N([H])c2nc3c(OC([H])([H])[H])c([H])c([H])c([H])c3s2)C([H])([H])[H])c([H])c(F)c1OC([H])([H])[H]


 28 30  0  0  0  0  0  0  0  0999 V2000
   33.5442  -14.8585   36.6545 N   0  0  0  0  0  0  0  0  0  0  0  0
   34.8531  -15.3072   36.2795 C   0  0  0  0  0  0  0  0  0  0  0  0
   35.8059  -14.4783   36.1354 O   0  0  0  0  0  0  0  0  0  0  0  0
   35.0612  -16.6802   36.0750 N   0  0  0  0  0  0  0  0  0  0  0  0
   32.7887  -15.5453   36.7654 H   0  0  0  0  0  0  0  0  0  0  0  0
   34.3040  -17.3875   36.1838 H   0  0  0  0  0  0  0  0  0  0  0  0
   30.9748  -10.7586   37.1929 C   0  0  0  0  0  0  0  0  0  0  0  0
   31.0907   -9.4193   37.3991 C   0  0  0  0  0  0  0  0  0  0  0  0
   32.2778   -8.7311   37.5410 C   0  0  0  0  0  0  0  0  0  0  0  0
   33.4310   -9.5046   37.4606 C   0  0  0  0  0  0  0  0  0  0  0  0
   33.3334  -10.8857   37.2486 C   0  0  0  0  0  0  0  0  0  0  0  0
   34.4570  -12.1802   37.0885 S   0  0  0  0  0  0  0  0  0  0  0  0
   33.3451  -13.4514   36.8609 C   0  0  0  0  0  0  0  0  0  0  0  0
   32.1876  -12.8364   36.9171 N   0  0  0  0  0  0  0  0  0  0  0  0
   32.1438  -11.5454   37.1109 C   0  0  0  0  0  0  0  0  0  0  0  0
   28.7375  -11.0428   38.0269 C   0  0  0  0  0  0  0  0  0  0  0  0
   29.7247  -11.3449   37.0644 O   0  0  0  0  0  0  0  0  0  0  0  0
   36.3735  -17.1450   35.6974 C   0  0  0  0  0  0  0  0  0  0  0  0
   36.3173  -17.6831   34.2667 C   0  0  0  0  0  0  0  0  0  0  0  0
   36.7326  -18.3039   36.5580 C   0  0  0  0  0  0  0  0  0  0  0  0
   35.8357  -18.8674   37.4258 C   0  0  0  0  0  0  0  0  0  0  0  0
   36.1610  -19.9548   38.2389 C   0  0  0  0  0  0  0  0  0  0  0  0
   37.4251  -20.4882   38.1748 C   0  0  0  0  0  0  0  0  0  0  0  0
   38.3366  -19.9376   37.3122 C   0  0  0  0  0  0  0  0  0  0  0  0
   39.5954  -20.4302   37.2147 F   0  0  0  0  0  0  0  0  0  0  0  0
   38.0131  -18.8487   36.4969 C   0  0  0  0  0  0  0  0  0  0  0  0
   37.7703  -21.5626   38.9683 O   0  0  0  0  0  0  0  0  0  0  0  0
   37.3933  -21.5869   40.3187 C   0  0  0  0  0  0  0  0  0  0  0  0
 16 17  1  0  0  0
 17  7  1  0  0  0
  7  8  2  0  0  0
  8  9  1  0  0  0
  9 10  2  0  0  0
 10 11  1  0  0  0
 11 12  1  0  0  0
 12 13  1  0  0  0
 13  1  1  0  0  0
  1  2  1  0  0  0
  2  3  2  0  0  0
  2  4  1  0  0  0
  4 18  1  0  0  0
 18 19  1  0  0  0
 18 20  1  0  0  0
 20 21  2  0  0  0
 21 22  1  0  0  0
 22 23  2  0  0  0
 23 27  1  0  0  0
 27 28  1  0  0  0
 23 24  1  0  0  0
 24 25  1  0  0  0
 24 26  2  0  0  0
 13 14  2  0  0  0
 14 15  1  0  0  0
 15  7  1  0  0  0
 15 11  2  0  0  0
 26 20  1  0  0  0
  1  5  1  0  0  0
  4  6  1  0  0  0
M  END
> <minimizedAffinity>
-7.56409

> <CNNscore>
0.3054948151

> <CNNaffinity>
5.4205217361

> <CNN_VS>
1.6559412479

> <CNNaffinity_variance>
0.1907006204

$$$$
[H]c1c([H])c([C@]([H])(N([H])C(=O)N([H])c2nc3c(OC([H])([H])[H])c([H])c([H])c([H])c3s2)C([H])([H])[H])c([H])c(F)c1OC([H])([H])[H]


 28 30  0  0  0  0  0  0  0  0999 V2000
   30.9665  -12.6301   37.8167 N   0  0  0  0  0  0  0  0  0  0  0  0
   32.3730  -12.7083   38.0821 C   0  0  0  0  0  0  0  0  0  0  0  0
   32.8105  -12.6737   39.2751 O   0  0  0  0  0  0  0  0  0  0  0  0
   33.2573  -12.8241   36.9982 N   0  0  0  0  0  0  0  0  0  0  0  0
   30.6346  -12.6598   36.8451 H   0  0  0  0  0  0  0  0  0  0  0  0
   32.9345  -12.8550   36.0081 H   0  0  0  0  0  0  0  0  0  0  0  0
   27.9773  -10.3418   40.9037 C   0  0  0  0  0  0  0  0  0  0  0  0
   27.1858  -10.5283   41.9938 C   0  0  0  0  0  0  0  0  0  0  0  0
   26.9975  -11.7267   42.6505 C   0  0  0  0  0  0  0  0  0  0  0  0
   27.6910  -12.8121   42.1254 C   0  0  0  0  0  0  0  0  0  0  0  0
   28.5114  -12.6411   41.0030 C   0  0  0  0  0  0  0  0  0  0  0  0
   29.5157  -13.6691   40.0552 S   0  0  0  0  0  0  0  0  0  0  0  0
   30.0729  -12.5123   38.9346 C   0  0  0  0  0  0  0  0  0  0  0  0
   29.4749  -11.4140   39.3315 N   0  0  0  0  0  0  0  0  0  0  0  0
   28.6820  -11.4418   40.3692 C   0  0  0  0  0  0  0  0  0  0  0  0
   27.0223   -8.1777   40.4713 C   0  0  0  0  0  0  0  0  0  0  0  0
   28.0914   -9.0873   40.3237 O   0  0  0  0  0  0  0  0  0  0  0  0
   34.6752  -12.9036   37.2514 C   0  0  0  0  0  0  0  0  0  0  0  0
   35.4121  -12.0394   36.2269 C   0  0  0  0  0  0  0  0  0  0  0  0
   35.1233  -14.3009   37.0079 C   0  0  0  0  0  0  0  0  0  0  0  0
   36.2968  -14.7854   37.5211 C   0  0  0  0  0  0  0  0  0  0  0  0
   36.7283  -16.0945   37.2991 C   0  0  0  0  0  0  0  0  0  0  0  0
   35.9551  -16.9378   36.5391 C   0  0  0  0  0  0  0  0  0  0  0  0
   34.7772  -16.4709   36.0170 C   0  0  0  0  0  0  0  0  0  0  0  0
   33.9816  -17.2664   35.2613 F   0  0  0  0  0  0  0  0  0  0  0  0
   34.3430  -15.1603   36.2379 C   0  0  0  0  0  0  0  0  0  0  0  0
   36.3602  -18.2357   36.3058 O   0  0  0  0  0  0  0  0  0  0  0  0
   37.7038  -18.5943   36.4867 C   0  0  0  0  0  0  0  0  0  0  0  0
 16 17  1  0  0  0
 17  7  1  0  0  0
  7  8  2  0  0  0
  8  9  1  0  0  0
  9 10  2  0  0  0
 10 11  1  0  0  0
 11 12  1  0  0  0
 12 13  1  0  0  0
 13  1  1  0  0  0
  1  2  1  0  0  0
  2  3  2  0  0  0
  2  4  1  0  0  0
  4 18  1  0  0  0
 18 19  1  0  0  0
 18 20  1  0  0  0
 20 21  2  0  0  0
 21 22  1  0  0  0
 22 23  2  0  0  0
 23 27  1  0  0  0
 27 28  1  0  0  0
 23 24  1  0  0  0
 24 25  1  0  0  0
 24 26  2  0  0  0
 13 14  2  0  0  0
 14 15  1  0  0  0
 15  7  1  0  0  0
 15 11  2  0  0  0
 26 20  1  0  0  0
  1  5  1  0  0  0
  4  6  1  0  0  0
M  END
> <minimizedAffinity>
-7.78640

> <CNNscore>
0.2859468460

> <CNNaffinity>
5.5764021873

> <CNN_VS>
1.5945546627

> <CNNaffinity_variance>
0.2705656290

$$$$
[H]c1c([H])c([C@]([H])(N([H])C(=O)N([H])c2nc3c(OC([H])([H])[H])c([H])c([H])c([H])c3s2)C([H])([H])[H])c([H])c(F)c1OC([H])([H])[H]


 28 30  0  0  0  0  0  0  0  0999 V2000
   35.7883  -18.5332   34.9126 N   0  0  0  0  0  0  0  0  0  0  0  0
   36.9927  -19.0409   35.5012 C   0  0  0  0  0  0  0  0  0  0  0  0
   37.6126  -18.3731   36.3875 O   0  0  0  0  0  0  0  0  0  0  0  0
   37.4736  -20.2903   35.0792 N   0  0  0  0  0  0  0  0  0  0  0  0
   35.3034  -19.0891   34.1980 H   0  0  0  0  0  0  0  0  0  0  0  0
   36.9921  -20.8645   34.3554 H   0  0  0  0  0  0  0  0  0  0  0  0
   36.1529  -13.9771   36.5892 C   0  0  0  0  0  0  0  0  0  0  0  0
   35.4237  -12.8868   36.9486 C   0  0  0  0  0  0  0  0  0  0  0  0
   34.0477  -12.7964   36.9112 C   0  0  0  0  0  0  0  0  0  0  0  0
   33.3853  -13.9345   36.4633 C   0  0  0  0  0  0  0  0  0  0  0  0
   34.1178  -15.0680   36.0883 C   0  0  0  0  0  0  0  0  0  0  0  0
   33.7253  -16.6365   35.4974 S   0  0  0  0  0  0  0  0  0  0  0  0
   35.3072  -17.2540   35.3535 C   0  0  0  0  0  0  0  0  0  0  0  0
   36.0475  -16.2489   35.7571 N   0  0  0  0  0  0  0  0  0  0  0  0
   35.4827  -15.1332   36.1344 C   0  0  0  0  0  0  0  0  0  0  0  0
   38.1365  -13.4394   37.8375 C   0  0  0  0  0  0  0  0  0  0  0  0
   37.5372  -13.9547   36.6681 O   0  0  0  0  0  0  0  0  0  0  0  0
   38.6846  -20.8128   35.6634 C   0  0  0  0  0  0  0  0  0  0  0  0
   39.4774  -21.5529   34.5849 C   0  0  0  0  0  0  0  0  0  0  0  0
   38.3187  -21.8362   36.6789 C   0  0  0  0  0  0  0  0  0  0  0  0
   38.1407  -21.5164   37.9985 C   0  0  0  0  0  0  0  0  0  0  0  0
   37.7978  -22.4680   38.9609 C   0  0  0  0  0  0  0  0  0  0  0  0
   37.6297  -23.7775   38.5820 C   0  0  0  0  0  0  0  0  0  0  0  0
   37.8035  -24.1167   37.2656 C   0  0  0  0  0  0  0  0  0  0  0  0
   37.6483  -25.3958   36.8453 F   0  0  0  0  0  0  0  0  0  0  0  0
   38.1469  -23.1656   36.3001 C   0  0  0  0  0  0  0  0  0  0  0  0
   37.2908  -24.7359   39.5145 O   0  0  0  0  0  0  0  0  0  0  0  0
   36.8526  -24.3498   40.7895 C   0  0  0  0  0  0  0  0  0  0  0  0
 16 17  1  0  0  0
 17  7  1  0  0  0
  7  8  2  0  0  0
  8  9  1  0  0  0
  9 10  2  0  0  0
 10 11  1  0  0  0
 11 12  1  0  0  0
 12 13  1  0  0  0
 13  1  1  0  0  0
  1  2  1  0  0  0
  2  3  2  0  0  0
  2  4  1  0  0  0
  4 18  1  0  0  0
 18 19  1  0  0  0
 18 20  1  0  0  0
 20 21  2  0  0  0
 21 22  1  0  0  0
 22 23  2  0  0  0
 23 27  1  0  0  0
 27 28  1  0  0  0
 23 24  1  0  0  0
 24 25  1  0  0  0
 24 26  2  0  0  0
 13 14  2  0  0  0
 14 15  1  0  0  0
 15  7  1  0  0  0
 15 11  2  0  0  0
 26 20  1  0  0  0
  1  5  1  0  0  0
  4  6  1  0  0  0
M  END
> <minimizedAffinity>
-5.48755

> <CNNscore>
0.2685271800

> <CNNaffinity>
4.9684610367

> <CNN_VS>
1.3341668844

> <CNNaffinity_variance>
0.1438680440

$$$$
[H]c1c([H])c(-c2nc3c(N([H])[H])nc(O[C@]([H])(c4c([H])c([H])c(C(C([H])([H])[H])(C([H])([H])[H])C([H])([H])[H])c([H])c4[H])C([H])([H])[H])nc3s2)c([H])c([H])c1C#N


 33 36  0  0  0  0  0  0  0  0999 V2000
   38.0785  -22.2949   36.5695 C   0  0  0  0  0  0  0  0  0  0  0  0
   38.1554  -23.2387   37.5050 N   0  0  0  0  0  0  0  0  0  0  0  0
   37.5550  -23.2048   38.6848 C   0  0  0  0  0  0  0  0  0  0  0  0
   37.7372  -24.2849   39.5845 N   0  0  0  0  0  0  0  0  0  0  0  0
   36.7574  -22.0924   39.0149 C   0  0  0  0  0  0  0  0  0  0  0  0
   36.0848  -21.9165   40.1123 N   0  0  0  0  0  0  0  0  0  0  0  0
   35.3570  -20.8476   40.2898 C   0  0  0  0  0  0  0  0  0  0  0  0
   35.6256  -20.0007   38.8064 S   0  0  0  0  0  0  0  0  0  0  0  0
   36.6773  -21.1220   38.0563 C   0  0  0  0  0  0  0  0  0  0  0  0
   37.3278  -21.2175   36.8507 N   0  0  0  0  0  0  0  0  0  0  0  0
   38.4970  -24.9718   39.4366 H   0  0  0  0  0  0  0  0  0  0  0  0
   37.0883  -24.3679   40.3950 H   0  0  0  0  0  0  0  0  0  0  0  0
   34.4956  -20.4394   41.4100 C   0  0  0  0  0  0  0  0  0  0  0  0
   33.5237  -21.2748   41.8438 C   0  0  0  0  0  0  0  0  0  0  0  0
   32.6827  -20.8854   42.8982 C   0  0  0  0  0  0  0  0  0  0  0  0
   32.8230  -19.6609   43.5107 C   0  0  0  0  0  0  0  0  0  0  0  0
   33.8184  -18.8243   43.0575 C   0  0  0  0  0  0  0  0  0  0  0  0
   34.6529  -19.2103   42.0099 C   0  0  0  0  0  0  0  0  0  0  0  0
   31.9819  -19.2154   44.5880 C   0  0  0  0  0  0  0  0  0  0  0  0
   31.2950  -18.8648   45.4630 N   0  0  0  0  0  0  0  0  0  0  0  0
   38.7383  -22.4354   35.3683 O   0  0  0  0  0  0  0  0  0  0  0  0
   40.5163  -23.3305   34.0453 C   0  0  0  0  0  0  0  0  0  0  0  0
   40.0957  -22.7876   35.4191 C   0  0  0  0  0  0  0  0  0  0  0  0
   40.9202  -21.6661   35.8283 C   0  0  0  0  0  0  0  0  0  0  0  0
   41.5817  -21.6790   37.0350 C   0  0  0  0  0  0  0  0  0  0  0  0
   42.3654  -20.5763   37.3574 C   0  0  0  0  0  0  0  0  0  0  0  0
   42.4909  -19.4914   36.5107 C   0  0  0  0  0  0  0  0  0  0  0  0
   41.7963  -19.5290   35.2954 C   0  0  0  0  0  0  0  0  0  0  0  0
   41.0216  -20.5866   34.9438 C   0  0  0  0  0  0  0  0  0  0  0  0
   43.3421  -18.3302   36.8687 C   0  0  0  0  0  0  0  0  0  0  0  0
   44.6590  -18.4443   36.1635 C   0  0  0  0  0  0  0  0  0  0  0  0
   42.6710  -17.0126   36.5114 C   0  0  0  0  0  0  0  0  0  0  0  0
   43.5337  -18.3406   38.3715 C   0  0  0  0  0  0  0  0  0  0  0  0
 22 23  1  0  0  0
 23 21  1  0  0  0
 21  1  1  0  0  0
  1  2  2  0  0  0
  2  3  1  0  0  0
  3  4  1  0  0  0
  3  5  2  0  0  0
  5  6  1  0  0  0
  6  7  2  0  0  0
  7  8  1  0  0  0
  8  9  1  0  0  0
  9 10  2  0  0  0
  7 13  1  0  0  0
 13 14  2  0  0  0
 14 15  1  0  0  0
 15 16  2  0  0  0
 16 17  1  0  0  0
 17 18  2  0  0  0
 16 19  1  0  0  0
 19 20  3  0  0  0
 23 24  1  0  0  0
 24 25  2  0  0  0
 25 26  1  0  0  0
 26 27  2  0  0  0
 27 28  1  0  0  0
 28 29  2  0  0  0
 27 30  1  0  0  0
 30 31  1  0  0  0
 30 32  1  0  0  0
 30 33  1  0  0  0
 10  1  1  0  0  0
 18 13  1  0  0  0
 29 24  1  0  0  0
  9  5  1  0  0  0
  4 11  1  0  0  0
  4 12  1  0  0  0
M  END
> <minimizedAffinity>
-3.94064

> <CNNscore>
0.5115112066

> <CNNaffinity>
5.7352147102

> <CNN_VS>
2.9336266518

> <CNNaffinity_variance>
0.8976828456

$$$$
[H]c1c([H])c(-c2nc3c(N([H])[H])nc(O[C@]([H])(c4c([H])c([H])c(C(C([H])([H])[H])(C([H])([H])[H])C([H])([H])[H])c([H])c4[H])C([H])([H])[H])nc3s2)c([H])c([H])c1C#N


 33 36  0  0  0  0  0  0  0  0999 V2000
   34.7565  -22.6142   36.8470 C   0  0  0  0  0  0  0  0  0  0  0  0
   33.6068  -22.1789   36.3362 N   0  0  0  0  0  0  0  0  0  0  0  0
   33.2912  -20.9113   36.1191 C   0  0  0  0  0  0  0  0  0  0  0  0
   32.0203  -20.5989   35.5746 N   0  0  0  0  0  0  0  0  0  0  0  0
   34.2253  -19.9085   36.4421 C   0  0  0  0  0  0  0  0  0  0  0  0
   34.0831  -18.6289   36.2692 N   0  0  0  0  0  0  0  0  0  0  0  0
   35.0385  -17.7981   36.5865 C   0  0  0  0  0  0  0  0  0  0  0  0
   36.2482  -18.8798   37.1834 S   0  0  0  0  0  0  0  0  0  0  0  0
   35.4060  -20.3529   36.9670 C   0  0  0  0  0  0  0  0  0  0  0  0
   35.6710  -21.6850   37.1691 N   0  0  0  0  0  0  0  0  0  0  0  0
   31.2642  -21.3053   35.5616 H   0  0  0  0  0  0  0  0  0  0  0  0
   31.8691  -19.6430   35.1895 H   0  0  0  0  0  0  0  0  0  0  0  0
   35.1297  -16.3355   36.4598 C   0  0  0  0  0  0  0  0  0  0  0  0
   34.0383  -15.6283   36.0868 C   0  0  0  0  0  0  0  0  0  0  0  0
   34.1209  -14.2344   35.9424 C   0  0  0  0  0  0  0  0  0  0  0  0
   35.2978  -13.5595   36.1740 C   0  0  0  0  0  0  0  0  0  0  0  0
   36.3980  -14.2949   36.5545 C   0  0  0  0  0  0  0  0  0  0  0  0
   36.3164  -15.6791   36.6970 C   0  0  0  0  0  0  0  0  0  0  0  0
   35.4329  -12.1353   36.0322 C   0  0  0  0  0  0  0  0  0  0  0  0
   35.5330  -10.9783   35.9237 N   0  0  0  0  0  0  0  0  0  0  0  0
   34.9862  -23.9611   37.0231 O   0  0  0  0  0  0  0  0  0  0  0  0
   33.5995  -25.9072   37.0722 C   0  0  0  0  0  0  0  0  0  0  0  0
   34.0839  -24.6652   37.8350 C   0  0  0  0  0  0  0  0  0  0  0  0
   34.6801  -25.0171   39.1100 C   0  0  0  0  0  0  0  0  0  0  0  0
   35.7095  -24.2718   39.6380 C   0  0  0  0  0  0  0  0  0  0  0  0
   36.2248  -24.6582   40.8706 C   0  0  0  0  0  0  0  0  0  0  0  0
   35.7364  -25.7510   41.5611 C   0  0  0  0  0  0  0  0  0  0  0  0
   34.6887  -26.4751   40.9789 C   0  0  0  0  0  0  0  0  0  0  0  0
   34.1582  -26.1302   39.7780 C   0  0  0  0  0  0  0  0  0  0  0  0
   36.2923  -26.1388   42.8808 C   0  0  0  0  0  0  0  0  0  0  0  0
   35.3064  -27.0095   43.5980 C   0  0  0  0  0  0  0  0  0  0  0  0
   37.6218  -26.8641   42.7371 C   0  0  0  0  0  0  0  0  0  0  0  0
   36.5587  -24.8694   43.6637 C   0  0  0  0  0  0  0  0  0  0  0  0
 22 23  1  0  0  0
 23 21  1  0  0  0
 21  1  1  0  0  0
  1  2  2  0  0  0
  2  3  1  0  0  0
  3  4  1  0  0  0
  3  5  2  0  0  0
  5  6  1  0  0  0
  6  7  2  0  0  0
  7  8  1  0  0  0
  8  9  1  0  0  0
  9 10  2  0  0  0
  7 13  1  0  0  0
 13 14  2  0  0  0
 14 15  1  0  0  0
 15 16  2  0  0  0
 16 17  1  0  0  0
 17 18  2  0  0  0
 16 19  1  0  0  0
 19 20  3  0  0  0
 23 24  1  0  0  0
 24 25  2  0  0  0
 25 26  1  0  0  0
 26 27  2  0  0  0
 27 28  1  0  0  0
 28 29  2  0  0  0
 27 30  1  0  0  0
 30 31  1  0  0  0
 30 32  1  0  0  0
 30 33  1  0  0  0
 10  1  1  0  0  0
 18 13  1  0  0  0
 29 24  1  0  0  0
  9  5  1  0  0  0
  4 11  1  0  0  0
  4 12  1  0  0  0
M  END
> <minimizedAffinity>
-4.29661

> <CNNscore>
0.4289401770

> <CNNaffinity>
5.4681587219

> <CNN_VS>
2.3455128670

> <CNNaffinity_variance>
0.4279093146

$$$$
[H]c1c([H])c(-c2nc3c(N([H])[H])nc(O[C@]([H])(c4c([H])c([H])c(C(C([H])([H])[H])(C([H])([H])[H])C([H])([H])[H])c([H])c4[H])C([H])([H])[H])nc3s2)c([H])c([H])c1C#N


 33 36  0  0  0  0  0  0  0  0999 V2000
   39.5697  -24.3464   37.0343 C   0  0  0  0  0  0  0  0  0  0  0  0
   38.3005  -24.6083   36.7300 N   0  0  0  0  0  0  0  0  0  0  0  0
   37.3455  -23.7057   36.5660 C   0  0  0  0  0  0  0  0  0  0  0  0
   36.0330  -24.1376   36.2499 N   0  0  0  0  0  0  0  0  0  0  0  0
   37.6600  -22.3416   36.7171 C   0  0  0  0  0  0  0  0  0  0  0  0
   36.8514  -21.3361   36.5664 N   0  0  0  0  0  0  0  0  0  0  0  0
   37.2721  -20.1087   36.7090 C   0  0  0  0  0  0  0  0  0  0  0  0
   38.9396  -20.3610   37.0904 S   0  0  0  0  0  0  0  0  0  0  0  0
   38.9621  -22.0703   37.0301 C   0  0  0  0  0  0  0  0  0  0  0  0
   39.9057  -23.0554   37.1884 N   0  0  0  0  0  0  0  0  0  0  0  0
   35.7604  -25.1285   36.3718 H   0  0  0  0  0  0  0  0  0  0  0  0
   35.3534  -23.4335   35.8931 H   0  0  0  0  0  0  0  0  0  0  0  0
   36.5721  -18.8235   36.5624 C   0  0  0  0  0  0  0  0  0  0  0  0
   37.2206  -17.6727   36.8552 C   0  0  0  0  0  0  0  0  0  0  0  0
   36.5543  -16.4426   36.7389 C   0  0  0  0  0  0  0  0  0  0  0  0
   35.2423  -16.3753   36.3290 C   0  0  0  0  0  0  0  0  0  0  0  0
   34.5983  -17.5561   36.0337 C   0  0  0  0  0  0  0  0  0  0  0  0
   35.2594  -18.7778   36.1500 C   0  0  0  0  0  0  0  0  0  0  0  0
   34.5164  -15.1409   36.2022 C   0  0  0  0  0  0  0  0  0  0  0  0
   33.9270  -14.1386   36.1110 N   0  0  0  0  0  0  0  0  0  0  0  0
   40.4874  -25.3645   37.1732 O   0  0  0  0  0  0  0  0  0  0  0  0
   42.5827  -26.4412   36.7693 C   0  0  0  0  0  0  0  0  0  0  0  0
   41.6110  -25.3345   36.3331 C   0  0  0  0  0  0  0  0  0  0  0  0
   41.2348  -25.4698   34.9384 C   0  0  0  0  0  0  0  0  0  0  0  0
   40.5996  -26.6033   34.4850 C   0  0  0  0  0  0  0  0  0  0  0  0
   40.2558  -26.6601   33.1386 C   0  0  0  0  0  0  0  0  0  0  0  0
   40.5328  -25.6255   32.2653 C   0  0  0  0  0  0  0  0  0  0  0  0
   41.1811  -24.4952   32.7783 C   0  0  0  0  0  0  0  0  0  0  0  0
   41.5329  -24.4010   34.0859 C   0  0  0  0  0  0  0  0  0  0  0  0
   40.1463  -25.7014   30.8350 C   0  0  0  0  0  0  0  0  0  0  0  0
   38.6540  -25.6365   30.7203 C   0  0  0  0  0  0  0  0  0  0  0  0
   40.7816  -24.5826   30.0232 C   0  0  0  0  0  0  0  0  0  0  0  0
   40.6724  -27.0094   30.2805 C   0  0  0  0  0  0  0  0  0  0  0  0
 22 23  1  0  0  0
 23 21  1  0  0  0
 21  1  1  0  0  0
  1  2  2  0  0  0
  2  3  1  0  0  0
  3  4  1  0  0  0
  3  5  2  0  0  0
  5  6  1  0  0  0
  6  7  2  0  0  0
  7  8  1  0  0  0
  8  9  1  0  0  0
  9 10  2  0  0  0
  7 13  1  0  0  0
 13 14  2  0  0  0
 14 15  1  0  0  0
 15 16  2  0  0  0
 16 17  1  0  0  0
 17 18  2  0  0  0
 16 19  1  0  0  0
 19 20  3  0  0  0
 23 24  1  0  0  0
 24 25  2  0  0  0
 25 26  1  0  0  0
 26 27  2  0  0  0
 27 28  1  0  0  0
 28 29  2  0  0  0
 27 30  1  0  0  0
 30 31  1  0  0  0
 30 32  1  0  0  0
 30 33  1  0  0  0
 10  1  1  0  0  0
 18 13  1  0  0  0
 29 24  1  0  0  0
  9  5  1  0  0  0
  4 11  1  0  0  0
  4 12  1  0  0  0
M  END
> <minimizedAffinity>
-4.18947

> <CNNscore>
0.4012553394

> <CNNaffinity>
5.3982925415

> <CNN_VS>
2.1660935879

> <CNNaffinity_variance>
0.2221252173

$$$$
[H]c1c([H])c(-c2nc3c(N([H])[H])nc(O[C@]([H])(c4c([H])c([H])c(C(C([H])([H])[H])(C([H])([H])[H])C([H])([H])[H])c([H])c4[H])C([H])([H])[H])nc3s2)c([H])c([H])c1C#N


 33 36  0  0  0  0  0  0  0  0999 V2000
   38.3480  -22.0099   36.2126 C   0  0  0  0  0  0  0  0  0  0  0  0
   37.7666  -21.9670   37.4094 N   0  0  0  0  0  0  0  0  0  0  0  0
   37.1533  -20.9155   37.9307 C   0  0  0  0  0  0  0  0  0  0  0  0
   36.5855  -21.0180   39.2254 N   0  0  0  0  0  0  0  0  0  0  0  0
   37.0887  -19.7222   37.1861 C   0  0  0  0  0  0  0  0  0  0  0  0
   36.5065  -18.6160   37.5394 N   0  0  0  0  0  0  0  0  0  0  0  0
   36.4927  -17.5807   36.7446 C   0  0  0  0  0  0  0  0  0  0  0  0
   37.3676  -18.1848   35.3810 S   0  0  0  0  0  0  0  0  0  0  0  0
   37.6853  -19.7636   35.9575 C   0  0  0  0  0  0  0  0  0  0  0  0
   38.3078  -20.8885   35.4749 N   0  0  0  0  0  0  0  0  0  0  0  0
   36.8371  -21.8033   39.8508 H   0  0  0  0  0  0  0  0  0  0  0  0
   35.9111  -20.2845   39.5288 H   0  0  0  0  0  0  0  0  0  0  0  0
   35.8843  -16.2506   36.8997 C   0  0  0  0  0  0  0  0  0  0  0  0
   34.7191  -15.9719   36.2710 C   0  0  0  0  0  0  0  0  0  0  0  0
   34.1416  -14.6984   36.3957 C   0  0  0  0  0  0  0  0  0  0  0  0
   34.7366  -13.7137   37.1509 C   0  0  0  0  0  0  0  0  0  0  0  0
   35.9211  -14.0153   37.7850 C   0  0  0  0  0  0  0  0  0  0  0  0
   36.4952  -15.2794   37.6606 C   0  0  0  0  0  0  0  0  0  0  0  0
   34.1876  -12.3937   37.3021 C   0  0  0  0  0  0  0  0  0  0  0  0
   33.7517  -11.3182   37.4198 N   0  0  0  0  0  0  0  0  0  0  0  0
   38.9522  -23.1629   35.7617 O   0  0  0  0  0  0  0  0  0  0  0  0
   40.9534  -21.8569   35.8128 C   0  0  0  0  0  0  0  0  0  0  0  0
   40.3430  -23.2624   35.9193 C   0  0  0  0  0  0  0  0  0  0  0  0
   40.6907  -23.9047   37.1729 C   0  0  0  0  0  0  0  0  0  0  0  0
   40.6047  -25.2710   37.3141 C   0  0  0  0  0  0  0  0  0  0  0  0
   40.9664  -25.8210   38.5392 C   0  0  0  0  0  0  0  0  0  0  0  0
   41.4002  -25.0419   39.5949 C   0  0  0  0  0  0  0  0  0  0  0  0
   41.4687  -23.6571   39.3983 C   0  0  0  0  0  0  0  0  0  0  0  0
   41.1250  -23.0818   38.2179 C   0  0  0  0  0  0  0  0  0  0  0  0
   41.7931  -25.6502   40.8898 C   0  0  0  0  0  0  0  0  0  0  0  0
   40.5723  -25.8483   41.7354 C   0  0  0  0  0  0  0  0  0  0  0  0
   42.5111  -26.9764   40.6905 C   0  0  0  0  0  0  0  0  0  0  0  0
   42.7700  -24.7108   41.5667 C   0  0  0  0  0  0  0  0  0  0  0  0
 22 23  1  0  0  0
 23 21  1  0  0  0
 21  1  1  0  0  0
  1  2  2  0  0  0
  2  3  1  0  0  0
  3  4  1  0  0  0
  3  5  2  0  0  0
  5  6  1  0  0  0
  6  7  2  0  0  0
  7  8  1  0  0  0
  8  9  1  0  0  0
  9 10  2  0  0  0
  7 13  1  0  0  0
 13 14  2  0  0  0
 14 15  1  0  0  0
 15 16  2  0  0  0
 16 17  1  0  0  0
 17 18  2  0  0  0
 16 19  1  0  0  0
 19 20  3  0  0  0
 23 24  1  0  0  0
 24 25  2  0  0  0
 25 26  1  0  0  0
 26 27  2  0  0  0
 27 28  1  0  0  0
 28 29  2  0  0  0
 27 30  1  0  0  0
 30 31  1  0  0  0
 30 32  1  0  0  0
 30 33  1  0  0  0
 10  1  1  0  0  0
 18 13  1  0  0  0
 29 24  1  0  0  0
  9  5  1  0  0  0
  4 11  1  0  0  0
  4 12  1  0  0  0
M  END
> <minimizedAffinity>
-4.95043

> <CNNscore>
0.3665030599

> <CNNaffinity>
5.4040765762

> <CNN_VS>
1.9806106091

> <CNNaffinity_variance>
0.2048603296

$$$$
[H]c1c([H])c(-c2nc3c(N([H])[H])nc(O[C@]([H])(c4c([H])c([H])c(C(C([H])([H])[H])(C([H])([H])[H])C([H])([H])[H])c([H])c4[H])C([H])([H])[H])nc3s2)c([H])c([H])c1C#N


 33 36  0  0  0  0  0  0  0  0999 V2000
   37.9738  -21.1549   36.2494 C   0  0  0  0  0  0  0  0  0  0  0  0
   38.9941  -20.3036   36.3289 N   0  0  0  0  0  0  0  0  0  0  0  0
   38.8929  -18.9875   36.4342 C   0  0  0  0  0  0  0  0  0  0  0  0
   40.0738  -18.2065   36.5016 N   0  0  0  0  0  0  0  0  0  0  0  0
   37.6136  -18.4001   36.4694 C   0  0  0  0  0  0  0  0  0  0  0  0
   37.3418  -17.1360   36.5942 N   0  0  0  0  0  0  0  0  0  0  0  0
   36.1068  -16.7160   36.6405 C   0  0  0  0  0  0  0  0  0  0  0  0
   35.2346  -18.2019   36.4949 S   0  0  0  0  0  0  0  0  0  0  0  0
   36.5647  -19.2721   36.3874 C   0  0  0  0  0  0  0  0  0  0  0  0
   36.7382  -20.6298   36.2778 N   0  0  0  0  0  0  0  0  0  0  0  0
   40.9897  -18.6121   36.2414 H   0  0  0  0  0  0  0  0  0  0  0  0
   39.9950  -17.2175   36.8187 H   0  0  0  0  0  0  0  0  0  0  0  0
   35.5507  -15.3644   36.8057 C   0  0  0  0  0  0  0  0  0  0  0  0
   36.3519  -14.3601   37.2302 C   0  0  0  0  0  0  0  0  0  0  0  0
   35.8255  -13.0714   37.4114 C   0  0  0  0  0  0  0  0  0  0  0  0
   34.4992  -12.7989   37.1648 C   0  0  0  0  0  0  0  0  0  0  0  0
   33.6989  -13.8325   36.7318 C   0  0  0  0  0  0  0  0  0  0  0  0
   34.2211  -15.1124   36.5528 C   0  0  0  0  0  0  0  0  0  0  0  0
   33.9135  -11.4982   37.3429 C   0  0  0  0  0  0  0  0  0  0  0  0
   33.4319  -10.4445   37.4776 N   0  0  0  0  0  0  0  0  0  0  0  0
   38.1919  -22.5117   36.1516 O   0  0  0  0  0  0  0  0  0  0  0  0
   37.5588  -24.7500   36.7012 C   0  0  0  0  0  0  0  0  0  0  0  0
   37.7388  -23.3124   37.2112 C   0  0  0  0  0  0  0  0  0  0  0  0
   38.6426  -23.2544   38.3446 C   0  0  0  0  0  0  0  0  0  0  0  0
   38.2118  -22.7963   39.5687 C   0  0  0  0  0  0  0  0  0  0  0  0
   39.1280  -22.7804   40.6149 C   0  0  0  0  0  0  0  0  0  0  0  0
   40.4333  -23.2051   40.4550 C   0  0  0  0  0  0  0  0  0  0  0  0
   40.8200  -23.6611   39.1888 C   0  0  0  0  0  0  0  0  0  0  0  0
   39.9560  -23.6926   38.1423 C   0  0  0  0  0  0  0  0  0  0  0  0
   41.3913  -23.1914   41.5876 C   0  0  0  0  0  0  0  0  0  0  0  0
   42.7067  -22.6490   41.1183 C   0  0  0  0  0  0  0  0  0  0  0  0
   40.8702  -22.3624   42.7519 C   0  0  0  0  0  0  0  0  0  0  0  0
   41.5426  -24.6143   42.0852 C   0  0  0  0  0  0  0  0  0  0  0  0
 22 23  1  0  0  0
 23 21  1  0  0  0
 21  1  1  0  0  0
  1  2  2  0  0  0
  2  3  1  0  0  0
  3  4  1  0  0  0
  3  5  2  0  0  0
  5  6  1  0  0  0
  6  7  2  0  0  0
  7  8  1  0  0  0
  8  9  1  0  0  0
  9 10  2  0  0  0
  7 13  1  0  0  0
 13 14  2  0  0  0
 14 15  1  0  0  0
 15 16  2  0  0  0
 16 17  1  0  0  0
 17 18  2  0  0  0
 16 19  1  0  0  0
 19 20  3  0  0  0
 23 24  1  0  0  0
 24 25  2  0  0  0
 25 26  1  0  0  0
 26 27  2  0  0  0
 27 28  1  0  0  0
 28 29  2  0  0  0
 27 30  1  0  0  0
 30 31  1  0  0  0
 30 32  1  0  0  0
 30 33  1  0  0  0
 10  1  1  0  0  0
 18 13  1  0  0  0
 29 24  1  0  0  0
  9  5  1  0  0  0
  4 11  1  0  0  0
  4 12  1  0  0  0
M  END
> <minimizedAffinity>
-5.27309

> <CNNscore>
0.3318754435

> <CNNaffinity>
5.7252845764

> <CNN_VS>
1.9000813961

> <CNNaffinity_variance>
0.1493263692

$$$$
[H]c1c([H])c(-c2nc3c(N([H])[H])nc(O[C@]([H])(c4c([H])c([H])c(C(C([H])([H])[H])(C([H])([H])[H])C([H])([H])[H])c([H])c4[H])C([H])([H])[H])nc3s2)c([H])c([H])c1C#N


 33 36  0  0  0  0  0  0  0  0999 V2000
   38.2410  -22.6437   36.2833 C   0  0  0  0  0  0  0  0  0  0  0  0
   37.3485  -22.6463   37.2710 N   0  0  0  0  0  0  0  0  0  0  0  0
   36.6805  -21.5899   37.7084 C   0  0  0  0  0  0  0  0  0  0  0  0
   35.7641  -21.7459   38.7784 N   0  0  0  0  0  0  0  0  0  0  0  0
   36.9049  -20.3391   37.1020 C   0  0  0  0  0  0  0  0  0  0  0  0
   36.3175  -19.2176   37.3931 N   0  0  0  0  0  0  0  0  0  0  0  0
   36.5949  -18.1241   36.7364 C   0  0  0  0  0  0  0  0  0  0  0  0
   37.7800  -18.6914   35.6125 S   0  0  0  0  0  0  0  0  0  0  0  0
   37.8211  -20.3339   36.0882 C   0  0  0  0  0  0  0  0  0  0  0  0
   38.4823  -21.4670   35.6828 N   0  0  0  0  0  0  0  0  0  0  0  0
   35.7781  -22.5988   39.3645 H   0  0  0  0  0  0  0  0  0  0  0  0
   35.0791  -20.9821   38.9579 H   0  0  0  0  0  0  0  0  0  0  0  0
   36.0527  -16.7618   36.8540 C   0  0  0  0  0  0  0  0  0  0  0  0
   34.9547  -16.4165   36.1428 C   0  0  0  0  0  0  0  0  0  0  0  0
   34.4424  -15.1125   36.2319 C   0  0  0  0  0  0  0  0  0  0  0  0
   35.0348  -14.1642   37.0344 C   0  0  0  0  0  0  0  0  0  0  0  0
   36.1503  -14.5336   37.7522 C   0  0  0  0  0  0  0  0  0  0  0  0
   36.6597  -15.8280   37.6632 C   0  0  0  0  0  0  0  0  0  0  0  0
   34.5514  -12.8155   37.1523 C   0  0  0  0  0  0  0  0  0  0  0  0
   34.1695  -11.7172   37.2437 N   0  0  0  0  0  0  0  0  0  0  0  0
   38.8740  -23.8058   35.9003 O   0  0  0  0  0  0  0  0  0  0  0  0
   39.3301  -26.0932   36.4227 C   0  0  0  0  0  0  0  0  0  0  0  0
   39.3559  -24.6403   36.9204 C   0  0  0  0  0  0  0  0  0  0  0  0
   40.6841  -24.2431   37.3482 C   0  0  0  0  0  0  0  0  0  0  0  0
   40.9063  -23.7829   38.6260 C   0  0  0  0  0  0  0  0  0  0  0  0
   42.2067  -23.4323   38.9726 C   0  0  0  0  0  0  0  0  0  0  0  0
   43.2574  -23.5334   38.0807 C   0  0  0  0  0  0  0  0  0  0  0  0
   42.9765  -24.0070   36.7932 C   0  0  0  0  0  0  0  0  0  0  0  0
   41.7211  -24.3598   36.4162 C   0  0  0  0  0  0  0  0  0  0  0  0
   44.6396  -23.1655   38.4748 C   0  0  0  0  0  0  0  0  0  0  0  0
   44.9077  -21.7462   38.0772 C   0  0  0  0  0  0  0  0  0  0  0  0
   44.8607  -23.3397   39.9698 C   0  0  0  0  0  0  0  0  0  0  0  0
   45.5907  -24.1107   37.7698 C   0  0  0  0  0  0  0  0  0  0  0  0
 22 23  1  0  0  0
 23 21  1  0  0  0
 21  1  1  0  0  0
  1  2  2  0  0  0
  2  3  1  0  0  0
  3  4  1  0  0  0
  3  5  2  0  0  0
  5  6  1  0  0  0
  6  7  2  0  0  0
  7  8  1  0  0  0
  8  9  1  0  0  0
  9 10  2  0  0  0
  7 13  1  0  0  0
 13 14  2  0  0  0
 14 15  1  0  0  0
 15 16  2  0  0  0
 16 17  1  0  0  0
 17 18  2  0  0  0
 16 19  1  0  0  0
 19 20  3  0  0  0
 23 24  1  0  0  0
 24 25  2  0  0  0
 25 26  1  0  0  0
 26 27  2  0  0  0
 27 28  1  0  0  0
 28 29  2  0  0  0
 27 30  1  0  0  0
 30 31  1  0  0  0
 30 32  1  0  0  0
 30 33  1  0  0  0
 10  1  1  0  0  0
 18 13  1  0  0  0
 29 24  1  0  0  0
  9  5  1  0  0  0
  4 11  1  0  0  0
  4 12  1  0  0  0
M  END
> <minimizedAffinity>
-4.83045

> <CNNscore>
0.3318291903

> <CNNaffinity>
5.3204402924

> <CNN_VS>
1.7654774189

> <CNNaffinity_variance>
0.0951491147

$$$$
[H]c1c([H])c(-c2nc3c(N([H])[H])nc(O[C@]([H])(c4c([H])c([H])c(C(C([H])([H])[H])(C([H])([H])[H])C([H])([H])[H])c([H])c4[H])C([H])([H])[H])nc3s2)c([H])c([H])c1C#N


 33 36  0  0  0  0  0  0  0  0999 V2000
   31.4337  -22.0208   34.9110 C   0  0  0  0  0  0  0  0  0  0  0  0
   30.6761  -20.9270   34.8717 N   0  0  0  0  0  0  0  0  0  0  0  0
   31.0852  -19.6964   35.1393 C   0  0  0  0  0  0  0  0  0  0  0  0
   30.1575  -18.6275   35.0629 N   0  0  0  0  0  0  0  0  0  0  0  0
   32.4301  -19.4855   35.4991 C   0  0  0  0  0  0  0  0  0  0  0  0
   32.9938  -18.3460   35.7662 N   0  0  0  0  0  0  0  0  0  0  0  0
   34.2631  -18.2779   36.0630 C   0  0  0  0  0  0  0  0  0  0  0  0
   34.7259  -19.9412   35.9694 S   0  0  0  0  0  0  0  0  0  0  0  0
   33.2097  -20.6069   35.5407 C   0  0  0  0  0  0  0  0  0  0  0  0
   32.7221  -21.8579   35.2528 N   0  0  0  0  0  0  0  0  0  0  0  0
   29.1400  -18.8137   35.0315 H   0  0  0  0  0  0  0  0  0  0  0  0
   30.5263  -17.6536   35.0393 H   0  0  0  0  0  0  0  0  0  0  0  0
   35.1242  -17.1251   36.3678 C   0  0  0  0  0  0  0  0  0  0  0  0
   36.1864  -17.2842   37.1906 C   0  0  0  0  0  0  0  0  0  0  0  0
   37.0017  -16.1853   37.5045 C   0  0  0  0  0  0  0  0  0  0  0  0
   36.7462  -14.9346   36.9903 C   0  0  0  0  0  0  0  0  0  0  0  0
   35.6622  -14.7914   36.1534 C   0  0  0  0  0  0  0  0  0  0  0  0
   34.8519  -15.8821   35.8423 C   0  0  0  0  0  0  0  0  0  0  0  0
   37.5475  -13.7789   37.2885 C   0  0  0  0  0  0  0  0  0  0  0  0
   38.2046  -12.8479   37.5372 N   0  0  0  0  0  0  0  0  0  0  0  0
   30.9072  -23.2563   34.6039 O   0  0  0  0  0  0  0  0  0  0  0  0
   32.0316  -24.4396   36.3499 C   0  0  0  0  0  0  0  0  0  0  0  0
   30.6871  -24.1429   35.6692 C   0  0  0  0  0  0  0  0  0  0  0  0
   29.7155  -23.6140   36.6079 C   0  0  0  0  0  0  0  0  0  0  0  0
   30.0450  -23.4172   37.9296 C   0  0  0  0  0  0  0  0  0  0  0  0
   29.0688  -22.8945   38.7710 C   0  0  0  0  0  0  0  0  0  0  0  0
   27.8026  -22.5758   38.3183 C   0  0  0  0  0  0  0  0  0  0  0  0
   27.5195  -22.7960   36.9648 C   0  0  0  0  0  0  0  0  0  0  0  0
   28.4447  -23.3042   36.1113 C   0  0  0  0  0  0  0  0  0  0  0  0
   26.7797  -22.0076   39.2303 C   0  0  0  0  0  0  0  0  0  0  0  0
   25.7765  -23.0666   39.5719 C   0  0  0  0  0  0  0  0  0  0  0  0
   27.4075  -21.4539   40.5006 C   0  0  0  0  0  0  0  0  0  0  0  0
   26.1158  -20.8470   38.5180 C   0  0  0  0  0  0  0  0  0  0  0  0
 22 23  1  0  0  0
 23 21  1  0  0  0
 21  1  1  0  0  0
  1  2  2  0  0  0
  2  3  1  0  0  0
  3  4  1  0  0  0
  3  5  2  0  0  0
  5  6  1  0  0  0
  6  7  2  0  0  0
  7  8  1  0  0  0
  8  9  1  0  0  0
  9 10  2  0  0  0
  7 13  1  0  0  0
 13 14  2  0  0  0
 14 15  1  0  0  0
 15 16  2  0  0  0
 16 17  1  0  0  0
 17 18  2  0  0  0
 16 19  1  0  0  0
 19 20  3  0  0  0
 23 24  1  0  0  0
 24 25  2  0  0  0
 25 26  1  0  0  0
 26 27  2  0  0  0
 27 28  1  0  0  0
 28 29  2  0  0  0
 27 30  1  0  0  0
 30 31  1  0  0  0
 30 32  1  0  0  0
 30 33  1  0  0  0
 10  1  1  0  0  0
 18 13  1  0  0  0
 29 24  1  0  0  0
  9  5  1  0  0  0
  4 11  1  0  0  0
  4 12  1  0  0  0
M  END
> <minimizedAffinity>
-6.30627

> <CNNscore>
0.2795237303

> <CNNaffinity>
5.2832722664

> <CNN_VS>
1.4767999649

> <CNNaffinity_variance>
0.2630574107

$$$$
[H]c1c([H])c(-c2nc3c(N([H])[H])nc(O[C@]([H])(c4c([H])c([H])c(C(C([H])([H])[H])(C([H])([H])[H])C([H])([H])[H])c([H])c4[H])C([H])([H])[H])nc3s2)c([H])c([H])c1C#N


 33 36  0  0  0  0  0  0  0  0999 V2000
   31.4554  -22.1874   35.0771 C   0  0  0  0  0  0  0  0  0  0  0  0
   30.7147  -21.0925   34.9209 N   0  0  0  0  0  0  0  0  0  0  0  0
   31.1231  -19.8499   35.1277 C   0  0  0  0  0  0  0  0  0  0  0  0
   30.2143  -18.7810   34.9266 N   0  0  0  0  0  0  0  0  0  0  0  0
   32.4481  -19.6263   35.5487 C   0  0  0  0  0  0  0  0  0  0  0  0
   33.0097  -18.4760   35.7700 N   0  0  0  0  0  0  0  0  0  0  0  0
   34.2610  -18.3985   36.1335 C   0  0  0  0  0  0  0  0  0  0  0  0
   34.7080  -20.0682   36.1789 S   0  0  0  0  0  0  0  0  0  0  0  0
   33.2103  -20.7488   35.7103 C   0  0  0  0  0  0  0  0  0  0  0  0
   32.7245  -22.0124   35.4801 N   0  0  0  0  0  0  0  0  0  0  0  0
   29.1980  -18.9603   34.8498 H   0  0  0  0  0  0  0  0  0  0  0  0
   30.5958  -17.8141   34.8584 H   0  0  0  0  0  0  0  0  0  0  0  0
   35.1176  -17.2349   36.4085 C   0  0  0  0  0  0  0  0  0  0  0  0
   36.2921  -17.4089   37.0572 C   0  0  0  0  0  0  0  0  0  0  0  0
   37.1065  -16.3018   37.3432 C   0  0  0  0  0  0  0  0  0  0  0  0
   36.7374  -15.0279   36.9756 C   0  0  0  0  0  0  0  0  0  0  0  0
   35.5398  -14.8697   36.3147 C   0  0  0  0  0  0  0  0  0  0  0  0
   34.7305  -15.9686   36.0316 C   0  0  0  0  0  0  0  0  0  0  0  0
   37.5338  -13.8636   37.2528 C   0  0  0  0  0  0  0  0  0  0  0  0
   38.1706  -12.9122   37.4760 N   0  0  0  0  0  0  0  0  0  0  0  0
   30.9320  -23.4364   34.8245 O   0  0  0  0  0  0  0  0  0  0  0  0
   29.1895  -25.0706   34.9034 C   0  0  0  0  0  0  0  0  0  0  0  0
   29.7886  -23.8110   35.5466 C   0  0  0  0  0  0  0  0  0  0  0  0
   30.0912  -24.0175   36.9504 C   0  0  0  0  0  0  0  0  0  0  0  0
   29.4984  -23.2439   37.9220 C   0  0  0  0  0  0  0  0  0  0  0  0
   29.8243  -23.5054   39.2485 C   0  0  0  0  0  0  0  0  0  0  0  0
   30.7117  -24.5033   39.6040 C   0  0  0  0  0  0  0  0  0  0  0  0
   31.2869  -25.2608   38.5763 C   0  0  0  0  0  0  0  0  0  0  0  0
   30.9948  -25.0371   37.2698 C   0  0  0  0  0  0  0  0  0  0  0  0
   31.0361  -24.7738   41.0262 C   0  0  0  0  0  0  0  0  0  0  0  0
   30.8181  -23.5287   41.8303 C   0  0  0  0  0  0  0  0  0  0  0  0
   30.1949  -25.9109   41.5860 C   0  0  0  0  0  0  0  0  0  0  0  0
   32.4843  -25.2132   41.0967 C   0  0  0  0  0  0  0  0  0  0  0  0
 22 23  1  0  0  0
 23 21  1  0  0  0
 21  1  1  0  0  0
  1  2  2  0  0  0
  2  3  1  0  0  0
  3  4  1  0  0  0
  3  5  2  0  0  0
  5  6  1  0  0  0
  6  7  2  0  0  0
  7  8  1  0  0  0
  8  9  1  0  0  0
  9 10  2  0  0  0
  7 13  1  0  0  0
 13 14  2  0  0  0
 14 15  1  0  0  0
 15 16  2  0  0  0
 16 17  1  0  0  0
 17 18  2  0  0  0
 16 19  1  0  0  0
 19 20  3  0  0  0
 23 24  1  0  0  0
 24 25  2  0  0  0
 25 26  1  0  0  0
 26 27  2  0  0  0
 27 28  1  0  0  0
 28 29  2  0  0  0
 27 30  1  0  0  0
 30 31  1  0  0  0
 30 32  1  0  0  0
 30 33  1  0  0  0
 10  1  1  0  0  0
 18 13  1  0  0  0
 29 24  1  0  0  0
  9  5  1  0  0  0
  4 11  1  0  0  0
  4 12  1  0  0  0
M  END
> <minimizedAffinity>
-5.66871

> <CNNscore>
0.2629252672

> <CNNaffinity>
5.2461285591

> <CNN_VS>
1.3793396950

> <CNNaffinity_variance>
0.1329061091

$$$$
[H]c1c([H])c(-c2nc3c(N([H])[H])nc(O[C@]([H])(c4c([H])c([H])c(C(C([H])([H])[H])(C([H])([H])[H])C([H])([H])[H])c([H])c4[H])C([H])([H])[H])nc3s2)c([H])c([H])c1C#N


 33 36  0  0  0  0  0  0  0  0999 V2000
   34.1563  -14.3156   37.4898 C   0  0  0  0  0  0  0  0  0  0  0  0
   33.4862  -15.0302   36.5886 N   0  0  0  0  0  0  0  0  0  0  0  0
   33.9756  -16.0430   35.8898 C   0  0  0  0  0  0  0  0  0  0  0  0
   33.1404  -16.7064   34.9563 N   0  0  0  0  0  0  0  0  0  0  0  0
   35.3152  -16.4281   36.0895 C   0  0  0  0  0  0  0  0  0  0  0  0
   35.9370  -17.4091   35.5076 N   0  0  0  0  0  0  0  0  0  0  0  0
   37.1793  -17.6839   35.7991 C   0  0  0  0  0  0  0  0  0  0  0  0
   37.5277  -16.4750   36.9852 S   0  0  0  0  0  0  0  0  0  0  0  0
   36.0053  -15.6956   37.0138 C   0  0  0  0  0  0  0  0  0  0  0  0
   35.4382  -14.6533   37.7049 N   0  0  0  0  0  0  0  0  0  0  0  0
   32.2502  -16.2782   34.6479 H   0  0  0  0  0  0  0  0  0  0  0  0
   33.4459  -17.6328   34.5909 H   0  0  0  0  0  0  0  0  0  0  0  0
   38.0760  -18.7422   35.3098 C   0  0  0  0  0  0  0  0  0  0  0  0
   38.3401  -18.8342   33.9860 C   0  0  0  0  0  0  0  0  0  0  0  0
   39.1776  -19.8539   33.5068 C   0  0  0  0  0  0  0  0  0  0  0  0
   39.7448  -20.7737   34.3590 C   0  0  0  0  0  0  0  0  0  0  0  0
   39.4665  -20.6640   35.7031 C   0  0  0  0  0  0  0  0  0  0  0  0
   38.6341  -19.6522   36.1790 C   0  0  0  0  0  0  0  0  0  0  0  0
   40.6020  -21.8389   33.9147 C   0  0  0  0  0  0  0  0  0  0  0  0
   41.2943  -22.7009   33.5431 N   0  0  0  0  0  0  0  0  0  0  0  0
   33.5459  -13.2844   38.1694 O   0  0  0  0  0  0  0  0  0  0  0  0
   32.8919  -12.7460   35.9343 C   0  0  0  0  0  0  0  0  0  0  0  0
   32.9219  -12.2899   37.4007 C   0  0  0  0  0  0  0  0  0  0  0  0
   31.5917  -11.9916   37.8972 C   0  0  0  0  0  0  0  0  0  0  0  0
   30.8354  -10.9899   37.3328 C   0  0  0  0  0  0  0  0  0  0  0  0
   29.5636  -10.7671   37.8498 C   0  0  0  0  0  0  0  0  0  0  0  0
   29.0545  -11.5135   38.8955 C   0  0  0  0  0  0  0  0  0  0  0  0
   29.8657  -12.5201   39.4336 C   0  0  0  0  0  0  0  0  0  0  0  0
   31.1121  -12.7690   38.9571 C   0  0  0  0  0  0  0  0  0  0  0  0
   27.6903  -11.2674   39.4239 C   0  0  0  0  0  0  0  0  0  0  0  0
   27.4470   -9.7911   39.5013 C   0  0  0  0  0  0  0  0  0  0  0  0
   26.6271  -11.9271   38.5586 C   0  0  0  0  0  0  0  0  0  0  0  0
   27.6033  -11.8999   40.7978 C   0  0  0  0  0  0  0  0  0  0  0  0
 22 23  1  0  0  0
 23 21  1  0  0  0
 21  1  1  0  0  0
  1  2  2  0  0  0
  2  3  1  0  0  0
  3  4  1  0  0  0
  3  5  2  0  0  0
  5  6  1  0  0  0
  6  7  2  0  0  0
  7  8  1  0  0  0
  8  9  1  0  0  0
  9 10  2  0  0  0
  7 13  1  0  0  0
 13 14  2  0  0  0
 14 15  1  0  0  0
 15 16  2  0  0  0
 16 17  1  0  0  0
 17 18  2  0  0  0
 16 19  1  0  0  0
 19 20  3  0  0  0
 23 24  1  0  0  0
 24 25  2  0  0  0
 25 26  1  0  0  0
 26 27  2  0  0  0
 27 28  1  0  0  0
 28 29  2  0  0  0
 27 30  1  0  0  0
 30 31  1  0  0  0
 30 32  1  0  0  0
 30 33  1  0  0  0
 10  1  1  0  0  0
 18 13  1  0  0  0
 29 24  1  0  0  0
  9  5  1  0  0  0
  4 11  1  0  0  0
  4 12  1  0  0  0
M  END
> <minimizedAffinity>
-7.02315

> <CNNscore>
0.2523979247

> <CNNaffinity>
5.7952222824

> <CNN_VS>
1.4627020359

> <CNNaffinity_variance>
0.5914526582

$$$$
[H]Oc1c([H])c([H])c(C([H])([H])[C@@]([H])(C(=O)N([H])[C@]([H])(C(=O)N([H])[C@]([H])(C(=O)N([H])[C@]([H])(C(=O)N([H])[C@]([H])(C(=O)N([H])[C@]([H])(C(=O)N([H])[C@]([H])(C(=O)N([H])[C@]([H])(C(=O)N([H])[H])C([H])([H])c2c([H])n([H])c3c([H])c([H])c([H])c([H])c23)C([H])([H])O[H])C([H])([H])O[H])C([H])([H])C([H])(C([H])([H])[H])C([H])([H])[H])C([H])([H])S[H])C([H])([H])C([H])(C([H])([H])[H])C([H])([H])[H])C([H])([H])[H])N([H])[H])c([H])c1[H]


 82 84  0  0  0  0  0  0  0  0999 V2000
   26.2801  -10.9805   41.1670 C   0  0  0  0  0  0  0  0  0  0  0  0
   25.3183  -11.7998   41.9508 C   0  0  0  0  0  0  0  0  0  0  0  0
   24.1472  -11.2665   42.1360 O   0  0  0  0  0  0  0  0  0  0  0  0
   25.4893  -13.0467   42.5065 N   0  0  0  0  0  0  0  0  0  0  0  0
   26.3669  -13.5922   42.4018 H   0  0  0  0  0  0  0  0  0  0  0  0
   24.4260  -13.7352   43.2661 C   0  0  0  0  0  0  0  0  0  0  0  0
   24.3589  -13.2544   44.6364 C   0  0  0  0  0  0  0  0  0  0  0  0
   23.1437  -13.0591   45.0681 O   0  0  0  0  0  0  0  0  0  0  0  0
   25.3531  -12.9699   45.5636 N   0  0  0  0  0  0  0  0  0  0  0  0
   26.3564  -13.0578   45.3360 H   0  0  0  0  0  0  0  0  0  0  0  0
   25.0185  -12.5198   46.8968 C   0  0  0  0  0  0  0  0  0  0  0  0
   25.4128  -11.0633   47.0405 C   0  0  0  0  0  0  0  0  0  0  0  0
   26.1361  -10.5274   46.2007 O   0  0  0  0  0  0  0  0  0  0  0  0
   24.9038  -10.4021   48.1689 N   0  0  0  0  0  0  0  0  0  0  0  0
   24.2774  -10.8880   48.8705 H   0  0  0  0  0  0  0  0  0  0  0  0
   25.2128   -9.0039   48.4321 C   0  0  0  0  0  0  0  0  0  0  0  0
   26.0856   -8.8949   49.6351 C   0  0  0  0  0  0  0  0  0  0  0  0
   26.3329   -7.6872   50.3317 N   0  0  0  0  0  0  0  0  0  0  0  0
   26.6597   -9.9264   50.0839 O   0  0  0  0  0  0  0  0  0  0  0  0
   26.2457   -7.7230   51.3691 H   0  0  0  0  0  0  0  0  0  0  0  0
   26.5880   -6.7844   49.8856 H   0  0  0  0  0  0  0  0  0  0  0  0
   23.9550   -8.2268   48.4805 C   0  0  0  0  0  0  0  0  0  0  0  0
   24.0596   -6.9353   47.7539 C   0  0  0  0  0  0  0  0  0  0  0  0
   24.1071   -5.6470   48.2546 C   0  0  0  0  0  0  0  0  0  0  0  0
   24.1609   -4.7802   47.2259 N   0  0  0  0  0  0  0  0  0  0  0  0
   24.1517   -5.4564   46.0670 C   0  0  0  0  0  0  0  0  0  0  0  0
   24.1870   -4.9976   44.7589 C   0  0  0  0  0  0  0  0  0  0  0  0
   24.1570   -5.9729   43.7634 C   0  0  0  0  0  0  0  0  0  0  0  0
   24.0952   -7.3131   44.0765 C   0  0  0  0  0  0  0  0  0  0  0  0
   24.0603   -7.7519   45.3710 C   0  0  0  0  0  0  0  0  0  0  0  0
   24.0892   -6.7863   46.3624 C   0  0  0  0  0  0  0  0  0  0  0  0
   24.2016   -3.7316   47.3285 H   0  0  0  0  0  0  0  0  0  0  0  0
   25.7557  -13.3344   47.9413 C   0  0  0  0  0  0  0  0  0  0  0  0
   26.7856  -12.5992   48.4776 O   0  0  0  0  0  0  0  0  0  0  0  0
   26.7860  -12.6804   49.4534 H   0  0  0  0  0  0  0  0  0  0  0  0
   24.5264  -15.1956   43.1369 C   0  0  0  0  0  0  0  0  0  0  0  0
   23.7332  -15.6895   42.1061 O   0  0  0  0  0  0  0  0  0  0  0  0
   23.9871  -15.2630   41.2261 H   0  0  0  0  0  0  0  0  0  0  0  0
   26.9643  -11.9375   40.2155 N   0  0  0  0  0  0  0  0  0  0  0  0
   28.3172  -12.2525   40.3657 C   0  0  0  0  0  0  0  0  0  0  0  0
   28.9076  -11.6537   41.3473 O   0  0  0  0  0  0  0  0  0  0  0  0
   26.4019  -12.3341   39.4528 H   0  0  0  0  0  0  0  0  0  0  0  0
   29.1363  -13.1530   39.5805 C   0  0  0  0  0  0  0  0  0  0  0  0
   30.4359  -12.5342   39.2234 N   0  0  0  0  0  0  0  0  0  0  0  0
   30.5624  -11.7561   38.0244 C   0  0  0  0  0  0  0  0  0  0  0  0
   29.5390  -11.6250   37.2897 O   0  0  0  0  0  0  0  0  0  0  0  0
   31.2302  -12.6760   39.8448 H   0  0  0  0  0  0  0  0  0  0  0  0
   31.8705  -11.1656   37.7148 C   0  0  0  0  0  0  0  0  0  0  0  0
   32.6724  -12.0762   36.8933 N   0  0  0  0  0  0  0  0  0  0  0  0
   33.4771  -13.0309   37.5389 C   0  0  0  0  0  0  0  0  0  0  0  0
   33.5126  -13.0738   38.8204 O   0  0  0  0  0  0  0  0  0  0  0  0
   32.6211  -11.9961   35.8773 H   0  0  0  0  0  0  0  0  0  0  0  0
   34.3191  -14.0298   36.8638 C   0  0  0  0  0  0  0  0  0  0  0  0
   35.1444  -13.2269   35.8281 C   0  0  0  0  0  0  0  0  0  0  0  0
   33.4612  -14.9687   36.1450 N   0  0  0  0  0  0  0  0  0  0  0  0
   33.8744  -16.2924   35.8939 C   0  0  0  0  0  0  0  0  0  0  0  0
   35.0525  -16.5810   36.3377 O   0  0  0  0  0  0  0  0  0  0  0  0
   32.5395  -14.6400   35.8262 H   0  0  0  0  0  0  0  0  0  0  0  0
   33.1577  -17.3584   35.2137 C   0  0  0  0  0  0  0  0  0  0  0  0
   33.4528  -17.3226   33.7937 N   0  0  0  0  0  0  0  0  0  0  0  0
   34.3839  -16.8622   33.6727 H   0  0  0  0  0  0  0  0  0  0  0  0
   32.7452  -16.6996   33.3428 H   0  0  0  0  0  0  0  0  0  0  0  0
   33.4344  -18.7512   35.7723 C   0  0  0  0  0  0  0  0  0  0  0  0
   32.1266  -19.4980   35.7194 C   0  0  0  0  0  0  0  0  0  0  0  0
   32.0333  -20.7193   36.3982 C   0  0  0  0  0  0  0  0  0  0  0  0
   30.8943  -21.4751   36.4288 C   0  0  0  0  0  0  0  0  0  0  0  0
   29.7613  -20.9973   35.7409 C   0  0  0  0  0  0  0  0  0  0  0  0
   28.5848  -21.7357   35.7490 O   0  0  0  0  0  0  0  0  0  0  0  0
   29.8443  -19.8023   35.0738 C   0  0  0  0  0  0  0  0  0  0  0  0
   31.0169  -19.0485   35.0577 C   0  0  0  0  0  0  0  0  0  0  0  0
   28.4334  -22.4040   35.0304 H   0  0  0  0  0  0  0  0  0  0  0  0
   31.7577   -9.8392   37.0480 C   0  0  0  0  0  0  0  0  0  0  0  0
   32.8177   -8.8407   37.1715 C   0  0  0  0  0  0  0  0  0  0  0  0
   34.2497   -9.2504   37.0450 C   0  0  0  0  0  0  0  0  0  0  0  0
   32.5915   -7.8200   36.0233 C   0  0  0  0  0  0  0  0  0  0  0  0
   29.4685  -14.4339   40.3705 C   0  0  0  0  0  0  0  0  0  0  0  0
   28.0340  -15.4357   40.7336 S   0  0  0  0  0  0  0  0  0  0  0  0
   27.5405  -15.9764   39.5201 H   0  0  0  0  0  0  0  0  0  0  0  0
   25.6719   -9.9037   40.3334 C   0  0  0  0  0  0  0  0  0  0  0  0
   26.6265   -8.2348   41.9357 C   0  0  0  0  0  0  0  0  0  0  0  0
   26.3299   -8.5781   40.4983 C   0  0  0  0  0  0  0  0  0  0  0  0
   27.6646   -8.5352   39.7424 C   0  0  0  0  0  0  0  0  0  0  0  0
 80 81  1  0  0  0
 81 82  1  0  0  0
 81 79  1  0  0  0
 79  1  1  0  0  0
  1 39  1  0  0  0
 39 40  1  0  0  0
 40 41  2  0  0  0
 40 43  1  0  0  0
 43 76  1  0  0  0
 76 77  1  0  0  0
 43 44  1  0  0  0
 44 45  1  0  0  0
 45 46  2  0  0  0
 45 48  1  0  0  0
 48 72  1  0  0  0
 72 73  1  0  0  0
 73 74  1  0  0  0
 73 75  1  0  0  0
 48 49  1  0  0  0
 49 50  1  0  0  0
 50 51  2  0  0  0
 50 53  1  0  0  0
 53 54  1  0  0  0
 53 55  1  0  0  0
 55 56  1  0  0  0
 56 57  2  0  0  0
 56 59  1  0  0  0
 59 60  1  0  0  0
 59 63  1  0  0  0
 63 64  1  0  0  0
 64 65  2  0  0  0
 65 66  1  0  0  0
 66 67  2  0  0  0
 67 68  1  0  0  0
 67 69  1  0  0  0
 69 70  2  0  0  0
  1  2  1  0  0  0
  2  3  2  0  0  0
  2  4  1  0  0  0
  4  6  1  0  0  0
  6 36  1  0  0  0
 36 37  1  0  0  0
  6  7  1  0  0  0
  7  8  2  0  0  0
  7  9  1  0  0  0
  9 11  1  0  0  0
 11 33  1  0  0  0
 33 34  1  0  0  0
 11 12  1  0  0  0
 12 13  2  0  0  0
 12 14  1  0  0  0
 14 16  1  0  0  0
 16 22  1  0  0  0
 22 23  1  0  0  0
 23 24  2  0  0  0
 24 25  1  0  0  0
 25 26  1  0  0  0
 26 27  2  0  0  0
 27 28  1  0  0  0
 28 29  2  0  0  0
 29 30  1  0  0  0
 30 31  2  0  0  0
 16 17  1  0  0  0
 17 18  1  0  0  0
 17 19  2  0  0  0
 70 64  1  0  0  0
 31 23  1  0  0  0
 31 26  1  0  0  0
 39 42  1  0  0  0
 77 78  1  0  0  0
 44 47  1  0  0  0
 49 52  1  0  0  0
 55 58  1  0  0  0
 60 61  1  0  0  0
 60 62  1  0  0  0
 68 71  1  0  0  0
  4  5  1  0  0  0
 37 38  1  0  0  0
  9 10  1  0  0  0
 34 35  1  0  0  0
 14 15  1  0  0  0
 25 32  1  0  0  0
 18 20  1  0  0  0
 18 21  1  0  0  0
M  END
> <minimizedAffinity>
-7.34009

> <CNNscore>
0.6313310266

> <CNNaffinity>
7.5561800003

> <CNN_VS>
4.7704510689

> <CNNaffinity_variance>
0.7160144448

$$$$
[H]Oc1c([H])c([H])c(C([H])([H])[C@@]([H])(C(=O)N([H])[C@]([H])(C(=O)N([H])[C@]([H])(C(=O)N([H])[C@]([H])(C(=O)N([H])[C@]([H])(C(=O)N([H])[C@]([H])(C(=O)N([H])[C@]([H])(C(=O)N([H])[C@]([H])(C(=O)N([H])[H])C([H])([H])c2c([H])n([H])c3c([H])c([H])c([H])c([H])c23)C([H])([H])O[H])C([H])([H])O[H])C([H])([H])C([H])(C([H])([H])[H])C([H])([H])[H])C([H])([H])S[H])C([H])([H])C([H])(C([H])([H])[H])C([H])([H])[H])C([H])([H])[H])N([H])[H])c([H])c1[H]


 82 84  0  0  0  0  0  0  0  0999 V2000
   28.8127  -12.3280   38.8020 C   0  0  0  0  0  0  0  0  0  0  0  0
   27.8610  -11.2040   39.0066 C   0  0  0  0  0  0  0  0  0  0  0  0
   28.3998  -10.0268   39.1254 O   0  0  0  0  0  0  0  0  0  0  0  0
   26.4877  -11.2309   39.0847 N   0  0  0  0  0  0  0  0  0  0  0  0
   25.9362  -12.1038   38.9727 H   0  0  0  0  0  0  0  0  0  0  0  0
   25.6758  -10.0150   39.2945 C   0  0  0  0  0  0  0  0  0  0  0  0
   25.5545   -9.6973   40.7079 C   0  0  0  0  0  0  0  0  0  0  0  0
   24.4549  -10.1362   41.2549 O   0  0  0  0  0  0  0  0  0  0  0  0
   26.3979   -9.0154   41.5755 N   0  0  0  0  0  0  0  0  0  0  0  0
   27.2866   -8.5954   41.2592 H   0  0  0  0  0  0  0  0  0  0  0  0
   26.0537   -8.8520   42.9708 C   0  0  0  0  0  0  0  0  0  0  0  0
   25.5703   -7.4335   43.1980 C   0  0  0  0  0  0  0  0  0  0  0  0
   24.3894   -7.1398   43.0114 O   0  0  0  0  0  0  0  0  0  0  0  0
   26.5453   -6.5175   43.6223 N   0  0  0  0  0  0  0  0  0  0  0  0
   27.5526   -6.8017   43.7814 H   0  0  0  0  0  0  0  0  0  0  0  0
   26.2174   -5.1204   43.8680 C   0  0  0  0  0  0  0  0  0  0  0  0
   26.8600   -4.2591   42.8356 C   0  0  0  0  0  0  0  0  0  0  0  0
   26.8106   -2.8440   42.8372 N   0  0  0  0  0  0  0  0  0  0  0  0
   27.4922   -4.7950   41.8827 O   0  0  0  0  0  0  0  0  0  0  0  0
   27.7130   -2.3474   42.6819 H   0  0  0  0  0  0  0  0  0  0  0  0
   25.9513   -2.2787   42.9828 H   0  0  0  0  0  0  0  0  0  0  0  0
   26.5370   -4.7839   45.2726 C   0  0  0  0  0  0  0  0  0  0  0  0
   25.3443   -4.3248   46.0299 C   0  0  0  0  0  0  0  0  0  0  0  0
   24.3251   -5.0673   46.5981 C   0  0  0  0  0  0  0  0  0  0  0  0
   23.4300   -4.2282   47.1524 N   0  0  0  0  0  0  0  0  0  0  0  0
   23.8280   -2.9601   46.9680 C   0  0  0  0  0  0  0  0  0  0  0  0
   23.2347   -1.7673   47.3527 C   0  0  0  0  0  0  0  0  0  0  0  0
   23.9098   -0.6009   46.9966 C   0  0  0  0  0  0  0  0  0  0  0  0
   25.0983   -0.6460   46.3014 C   0  0  0  0  0  0  0  0  0  0  0  0
   25.6723   -1.8294   45.9276 C   0  0  0  0  0  0  0  0  0  0  0  0
   25.0045   -2.9899   46.2788 C   0  0  0  0  0  0  0  0  0  0  0  0
   22.5524   -4.5334   47.6507 H   0  0  0  0  0  0  0  0  0  0  0  0
   27.2568   -9.1096   43.8563 C   0  0  0  0  0  0  0  0  0  0  0  0
   28.3986   -8.6345   43.2568 O   0  0  0  0  0  0  0  0  0  0  0  0
   28.9339   -8.1293   43.9026 H   0  0  0  0  0  0  0  0  0  0  0  0
   24.3969  -10.0863   38.5741 C   0  0  0  0  0  0  0  0  0  0  0  0
   23.5647   -9.0112   38.8694 O   0  0  0  0  0  0  0  0  0  0  0  0
   24.0199   -8.1372   38.6462 H   0  0  0  0  0  0  0  0  0  0  0  0
   30.1925  -11.7542   39.0392 N   0  0  0  0  0  0  0  0  0  0  0  0
   31.0417  -11.4642   37.9683 C   0  0  0  0  0  0  0  0  0  0  0  0
   30.5582  -11.7419   36.8023 O   0  0  0  0  0  0  0  0  0  0  0  0
   30.4828  -11.5991   40.0123 H   0  0  0  0  0  0  0  0  0  0  0  0
   32.3741  -10.8964   37.9892 C   0  0  0  0  0  0  0  0  0  0  0  0
   33.3614  -11.8025   37.3539 N   0  0  0  0  0  0  0  0  0  0  0  0
   33.5599  -13.1291   37.8638 C   0  0  0  0  0  0  0  0  0  0  0  0
   32.8749  -13.4896   38.8664 O   0  0  0  0  0  0  0  0  0  0  0  0
   33.8918  -11.4614   36.5542 H   0  0  0  0  0  0  0  0  0  0  0  0
   34.5498  -13.9868   37.2004 C   0  0  0  0  0  0  0  0  0  0  0  0
   33.9281  -14.7665   36.1267 N   0  0  0  0  0  0  0  0  0  0  0  0
   34.2433  -16.1320   36.0191 C   0  0  0  0  0  0  0  0  0  0  0  0
   35.0764  -16.6610   36.8385 O   0  0  0  0  0  0  0  0  0  0  0  0
   33.2809  -14.2991   35.4910 H   0  0  0  0  0  0  0  0  0  0  0  0
   33.6896  -17.0562   35.0182 C   0  0  0  0  0  0  0  0  0  0  0  0
   33.1846  -16.1495   33.8688 C   0  0  0  0  0  0  0  0  0  0  0  0
   32.5433  -17.7536   35.5960 N   0  0  0  0  0  0  0  0  0  0  0  0
   32.1927  -19.0539   35.1810 C   0  0  0  0  0  0  0  0  0  0  0  0
   32.9533  -19.5479   34.2614 O   0  0  0  0  0  0  0  0  0  0  0  0
   31.9949  -17.2712   36.3212 H   0  0  0  0  0  0  0  0  0  0  0  0
   31.1056  -19.8984   35.6475 C   0  0  0  0  0  0  0  0  0  0  0  0
   29.8561  -19.1624   35.6037 N   0  0  0  0  0  0  0  0  0  0  0  0
   29.9529  -18.4119   34.8820 H   0  0  0  0  0  0  0  0  0  0  0  0
   29.7425  -18.6840   36.5258 H   0  0  0  0  0  0  0  0  0  0  0  0
   30.9669  -21.2136   34.8863 C   0  0  0  0  0  0  0  0  0  0  0  0
   31.4382  -22.2976   35.8211 C   0  0  0  0  0  0  0  0  0  0  0  0
   31.2171  -22.1309   37.1937 C   0  0  0  0  0  0  0  0  0  0  0  0
   31.5905  -23.0537   38.1310 C   0  0  0  0  0  0  0  0  0  0  0  0
   32.2298  -24.2287   37.6884 C   0  0  0  0  0  0  0  0  0  0  0  0
   32.6235  -25.1909   38.6097 O   0  0  0  0  0  0  0  0  0  0  0  0
   32.4499  -24.3998   36.3460 C   0  0  0  0  0  0  0  0  0  0  0  0
   32.0591  -23.4447   35.4087 C   0  0  0  0  0  0  0  0  0  0  0  0
   33.5352  -25.1366   38.9994 H   0  0  0  0  0  0  0  0  0  0  0  0
   35.7103  -13.2193   36.6703 C   0  0  0  0  0  0  0  0  0  0  0  0
   37.0773  -13.7082   36.8375 C   0  0  0  0  0  0  0  0  0  0  0  0
   38.1702  -12.7599   37.2127 C   0  0  0  0  0  0  0  0  0  0  0  0
   37.0321  -14.7432   37.9941 C   0  0  0  0  0  0  0  0  0  0  0  0
   32.4277   -9.5745   37.1988 C   0  0  0  0  0  0  0  0  0  0  0  0
   34.0911   -9.0303   36.8382 S   0  0  0  0  0  0  0  0  0  0  0  0
   34.6719   -9.9326   35.9123 H   0  0  0  0  0  0  0  0  0  0  0  0
   28.6557  -13.4772   39.7396 C   0  0  0  0  0  0  0  0  0  0  0  0
   28.0603  -12.7268   42.0519 C   0  0  0  0  0  0  0  0  0  0  0  0
   29.1462  -13.1946   41.1169 C   0  0  0  0  0  0  0  0  0  0  0  0
   29.7659  -14.4513   41.7425 C   0  0  0  0  0  0  0  0  0  0  0  0
 80 81  1  0  0  0
 81 82  1  0  0  0
 81 79  1  0  0  0
 79  1  1  0  0  0
  1 39  1  0  0  0
 39 40  1  0  0  0
 40 41  2  0  0  0
 40 43  1  0  0  0
 43 76  1  0  0  0
 76 77  1  0  0  0
 43 44  1  0  0  0
 44 45  1  0  0  0
 45 46  2  0  0  0
 45 48  1  0  0  0
 48 72  1  0  0  0
 72 73  1  0  0  0
 73 74  1  0  0  0
 73 75  1  0  0  0
 48 49  1  0  0  0
 49 50  1  0  0  0
 50 51  2  0  0  0
 50 53  1  0  0  0
 53 54  1  0  0  0
 53 55  1  0  0  0
 55 56  1  0  0  0
 56 57  2  0  0  0
 56 59  1  0  0  0
 59 60  1  0  0  0
 59 63  1  0  0  0
 63 64  1  0  0  0
 64 65  2  0  0  0
 65 66  1  0  0  0
 66 67  2  0  0  0
 67 68  1  0  0  0
 67 69  1  0  0  0
 69 70  2  0  0  0
  1  2  1  0  0  0
  2  3  2  0  0  0
  2  4  1  0  0  0
  4  6  1  0  0  0
  6 36  1  0  0  0
 36 37  1  0  0  0
  6  7  1  0  0  0
  7  8  2  0  0  0
  7  9  1  0  0  0
  9 11  1  0  0  0
 11 33  1  0  0  0
 33 34  1  0  0  0
 11 12  1  0  0  0
 12 13  2  0  0  0
 12 14  1  0  0  0
 14 16  1  0  0  0
 16 22  1  0  0  0
 22 23  1  0  0  0
 23 24  2  0  0  0
 24 25  1  0  0  0
 25 26  1  0  0  0
 26 27  2  0  0  0
 27 28  1  0  0  0
 28 29  2  0  0  0
 29 30  1  0  0  0
 30 31  2  0  0  0
 16 17  1  0  0  0
 17 18  1  0  0  0
 17 19  2  0  0  0
 70 64  1  0  0  0
 31 23  1  0  0  0
 31 26  1  0  0  0
 39 42  1  0  0  0
 77 78  1  0  0  0
 44 47  1  0  0  0
 49 52  1  0  0  0
 55 58  1  0  0  0
 60 61  1  0  0  0
 60 62  1  0  0  0
 68 71  1  0  0  0
  4  5  1  0  0  0
 37 38  1  0  0  0
  9 10  1  0  0  0
 34 35  1  0  0  0
 14 15  1  0  0  0
 25 32  1  0  0  0
 18 20  1  0  0  0
 18 21  1  0  0  0
M  END
> <minimizedAffinity>
-8.20271

> <CNNscore>
0.5896304250

> <CNNaffinity>
7.1771454811

> <CNN_VS>
4.2318634987

> <CNNaffinity_variance>
0.3562692106

$$$$
[H]Oc1c([H])c([H])c(C([H])([H])[C@@]([H])(C(=O)N([H])[C@]([H])(C(=O)N([H])[C@]([H])(C(=O)N([H])[C@]([H])(C(=O)N([H])[C@]([H])(C(=O)N([H])[C@]([H])(C(=O)N([H])[C@]([H])(C(=O)N([H])[C@]([H])(C(=O)N([H])[H])C([H])([H])c2c([H])n([H])c3c([H])c([H])c([H])c([H])c23)C([H])([H])O[H])C([H])([H])O[H])C([H])([H])C([H])(C([H])([H])[H])C([H])([H])[H])C([H])([H])S[H])C([H])([H])C([H])(C([H])([H])[H])C([H])([H])[H])C([H])([H])[H])N([H])[H])c([H])c1[H]


 82 84  0  0  0  0  0  0  0  0999 V2000
   28.9927  -12.6136   38.6854 C   0  0  0  0  0  0  0  0  0  0  0  0
   27.9177  -11.5864   38.6792 C   0  0  0  0  0  0  0  0  0  0  0  0
   28.3219  -10.3508   38.6771 O   0  0  0  0  0  0  0  0  0  0  0  0
   26.5525  -11.7568   38.6717 N   0  0  0  0  0  0  0  0  0  0  0  0
   26.1040  -12.6931   38.6398 H   0  0  0  0  0  0  0  0  0  0  0  0
   25.6061  -10.6228   38.6676 C   0  0  0  0  0  0  0  0  0  0  0  0
   25.3060  -10.1796   40.0192 C   0  0  0  0  0  0  0  0  0  0  0  0
   24.8753  -11.1293   40.8025 O   0  0  0  0  0  0  0  0  0  0  0  0
   25.3981   -8.9318   40.6223 N   0  0  0  0  0  0  0  0  0  0  0  0
   25.7000   -8.0925   40.1023 H   0  0  0  0  0  0  0  0  0  0  0  0
   25.0568   -8.7538   42.0166 C   0  0  0  0  0  0  0  0  0  0  0  0
   24.6069   -7.3233   42.2367 C   0  0  0  0  0  0  0  0  0  0  0  0
   23.4799   -6.9645   41.8949 O   0  0  0  0  0  0  0  0  0  0  0  0
   25.5475   -6.4740   42.8395 N   0  0  0  0  0  0  0  0  0  0  0  0
   26.5074   -6.8136   43.1295 H   0  0  0  0  0  0  0  0  0  0  0  0
   25.2476   -5.0732   43.0995 C   0  0  0  0  0  0  0  0  0  0  0  0
   26.4413   -4.2339   42.7973 C   0  0  0  0  0  0  0  0  0  0  0  0
   26.5618   -2.8670   43.1463 N   0  0  0  0  0  0  0  0  0  0  0  0
   27.4229   -4.7435   42.1875 O   0  0  0  0  0  0  0  0  0  0  0  0
   27.4540   -2.5805   43.6013 H   0  0  0  0  0  0  0  0  0  0  0  0
   25.8326   -2.1450   42.9845 H   0  0  0  0  0  0  0  0  0  0  0  0
   24.6982   -4.9373   44.4663 C   0  0  0  0  0  0  0  0  0  0  0  0
   25.7395   -5.1000   45.5133 C   0  0  0  0  0  0  0  0  0  0  0  0
   26.5509   -6.1868   45.7839 C   0  0  0  0  0  0  0  0  0  0  0  0
   27.3197   -5.9028   46.8521 N   0  0  0  0  0  0  0  0  0  0  0  0
   27.0409   -4.6658   47.2907 C   0  0  0  0  0  0  0  0  0  0  0  0
   27.5683   -3.9497   48.3546 C   0  0  0  0  0  0  0  0  0  0  0  0
   27.0517   -2.6702   48.5520 C   0  0  0  0  0  0  0  0  0  0  0  0
   26.0723   -2.1592   47.7289 C   0  0  0  0  0  0  0  0  0  0  0  0
   25.5604   -2.8765   46.6834 C   0  0  0  0  0  0  0  0  0  0  0  0
   26.0704   -4.1479   46.4846 C   0  0  0  0  0  0  0  0  0  0  0  0
   28.0278   -6.5616   47.2718 H   0  0  0  0  0  0  0  0  0  0  0  0
   26.2528   -9.0356   42.9043 C   0  0  0  0  0  0  0  0  0  0  0  0
   26.1985  -10.3237   43.3803 O   0  0  0  0  0  0  0  0  0  0  0  0
   27.0728  -10.7548   43.2884 H   0  0  0  0  0  0  0  0  0  0  0  0
   24.4236  -10.9068   37.8426 C   0  0  0  0  0  0  0  0  0  0  0  0
   23.4444  -11.6012   38.5460 O   0  0  0  0  0  0  0  0  0  0  0  0
   23.1581  -11.0817   39.3640 H   0  0  0  0  0  0  0  0  0  0  0  0
   30.2872  -11.8607   38.9018 N   0  0  0  0  0  0  0  0  0  0  0  0
   31.2046  -11.6986   37.8605 C   0  0  0  0  0  0  0  0  0  0  0  0
   30.8602  -12.2506   36.7437 O   0  0  0  0  0  0  0  0  0  0  0  0
   30.4693  -11.4868   39.8411 H   0  0  0  0  0  0  0  0  0  0  0  0
   32.4731  -10.9992   37.8636 C   0  0  0  0  0  0  0  0  0  0  0  0
   33.5714  -11.8628   37.3664 N   0  0  0  0  0  0  0  0  0  0  0  0
   33.7839  -13.1634   37.9343 C   0  0  0  0  0  0  0  0  0  0  0  0
   33.0135  -13.5380   38.8673 O   0  0  0  0  0  0  0  0  0  0  0  0
   34.1672  -11.5115   36.6188 H   0  0  0  0  0  0  0  0  0  0  0  0
   34.8853  -13.9792   37.4081 C   0  0  0  0  0  0  0  0  0  0  0  0
   34.4223  -14.8369   36.3140 N   0  0  0  0  0  0  0  0  0  0  0  0
   34.7972  -16.1916   36.3178 C   0  0  0  0  0  0  0  0  0  0  0  0
   35.5472  -16.6434   37.2551 O   0  0  0  0  0  0  0  0  0  0  0  0
   33.8375  -14.4297   35.5835 H   0  0  0  0  0  0  0  0  0  0  0  0
   34.3984  -17.1871   35.3116 C   0  0  0  0  0  0  0  0  0  0  0  0
   33.2273  -16.5317   34.5387 C   0  0  0  0  0  0  0  0  0  0  0  0
   33.8952  -18.3777   35.9926 N   0  0  0  0  0  0  0  0  0  0  0  0
   34.0274  -19.6587   35.4202 C   0  0  0  0  0  0  0  0  0  0  0  0
   34.6084  -19.6746   34.2667 O   0  0  0  0  0  0  0  0  0  0  0  0
   33.4411  -18.2593   36.9086 H   0  0  0  0  0  0  0  0  0  0  0  0
   33.6040  -20.9436   35.9518 C   0  0  0  0  0  0  0  0  0  0  0  0
   34.7620  -21.7059   36.3791 N   0  0  0  0  0  0  0  0  0  0  0  0
   35.5258  -21.0276   36.6032 H   0  0  0  0  0  0  0  0  0  0  0  0
   35.0861  -22.2681   35.5600 H   0  0  0  0  0  0  0  0  0  0  0  0
   32.5918  -20.8448   37.0893 C   0  0  0  0  0  0  0  0  0  0  0  0
   31.2969  -21.4010   36.5557 C   0  0  0  0  0  0  0  0  0  0  0  0
   31.0482  -22.7698   36.7155 C   0  0  0  0  0  0  0  0  0  0  0  0
   29.9036  -23.3795   36.2824 C   0  0  0  0  0  0  0  0  0  0  0  0
   28.9295  -22.5869   35.6435 C   0  0  0  0  0  0  0  0  0  0  0  0
   27.7526  -23.1691   35.1902 O   0  0  0  0  0  0  0  0  0  0  0  0
   29.1652  -21.2458   35.4832 C   0  0  0  0  0  0  0  0  0  0  0  0
   30.3402  -20.6461   35.9342 C   0  0  0  0  0  0  0  0  0  0  0  0
   27.7186  -23.5214   34.2624 H   0  0  0  0  0  0  0  0  0  0  0  0
   36.0439  -13.1583   36.9601 C   0  0  0  0  0  0  0  0  0  0  0  0
   37.3522  -13.2890   37.5983 C   0  0  0  0  0  0  0  0  0  0  0  0
   37.9975  -14.6325   37.7132 C   0  0  0  0  0  0  0  0  0  0  0  0
   38.3388  -12.4436   36.7480 C   0  0  0  0  0  0  0  0  0  0  0  0
   32.4329   -9.7707   36.9340 C   0  0  0  0  0  0  0  0  0  0  0  0
   31.2870   -8.5100   37.4733 S   0  0  0  0  0  0  0  0  0  0  0  0
   31.7770   -7.9361   38.6729 H   0  0  0  0  0  0  0  0  0  0  0  0
   28.8983  -13.6313   39.7714 C   0  0  0  0  0  0  0  0  0  0  0  0
   27.4823  -13.4108   41.8234 C   0  0  0  0  0  0  0  0  0  0  0  0
   28.7700  -13.0412   41.1325 C   0  0  0  0  0  0  0  0  0  0  0  0
   29.9158  -13.5098   42.0392 C   0  0  0  0  0  0  0  0  0  0  0  0
 80 81  1  0  0  0
 81 82  1  0  0  0
 81 79  1  0  0  0
 79  1  1  0  0  0
  1 39  1  0  0  0
 39 40  1  0  0  0
 40 41  2  0  0  0
 40 43  1  0  0  0
 43 76  1  0  0  0
 76 77  1  0  0  0
 43 44  1  0  0  0
 44 45  1  0  0  0
 45 46  2  0  0  0
 45 48  1  0  0  0
 48 72  1  0  0  0
 72 73  1  0  0  0
 73 74  1  0  0  0
 73 75  1  0  0  0
 48 49  1  0  0  0
 49 50  1  0  0  0
 50 51  2  0  0  0
 50 53  1  0  0  0
 53 54  1  0  0  0
 53 55  1  0  0  0
 55 56  1  0  0  0
 56 57  2  0  0  0
 56 59  1  0  0  0
 59 60  1  0  0  0
 59 63  1  0  0  0
 63 64  1  0  0  0
 64 65  2  0  0  0
 65 66  1  0  0  0
 66 67  2  0  0  0
 67 68  1  0  0  0
 67 69  1  0  0  0
 69 70  2  0  0  0
  1  2  1  0  0  0
  2  3  2  0  0  0
  2  4  1  0  0  0
  4  6  1  0  0  0
  6 36  1  0  0  0
 36 37  1  0  0  0
  6  7  1  0  0  0
  7  8  2  0  0  0
  7  9  1  0  0  0
  9 11  1  0  0  0
 11 33  1  0  0  0
 33 34  1  0  0  0
 11 12  1  0  0  0
 12 13  2  0  0  0
 12 14  1  0  0  0
 14 16  1  0  0  0
 16 22  1  0  0  0
 22 23  1  0  0  0
 23 24  2  0  0  0
 24 25  1  0  0  0
 25 26  1  0  0  0
 26 27  2  0  0  0
 27 28  1  0  0  0
 28 29  2  0  0  0
 29 30  1  0  0  0
 30 31  2  0  0  0
 16 17  1  0  0  0
 17 18  1  0  0  0
 17 19  2  0  0  0
 70 64  1  0  0  0
 31 23  1  0  0  0
 31 26  1  0  0  0
 39 42  1  0  0  0
 77 78  1  0  0  0
 44 47  1  0  0  0
 49 52  1  0  0  0
 55 58  1  0  0  0
 60 61  1  0  0  0
 60 62  1  0  0  0
 68 71  1  0  0  0
  4  5  1  0  0  0
 37 38  1  0  0  0
  9 10  1  0  0  0
 34 35  1  0  0  0
 14 15  1  0  0  0
 25 32  1  0  0  0
 18 20  1  0  0  0
 18 21  1  0  0  0
M  END
> <minimizedAffinity>
-7.74188

> <CNNscore>
0.5370624065

> <CNNaffinity>
7.3569016457

> <CNN_VS>
3.9511153698

> <CNNaffinity_variance>
0.1797773093

$$$$
[H]Oc1c([H])c([H])c(C([H])([H])[C@@]([H])(C(=O)N([H])[C@]([H])(C(=O)N([H])[C@]([H])(C(=O)N([H])[C@]([H])(C(=O)N([H])[C@]([H])(C(=O)N([H])[C@]([H])(C(=O)N([H])[C@]([H])(C(=O)N([H])[C@]([H])(C(=O)N([H])[H])C([H])([H])c2c([H])n([H])c3c([H])c([H])c([H])c([H])c23)C([H])([H])O[H])C([H])([H])O[H])C([H])([H])C([H])(C([H])([H])[H])C([H])([H])[H])C([H])([H])S[H])C([H])([H])C([H])(C([H])([H])[H])C([H])([H])[H])C([H])([H])[H])N([H])[H])c([H])c1[H]


 82 84  0  0  0  0  0  0  0  0999 V2000
   25.8938  -11.3176   41.8335 C   0  0  0  0  0  0  0  0  0  0  0  0
   25.6200  -12.0531   43.0964 C   0  0  0  0  0  0  0  0  0  0  0  0
   26.6656  -12.5199   43.7121 O   0  0  0  0  0  0  0  0  0  0  0  0
   24.4156  -12.3081   43.7104 N   0  0  0  0  0  0  0  0  0  0  0  0
   23.5106  -11.9614   43.3367 H   0  0  0  0  0  0  0  0  0  0  0  0
   24.3080  -13.0626   44.9756 C   0  0  0  0  0  0  0  0  0  0  0  0
   23.7952  -14.4040   44.7496 C   0  0  0  0  0  0  0  0  0  0  0  0
   24.5563  -15.3477   45.2303 O   0  0  0  0  0  0  0  0  0  0  0  0
   22.6439  -14.8568   44.1182 N   0  0  0  0  0  0  0  0  0  0  0  0
   21.9728  -14.2110   43.6726 H   0  0  0  0  0  0  0  0  0  0  0  0
   22.3430  -16.2698   44.0466 C   0  0  0  0  0  0  0  0  0  0  0  0
   22.7760  -16.7996   42.6940 C   0  0  0  0  0  0  0  0  0  0  0  0
   23.5646  -16.1605   41.9974 O   0  0  0  0  0  0  0  0  0  0  0  0
   22.2228  -18.0328   42.3165 N   0  0  0  0  0  0  0  0  0  0  0  0
   21.5521  -18.5631   42.9408 H   0  0  0  0  0  0  0  0  0  0  0  0
   22.5471  -18.6500   41.0384 C   0  0  0  0  0  0  0  0  0  0  0  0
   21.2974  -18.9157   40.2713 C   0  0  0  0  0  0  0  0  0  0  0  0
   21.0070  -20.1406   39.6231 N   0  0  0  0  0  0  0  0  0  0  0  0
   20.4239  -18.0091   40.1701 O   0  0  0  0  0  0  0  0  0  0  0  0
   20.0578  -20.5381   39.7846 H   0  0  0  0  0  0  0  0  0  0  0  0
   21.6658  -20.6607   39.0111 H   0  0  0  0  0  0  0  0  0  0  0  0
   23.4184  -19.8229   41.2699 C   0  0  0  0  0  0  0  0  0  0  0  0
   24.8560  -19.5089   41.0656 C   0  0  0  0  0  0  0  0  0  0  0  0
   25.6037  -19.5332   39.9024 C   0  0  0  0  0  0  0  0  0  0  0  0
   26.8783  -19.2138   40.1957 N   0  0  0  0  0  0  0  0  0  0  0  0
   26.9918  -18.9796   41.5120 C   0  0  0  0  0  0  0  0  0  0  0  0
   28.0986  -18.6281   42.2698 C   0  0  0  0  0  0  0  0  0  0  0  0
   27.8814  -18.4620   43.6367 C   0  0  0  0  0  0  0  0  0  0  0  0
   26.6322  -18.6408   44.1895 C   0  0  0  0  0  0  0  0  0  0  0  0
   25.5491  -18.9881   43.4306 C   0  0  0  0  0  0  0  0  0  0  0  0
   25.7611  -19.1546   42.0729 C   0  0  0  0  0  0  0  0  0  0  0  0
   27.6597  -19.1614   39.4898 H   0  0  0  0  0  0  0  0  0  0  0  0
   20.8566  -16.5135   44.2176 C   0  0  0  0  0  0  0  0  0  0  0  0
   20.1680  -16.0326   43.1298 O   0  0  0  0  0  0  0  0  0  0  0  0
   19.5109  -16.6927   42.8274 H   0  0  0  0  0  0  0  0  0  0  0  0
   23.5853  -12.2989   46.0023 C   0  0  0  0  0  0  0  0  0  0  0  0
   23.0304  -11.1280   45.4954 O   0  0  0  0  0  0  0  0  0  0  0  0
   22.3996  -11.3341   44.7336 H   0  0  0  0  0  0  0  0  0  0  0  0
   26.5870  -12.3036   40.9188 N   0  0  0  0  0  0  0  0  0  0  0  0
   27.9067  -12.0958   40.5097 C   0  0  0  0  0  0  0  0  0  0  0  0
   28.4484  -11.0108   40.9566 O   0  0  0  0  0  0  0  0  0  0  0  0
   26.0488  -13.1196   40.6028 H   0  0  0  0  0  0  0  0  0  0  0  0
   28.7408  -12.9260   39.6652 C   0  0  0  0  0  0  0  0  0  0  0  0
   30.0324  -12.2649   39.3583 N   0  0  0  0  0  0  0  0  0  0  0  0
   30.2286  -11.6089   38.0972 C   0  0  0  0  0  0  0  0  0  0  0  0
   29.2734  -11.6211   37.2654 O   0  0  0  0  0  0  0  0  0  0  0  0
   30.7711  -12.2897   40.0589 H   0  0  0  0  0  0  0  0  0  0  0  0
   31.5256  -10.9703   37.8413 C   0  0  0  0  0  0  0  0  0  0  0  0
   32.3957  -11.8523   37.0588 N   0  0  0  0  0  0  0  0  0  0  0  0
   33.1838  -12.7955   37.7406 C   0  0  0  0  0  0  0  0  0  0  0  0
   33.1453  -12.8528   39.0214 O   0  0  0  0  0  0  0  0  0  0  0  0
   32.4020  -11.7614   36.0424 H   0  0  0  0  0  0  0  0  0  0  0  0
   34.0874  -13.7666   37.1057 C   0  0  0  0  0  0  0  0  0  0  0  0
   34.9344  -12.9369   36.1095 C   0  0  0  0  0  0  0  0  0  0  0  0
   33.2940  -14.7312   36.3479 N   0  0  0  0  0  0  0  0  0  0  0  0
   33.8111  -15.9972   36.0075 C   0  0  0  0  0  0  0  0  0  0  0  0
   35.0202  -16.2094   36.4089 O   0  0  0  0  0  0  0  0  0  0  0  0
   32.3400  -14.4644   36.0686 H   0  0  0  0  0  0  0  0  0  0  0  0
   33.1700  -17.0783   35.2775 C   0  0  0  0  0  0  0  0  0  0  0  0
   33.3444  -16.8810   33.8508 N   0  0  0  0  0  0  0  0  0  0  0  0
   34.2035  -16.3012   33.7115 H   0  0  0  0  0  0  0  0  0  0  0  0
   32.5359  -16.3117   33.5127 H   0  0  0  0  0  0  0  0  0  0  0  0
   33.6493  -18.4708   35.6772 C   0  0  0  0  0  0  0  0  0  0  0  0
   32.4233  -19.3459   35.7219 C   0  0  0  0  0  0  0  0  0  0  0  0
   32.4852  -20.5357   36.4576 C   0  0  0  0  0  0  0  0  0  0  0  0
   31.4316  -21.3989   36.5776 C   0  0  0  0  0  0  0  0  0  0  0  0
   30.2263  -21.0705   35.9261 C   0  0  0  0  0  0  0  0  0  0  0  0
   29.1326  -21.9212   36.0248 O   0  0  0  0  0  0  0  0  0  0  0  0
   30.1573  -19.9072   35.2037 C   0  0  0  0  0  0  0  0  0  0  0  0
   31.2452  -19.0420   35.0965 C   0  0  0  0  0  0  0  0  0  0  0  0
   29.0182  -22.6356   35.3447 H   0  0  0  0  0  0  0  0  0  0  0  0
   31.3917   -9.6509   37.1644 C   0  0  0  0  0  0  0  0  0  0  0  0
   32.4889   -8.6854   37.1708 C   0  0  0  0  0  0  0  0  0  0  0  0
   33.9045   -9.1622   37.2275 C   0  0  0  0  0  0  0  0  0  0  0  0
   32.3856   -7.8988   35.8360 C   0  0  0  0  0  0  0  0  0  0  0  0
   29.0893  -14.2554   40.3626 C   0  0  0  0  0  0  0  0  0  0  0  0
   28.0447  -15.6154   39.8600 S   0  0  0  0  0  0  0  0  0  0  0  0
   28.3277  -15.9276   38.5069 H   0  0  0  0  0  0  0  0  0  0  0  0
   24.6883  -10.8269   41.1053 C   0  0  0  0  0  0  0  0  0  0  0  0
   26.0026   -8.6980   41.1736 C   0  0  0  0  0  0  0  0  0  0  0  0
   24.8302   -9.4394   40.5837 C   0  0  0  0  0  0  0  0  0  0  0  0
   25.0247   -9.4473   39.0616 C   0  0  0  0  0  0  0  0  0  0  0  0
 80 81  1  0  0  0
 81 82  1  0  0  0
 81 79  1  0  0  0
 79  1  1  0  0  0
  1 39  1  0  0  0
 39 40  1  0  0  0
 40 41  2  0  0  0
 40 43  1  0  0  0
 43 76  1  0  0  0
 76 77  1  0  0  0
 43 44  1  0  0  0
 44 45  1  0  0  0
 45 46  2  0  0  0
 45 48  1  0  0  0
 48 72  1  0  0  0
 72 73  1  0  0  0
 73 74  1  0  0  0
 73 75  1  0  0  0
 48 49  1  0  0  0
 49 50  1  0  0  0
 50 51  2  0  0  0
 50 53  1  0  0  0
 53 54  1  0  0  0
 53 55  1  0  0  0
 55 56  1  0  0  0
 56 57  2  0  0  0
 56 59  1  0  0  0
 59 60  1  0  0  0
 59 63  1  0  0  0
 63 64  1  0  0  0
 64 65  2  0  0  0
 65 66  1  0  0  0
 66 67  2  0  0  0
 67 68  1  0  0  0
 67 69  1  0  0  0
 69 70  2  0  0  0
  1  2  1  0  0  0
  2  3  2  0  0  0
  2  4  1  0  0  0
  4  6  1  0  0  0
  6 36  1  0  0  0
 36 37  1  0  0  0
  6  7  1  0  0  0
  7  8  2  0  0  0
  7  9  1  0  0  0
  9 11  1  0  0  0
 11 33  1  0  0  0
 33 34  1  0  0  0
 11 12  1  0  0  0
 12 13  2  0  0  0
 12 14  1  0  0  0
 14 16  1  0  0  0
 16 22  1  0  0  0
 22 23  1  0  0  0
 23 24  2  0  0  0
 24 25  1  0  0  0
 25 26  1  0  0  0
 26 27  2  0  0  0
 27 28  1  0  0  0
 28 29  2  0  0  0
 29 30  1  0  0  0
 30 31  2  0  0  0
 16 17  1  0  0  0
 17 18  1  0  0  0
 17 19  2  0  0  0
 70 64  1  0  0  0
 31 23  1  0  0  0
 31 26  1  0  0  0
 39 42  1  0  0  0
 77 78  1  0  0  0
 44 47  1  0  0  0
 49 52  1  0  0  0
 55 58  1  0  0  0
 60 61  1  0  0  0
 60 62  1  0  0  0
 68 71  1  0  0  0
  4  5  1  0  0  0
 37 38  1  0  0  0
  9 10  1  0  0  0
 34 35  1  0  0  0
 14 15  1  0  0  0
 25 32  1  0  0  0
 18 20  1  0  0  0
 18 21  1  0  0  0
M  END
> <minimizedAffinity>
-6.95314

> <CNNscore>
0.4163707495

> <CNNaffinity>
7.5575346947

> <CNN_VS>
3.1467363834

> <CNNaffinity_variance>
0.2495300025

$$$$
[H]Oc1c([H])c([H])c(C([H])([H])[C@@]([H])(C(=O)N([H])[C@]([H])(C(=O)N([H])[C@]([H])(C(=O)N([H])[C@]([H])(C(=O)N([H])[C@]([H])(C(=O)N([H])[C@]([H])(C(=O)N([H])[C@]([H])(C(=O)N([H])[C@]([H])(C(=O)N([H])[H])C([H])([H])c2c([H])n([H])c3c([H])c([H])c([H])c([H])c23)C([H])([H])O[H])C([H])([H])O[H])C([H])([H])C([H])(C([H])([H])[H])C([H])([H])[H])C([H])([H])S[H])C([H])([H])C([H])(C([H])([H])[H])C([H])([H])[H])C([H])([H])[H])N([H])[H])c([H])c1[H]


 82 84  0  0  0  0  0  0  0  0999 V2000
   26.1240  -11.1811   42.0783 C   0  0  0  0  0  0  0  0  0  0  0  0
   26.0212  -11.7527   43.4470 C   0  0  0  0  0  0  0  0  0  0  0  0
   27.0688  -11.5962   44.2009 O   0  0  0  0  0  0  0  0  0  0  0  0
   24.9719  -12.4222   44.0331 N   0  0  0  0  0  0  0  0  0  0  0  0
   24.0678  -12.5830   43.5479 H   0  0  0  0  0  0  0  0  0  0  0  0
   25.0251  -12.9353   45.4171 C   0  0  0  0  0  0  0  0  0  0  0  0
   25.4854  -14.3139   45.4527 C   0  0  0  0  0  0  0  0  0  0  0  0
   26.3710  -14.5506   46.3805 O   0  0  0  0  0  0  0  0  0  0  0  0
   25.1500  -15.4183   44.6802 N   0  0  0  0  0  0  0  0  0  0  0  0
   24.4811  -15.3562   43.8961 H   0  0  0  0  0  0  0  0  0  0  0  0
   25.7426  -16.7124   44.9377 C   0  0  0  0  0  0  0  0  0  0  0  0
   26.7587  -17.0153   43.8546 C   0  0  0  0  0  0  0  0  0  0  0  0
   27.2025  -16.1118   43.1457 O   0  0  0  0  0  0  0  0  0  0  0  0
   27.1364  -18.3613   43.7318 N   0  0  0  0  0  0  0  0  0  0  0  0
   26.7426  -19.1156   44.3615 H   0  0  0  0  0  0  0  0  0  0  0  0
   28.0971  -18.7906   42.7256 C   0  0  0  0  0  0  0  0  0  0  0  0
   27.3934  -19.5088   41.6257 C   0  0  0  0  0  0  0  0  0  0  0  0
   27.5130  -20.8978   41.3783 N   0  0  0  0  0  0  0  0  0  0  0  0
   26.6389  -18.8649   40.8439 O   0  0  0  0  0  0  0  0  0  0  0  0
   26.6251  -21.4208   41.2260 H   0  0  0  0  0  0  0  0  0  0  0  0
   28.4099  -21.4207   41.3420 H   0  0  0  0  0  0  0  0  0  0  0  0
   29.1907  -19.5392   43.3829 C   0  0  0  0  0  0  0  0  0  0  0  0
   30.1581  -18.6432   44.0671 C   0  0  0  0  0  0  0  0  0  0  0  0
   31.0540  -17.7399   43.5247 C   0  0  0  0  0  0  0  0  0  0  0  0
   31.7609  -17.1740   44.5209 N   0  0  0  0  0  0  0  0  0  0  0  0
   31.3582  -17.6746   45.6989 C   0  0  0  0  0  0  0  0  0  0  0  0
   31.7941  -17.4025   46.9868 C   0  0  0  0  0  0  0  0  0  0  0  0
   31.1656  -18.1083   48.0115 C   0  0  0  0  0  0  0  0  0  0  0  0
   30.1694  -19.0217   47.7446 C   0  0  0  0  0  0  0  0  0  0  0  0
   29.7494  -19.2809   46.4694 C   0  0  0  0  0  0  0  0  0  0  0  0
   30.3717  -18.5825   45.4491 C   0  0  0  0  0  0  0  0  0  0  0  0
   32.5152  -16.4502   44.3832 H   0  0  0  0  0  0  0  0  0  0  0  0
   24.6853  -17.7987   44.9381 C   0  0  0  0  0  0  0  0  0  0  0  0
   23.9860  -17.7818   43.7551 O   0  0  0  0  0  0  0  0  0  0  0  0
   23.8936  -18.6914   43.4045 H   0  0  0  0  0  0  0  0  0  0  0  0
   23.7645  -12.6951   46.1330 C   0  0  0  0  0  0  0  0  0  0  0  0
   22.8029  -12.0999   45.3225 O   0  0  0  0  0  0  0  0  0  0  0  0
   22.6169  -12.6733   44.5117 H   0  0  0  0  0  0  0  0  0  0  0  0
   26.8109  -12.2346   41.2371 N   0  0  0  0  0  0  0  0  0  0  0  0
   27.9848  -11.9408   40.5388 C   0  0  0  0  0  0  0  0  0  0  0  0
   28.3985  -10.7225   40.6621 O   0  0  0  0  0  0  0  0  0  0  0  0
   26.3763  -13.1643   41.1902 H   0  0  0  0  0  0  0  0  0  0  0  0
   28.7934  -12.8096   39.7084 C   0  0  0  0  0  0  0  0  0  0  0  0
   30.0947  -12.1831   39.3714 N   0  0  0  0  0  0  0  0  0  0  0  0
   30.2971  -11.5811   38.0847 C   0  0  0  0  0  0  0  0  0  0  0  0
   29.3387  -11.6103   37.2570 O   0  0  0  0  0  0  0  0  0  0  0  0
   30.8355  -12.1925   40.0702 H   0  0  0  0  0  0  0  0  0  0  0  0
   31.6037  -10.9751   37.7996 C   0  0  0  0  0  0  0  0  0  0  0  0
   32.4475  -11.8933   37.0300 N   0  0  0  0  0  0  0  0  0  0  0  0
   33.2352  -12.8256   37.7271 C   0  0  0  0  0  0  0  0  0  0  0  0
   33.2192  -12.8421   39.0096 O   0  0  0  0  0  0  0  0  0  0  0  0
   32.4365  -11.8344   36.0113 H   0  0  0  0  0  0  0  0  0  0  0  0
   34.1140  -13.8286   37.1073 C   0  0  0  0  0  0  0  0  0  0  0  0
   35.0052  -13.0304   36.1240 C   0  0  0  0  0  0  0  0  0  0  0  0
   33.2992  -14.7657   36.3377 N   0  0  0  0  0  0  0  0  0  0  0  0
   33.7806  -16.0459   35.9979 C   0  0  0  0  0  0  0  0  0  0  0  0
   34.9783  -16.2967   36.4109 O   0  0  0  0  0  0  0  0  0  0  0  0
   32.3568  -14.4687   36.0496 H   0  0  0  0  0  0  0  0  0  0  0  0
   33.1141  -17.1042   35.2573 C   0  0  0  0  0  0  0  0  0  0  0  0
   33.3495  -16.9345   33.8358 N   0  0  0  0  0  0  0  0  0  0  0  0
   34.2404  -16.3990   33.7215 H   0  0  0  0  0  0  0  0  0  0  0  0
   32.5826  -16.3312   33.4616 H   0  0  0  0  0  0  0  0  0  0  0  0
   33.5099  -18.5128   35.6902 C   0  0  0  0  0  0  0  0  0  0  0  0
   32.2454  -19.3325   35.6778 C   0  0  0  0  0  0  0  0  0  0  0  0
   32.2396  -20.5518   36.3663 C   0  0  0  0  0  0  0  0  0  0  0  0
   31.1464  -21.3703   36.4327 C   0  0  0  0  0  0  0  0  0  0  0  0
   29.9700  -20.9623   35.7732 C   0  0  0  0  0  0  0  0  0  0  0  0
   28.8377  -21.7657   35.8181 O   0  0  0  0  0  0  0  0  0  0  0  0
   29.9674  -19.7697   35.0968 C   0  0  0  0  0  0  0  0  0  0  0  0
   31.0946  -18.9512   35.0439 C   0  0  0  0  0  0  0  0  0  0  0  0
   28.7050  -22.4470   35.1080 H   0  0  0  0  0  0  0  0  0  0  0  0
   31.4886   -9.6703   37.0918 C   0  0  0  0  0  0  0  0  0  0  0  0
   32.5824   -8.7013   37.1144 C   0  0  0  0  0  0  0  0  0  0  0  0
   34.0006   -9.1737   37.1057 C   0  0  0  0  0  0  0  0  0  0  0  0
   32.4373   -7.8494   35.8243 C   0  0  0  0  0  0  0  0  0  0  0  0
   29.1224  -14.1270   40.4372 C   0  0  0  0  0  0  0  0  0  0  0  0
   28.1748  -15.5214   39.8447 S   0  0  0  0  0  0  0  0  0  0  0  0
   28.5899  -15.8223   38.5234 H   0  0  0  0  0  0  0  0  0  0  0  0
   24.8242  -10.8772   41.4132 C   0  0  0  0  0  0  0  0  0  0  0  0
   25.7036   -8.5342   41.4426 C   0  0  0  0  0  0  0  0  0  0  0  0
   24.7745   -9.5256   40.7900 C   0  0  0  0  0  0  0  0  0  0  0  0
   25.1630   -9.5953   39.3072 C   0  0  0  0  0  0  0  0  0  0  0  0
 80 81  1  0  0  0
 81 82  1  0  0  0
 81 79  1  0  0  0
 79  1  1  0  0  0
  1 39  1  0  0  0
 39 40  1  0  0  0
 40 41  2  0  0  0
 40 43  1  0  0  0
 43 76  1  0  0  0
 76 77  1  0  0  0
 43 44  1  0  0  0
 44 45  1  0  0  0
 45 46  2  0  0  0
 45 48  1  0  0  0
 48 72  1  0  0  0
 72 73  1  0  0  0
 73 74  1  0  0  0
 73 75  1  0  0  0
 48 49  1  0  0  0
 49 50  1  0  0  0
 50 51  2  0  0  0
 50 53  1  0  0  0
 53 54  1  0  0  0
 53 55  1  0  0  0
 55 56  1  0  0  0
 56 57  2  0  0  0
 56 59  1  0  0  0
 59 60  1  0  0  0
 59 63  1  0  0  0
 63 64  1  0  0  0
 64 65  2  0  0  0
 65 66  1  0  0  0
 66 67  2  0  0  0
 67 68  1  0  0  0
 67 69  1  0  0  0
 69 70  2  0  0  0
  1  2  1  0  0  0
  2  3  2  0  0  0
  2  4  1  0  0  0
  4  6  1  0  0  0
  6 36  1  0  0  0
 36 37  1  0  0  0
  6  7  1  0  0  0
  7  8  2  0  0  0
  7  9  1  0  0  0
  9 11  1  0  0  0
 11 33  1  0  0  0
 33 34  1  0  0  0
 11 12  1  0  0  0
 12 13  2  0  0  0
 12 14  1  0  0  0
 14 16  1  0  0  0
 16 22  1  0  0  0
 22 23  1  0  0  0
 23 24  2  0  0  0
 24 25  1  0  0  0
 25 26  1  0  0  0
 26 27  2  0  0  0
 27 28  1  0  0  0
 28 29  2  0  0  0
 29 30  1  0  0  0
 30 31  2  0  0  0
 16 17  1  0  0  0
 17 18  1  0  0  0
 17 19  2  0  0  0
 70 64  1  0  0  0
 31 23  1  0  0  0
 31 26  1  0  0  0
 39 42  1  0  0  0
 77 78  1  0  0  0
 44 47  1  0  0  0
 49 52  1  0  0  0
 55 58  1  0  0  0
 60 61  1  0  0  0
 60 62  1  0  0  0
 68 71  1  0  0  0
  4  5  1  0  0  0
 37 38  1  0  0  0
  9 10  1  0  0  0
 34 35  1  0  0  0
 14 15  1  0  0  0
 25 32  1  0  0  0
 18 20  1  0  0  0
 18 21  1  0  0  0
M  END
> <minimizedAffinity>
-6.86700

> <CNNscore>
0.3552187979

> <CNNaffinity>
7.4391241074

> <CNN_VS>
2.6425166130

> <CNNaffinity_variance>
0.2492866516

$$$$
[H]Oc1c([H])c([H])c(C([H])([H])[C@@]([H])(C(=O)N([H])[C@]([H])(C(=O)N([H])[C@]([H])(C(=O)N([H])[C@]([H])(C(=O)N([H])[C@]([H])(C(=O)N([H])[C@]([H])(C(=O)N([H])[C@]([H])(C(=O)N([H])[C@]([H])(C(=O)N([H])[H])C([H])([H])c2c([H])n([H])c3c([H])c([H])c([H])c([H])c23)C([H])([H])O[H])C([H])([H])O[H])C([H])([H])C([H])(C([H])([H])[H])C([H])([H])[H])C([H])([H])S[H])C([H])([H])C([H])(C([H])([H])[H])C([H])([H])[H])C([H])([H])[H])N([H])[H])c([H])c1[H]


 82 84  0  0  0  0  0  0  0  0999 V2000
   31.7798  -12.4971   38.5622 C   0  0  0  0  0  0  0  0  0  0  0  0
   30.8848  -13.0936   39.5888 C   0  0  0  0  0  0  0  0  0  0  0  0
   31.1688  -12.7964   40.8222 O   0  0  0  0  0  0  0  0  0  0  0  0
   29.7937  -13.9145   39.4199 N   0  0  0  0  0  0  0  0  0  0  0  0
   29.4446  -14.1984   38.4837 H   0  0  0  0  0  0  0  0  0  0  0  0
   28.9995  -14.4308   40.5532 C   0  0  0  0  0  0  0  0  0  0  0  0
   28.2303  -13.3718   41.1858 C   0  0  0  0  0  0  0  0  0  0  0  0
   27.5865  -13.7534   42.2540 O   0  0  0  0  0  0  0  0  0  0  0  0
   28.0618  -12.0326   40.8584 N   0  0  0  0  0  0  0  0  0  0  0  0
   28.4968  -11.6141   40.0207 H   0  0  0  0  0  0  0  0  0  0  0  0
   27.2485  -11.1637   41.6803 C   0  0  0  0  0  0  0  0  0  0  0  0
   26.0912  -10.6410   40.8526 C   0  0  0  0  0  0  0  0  0  0  0  0
   26.2873  -10.1786   39.7286 O   0  0  0  0  0  0  0  0  0  0  0  0
   24.8254  -10.7247   41.4528 N   0  0  0  0  0  0  0  0  0  0  0  0
   24.6871  -11.1346   42.4190 H   0  0  0  0  0  0  0  0  0  0  0  0
   23.6299  -10.2497   40.7709 C   0  0  0  0  0  0  0  0  0  0  0  0
   23.3786  -11.0729   39.5545 C   0  0  0  0  0  0  0  0  0  0  0  0
   23.7244  -12.4407   39.4341 N   0  0  0  0  0  0  0  0  0  0  0  0
   22.8281  -10.5451   38.5477 O   0  0  0  0  0  0  0  0  0  0  0  0
   22.9898  -13.0741   39.0544 H   0  0  0  0  0  0  0  0  0  0  0  0
   24.6436  -12.8474   39.6967 H   0  0  0  0  0  0  0  0  0  0  0  0
   23.7432   -8.7920   40.5459 C   0  0  0  0  0  0  0  0  0  0  0  0
   23.6101   -8.0133   41.8040 C   0  0  0  0  0  0  0  0  0  0  0  0
   22.4971   -7.8148   42.6007 C   0  0  0  0  0  0  0  0  0  0  0  0
   22.8306   -7.0048   43.6231 N   0  0  0  0  0  0  0  0  0  0  0  0
   24.1252   -6.6661   43.5248 C   0  0  0  0  0  0  0  0  0  0  0  0
   24.9056   -5.8550   44.3347 C   0  0  0  0  0  0  0  0  0  0  0  0
   26.2357   -5.6968   43.9487 C   0  0  0  0  0  0  0  0  0  0  0  0
   26.7327   -6.3171   42.8235 C   0  0  0  0  0  0  0  0  0  0  0  0
   25.9519   -7.1141   42.0332 C   0  0  0  0  0  0  0  0  0  0  0  0
   24.6302   -7.2730   42.4128 C   0  0  0  0  0  0  0  0  0  0  0  0
   22.1657   -6.6900   44.3785 H   0  0  0  0  0  0  0  0  0  0  0  0
   28.0598   -9.9886   42.1890 C   0  0  0  0  0  0  0  0  0  0  0  0
   28.6964   -9.3627   41.1441 O   0  0  0  0  0  0  0  0  0  0  0  0
   28.5855   -8.3923   41.2137 H   0  0  0  0  0  0  0  0  0  0  0  0
   29.8245  -15.2206   41.4778 C   0  0  0  0  0  0  0  0  0  0  0  0
   30.1400  -14.5165   42.6357 O   0  0  0  0  0  0  0  0  0  0  0  0
   29.2996  -14.2227   43.1134 H   0  0  0  0  0  0  0  0  0  0  0  0
   32.8689  -13.5179   38.3150 N   0  0  0  0  0  0  0  0  0  0  0  0
   34.0903  -13.1404   37.7513 C   0  0  0  0  0  0  0  0  0  0  0  0
   34.1862  -11.8858   37.4556 O   0  0  0  0  0  0  0  0  0  0  0  0
   32.6717  -14.4947   38.5648 H   0  0  0  0  0  0  0  0  0  0  0  0
   35.2516  -13.9561   37.4612 C   0  0  0  0  0  0  0  0  0  0  0  0
   34.9305  -15.0357   36.4964 N   0  0  0  0  0  0  0  0  0  0  0  0
   35.5445  -16.3264   36.6230 C   0  0  0  0  0  0  0  0  0  0  0  0
   36.3641  -16.5046   37.5721 O   0  0  0  0  0  0  0  0  0  0  0  0
   34.2699  -14.8386   35.7467 H   0  0  0  0  0  0  0  0  0  0  0  0
   35.1943  -17.3610   35.6418 C   0  0  0  0  0  0  0  0  0  0  0  0
   35.9581  -18.5881   35.8828 N   0  0  0  0  0  0  0  0  0  0  0  0
   37.0730  -18.8558   35.0698 C   0  0  0  0  0  0  0  0  0  0  0  0
   37.3860  -18.0430   34.1282 O   0  0  0  0  0  0  0  0  0  0  0  0
   35.6635  -19.2108   36.6357 H   0  0  0  0  0  0  0  0  0  0  0  0
   37.9561  -20.0250   35.1957 C   0  0  0  0  0  0  0  0  0  0  0  0
   37.5176  -20.7213   36.5077 C   0  0  0  0  0  0  0  0  0  0  0  0
   39.3343  -19.5665   35.3527 N   0  0  0  0  0  0  0  0  0  0  0  0
   40.4051  -20.2426   34.7344 C   0  0  0  0  0  0  0  0  0  0  0  0
   40.0603  -21.2801   34.0467 O   0  0  0  0  0  0  0  0  0  0  0  0
   39.5067  -18.7301   35.9272 H   0  0  0  0  0  0  0  0  0  0  0  0
   41.8237  -19.9275   34.7674 C   0  0  0  0  0  0  0  0  0  0  0  0
   42.6020  -21.1424   34.6153 N   0  0  0  0  0  0  0  0  0  0  0  0
   42.0102  -21.8391   34.1075 H   0  0  0  0  0  0  0  0  0  0  0  0
   42.7707  -21.5276   35.5720 H   0  0  0  0  0  0  0  0  0  0  0  0
   42.2571  -18.8935   33.7323 C   0  0  0  0  0  0  0  0  0  0  0  0
   43.0693  -17.8637   34.4744 C   0  0  0  0  0  0  0  0  0  0  0  0
   42.4908  -17.2393   35.5863 C   0  0  0  0  0  0  0  0  0  0  0  0
   43.1385  -16.3007   36.3406 C   0  0  0  0  0  0  0  0  0  0  0  0
   44.4528  -15.9472   35.9764 C   0  0  0  0  0  0  0  0  0  0  0  0
   45.1447  -14.9983   36.7183 O   0  0  0  0  0  0  0  0  0  0  0  0
   45.0267  -16.5541   34.8890 C   0  0  0  0  0  0  0  0  0  0  0  0
   44.3464  -17.5095   34.1354 C   0  0  0  0  0  0  0  0  0  0  0  0
   45.0786  -14.0431   36.4554 H   0  0  0  0  0  0  0  0  0  0  0  0
   33.7361  -17.6611   35.6204 C   0  0  0  0  0  0  0  0  0  0  0  0
   33.2493  -19.0197   35.3900 C   0  0  0  0  0  0  0  0  0  0  0  0
   31.8254  -19.3645   35.6870 C   0  0  0  0  0  0  0  0  0  0  0  0
   33.4175  -19.2916   33.8705 C   0  0  0  0  0  0  0  0  0  0  0  0
   36.3729  -13.1181   36.8167 C   0  0  0  0  0  0  0  0  0  0  0  0
   37.9815  -13.4115   37.5374 S   0  0  0  0  0  0  0  0  0  0  0  0
   38.3921  -14.7273   37.2078 H   0  0  0  0  0  0  0  0  0  0  0  0
   31.1424  -12.2175   37.2432 C   0  0  0  0  0  0  0  0  0  0  0  0
   29.2934  -10.6597   37.8900 C   0  0  0  0  0  0  0  0  0  0  0  0
   30.5826  -10.8422   37.1307 C   0  0  0  0  0  0  0  0  0  0  0  0
   31.5739   -9.8049   37.6746 C   0  0  0  0  0  0  0  0  0  0  0  0
 80 81  1  0  0  0
 81 82  1  0  0  0
 81 79  1  0  0  0
 79  1  1  0  0  0
  1 39  1  0  0  0
 39 40  1  0  0  0
 40 41  2  0  0  0
 40 43  1  0  0  0
 43 76  1  0  0  0
 76 77  1  0  0  0
 43 44  1  0  0  0
 44 45  1  0  0  0
 45 46  2  0  0  0
 45 48  1  0  0  0
 48 72  1  0  0  0
 72 73  1  0  0  0
 73 74  1  0  0  0
 73 75  1  0  0  0
 48 49  1  0  0  0
 49 50  1  0  0  0
 50 51  2  0  0  0
 50 53  1  0  0  0
 53 54  1  0  0  0
 53 55  1  0  0  0
 55 56  1  0  0  0
 56 57  2  0  0  0
 56 59  1  0  0  0
 59 60  1  0  0  0
 59 63  1  0  0  0
 63 64  1  0  0  0
 64 65  2  0  0  0
 65 66  1  0  0  0
 66 67  2  0  0  0
 67 68  1  0  0  0
 67 69  1  0  0  0
 69 70  2  0  0  0
  1  2  1  0  0  0
  2  3  2  0  0  0
  2  4  1  0  0  0
  4  6  1  0  0  0
  6 36  1  0  0  0
 36 37  1  0  0  0
  6  7  1  0  0  0
  7  8  2  0  0  0
  7  9  1  0  0  0
  9 11  1  0  0  0
 11 33  1  0  0  0
 33 34  1  0  0  0
 11 12  1  0  0  0
 12 13  2  0  0  0
 12 14  1  0  0  0
 14 16  1  0  0  0
 16 22  1  0  0  0
 22 23  1  0  0  0
 23 24  2  0  0  0
 24 25  1  0  0  0
 25 26  1  0  0  0
 26 27  2  0  0  0
 27 28  1  0  0  0
 28 29  2  0  0  0
 29 30  1  0  0  0
 30 31  2  0  0  0
 16 17  1  0  0  0
 17 18  1  0  0  0
 17 19  2  0  0  0
 70 64  1  0  0  0
 31 23  1  0  0  0
 31 26  1  0  0  0
 39 42  1  0  0  0
 77 78  1  0  0  0
 44 47  1  0  0  0
 49 52  1  0  0  0
 55 58  1  0  0  0
 60 61  1  0  0  0
 60 62  1  0  0  0
 68 71  1  0  0  0
  4  5  1  0  0  0
 37 38  1  0  0  0
  9 10  1  0  0  0
 34 35  1  0  0  0
 14 15  1  0  0  0
 25 32  1  0  0  0
 18 20  1  0  0  0
 18 21  1  0  0  0
M  END
> <minimizedAffinity>
-8.83082

> <CNNscore>
0.3419251740

> <CNNaffinity>
6.9126310349

> <CNN_VS>
2.3636026382

> <CNNaffinity_variance>
0.2176129818

$$$$
[H]Oc1c([H])c([H])c(C([H])([H])[C@@]([H])(C(=O)N([H])[C@]([H])(C(=O)N([H])[C@]([H])(C(=O)N([H])[C@]([H])(C(=O)N([H])[C@]([H])(C(=O)N([H])[C@]([H])(C(=O)N([H])[C@]([H])(C(=O)N([H])[C@]([H])(C(=O)N([H])[H])C([H])([H])c2c([H])n([H])c3c([H])c([H])c([H])c([H])c23)C([H])([H])O[H])C([H])([H])O[H])C([H])([H])C([H])(C([H])([H])[H])C([H])([H])[H])C([H])([H])S[H])C([H])([H])C([H])(C([H])([H])[H])C([H])([H])[H])C([H])([H])[H])N([H])[H])c([H])c1[H]


 82 84  0  0  0  0  0  0  0  0999 V2000
   31.8113  -12.4628   38.5336 C   0  0  0  0  0  0  0  0  0  0  0  0
   31.0170  -12.9995   39.6701 C   0  0  0  0  0  0  0  0  0  0  0  0
   31.5644  -12.8804   40.8433 O   0  0  0  0  0  0  0  0  0  0  0  0
   29.7806  -13.6027   39.6586 N   0  0  0  0  0  0  0  0  0  0  0  0
   29.2253  -13.7278   38.7898 H   0  0  0  0  0  0  0  0  0  0  0  0
   29.1175  -14.0887   40.8857 C   0  0  0  0  0  0  0  0  0  0  0  0
   27.6760  -13.9158   40.8118 C   0  0  0  0  0  0  0  0  0  0  0  0
   27.2089  -13.8949   39.5942 O   0  0  0  0  0  0  0  0  0  0  0  0
   26.7125  -13.7721   41.8017 N   0  0  0  0  0  0  0  0  0  0  0  0
   26.9566  -13.7453   42.8046 H   0  0  0  0  0  0  0  0  0  0  0  0
   25.3128  -13.6384   41.4621 C   0  0  0  0  0  0  0  0  0  0  0  0
   24.9586  -12.1661   41.3957 C   0  0  0  0  0  0  0  0  0  0  0  0
   24.7401  -11.5303   42.4270 O   0  0  0  0  0  0  0  0  0  0  0  0
   24.9023  -11.6099   40.1085 N   0  0  0  0  0  0  0  0  0  0  0  0
   25.1027  -12.1808   39.2398 H   0  0  0  0  0  0  0  0  0  0  0  0
   24.5642  -10.2089   39.9019 C   0  0  0  0  0  0  0  0  0  0  0  0
   23.4636  -10.0941   38.9038 C   0  0  0  0  0  0  0  0  0  0  0  0
   23.4862   -9.2178   37.7919 N   0  0  0  0  0  0  0  0  0  0  0  0
   22.4289  -10.8068   39.0327 O   0  0  0  0  0  0  0  0  0  0  0  0
   23.2160   -9.6265   36.8726 H   0  0  0  0  0  0  0  0  0  0  0  0
   23.7517   -8.2142   37.8305 H   0  0  0  0  0  0  0  0  0  0  0  0
   25.7953   -9.4509   39.5882 C   0  0  0  0  0  0  0  0  0  0  0  0
   26.5346   -9.0417   40.8101 C   0  0  0  0  0  0  0  0  0  0  0  0
   27.7921   -9.4201   41.2439 C   0  0  0  0  0  0  0  0  0  0  0  0
   28.0411   -8.8310   42.4286 N   0  0  0  0  0  0  0  0  0  0  0  0
   26.9897   -8.0780   42.7862 C   0  0  0  0  0  0  0  0  0  0  0  0
   26.7851   -7.2988   43.9149 C   0  0  0  0  0  0  0  0  0  0  0  0
   25.5618   -6.6348   43.9913 C   0  0  0  0  0  0  0  0  0  0  0  0
   24.6188   -6.7556   42.9943 C   0  0  0  0  0  0  0  0  0  0  0  0
   24.8332   -7.5280   41.8866 C   0  0  0  0  0  0  0  0  0  0  0  0
   26.0465   -8.1895   41.8075 C   0  0  0  0  0  0  0  0  0  0  0  0
   28.9300   -8.9528   42.9824 H   0  0  0  0  0  0  0  0  0  0  0  0
   24.4392  -14.3081   42.5043 C   0  0  0  0  0  0  0  0  0  0  0  0
   24.9902  -14.1576   43.7543 O   0  0  0  0  0  0  0  0  0  0  0  0
   24.3028  -13.8839   44.3956 H   0  0  0  0  0  0  0  0  0  0  0  0
   29.7373  -13.5287   42.0947 C   0  0  0  0  0  0  0  0  0  0  0  0
   29.0590  -12.4083   42.5643 O   0  0  0  0  0  0  0  0  0  0  0  0
   28.0944  -12.6339   42.7632 H   0  0  0  0  0  0  0  0  0  0  0  0
   32.8620  -13.5080   38.2289 N   0  0  0  0  0  0  0  0  0  0  0  0
   34.1121  -13.1414   37.7240 C   0  0  0  0  0  0  0  0  0  0  0  0
   34.2686  -11.8729   37.5322 O   0  0  0  0  0  0  0  0  0  0  0  0
   32.6172  -14.4918   38.3951 H   0  0  0  0  0  0  0  0  0  0  0  0
   35.2446  -13.9823   37.3947 C   0  0  0  0  0  0  0  0  0  0  0  0
   34.8880  -15.0012   36.3777 N   0  0  0  0  0  0  0  0  0  0  0  0
   35.4067  -16.3354   36.4763 C   0  0  0  0  0  0  0  0  0  0  0  0
   36.1749  -16.6047   37.4468 O   0  0  0  0  0  0  0  0  0  0  0  0
   34.2719  -14.7313   35.6129 H   0  0  0  0  0  0  0  0  0  0  0  0
   35.0247  -17.3067   35.4437 C   0  0  0  0  0  0  0  0  0  0  0  0
   35.9852  -18.4119   35.3866 N   0  0  0  0  0  0  0  0  0  0  0  0
   37.0584  -18.3232   34.4832 C   0  0  0  0  0  0  0  0  0  0  0  0
   37.1651  -17.2994   33.7179 O   0  0  0  0  0  0  0  0  0  0  0  0
   35.8521  -19.2117   36.0064 H   0  0  0  0  0  0  0  0  0  0  0  0
   38.1180  -19.3297   34.3201 C   0  0  0  0  0  0  0  0  0  0  0  0
   37.8959  -20.3389   35.4736 C   0  0  0  0  0  0  0  0  0  0  0  0
   39.4172  -18.6888   34.5091 N   0  0  0  0  0  0  0  0  0  0  0  0
   40.5829  -19.2077   33.9108 C   0  0  0  0  0  0  0  0  0  0  0  0
   40.3973  -20.2773   33.2110 O   0  0  0  0  0  0  0  0  0  0  0  0
   39.4619  -17.8412   35.0911 H   0  0  0  0  0  0  0  0  0  0  0  0
   41.9442  -18.7025   33.9761 C   0  0  0  0  0  0  0  0  0  0  0  0
   41.9520  -17.3841   34.5817 N   0  0  0  0  0  0  0  0  0  0  0  0
   41.1039  -17.3065   35.1884 H   0  0  0  0  0  0  0  0  0  0  0  0
   41.8397  -16.6859   33.8123 H   0  0  0  0  0  0  0  0  0  0  0  0
   42.9163  -19.6224   34.7090 C   0  0  0  0  0  0  0  0  0  0  0  0
   42.7113  -19.3717   36.1808 C   0  0  0  0  0  0  0  0  0  0  0  0
   43.6142  -18.5297   36.8415 C   0  0  0  0  0  0  0  0  0  0  0  0
   43.5182  -18.2224   38.1703 C   0  0  0  0  0  0  0  0  0  0  0  0
   42.4567  -18.7840   38.9071 C   0  0  0  0  0  0  0  0  0  0  0  0
   42.3243  -18.4951   40.2593 O   0  0  0  0  0  0  0  0  0  0  0  0
   41.5681  -19.6094   38.2676 C   0  0  0  0  0  0  0  0  0  0  0  0
   41.6860  -19.9076   36.9109 C   0  0  0  0  0  0  0  0  0  0  0  0
   42.7699  -19.0858   40.9215 H   0  0  0  0  0  0  0  0  0  0  0  0
   33.6462  -17.8356   35.6356 C   0  0  0  0  0  0  0  0  0  0  0  0
   32.9317  -18.4921   34.5427 C   0  0  0  0  0  0  0  0  0  0  0  0
   33.4799  -19.7433   33.9357 C   0  0  0  0  0  0  0  0  0  0  0  0
   31.5445  -18.8982   35.1103 C   0  0  0  0  0  0  0  0  0  0  0  0
   36.3961  -13.1536   36.7927 C   0  0  0  0  0  0  0  0  0  0  0  0
   37.9805  -13.4861   37.5492 S   0  0  0  0  0  0  0  0  0  0  0  0
   38.3772  -14.8034   37.2086 H   0  0  0  0  0  0  0  0  0  0  0  0
   31.0491  -12.2359   37.2718 C   0  0  0  0  0  0  0  0  0  0  0  0
   29.2762  -10.6060   37.9531 C   0  0  0  0  0  0  0  0  0  0  0  0
   30.5189  -10.8511   37.1359 C   0  0  0  0  0  0  0  0  0  0  0  0
   31.5631   -9.8216   37.5881 C   0  0  0  0  0  0  0  0  0  0  0  0
 80 81  1  0  0  0
 81 82  1  0  0  0
 81 79  1  0  0  0
 79  1  1  0  0  0
  1 39  1  0  0  0
 39 40  1  0  0  0
 40 41  2  0  0  0
 40 43  1  0  0  0
 43 76  1  0  0  0
 76 77  1  0  0  0
 43 44  1  0  0  0
 44 45  1  0  0  0
 45 46  2  0  0  0
 45 48  1  0  0  0
 48 72  1  0  0  0
 72 73  1  0  0  0
 73 74  1  0  0  0
 73 75  1  0  0  0
 48 49  1  0  0  0
 49 50  1  0  0  0
 50 51  2  0  0  0
 50 53  1  0  0  0
 53 54  1  0  0  0
 53 55  1  0  0  0
 55 56  1  0  0  0
 56 57  2  0  0  0
 56 59  1  0  0  0
 59 60  1  0  0  0
 59 63  1  0  0  0
 63 64  1  0  0  0
 64 65  2  0  0  0
 65 66  1  0  0  0
 66 67  2  0  0  0
 67 68  1  0  0  0
 67 69  1  0  0  0
 69 70  2  0  0  0
  1  2  1  0  0  0
  2  3  2  0  0  0
  2  4  1  0  0  0
  4  6  1  0  0  0
  6 36  1  0  0  0
 36 37  1  0  0  0
  6  7  1  0  0  0
  7  8  2  0  0  0
  7  9  1  0  0  0
  9 11  1  0  0  0
 11 33  1  0  0  0
 33 34  1  0  0  0
 11 12  1  0  0  0
 12 13  2  0  0  0
 12 14  1  0  0  0
 14 16  1  0  0  0
 16 22  1  0  0  0
 22 23  1  0  0  0
 23 24  2  0  0  0
 24 25  1  0  0  0
 25 26  1  0  0  0
 26 27  2  0  0  0
 27 28  1  0  0  0
 28 29  2  0  0  0
 29 30  1  0  0  0
 30 31  2  0  0  0
 16 17  1  0  0  0
 17 18  1  0  0  0
 17 19  2  0  0  0
 70 64  1  0  0  0
 31 23  1  0  0  0
 31 26  1  0  0  0
 39 42  1  0  0  0
 77 78  1  0  0  0
 44 47  1  0  0  0
 49 52  1  0  0  0
 55 58  1  0  0  0
 60 61  1  0  0  0
 60 62  1  0  0  0
 68 71  1  0  0  0
  4  5  1  0  0  0
 37 38  1  0  0  0
  9 10  1  0  0  0
 34 35  1  0  0  0
 14 15  1  0  0  0
 25 32  1  0  0  0
 18 20  1  0  0  0
 18 21  1  0  0  0
M  END
> <minimizedAffinity>
-8.79482

> <CNNscore>
0.2684739828

> <CNNaffinity>
7.2792930603

> <CNN_VS>
1.9543007612

> <CNNaffinity_variance>
0.2462079078

$$$$
[H]Oc1c([H])c([H])c(C([H])([H])[C@@]([H])(C(=O)N([H])[C@]([H])(C(=O)N([H])[C@]([H])(C(=O)N([H])[C@]([H])(C(=O)N([H])[C@]([H])(C(=O)N([H])[C@]([H])(C(=O)N([H])[C@]([H])(C(=O)N([H])[C@]([H])(C(=O)N([H])[H])C([H])([H])c2c([H])n([H])c3c([H])c([H])c([H])c([H])c23)C([H])([H])O[H])C([H])([H])O[H])C([H])([H])C([H])(C([H])([H])[H])C([H])([H])[H])C([H])([H])S[H])C([H])([H])C([H])(C([H])([H])[H])C([H])([H])[H])C([H])([H])[H])N([H])[H])c([H])c1[H]


 82 84  0  0  0  0  0  0  0  0999 V2000
   45.6821  -10.3833   34.3847 C   0  0  0  0  0  0  0  0  0  0  0  0
   45.2867  -11.5731   33.5854 C   0  0  0  0  0  0  0  0  0  0  0  0
   44.0331  -11.9090   33.6614 O   0  0  0  0  0  0  0  0  0  0  0  0
   46.0589  -12.3695   32.7717 N   0  0  0  0  0  0  0  0  0  0  0  0
   47.0671  -12.1873   32.6014 H   0  0  0  0  0  0  0  0  0  0  0  0
   45.5125  -13.5290   32.0377 C   0  0  0  0  0  0  0  0  0  0  0  0
   45.5747  -14.7398   32.8399 C   0  0  0  0  0  0  0  0  0  0  0  0
   46.1924  -15.7287   32.2556 O   0  0  0  0  0  0  0  0  0  0  0  0
   45.0979  -15.0286   34.1121 N   0  0  0  0  0  0  0  0  0  0  0  0
   44.5680  -14.3390   34.6686 H   0  0  0  0  0  0  0  0  0  0  0  0
   45.3153  -16.3279   34.7094 C   0  0  0  0  0  0  0  0  0  0  0  0
   44.0780  -16.7269   35.4887 C   0  0  0  0  0  0  0  0  0  0  0  0
   43.2950  -15.8693   35.8974 O   0  0  0  0  0  0  0  0  0  0  0  0
   43.9068  -18.1041   35.6979 N   0  0  0  0  0  0  0  0  0  0  0  0
   44.5941  -18.8189   35.3275 H   0  0  0  0  0  0  0  0  0  0  0  0
   42.7659  -18.6224   36.4392 C   0  0  0  0  0  0  0  0  0  0  0  0
   43.1582  -18.8922   37.8513 C   0  0  0  0  0  0  0  0  0  0  0  0
   44.4873  -19.1343   38.2753 N   0  0  0  0  0  0  0  0  0  0  0  0
   42.2715  -18.9183   38.7502 O   0  0  0  0  0  0  0  0  0  0  0  0
   44.8111  -18.6069   39.1133 H   0  0  0  0  0  0  0  0  0  0  0  0
   45.1494  -19.7883   37.8137 H   0  0  0  0  0  0  0  0  0  0  0  0
   42.1868  -19.7687   35.7049 C   0  0  0  0  0  0  0  0  0  0  0  0
   41.1461  -19.3494   34.7313 C   0  0  0  0  0  0  0  0  0  0  0  0
   41.2557  -19.1230   33.3713 C   0  0  0  0  0  0  0  0  0  0  0  0
   40.0620  -18.7181   32.8982 N   0  0  0  0  0  0  0  0  0  0  0  0
   39.1726  -18.6723   33.9018 C   0  0  0  0  0  0  0  0  0  0  0  0
   37.8336  -18.3117   33.8998 C   0  0  0  0  0  0  0  0  0  0  0  0
   37.1797  -18.3653   35.1297 C   0  0  0  0  0  0  0  0  0  0  0  0
   37.8394  -18.7560   36.2743 C   0  0  0  0  0  0  0  0  0  0  0  0
   39.1604  -19.1086   36.2623 C   0  0  0  0  0  0  0  0  0  0  0  0
   39.8134  -19.0559   35.0429 C   0  0  0  0  0  0  0  0  0  0  0  0
   39.8690  -18.4747   31.8906 H   0  0  0  0  0  0  0  0  0  0  0  0
   46.5016  -16.2956   35.6525 C   0  0  0  0  0  0  0  0  0  0  0  0
   46.8589  -17.5735   36.0107 O   0  0  0  0  0  0  0  0  0  0  0  0
   47.8296  -17.6838   35.9445 H   0  0  0  0  0  0  0  0  0  0  0  0
   46.1078  -13.6531   30.6999 C   0  0  0  0  0  0  0  0  0  0  0  0
   45.3845  -14.5120   29.8785 O   0  0  0  0  0  0  0  0  0  0  0  0
   44.4296  -14.1953   29.7857 H   0  0  0  0  0  0  0  0  0  0  0  0
   44.6469   -9.3200   34.0894 N   0  0  0  0  0  0  0  0  0  0  0  0
   45.0168   -8.0975   33.5232 C   0  0  0  0  0  0  0  0  0  0  0  0
   46.2834   -7.9628   33.3036 O   0  0  0  0  0  0  0  0  0  0  0  0
   43.6700   -9.5263   34.3314 H   0  0  0  0  0  0  0  0  0  0  0  0
   44.1804   -6.9755   33.1496 C   0  0  0  0  0  0  0  0  0  0  0  0
   44.9897   -5.7681   32.8552 N   0  0  0  0  0  0  0  0  0  0  0  0
   44.5268   -4.4704   33.2562 C   0  0  0  0  0  0  0  0  0  0  0  0
   43.4139   -4.3952   33.8564 O   0  0  0  0  0  0  0  0  0  0  0  0
   45.8744   -5.8824   32.3638 H   0  0  0  0  0  0  0  0  0  0  0  0
   45.3641   -3.3065   32.9403 C   0  0  0  0  0  0  0  0  0  0  0  0
   46.1786   -2.9211   34.0959 N   0  0  0  0  0  0  0  0  0  0  0  0
   45.6411   -2.0116   35.0231 C   0  0  0  0  0  0  0  0  0  0  0  0
   44.4704   -1.5233   34.8328 O   0  0  0  0  0  0  0  0  0  0  0  0
   47.1095   -3.3264   34.1986 H   0  0  0  0  0  0  0  0  0  0  0  0
   46.3151   -1.5430   36.2432 C   0  0  0  0  0  0  0  0  0  0  0  0
   47.5334   -0.7284   35.7428 C   0  0  0  0  0  0  0  0  0  0  0  0
   46.8057   -2.6986   36.9903 N   0  0  0  0  0  0  0  0  0  0  0  0
   46.1159   -3.1874   38.1179 C   0  0  0  0  0  0  0  0  0  0  0  0
   45.0481   -2.5278   38.4223 O   0  0  0  0  0  0  0  0  0  0  0  0
   47.6718   -3.1533   36.6703 H   0  0  0  0  0  0  0  0  0  0  0  0
   46.4435   -4.3205   38.9672 C   0  0  0  0  0  0  0  0  0  0  0  0
   46.0249   -5.5534   38.3273 N   0  0  0  0  0  0  0  0  0  0  0  0
   45.9993   -5.3848   37.2956 H   0  0  0  0  0  0  0  0  0  0  0  0
   45.0425   -5.7441   38.6281 H   0  0  0  0  0  0  0  0  0  0  0  0
   47.9172   -4.4043   39.3543 C   0  0  0  0  0  0  0  0  0  0  0  0
   47.9541   -4.5945   40.8487 C   0  0  0  0  0  0  0  0  0  0  0  0
   46.8410   -4.1896   41.5957 C   0  0  0  0  0  0  0  0  0  0  0  0
   46.7597   -4.3253   42.9538 C   0  0  0  0  0  0  0  0  0  0  0  0
   47.8532   -4.9010   43.6306 C   0  0  0  0  0  0  0  0  0  0  0  0
   47.8085   -5.0571   45.0102 O   0  0  0  0  0  0  0  0  0  0  0  0
   48.9469   -5.3003   42.9065 C   0  0  0  0  0  0  0  0  0  0  0  0
   49.0064   -5.1524   41.5216 C   0  0  0  0  0  0  0  0  0  0  0  0
   48.1536   -4.3259   45.5866 H   0  0  0  0  0  0  0  0  0  0  0  0
   46.2337   -3.5308   31.7528 C   0  0  0  0  0  0  0  0  0  0  0  0
   46.4564   -2.4718   30.7705 C   0  0  0  0  0  0  0  0  0  0  0  0
   46.7614   -2.8216   29.3496 C   0  0  0  0  0  0  0  0  0  0  0  0
   45.1390   -1.6524   30.7061 C   0  0  0  0  0  0  0  0  0  0  0  0
   43.3780   -7.2820   31.8700 C   0  0  0  0  0  0  0  0  0  0  0  0
   44.3717   -7.2518   30.3851 S   0  0  0  0  0  0  0  0  0  0  0  0
   45.2707   -8.3468   30.4196 H   0  0  0  0  0  0  0  0  0  0  0  0
   45.6895  -10.5801   35.8631 C   0  0  0  0  0  0  0  0  0  0  0  0
   47.4093  -10.3174   37.6624 C   0  0  0  0  0  0  0  0  0  0  0  0
   47.0038  -11.0313   36.3983 C   0  0  0  0  0  0  0  0  0  0  0  0
   46.9744  -12.5313   36.7203 C   0  0  0  0  0  0  0  0  0  0  0  0
 80 81  1  0  0  0
 81 82  1  0  0  0
 81 79  1  0  0  0
 79  1  1  0  0  0
  1 39  1  0  0  0
 39 40  1  0  0  0
 40 41  2  0  0  0
 40 43  1  0  0  0
 43 76  1  0  0  0
 76 77  1  0  0  0
 43 44  1  0  0  0
 44 45  1  0  0  0
 45 46  2  0  0  0
 45 48  1  0  0  0
 48 72  1  0  0  0
 72 73  1  0  0  0
 73 74  1  0  0  0
 73 75  1  0  0  0
 48 49  1  0  0  0
 49 50  1  0  0  0
 50 51  2  0  0  0
 50 53  1  0  0  0
 53 54  1  0  0  0
 53 55  1  0  0  0
 55 56  1  0  0  0
 56 57  2  0  0  0
 56 59  1  0  0  0
 59 60  1  0  0  0
 59 63  1  0  0  0
 63 64  1  0  0  0
 64 65  2  0  0  0
 65 66  1  0  0  0
 66 67  2  0  0  0
 67 68  1  0  0  0
 67 69  1  0  0  0
 69 70  2  0  0  0
  1  2  1  0  0  0
  2  3  2  0  0  0
  2  4  1  0  0  0
  4  6  1  0  0  0
  6 36  1  0  0  0
 36 37  1  0  0  0
  6  7  1  0  0  0
  7  8  2  0  0  0
  7  9  1  0  0  0
  9 11  1  0  0  0
 11 33  1  0  0  0
 33 34  1  0  0  0
 11 12  1  0  0  0
 12 13  2  0  0  0
 12 14  1  0  0  0
 14 16  1  0  0  0
 16 22  1  0  0  0
 22 23  1  0  0  0
 23 24  2  0  0  0
 24 25  1  0  0  0
 25 26  1  0  0  0
 26 27  2  0  0  0
 27 28  1  0  0  0
 28 29  2  0  0  0
 29 30  1  0  0  0
 30 31  2  0  0  0
 16 17  1  0  0  0
 17 18  1  0  0  0
 17 19  2  0  0  0
 70 64  1  0  0  0
 31 23  1  0  0  0
 31 26  1  0  0  0
 39 42  1  0  0  0
 77 78  1  0  0  0
 44 47  1  0  0  0
 49 52  1  0  0  0
 55 58  1  0  0  0
 60 61  1  0  0  0
 60 62  1  0  0  0
 68 71  1  0  0  0
  4  5  1  0  0  0
 37 38  1  0  0  0
  9 10  1  0  0  0
 34 35  1  0  0  0
 14 15  1  0  0  0
 25 32  1  0  0  0
 18 20  1  0  0  0
 18 21  1  0  0  0
M  END
> <minimizedAffinity>
-8.08350

> <CNNscore>
0.2225211263

> <CNNaffinity>
6.6625785828

> <CNN_VS>
1.4825644493

> <CNNaffinity_variance>
0.4681886137

$$$$
[H]Oc1c([H])c([H])c(C([H])([H])[C@@]([H])(C(=O)N([H])[C@]([H])(C(=O)N([H])[C@]([H])(C(=O)N([H])[C@]([H])(C(=O)N([H])[C@]([H])(C(=O)N([H])[C@]([H])(C(=O)N([H])[C@]([H])(C(=O)N([H])[C@]([H])(C(=O)N([H])[H])C([H])([H])c2c([H])n([H])c3c([H])c([H])c([H])c([H])c23)C([H])([H])O[H])C([H])([H])O[H])C([H])([H])C([H])(C([H])([H])[H])C([H])([H])[H])C([H])([H])S[H])C([H])([H])C([H])(C([H])([H])[H])C([H])([H])[H])C([H])([H])[H])N([H])[H])c([H])c1[H]


 82 84  0  0  0  0  0  0  0  0999 V2000
   45.3265  -10.1737   33.8347 C   0  0  0  0  0  0  0  0  0  0  0  0
   45.0553  -11.4657   33.1507 C   0  0  0  0  0  0  0  0  0  0  0  0
   43.9059  -12.0116   33.4171 O   0  0  0  0  0  0  0  0  0  0  0  0
   45.8473  -12.1665   32.2706 N   0  0  0  0  0  0  0  0  0  0  0  0
   46.7736  -11.8213   31.9520 H   0  0  0  0  0  0  0  0  0  0  0  0
   45.4321  -13.4510   31.6712 C   0  0  0  0  0  0  0  0  0  0  0  0
   45.5579  -14.5435   32.6220 C   0  0  0  0  0  0  0  0  0  0  0  0
   46.6000  -15.3014   32.4199 O   0  0  0  0  0  0  0  0  0  0  0  0
   44.7716  -14.9204   33.7031 N   0  0  0  0  0  0  0  0  0  0  0  0
   43.9044  -14.4181   33.9518 H   0  0  0  0  0  0  0  0  0  0  0  0
   45.1331  -16.0544   34.5249 C   0  0  0  0  0  0  0  0  0  0  0  0
   43.8701  -16.7596   34.9776 C   0  0  0  0  0  0  0  0  0  0  0  0
   42.8974  -16.1105   35.3626 O   0  0  0  0  0  0  0  0  0  0  0  0
   43.9017  -18.1616   34.9238 N   0  0  0  0  0  0  0  0  0  0  0  0
   44.7511  -18.6923   34.5807 H   0  0  0  0  0  0  0  0  0  0  0  0
   42.7587  -18.9624   35.3388 C   0  0  0  0  0  0  0  0  0  0  0  0
   41.9360  -19.3265   34.1508 C   0  0  0  0  0  0  0  0  0  0  0  0
   41.3634  -18.3855   33.2611 N   0  0  0  0  0  0  0  0  0  0  0  0
   41.7126  -20.5433   33.8969 O   0  0  0  0  0  0  0  0  0  0  0  0
   41.4935  -18.5689   32.2439 H   0  0  0  0  0  0  0  0  0  0  0  0
   40.8345  -17.5392   33.5495 H   0  0  0  0  0  0  0  0  0  0  0  0
   42.0402  -18.2611   36.4252 C   0  0  0  0  0  0  0  0  0  0  0  0
   41.5757  -19.1897   37.4877 C   0  0  0  0  0  0  0  0  0  0  0  0
   40.5764  -20.1449   37.4443 C   0  0  0  0  0  0  0  0  0  0  0  0
   40.4743  -20.7256   38.6546 N   0  0  0  0  0  0  0  0  0  0  0  0
   41.3738  -20.1845   39.4904 C   0  0  0  0  0  0  0  0  0  0  0  0
   41.6351  -20.4533   40.8255 C   0  0  0  0  0  0  0  0  0  0  0  0
   42.6464  -19.6993   41.4188 C   0  0  0  0  0  0  0  0  0  0  0  0
   43.3383  -18.7443   40.7068 C   0  0  0  0  0  0  0  0  0  0  0  0
   43.0700  -18.4889   39.3906 C   0  0  0  0  0  0  0  0  0  0  0  0
   42.0659  -19.2350   38.7980 C   0  0  0  0  0  0  0  0  0  0  0  0
   39.7865  -21.4871   38.8968 H   0  0  0  0  0  0  0  0  0  0  0  0
   45.9122  -15.6081   35.7463 C   0  0  0  0  0  0  0  0  0  0  0  0
   45.1586  -14.7402   36.4997 O   0  0  0  0  0  0  0  0  0  0  0  0
   45.2078  -14.9847   37.4466 H   0  0  0  0  0  0  0  0  0  0  0  0
   46.0950  -13.6865   30.3811 C   0  0  0  0  0  0  0  0  0  0  0  0
   45.4460  -14.6568   29.6241 O   0  0  0  0  0  0  0  0  0  0  0  0
   44.4849  -14.3936   29.4571 H   0  0  0  0  0  0  0  0  0  0  0  0
   44.4498   -9.1478   33.1505 N   0  0  0  0  0  0  0  0  0  0  0  0
   44.9989   -7.9822   32.6101 C   0  0  0  0  0  0  0  0  0  0  0  0
   46.2766   -7.8629   32.7640 O   0  0  0  0  0  0  0  0  0  0  0  0
   43.4405   -9.3349   33.1101 H   0  0  0  0  0  0  0  0  0  0  0  0
   44.3364   -6.9043   31.9048 C   0  0  0  0  0  0  0  0  0  0  0  0
   45.0929   -5.6338   32.0193 N   0  0  0  0  0  0  0  0  0  0  0  0
   44.4739   -4.4710   32.5884 C   0  0  0  0  0  0  0  0  0  0  0  0
   43.2723   -4.5672   32.9776 O   0  0  0  0  0  0  0  0  0  0  0  0
   46.0545   -5.6074   31.6848 H   0  0  0  0  0  0  0  0  0  0  0  0
   45.2647   -3.2373   32.6783 C   0  0  0  0  0  0  0  0  0  0  0  0
   45.8285   -3.0761   34.0212 N   0  0  0  0  0  0  0  0  0  0  0  0
   45.8726   -1.7875   34.5809 C   0  0  0  0  0  0  0  0  0  0  0  0
   45.4443   -0.7840   33.9065 O   0  0  0  0  0  0  0  0  0  0  0  0
   46.1684   -3.9023   34.5143 H   0  0  0  0  0  0  0  0  0  0  0  0
   46.3820   -1.4593   35.9208 C   0  0  0  0  0  0  0  0  0  0  0  0
   47.6656   -0.6296   35.6715 C   0  0  0  0  0  0  0  0  0  0  0  0
   46.7548   -2.6952   36.6048 N   0  0  0  0  0  0  0  0  0  0  0  0
   46.0141   -3.1756   37.7033 C   0  0  0  0  0  0  0  0  0  0  0  0
   45.0124   -2.4337   38.0417 O   0  0  0  0  0  0  0  0  0  0  0  0
   47.5753   -3.2131   36.2617 H   0  0  0  0  0  0  0  0  0  0  0  0
   46.2261   -4.3790   38.4904 C   0  0  0  0  0  0  0  0  0  0  0  0
   45.0430   -4.6666   39.2794 N   0  0  0  0  0  0  0  0  0  0  0  0
   44.2234   -4.2337   38.7952 H   0  0  0  0  0  0  0  0  0  0  0  0
   45.1499   -4.1735   40.1946 H   0  0  0  0  0  0  0  0  0  0  0  0
   46.6174   -5.6022   37.6664 C   0  0  0  0  0  0  0  0  0  0  0  0
   47.6774   -6.3256   38.4563 C   0  0  0  0  0  0  0  0  0  0  0  0
   47.8918   -7.6833   38.1890 C   0  0  0  0  0  0  0  0  0  0  0  0
   48.8337   -8.4351   38.8347 C   0  0  0  0  0  0  0  0  0  0  0  0
   49.6248   -7.8080   39.8175 C   0  0  0  0  0  0  0  0  0  0  0  0
   50.5934   -8.5376   40.4951 O   0  0  0  0  0  0  0  0  0  0  0  0
   49.4214   -6.4787   40.0852 C   0  0  0  0  0  0  0  0  0  0  0  0
   48.4550   -5.7322   39.4128 C   0  0  0  0  0  0  0  0  0  0  0  0
   50.3445   -8.9955   41.3403 H   0  0  0  0  0  0  0  0  0  0  0  0
   46.3467   -3.1739   31.6575 C   0  0  0  0  0  0  0  0  0  0  0  0
   46.2875   -2.2170   30.5545 C   0  0  0  0  0  0  0  0  0  0  0  0
   45.0068   -1.5111   30.2445 C   0  0  0  0  0  0  0  0  0  0  0  0
   47.2924   -1.0859   30.9038 C   0  0  0  0  0  0  0  0  0  0  0  0
   44.2276   -7.2097   30.3982 C   0  0  0  0  0  0  0  0  0  0  0  0
   45.3895   -6.2877   29.4016 S   0  0  0  0  0  0  0  0  0  0  0  0
   46.6981   -6.7514   29.6865 H   0  0  0  0  0  0  0  0  0  0  0  0
   44.9848  -10.1347   35.2860 C   0  0  0  0  0  0  0  0  0  0  0  0
   46.2933  -11.4284   36.9825 C   0  0  0  0  0  0  0  0  0  0  0  0
   46.1754  -10.1579   36.1800 C   0  0  0  0  0  0  0  0  0  0  0  0
   47.4694  -10.0196   35.3669 C   0  0  0  0  0  0  0  0  0  0  0  0
 80 81  1  0  0  0
 81 82  1  0  0  0
 81 79  1  0  0  0
 79  1  1  0  0  0
  1 39  1  0  0  0
 39 40  1  0  0  0
 40 41  2  0  0  0
 40 43  1  0  0  0
 43 76  1  0  0  0
 76 77  1  0  0  0
 43 44  1  0  0  0
 44 45  1  0  0  0
 45 46  2  0  0  0
 45 48  1  0  0  0
 48 72  1  0  0  0
 72 73  1  0  0  0
 73 74  1  0  0  0
 73 75  1  0  0  0
 48 49  1  0  0  0
 49 50  1  0  0  0
 50 51  2  0  0  0
 50 53  1  0  0  0
 53 54  1  0  0  0
 53 55  1  0  0  0
 55 56  1  0  0  0
 56 57  2  0  0  0
 56 59  1  0  0  0
 59 60  1  0  0  0
 59 63  1  0  0  0
 63 64  1  0  0  0
 64 65  2  0  0  0
 65 66  1  0  0  0
 66 67  2  0  0  0
 67 68  1  0  0  0
 67 69  1  0  0  0
 69 70  2  0  0  0
  1  2  1  0  0  0
  2  3  2  0  0  0
  2  4  1  0  0  0
  4  6  1  0  0  0
  6 36  1  0  0  0
 36 37  1  0  0  0
  6  7  1  0  0  0
  7  8  2  0  0  0
  7  9  1  0  0  0
  9 11  1  0  0  0
 11 33  1  0  0  0
 33 34  1  0  0  0
 11 12  1  0  0  0
 12 13  2  0  0  0
 12 14  1  0  0  0
 14 16  1  0  0  0
 16 22  1  0  0  0
 22 23  1  0  0  0
 23 24  2  0  0  0
 24 25  1  0  0  0
 25 26  1  0  0  0
 26 27  2  0  0  0
 27 28  1  0  0  0
 28 29  2  0  0  0
 29 30  1  0  0  0
 30 31  2  0  0  0
 16 17  1  0  0  0
 17 18  1  0  0  0
 17 19  2  0  0  0
 70 64  1  0  0  0
 31 23  1  0  0  0
 31 26  1  0  0  0
 39 42  1  0  0  0
 77 78  1  0  0  0
 44 47  1  0  0  0
 49 52  1  0  0  0
 55 58  1  0  0  0
 60 61  1  0  0  0
 60 62  1  0  0  0
 68 71  1  0  0  0
  4  5  1  0  0  0
 37 38  1  0  0  0
  9 10  1  0  0  0
 34 35  1  0  0  0
 14 15  1  0  0  0
 25 32  1  0  0  0
 18 20  1  0  0  0
 18 21  1  0  0  0
M  END
> <minimizedAffinity>
-7.82307

> <CNNscore>
0.2224007994

> <CNNaffinity>
6.5822477341

> <CNN_VS>
1.4638971090

> <CNNaffinity_variance>
0.6658581495

$$$$
[H]c1c(N2C([H])([H])C([H])([H])C([H])(N([H])C(=O)N([H])c3c([H])c(Cl)c([H])c([H])c3Oc3c([H])c([H])c(F)c([H])c3[H])C2([H])[H])nc(OC([H])([H])[H])c(OC([H])([H])[H])c1[H]


 36 39  0  0  0  0  0  0  0  0999 V2000
   34.2088  -13.1084   36.8428 N   0  0  0  0  0  0  0  0  0  0  0  0
   33.0664  -12.5463   37.5250 C   0  0  0  0  0  0  0  0  0  0  0  0
   32.9297  -12.9042   38.7023 O   0  0  0  0  0  0  0  0  0  0  0  0
   32.1967  -11.6699   36.8888 N   0  0  0  0  0  0  0  0  0  0  0  0
   34.3792  -12.8474   35.8500 H   0  0  0  0  0  0  0  0  0  0  0  0
   32.4112  -11.4223   35.8519 H   0  0  0  0  0  0  0  0  0  0  0  0
   31.0515  -11.0478   37.4192 C   0  0  0  0  0  0  0  0  0  0  0  0
   29.8001  -11.5768   37.4221 C   0  0  0  0  0  0  0  0  0  0  0  0
   28.6728  -10.9349   37.9562 C   0  0  0  0  0  0  0  0  0  0  0  0
   27.0898  -11.6810   37.9232 Cl  0  0  0  0  0  0  0  0  0  0  0  0
   28.8368   -9.6995   38.5098 C   0  0  0  0  0  0  0  0  0  0  0  0
   30.0815   -9.1095   38.5374 C   0  0  0  0  0  0  0  0  0  0  0  0
   31.1516   -9.7704   38.0060 C   0  0  0  0  0  0  0  0  0  0  0  0
   32.3984   -9.1574   38.0442 O   0  0  0  0  0  0  0  0  0  0  0  0
   33.0316   -8.6592   36.9344 C   0  0  0  0  0  0  0  0  0  0  0  0
   32.3568   -7.9032   35.9977 C   0  0  0  0  0  0  0  0  0  0  0  0
   32.9868   -7.4000   34.8810 C   0  0  0  0  0  0  0  0  0  0  0  0
   34.3254   -7.6271   34.6436 C   0  0  0  0  0  0  0  0  0  0  0  0
   34.9562   -7.1357   33.5463 F   0  0  0  0  0  0  0  0  0  0  0  0
   35.0118   -8.3875   35.5823 C   0  0  0  0  0  0  0  0  0  0  0  0
   34.3869   -8.8927   36.6998 C   0  0  0  0  0  0  0  0  0  0  0  0
   36.3550  -15.9562   37.1042 N   0  0  0  0  0  0  0  0  0  0  0  0
   37.3075  -14.9134   37.2671 C   0  0  0  0  0  0  0  0  0  0  0  0
   36.5588  -13.6328   37.2337 C   0  0  0  0  0  0  0  0  0  0  0  0
   35.1307  -14.0179   37.4710 C   0  0  0  0  0  0  0  0  0  0  0  0
   35.0261  -15.4373   36.9472 C   0  0  0  0  0  0  0  0  0  0  0  0
   37.1276  -20.0903   37.0169 C   0  0  0  0  0  0  0  0  0  0  0  0
   38.0216  -19.1905   36.4799 C   0  0  0  0  0  0  0  0  0  0  0  0
   37.7688  -17.8144   36.5063 C   0  0  0  0  0  0  0  0  0  0  0  0
   36.5964  -17.3844   37.0866 C   0  0  0  0  0  0  0  0  0  0  0  0
   35.7273  -18.2610   37.6088 N   0  0  0  0  0  0  0  0  0  0  0  0
   35.9724  -19.6033   37.5838 C   0  0  0  0  0  0  0  0  0  0  0  0
   38.2694  -22.0969   37.8581 C   0  0  0  0  0  0  0  0  0  0  0  0
   37.3907  -21.4513   36.9840 O   0  0  0  0  0  0  0  0  0  0  0  0
   35.0538  -20.4852   38.1323 O   0  0  0  0  0  0  0  0  0  0  0  0
   33.8248  -20.7490   37.4980 C   0  0  0  0  0  0  0  0  0  0  0  0
 33 34  1  0  0  0
 34 27  1  0  0  0
 27 28  2  0  0  0
 28 29  1  0  0  0
 29 30  2  0  0  0
 30 31  1  0  0  0
 31 32  2  0  0  0
 32 35  1  0  0  0
 35 36  1  0  0  0
 30 22  1  0  0  0
 22 23  1  0  0  0
 23 24  1  0  0  0
 24 25  1  0  0  0
 25 26  1  0  0  0
 25  1  1  0  0  0
  1  2  1  0  0  0
  2  3  2  0  0  0
  2  4  1  0  0  0
  4  7  1  0  0  0
  7  8  2  0  0  0
  8  9  1  0  0  0
  9 10  1  0  0  0
  9 11  2  0  0  0
 11 12  1  0  0  0
 12 13  2  0  0  0
 13 14  1  0  0  0
 14 15  1  0  0  0
 15 16  2  0  0  0
 16 17  1  0  0  0
 17 18  2  0  0  0
 18 19  1  0  0  0
 18 20  1  0  0  0
 20 21  2  0  0  0
 32 27  1  0  0  0
 26 22  1  0  0  0
 13  7  1  0  0  0
 21 15  1  0  0  0
  1  5  1  0  0  0
  4  6  1  0  0  0
M  END
> <minimizedAffinity>
-8.57089

> <CNNscore>
0.5671724677

> <CNNaffinity>
7.2406387329

> <CNN_VS>
4.1066908836

> <CNNaffinity_variance>
0.0956364647

$$$$
[H]c1c(N2C([H])([H])C([H])([H])C([H])(N([H])C(=O)N([H])c3c([H])c(Cl)c([H])c([H])c3Oc3c([H])c([H])c(F)c([H])c3[H])C2([H])[H])nc(OC([H])([H])[H])c(OC([H])([H])[H])c1[H]


 36 39  0  0  0  0  0  0  0  0999 V2000
   32.7613  -17.6942   35.3223 N   0  0  0  0  0  0  0  0  0  0  0  0
   33.7656  -16.7069   35.6425 C   0  0  0  0  0  0  0  0  0  0  0  0
   34.9365  -17.0884   35.5142 O   0  0  0  0  0  0  0  0  0  0  0  0
   33.4223  -15.4280   36.0621 N   0  0  0  0  0  0  0  0  0  0  0  0
   31.7571  -17.4359   35.4105 H   0  0  0  0  0  0  0  0  0  0  0  0
   32.3623  -15.1986   36.1400 H   0  0  0  0  0  0  0  0  0  0  0  0
   34.2822  -14.3690   36.4070 C   0  0  0  0  0  0  0  0  0  0  0  0
   35.6156  -14.4839   36.6405 C   0  0  0  0  0  0  0  0  0  0  0  0
   36.4520  -13.4117   36.9852 C   0  0  0  0  0  0  0  0  0  0  0  0
   38.1639  -13.6379   37.2713 Cl  0  0  0  0  0  0  0  0  0  0  0  0
   35.8969  -12.1709   37.0947 C   0  0  0  0  0  0  0  0  0  0  0  0
   34.5498  -11.9895   36.8701 C   0  0  0  0  0  0  0  0  0  0  0  0
   33.7726  -13.0615   36.5367 C   0  0  0  0  0  0  0  0  0  0  0  0
   32.4161  -12.8566   36.3142 O   0  0  0  0  0  0  0  0  0  0  0  0
   31.5389  -12.4650   37.2930 C   0  0  0  0  0  0  0  0  0  0  0  0
   31.5108  -13.0843   38.5258 C   0  0  0  0  0  0  0  0  0  0  0  0
   30.6324  -12.6960   39.5131 C   0  0  0  0  0  0  0  0  0  0  0  0
   29.7361  -11.6671   39.3179 C   0  0  0  0  0  0  0  0  0  0  0  0
   28.8662  -11.2762   40.2842 F   0  0  0  0  0  0  0  0  0  0  0  0
   29.7584  -11.0385   38.0790 C   0  0  0  0  0  0  0  0  0  0  0  0
   30.6341  -11.4228   37.0891 C   0  0  0  0  0  0  0  0  0  0  0  0
   32.7367  -21.2692   35.3799 N   0  0  0  0  0  0  0  0  0  0  0  0
   32.0920  -21.0380   34.1342 C   0  0  0  0  0  0  0  0  0  0  0  0
   32.0640  -19.5691   33.9262 C   0  0  0  0  0  0  0  0  0  0  0  0
   33.0808  -19.0274   34.8837 C   0  0  0  0  0  0  0  0  0  0  0  0
   33.1186  -20.0390   36.0130 C   0  0  0  0  0  0  0  0  0  0  0  0
   33.4909  -24.9984   37.1742 C   0  0  0  0  0  0  0  0  0  0  0  0
   32.4146  -24.8211   36.3331 C   0  0  0  0  0  0  0  0  0  0  0  0
   32.1595  -23.5824   35.7342 C   0  0  0  0  0  0  0  0  0  0  0  0
   33.0185  -22.5423   36.0110 C   0  0  0  0  0  0  0  0  0  0  0  0
   34.0654  -22.7161   36.8297 N   0  0  0  0  0  0  0  0  0  0  0  0
   34.3155  -23.9236   37.4145 C   0  0  0  0  0  0  0  0  0  0  0  0
   33.1983  -26.6273   38.9905 C   0  0  0  0  0  0  0  0  0  0  0  0
   33.7320  -26.2314   37.7611 O   0  0  0  0  0  0  0  0  0  0  0  0
   35.4068  -24.0721   38.2569 O   0  0  0  0  0  0  0  0  0  0  0  0
   35.4942  -23.3653   39.4715 C   0  0  0  0  0  0  0  0  0  0  0  0
 33 34  1  0  0  0
 34 27  1  0  0  0
 27 28  2  0  0  0
 28 29  1  0  0  0
 29 30  2  0  0  0
 30 31  1  0  0  0
 31 32  2  0  0  0
 32 35  1  0  0  0
 35 36  1  0  0  0
 30 22  1  0  0  0
 22 23  1  0  0  0
 23 24  1  0  0  0
 24 25  1  0  0  0
 25 26  1  0  0  0
 25  1  1  0  0  0
  1  2  1  0  0  0
  2  3  2  0  0  0
  2  4  1  0  0  0
  4  7  1  0  0  0
  7  8  2  0  0  0
  8  9  1  0  0  0
  9 10  1  0  0  0
  9 11  2  0  0  0
 11 12  1  0  0  0
 12 13  2  0  0  0
 13 14  1  0  0  0
 14 15  1  0  0  0
 15 16  2  0  0  0
 16 17  1  0  0  0
 17 18  2  0  0  0
 18 19  1  0  0  0
 18 20  1  0  0  0
 20 21  2  0  0  0
 32 27  1  0  0  0
 26 22  1  0  0  0
 13  7  1  0  0  0
 21 15  1  0  0  0
  1  5  1  0  0  0
  4  6  1  0  0  0
M  END
> <minimizedAffinity>
-7.29107

> <CNNscore>
0.3689377308

> <CNNaffinity>
6.0368556976

> <CNN_VS>
2.2272238731

> <CNNaffinity_variance>
0.1254225671

$$$$
[H]c1c(N2C([H])([H])C([H])([H])C([H])(N([H])C(=O)N([H])c3c([H])c(Cl)c([H])c([H])c3Oc3c([H])c([H])c(F)c([H])c3[H])C2([H])[H])nc(OC([H])([H])[H])c(OC([H])([H])[H])c1[H]


 36 39  0  0  0  0  0  0  0  0999 V2000
   36.1827  -17.5768   37.4883 N   0  0  0  0  0  0  0  0  0  0  0  0
   35.7700  -18.9563   37.3742 C   0  0  0  0  0  0  0  0  0  0  0  0
   34.8607  -19.1665   36.5606 O   0  0  0  0  0  0  0  0  0  0  0  0
   36.3626  -19.9590   38.1309 N   0  0  0  0  0  0  0  0  0  0  0  0
   36.9428  -17.3338   38.1561 H   0  0  0  0  0  0  0  0  0  0  0  0
   37.1536  -19.6628   38.8157 H   0  0  0  0  0  0  0  0  0  0  0  0
   36.0685  -21.3350   38.1287 C   0  0  0  0  0  0  0  0  0  0  0  0
   36.6282  -22.2566   37.3023 C   0  0  0  0  0  0  0  0  0  0  0  0
   36.3164  -23.6243   37.3184 C   0  0  0  0  0  0  0  0  0  0  0  0
   37.0806  -24.7532   36.2206 Cl  0  0  0  0  0  0  0  0  0  0  0  0
   35.3922  -24.0637   38.2198 C   0  0  0  0  0  0  0  0  0  0  0  0
   34.7890  -23.1777   39.0853 C   0  0  0  0  0  0  0  0  0  0  0  0
   35.1226  -21.8547   39.0349 C   0  0  0  0  0  0  0  0  0  0  0  0
   34.5023  -20.9778   39.9170 O   0  0  0  0  0  0  0  0  0  0  0  0
   35.0018  -20.6715   41.1569 C   0  0  0  0  0  0  0  0  0  0  0  0
   34.4673  -19.6520   41.9179 C   0  0  0  0  0  0  0  0  0  0  0  0
   34.9642  -19.3393   43.1638 C   0  0  0  0  0  0  0  0  0  0  0  0
   36.0223  -20.0311   43.7133 C   0  0  0  0  0  0  0  0  0  0  0  0
   36.5197  -19.7313   44.9406 F   0  0  0  0  0  0  0  0  0  0  0  0
   36.5659  -21.0593   42.9531 C   0  0  0  0  0  0  0  0  0  0  0  0
   36.0730  -21.3756   41.7075 C   0  0  0  0  0  0  0  0  0  0  0  0
   35.1914  -14.2261   36.7302 N   0  0  0  0  0  0  0  0  0  0  0  0
   36.1010  -14.4619   35.6633 C   0  0  0  0  0  0  0  0  0  0  0  0
   36.5794  -15.8596   35.8018 C   0  0  0  0  0  0  0  0  0  0  0  0
   35.5919  -16.5130   36.7195 C   0  0  0  0  0  0  0  0  0  0  0  0
   35.0564  -15.3798   37.5733 C   0  0  0  0  0  0  0  0  0  0  0  0
   33.0943  -10.6655   37.5169 C   0  0  0  0  0  0  0  0  0  0  0  0
   34.3444  -10.6391   36.9390 C   0  0  0  0  0  0  0  0  0  0  0  0
   35.0460  -11.8209   36.6758 C   0  0  0  0  0  0  0  0  0  0  0  0
   34.4484  -13.0150   37.0122 C   0  0  0  0  0  0  0  0  0  0  0  0
   33.2320  -13.0393   37.5744 N   0  0  0  0  0  0  0  0  0  0  0  0
   32.5465  -11.8877   37.8318 C   0  0  0  0  0  0  0  0  0  0  0  0
   32.4898   -8.3485   36.9654 C   0  0  0  0  0  0  0  0  0  0  0  0
   32.4101   -9.4867   37.7723 O   0  0  0  0  0  0  0  0  0  0  0  0
   31.2896  -11.9454   38.4144 O   0  0  0  0  0  0  0  0  0  0  0  0
   30.9299  -13.0012   39.2737 C   0  0  0  0  0  0  0  0  0  0  0  0
 33 34  1  0  0  0
 34 27  1  0  0  0
 27 28  2  0  0  0
 28 29  1  0  0  0
 29 30  2  0  0  0
 30 31  1  0  0  0
 31 32  2  0  0  0
 32 35  1  0  0  0
 35 36  1  0  0  0
 30 22  1  0  0  0
 22 23  1  0  0  0
 23 24  1  0  0  0
 24 25  1  0  0  0
 25 26  1  0  0  0
 25  1  1  0  0  0
  1  2  1  0  0  0
  2  3  2  0  0  0
  2  4  1  0  0  0
  4  7  1  0  0  0
  7  8  2  0  0  0
  8  9  1  0  0  0
  9 10  1  0  0  0
  9 11  2  0  0  0
 11 12  1  0  0  0
 12 13  2  0  0  0
 13 14  1  0  0  0
 14 15  1  0  0  0
 15 16  2  0  0  0
 16 17  1  0  0  0
 17 18  2  0  0  0
 18 19  1  0  0  0
 18 20  1  0  0  0
 20 21  2  0  0  0
 32 27  1  0  0  0
 26 22  1  0  0  0
 13  7  1  0  0  0
 21 15  1  0  0  0
  1  5  1  0  0  0
  4  6  1  0  0  0
M  END
> <minimizedAffinity>
-5.73792

> <CNNscore>
0.3195980489

> <CNNaffinity>
5.8305339813

> <CNN_VS>
1.8634272814

> <CNNaffinity_variance>
0.2701845765

$$$$
[H]c1c(N2C([H])([H])C([H])([H])C([H])(N([H])C(=O)N([H])c3c([H])c(Cl)c([H])c([H])c3Oc3c([H])c([H])c(F)c([H])c3[H])C2([H])[H])nc(OC([H])([H])[H])c(OC([H])([H])[H])c1[H]


 36 39  0  0  0  0  0  0  0  0999 V2000
   36.0224  -16.5056   36.5631 N   0  0  0  0  0  0  0  0  0  0  0  0
   35.0095  -17.5321   36.4814 C   0  0  0  0  0  0  0  0  0  0  0  0
   33.8940  -17.1406   36.1137 O   0  0  0  0  0  0  0  0  0  0  0  0
   35.2870  -18.8561   36.7965 N   0  0  0  0  0  0  0  0  0  0  0  0
   36.9819  -16.7701   36.8668 H   0  0  0  0  0  0  0  0  0  0  0  0
   36.3020  -19.0903   37.1084 H   0  0  0  0  0  0  0  0  0  0  0  0
   34.4106  -19.9564   36.7652 C   0  0  0  0  0  0  0  0  0  0  0  0
   33.8082  -20.4496   35.6519 C   0  0  0  0  0  0  0  0  0  0  0  0
   32.9357  -21.5482   35.6472 C   0  0  0  0  0  0  0  0  0  0  0  0
   32.1964  -22.1271   34.1700 Cl  0  0  0  0  0  0  0  0  0  0  0  0
   32.6707  -22.1655   36.8339 C   0  0  0  0  0  0  0  0  0  0  0  0
   33.2510  -21.7123   37.9983 C   0  0  0  0  0  0  0  0  0  0  0  0
   34.0945  -20.6394   37.9567 C   0  0  0  0  0  0  0  0  0  0  0  0
   34.6694  -20.1984   39.1428 O   0  0  0  0  0  0  0  0  0  0  0  0
   35.7085  -20.8413   39.7655 C   0  0  0  0  0  0  0  0  0  0  0  0
   36.9003  -21.0843   39.1138 C   0  0  0  0  0  0  0  0  0  0  0  0
   37.9477  -21.7294   39.7334 C   0  0  0  0  0  0  0  0  0  0  0  0
   37.8569  -22.1649   41.0380 C   0  0  0  0  0  0  0  0  0  0  0  0
   38.8832  -22.8015   41.6583 F   0  0  0  0  0  0  0  0  0  0  0  0
   36.6599  -21.9238   41.7010 C   0  0  0  0  0  0  0  0  0  0  0  0
   35.6102  -21.2796   41.0864 C   0  0  0  0  0  0  0  0  0  0  0  0
   34.7557  -13.1968   37.0448 N   0  0  0  0  0  0  0  0  0  0  0  0
   36.1510  -12.9255   37.0172 C   0  0  0  0  0  0  0  0  0  0  0  0
   36.8392  -14.2163   36.7688 C   0  0  0  0  0  0  0  0  0  0  0  0
   35.7706  -15.1250   36.2431 C   0  0  0  0  0  0  0  0  0  0  0  0
   34.4855  -14.5926   36.8474 C   0  0  0  0  0  0  0  0  0  0  0  0
   31.5569  -10.5258   37.6178 C   0  0  0  0  0  0  0  0  0  0  0  0
   31.3564  -11.8883   37.6449 C   0  0  0  0  0  0  0  0  0  0  0  0
   32.4173  -12.7807   37.4545 C   0  0  0  0  0  0  0  0  0  0  0  0
   33.6718  -12.2556   37.2385 C   0  0  0  0  0  0  0  0  0  0  0  0
   33.8656  -10.9296   37.2122 N   0  0  0  0  0  0  0  0  0  0  0  0
   32.8320  -10.0580   37.3977 C   0  0  0  0  0  0  0  0  0  0  0  0
   29.2643  -10.0290   38.3492 C   0  0  0  0  0  0  0  0  0  0  0  0
   30.4966   -9.6527   37.8080 O   0  0  0  0  0  0  0  0  0  0  0  0
   33.0643   -8.6914   37.3651 O   0  0  0  0  0  0  0  0  0  0  0  0
   33.8074   -8.1008   36.3252 C   0  0  0  0  0  0  0  0  0  0  0  0
 33 34  1  0  0  0
 34 27  1  0  0  0
 27 28  2  0  0  0
 28 29  1  0  0  0
 29 30  2  0  0  0
 30 31  1  0  0  0
 31 32  2  0  0  0
 32 35  1  0  0  0
 35 36  1  0  0  0
 30 22  1  0  0  0
 22 23  1  0  0  0
 23 24  1  0  0  0
 24 25  1  0  0  0
 25 26  1  0  0  0
 25  1  1  0  0  0
  1  2  1  0  0  0
  2  3  2  0  0  0
  2  4  1  0  0  0
  4  7  1  0  0  0
  7  8  2  0  0  0
  8  9  1  0  0  0
  9 10  1  0  0  0
  9 11  2  0  0  0
 11 12  1  0  0  0
 12 13  2  0  0  0
 13 14  1  0  0  0
 14 15  1  0  0  0
 15 16  2  0  0  0
 16 17  1  0  0  0
 17 18  2  0  0  0
 18 19  1  0  0  0
 18 20  1  0  0  0
 20 21  2  0  0  0
 32 27  1  0  0  0
 26 22  1  0  0  0
 13  7  1  0  0  0
 21 15  1  0  0  0
  1  5  1  0  0  0
  4  6  1  0  0  0
M  END
> <minimizedAffinity>
-6.97295

> <CNNscore>
0.3009077609

> <CNNaffinity>
6.0872941017

> <CNN_VS>
1.8317140341

> <CNNaffinity_variance>
0.1095689312

$$$$
[H]c1c(N2C([H])([H])C([H])([H])C([H])(N([H])C(=O)N([H])c3c([H])c(Cl)c([H])c([H])c3Oc3c([H])c([H])c(F)c([H])c3[H])C2([H])[H])nc(OC([H])([H])[H])c(OC([H])([H])[H])c1[H]


 36 39  0  0  0  0  0  0  0  0999 V2000
   38.3807  -19.8993   34.8923 N   0  0  0  0  0  0  0  0  0  0  0  0
   39.0840  -20.8811   35.6845 C   0  0  0  0  0  0  0  0  0  0  0  0
   38.5396  -21.1787   36.7560 O   0  0  0  0  0  0  0  0  0  0  0  0
   40.2822  -21.4389   35.2575 N   0  0  0  0  0  0  0  0  0  0  0  0
   38.7867  -19.6056   33.9803 H   0  0  0  0  0  0  0  0  0  0  0  0
   40.6715  -21.1057   34.2985 H   0  0  0  0  0  0  0  0  0  0  0  0
   41.0751  -22.3973   35.9154 C   0  0  0  0  0  0  0  0  0  0  0  0
   41.0187  -23.7389   35.7092 C   0  0  0  0  0  0  0  0  0  0  0  0
   41.8196  -24.6752   36.3801 C   0  0  0  0  0  0  0  0  0  0  0  0
   41.6897  -26.3911   36.0603 Cl  0  0  0  0  0  0  0  0  0  0  0  0
   42.7149  -24.2153   37.3002 C   0  0  0  0  0  0  0  0  0  0  0  0
   42.8196  -22.8653   37.5541 C   0  0  0  0  0  0  0  0  0  0  0  0
   42.0201  -21.9891   36.8778 C   0  0  0  0  0  0  0  0  0  0  0  0
   42.1420  -20.6314   37.1490 O   0  0  0  0  0  0  0  0  0  0  0  0
   42.1835  -20.1135   38.4182 C   0  0  0  0  0  0  0  0  0  0  0  0
   43.2184  -19.2994   38.8312 C   0  0  0  0  0  0  0  0  0  0  0  0
   43.2661  -18.7761   40.1044 C   0  0  0  0  0  0  0  0  0  0  0  0
   42.2802  -19.0402   41.0307 C   0  0  0  0  0  0  0  0  0  0  0  0
   42.3173  -18.5294   42.2882 F   0  0  0  0  0  0  0  0  0  0  0  0
   41.2347  -19.8591   40.6223 C   0  0  0  0  0  0  0  0  0  0  0  0
   41.1823  -20.3846   39.3512 C   0  0  0  0  0  0  0  0  0  0  0  0
   35.9795  -17.2898   35.3504 N   0  0  0  0  0  0  0  0  0  0  0  0
   35.2547  -18.1409   34.4720 C   0  0  0  0  0  0  0  0  0  0  0  0
   36.1084  -19.3268   34.2143 C   0  0  0  0  0  0  0  0  0  0  0  0
   37.1372  -19.3018   35.3030 C   0  0  0  0  0  0  0  0  0  0  0  0
   37.2671  -17.8364   35.6717 C   0  0  0  0  0  0  0  0  0  0  0  0
   34.6782  -13.6217   36.9462 C   0  0  0  0  0  0  0  0  0  0  0  0
   33.7763  -14.5473   36.4696 C   0  0  0  0  0  0  0  0  0  0  0  0
   34.2045  -15.7687   35.9375 C   0  0  0  0  0  0  0  0  0  0  0  0
   35.5581  -16.0194   35.9041 C   0  0  0  0  0  0  0  0  0  0  0  0
   36.4346  -15.1178   36.3682 N   0  0  0  0  0  0  0  0  0  0  0  0
   36.0187  -13.9263   36.8874 C   0  0  0  0  0  0  0  0  0  0  0  0
   33.0105  -12.2447   38.1126 C   0  0  0  0  0  0  0  0  0  0  0  0
   34.2402  -12.4152   37.4709 O   0  0  0  0  0  0  0  0  0  0  0  0
   36.9498  -13.0139   37.3597 O   0  0  0  0  0  0  0  0  0  0  0  0
   38.2834  -13.3920   37.6070 C   0  0  0  0  0  0  0  0  0  0  0  0
 33 34  1  0  0  0
 34 27  1  0  0  0
 27 28  2  0  0  0
 28 29  1  0  0  0
 29 30  2  0  0  0
 30 31  1  0  0  0
 31 32  2  0  0  0
 32 35  1  0  0  0
 35 36  1  0  0  0
 30 22  1  0  0  0
 22 23  1  0  0  0
 23 24  1  0  0  0
 24 25  1  0  0  0
 25 26  1  0  0  0
 25  1  1  0  0  0
  1  2  1  0  0  0
  2  3  2  0  0  0
  2  4  1  0  0  0
  4  7  1  0  0  0
  7  8  2  0  0  0
  8  9  1  0  0  0
  9 10  1  0  0  0
  9 11  2  0  0  0
 11 12  1  0  0  0
 12 13  2  0  0  0
 13 14  1  0  0  0
 14 15  1  0  0  0
 15 16  2  0  0  0
 16 17  1  0  0  0
 17 18  2  0  0  0
 18 19  1  0  0  0
 18 20  1  0  0  0
 20 21  2  0  0  0
 32 27  1  0  0  0
 26 22  1  0  0  0
 13  7  1  0  0  0
 21 15  1  0  0  0
  1  5  1  0  0  0
  4  6  1  0  0  0
M  END
> <minimizedAffinity>
-6.67070

> <CNNscore>
0.2673540413

> <CNNaffinity>
5.8201475143

> <CNN_VS>
1.5560399294

> <CNNaffinity_variance>
0.1016408578

$$$$
[H]c1c(N2C([H])([H])C([H])([H])C([H])(N([H])C(=O)N([H])c3c([H])c(Cl)c([H])c([H])c3Oc3c([H])c([H])c(F)c([H])c3[H])C2([H])[H])nc(OC([H])([H])[H])c(OC([H])([H])[H])c1[H]


 36 39  0  0  0  0  0  0  0  0999 V2000
   32.5783  -18.9439   34.1106 N   0  0  0  0  0  0  0  0  0  0  0  0
   33.0771  -18.0941   35.1666 C   0  0  0  0  0  0  0  0  0  0  0  0
   32.5163  -18.2337   36.2616 O   0  0  0  0  0  0  0  0  0  0  0  0
   34.1113  -17.1927   34.9493 N   0  0  0  0  0  0  0  0  0  0  0  0
   33.0076  -18.8743   33.1652 H   0  0  0  0  0  0  0  0  0  0  0  0
   34.5327  -17.1523   33.9477 H   0  0  0  0  0  0  0  0  0  0  0  0
   34.6972  -16.3070   35.8723 C   0  0  0  0  0  0  0  0  0  0  0  0
   34.2045  -15.0876   36.2126 C   0  0  0  0  0  0  0  0  0  0  0  0
   34.8092  -14.2211   37.1355 C   0  0  0  0  0  0  0  0  0  0  0  0
   34.1136  -12.6626   37.5236 Cl  0  0  0  0  0  0  0  0  0  0  0  0
   35.9672  -14.6229   37.7332 C   0  0  0  0  0  0  0  0  0  0  0  0
   36.5171  -15.8491   37.4299 C   0  0  0  0  0  0  0  0  0  0  0  0
   35.8947  -16.6609   36.5255 C   0  0  0  0  0  0  0  0  0  0  0  0
   36.4664  -17.8938   36.2340 O   0  0  0  0  0  0  0  0  0  0  0  0
   36.5435  -18.9248   37.1351 C   0  0  0  0  0  0  0  0  0  0  0  0
   37.6845  -19.6910   37.2581 C   0  0  0  0  0  0  0  0  0  0  0  0
   37.7685  -20.7278   38.1610 C   0  0  0  0  0  0  0  0  0  0  0  0
   36.7145  -21.0517   38.9881 C   0  0  0  0  0  0  0  0  0  0  0  0
   36.7867  -22.0714   39.8816 F   0  0  0  0  0  0  0  0  0  0  0  0
   35.5620  -20.2846   38.8702 C   0  0  0  0  0  0  0  0  0  0  0  0
   35.4730  -19.2476   37.9695 C   0  0  0  0  0  0  0  0  0  0  0  0
   30.5076  -21.2520   35.8908 N   0  0  0  0  0  0  0  0  0  0  0  0
   29.5430  -20.2631   35.5552 C   0  0  0  0  0  0  0  0  0  0  0  0
   30.2420  -19.2304   34.7510 C   0  0  0  0  0  0  0  0  0  0  0  0
   31.5097  -19.8893   34.3004 C   0  0  0  0  0  0  0  0  0  0  0  0
   31.8042  -20.9225   35.3709 C   0  0  0  0  0  0  0  0  0  0  0  0
   29.9804  -24.7610   38.1501 C   0  0  0  0  0  0  0  0  0  0  0  0
   30.9791  -23.8634   38.4572 C   0  0  0  0  0  0  0  0  0  0  0  0
   31.1585  -22.6950   37.7083 C   0  0  0  0  0  0  0  0  0  0  0  0
   30.3049  -22.4677   36.6520 C   0  0  0  0  0  0  0  0  0  0  0  0
   29.3336  -23.3420   36.3541 N   0  0  0  0  0  0  0  0  0  0  0  0
   29.1573  -24.4819   37.0834 C   0  0  0  0  0  0  0  0  0  0  0  0
   29.3607  -25.9267   40.2225 C   0  0  0  0  0  0  0  0  0  0  0  0
   29.8138  -25.9151   38.9005 O   0  0  0  0  0  0  0  0  0  0  0  0
   28.1433  -25.3671   36.7506 O   0  0  0  0  0  0  0  0  0  0  0  0
   27.8538  -25.6756   35.4077 C   0  0  0  0  0  0  0  0  0  0  0  0
 33 34  1  0  0  0
 34 27  1  0  0  0
 27 28  2  0  0  0
 28 29  1  0  0  0
 29 30  2  0  0  0
 30 31  1  0  0  0
 31 32  2  0  0  0
 32 35  1  0  0  0
 35 36  1  0  0  0
 30 22  1  0  0  0
 22 23  1  0  0  0
 23 24  1  0  0  0
 24 25  1  0  0  0
 25 26  1  0  0  0
 25  1  1  0  0  0
  1  2  1  0  0  0
  2  3  2  0  0  0
  2  4  1  0  0  0
  4  7  1  0  0  0
  7  8  2  0  0  0
  8  9  1  0  0  0
  9 10  1  0  0  0
  9 11  2  0  0  0
 11 12  1  0  0  0
 12 13  2  0  0  0
 13 14  1  0  0  0
 14 15  1  0  0  0
 15 16  2  0  0  0
 16 17  1  0  0  0
 17 18  2  0  0  0
 18 19  1  0  0  0
 18 20  1  0  0  0
 20 21  2  0  0  0
 32 27  1  0  0  0
 26 22  1  0  0  0
 13  7  1  0  0  0
 21 15  1  0  0  0
  1  5  1  0  0  0
  4  6  1  0  0  0
M  END
> <minimizedAffinity>
-6.76745

> <CNNscore>
0.2606780529

> <CNNaffinity>
5.4309883118

> <CNN_VS>
1.4157394171

> <CNNaffinity_variance>
0.7094191909

$$$$
[H]c1c(N2C([H])([H])C([H])([H])C([H])(N([H])C(=O)N([H])c3c([H])c(Cl)c([H])c([H])c3Oc3c([H])c([H])c(F)c([H])c3[H])C2([H])[H])nc(OC([H])([H])[H])c(OC([H])([H])[H])c1[H]


 36 39  0  0  0  0  0  0  0  0999 V2000
   38.3975  -20.5929   36.3086 N   0  0  0  0  0  0  0  0  0  0  0  0
   37.8473  -19.2582   36.3518 C   0  0  0  0  0  0  0  0  0  0  0  0
   38.6699  -18.3580   36.5657 O   0  0  0  0  0  0  0  0  0  0  0  0
   36.4913  -19.0228   36.1645 N   0  0  0  0  0  0  0  0  0  0  0  0
   37.7575  -21.3944   36.1332 H   0  0  0  0  0  0  0  0  0  0  0  0
   35.8574  -19.8875   35.9828 H   0  0  0  0  0  0  0  0  0  0  0  0
   35.8157  -17.7886   36.1793 C   0  0  0  0  0  0  0  0  0  0  0  0
   36.2300  -16.6741   36.8365 C   0  0  0  0  0  0  0  0  0  0  0  0
   35.5367  -15.4545   36.8374 C   0  0  0  0  0  0  0  0  0  0  0  0
   36.1342  -14.0594   37.7093 Cl  0  0  0  0  0  0  0  0  0  0  0  0
   34.3705  -15.3759   36.1350 C   0  0  0  0  0  0  0  0  0  0  0  0
   33.8975  -16.4721   35.4476 C   0  0  0  0  0  0  0  0  0  0  0  0
   34.6048  -17.6398   35.4740 C   0  0  0  0  0  0  0  0  0  0  0  0
   34.1100  -18.7336   34.7736 O   0  0  0  0  0  0  0  0  0  0  0  0
   32.9194  -19.3465   35.0693 C   0  0  0  0  0  0  0  0  0  0  0  0
   32.8175  -20.2694   36.0901 C   0  0  0  0  0  0  0  0  0  0  0  0
   31.6248  -20.8885   36.3922 C   0  0  0  0  0  0  0  0  0  0  0  0
   30.4715  -20.6161   35.6881 C   0  0  0  0  0  0  0  0  0  0  0  0
   29.2907  -21.2204   35.9777 F   0  0  0  0  0  0  0  0  0  0  0  0
   30.5660  -19.6877   34.6587 C   0  0  0  0  0  0  0  0  0  0  0  0
   31.7555  -19.0663   34.3528 C   0  0  0  0  0  0  0  0  0  0  0  0
   41.3232  -21.7173   38.0294 N   0  0  0  0  0  0  0  0  0  0  0  0
   41.3091  -22.6330   36.9420 C   0  0  0  0  0  0  0  0  0  0  0  0
   40.1578  -22.2663   36.0807 C   0  0  0  0  0  0  0  0  0  0  0  0
   39.7967  -20.8732   36.4971 C   0  0  0  0  0  0  0  0  0  0  0  0
   40.2387  -20.7809   37.9449 C   0  0  0  0  0  0  0  0  0  0  0  0
   44.1251  -21.5292   41.1613 C   0  0  0  0  0  0  0  0  0  0  0  0
   44.5248  -21.4404   39.8462 C   0  0  0  0  0  0  0  0  0  0  0  0
   43.5965  -21.5028   38.8010 C   0  0  0  0  0  0  0  0  0  0  0  0
   42.2672  -21.6561   39.1263 C   0  0  0  0  0  0  0  0  0  0  0  0
   41.8796  -21.7424   40.4065 N   0  0  0  0  0  0  0  0  0  0  0  0
   42.7837  -21.6817   41.4269 C   0  0  0  0  0  0  0  0  0  0  0  0
   45.5569  -22.5863   42.8555 C   0  0  0  0  0  0  0  0  0  0  0  0
   45.0557  -21.4659   42.1874 O   0  0  0  0  0  0  0  0  0  0  0  0
   42.3517  -21.7739   42.7412 O   0  0  0  0  0  0  0  0  0  0  0  0
   41.6671  -22.9124   43.2076 C   0  0  0  0  0  0  0  0  0  0  0  0
 33 34  1  0  0  0
 34 27  1  0  0  0
 27 28  2  0  0  0
 28 29  1  0  0  0
 29 30  2  0  0  0
 30 31  1  0  0  0
 31 32  2  0  0  0
 32 35  1  0  0  0
 35 36  1  0  0  0
 30 22  1  0  0  0
 22 23  1  0  0  0
 23 24  1  0  0  0
 24 25  1  0  0  0
 25 26  1  0  0  0
 25  1  1  0  0  0
  1  2  1  0  0  0
  2  3  2  0  0  0
  2  4  1  0  0  0
  4  7  1  0  0  0
  7  8  2  0  0  0
  8  9  1  0  0  0
  9 10  1  0  0  0
  9 11  2  0  0  0
 11 12  1  0  0  0
 12 13  2  0  0  0
 13 14  1  0  0  0
 14 15  1  0  0  0
 15 16  2  0  0  0
 16 17  1  0  0  0
 17 18  2  0  0  0
 18 19  1  0  0  0
 18 20  1  0  0  0
 20 21  2  0  0  0
 32 27  1  0  0  0
 26 22  1  0  0  0
 13  7  1  0  0  0
 21 15  1  0  0  0
  1  5  1  0  0  0
  4  6  1  0  0  0
M  END
> <minimizedAffinity>
-5.63513

> <CNNscore>
0.2498973310

> <CNNaffinity>
5.1826186180

> <CNN_VS>
1.2951225042

> <CNNaffinity_variance>
0.1826889664

$$$$
[H]c1c(N2C([H])([H])C([H])([H])C([H])(N([H])C(=O)N([H])c3c([H])c(Cl)c([H])c([H])c3Oc3c([H])c([H])c(F)c([H])c3[H])C2([H])[H])nc(OC([H])([H])[H])c(OC([H])([H])[H])c1[H]


 36 39  0  0  0  0  0  0  0  0999 V2000
   36.4669  -16.6554   37.5378 N   0  0  0  0  0  0  0  0  0  0  0  0
   35.8293  -17.9180   37.2455 C   0  0  0  0  0  0  0  0  0  0  0  0
   34.9351  -17.8690   36.3905 O   0  0  0  0  0  0  0  0  0  0  0  0
   36.2065  -19.0905   37.8876 N   0  0  0  0  0  0  0  0  0  0  0  0
   37.2265  -16.6292   38.2485 H   0  0  0  0  0  0  0  0  0  0  0  0
   37.0048  -19.0197   38.6225 H   0  0  0  0  0  0  0  0  0  0  0  0
   35.6812  -20.3836   37.7096 C   0  0  0  0  0  0  0  0  0  0  0  0
   34.3771  -20.7305   37.8668 C   0  0  0  0  0  0  0  0  0  0  0  0
   33.8780  -22.0289   37.6851 C   0  0  0  0  0  0  0  0  0  0  0  0
   32.1818  -22.3997   37.9062 Cl  0  0  0  0  0  0  0  0  0  0  0  0
   34.7534  -23.0114   37.3275 C   0  0  0  0  0  0  0  0  0  0  0  0
   36.0891  -22.7227   37.1526 C   0  0  0  0  0  0  0  0  0  0  0  0
   36.5318  -21.4447   37.3400 C   0  0  0  0  0  0  0  0  0  0  0  0
   37.8831  -21.1751   37.1583 O   0  0  0  0  0  0  0  0  0  0  0  0
   38.8607  -21.5853   38.0282 C   0  0  0  0  0  0  0  0  0  0  0  0
   39.8568  -22.4556   37.6351 C   0  0  0  0  0  0  0  0  0  0  0  0
   40.8416  -22.8714   38.5037 C   0  0  0  0  0  0  0  0  0  0  0  0
   40.8807  -22.4377   39.8114 C   0  0  0  0  0  0  0  0  0  0  0  0
   41.8468  -22.8411   40.6758 F   0  0  0  0  0  0  0  0  0  0  0  0
   39.8810  -21.5610   40.2149 C   0  0  0  0  0  0  0  0  0  0  0  0
   38.8948  -21.1425   39.3508 C   0  0  0  0  0  0  0  0  0  0  0  0
   35.1176  -13.3547   37.2736 N   0  0  0  0  0  0  0  0  0  0  0  0
   36.4790  -13.0907   36.9605 C   0  0  0  0  0  0  0  0  0  0  0  0
   37.1885  -14.3938   36.9766 C   0  0  0  0  0  0  0  0  0  0  0  0
   36.1025  -15.4221   36.8911 C   0  0  0  0  0  0  0  0  0  0  0  0
   34.8925  -14.7519   37.5129 C   0  0  0  0  0  0  0  0  0  0  0  0
   32.0036  -10.5378   37.5245 C   0  0  0  0  0  0  0  0  0  0  0  0
   33.3163  -10.1355   37.4141 C   0  0  0  0  0  0  0  0  0  0  0  0
   34.3556  -11.0688   37.3308 C   0  0  0  0  0  0  0  0  0  0  0  0
   34.0269  -12.4057   37.3623 C   0  0  0  0  0  0  0  0  0  0  0  0
   32.7491  -12.7959   37.4697 N   0  0  0  0  0  0  0  0  0  0  0  0
   31.7344  -11.8869   37.5512 C   0  0  0  0  0  0  0  0  0  0  0  0
   31.1938   -8.2215   37.6541 C   0  0  0  0  0  0  0  0  0  0  0  0
   30.9834   -9.6023   37.6063 O   0  0  0  0  0  0  0  0  0  0  0  0
   30.4224  -12.3217   37.6616 O   0  0  0  0  0  0  0  0  0  0  0  0
   29.8612  -12.6419   38.9126 C   0  0  0  0  0  0  0  0  0  0  0  0
 33 34  1  0  0  0
 34 27  1  0  0  0
 27 28  2  0  0  0
 28 29  1  0  0  0
 29 30  2  0  0  0
 30 31  1  0  0  0
 31 32  2  0  0  0
 32 35  1  0  0  0
 35 36  1  0  0  0
 30 22  1  0  0  0
 22 23  1  0  0  0
 23 24  1  0  0  0
 24 25  1  0  0  0
 25 26  1  0  0  0
 25  1  1  0  0  0
  1  2  1  0  0  0
  2  3  2  0  0  0
  2  4  1  0  0  0
  4  7  1  0  0  0
  7  8  2  0  0  0
  8  9  1  0  0  0
  9 10  1  0  0  0
  9 11  2  0  0  0
 11 12  1  0  0  0
 12 13  2  0  0  0
 13 14  1  0  0  0
 14 15  1  0  0  0
 15 16  2  0  0  0
 16 17  1  0  0  0
 17 18  2  0  0  0
 18 19  1  0  0  0
 18 20  1  0  0  0
 20 21  2  0  0  0
 32 27  1  0  0  0
 26 22  1  0  0  0
 13  7  1  0  0  0
 21 15  1  0  0  0
  1  5  1  0  0  0
  4  6  1  0  0  0
M  END
> <minimizedAffinity>
-5.69866

> <CNNscore>
0.2333677113

> <CNNaffinity>
6.0098714828

> <CNN_VS>
1.4025099277

> <CNNaffinity_variance>
0.1121116504

$$$$
[H]c1c(N2C([H])([H])C([H])([H])C([H])(N([H])C(=O)N([H])c3c([H])c(Cl)c([H])c([H])c3Oc3c([H])c([H])c(F)c([H])c3[H])C2([H])[H])nc(OC([H])([H])[H])c(OC([H])([H])[H])c1[H]


 36 39  0  0  0  0  0  0  0  0999 V2000
   33.0358  -13.8689   36.8134 N   0  0  0  0  0  0  0  0  0  0  0  0
   32.3251  -13.1404   37.8383 C   0  0  0  0  0  0  0  0  0  0  0  0
   32.9164  -13.0478   38.9221 O   0  0  0  0  0  0  0  0  0  0  0  0
   31.0708  -12.5914   37.6050 N   0  0  0  0  0  0  0  0  0  0  0  0
   32.5920  -13.9828   35.8791 H   0  0  0  0  0  0  0  0  0  0  0  0
   30.6431  -12.7322   36.6152 H   0  0  0  0  0  0  0  0  0  0  0  0
   30.2639  -11.8626   38.4981 C   0  0  0  0  0  0  0  0  0  0  0  0
   29.7857  -12.3264   39.6822 C   0  0  0  0  0  0  0  0  0  0  0  0
   28.9804  -11.5799   40.5553 C   0  0  0  0  0  0  0  0  0  0  0  0
   28.4012  -12.2467   42.0664 Cl  0  0  0  0  0  0  0  0  0  0  0  0
   28.6527  -10.3052   40.1983 C   0  0  0  0  0  0  0  0  0  0  0  0
   29.1071   -9.7774   39.0096 C   0  0  0  0  0  0  0  0  0  0  0  0
   29.8888  -10.5397   38.1897 C   0  0  0  0  0  0  0  0  0  0  0  0
   30.3366   -9.9880   36.9952 O   0  0  0  0  0  0  0  0  0  0  0  0
   31.5765   -9.4229   36.8400 C   0  0  0  0  0  0  0  0  0  0  0  0
   31.7704   -8.3197   36.0340 C   0  0  0  0  0  0  0  0  0  0  0  0
   33.0129   -7.7474   35.8738 C   0  0  0  0  0  0  0  0  0  0  0  0
   34.1265   -8.2497   36.5122 C   0  0  0  0  0  0  0  0  0  0  0  0
   35.3558   -7.6932   36.3614 F   0  0  0  0  0  0  0  0  0  0  0  0
   33.9394   -9.3605   37.3256 C   0  0  0  0  0  0  0  0  0  0  0  0
   32.6998   -9.9361   37.4890 C   0  0  0  0  0  0  0  0  0  0  0  0
   35.9377  -15.8012   36.0197 N   0  0  0  0  0  0  0  0  0  0  0  0
   36.5223  -14.5095   36.1250 C   0  0  0  0  0  0  0  0  0  0  0  0
   35.4377  -13.5723   36.5082 C   0  0  0  0  0  0  0  0  0  0  0  0
   34.3365  -14.4497   37.0198 C   0  0  0  0  0  0  0  0  0  0  0  0
   34.5291  -15.7668   36.2930 C   0  0  0  0  0  0  0  0  0  0  0  0
   37.8033  -19.4267   34.9854 C   0  0  0  0  0  0  0  0  0  0  0  0
   36.8510  -18.8608   34.1669 C   0  0  0  0  0  0  0  0  0  0  0  0
   36.2274  -17.6551   34.5070 C   0  0  0  0  0  0  0  0  0  0  0  0
   36.5947  -17.0487   35.6875 C   0  0  0  0  0  0  0  0  0  0  0  0
   37.5215  -17.6005   36.4831 N   0  0  0  0  0  0  0  0  0  0  0  0
   38.1305  -18.7763   36.1529 C   0  0  0  0  0  0  0  0  0  0  0  0
   39.5445  -20.7109   33.8205 C   0  0  0  0  0  0  0  0  0  0  0  0
   38.4134  -20.6221   34.6364 O   0  0  0  0  0  0  0  0  0  0  0  0
   39.0857  -19.3222   36.9968 O   0  0  0  0  0  0  0  0  0  0  0  0
   40.4327  -18.9172   36.9352 C   0  0  0  0  0  0  0  0  0  0  0  0
 33 34  1  0  0  0
 34 27  1  0  0  0
 27 28  2  0  0  0
 28 29  1  0  0  0
 29 30  2  0  0  0
 30 31  1  0  0  0
 31 32  2  0  0  0
 32 35  1  0  0  0
 35 36  1  0  0  0
 30 22  1  0  0  0
 22 23  1  0  0  0
 23 24  1  0  0  0
 24 25  1  0  0  0
 25 26  1  0  0  0
 25  1  1  0  0  0
  1  2  1  0  0  0
  2  3  2  0  0  0
  2  4  1  0  0  0
  4  7  1  0  0  0
  7  8  2  0  0  0
  8  9  1  0  0  0
  9 10  1  0  0  0
  9 11  2  0  0  0
 11 12  1  0  0  0
 12 13  2  0  0  0
 13 14  1  0  0  0
 14 15  1  0  0  0
 15 16  2  0  0  0
 16 17  1  0  0  0
 17 18  2  0  0  0
 18 19  1  0  0  0
 18 20  1  0  0  0
 20 21  2  0  0  0
 32 27  1  0  0  0
 26 22  1  0  0  0
 13  7  1  0  0  0
 21 15  1  0  0  0
  1  5  1  0  0  0
  4  6  1  0  0  0
M  END
> <minimizedAffinity>
-8.65668

> <CNNscore>
0.2050070614

> <CNNaffinity>
6.5357179642

> <CNN_VS>
1.3398683071

> <CNNaffinity_variance>
0.1411277950

$$$$
[H]c1c([H])c([H])c([C@]2([H])SC([H])([H])C([H])([H])N2c2nc(N([H])c3c([H])c(Cl)c4nc([H])n([H])c4c3[H])c3c(n2)C([H])([H])C([H])([H])C([H])([H])C3([H])[H])c([H])c1[H]


 34 39  0  0  0  0  0  0  0  0999 V2000
   33.5251  -18.3940   35.6011 C   0  0  0  0  0  0  0  0  0  0  0  0
   34.7035  -18.8784   35.9989 N   0  0  0  0  0  0  0  0  0  0  0  0
   34.9633  -20.1807   36.2541 C   0  0  0  0  0  0  0  0  0  0  0  0
   33.9004  -21.0218   36.0740 N   0  0  0  0  0  0  0  0  0  0  0  0
   32.6886  -20.6301   35.6797 C   0  0  0  0  0  0  0  0  0  0  0  0
   31.5492  -21.5724   35.4952 C   0  0  0  0  0  0  0  0  0  0  0  0
   30.3344  -20.8456   36.0586 C   0  0  0  0  0  0  0  0  0  0  0  0
   30.0445  -19.7028   35.1045 C   0  0  0  0  0  0  0  0  0  0  0  0
   31.1781  -18.7409   34.9956 C   0  0  0  0  0  0  0  0  0  0  0  0
   32.4807  -19.2624   35.4294 C   0  0  0  0  0  0  0  0  0  0  0  0
   36.2251  -20.6739   36.6495 N   0  0  0  0  0  0  0  0  0  0  0  0
   37.4466  -20.4136   35.9217 C   0  0  0  0  0  0  0  0  0  0  0  0
   38.3311  -19.6104   36.8714 C   0  0  0  0  0  0  0  0  0  0  0  0
   38.0394  -20.6012   38.3861 S   0  0  0  0  0  0  0  0  0  0  0  0
   36.5203  -21.4736   37.7838 C   0  0  0  0  0  0  0  0  0  0  0  0
   35.5277  -21.5354   38.8540 C   0  0  0  0  0  0  0  0  0  0  0  0
   34.7359  -22.6480   38.9903 C   0  0  0  0  0  0  0  0  0  0  0  0
   33.7907  -22.7453   40.0086 C   0  0  0  0  0  0  0  0  0  0  0  0
   33.6372  -21.7189   40.8969 C   0  0  0  0  0  0  0  0  0  0  0  0
   34.4098  -20.5997   40.7872 C   0  0  0  0  0  0  0  0  0  0  0  0
   35.3570  -20.5113   39.7624 C   0  0  0  0  0  0  0  0  0  0  0  0
   33.3497  -16.9926   35.3025 N   0  0  0  0  0  0  0  0  0  0  0  0
   32.5839  -16.7618   34.6327 H   0  0  0  0  0  0  0  0  0  0  0  0
   33.7775  -12.2090   37.2145 Cl  0  0  0  0  0  0  0  0  0  0  0  0
   34.4241  -13.7956   36.7897 C   0  0  0  0  0  0  0  0  0  0  0  0
   33.6307  -14.7679   36.2060 C   0  0  0  0  0  0  0  0  0  0  0  0
   34.1511  -16.0018   35.8686 C   0  0  0  0  0  0  0  0  0  0  0  0
   35.4670  -16.2059   36.1404 C   0  0  0  0  0  0  0  0  0  0  0  0
   36.2794  -15.2413   36.7266 C   0  0  0  0  0  0  0  0  0  0  0  0
   37.5724  -15.1974   37.0839 N   0  0  0  0  0  0  0  0  0  0  0  0
   37.8648  -13.9741   37.6290 C   0  0  0  0  0  0  0  0  0  0  0  0
   36.7245  -13.2861   37.5918 N   0  0  0  0  0  0  0  0  0  0  0  0
   35.7407  -14.0199   37.0530 C   0  0  0  0  0  0  0  0  0  0  0  0
   38.2840  -15.9714   36.9789 H   0  0  0  0  0  0  0  0  0  0  0  0
 24 25  1  0  0  0
 25 26  2  0  0  0
 26 27  1  0  0  0
 27 22  1  0  0  0
 22  1  1  0  0  0
  1  2  2  0  0  0
  2  3  1  0  0  0
  3  4  2  0  0  0
  4  5  1  0  0  0
  5  6  1  0  0  0
  6  7  1  0  0  0
  7  8  1  0  0  0
  8  9  1  0  0  0
  9 10  1  0  0  0
  3 11  1  0  0  0
 11 12  1  0  0  0
 12 13  1  0  0  0
 13 14  1  0  0  0
 14 15  1  0  0  0
 15 16  1  0  0  0
 16 17  2  0  0  0
 17 18  1  0  0  0
 18 19  2  0  0  0
 19 20  1  0  0  0
 20 21  2  0  0  0
 27 28  2  0  0  0
 28 29  1  0  0  0
 29 30  1  0  0  0
 30 31  1  0  0  0
 31 32  2  0  0  0
 32 33  1  0  0  0
 33 25  1  0  0  0
 10  1  1  0  0  0
 15 11  1  0  0  0
 21 16  1  0  0  0
 33 29  2  0  0  0
 10  5  2  0  0  0
 22 23  1  0  0  0
 30 34  1  0  0  0
M  END
> <minimizedAffinity>
-7.64380

> <CNNscore>
0.5670064092

> <CNNaffinity>
6.7136635780

> <CNN_VS>
3.8066902161

> <CNNaffinity_variance>
0.0963950008

$$$$
[H]c1c([H])c([H])c([C@]2([H])SC([H])([H])C([H])([H])N2c2nc(N([H])c3c([H])c(Cl)c4nc([H])n([H])c4c3[H])c3c(n2)C([H])([H])C([H])([H])C([H])([H])C3([H])[H])c([H])c1[H]


 34 39  0  0  0  0  0  0  0  0999 V2000
   34.4791  -17.3761   35.3489 C   0  0  0  0  0  0  0  0  0  0  0  0
   35.4141  -18.3274   35.3968 N   0  0  0  0  0  0  0  0  0  0  0  0
   36.6005  -18.2209   36.0369 C   0  0  0  0  0  0  0  0  0  0  0  0
   36.8049  -17.0247   36.6669 N   0  0  0  0  0  0  0  0  0  0  0  0
   35.9306  -16.0183   36.6739 C   0  0  0  0  0  0  0  0  0  0  0  0
   36.1848  -14.7247   37.3684 C   0  0  0  0  0  0  0  0  0  0  0  0
   35.6558  -13.6530   36.4235 C   0  0  0  0  0  0  0  0  0  0  0  0
   34.1460  -13.7970   36.4227 C   0  0  0  0  0  0  0  0  0  0  0  0
   33.6944  -15.1338   35.9420 C   0  0  0  0  0  0  0  0  0  0  0  0
   34.7140  -16.1896   35.9905 C   0  0  0  0  0  0  0  0  0  0  0  0
   37.5640  -19.2504   36.0956 N   0  0  0  0  0  0  0  0  0  0  0  0
   38.9119  -19.1105   35.5927 C   0  0  0  0  0  0  0  0  0  0  0  0
   39.8240  -19.2515   36.8083 C   0  0  0  0  0  0  0  0  0  0  0  0
   38.9892  -20.6873   37.5846 S   0  0  0  0  0  0  0  0  0  0  0  0
   37.4022  -20.5513   36.6387 C   0  0  0  0  0  0  0  0  0  0  0  0
   36.2710  -20.7830   37.5338 C   0  0  0  0  0  0  0  0  0  0  0  0
   35.1186  -21.3489   37.0487 C   0  0  0  0  0  0  0  0  0  0  0  0
   34.0276  -21.5970   37.8780 C   0  0  0  0  0  0  0  0  0  0  0  0
   34.0916  -21.2747   39.2039 C   0  0  0  0  0  0  0  0  0  0  0  0
   35.2238  -20.7109   39.7156 C   0  0  0  0  0  0  0  0  0  0  0  0
   36.3147  -20.4664   38.8758 C   0  0  0  0  0  0  0  0  0  0  0  0
   33.2171  -17.5942   34.6828 N   0  0  0  0  0  0  0  0  0  0  0  0
   32.8570  -16.7956   34.1163 H   0  0  0  0  0  0  0  0  0  0  0  0
   28.9880  -20.1218   36.2471 Cl  0  0  0  0  0  0  0  0  0  0  0  0
   30.5697  -20.0357   35.4683 C   0  0  0  0  0  0  0  0  0  0  0  0
   31.2737  -18.8467   35.3889 C   0  0  0  0  0  0  0  0  0  0  0  0
   32.5151  -18.7945   34.7863 C   0  0  0  0  0  0  0  0  0  0  0  0
   32.9990  -19.9594   34.2802 C   0  0  0  0  0  0  0  0  0  0  0  0
   32.3061  -21.1631   34.3503 C   0  0  0  0  0  0  0  0  0  0  0  0
   32.5616  -22.4157   33.9415 N   0  0  0  0  0  0  0  0  0  0  0  0
   31.5168  -23.2380   34.2754 C   0  0  0  0  0  0  0  0  0  0  0  0
   30.6313  -22.4561   34.8915 N   0  0  0  0  0  0  0  0  0  0  0  0
   31.0727  -21.1921   34.9557 C   0  0  0  0  0  0  0  0  0  0  0  0
   33.4250  -22.7513   33.4330 H   0  0  0  0  0  0  0  0  0  0  0  0
 24 25  1  0  0  0
 25 26  2  0  0  0
 26 27  1  0  0  0
 27 22  1  0  0  0
 22  1  1  0  0  0
  1  2  2  0  0  0
  2  3  1  0  0  0
  3  4  2  0  0  0
  4  5  1  0  0  0
  5  6  1  0  0  0
  6  7  1  0  0  0
  7  8  1  0  0  0
  8  9  1  0  0  0
  9 10  1  0  0  0
  3 11  1  0  0  0
 11 12  1  0  0  0
 12 13  1  0  0  0
 13 14  1  0  0  0
 14 15  1  0  0  0
 15 16  1  0  0  0
 16 17  2  0  0  0
 17 18  1  0  0  0
 18 19  2  0  0  0
 19 20  1  0  0  0
 20 21  2  0  0  0
 27 28  2  0  0  0
 28 29  1  0  0  0
 29 30  1  0  0  0
 30 31  1  0  0  0
 31 32  2  0  0  0
 32 33  1  0  0  0
 33 25  1  0  0  0
 10  1  1  0  0  0
 15 11  1  0  0  0
 21 16  1  0  0  0
 33 29  2  0  0  0
 10  5  2  0  0  0
 22 23  1  0  0  0
 30 34  1  0  0  0
M  END
> <minimizedAffinity>
-7.96625

> <CNNscore>
0.5448991060

> <CNNaffinity>
6.5215554237

> <CNN_VS>
3.5535898209

> <CNNaffinity_variance>
0.3230625987

$$$$
[H]c1c([H])c([H])c([C@]2([H])SC([H])([H])C([H])([H])N2c2nc(N([H])c3c([H])c(Cl)c4nc([H])n([H])c4c3[H])c3c(n2)C([H])([H])C([H])([H])C([H])([H])C3([H])[H])c([H])c1[H]


 34 39  0  0  0  0  0  0  0  0999 V2000
   35.0351  -18.9692   35.6787 C   0  0  0  0  0  0  0  0  0  0  0  0
   36.0022  -19.5758   36.3703 N   0  0  0  0  0  0  0  0  0  0  0  0
   35.9063  -20.8033   36.9293 C   0  0  0  0  0  0  0  0  0  0  0  0
   34.7037  -21.4257   36.7395 N   0  0  0  0  0  0  0  0  0  0  0  0
   33.6818  -20.8995   36.0642 C   0  0  0  0  0  0  0  0  0  0  0  0
   32.3817  -21.6032   35.8773 C   0  0  0  0  0  0  0  0  0  0  0  0
   31.3165  -20.5284   36.0545 C   0  0  0  0  0  0  0  0  0  0  0  0
   31.4334  -19.6138   34.8503 C   0  0  0  0  0  0  0  0  0  0  0  0
   32.7696  -18.9608   34.7497 C   0  0  0  0  0  0  0  0  0  0  0  0
   33.8426  -19.6193   35.5058 C   0  0  0  0  0  0  0  0  0  0  0  0
   36.9518  -21.4360   37.6353 N   0  0  0  0  0  0  0  0  0  0  0  0
   38.3075  -21.5252   37.1416 C   0  0  0  0  0  0  0  0  0  0  0  0
   39.1615  -20.7392   38.1327 C   0  0  0  0  0  0  0  0  0  0  0  0
   38.4151  -21.3863   39.6772 S   0  0  0  0  0  0  0  0  0  0  0  0
   36.8757  -22.0673   38.9039 C   0  0  0  0  0  0  0  0  0  0  0  0
   35.7225  -21.7669   39.7491 C   0  0  0  0  0  0  0  0  0  0  0  0
   34.7314  -22.7021   39.9129 C   0  0  0  0  0  0  0  0  0  0  0  0
   33.6265  -22.4535   40.7235 C   0  0  0  0  0  0  0  0  0  0  0  0
   33.5135  -21.2579   41.3745 C   0  0  0  0  0  0  0  0  0  0  0  0
   34.4826  -20.3083   41.2314 C   0  0  0  0  0  0  0  0  0  0  0  0
   35.5890  -20.5670   40.4164 C   0  0  0  0  0  0  0  0  0  0  0  0
   35.2415  -17.6754   35.0726 N   0  0  0  0  0  0  0  0  0  0  0  0
   35.4529  -17.6793   34.0510 H   0  0  0  0  0  0  0  0  0  0  0  0
   37.6151  -14.0956   37.9487 Cl  0  0  0  0  0  0  0  0  0  0  0  0
   36.2056  -14.7729   37.1299 C   0  0  0  0  0  0  0  0  0  0  0  0
   36.2790  -15.9636   36.4282 C   0  0  0  0  0  0  0  0  0  0  0  0
   35.1665  -16.4885   35.8006 C   0  0  0  0  0  0  0  0  0  0  0  0
   34.0122  -15.7790   35.9070 C   0  0  0  0  0  0  0  0  0  0  0  0
   33.9196  -14.5810   36.6072 C   0  0  0  0  0  0  0  0  0  0  0  0
   32.9236  -13.7164   36.8559 N   0  0  0  0  0  0  0  0  0  0  0  0
   33.3878  -12.6764   37.6187 C   0  0  0  0  0  0  0  0  0  0  0  0
   34.6791  -12.9333   37.8228 N   0  0  0  0  0  0  0  0  0  0  0  0
   35.0391  -14.0777   37.2252 C   0  0  0  0  0  0  0  0  0  0  0  0
   31.9226  -13.7930   36.5259 H   0  0  0  0  0  0  0  0  0  0  0  0
 24 25  1  0  0  0
 25 26  2  0  0  0
 26 27  1  0  0  0
 27 22  1  0  0  0
 22  1  1  0  0  0
  1  2  2  0  0  0
  2  3  1  0  0  0
  3  4  2  0  0  0
  4  5  1  0  0  0
  5  6  1  0  0  0
  6  7  1  0  0  0
  7  8  1  0  0  0
  8  9  1  0  0  0
  9 10  1  0  0  0
  3 11  1  0  0  0
 11 12  1  0  0  0
 12 13  1  0  0  0
 13 14  1  0  0  0
 14 15  1  0  0  0
 15 16  1  0  0  0
 16 17  2  0  0  0
 17 18  1  0  0  0
 18 19  2  0  0  0
 19 20  1  0  0  0
 20 21  2  0  0  0
 27 28  2  0  0  0
 28 29  1  0  0  0
 29 30  1  0  0  0
 30 31  1  0  0  0
 31 32  2  0  0  0
 32 33  1  0  0  0
 33 25  1  0  0  0
 10  1  1  0  0  0
 15 11  1  0  0  0
 21 16  1  0  0  0
 33 29  2  0  0  0
 10  5  2  0  0  0
 22 23  1  0  0  0
 30 34  1  0  0  0
M  END
> <minimizedAffinity>
-7.23852

> <CNNscore>
0.5219470263

> <CNNaffinity>
6.6413450241

> <CNN_VS>
3.4664301872

> <CNNaffinity_variance>
0.0127697363

$$$$
[H]c1c([H])c([H])c([C@]2([H])SC([H])([H])C([H])([H])N2c2nc(N([H])c3c([H])c(Cl)c4nc([H])n([H])c4c3[H])c3c(n2)C([H])([H])C([H])([H])C([H])([H])C3([H])[H])c([H])c1[H]


 34 39  0  0  0  0  0  0  0  0999 V2000
   34.6777  -18.6670   36.1186 C   0  0  0  0  0  0  0  0  0  0  0  0
   35.1915  -19.0787   37.2796 N   0  0  0  0  0  0  0  0  0  0  0  0
   34.7842  -20.1693   37.9676 C   0  0  0  0  0  0  0  0  0  0  0  0
   33.7645  -20.8670   37.3819 N   0  0  0  0  0  0  0  0  0  0  0  0
   33.1899  -20.5328   36.2263 C   0  0  0  0  0  0  0  0  0  0  0  0
   32.0775  -21.3135   35.6152 C   0  0  0  0  0  0  0  0  0  0  0  0
   31.1098  -20.2706   35.0701 C   0  0  0  0  0  0  0  0  0  0  0  0
   31.8099  -19.6169   33.8942 C   0  0  0  0  0  0  0  0  0  0  0  0
   33.0816  -18.9430   34.2823 C   0  0  0  0  0  0  0  0  0  0  0  0
   33.6577  -19.3880   35.5577 C   0  0  0  0  0  0  0  0  0  0  0  0
   35.3599  -20.6003   39.1819 N   0  0  0  0  0  0  0  0  0  0  0  0
   34.6282  -20.6842   40.4257 C   0  0  0  0  0  0  0  0  0  0  0  0
   34.6243  -22.1626   40.8048 C   0  0  0  0  0  0  0  0  0  0  0  0
   36.3837  -22.5221   40.4356 S   0  0  0  0  0  0  0  0  0  0  0  0
   36.6982  -21.0188   39.3998 C   0  0  0  0  0  0  0  0  0  0  0  0
   37.5002  -21.3801   38.2334 C   0  0  0  0  0  0  0  0  0  0  0  0
   37.3331  -22.6066   37.6406 C   0  0  0  0  0  0  0  0  0  0  0  0
   38.0706  -22.9764   36.5186 C   0  0  0  0  0  0  0  0  0  0  0  0
   38.9835  -22.1105   35.9867 C   0  0  0  0  0  0  0  0  0  0  0  0
   39.1721  -20.8839   36.5538 C   0  0  0  0  0  0  0  0  0  0  0  0
   38.4263  -20.5207   37.6794 C   0  0  0  0  0  0  0  0  0  0  0  0
   35.2084  -17.5167   35.4266 N   0  0  0  0  0  0  0  0  0  0  0  0
   35.6489  -17.7056   34.5000 H   0  0  0  0  0  0  0  0  0  0  0  0
   37.6521  -13.4460   37.4709 Cl  0  0  0  0  0  0  0  0  0  0  0  0
   36.2112  -14.2889   36.8973 C   0  0  0  0  0  0  0  0  0  0  0  0
   36.2782  -15.5762   36.3932 C   0  0  0  0  0  0  0  0  0  0  0  0
   35.1420  -16.2289   35.9574 C   0  0  0  0  0  0  0  0  0  0  0  0
   33.9710  -15.5451   36.0475 C   0  0  0  0  0  0  0  0  0  0  0  0
   33.8843  -14.2515   36.5506 C   0  0  0  0  0  0  0  0  0  0  0  0
   32.8758  -13.3868   36.7419 N   0  0  0  0  0  0  0  0  0  0  0  0
   33.3554  -12.2226   37.2838 C   0  0  0  0  0  0  0  0  0  0  0  0
   34.6688  -12.4052   37.4140 N   0  0  0  0  0  0  0  0  0  0  0  0
   35.0277  -13.6215   36.9799 C   0  0  0  0  0  0  0  0  0  0  0  0
   31.8556  -13.5453   36.5166 H   0  0  0  0  0  0  0  0  0  0  0  0
 24 25  1  0  0  0
 25 26  2  0  0  0
 26 27  1  0  0  0
 27 22  1  0  0  0
 22  1  1  0  0  0
  1  2  2  0  0  0
  2  3  1  0  0  0
  3  4  2  0  0  0
  4  5  1  0  0  0
  5  6  1  0  0  0
  6  7  1  0  0  0
  7  8  1  0  0  0
  8  9  1  0  0  0
  9 10  1  0  0  0
  3 11  1  0  0  0
 11 12  1  0  0  0
 12 13  1  0  0  0
 13 14  1  0  0  0
 14 15  1  0  0  0
 15 16  1  0  0  0
 16 17  2  0  0  0
 17 18  1  0  0  0
 18 19  2  0  0  0
 19 20  1  0  0  0
 20 21  2  0  0  0
 27 28  2  0  0  0
 28 29  1  0  0  0
 29 30  1  0  0  0
 30 31  1  0  0  0
 31 32  2  0  0  0
 32 33  1  0  0  0
 33 25  1  0  0  0
 10  1  1  0  0  0
 15 11  1  0  0  0
 21 16  1  0  0  0
 33 29  2  0  0  0
 10  5  2  0  0  0
 22 23  1  0  0  0
 30 34  1  0  0  0
M  END
> <minimizedAffinity>
-7.84400

> <CNNscore>
0.5016062260

> <CNNaffinity>
6.5587601662

> <CNN_VS>
3.2899148464

> <CNNaffinity_variance>
0.1258583367

$$$$
[H]c1c([H])c([H])c([C@]2([H])SC([H])([H])C([H])([H])N2c2nc(N([H])c3c([H])c(Cl)c4nc([H])n([H])c4c3[H])c3c(n2)C([H])([H])C([H])([H])C([H])([H])C3([H])[H])c([H])c1[H]


 34 39  0  0  0  0  0  0  0  0999 V2000
   33.7838  -18.2327   35.9230 C   0  0  0  0  0  0  0  0  0  0  0  0
   34.7901  -18.5625   36.7354 N   0  0  0  0  0  0  0  0  0  0  0  0
   35.0968  -19.8211   37.1230 C   0  0  0  0  0  0  0  0  0  0  0  0
   34.2799  -20.7916   36.6126 N   0  0  0  0  0  0  0  0  0  0  0  0
   33.2527  -20.5582   35.7954 C   0  0  0  0  0  0  0  0  0  0  0  0
   32.3788  -21.6389   35.2580 C   0  0  0  0  0  0  0  0  0  0  0  0
   30.9643  -21.0763   35.3191 C   0  0  0  0  0  0  0  0  0  0  0  0
   30.9001  -19.9776   34.2755 C   0  0  0  0  0  0  0  0  0  0  0  0
   31.8716  -18.8774   34.5361 C   0  0  0  0  0  0  0  0  0  0  0  0
   32.9843  -19.2280   35.4282 C   0  0  0  0  0  0  0  0  0  0  0  0
   36.1822  -20.1489   37.9633 N   0  0  0  0  0  0  0  0  0  0  0  0
   36.0248  -20.6675   39.3034 C   0  0  0  0  0  0  0  0  0  0  0  0
   36.6300  -22.0684   39.2788 C   0  0  0  0  0  0  0  0  0  0  0  0
   38.1475  -21.6708   38.3299 S   0  0  0  0  0  0  0  0  0  0  0  0
   37.5653  -20.0429   37.6644 C   0  0  0  0  0  0  0  0  0  0  0  0
   37.9539  -19.9138   36.2620 C   0  0  0  0  0  0  0  0  0  0  0  0
   38.3387  -21.0242   35.5530 C   0  0  0  0  0  0  0  0  0  0  0  0
   38.7006  -20.9382   34.2109 C   0  0  0  0  0  0  0  0  0  0  0  0
   38.6775  -19.7298   33.5744 C   0  0  0  0  0  0  0  0  0  0  0  0
   38.2994  -18.6079   34.2527 C   0  0  0  0  0  0  0  0  0  0  0  0
   37.9366  -18.7039   35.5997 C   0  0  0  0  0  0  0  0  0  0  0  0
   33.5588  -16.8647   35.5207 N   0  0  0  0  0  0  0  0  0  0  0  0
   32.7887  -16.7127   34.8334 H   0  0  0  0  0  0  0  0  0  0  0  0
   33.7740  -11.9821   37.2044 Cl  0  0  0  0  0  0  0  0  0  0  0  0
   34.4963  -13.5479   36.8270 C   0  0  0  0  0  0  0  0  0  0  0  0
   33.7412  -14.5888   36.3151 C   0  0  0  0  0  0  0  0  0  0  0  0
   34.3202  -15.8058   36.0139 C   0  0  0  0  0  0  0  0  0  0  0  0
   35.6539  -15.9234   36.2475 C   0  0  0  0  0  0  0  0  0  0  0  0
   36.4284  -14.8890   36.7616 C   0  0  0  0  0  0  0  0  0  0  0  0
   37.7278  -14.7566   37.0704 N   0  0  0  0  0  0  0  0  0  0  0  0
   37.9673  -13.4952   37.5506 C   0  0  0  0  0  0  0  0  0  0  0  0
   36.7888  -12.8744   37.5237 N   0  0  0  0  0  0  0  0  0  0  0  0
   35.8315  -13.6859   37.0529 C   0  0  0  0  0  0  0  0  0  0  0  0
   38.4789  -15.4937   36.9743 H   0  0  0  0  0  0  0  0  0  0  0  0
 24 25  1  0  0  0
 25 26  2  0  0  0
 26 27  1  0  0  0
 27 22  1  0  0  0
 22  1  1  0  0  0
  1  2  2  0  0  0
  2  3  1  0  0  0
  3  4  2  0  0  0
  4  5  1  0  0  0
  5  6  1  0  0  0
  6  7  1  0  0  0
  7  8  1  0  0  0
  8  9  1  0  0  0
  9 10  1  0  0  0
  3 11  1  0  0  0
 11 12  1  0  0  0
 12 13  1  0  0  0
 13 14  1  0  0  0
 14 15  1  0  0  0
 15 16  1  0  0  0
 16 17  2  0  0  0
 17 18  1  0  0  0
 18 19  2  0  0  0
 19 20  1  0  0  0
 20 21  2  0  0  0
 27 28  2  0  0  0
 28 29  1  0  0  0
 29 30  1  0  0  0
 30 31  1  0  0  0
 31 32  2  0  0  0
 32 33  1  0  0  0
 33 25  1  0  0  0
 10  1  1  0  0  0
 15 11  1  0  0  0
 21 16  1  0  0  0
 33 29  2  0  0  0
 10  5  2  0  0  0
 22 23  1  0  0  0
 30 34  1  0  0  0
M  END
> <minimizedAffinity>
-8.03101

> <CNNscore>
0.4206940234

> <CNNaffinity>
6.4978647232

> <CNN_VS>
2.7336127758

> <CNNaffinity_variance>
0.3706182241

$$$$
[H]c1c([H])c([H])c([C@]2([H])SC([H])([H])C([H])([H])N2c2nc(N([H])c3c([H])c(Cl)c4nc([H])n([H])c4c3[H])c3c(n2)C([H])([H])C([H])([H])C([H])([H])C3([H])[H])c([H])c1[H]


 34 39  0  0  0  0  0  0  0  0999 V2000
   34.7505  -18.9825   35.8118 C   0  0  0  0  0  0  0  0  0  0  0  0
   35.3730  -19.6448   36.7892 N   0  0  0  0  0  0  0  0  0  0  0  0
   34.9278  -20.7859   37.3621 C   0  0  0  0  0  0  0  0  0  0  0  0
   33.7437  -21.2525   36.8622 N   0  0  0  0  0  0  0  0  0  0  0  0
   33.0518  -20.6601   35.8887 C   0  0  0  0  0  0  0  0  0  0  0  0
   31.7616  -21.1931   35.3674 C   0  0  0  0  0  0  0  0  0  0  0  0
   30.8766  -19.9696   35.1647 C   0  0  0  0  0  0  0  0  0  0  0  0
   31.4732  -19.2038   33.9994 C   0  0  0  0  0  0  0  0  0  0  0  0
   32.8705  -18.7543   34.2597 C   0  0  0  0  0  0  0  0  0  0  0  0
   33.5667  -19.4761   35.3326 C   0  0  0  0  0  0  0  0  0  0  0  0
   35.6163  -21.4833   38.3776 N   0  0  0  0  0  0  0  0  0  0  0  0
   36.5190  -20.8472   39.3104 C   0  0  0  0  0  0  0  0  0  0  0  0
   35.8893  -21.0333   40.6881 C   0  0  0  0  0  0  0  0  0  0  0  0
   35.4115  -22.7945   40.5111 S   0  0  0  0  0  0  0  0  0  0  0  0
   35.5510  -22.8712   38.6655 C   0  0  0  0  0  0  0  0  0  0  0  0
   34.4314  -23.6318   38.1155 C   0  0  0  0  0  0  0  0  0  0  0  0
   34.5869  -24.3287   36.9435 C   0  0  0  0  0  0  0  0  0  0  0  0
   33.5447  -25.0758   36.4002 C   0  0  0  0  0  0  0  0  0  0  0  0
   32.3367  -25.1243   37.0361 C   0  0  0  0  0  0  0  0  0  0  0  0
   32.1514  -24.4420   38.2030 C   0  0  0  0  0  0  0  0  0  0  0  0
   33.2039  -23.6954   38.7417 C   0  0  0  0  0  0  0  0  0  0  0  0
   35.3242  -17.7960   35.2228 N   0  0  0  0  0  0  0  0  0  0  0  0
   35.7978  -17.9275   34.3026 H   0  0  0  0  0  0  0  0  0  0  0  0
   37.7274  -13.9605   37.7198 Cl  0  0  0  0  0  0  0  0  0  0  0  0
   36.3083  -14.7139   36.9890 C   0  0  0  0  0  0  0  0  0  0  0  0
   36.3756  -15.9640   36.3987 C   0  0  0  0  0  0  0  0  0  0  0  0
   35.2557  -16.5473   35.8397 C   0  0  0  0  0  0  0  0  0  0  0  0
   34.1003  -15.8340   35.8984 C   0  0  0  0  0  0  0  0  0  0  0  0
   34.0137  -14.5768   36.4868 C   0  0  0  0  0  0  0  0  0  0  0  0
   33.0182  -13.6956   36.6705 N   0  0  0  0  0  0  0  0  0  0  0  0
   33.4899  -12.5886   37.3270 C   0  0  0  0  0  0  0  0  0  0  0  0
   34.7852  -12.8223   37.5336 N   0  0  0  0  0  0  0  0  0  0  0  0
   35.1406  -14.0160   37.0382 C   0  0  0  0  0  0  0  0  0  0  0  0
   32.0126  -13.8047   36.3647 H   0  0  0  0  0  0  0  0  0  0  0  0
 24 25  1  0  0  0
 25 26  2  0  0  0
 26 27  1  0  0  0
 27 22  1  0  0  0
 22  1  1  0  0  0
  1  2  2  0  0  0
  2  3  1  0  0  0
  3  4  2  0  0  0
  4  5  1  0  0  0
  5  6  1  0  0  0
  6  7  1  0  0  0
  7  8  1  0  0  0
  8  9  1  0  0  0
  9 10  1  0  0  0
  3 11  1  0  0  0
 11 12  1  0  0  0
 12 13  1  0  0  0
 13 14  1  0  0  0
 14 15  1  0  0  0
 15 16  1  0  0  0
 16 17  2  0  0  0
 17 18  1  0  0  0
 18 19  2  0  0  0
 19 20  1  0  0  0
 20 21  2  0  0  0
 27 28  2  0  0  0
 28 29  1  0  0  0
 29 30  1  0  0  0
 30 31  1  0  0  0
 31 32  2  0  0  0
 32 33  1  0  0  0
 33 25  1  0  0  0
 10  1  1  0  0  0
 15 11  1  0  0  0
 21 16  1  0  0  0
 33 29  2  0  0  0
 10  5  2  0  0  0
 22 23  1  0  0  0
 30 34  1  0  0  0
M  END
> <minimizedAffinity>
-7.13056

> <CNNscore>
0.3505825400

> <CNNaffinity>
6.3440818787

> <CNN_VS>
2.2241244316

> <CNNaffinity_variance>
0.1358823478

$$$$
[H]c1c([H])c([H])c([C@]2([H])SC([H])([H])C([H])([H])N2c2nc(N([H])c3c([H])c(Cl)c4nc([H])n([H])c4c3[H])c3c(n2)C([H])([H])C([H])([H])C([H])([H])C3([H])[H])c([H])c1[H]


 34 39  0  0  0  0  0  0  0  0999 V2000
   33.7270  -19.2804   35.9887 C   0  0  0  0  0  0  0  0  0  0  0  0
   34.3160  -19.8060   37.0649 N   0  0  0  0  0  0  0  0  0  0  0  0
   33.7835  -20.7687   37.8512 C   0  0  0  0  0  0  0  0  0  0  0  0
   32.5442  -21.2001   37.4669 N   0  0  0  0  0  0  0  0  0  0  0  0
   31.8796  -20.7352   36.4088 C   0  0  0  0  0  0  0  0  0  0  0  0
   30.5277  -21.2249   36.0178 C   0  0  0  0  0  0  0  0  0  0  0  0
   29.7571  -19.9791   35.5990 C   0  0  0  0  0  0  0  0  0  0  0  0
   30.3846  -19.5096   34.3005 C   0  0  0  0  0  0  0  0  0  0  0  0
   31.8263  -19.1612   34.4497 C   0  0  0  0  0  0  0  0  0  0  0  0
   32.4862  -19.7343   35.6298 C   0  0  0  0  0  0  0  0  0  0  0  0
   34.4360  -21.3280   38.9705 N   0  0  0  0  0  0  0  0  0  0  0  0
   34.9142  -20.5456   40.0879 C   0  0  0  0  0  0  0  0  0  0  0  0
   34.1126  -21.0184   41.2975 C   0  0  0  0  0  0  0  0  0  0  0  0
   34.2158  -22.8210   40.9794 S   0  0  0  0  0  0  0  0  0  0  0  0
   34.7260  -22.6975   39.2029 C   0  0  0  0  0  0  0  0  0  0  0  0
   34.0072  -23.6927   38.4109 C   0  0  0  0  0  0  0  0  0  0  0  0
   32.8165  -24.2007   38.8667 C   0  0  0  0  0  0  0  0  0  0  0  0
   32.0986  -25.1391   38.1294 C   0  0  0  0  0  0  0  0  0  0  0  0
   32.5782  -25.5726   36.9261 C   0  0  0  0  0  0  0  0  0  0  0  0
   33.7592  -25.0860   36.4463 C   0  0  0  0  0  0  0  0  0  0  0  0
   34.4725  -24.1432   37.1929 C   0  0  0  0  0  0  0  0  0  0  0  0
   34.3912  -18.2892   35.1761 N   0  0  0  0  0  0  0  0  0  0  0  0
   34.5784  -18.5622   34.1868 H   0  0  0  0  0  0  0  0  0  0  0  0
   33.1019  -13.4115   36.3016 Cl  0  0  0  0  0  0  0  0  0  0  0  0
   34.2340  -14.7645   36.2431 C   0  0  0  0  0  0  0  0  0  0  0  0
   33.8663  -15.9941   35.7250 C   0  0  0  0  0  0  0  0  0  0  0  0
   34.7645  -17.0418   35.6751 C   0  0  0  0  0  0  0  0  0  0  0  0
   36.0117  -16.8020   36.1588 C   0  0  0  0  0  0  0  0  0  0  0  0
   36.3991  -15.5736   36.6833 C   0  0  0  0  0  0  0  0  0  0  0  0
   37.5395  -15.0962   37.2057 N   0  0  0  0  0  0  0  0  0  0  0  0
   37.3720  -13.7865   37.5740 C   0  0  0  0  0  0  0  0  0  0  0  0
   36.1114  -13.4877   37.2629 N   0  0  0  0  0  0  0  0  0  0  0  0
   35.4891  -14.5445   36.7220 C   0  0  0  0  0  0  0  0  0  0  0  0
   38.4464  -15.6236   37.3325 H   0  0  0  0  0  0  0  0  0  0  0  0
 24 25  1  0  0  0
 25 26  2  0  0  0
 26 27  1  0  0  0
 27 22  1  0  0  0
 22  1  1  0  0  0
  1  2  2  0  0  0
  2  3  1  0  0  0
  3  4  2  0  0  0
  4  5  1  0  0  0
  5  6  1  0  0  0
  6  7  1  0  0  0
  7  8  1  0  0  0
  8  9  1  0  0  0
  9 10  1  0  0  0
  3 11  1  0  0  0
 11 12  1  0  0  0
 12 13  1  0  0  0
 13 14  1  0  0  0
 14 15  1  0  0  0
 15 16  1  0  0  0
 16 17  2  0  0  0
 17 18  1  0  0  0
 18 19  2  0  0  0
 19 20  1  0  0  0
 20 21  2  0  0  0
 27 28  2  0  0  0
 28 29  1  0  0  0
 29 30  1  0  0  0
 30 31  1  0  0  0
 31 32  2  0  0  0
 32 33  1  0  0  0
 33 25  1  0  0  0
 10  1  1  0  0  0
 15 11  1  0  0  0
 21 16  1  0  0  0
 33 29  2  0  0  0
 10  5  2  0  0  0
 22 23  1  0  0  0
 30 34  1  0  0  0
M  END
> <minimizedAffinity>
-7.26245

> <CNNscore>
0.3378651142

> <CNNaffinity>
6.1789426804

> <CNN_VS>
2.0876491070

> <CNNaffinity_variance>
0.2789959013

$$$$
[H]c1c([H])c([H])c([C@]2([H])SC([H])([H])C([H])([H])N2c2nc(N([H])c3c([H])c(Cl)c4nc([H])n([H])c4c3[H])c3c(n2)C([H])([H])C([H])([H])C([H])([H])C3([H])[H])c([H])c1[H]


 34 39  0  0  0  0  0  0  0  0999 V2000
   34.6410  -17.7715   34.7948 C   0  0  0  0  0  0  0  0  0  0  0  0
   35.6526  -18.5755   34.4607 N   0  0  0  0  0  0  0  0  0  0  0  0
   36.9443  -18.3892   34.8147 C   0  0  0  0  0  0  0  0  0  0  0  0
   37.1741  -17.2753   35.5738 N   0  0  0  0  0  0  0  0  0  0  0  0
   36.2290  -16.4162   35.9558 C   0  0  0  0  0  0  0  0  0  0  0  0
   36.5127  -15.2088   36.7816 C   0  0  0  0  0  0  0  0  0  0  0  0
   35.6518  -14.1037   36.1827 C   0  0  0  0  0  0  0  0  0  0  0  0
   34.2148  -14.4622   36.5098 C   0  0  0  0  0  0  0  0  0  0  0  0
   33.7999  -15.7701   35.9273 C   0  0  0  0  0  0  0  0  0  0  0  0
   34.9041  -16.6644   35.5562 C   0  0  0  0  0  0  0  0  0  0  0  0
   37.9944  -19.2671   34.4710 N   0  0  0  0  0  0  0  0  0  0  0  0
   38.9092  -19.0266   33.3779 C   0  0  0  0  0  0  0  0  0  0  0  0
   40.2871  -18.8763   34.0168 C   0  0  0  0  0  0  0  0  0  0  0  0
   40.1778  -20.2843   35.1859 S   0  0  0  0  0  0  0  0  0  0  0  0
   38.3384  -20.4886   35.1059 C   0  0  0  0  0  0  0  0  0  0  0  0
   37.8090  -20.7361   36.4450 C   0  0  0  0  0  0  0  0  0  0  0  0
   38.6213  -20.5864   37.5410 C   0  0  0  0  0  0  0  0  0  0  0  0
   38.1442  -20.7997   38.8319 C   0  0  0  0  0  0  0  0  0  0  0  0
   36.8428  -21.1667   39.0260 C   0  0  0  0  0  0  0  0  0  0  0  0
   36.0107  -21.3234   37.9561 C   0  0  0  0  0  0  0  0  0  0  0  0
   36.4981  -21.1060   36.6637 C   0  0  0  0  0  0  0  0  0  0  0  0
   33.2818  -18.0744   34.4145 N   0  0  0  0  0  0  0  0  0  0  0  0
   32.8137  -17.3736   33.7996 H   0  0  0  0  0  0  0  0  0  0  0  0
   28.9107  -20.3660   35.9519 Cl  0  0  0  0  0  0  0  0  0  0  0  0
   30.6282  -20.3698   35.5443 C   0  0  0  0  0  0  0  0  0  0  0  0
   31.2800  -19.2158   35.1456 C   0  0  0  0  0  0  0  0  0  0  0  0
   32.6265  -19.2295   34.8396 C   0  0  0  0  0  0  0  0  0  0  0  0
   33.2664  -20.4237   34.9479 C   0  0  0  0  0  0  0  0  0  0  0  0
   32.6281  -21.5933   35.3464 C   0  0  0  0  0  0  0  0  0  0  0  0
   33.0267  -22.8617   35.5298 N   0  0  0  0  0  0  0  0  0  0  0  0
   31.9679  -23.6289   35.9410 C   0  0  0  0  0  0  0  0  0  0  0  0
   30.9282  -22.7979   36.0010 N   0  0  0  0  0  0  0  0  0  0  0  0
   31.2878  -21.5561   35.6473 C   0  0  0  0  0  0  0  0  0  0  0  0
   34.0004  -23.2458   35.3846 H   0  0  0  0  0  0  0  0  0  0  0  0
 24 25  1  0  0  0
 25 26  2  0  0  0
 26 27  1  0  0  0
 27 22  1  0  0  0
 22  1  1  0  0  0
  1  2  2  0  0  0
  2  3  1  0  0  0
  3  4  2  0  0  0
  4  5  1  0  0  0
  5  6  1  0  0  0
  6  7  1  0  0  0
  7  8  1  0  0  0
  8  9  1  0  0  0
  9 10  1  0  0  0
  3 11  1  0  0  0
 11 12  1  0  0  0
 12 13  1  0  0  0
 13 14  1  0  0  0
 14 15  1  0  0  0
 15 16  1  0  0  0
 16 17  2  0  0  0
 17 18  1  0  0  0
 18 19  2  0  0  0
 19 20  1  0  0  0
 20 21  2  0  0  0
 27 28  2  0  0  0
 28 29  1  0  0  0
 29 30  1  0  0  0
 30 31  1  0  0  0
 31 32  2  0  0  0
 32 33  1  0  0  0
 33 25  1  0  0  0
 10  1  1  0  0  0
 15 11  1  0  0  0
 21 16  1  0  0  0
 33 29  2  0  0  0
 10  5  2  0  0  0
 22 23  1  0  0  0
 30 34  1  0  0  0
M  END
> <minimizedAffinity>
-7.81138

> <CNNscore>
0.3366810381

> <CNNaffinity>
6.3752112389

> <CNN_VS>
2.1464128494

> <CNNaffinity_variance>
0.2646223009

$$$$
[H]c1c([H])c([H])c([C@]2([H])SC([H])([H])C([H])([H])N2c2nc(N([H])c3c([H])c(Cl)c4nc([H])n([H])c4c3[H])c3c(n2)C([H])([H])C([H])([H])C([H])([H])C3([H])[H])c([H])c1[H]


 34 39  0  0  0  0  0  0  0  0999 V2000
   37.4307  -19.2083   36.3474 C   0  0  0  0  0  0  0  0  0  0  0  0
   37.6989  -19.8216   37.5021 N   0  0  0  0  0  0  0  0  0  0  0  0
   38.8955  -20.3517   37.8421 C   0  0  0  0  0  0  0  0  0  0  0  0
   39.8699  -20.2202   36.8918 N   0  0  0  0  0  0  0  0  0  0  0  0
   39.6955  -19.6244   35.7120 C   0  0  0  0  0  0  0  0  0  0  0  0
   40.7781  -19.4996   34.6958 C   0  0  0  0  0  0  0  0  0  0  0  0
   40.1032  -19.7720   33.3573 C   0  0  0  0  0  0  0  0  0  0  0  0
   39.1923  -18.5883   33.0937 C   0  0  0  0  0  0  0  0  0  0  0  0
   38.1444  -18.4226   34.1409 C   0  0  0  0  0  0  0  0  0  0  0  0
   38.4281  -19.0922   35.4167 C   0  0  0  0  0  0  0  0  0  0  0  0
   39.1633  -20.9738   39.0802 N   0  0  0  0  0  0  0  0  0  0  0  0
   38.2210  -21.8328   39.7612 C   0  0  0  0  0  0  0  0  0  0  0  0
   38.8780  -23.2095   39.8121 C   0  0  0  0  0  0  0  0  0  0  0  0
   40.5599  -22.6683   40.3014 S   0  0  0  0  0  0  0  0  0  0  0  0
   40.3519  -20.8837   39.8500 C   0  0  0  0  0  0  0  0  0  0  0  0
   41.5599  -20.3963   39.1884 C   0  0  0  0  0  0  0  0  0  0  0  0
   41.9532  -19.0921   39.3550 C   0  0  0  0  0  0  0  0  0  0  0  0
   43.1074  -18.5998   38.7508 C   0  0  0  0  0  0  0  0  0  0  0  0
   43.8732  -19.4209   37.9727 C   0  0  0  0  0  0  0  0  0  0  0  0
   43.5081  -20.7225   37.7882 C   0  0  0  0  0  0  0  0  0  0  0  0
   42.3483  -21.2084   38.3997 C   0  0  0  0  0  0  0  0  0  0  0  0
   36.1356  -18.6261   36.0876 N   0  0  0  0  0  0  0  0  0  0  0  0
   35.4195  -19.2689   35.6847 H   0  0  0  0  0  0  0  0  0  0  0  0
   37.6610  -14.0826   38.0245 Cl  0  0  0  0  0  0  0  0  0  0  0  0
   36.4968  -15.1362   37.2180 C   0  0  0  0  0  0  0  0  0  0  0  0
   36.7743  -16.4706   36.9767 C   0  0  0  0  0  0  0  0  0  0  0  0
   35.8509  -17.2873   36.3543 C   0  0  0  0  0  0  0  0  0  0  0  0
   34.6719  -16.7148   35.9946 C   0  0  0  0  0  0  0  0  0  0  0  0
   34.3757  -15.3762   36.2284 C   0  0  0  0  0  0  0  0  0  0  0  0
   33.3130  -14.5951   35.9798 N   0  0  0  0  0  0  0  0  0  0  0  0
   33.5525  -13.3233   36.4316 C   0  0  0  0  0  0  0  0  0  0  0  0
   34.7772  -13.3563   36.9553 N   0  0  0  0  0  0  0  0  0  0  0  0
   35.3090  -14.5822   36.8505 C   0  0  0  0  0  0  0  0  0  0  0  0
   32.4134  -14.8833   35.5060 H   0  0  0  0  0  0  0  0  0  0  0  0
 24 25  1  0  0  0
 25 26  2  0  0  0
 26 27  1  0  0  0
 27 22  1  0  0  0
 22  1  1  0  0  0
  1  2  2  0  0  0
  2  3  1  0  0  0
  3  4  2  0  0  0
  4  5  1  0  0  0
  5  6  1  0  0  0
  6  7  1  0  0  0
  7  8  1  0  0  0
  8  9  1  0  0  0
  9 10  1  0  0  0
  3 11  1  0  0  0
 11 12  1  0  0  0
 12 13  1  0  0  0
 13 14  1  0  0  0
 14 15  1  0  0  0
 15 16  1  0  0  0
 16 17  2  0  0  0
 17 18  1  0  0  0
 18 19  2  0  0  0
 19 20  1  0  0  0
 20 21  2  0  0  0
 27 28  2  0  0  0
 28 29  1  0  0  0
 29 30  1  0  0  0
 30 31  1  0  0  0
 31 32  2  0  0  0
 32 33  1  0  0  0
 33 25  1  0  0  0
 10  1  1  0  0  0
 15 11  1  0  0  0
 21 16  1  0  0  0
 33 29  2  0  0  0
 10  5  2  0  0  0
 22 23  1  0  0  0
 30 34  1  0  0  0
M  END
> <minimizedAffinity>
-7.43242

> <CNNscore>
0.2923321128

> <CNNaffinity>
6.3202123642

> <CNN_VS>
1.8476010561

> <CNNaffinity_variance>
0.0458074883

$$$$
[H]c1c([H])c(OC([H])([H])C([H])([H])N2C([H])([H])C([H])([H])OC([H])([H])C2([H])[H])c([H])c(-c2sc(N([H])c3c([H])c(F)c(F)c([H])c3F)nc2N([H])[H])c1[H]


 34 37  0  0  0  0  0  0  0  0999 V2000
   36.9450  -17.9389   34.1013 N   0  0  0  0  0  0  0  0  0  0  0  0
   35.5282  -18.0620   34.4761 C   0  0  0  0  0  0  0  0  0  0  0  0
   34.8049  -18.9665   33.9077 N   0  0  0  0  0  0  0  0  0  0  0  0
   33.5100  -19.1037   34.2315 C   0  0  0  0  0  0  0  0  0  0  0  0
   33.3433  -17.8889   35.3887 S   0  0  0  0  0  0  0  0  0  0  0  0
   34.9598  -17.2526   35.4053 C   0  0  0  0  0  0  0  0  0  0  0  0
   37.6068  -18.5108   34.6739 H   0  0  0  0  0  0  0  0  0  0  0  0
   37.2438  -17.3294   33.3274 H   0  0  0  0  0  0  0  0  0  0  0  0
   35.4438  -16.1508   36.2420 C   0  0  0  0  0  0  0  0  0  0  0  0
   36.6242  -16.1783   36.8574 C   0  0  0  0  0  0  0  0  0  0  0  0
   37.0150  -15.0840   37.6504 C   0  0  0  0  0  0  0  0  0  0  0  0
   36.2268  -13.9759   37.8217 C   0  0  0  0  0  0  0  0  0  0  0  0
   35.0049  -13.9676   37.1740 C   0  0  0  0  0  0  0  0  0  0  0  0
   34.6130  -15.0289   36.3977 C   0  0  0  0  0  0  0  0  0  0  0  0
   34.1643  -12.8761   37.3097 O   0  0  0  0  0  0  0  0  0  0  0  0
   32.8209  -13.0612   37.6698 C   0  0  0  0  0  0  0  0  0  0  0  0
   32.1099  -11.7468   37.7123 C   0  0  0  0  0  0  0  0  0  0  0  0
   30.7028  -11.9143   37.6205 N   0  0  0  0  0  0  0  0  0  0  0  0
   30.1847  -12.7193   38.7360 C   0  0  0  0  0  0  0  0  0  0  0  0
   29.5141  -11.8814   39.7830 C   0  0  0  0  0  0  0  0  0  0  0  0
   28.4201  -11.2018   39.2545 O   0  0  0  0  0  0  0  0  0  0  0  0
   28.4856  -11.1089   37.8673 C   0  0  0  0  0  0  0  0  0  0  0  0
   29.9067  -10.7533   37.4153 C   0  0  0  0  0  0  0  0  0  0  0  0
   32.6177  -20.0568   33.6843 N   0  0  0  0  0  0  0  0  0  0  0  0
   32.5916  -20.0779   32.6204 H   0  0  0  0  0  0  0  0  0  0  0  0
   31.8124  -20.9254   34.4224 C   0  0  0  0  0  0  0  0  0  0  0  0
   32.0607  -22.2316   34.7327 C   0  0  0  0  0  0  0  0  0  0  0  0
   31.1397  -22.9510   35.4887 C   0  0  0  0  0  0  0  0  0  0  0  0
   31.3947  -24.2430   35.7896 F   0  0  0  0  0  0  0  0  0  0  0  0
   29.9940  -22.3650   35.9214 C   0  0  0  0  0  0  0  0  0  0  0  0
   29.0943  -23.0645   36.6593 F   0  0  0  0  0  0  0  0  0  0  0  0
   29.7079  -21.0499   35.6293 C   0  0  0  0  0  0  0  0  0  0  0  0
   30.6090  -20.3526   34.8919 C   0  0  0  0  0  0  0  0  0  0  0  0
   30.3160  -19.0517   34.6072 F   0  0  0  0  0  0  0  0  0  0  0  0
  1  2  1  0  0  0
  2  3  1  0  0  0
  3  4  2  0  0  0
  4 24  1  0  0  0
 24 26  1  0  0  0
 26 27  2  0  0  0
 27 28  1  0  0  0
 28 29  1  0  0  0
 28 30  2  0  0  0
 30 31  1  0  0  0
 30 32  1  0  0  0
 32 33  2  0  0  0
 33 34  1  0  0  0
  4  5  1  0  0  0
  5  6  1  0  0  0
  6  9  1  0  0  0
  9 10  2  0  0  0
 10 11  1  0  0  0
 11 12  2  0  0  0
 12 13  1  0  0  0
 13 15  1  0  0  0
 15 16  1  0  0  0
 16 17  1  0  0  0
 17 18  1  0  0  0
 18 19  1  0  0  0
 19 20  1  0  0  0
 20 21  1  0  0  0
 21 22  1  0  0  0
 22 23  1  0  0  0
 13 14  2  0  0  0
  6  2  2  0  0  0
 14  9  1  0  0  0
 33 26  1  0  0  0
 23 18  1  0  0  0
  1  7  1  0  0  0
  1  8  1  0  0  0
 24 25  1  0  0  0
M  END
> <minimizedAffinity>
-8.48660

> <CNNscore>
0.5477482677

> <CNNaffinity>
6.3292131424

> <CNN_VS>
3.4668154716

> <CNNaffinity_variance>
0.2943864465

$$$$
[H]c1c([H])c(OC([H])([H])C([H])([H])N2C([H])([H])C([H])([H])OC([H])([H])C2([H])[H])c([H])c(-c2sc(N([H])c3c([H])c(F)c(F)c([H])c3F)nc2N([H])[H])c1[H]


 34 37  0  0  0  0  0  0  0  0999 V2000
   37.6072  -13.7849   36.7684 N   0  0  0  0  0  0  0  0  0  0  0  0
   36.1406  -13.6992   36.8387 C   0  0  0  0  0  0  0  0  0  0  0  0
   35.5868  -12.5471   37.0121 N   0  0  0  0  0  0  0  0  0  0  0  0
   34.2511  -12.4381   37.0778 C   0  0  0  0  0  0  0  0  0  0  0  0
   33.7928  -14.0488   36.8825 S   0  0  0  0  0  0  0  0  0  0  0  0
   35.3522  -14.7978   36.7238 C   0  0  0  0  0  0  0  0  0  0  0  0
   38.0113  -13.6951   35.8084 H   0  0  0  0  0  0  0  0  0  0  0  0
   38.1773  -13.9224   37.6142 H   0  0  0  0  0  0  0  0  0  0  0  0
   35.6053  -16.2271   36.5202 C   0  0  0  0  0  0  0  0  0  0  0  0
   36.2546  -16.9774   37.4081 C   0  0  0  0  0  0  0  0  0  0  0  0
   36.4653  -18.3415   37.1365 C   0  0  0  0  0  0  0  0  0  0  0  0
   36.0277  -18.9426   35.9851 C   0  0  0  0  0  0  0  0  0  0  0  0
   35.3557  -18.1456   35.0764 C   0  0  0  0  0  0  0  0  0  0  0  0
   35.1440  -16.8139   35.3303 C   0  0  0  0  0  0  0  0  0  0  0  0
   34.8903  -18.6957   33.8944 O   0  0  0  0  0  0  0  0  0  0  0  0
   33.8161  -19.5982   33.9115 C   0  0  0  0  0  0  0  0  0  0  0  0
   32.5419  -18.8814   34.2241 C   0  0  0  0  0  0  0  0  0  0  0  0
   31.4634  -19.7894   34.3936 N   0  0  0  0  0  0  0  0  0  0  0  0
   31.9042  -21.0296   35.0481 C   0  0  0  0  0  0  0  0  0  0  0  0
   31.5187  -21.0802   36.4962 C   0  0  0  0  0  0  0  0  0  0  0  0
   30.1356  -21.0326   36.6474 O   0  0  0  0  0  0  0  0  0  0  0  0
   29.5060  -20.5169   35.5182 C   0  0  0  0  0  0  0  0  0  0  0  0
   30.2663  -19.2975   34.9842 C   0  0  0  0  0  0  0  0  0  0  0  0
   33.5278  -11.2348   37.2596 N   0  0  0  0  0  0  0  0  0  0  0  0
   34.1053  -10.3492   37.1353 H   0  0  0  0  0  0  0  0  0  0  0  0
   32.1713  -11.1483   37.5757 C   0  0  0  0  0  0  0  0  0  0  0  0
   31.3372  -12.1606   37.9546 C   0  0  0  0  0  0  0  0  0  0  0  0
   30.0020  -11.8885   38.2382 C   0  0  0  0  0  0  0  0  0  0  0  0
   29.1850  -12.8975   38.6115 F   0  0  0  0  0  0  0  0  0  0  0  0
   29.5198  -10.6231   38.1413 C   0  0  0  0  0  0  0  0  0  0  0  0
   28.2179  -10.3551   38.4179 F   0  0  0  0  0  0  0  0  0  0  0  0
   30.3295   -9.5754   37.7628 C   0  0  0  0  0  0  0  0  0  0  0  0
   31.6307   -9.8458   37.4874 C   0  0  0  0  0  0  0  0  0  0  0  0
   32.4238   -8.8019   37.1124 F   0  0  0  0  0  0  0  0  0  0  0  0
  1  2  1  0  0  0
  2  3  1  0  0  0
  3  4  2  0  0  0
  4 24  1  0  0  0
 24 26  1  0  0  0
 26 27  2  0  0  0
 27 28  1  0  0  0
 28 29  1  0  0  0
 28 30  2  0  0  0
 30 31  1  0  0  0
 30 32  1  0  0  0
 32 33  2  0  0  0
 33 34  1  0  0  0
  4  5  1  0  0  0
  5  6  1  0  0  0
  6  9  1  0  0  0
  9 10  2  0  0  0
 10 11  1  0  0  0
 11 12  2  0  0  0
 12 13  1  0  0  0
 13 15  1  0  0  0
 15 16  1  0  0  0
 16 17  1  0  0  0
 17 18  1  0  0  0
 18 19  1  0  0  0
 19 20  1  0  0  0
 20 21  1  0  0  0
 21 22  1  0  0  0
 22 23  1  0  0  0
 13 14  2  0  0  0
  6  2  2  0  0  0
 14  9  1  0  0  0
 33 26  1  0  0  0
 23 18  1  0  0  0
  1  7  1  0  0  0
  1  8  1  0  0  0
 24 25  1  0  0  0
M  END
> <minimizedAffinity>
-9.22709

> <CNNscore>
0.3852228224

> <CNNaffinity>
6.4464921951

> <CNN_VS>
2.4833359718

> <CNNaffinity_variance>
0.8442615271

$$$$
[H]c1c([H])c(OC([H])([H])C([H])([H])N2C([H])([H])C([H])([H])OC([H])([H])C2([H])[H])c([H])c(-c2sc(N([H])c3c([H])c(F)c(F)c([H])c3F)nc2N([H])[H])c1[H]


 34 37  0  0  0  0  0  0  0  0999 V2000
   37.0751  -13.1350   36.8405 N   0  0  0  0  0  0  0  0  0  0  0  0
   36.0580  -14.1626   36.5713 C   0  0  0  0  0  0  0  0  0  0  0  0
   36.4380  -15.3513   36.2445 N   0  0  0  0  0  0  0  0  0  0  0  0
   35.5326  -16.3098   35.9955 C   0  0  0  0  0  0  0  0  0  0  0  0
   34.0973  -15.4605   36.2432 S   0  0  0  0  0  0  0  0  0  0  0  0
   34.7301  -13.8970   36.6594 C   0  0  0  0  0  0  0  0  0  0  0  0
   37.3857  -13.0683   37.8365 H   0  0  0  0  0  0  0  0  0  0  0  0
   37.4431  -12.5352   36.0893 H   0  0  0  0  0  0  0  0  0  0  0  0
   33.9402  -12.7092   36.9962 C   0  0  0  0  0  0  0  0  0  0  0  0
   34.4875  -11.5109   37.1888 C   0  0  0  0  0  0  0  0  0  0  0  0
   33.6624  -10.4198   37.5173 C   0  0  0  0  0  0  0  0  0  0  0  0
   32.3031  -10.5342   37.6503 C   0  0  0  0  0  0  0  0  0  0  0  0
   31.7549  -11.7873   37.4462 C   0  0  0  0  0  0  0  0  0  0  0  0
   32.5494  -12.8589   37.1252 C   0  0  0  0  0  0  0  0  0  0  0  0
   30.3875  -11.9656   37.5675 O   0  0  0  0  0  0  0  0  0  0  0  0
   29.5338  -10.8537   37.6264 C   0  0  0  0  0  0  0  0  0  0  0  0
   28.1302  -11.2917   37.8972 C   0  0  0  0  0  0  0  0  0  0  0  0
   27.5813  -10.6128   39.0170 N   0  0  0  0  0  0  0  0  0  0  0  0
   27.4016  -11.5204   40.1592 C   0  0  0  0  0  0  0  0  0  0  0  0
   28.4629  -11.3429   41.2034 C   0  0  0  0  0  0  0  0  0  0  0  0
   28.4394  -10.0528   41.7260 O   0  0  0  0  0  0  0  0  0  0  0  0
   27.7843   -9.1611   40.8816 C   0  0  0  0  0  0  0  0  0  0  0  0
   28.1951   -9.3954   39.4234 C   0  0  0  0  0  0  0  0  0  0  0  0
   35.8229  -17.6474   35.6344 N   0  0  0  0  0  0  0  0  0  0  0  0
   36.8547  -17.8445   35.4620 H   0  0  0  0  0  0  0  0  0  0  0  0
   34.8821  -18.6693   35.4990 C   0  0  0  0  0  0  0  0  0  0  0  0
   34.3092  -19.4122   36.4910 C   0  0  0  0  0  0  0  0  0  0  0  0
   33.3781  -20.3956   36.1701 C   0  0  0  0  0  0  0  0  0  0  0  0
   32.8178  -21.1255   37.1592 F   0  0  0  0  0  0  0  0  0  0  0  0
   33.0333  -20.6241   34.8770 C   0  0  0  0  0  0  0  0  0  0  0  0
   32.1249  -21.5825   34.5615 F   0  0  0  0  0  0  0  0  0  0  0  0
   33.5886  -19.8957   33.8485 C   0  0  0  0  0  0  0  0  0  0  0  0
   34.4960  -18.9378   34.1665 C   0  0  0  0  0  0  0  0  0  0  0  0
   35.0409  -18.2231   33.1410 F   0  0  0  0  0  0  0  0  0  0  0  0
  1  2  1  0  0  0
  2  3  1  0  0  0
  3  4  2  0  0  0
  4 24  1  0  0  0
 24 26  1  0  0  0
 26 27  2  0  0  0
 27 28  1  0  0  0
 28 29  1  0  0  0
 28 30  2  0  0  0
 30 31  1  0  0  0
 30 32  1  0  0  0
 32 33  2  0  0  0
 33 34  1  0  0  0
  4  5  1  0  0  0
  5  6  1  0  0  0
  6  9  1  0  0  0
  9 10  2  0  0  0
 10 11  1  0  0  0
 11 12  2  0  0  0
 12 13  1  0  0  0
 13 15  1  0  0  0
 15 16  1  0  0  0
 16 17  1  0  0  0
 17 18  1  0  0  0
 18 19  1  0  0  0
 19 20  1  0  0  0
 20 21  1  0  0  0
 21 22  1  0  0  0
 22 23  1  0  0  0
 13 14  2  0  0  0
  6  2  2  0  0  0
 14  9  1  0  0  0
 33 26  1  0  0  0
 23 18  1  0  0  0
  1  7  1  0  0  0
  1  8  1  0  0  0
 24 25  1  0  0  0
M  END
> <minimizedAffinity>
-8.28465

> <CNNscore>
0.2606857419

> <CNNaffinity>
6.2796568871

> <CNN_VS>
1.6370170116

> <CNNaffinity_variance>
0.2744442821

$$$$
[H]c1c([H])c(OC([H])([H])C([H])([H])N2C([H])([H])C([H])([H])OC([H])([H])C2([H])[H])c([H])c(-c2sc(N([H])c3c([H])c(F)c(F)c([H])c3F)nc2N([H])[H])c1[H]


 34 37  0  0  0  0  0  0  0  0999 V2000
   37.5171  -13.8290   36.7777 N   0  0  0  0  0  0  0  0  0  0  0  0
   36.0494  -13.8770   36.6978 C   0  0  0  0  0  0  0  0  0  0  0  0
   35.3704  -12.8174   36.9815 N   0  0  0  0  0  0  0  0  0  0  0  0
   34.0303  -12.8310   36.9150 C   0  0  0  0  0  0  0  0  0  0  0  0
   33.7542  -14.4215   36.4286 S   0  0  0  0  0  0  0  0  0  0  0  0
   35.3880  -15.0040   36.3315 C   0  0  0  0  0  0  0  0  0  0  0  0
   38.0008  -13.5529   35.8930 H   0  0  0  0  0  0  0  0  0  0  0  0
   38.0141  -14.0533   37.6507 H   0  0  0  0  0  0  0  0  0  0  0  0
   35.7994  -16.3561   35.9430 C   0  0  0  0  0  0  0  0  0  0  0  0
   35.1763  -17.0546   34.9961 C   0  0  0  0  0  0  0  0  0  0  0  0
   35.6265  -18.3506   34.6852 C   0  0  0  0  0  0  0  0  0  0  0  0
   36.6906  -18.9361   35.3202 C   0  0  0  0  0  0  0  0  0  0  0  0
   37.3236  -18.1938   36.3004 C   0  0  0  0  0  0  0  0  0  0  0  0
   36.8938  -16.9285   36.6122 C   0  0  0  0  0  0  0  0  0  0  0  0
   38.4042  -18.7320   36.9778 O   0  0  0  0  0  0  0  0  0  0  0  0
   38.6524  -20.1120   36.9265 C   0  0  0  0  0  0  0  0  0  0  0  0
   38.2100  -20.7657   38.1961 C   0  0  0  0  0  0  0  0  0  0  0  0
   39.2269  -21.5987   38.7330 N   0  0  0  0  0  0  0  0  0  0  0  0
   40.4456  -20.8328   39.0317 C   0  0  0  0  0  0  0  0  0  0  0  0
   40.5991  -20.5504   40.4961 C   0  0  0  0  0  0  0  0  0  0  0  0
   40.6954  -21.7321   41.2259 O   0  0  0  0  0  0  0  0  0  0  0  0
   40.1943  -22.8220   40.5200 C   0  0  0  0  0  0  0  0  0  0  0  0
   38.8829  -22.4544   39.8163 C   0  0  0  0  0  0  0  0  0  0  0  0
   33.1776  -11.7364   37.1959 N   0  0  0  0  0  0  0  0  0  0  0  0
   33.6052  -10.7815   36.9996 H   0  0  0  0  0  0  0  0  0  0  0  0
   31.8759  -11.8332   37.6896 C   0  0  0  0  0  0  0  0  0  0  0  0
   30.7451  -11.2655   37.1766 C   0  0  0  0  0  0  0  0  0  0  0  0
   29.5198  -11.4742   37.8030 C   0  0  0  0  0  0  0  0  0  0  0  0
   28.4072  -10.9073   37.2876 F   0  0  0  0  0  0  0  0  0  0  0  0
   29.4381  -12.2386   38.9220 C   0  0  0  0  0  0  0  0  0  0  0  0
   28.2439  -12.4440   39.5346 F   0  0  0  0  0  0  0  0  0  0  0  0
   30.5557  -12.8283   39.4695 C   0  0  0  0  0  0  0  0  0  0  0  0
   31.7481  -12.6219   38.8551 C   0  0  0  0  0  0  0  0  0  0  0  0
   32.8487  -13.2091   39.4056 F   0  0  0  0  0  0  0  0  0  0  0  0
  1  2  1  0  0  0
  2  3  1  0  0  0
  3  4  2  0  0  0
  4 24  1  0  0  0
 24 26  1  0  0  0
 26 27  2  0  0  0
 27 28  1  0  0  0
 28 29  1  0  0  0
 28 30  2  0  0  0
 30 31  1  0  0  0
 30 32  1  0  0  0
 32 33  2  0  0  0
 33 34  1  0  0  0
  4  5  1  0  0  0
  5  6  1  0  0  0
  6  9  1  0  0  0
  9 10  2  0  0  0
 10 11  1  0  0  0
 11 12  2  0  0  0
 12 13  1  0  0  0
 13 15  1  0  0  0
 15 16  1  0  0  0
 16 17  1  0  0  0
 17 18  1  0  0  0
 18 19  1  0  0  0
 19 20  1  0  0  0
 20 21  1  0  0  0
 21 22  1  0  0  0
 22 23  1  0  0  0
 13 14  2  0  0  0
  6  2  2  0  0  0
 14  9  1  0  0  0
 33 26  1  0  0  0
 23 18  1  0  0  0
  1  7  1  0  0  0
  1  8  1  0  0  0
 24 25  1  0  0  0
M  END
> <minimizedAffinity>
-7.47309

> <CNNscore>
0.2283903956

> <CNNaffinity>
5.7086291313

> <CNN_VS>
1.3037960529

> <CNNaffinity_variance>
0.5896553993

$$$$
[H]c1c([H])c(OC([H])([H])C([H])([H])N2C([H])([H])C([H])([H])OC([H])([H])C2([H])[H])c([H])c(-c2sc(N([H])c3c([H])c(F)c(F)c([H])c3F)nc2N([H])[H])c1[H]


 34 37  0  0  0  0  0  0  0  0999 V2000
   31.0188  -18.8311   35.0936 N   0  0  0  0  0  0  0  0  0  0  0  0
   32.4656  -18.9025   35.3482 C   0  0  0  0  0  0  0  0  0  0  0  0
   33.1454  -17.8083   35.4178 N   0  0  0  0  0  0  0  0  0  0  0  0
   34.4663  -17.8426   35.6514 C   0  0  0  0  0  0  0  0  0  0  0  0
   34.7226  -19.5046   35.7723 S   0  0  0  0  0  0  0  0  0  0  0  0
   33.1063  -20.0872   35.5148 C   0  0  0  0  0  0  0  0  0  0  0  0
   30.4200  -18.7756   35.9488 H   0  0  0  0  0  0  0  0  0  0  0  0
   30.6422  -18.8355   34.1357 H   0  0  0  0  0  0  0  0  0  0  0  0
   32.6868  -21.4915   35.5102 C   0  0  0  0  0  0  0  0  0  0  0  0
   31.9528  -22.0209   34.5335 C   0  0  0  0  0  0  0  0  0  0  0  0
   31.5831  -23.3764   34.6050 C   0  0  0  0  0  0  0  0  0  0  0  0
   31.9477  -24.1885   35.6471 C   0  0  0  0  0  0  0  0  0  0  0  0
   32.7097  -23.6190   36.6509 C   0  0  0  0  0  0  0  0  0  0  0  0
   33.0766  -22.2981   36.5921 C   0  0  0  0  0  0  0  0  0  0  0  0
   33.1079  -24.3889   37.7302 O   0  0  0  0  0  0  0  0  0  0  0  0
   34.4661  -24.4763   38.0711 C   0  0  0  0  0  0  0  0  0  0  0  0
   34.6919  -23.9313   39.4448 C   0  0  0  0  0  0  0  0  0  0  0  0
   35.8102  -23.0569   39.4793 N   0  0  0  0  0  0  0  0  0  0  0  0
   36.8801  -23.5190   38.5833 C   0  0  0  0  0  0  0  0  0  0  0  0
   36.9372  -22.7329   37.3078 C   0  0  0  0  0  0  0  0  0  0  0  0
   37.1964  -21.3885   37.5601 O   0  0  0  0  0  0  0  0  0  0  0  0
   36.9000  -21.0391   38.8743 C   0  0  0  0  0  0  0  0  0  0  0  0
   35.5711  -21.6643   39.3140 C   0  0  0  0  0  0  0  0  0  0  0  0
   35.3170  -16.7158   35.7544 N   0  0  0  0  0  0  0  0  0  0  0  0
   36.3305  -16.9014   35.4868 H   0  0  0  0  0  0  0  0  0  0  0  0
   34.9227  -15.4417   36.1653 C   0  0  0  0  0  0  0  0  0  0  0  0
   33.7248  -14.8265   35.9404 C   0  0  0  0  0  0  0  0  0  0  0  0
   33.5017  -13.5438   36.4325 C   0  0  0  0  0  0  0  0  0  0  0  0
   32.3132  -12.9438   36.2037 F   0  0  0  0  0  0  0  0  0  0  0  0
   34.4663  -12.8968   37.1356 C   0  0  0  0  0  0  0  0  0  0  0  0
   34.2508  -11.6457   37.6170 F   0  0  0  0  0  0  0  0  0  0  0  0
   35.6871  -13.4838   37.3834 C   0  0  0  0  0  0  0  0  0  0  0  0
   35.8999  -14.7347   36.9016 C   0  0  0  0  0  0  0  0  0  0  0  0
   37.1122  -15.3066   37.1513 F   0  0  0  0  0  0  0  0  0  0  0  0
  1  2  1  0  0  0
  2  3  1  0  0  0
  3  4  2  0  0  0
  4 24  1  0  0  0
 24 26  1  0  0  0
 26 27  2  0  0  0
 27 28  1  0  0  0
 28 29  1  0  0  0
 28 30  2  0  0  0
 30 31  1  0  0  0
 30 32  1  0  0  0
 32 33  2  0  0  0
 33 34  1  0  0  0
  4  5  1  0  0  0
  5  6  1  0  0  0
  6  9  1  0  0  0
  9 10  2  0  0  0
 10 11  1  0  0  0
 11 12  2  0  0  0
 12 13  1  0  0  0
 13 15  1  0  0  0
 15 16  1  0  0  0
 16 17  1  0  0  0
 17 18  1  0  0  0
 18 19  1  0  0  0
 19 20  1  0  0  0
 20 21  1  0  0  0
 21 22  1  0  0  0
 22 23  1  0  0  0
 13 14  2  0  0  0
  6  2  2  0  0  0
 14  9  1  0  0  0
 33 26  1  0  0  0
 23 18  1  0  0  0
  1  7  1  0  0  0
  1  8  1  0  0  0
 24 25  1  0  0  0
M  END
> <minimizedAffinity>
-6.52565

> <CNNscore>
0.2235275656

> <CNNaffinity>
5.4853353500

> <CNN_VS>
1.2261236906

> <CNNaffinity_variance>
0.4542136192

$$$$
[H]c1c([H])c(OC([H])([H])C([H])([H])N2C([H])([H])C([H])([H])OC([H])([H])C2([H])[H])c([H])c(-c2sc(N([H])c3c([H])c(F)c(F)c([H])c3F)nc2N([H])[H])c1[H]


 34 37  0  0  0  0  0  0  0  0999 V2000
   33.2494  -16.3905   35.3369 N   0  0  0  0  0  0  0  0  0  0  0  0
   34.1190  -15.5065   36.1276 C   0  0  0  0  0  0  0  0  0  0  0  0
   33.7041  -14.3224   36.4275 N   0  0  0  0  0  0  0  0  0  0  0  0
   34.4748  -13.4949   37.1498 C   0  0  0  0  0  0  0  0  0  0  0  0
   35.8327  -14.4632   37.3970 S   0  0  0  0  0  0  0  0  0  0  0  0
   35.3455  -15.9017   36.5534 C   0  0  0  0  0  0  0  0  0  0  0  0
   32.6089  -16.9988   35.8960 H   0  0  0  0  0  0  0  0  0  0  0  0
   33.2826  -16.3949   34.3081 H   0  0  0  0  0  0  0  0  0  0  0  0
   36.1324  -17.1310   36.4201 C   0  0  0  0  0  0  0  0  0  0  0  0
   36.1940  -18.0543   37.3774 C   0  0  0  0  0  0  0  0  0  0  0  0
   36.9783  -19.2050   37.1774 C   0  0  0  0  0  0  0  0  0  0  0  0
   37.6918  -19.4229   36.0276 C   0  0  0  0  0  0  0  0  0  0  0  0
   37.6142  -18.4517   35.0462 C   0  0  0  0  0  0  0  0  0  0  0  0
   36.8524  -17.3254   35.2297 C   0  0  0  0  0  0  0  0  0  0  0  0
   38.3137  -18.6152   33.8628 O   0  0  0  0  0  0  0  0  0  0  0  0
   39.4627  -19.4196   33.8282 C   0  0  0  0  0  0  0  0  0  0  0  0
   40.6815  -18.5747   33.6393 C   0  0  0  0  0  0  0  0  0  0  0  0
   41.6566  -18.8391   34.6370 N   0  0  0  0  0  0  0  0  0  0  0  0
   42.9138  -18.1294   34.3598 C   0  0  0  0  0  0  0  0  0  0  0  0
   43.0867  -16.9146   35.2214 C   0  0  0  0  0  0  0  0  0  0  0  0
   43.1253  -17.2592   36.5697 O   0  0  0  0  0  0  0  0  0  0  0  0
   42.5669  -18.5126   36.8028 C   0  0  0  0  0  0  0  0  0  0  0  0
   41.2734  -18.6867   35.9986 C   0  0  0  0  0  0  0  0  0  0  0  0
   34.1312  -12.1798   37.5454 N   0  0  0  0  0  0  0  0  0  0  0  0
   34.9632  -11.5515   37.7602 H   0  0  0  0  0  0  0  0  0  0  0  0
   32.8313  -11.6861   37.6632 C   0  0  0  0  0  0  0  0  0  0  0  0
   31.6887  -12.3943   37.9022 C   0  0  0  0  0  0  0  0  0  0  0  0
   30.4687  -11.7307   37.9937 C   0  0  0  0  0  0  0  0  0  0  0  0
   29.3442  -12.4410   38.2297 F   0  0  0  0  0  0  0  0  0  0  0  0
   30.4037  -10.3825   37.8472 C   0  0  0  0  0  0  0  0  0  0  0  0
   29.2149   -9.7328   37.9366 F   0  0  0  0  0  0  0  0  0  0  0  0
   31.5337   -9.6332   37.6056 C   0  0  0  0  0  0  0  0  0  0  0  0
   32.7209  -10.2849   37.5172 C   0  0  0  0  0  0  0  0  0  0  0  0
   33.8335   -9.5343   37.2766 F   0  0  0  0  0  0  0  0  0  0  0  0
  1  2  1  0  0  0
  2  3  1  0  0  0
  3  4  2  0  0  0
  4 24  1  0  0  0
 24 26  1  0  0  0
 26 27  2  0  0  0
 27 28  1  0  0  0
 28 29  1  0  0  0
 28 30  2  0  0  0
 30 31  1  0  0  0
 30 32  1  0  0  0
 32 33  2  0  0  0
 33 34  1  0  0  0
  4  5  1  0  0  0
  5  6  1  0  0  0
  6  9  1  0  0  0
  9 10  2  0  0  0
 10 11  1  0  0  0
 11 12  2  0  0  0
 12 13  1  0  0  0
 13 15  1  0  0  0
 15 16  1  0  0  0
 16 17  1  0  0  0
 17 18  1  0  0  0
 18 19  1  0  0  0
 19 20  1  0  0  0
 20 21  1  0  0  0
 21 22  1  0  0  0
 22 23  1  0  0  0
 13 14  2  0  0  0
  6  2  2  0  0  0
 14  9  1  0  0  0
 33 26  1  0  0  0
 23 18  1  0  0  0
  1  7  1  0  0  0
  1  8  1  0  0  0
 24 25  1  0  0  0
M  END
> <minimizedAffinity>
-8.54785

> <CNNscore>
0.2217602134

> <CNNaffinity>
5.7539100647

> <CNN_VS>
1.2759883404

> <CNNaffinity_variance>
0.5729714036

$$$$
[H]c1c([H])c(OC([H])([H])C([H])([H])N2C([H])([H])C([H])([H])OC([H])([H])C2([H])[H])c([H])c(-c2sc(N([H])c3c([H])c(F)c(F)c([H])c3F)nc2N([H])[H])c1[H]


 34 37  0  0  0  0  0  0  0  0999 V2000
   33.4837  -17.6437   35.4446 N   0  0  0  0  0  0  0  0  0  0  0  0
   34.6366  -18.3103   36.0686 C   0  0  0  0  0  0  0  0  0  0  0  0
   34.6957  -19.5989   36.0621 N   0  0  0  0  0  0  0  0  0  0  0  0
   35.7366  -20.2344   36.6216 C   0  0  0  0  0  0  0  0  0  0  0  0
   36.6485  -18.9260   37.1685 S   0  0  0  0  0  0  0  0  0  0  0  0
   35.6424  -17.6082   36.6493 C   0  0  0  0  0  0  0  0  0  0  0  0
   33.6003  -17.4106   34.4322 H   0  0  0  0  0  0  0  0  0  0  0  0
   32.6318  -17.4312   35.9820 H   0  0  0  0  0  0  0  0  0  0  0  0
   35.9218  -16.1825   36.8424 C   0  0  0  0  0  0  0  0  0  0  0  0
   37.0631  -15.7360   37.3630 C   0  0  0  0  0  0  0  0  0  0  0  0
   37.2534  -14.3515   37.5240 C   0  0  0  0  0  0  0  0  0  0  0  0
   36.3062  -13.4281   37.1654 C   0  0  0  0  0  0  0  0  0  0  0  0
   35.1283  -13.9127   36.6268 C   0  0  0  0  0  0  0  0  0  0  0  0
   34.9312  -15.2609   36.4647 C   0  0  0  0  0  0  0  0  0  0  0  0
   34.1333  -13.0286   36.2463 O   0  0  0  0  0  0  0  0  0  0  0  0
   32.8449  -13.1404   36.7903 C   0  0  0  0  0  0  0  0  0  0  0  0
   32.8793  -12.8807   38.2622 C   0  0  0  0  0  0  0  0  0  0  0  0
   31.7791  -12.0835   38.6747 N   0  0  0  0  0  0  0  0  0  0  0  0
   31.7795  -10.7779   37.9993 C   0  0  0  0  0  0  0  0  0  0  0  0
   30.7725  -10.7071   36.8907 C   0  0  0  0  0  0  0  0  0  0  0  0
   29.4808  -10.8920   37.3760 O   0  0  0  0  0  0  0  0  0  0  0  0
   29.4765  -11.5171   38.6196 C   0  0  0  0  0  0  0  0  0  0  0  0
   30.4841  -12.6721   38.6481 C   0  0  0  0  0  0  0  0  0  0  0  0
   35.9176  -21.6374   36.6738 N   0  0  0  0  0  0  0  0  0  0  0  0
   35.8792  -22.1234   35.7275 H   0  0  0  0  0  0  0  0  0  0  0  0
   36.1326  -22.3808   37.8351 C   0  0  0  0  0  0  0  0  0  0  0  0
   36.0738  -21.9445   39.1275 C   0  0  0  0  0  0  0  0  0  0  0  0
   36.3145  -22.8339   40.1706 C   0  0  0  0  0  0  0  0  0  0  0  0
   36.2544  -22.3917   41.4456 F   0  0  0  0  0  0  0  0  0  0  0  0
   36.6081  -24.1346   39.9147 C   0  0  0  0  0  0  0  0  0  0  0  0
   36.8428  -25.0042   40.9306 F   0  0  0  0  0  0  0  0  0  0  0  0
   36.6765  -24.6128   38.6251 C   0  0  0  0  0  0  0  0  0  0  0  0
   36.4409  -23.7416   37.6114 C   0  0  0  0  0  0  0  0  0  0  0  0
   36.5121  -24.2246   36.3383 F   0  0  0  0  0  0  0  0  0  0  0  0
  1  2  1  0  0  0
  2  3  1  0  0  0
  3  4  2  0  0  0
  4 24  1  0  0  0
 24 26  1  0  0  0
 26 27  2  0  0  0
 27 28  1  0  0  0
 28 29  1  0  0  0
 28 30  2  0  0  0
 30 31  1  0  0  0
 30 32  1  0  0  0
 32 33  2  0  0  0
 33 34  1  0  0  0
  4  5  1  0  0  0
  5  6  1  0  0  0
  6  9  1  0  0  0
  9 10  2  0  0  0
 10 11  1  0  0  0
 11 12  2  0  0  0
 12 13  1  0  0  0
 13 15  1  0  0  0
 15 16  1  0  0  0
 16 17  1  0  0  0
 17 18  1  0  0  0
 18 19  1  0  0  0
 19 20  1  0  0  0
 20 21  1  0  0  0
 21 22  1  0  0  0
 22 23  1  0  0  0
 13 14  2  0  0  0
  6  2  2  0  0  0
 14  9  1  0  0  0
 33 26  1  0  0  0
 23 18  1  0  0  0
  1  7  1  0  0  0
  1  8  1  0  0  0
 24 25  1  0  0  0
M  END
> <minimizedAffinity>
-6.35101

> <CNNscore>
0.2145261317

> <CNNaffinity>
5.7274446487

> <CNN_VS>
1.2286865711

> <CNNaffinity_variance>
0.0855117291

$$$$
[H]c1c([H])c(OC([H])([H])C([H])([H])N2C([H])([H])C([H])([H])OC([H])([H])C2([H])[H])c([H])c(-c2sc(N([H])c3c([H])c(F)c(F)c([H])c3F)nc2N([H])[H])c1[H]


 34 37  0  0  0  0  0  0  0  0999 V2000
   37.0394  -13.0223   36.8649 N   0  0  0  0  0  0  0  0  0  0  0  0
   36.0358  -14.0483   36.5440 C   0  0  0  0  0  0  0  0  0  0  0  0
   36.4311  -15.2270   36.1998 N   0  0  0  0  0  0  0  0  0  0  0  0
   35.5381  -16.1838   35.9037 C   0  0  0  0  0  0  0  0  0  0  0  0
   34.0919  -15.3477   36.1321 S   0  0  0  0  0  0  0  0  0  0  0  0
   34.7045  -13.7914   36.6020 C   0  0  0  0  0  0  0  0  0  0  0  0
   37.3225  -12.9776   37.8702 H   0  0  0  0  0  0  0  0  0  0  0  0
   37.4244  -12.4031   36.1382 H   0  0  0  0  0  0  0  0  0  0  0  0
   33.8991  -12.6158   36.9450 C   0  0  0  0  0  0  0  0  0  0  0  0
   34.4386  -11.4418   37.2666 C   0  0  0  0  0  0  0  0  0  0  0  0
   33.5980  -10.3616   37.5916 C   0  0  0  0  0  0  0  0  0  0  0  0
   32.2311  -10.4625   37.5929 C   0  0  0  0  0  0  0  0  0  0  0  0
   31.6913  -11.6903   37.2561 C   0  0  0  0  0  0  0  0  0  0  0  0
   32.5010  -12.7511   36.9370 C   0  0  0  0  0  0  0  0  0  0  0  0
   30.3168  -11.8541   37.2407 O   0  0  0  0  0  0  0  0  0  0  0  0
   29.4821  -10.8597   37.7727 C   0  0  0  0  0  0  0  0  0  0  0  0
   28.1056  -11.4007   37.9913 C   0  0  0  0  0  0  0  0  0  0  0  0
   27.8775  -11.7023   39.3599 N   0  0  0  0  0  0  0  0  0  0  0  0
   28.1556  -13.1161   39.6512 C   0  0  0  0  0  0  0  0  0  0  0  0
   29.4709  -13.3092   40.3445 C   0  0  0  0  0  0  0  0  0  0  0  0
   29.4916  -12.6496   41.5703 O   0  0  0  0  0  0  0  0  0  0  0  0
   28.5214  -11.6542   41.6422 C   0  0  0  0  0  0  0  0  0  0  0  0
   28.4699  -10.8535   40.3359 C   0  0  0  0  0  0  0  0  0  0  0  0
   35.8456  -17.5111   35.5194 N   0  0  0  0  0  0  0  0  0  0  0  0
   36.8564  -17.6619   35.2216 H   0  0  0  0  0  0  0  0  0  0  0  0
   34.9456  -18.5776   35.5094 C   0  0  0  0  0  0  0  0  0  0  0  0
   34.1854  -19.0175   34.4641 C   0  0  0  0  0  0  0  0  0  0  0  0
   33.3383  -20.1086   34.6346 C   0  0  0  0  0  0  0  0  0  0  0  0
   32.5900  -20.5354   33.5940 F   0  0  0  0  0  0  0  0  0  0  0  0
   33.2604  -20.7413   35.8333 C   0  0  0  0  0  0  0  0  0  0  0  0
   32.4352  -21.8062   36.0019 F   0  0  0  0  0  0  0  0  0  0  0  0
   34.0112  -20.3278   36.9112 C   0  0  0  0  0  0  0  0  0  0  0  0
   34.8357  -19.2634   36.7400 C   0  0  0  0  0  0  0  0  0  0  0  0
   35.5739  -18.8611   37.8135 F   0  0  0  0  0  0  0  0  0  0  0  0
  1  2  1  0  0  0
  2  3  1  0  0  0
  3  4  2  0  0  0
  4 24  1  0  0  0
 24 26  1  0  0  0
 26 27  2  0  0  0
 27 28  1  0  0  0
 28 29  1  0  0  0
 28 30  2  0  0  0
 30 31  1  0  0  0
 30 32  1  0  0  0
 32 33  2  0  0  0
 33 34  1  0  0  0
  4  5  1  0  0  0
  5  6  1  0  0  0
  6  9  1  0  0  0
  9 10  2  0  0  0
 10 11  1  0  0  0
 11 12  2  0  0  0
 12 13  1  0  0  0
 13 15  1  0  0  0
 15 16  1  0  0  0
 16 17  1  0  0  0
 17 18  1  0  0  0
 18 19  1  0  0  0
 19 20  1  0  0  0
 20 21  1  0  0  0
 21 22  1  0  0  0
 22 23  1  0  0  0
 13 14  2  0  0  0
  6  2  2  0  0  0
 14  9  1  0  0  0
 33 26  1  0  0  0
 23 18  1  0  0  0
  1  7  1  0  0  0
  1  8  1  0  0  0
 24 25  1  0  0  0
M  END
> <minimizedAffinity>
-8.22072

> <CNNscore>
0.2131873667

> <CNNaffinity>
6.2289419174

> <CNN_VS>
1.3279317617

> <CNNaffinity_variance>
0.3198432922

$$$$
[H]c1c([H])c(OC([H])([H])C([H])([H])N2C([H])([H])C([H])([H])OC([H])([H])C2([H])[H])c([H])c(-c2sc(N([H])c3c([H])c(F)c(F)c([H])c3F)nc2N([H])[H])c1[H]


 34 37  0  0  0  0  0  0  0  0999 V2000
   30.4291  -18.9536   34.9797 N   0  0  0  0  0  0  0  0  0  0  0  0
   31.8066  -19.1669   35.4486 C   0  0  0  0  0  0  0  0  0  0  0  0
   32.6574  -18.2015   35.3569 N   0  0  0  0  0  0  0  0  0  0  0  0
   33.9204  -18.3664   35.7789 C   0  0  0  0  0  0  0  0  0  0  0  0
   33.8667  -19.9620   36.3208 S   0  0  0  0  0  0  0  0  0  0  0  0
   32.2084  -20.3502   35.9779 C   0  0  0  0  0  0  0  0  0  0  0  0
   29.7645  -18.5962   35.7032 H   0  0  0  0  0  0  0  0  0  0  0  0
   30.1584  -19.1468   34.0056 H   0  0  0  0  0  0  0  0  0  0  0  0
   31.5512  -21.6334   36.2419 C   0  0  0  0  0  0  0  0  0  0  0  0
   30.8107  -22.2641   35.3327 C   0  0  0  0  0  0  0  0  0  0  0  0
   30.2053  -23.4897   35.6650 C   0  0  0  0  0  0  0  0  0  0  0  0
   30.3436  -24.0727   36.8977 C   0  0  0  0  0  0  0  0  0  0  0  0
   31.1165  -23.4013   37.8273 C   0  0  0  0  0  0  0  0  0  0  0  0
   31.7122  -22.2054   37.5147 C   0  0  0  0  0  0  0  0  0  0  0  0
   31.2924  -23.9400   39.0903 O   0  0  0  0  0  0  0  0  0  0  0  0
   32.4802  -23.7034   39.7986 C   0  0  0  0  0  0  0  0  0  0  0  0
   32.1828  -23.0254   41.0975 C   0  0  0  0  0  0  0  0  0  0  0  0
   32.8692  -21.7871   41.2061 N   0  0  0  0  0  0  0  0  0  0  0  0
   33.2907  -21.5270   42.5901 C   0  0  0  0  0  0  0  0  0  0  0  0
   34.7526  -21.7848   42.8008 C   0  0  0  0  0  0  0  0  0  0  0  0
   35.5279  -20.9537   41.9969 O   0  0  0  0  0  0  0  0  0  0  0  0
   34.8023  -20.4418   40.9251 C   0  0  0  0  0  0  0  0  0  0  0  0
   33.9296  -21.5320   40.2926 C   0  0  0  0  0  0  0  0  0  0  0  0
   34.9408  -17.3861   35.7363 N   0  0  0  0  0  0  0  0  0  0  0  0
   35.8712  -17.7331   35.3527 H   0  0  0  0  0  0  0  0  0  0  0  0
   34.8032  -16.0594   36.1469 C   0  0  0  0  0  0  0  0  0  0  0  0
   33.7873  -15.1963   35.8518 C   0  0  0  0  0  0  0  0  0  0  0  0
   33.8121  -13.8991   36.3557 C   0  0  0  0  0  0  0  0  0  0  0  0
   32.8024  -13.0529   36.0570 F   0  0  0  0  0  0  0  0  0  0  0  0
   34.8394  -13.4827   37.1396 C   0  0  0  0  0  0  0  0  0  0  0  0
   34.8656  -12.2180   37.6327 F   0  0  0  0  0  0  0  0  0  0  0  0
   35.8820  -14.3235   37.4599 C   0  0  0  0  0  0  0  0  0  0  0  0
   35.8533  -15.5874   36.9662 C   0  0  0  0  0  0  0  0  0  0  0  0
   36.8907  -16.4116   37.2881 F   0  0  0  0  0  0  0  0  0  0  0  0
  1  2  1  0  0  0
  2  3  1  0  0  0
  3  4  2  0  0  0
  4 24  1  0  0  0
 24 26  1  0  0  0
 26 27  2  0  0  0
 27 28  1  0  0  0
 28 29  1  0  0  0
 28 30  2  0  0  0
 30 31  1  0  0  0
 30 32  1  0  0  0
 32 33  2  0  0  0
 33 34  1  0  0  0
  4  5  1  0  0  0
  5  6  1  0  0  0
  6  9  1  0  0  0
  9 10  2  0  0  0
 10 11  1  0  0  0
 11 12  2  0  0  0
 12 13  1  0  0  0
 13 15  1  0  0  0
 15 16  1  0  0  0
 16 17  1  0  0  0
 17 18  1  0  0  0
 18 19  1  0  0  0
 19 20  1  0  0  0
 20 21  1  0  0  0
 21 22  1  0  0  0
 22 23  1  0  0  0
 13 14  2  0  0  0
  6  2  2  0  0  0
 14  9  1  0  0  0
 33 26  1  0  0  0
 23 18  1  0  0  0
  1  7  1  0  0  0
  1  8  1  0  0  0
 24 25  1  0  0  0
M  END
> <minimizedAffinity>
-6.43522

> <CNNscore>
0.2129750401

> <CNNaffinity>
5.1450300217

> <CNN_VS>
1.0957629681

> <CNNaffinity_variance>
0.6251111627

$$$$
[H]c1nc(N2C([H])([H])c3c(N([H])c4c([H])c(-c5c([H])c([H])c([H])c(OC([H])([H])[H])c5[H])c([H])c([H])c4C([H])([H])[H])nc(N4C([H])([H])C([H])([H])OC([H])([H])C4([H])[H])nc3C([H])([H])C2([H])[H])c(C(=O)N([H])[H])c([H])c1[H]


 44 49  0  0  0  0  0  0  0  0999 V2000
   35.4297  -20.1872   38.1961 C   0  0  0  0  0  0  0  0  0  0  0  0
   34.7933  -19.9662   39.3452 N   0  0  0  0  0  0  0  0  0  0  0  0
   35.1370  -20.4168   40.5536 C   0  0  0  0  0  0  0  0  0  0  0  0
   36.2454  -21.1738   40.6074 N   0  0  0  0  0  0  0  0  0  0  0  0
   36.9720  -21.4659   39.5160 C   0  0  0  0  0  0  0  0  0  0  0  0
   38.1713  -22.2906   39.7388 C   0  0  0  0  0  0  0  0  0  0  0  0
   38.5512  -23.0698   38.5363 C   0  0  0  0  0  0  0  0  0  0  0  0
   38.2137  -22.4743   37.2665 N   0  0  0  0  0  0  0  0  0  0  0  0
   37.3654  -21.3082   37.0894 C   0  0  0  0  0  0  0  0  0  0  0  0
   36.5813  -20.9843   38.3059 C   0  0  0  0  0  0  0  0  0  0  0  0
   38.7417  -23.0375   36.0808 C   0  0  0  0  0  0  0  0  0  0  0  0
   38.1189  -24.1021   35.5556 N   0  0  0  0  0  0  0  0  0  0  0  0
   38.5342  -24.6642   34.3862 C   0  0  0  0  0  0  0  0  0  0  0  0
   39.6193  -24.1269   33.7274 C   0  0  0  0  0  0  0  0  0  0  0  0
   40.2793  -23.0432   34.2330 C   0  0  0  0  0  0  0  0  0  0  0  0
   39.8147  -22.4950   35.4467 C   0  0  0  0  0  0  0  0  0  0  0  0
   40.6070  -21.3827   35.9630 C   0  0  0  0  0  0  0  0  0  0  0  0
   41.6583  -21.6279   36.9152 N   0  0  0  0  0  0  0  0  0  0  0  0
   40.3972  -20.2152   35.5988 O   0  0  0  0  0  0  0  0  0  0  0  0
   41.4435  -21.4723   37.9094 H   0  0  0  0  0  0  0  0  0  0  0  0
   42.5950  -21.9484   36.6175 H   0  0  0  0  0  0  0  0  0  0  0  0
   34.4512  -20.1644   41.7656 N   0  0  0  0  0  0  0  0  0  0  0  0
   34.5573  -18.8541   42.4185 C   0  0  0  0  0  0  0  0  0  0  0  0
   33.3081  -18.7319   43.2813 C   0  0  0  0  0  0  0  0  0  0  0  0
   32.2200  -19.3496   42.6652 O   0  0  0  0  0  0  0  0  0  0  0  0
   32.3087  -20.7047   42.8493 C   0  0  0  0  0  0  0  0  0  0  0  0
   33.6411  -21.2120   42.3508 C   0  0  0  0  0  0  0  0  0  0  0  0
   35.0106  -19.6641   36.9672 N   0  0  0  0  0  0  0  0  0  0  0  0
   35.7252  -18.9642   36.5471 H   0  0  0  0  0  0  0  0  0  0  0  0
   31.6221  -20.7531   35.8219 C   0  0  0  0  0  0  0  0  0  0  0  0
   31.6511  -20.1715   34.5727 C   0  0  0  0  0  0  0  0  0  0  0  0
   32.7437  -19.4556   34.1412 C   0  0  0  0  0  0  0  0  0  0  0  0
   33.8579  -19.2799   34.9207 C   0  0  0  0  0  0  0  0  0  0  0  0
   35.0062  -18.4919   34.3868 C   0  0  0  0  0  0  0  0  0  0  0  0
   33.8688  -19.8562   36.1994 C   0  0  0  0  0  0  0  0  0  0  0  0
   32.7625  -20.5675   36.6071 C   0  0  0  0  0  0  0  0  0  0  0  0
   29.5972  -23.0398   37.9806 C   0  0  0  0  0  0  0  0  0  0  0  0
   28.3685  -23.0655   37.3587 C   0  0  0  0  0  0  0  0  0  0  0  0
   28.2082  -22.3194   36.2123 C   0  0  0  0  0  0  0  0  0  0  0  0
   29.2464  -21.5509   35.6759 C   0  0  0  0  0  0  0  0  0  0  0  0
   30.4749  -21.5211   36.2919 C   0  0  0  0  0  0  0  0  0  0  0  0
   30.6283  -22.2697   37.4383 C   0  0  0  0  0  0  0  0  0  0  0  0
   28.9996  -23.5564   40.2647 C   0  0  0  0  0  0  0  0  0  0  0  0
   29.8299  -23.7667   39.1401 O   0  0  0  0  0  0  0  0  0  0  0  0
 43 44  1  0  0  0
 44 37  1  0  0  0
 37 38  2  0  0  0
 38 39  1  0  0  0
 39 40  2  0  0  0
 40 41  1  0  0  0
 41 42  2  0  0  0
 41 30  1  0  0  0
 30 31  2  0  0  0
 31 32  1  0  0  0
 32 33  2  0  0  0
 33 34  1  0  0  0
 33 35  1  0  0  0
 35 28  1  0  0  0
 28  1  1  0  0  0
  1  2  2  0  0  0
  2  3  1  0  0  0
  3  4  2  0  0  0
  4  5  1  0  0  0
  5  6  1  0  0  0
  6  7  1  0  0  0
  7  8  1  0  0  0
  8  9  1  0  0  0
  9 10  1  0  0  0
  8 11  1  0  0  0
 11 12  2  0  0  0
 12 13  1  0  0  0
 13 14  2  0  0  0
 14 15  1  0  0  0
 15 16  2  0  0  0
 16 17  1  0  0  0
 17 18  1  0  0  0
 17 19  2  0  0  0
  3 22  1  0  0  0
 22 23  1  0  0  0
 23 24  1  0  0  0
 24 25  1  0  0  0
 25 26  1  0  0  0
 26 27  1  0  0  0
 35 36  2  0  0  0
 42 37  1  0  0  0
 36 30  1  0  0  0
 10  1  1  0  0  0
 16 11  1  0  0  0
 27 22  1  0  0  0
 10  5  2  0  0  0
 28 29  1  0  0  0
 18 20  1  0  0  0
 18 21  1  0  0  0
M  END
> <minimizedAffinity>
-6.13906

> <CNNscore>
0.1456902623

> <CNNaffinity>
5.8769288063

> <CNN_VS>
0.8562113047

> <CNNaffinity_variance>
0.1196085215

$$$$
[H]c1nc(N2C([H])([H])c3c(N([H])c4c([H])c(-c5c([H])c([H])c([H])c(OC([H])([H])[H])c5[H])c([H])c([H])c4C([H])([H])[H])nc(N4C([H])([H])C([H])([H])OC([H])([H])C4([H])[H])nc3C([H])([H])C2([H])[H])c(C(=O)N([H])[H])c([H])c1[H]


 44 49  0  0  0  0  0  0  0  0999 V2000
   36.6654  -20.8512   37.3063 C   0  0  0  0  0  0  0  0  0  0  0  0
   35.6726  -20.3752   36.5565 N   0  0  0  0  0  0  0  0  0  0  0  0
   34.4450  -20.0454   36.9638 C   0  0  0  0  0  0  0  0  0  0  0  0
   34.1924  -20.2148   38.2722 N   0  0  0  0  0  0  0  0  0  0  0  0
   35.1133  -20.6874   39.1285 C   0  0  0  0  0  0  0  0  0  0  0  0
   34.6921  -20.7985   40.5351 C   0  0  0  0  0  0  0  0  0  0  0  0
   35.4463  -21.8428   41.2687 C   0  0  0  0  0  0  0  0  0  0  0  0
   36.7946  -22.0827   40.8153 N   0  0  0  0  0  0  0  0  0  0  0  0
   37.3744  -21.5455   39.5962 C   0  0  0  0  0  0  0  0  0  0  0  0
   36.3505  -21.0106   38.6662 C   0  0  0  0  0  0  0  0  0  0  0  0
   37.6506  -22.8906   41.6003 C   0  0  0  0  0  0  0  0  0  0  0  0
   38.3549  -22.3014   42.5770 N   0  0  0  0  0  0  0  0  0  0  0  0
   39.1564  -23.0216   43.4103 C   0  0  0  0  0  0  0  0  0  0  0  0
   39.2461  -24.3874   43.2463 C   0  0  0  0  0  0  0  0  0  0  0  0
   38.5440  -25.0221   42.2616 C   0  0  0  0  0  0  0  0  0  0  0  0
   37.7276  -24.2359   41.4219 C   0  0  0  0  0  0  0  0  0  0  0  0
   37.0602  -24.9691   40.3503 C   0  0  0  0  0  0  0  0  0  0  0  0
   35.7474  -25.5198   40.5632 N   0  0  0  0  0  0  0  0  0  0  0  0
   37.6000  -25.1332   39.2450 O   0  0  0  0  0  0  0  0  0  0  0  0
   35.6852  -26.5185   40.8035 H   0  0  0  0  0  0  0  0  0  0  0  0
   34.8961  -24.9392   40.4795 H   0  0  0  0  0  0  0  0  0  0  0  0
   33.4049  -19.5334   36.1521 N   0  0  0  0  0  0  0  0  0  0  0  0
   33.5903  -18.2786   35.4134 C   0  0  0  0  0  0  0  0  0  0  0  0
   32.6036  -18.3438   34.2550 C   0  0  0  0  0  0  0  0  0  0  0  0
   32.4693  -19.6531   33.7938 O   0  0  0  0  0  0  0  0  0  0  0  0
   31.6417  -20.3450   34.6391 C   0  0  0  0  0  0  0  0  0  0  0  0
   32.1586  -20.2638   36.0560 C   0  0  0  0  0  0  0  0  0  0  0  0
   37.9344  -21.1604   36.8032 N   0  0  0  0  0  0  0  0  0  0  0  0
   37.9948  -22.1735   36.4196 H   0  0  0  0  0  0  0  0  0  0  0  0
   41.2346  -19.6002   37.6124 C   0  0  0  0  0  0  0  0  0  0  0  0
   41.4362  -18.9555   36.4110 C   0  0  0  0  0  0  0  0  0  0  0  0
   40.5184  -19.0406   35.3898 C   0  0  0  0  0  0  0  0  0  0  0  0
   39.3598  -19.7646   35.5053 C   0  0  0  0  0  0  0  0  0  0  0  0
   38.4099  -19.8114   34.3564 C   0  0  0  0  0  0  0  0  0  0  0  0
   39.1164  -20.4359   36.7126 C   0  0  0  0  0  0  0  0  0  0  0  0
   40.0510  -20.3347   37.7188 C   0  0  0  0  0  0  0  0  0  0  0  0
   42.5283  -19.2073   41.0997 C   0  0  0  0  0  0  0  0  0  0  0  0
   43.8925  -19.3275   40.9525 C   0  0  0  0  0  0  0  0  0  0  0  0
   44.3901  -19.5396   39.6859 C   0  0  0  0  0  0  0  0  0  0  0  0
   43.5560  -19.6335   38.5672 C   0  0  0  0  0  0  0  0  0  0  0  0
   42.1938  -19.5145   38.7076 C   0  0  0  0  0  0  0  0  0  0  0  0
   41.7028  -19.3026   39.9773 C   0  0  0  0  0  0  0  0  0  0  0  0
   40.7637  -19.6714   42.6847 C   0  0  0  0  0  0  0  0  0  0  0  0
   41.9573  -18.9934   42.3468 O   0  0  0  0  0  0  0  0  0  0  0  0
 43 44  1  0  0  0
 44 37  1  0  0  0
 37 38  2  0  0  0
 38 39  1  0  0  0
 39 40  2  0  0  0
 40 41  1  0  0  0
 41 42  2  0  0  0
 41 30  1  0  0  0
 30 31  2  0  0  0
 31 32  1  0  0  0
 32 33  2  0  0  0
 33 34  1  0  0  0
 33 35  1  0  0  0
 35 28  1  0  0  0
 28  1  1  0  0  0
  1  2  2  0  0  0
  2  3  1  0  0  0
  3  4  2  0  0  0
  4  5  1  0  0  0
  5  6  1  0  0  0
  6  7  1  0  0  0
  7  8  1  0  0  0
  8  9  1  0  0  0
  9 10  1  0  0  0
  8 11  1  0  0  0
 11 12  2  0  0  0
 12 13  1  0  0  0
 13 14  2  0  0  0
 14 15  1  0  0  0
 15 16  2  0  0  0
 16 17  1  0  0  0
 17 18  1  0  0  0
 17 19  2  0  0  0
  3 22  1  0  0  0
 22 23  1  0  0  0
 23 24  1  0  0  0
 24 25  1  0  0  0
 25 26  1  0  0  0
 26 27  1  0  0  0
 35 36  2  0  0  0
 42 37  1  0  0  0
 36 30  1  0  0  0
 10  1  1  0  0  0
 16 11  1  0  0  0
 27 22  1  0  0  0
 10  5  2  0  0  0
 28 29  1  0  0  0
 18 20  1  0  0  0
 18 21  1  0  0  0
M  END
> <minimizedAffinity>
-5.72434

> <CNNscore>
0.1231526285

> <CNNaffinity>
5.7763886452

> <CNN_VS>
0.7113774419

> <CNNaffinity_variance>
0.1019916534

$$$$
[H]c1nc(N2C([H])([H])c3c(N([H])c4c([H])c(-c5c([H])c([H])c([H])c(OC([H])([H])[H])c5[H])c([H])c([H])c4C([H])([H])[H])nc(N4C([H])([H])C([H])([H])OC([H])([H])C4([H])[H])nc3C([H])([H])C2([H])[H])c(C(=O)N([H])[H])c([H])c1[H]


 44 49  0  0  0  0  0  0  0  0999 V2000
   33.5682  -21.2207   37.4085 C   0  0  0  0  0  0  0  0  0  0  0  0
   32.3292  -21.6685   37.2118 N   0  0  0  0  0  0  0  0  0  0  0  0
   31.5906  -22.3875   38.0597 C   0  0  0  0  0  0  0  0  0  0  0  0
   32.1666  -22.6870   39.2357 N   0  0  0  0  0  0  0  0  0  0  0  0
   33.4114  -22.2916   39.5498 C   0  0  0  0  0  0  0  0  0  0  0  0
   33.8968  -22.6813   40.8841 C   0  0  0  0  0  0  0  0  0  0  0  0
   35.3746  -22.7840   40.9388 C   0  0  0  0  0  0  0  0  0  0  0  0
   36.1006  -21.9149   40.0451 N   0  0  0  0  0  0  0  0  0  0  0  0
   35.5058  -21.1275   38.9786 C   0  0  0  0  0  0  0  0  0  0  0  0
   34.1256  -21.5611   38.6524 C   0  0  0  0  0  0  0  0  0  0  0  0
   37.5013  -21.7866   40.1976 C   0  0  0  0  0  0  0  0  0  0  0  0
   37.9686  -21.3038   41.3576 N   0  0  0  0  0  0  0  0  0  0  0  0
   39.3054  -21.2042   41.6001 C   0  0  0  0  0  0  0  0  0  0  0  0
   40.1987  -21.6088   40.6311 C   0  0  0  0  0  0  0  0  0  0  0  0
   39.7593  -22.1047   39.4368 C   0  0  0  0  0  0  0  0  0  0  0  0
   38.3666  -22.1887   39.2295 C   0  0  0  0  0  0  0  0  0  0  0  0
   37.9685  -22.6633   37.9075 C   0  0  0  0  0  0  0  0  0  0  0  0
   37.4760  -24.0058   37.7422 N   0  0  0  0  0  0  0  0  0  0  0  0
   38.0434  -21.9319   36.9080 O   0  0  0  0  0  0  0  0  0  0  0  0
   38.1401  -24.7168   37.4071 H   0  0  0  0  0  0  0  0  0  0  0  0
   36.4938  -24.2521   37.9509 H   0  0  0  0  0  0  0  0  0  0  0  0
   30.2714  -22.8479   37.8351 N   0  0  0  0  0  0  0  0  0  0  0  0
   29.5344  -22.4305   36.6362 C   0  0  0  0  0  0  0  0  0  0  0  0
   28.4840  -23.5106   36.4130 C   0  0  0  0  0  0  0  0  0  0  0  0
   28.9767  -24.7623   36.7813 O   0  0  0  0  0  0  0  0  0  0  0  0
   28.9228  -24.8830   38.1454 C   0  0  0  0  0  0  0  0  0  0  0  0
   29.6596  -23.7381   38.7991 C   0  0  0  0  0  0  0  0  0  0  0  0
   34.2724  -20.4571   36.4703 N   0  0  0  0  0  0  0  0  0  0  0  0
   35.2452  -20.8771   36.2372 H   0  0  0  0  0  0  0  0  0  0  0  0
   34.0372  -16.8433   35.5399 C   0  0  0  0  0  0  0  0  0  0  0  0
   33.3202  -16.9970   34.3729 C   0  0  0  0  0  0  0  0  0  0  0  0
   32.9391  -18.2407   33.9250 C   0  0  0  0  0  0  0  0  0  0  0  0
   33.2469  -19.3900   34.6064 C   0  0  0  0  0  0  0  0  0  0  0  0
   32.8001  -20.7044   34.0612 C   0  0  0  0  0  0  0  0  0  0  0  0
   33.9757  -19.2771   35.7994 C   0  0  0  0  0  0  0  0  0  0  0  0
   34.3451  -18.0209   36.2256 C   0  0  0  0  0  0  0  0  0  0  0  0
   36.2932  -14.0581   36.6087 C   0  0  0  0  0  0  0  0  0  0  0  0
   35.4196  -13.0529   36.9598 C   0  0  0  0  0  0  0  0  0  0  0  0
   34.0696  -13.2992   36.8431 C   0  0  0  0  0  0  0  0  0  0  0  0
   33.5760  -14.5247   36.3845 C   0  0  0  0  0  0  0  0  0  0  0  0
   34.4428  -15.5319   36.0325 C   0  0  0  0  0  0  0  0  0  0  0  0
   35.7918  -15.2788   36.1517 C   0  0  0  0  0  0  0  0  0  0  0  0
   38.2196  -13.3835   37.9031 C   0  0  0  0  0  0  0  0  0  0  0  0
   37.6668  -13.8795   36.7003 O   0  0  0  0  0  0  0  0  0  0  0  0
 43 44  1  0  0  0
 44 37  1  0  0  0
 37 38  2  0  0  0
 38 39  1  0  0  0
 39 40  2  0  0  0
 40 41  1  0  0  0
 41 42  2  0  0  0
 41 30  1  0  0  0
 30 31  2  0  0  0
 31 32  1  0  0  0
 32 33  2  0  0  0
 33 34  1  0  0  0
 33 35  1  0  0  0
 35 28  1  0  0  0
 28  1  1  0  0  0
  1  2  2  0  0  0
  2  3  1  0  0  0
  3  4  2  0  0  0
  4  5  1  0  0  0
  5  6  1  0  0  0
  6  7  1  0  0  0
  7  8  1  0  0  0
  8  9  1  0  0  0
  9 10  1  0  0  0
  8 11  1  0  0  0
 11 12  2  0  0  0
 12 13  1  0  0  0
 13 14  2  0  0  0
 14 15  1  0  0  0
 15 16  2  0  0  0
 16 17  1  0  0  0
 17 18  1  0  0  0
 17 19  2  0  0  0
  3 22  1  0  0  0
 22 23  1  0  0  0
 23 24  1  0  0  0
 24 25  1  0  0  0
 25 26  1  0  0  0
 26 27  1  0  0  0
 35 36  2  0  0  0
 42 37  1  0  0  0
 36 30  1  0  0  0
 10  1  1  0  0  0
 16 11  1  0  0  0
 27 22  1  0  0  0
 10  5  2  0  0  0
 28 29  1  0  0  0
 18 20  1  0  0  0
 18 21  1  0  0  0
M  END
> <minimizedAffinity>
-6.52465

> <CNNscore>
0.1226231083

> <CNNaffinity>
5.9199533463

> <CNN_VS>
0.7259230614

> <CNNaffinity_variance>
0.2392895669

$$$$
[H]c1nc(N2C([H])([H])c3c(N([H])c4c([H])c(-c5c([H])c([H])c([H])c(OC([H])([H])[H])c5[H])c([H])c([H])c4C([H])([H])[H])nc(N4C([H])([H])C([H])([H])OC([H])([H])C4([H])[H])nc3C([H])([H])C2([H])[H])c(C(=O)N([H])[H])c([H])c1[H]


 44 49  0  0  0  0  0  0  0  0999 V2000
   35.6812  -19.3988   36.4448 C   0  0  0  0  0  0  0  0  0  0  0  0
   35.3695  -18.1224   36.6640 N   0  0  0  0  0  0  0  0  0  0  0  0
   36.2167  -17.1143   36.8815 C   0  0  0  0  0  0  0  0  0  0  0  0
   37.5224  -17.4298   36.8769 N   0  0  0  0  0  0  0  0  0  0  0  0
   37.9602  -18.6824   36.6671 C   0  0  0  0  0  0  0  0  0  0  0  0
   39.4210  -18.8666   36.6726 C   0  0  0  0  0  0  0  0  0  0  0  0
   39.8143  -20.2435   37.0563 C   0  0  0  0  0  0  0  0  0  0  0  0
   38.8772  -21.2854   36.7140 N   0  0  0  0  0  0  0  0  0  0  0  0
   37.5248  -21.0672   36.2300 C   0  0  0  0  0  0  0  0  0  0  0  0
   37.0583  -19.6768   36.4508 C   0  0  0  0  0  0  0  0  0  0  0  0
   39.2768  -22.6371   36.8366 C   0  0  0  0  0  0  0  0  0  0  0  0
   39.8698  -23.2182   35.7842 N   0  0  0  0  0  0  0  0  0  0  0  0
   40.3328  -24.4980   35.8451 C   0  0  0  0  0  0  0  0  0  0  0  0
   40.1887  -25.2124   37.0153 C   0  0  0  0  0  0  0  0  0  0  0  0
   39.5888  -24.6535   38.1076 C   0  0  0  0  0  0  0  0  0  0  0  0
   39.1239  -23.3263   37.9982 C   0  0  0  0  0  0  0  0  0  0  0  0
   38.4337  -22.8165   39.1793 C   0  0  0  0  0  0  0  0  0  0  0  0
   37.0207  -23.0393   39.3403 N   0  0  0  0  0  0  0  0  0  0  0  0
   39.0392  -22.1878   40.0614 O   0  0  0  0  0  0  0  0  0  0  0  0
   36.3866  -22.2732   39.0761 H   0  0  0  0  0  0  0  0  0  0  0  0
   36.6513  -23.9328   39.7066 H   0  0  0  0  0  0  0  0  0  0  0  0
   35.8658  -15.7616   37.1051 N   0  0  0  0  0  0  0  0  0  0  0  0
   36.8121  -14.8480   37.7565 C   0  0  0  0  0  0  0  0  0  0  0  0
   36.3973  -13.4525   37.3090 C   0  0  0  0  0  0  0  0  0  0  0  0
   35.9190  -13.4757   35.9992 O   0  0  0  0  0  0  0  0  0  0  0  0
   34.6307  -13.9428   35.9991 C   0  0  0  0  0  0  0  0  0  0  0  0
   34.5648  -15.2893   36.6801 C   0  0  0  0  0  0  0  0  0  0  0  0
   34.7294  -20.3978   36.2098 N   0  0  0  0  0  0  0  0  0  0  0  0
   35.0398  -21.3661   36.5883 H   0  0  0  0  0  0  0  0  0  0  0  0
   31.1036  -20.9324   35.4699 C   0  0  0  0  0  0  0  0  0  0  0  0
   31.0717  -20.3173   34.2369 C   0  0  0  0  0  0  0  0  0  0  0  0
   32.2009  -19.7558   33.6873 C   0  0  0  0  0  0  0  0  0  0  0  0
   33.4134  -19.7747   34.3272 C   0  0  0  0  0  0  0  0  0  0  0  0
   34.5960  -19.1464   33.6703 C   0  0  0  0  0  0  0  0  0  0  0  0
   33.4887  -20.3915   35.5846 C   0  0  0  0  0  0  0  0  0  0  0  0
   32.3440  -20.9456   36.1124 C   0  0  0  0  0  0  0  0  0  0  0  0
   27.9131  -21.1993   37.4035 C   0  0  0  0  0  0  0  0  0  0  0  0
   27.5725  -22.5283   37.2808 C   0  0  0  0  0  0  0  0  0  0  0  0
   28.4077  -23.3453   36.5517 C   0  0  0  0  0  0  0  0  0  0  0  0
   29.5722  -22.8640   35.9448 C   0  0  0  0  0  0  0  0  0  0  0  0
   29.9175  -21.5388   36.0635 C   0  0  0  0  0  0  0  0  0  0  0  0
   29.0776  -20.7271   36.7941 C   0  0  0  0  0  0  0  0  0  0  0  0
   27.0073  -20.4741   39.5236 C   0  0  0  0  0  0  0  0  0  0  0  0
   27.1175  -20.3182   38.1229 O   0  0  0  0  0  0  0  0  0  0  0  0
 43 44  1  0  0  0
 44 37  1  0  0  0
 37 38  2  0  0  0
 38 39  1  0  0  0
 39 40  2  0  0  0
 40 41  1  0  0  0
 41 42  2  0  0  0
 41 30  1  0  0  0
 30 31  2  0  0  0
 31 32  1  0  0  0
 32 33  2  0  0  0
 33 34  1  0  0  0
 33 35  1  0  0  0
 35 28  1  0  0  0
 28  1  1  0  0  0
  1  2  2  0  0  0
  2  3  1  0  0  0
  3  4  2  0  0  0
  4  5  1  0  0  0
  5  6  1  0  0  0
  6  7  1  0  0  0
  7  8  1  0  0  0
  8  9  1  0  0  0
  9 10  1  0  0  0
  8 11  1  0  0  0
 11 12  2  0  0  0
 12 13  1  0  0  0
 13 14  2  0  0  0
 14 15  1  0  0  0
 15 16  2  0  0  0
 16 17  1  0  0  0
 17 18  1  0  0  0
 17 19  2  0  0  0
  3 22  1  0  0  0
 22 23  1  0  0  0
 23 24  1  0  0  0
 24 25  1  0  0  0
 25 26  1  0  0  0
 26 27  1  0  0  0
 35 36  2  0  0  0
 42 37  1  0  0  0
 36 30  1  0  0  0
 10  1  1  0  0  0
 16 11  1  0  0  0
 27 22  1  0  0  0
 10  5  2  0  0  0
 28 29  1  0  0  0
 18 20  1  0  0  0
 18 21  1  0  0  0
M  END
> <minimizedAffinity>
-6.49011

> <CNNscore>
0.1219296381

> <CNNaffinity>
6.1082224846

> <CNN_VS>
0.7447733283

> <CNNaffinity_variance>
0.2084923536

$$$$
[H]c1nc(N2C([H])([H])c3c(N([H])c4c([H])c(-c5c([H])c([H])c([H])c(OC([H])([H])[H])c5[H])c([H])c([H])c4C([H])([H])[H])nc(N4C([H])([H])C([H])([H])OC([H])([H])C4([H])[H])nc3C([H])([H])C2([H])[H])c(C(=O)N([H])[H])c([H])c1[H]


 44 49  0  0  0  0  0  0  0  0999 V2000
   35.9953  -20.8393   36.6989 C   0  0  0  0  0  0  0  0  0  0  0  0
   35.2008  -21.5973   37.4530 N   0  0  0  0  0  0  0  0  0  0  0  0
   35.5328  -22.2436   38.5726 C   0  0  0  0  0  0  0  0  0  0  0  0
   36.8073  -22.1094   38.9750 N   0  0  0  0  0  0  0  0  0  0  0  0
   37.7027  -21.3712   38.2983 C   0  0  0  0  0  0  0  0  0  0  0  0
   39.0555  -21.3052   38.8759 C   0  0  0  0  0  0  0  0  0  0  0  0
   40.0942  -21.0444   37.8508 C   0  0  0  0  0  0  0  0  0  0  0  0
   39.6726  -20.2705   36.7087 N   0  0  0  0  0  0  0  0  0  0  0  0
   38.2969  -19.9230   36.3963 C   0  0  0  0  0  0  0  0  0  0  0  0
   37.3174  -20.7317   37.1619 C   0  0  0  0  0  0  0  0  0  0  0  0
   40.6499  -19.7865   35.8074 C   0  0  0  0  0  0  0  0  0  0  0  0
   40.3362  -19.7319   34.5053 N   0  0  0  0  0  0  0  0  0  0  0  0
   41.2034  -19.2254   33.5849 C   0  0  0  0  0  0  0  0  0  0  0  0
   42.4318  -18.7581   34.0011 C   0  0  0  0  0  0  0  0  0  0  0  0
   42.7864  -18.7986   35.3194 C   0  0  0  0  0  0  0  0  0  0  0  0
   41.8571  -19.3324   36.2365 C   0  0  0  0  0  0  0  0  0  0  0  0
   42.3278  -19.4075   37.6165 C   0  0  0  0  0  0  0  0  0  0  0  0
   43.2550  -20.4373   38.0064 N   0  0  0  0  0  0  0  0  0  0  0  0
   41.9461  -18.5970   38.4751 O   0  0  0  0  0  0  0  0  0  0  0  0
   42.8695  -21.2731   38.4664 H   0  0  0  0  0  0  0  0  0  0  0  0
   44.2701  -20.3462   37.8333 H   0  0  0  0  0  0  0  0  0  0  0  0
   34.6711  -23.0389   39.3649 N   0  0  0  0  0  0  0  0  0  0  0  0
   34.7317  -24.5033   39.2851 C   0  0  0  0  0  0  0  0  0  0  0  0
   34.1650  -25.0023   40.6078 C   0  0  0  0  0  0  0  0  0  0  0  0
   34.5060  -24.1386   41.6484 O   0  0  0  0  0  0  0  0  0  0  0  0
   33.6778  -23.0472   41.6165 C   0  0  0  0  0  0  0  0  0  0  0  0
   33.7328  -22.3912   40.2571 C   0  0  0  0  0  0  0  0  0  0  0  0
   35.5646  -20.1805   35.5414 N   0  0  0  0  0  0  0  0  0  0  0  0
   35.9516  -20.6347   34.6353 H   0  0  0  0  0  0  0  0  0  0  0  0
   34.2068  -16.6972   35.5979 C   0  0  0  0  0  0  0  0  0  0  0  0
   33.0719  -16.9268   34.8504 C   0  0  0  0  0  0  0  0  0  0  0  0
   32.7806  -18.1772   34.3563 C   0  0  0  0  0  0  0  0  0  0  0  0
   33.5941  -19.2588   34.5761 C   0  0  0  0  0  0  0  0  0  0  0  0
   33.2145  -20.5854   34.0098 C   0  0  0  0  0  0  0  0  0  0  0  0
   34.7595  -19.0676   35.3326 C   0  0  0  0  0  0  0  0  0  0  0  0
   35.0280  -17.8063   35.8154 C   0  0  0  0  0  0  0  0  0  0  0  0
   36.1284  -14.0171   37.3625 C   0  0  0  0  0  0  0  0  0  0  0  0
   35.3217  -12.9076   37.2382 C   0  0  0  0  0  0  0  0  0  0  0  0
   34.1286  -13.0476   36.5647 C   0  0  0  0  0  0  0  0  0  0  0  0
   33.7260  -14.2689   36.0147 C   0  0  0  0  0  0  0  0  0  0  0  0
   34.5267  -15.3797   36.1352 C   0  0  0  0  0  0  0  0  0  0  0  0
   35.7188  -15.2326   36.8101 C   0  0  0  0  0  0  0  0  0  0  0  0
   38.4059  -13.2132   37.4520 C   0  0  0  0  0  0  0  0  0  0  0  0
   37.3449  -13.9489   38.0277 O   0  0  0  0  0  0  0  0  0  0  0  0
 43 44  1  0  0  0
 44 37  1  0  0  0
 37 38  2  0  0  0
 38 39  1  0  0  0
 39 40  2  0  0  0
 40 41  1  0  0  0
 41 42  2  0  0  0
 41 30  1  0  0  0
 30 31  2  0  0  0
 31 32  1  0  0  0
 32 33  2  0  0  0
 33 34  1  0  0  0
 33 35  1  0  0  0
 35 28  1  0  0  0
 28  1  1  0  0  0
  1  2  2  0  0  0
  2  3  1  0  0  0
  3  4  2  0  0  0
  4  5  1  0  0  0
  5  6  1  0  0  0
  6  7  1  0  0  0
  7  8  1  0  0  0
  8  9  1  0  0  0
  9 10  1  0  0  0
  8 11  1  0  0  0
 11 12  2  0  0  0
 12 13  1  0  0  0
 13 14  2  0  0  0
 14 15  1  0  0  0
 15 16  2  0  0  0
 16 17  1  0  0  0
 17 18  1  0  0  0
 17 19  2  0  0  0
  3 22  1  0  0  0
 22 23  1  0  0  0
 23 24  1  0  0  0
 24 25  1  0  0  0
 25 26  1  0  0  0
 26 27  1  0  0  0
 35 36  2  0  0  0
 42 37  1  0  0  0
 36 30  1  0  0  0
 10  1  1  0  0  0
 16 11  1  0  0  0
 27 22  1  0  0  0
 10  5  2  0  0  0
 28 29  1  0  0  0
 18 20  1  0  0  0
 18 21  1  0  0  0
M  END
> <minimizedAffinity>
-7.22787

> <CNNscore>
0.1149445772

> <CNNaffinity>
6.2903389931

> <CNN_VS>
0.7230403423

> <CNNaffinity_variance>
0.0747663528

$$$$
[H]c1nc(N2C([H])([H])c3c(N([H])c4c([H])c(-c5c([H])c([H])c([H])c(OC([H])([H])[H])c5[H])c([H])c([H])c4C([H])([H])[H])nc(N4C([H])([H])C([H])([H])OC([H])([H])C4([H])[H])nc3C([H])([H])C2([H])[H])c(C(=O)N([H])[H])c([H])c1[H]


 44 49  0  0  0  0  0  0  0  0999 V2000
   36.6468  -20.7083   36.9180 C   0  0  0  0  0  0  0  0  0  0  0  0
   37.8438  -20.3201   36.4812 N   0  0  0  0  0  0  0  0  0  0  0  0
   39.0264  -20.5750   37.0451 C   0  0  0  0  0  0  0  0  0  0  0  0
   38.9969  -21.3021   38.1742 N   0  0  0  0  0  0  0  0  0  0  0  0
   37.8508  -21.7508   38.7125 C   0  0  0  0  0  0  0  0  0  0  0  0
   37.9828  -22.5509   39.9415 C   0  0  0  0  0  0  0  0  0  0  0  0
   36.7706  -22.4821   40.7921 C   0  0  0  0  0  0  0  0  0  0  0  0
   35.5226  -22.2833   40.0964 N   0  0  0  0  0  0  0  0  0  0  0  0
   35.3950  -21.9419   38.6899 C   0  0  0  0  0  0  0  0  0  0  0  0
   36.6701  -21.4647   38.1017 C   0  0  0  0  0  0  0  0  0  0  0  0
   34.3081  -22.4358   40.8058 C   0  0  0  0  0  0  0  0  0  0  0  0
   33.5935  -23.5516   40.6022 N   0  0  0  0  0  0  0  0  0  0  0  0
   32.4433  -23.7956   41.2900 C   0  0  0  0  0  0  0  0  0  0  0  0
   32.0033  -22.8748   42.2167 C   0  0  0  0  0  0  0  0  0  0  0  0
   32.7045  -21.7262   42.4501 C   0  0  0  0  0  0  0  0  0  0  0  0
   33.8891  -21.5153   41.7140 C   0  0  0  0  0  0  0  0  0  0  0  0
   34.5503  -20.2380   41.9645 C   0  0  0  0  0  0  0  0  0  0  0  0
   35.3420  -20.0574   43.1530 N   0  0  0  0  0  0  0  0  0  0  0  0
   34.4481  -19.2900   41.1703 O   0  0  0  0  0  0  0  0  0  0  0  0
   34.8992  -19.5804   43.9500 H   0  0  0  0  0  0  0  0  0  0  0  0
   36.3185  -20.3923   43.2097 H   0  0  0  0  0  0  0  0  0  0  0  0
   40.2897  -20.1597   36.5609 N   0  0  0  0  0  0  0  0  0  0  0  0
   40.4757  -19.8606   35.1359 C   0  0  0  0  0  0  0  0  0  0  0  0
   41.6742  -18.9226   35.0746 C   0  0  0  0  0  0  0  0  0  0  0  0
   41.6996  -18.0805   36.1861 O   0  0  0  0  0  0  0  0  0  0  0  0
   42.1962  -18.7699   37.2613 C   0  0  0  0  0  0  0  0  0  0  0  0
   41.3941  -20.0296   37.4879 C   0  0  0  0  0  0  0  0  0  0  0  0
   35.4489  -20.4106   36.2579 N   0  0  0  0  0  0  0  0  0  0  0  0
   34.9116  -21.3008   35.9485 H   0  0  0  0  0  0  0  0  0  0  0  0
   34.6564  -16.7717   35.9259 C   0  0  0  0  0  0  0  0  0  0  0  0
   33.5054  -16.8984   35.1784 C   0  0  0  0  0  0  0  0  0  0  0  0
   33.0246  -18.1329   34.8076 C   0  0  0  0  0  0  0  0  0  0  0  0
   33.6558  -19.2991   35.1562 C   0  0  0  0  0  0  0  0  0  0  0  0
   33.0765  -20.6022   34.7192 C   0  0  0  0  0  0  0  0  0  0  0  0
   34.8309  -19.2138   35.9172 C   0  0  0  0  0  0  0  0  0  0  0  0
   35.2909  -17.9663   36.2752 C   0  0  0  0  0  0  0  0  0  0  0  0
   34.6509  -13.2195   37.0968 C   0  0  0  0  0  0  0  0  0  0  0  0
   35.9889  -12.8979   37.1558 C   0  0  0  0  0  0  0  0  0  0  0  0
   36.9029  -13.8658   36.8032 C   0  0  0  0  0  0  0  0  0  0  0  0
   36.5094  -15.1441   36.3943 C   0  0  0  0  0  0  0  0  0  0  0  0
   35.1756  -15.4712   36.3335 C   0  0  0  0  0  0  0  0  0  0  0  0
   34.2667  -14.4982   36.6875 C   0  0  0  0  0  0  0  0  0  0  0  0
   32.4951  -12.7388   38.0779 C   0  0  0  0  0  0  0  0  0  0  0  0
   33.6747  -12.2937   37.4386 O   0  0  0  0  0  0  0  0  0  0  0  0
 43 44  1  0  0  0
 44 37  1  0  0  0
 37 38  2  0  0  0
 38 39  1  0  0  0
 39 40  2  0  0  0
 40 41  1  0  0  0
 41 42  2  0  0  0
 41 30  1  0  0  0
 30 31  2  0  0  0
 31 32  1  0  0  0
 32 33  2  0  0  0
 33 34  1  0  0  0
 33 35  1  0  0  0
 35 28  1  0  0  0
 28  1  1  0  0  0
  1  2  2  0  0  0
  2  3  1  0  0  0
  3  4  2  0  0  0
  4  5  1  0  0  0
  5  6  1  0  0  0
  6  7  1  0  0  0
  7  8  1  0  0  0
  8  9  1  0  0  0
  9 10  1  0  0  0
  8 11  1  0  0  0
 11 12  2  0  0  0
 12 13  1  0  0  0
 13 14  2  0  0  0
 14 15  1  0  0  0
 15 16  2  0  0  0
 16 17  1  0  0  0
 17 18  1  0  0  0
 17 19  2  0  0  0
  3 22  1  0  0  0
 22 23  1  0  0  0
 23 24  1  0  0  0
 24 25  1  0  0  0
 25 26  1  0  0  0
 26 27  1  0  0  0
 35 36  2  0  0  0
 42 37  1  0  0  0
 36 30  1  0  0  0
 10  1  1  0  0  0
 16 11  1  0  0  0
 27 22  1  0  0  0
 10  5  2  0  0  0
 28 29  1  0  0  0
 18 20  1  0  0  0
 18 21  1  0  0  0
M  END
> <minimizedAffinity>
-7.33976

> <CNNscore>
0.1139646098

> <CNNaffinity>
6.0005383492

> <CNN_VS>
0.6838490367

> <CNNaffinity_variance>
0.2997869849

$$$$
[H]c1nc(N2C([H])([H])c3c(N([H])c4c([H])c(-c5c([H])c([H])c([H])c(OC([H])([H])[H])c5[H])c([H])c([H])c4C([H])([H])[H])nc(N4C([H])([H])C([H])([H])OC([H])([H])C4([H])[H])nc3C([H])([H])C2([H])[H])c(C(=O)N([H])[H])c([H])c1[H]


 44 49  0  0  0  0  0  0  0  0999 V2000
   34.5408  -17.7772   35.7011 C   0  0  0  0  0  0  0  0  0  0  0  0
   33.3057  -18.2483   35.5368 N   0  0  0  0  0  0  0  0  0  0  0  0
   32.8959  -19.5066   35.7107 C   0  0  0  0  0  0  0  0  0  0  0  0
   33.8369  -20.3857   36.0928 N   0  0  0  0  0  0  0  0  0  0  0  0
   35.1172  -20.0303   36.2907 C   0  0  0  0  0  0  0  0  0  0  0  0
   36.0265  -21.1031   36.7268 C   0  0  0  0  0  0  0  0  0  0  0  0
   37.4331  -20.8430   36.3376 C   0  0  0  0  0  0  0  0  0  0  0  0
   37.8165  -19.4551   36.2492 N   0  0  0  0  0  0  0  0  0  0  0  0
   36.8992  -18.3296   36.3020 C   0  0  0  0  0  0  0  0  0  0  0  0
   35.4872  -18.7358   36.0999 C   0  0  0  0  0  0  0  0  0  0  0  0
   39.1859  -19.1275   36.1109 C   0  0  0  0  0  0  0  0  0  0  0  0
   39.9446  -19.1052   37.2158 N   0  0  0  0  0  0  0  0  0  0  0  0
   41.2822  -18.8541   37.1557 C   0  0  0  0  0  0  0  0  0  0  0  0
   41.8698  -18.6173   35.9314 C   0  0  0  0  0  0  0  0  0  0  0  0
   41.1283  -18.6310   34.7845 C   0  0  0  0  0  0  0  0  0  0  0  0
   39.7470  -18.8945   34.8949 C   0  0  0  0  0  0  0  0  0  0  0  0
   39.0050  -18.8264   33.6394 C   0  0  0  0  0  0  0  0  0  0  0  0
   39.2328  -19.8104   32.6137 N   0  0  0  0  0  0  0  0  0  0  0  0
   38.1713  -17.9319   33.4284 O   0  0  0  0  0  0  0  0  0  0  0  0
   39.8647  -19.5545   31.8430 H   0  0  0  0  0  0  0  0  0  0  0  0
   38.7818  -20.7401   32.6450 H   0  0  0  0  0  0  0  0  0  0  0  0
   31.5758  -19.9866   35.5383 N   0  0  0  0  0  0  0  0  0  0  0  0
   31.0751  -21.0921   36.3640 C   0  0  0  0  0  0  0  0  0  0  0  0
   29.5590  -20.9467   36.3549 C   0  0  0  0  0  0  0  0  0  0  0  0
   29.1921  -19.6015   36.3261 O   0  0  0  0  0  0  0  0  0  0  0  0
   29.3227  -19.1271   35.0471 C   0  0  0  0  0  0  0  0  0  0  0  0
   30.7247  -19.3719   34.5414 C   0  0  0  0  0  0  0  0  0  0  0  0
   34.8877  -16.4344   35.5116 N   0  0  0  0  0  0  0  0  0  0  0  0
   35.3421  -16.2543   34.5430 H   0  0  0  0  0  0  0  0  0  0  0  0
   33.4966  -13.5245   37.4029 C   0  0  0  0  0  0  0  0  0  0  0  0
   34.6813  -13.0646   37.9364 C   0  0  0  0  0  0  0  0  0  0  0  0
   35.8761  -13.6950   37.6766 C   0  0  0  0  0  0  0  0  0  0  0  0
   35.9586  -14.8074   36.8793 C   0  0  0  0  0  0  0  0  0  0  0  0
   37.2888  -15.4384   36.6409 C   0  0  0  0  0  0  0  0  0  0  0  0
   34.7752  -15.3076   36.3165 C   0  0  0  0  0  0  0  0  0  0  0  0
   33.5927  -14.6583   36.5924 C   0  0  0  0  0  0  0  0  0  0  0  0
   30.2546  -12.7285   39.0897 C   0  0  0  0  0  0  0  0  0  0  0  0
   29.7385  -11.7035   38.3280 C   0  0  0  0  0  0  0  0  0  0  0  0
   30.4700  -11.2717   37.2439 C   0  0  0  0  0  0  0  0  0  0  0  0
   31.7021  -11.8408   36.9061 C   0  0  0  0  0  0  0  0  0  0  0  0
   32.2225  -12.8639   37.6624 C   0  0  0  0  0  0  0  0  0  0  0  0
   31.4856  -13.2909   38.7453 C   0  0  0  0  0  0  0  0  0  0  0  0
   29.5030  -12.4220   41.3662 C   0  0  0  0  0  0  0  0  0  0  0  0
   29.5721  -13.2135   40.1969 O   0  0  0  0  0  0  0  0  0  0  0  0
 43 44  1  0  0  0
 44 37  1  0  0  0
 37 38  2  0  0  0
 38 39  1  0  0  0
 39 40  2  0  0  0
 40 41  1  0  0  0
 41 42  2  0  0  0
 41 30  1  0  0  0
 30 31  2  0  0  0
 31 32  1  0  0  0
 32 33  2  0  0  0
 33 34  1  0  0  0
 33 35  1  0  0  0
 35 28  1  0  0  0
 28  1  1  0  0  0
  1  2  2  0  0  0
  2  3  1  0  0  0
  3  4  2  0  0  0
  4  5  1  0  0  0
  5  6  1  0  0  0
  6  7  1  0  0  0
  7  8  1  0  0  0
  8  9  1  0  0  0
  9 10  1  0  0  0
  8 11  1  0  0  0
 11 12  2  0  0  0
 12 13  1  0  0  0
 13 14  2  0  0  0
 14 15  1  0  0  0
 15 16  2  0  0  0
 16 17  1  0  0  0
 17 18  1  0  0  0
 17 19  2  0  0  0
  3 22  1  0  0  0
 22 23  1  0  0  0
 23 24  1  0  0  0
 24 25  1  0  0  0
 25 26  1  0  0  0
 26 27  1  0  0  0
 35 36  2  0  0  0
 42 37  1  0  0  0
 36 30  1  0  0  0
 10  1  1  0  0  0
 16 11  1  0  0  0
 27 22  1  0  0  0
 10  5  2  0  0  0
 28 29  1  0  0  0
 18 20  1  0  0  0
 18 21  1  0  0  0
M  END
> <minimizedAffinity>
-8.50942

> <CNNscore>
0.1103068441

> <CNNaffinity>
6.4928464890

> <CNN_VS>
0.7162054181

> <CNNaffinity_variance>
0.1082716584

$$$$
[H]c1nc(N2C([H])([H])c3c(N([H])c4c([H])c(-c5c([H])c([H])c([H])c(OC([H])([H])[H])c5[H])c([H])c([H])c4C([H])([H])[H])nc(N4C([H])([H])C([H])([H])OC([H])([H])C4([H])[H])nc3C([H])([H])C2([H])[H])c(C(=O)N([H])[H])c([H])c1[H]


 44 49  0  0  0  0  0  0  0  0999 V2000
   35.3364  -21.4005   37.1284 C   0  0  0  0  0  0  0  0  0  0  0  0
   36.4450  -21.3885   37.8668 N   0  0  0  0  0  0  0  0  0  0  0  0
   36.6705  -22.0751   38.9890 C   0  0  0  0  0  0  0  0  0  0  0  0
   35.6660  -22.8602   39.4119 N   0  0  0  0  0  0  0  0  0  0  0  0
   34.4996  -22.9560   38.7522 C   0  0  0  0  0  0  0  0  0  0  0  0
   33.5030  -23.8731   39.3299 C   0  0  0  0  0  0  0  0  0  0  0  0
   32.1146  -23.4925   38.9761 C   0  0  0  0  0  0  0  0  0  0  0  0
   31.9476  -22.8239   37.7088 N   0  0  0  0  0  0  0  0  0  0  0  0
   33.0300  -22.3210   36.8802 C   0  0  0  0  0  0  0  0  0  0  0  0
   34.3164  -22.2361   37.6133 C   0  0  0  0  0  0  0  0  0  0  0  0
   30.6420  -22.6361   37.1972 C   0  0  0  0  0  0  0  0  0  0  0  0
   29.8497  -21.7396   37.8019 N   0  0  0  0  0  0  0  0  0  0  0  0
   28.6009  -21.4628   37.3331 C   0  0  0  0  0  0  0  0  0  0  0  0
   28.1407  -22.1190   36.2115 C   0  0  0  0  0  0  0  0  0  0  0  0
   28.9194  -23.0394   35.5698 C   0  0  0  0  0  0  0  0  0  0  0  0
   30.2049  -23.2945   36.0913 C   0  0  0  0  0  0  0  0  0  0  0  0
   30.9551  -24.3370   35.3971 C   0  0  0  0  0  0  0  0  0  0  0  0
   31.5680  -24.0578   34.1249 N   0  0  0  0  0  0  0  0  0  0  0  0
   31.0816  -25.4732   35.8797 O   0  0  0  0  0  0  0  0  0  0  0  0
   31.0618  -24.3542   33.2794 H   0  0  0  0  0  0  0  0  0  0  0  0
   32.4812  -23.5781   34.0571 H   0  0  0  0  0  0  0  0  0  0  0  0
   37.8596  -22.0548   39.7560 N   0  0  0  0  0  0  0  0  0  0  0  0
   39.0162  -21.2686   39.3102 C   0  0  0  0  0  0  0  0  0  0  0  0
   39.8237  -20.9900   40.5711 C   0  0  0  0  0  0  0  0  0  0  0  0
   38.9812  -20.8160   41.6688 O   0  0  0  0  0  0  0  0  0  0  0  0
   38.5638  -22.0431   42.1141 C   0  0  0  0  0  0  0  0  0  0  0  0
   37.9200  -22.8149   40.9867 C   0  0  0  0  0  0  0  0  0  0  0  0
   35.1835  -20.6592   35.9510 N   0  0  0  0  0  0  0  0  0  0  0  0
   35.4539  -21.2240   35.0651 H   0  0  0  0  0  0  0  0  0  0  0  0
   34.9367  -16.9284   35.9727 C   0  0  0  0  0  0  0  0  0  0  0  0
   33.8496  -16.8080   35.1340 C   0  0  0  0  0  0  0  0  0  0  0  0
   33.2365  -17.9144   34.5930 C   0  0  0  0  0  0  0  0  0  0  0  0
   33.6664  -19.1901   34.8535 C   0  0  0  0  0  0  0  0  0  0  0  0
   32.9523  -20.3428   34.2322 C   0  0  0  0  0  0  0  0  0  0  0  0
   34.7702  -19.3561   35.7028 C   0  0  0  0  0  0  0  0  0  0  0  0
   35.3657  -18.2326   36.2309 C   0  0  0  0  0  0  0  0  0  0  0  0
   35.5037  -13.3674   36.9663 C   0  0  0  0  0  0  0  0  0  0  0  0
   36.7058  -13.4079   37.6373 C   0  0  0  0  0  0  0  0  0  0  0  0
   37.3365  -14.6259   37.7615 C   0  0  0  0  0  0  0  0  0  0  0  0
   36.7931  -15.8003   37.2309 C   0  0  0  0  0  0  0  0  0  0  0  0
   35.5936  -15.7665   36.5602 C   0  0  0  0  0  0  0  0  0  0  0  0
   34.9681  -14.5448   36.4398 C   0  0  0  0  0  0  0  0  0  0  0  0
   33.6310  -11.9549   37.5488 C   0  0  0  0  0  0  0  0  0  0  0  0
   34.8123  -12.1747   36.8041 O   0  0  0  0  0  0  0  0  0  0  0  0
 43 44  1  0  0  0
 44 37  1  0  0  0
 37 38  2  0  0  0
 38 39  1  0  0  0
 39 40  2  0  0  0
 40 41  1  0  0  0
 41 42  2  0  0  0
 41 30  1  0  0  0
 30 31  2  0  0  0
 31 32  1  0  0  0
 32 33  2  0  0  0
 33 34  1  0  0  0
 33 35  1  0  0  0
 35 28  1  0  0  0
 28  1  1  0  0  0
  1  2  2  0  0  0
  2  3  1  0  0  0
  3  4  2  0  0  0
  4  5  1  0  0  0
  5  6  1  0  0  0
  6  7  1  0  0  0
  7  8  1  0  0  0
  8  9  1  0  0  0
  9 10  1  0  0  0
  8 11  1  0  0  0
 11 12  2  0  0  0
 12 13  1  0  0  0
 13 14  2  0  0  0
 14 15  1  0  0  0
 15 16  2  0  0  0
 16 17  1  0  0  0
 17 18  1  0  0  0
 17 19  2  0  0  0
  3 22  1  0  0  0
 22 23  1  0  0  0
 23 24  1  0  0  0
 24 25  1  0  0  0
 25 26  1  0  0  0
 26 27  1  0  0  0
 35 36  2  0  0  0
 42 37  1  0  0  0
 36 30  1  0  0  0
 10  1  1  0  0  0
 16 11  1  0  0  0
 27 22  1  0  0  0
 10  5  2  0  0  0
 28 29  1  0  0  0
 18 20  1  0  0  0
 18 21  1  0  0  0
M  END
> <minimizedAffinity>
-7.92353

> <CNNscore>
0.1030455306

> <CNNaffinity>
5.9287524223

> <CNN_VS>
0.6109314561

> <CNNaffinity_variance>
0.4151329994

$$$$
[H]c1nc(N2C([H])([H])c3c(N([H])c4c([H])c(-c5c([H])c([H])c([H])c(OC([H])([H])[H])c5[H])c([H])c([H])c4C([H])([H])[H])nc(N4C([H])([H])C([H])([H])OC([H])([H])C4([H])[H])nc3C([H])([H])C2([H])[H])c(C(=O)N([H])[H])c([H])c1[H]


 44 49  0  0  0  0  0  0  0  0999 V2000
   33.6367  -21.4238   38.0133 C   0  0  0  0  0  0  0  0  0  0  0  0
   34.3741  -20.8779   38.9791 N   0  0  0  0  0  0  0  0  0  0  0  0
   34.2697  -21.0981   40.2914 C   0  0  0  0  0  0  0  0  0  0  0  0
   33.3160  -21.9650   40.6699 N   0  0  0  0  0  0  0  0  0  0  0  0
   32.5097  -22.5793   39.7883 C   0  0  0  0  0  0  0  0  0  0  0  0
   31.5262  -23.5169   40.3554 C   0  0  0  0  0  0  0  0  0  0  0  0
   30.3284  -23.6664   39.4948 C   0  0  0  0  0  0  0  0  0  0  0  0
   30.5430  -23.4904   38.0792 N   0  0  0  0  0  0  0  0  0  0  0  0
   31.7631  -22.9823   37.4757 C   0  0  0  0  0  0  0  0  0  0  0  0
   32.6536  -22.3220   38.4609 C   0  0  0  0  0  0  0  0  0  0  0  0
   29.5098  -23.8403   37.1783 C   0  0  0  0  0  0  0  0  0  0  0  0
   29.3804  -25.1298   36.8357 N   0  0  0  0  0  0  0  0  0  0  0  0
   28.3756  -25.5517   36.0184 C   0  0  0  0  0  0  0  0  0  0  0  0
   27.4708  -24.6325   35.5320 C   0  0  0  0  0  0  0  0  0  0  0  0
   27.5717  -23.3102   35.8587 C   0  0  0  0  0  0  0  0  0  0  0  0
   28.6285  -22.9189   36.7070 C   0  0  0  0  0  0  0  0  0  0  0  0
   28.7161  -21.4836   36.9594 C   0  0  0  0  0  0  0  0  0  0  0  0
   29.1640  -20.5952   35.9191 N   0  0  0  0  0  0  0  0  0  0  0  0
   28.4107  -21.0007   38.0609 O   0  0  0  0  0  0  0  0  0  0  0  0
   30.1494  -20.2994   35.9397 H   0  0  0  0  0  0  0  0  0  0  0  0
   28.5250  -20.2640   35.1771 H   0  0  0  0  0  0  0  0  0  0  0  0
   35.0687  -20.5134   41.3026 N   0  0  0  0  0  0  0  0  0  0  0  0
   34.5667  -19.3719   42.0769 C   0  0  0  0  0  0  0  0  0  0  0  0
   35.3508  -19.3950   43.3824 C   0  0  0  0  0  0  0  0  0  0  0  0
   35.6179  -20.7063   43.7750 O   0  0  0  0  0  0  0  0  0  0  0  0
   36.6717  -21.1888   43.0436 C   0  0  0  0  0  0  0  0  0  0  0  0
   36.3843  -21.0570   41.5667 C   0  0  0  0  0  0  0  0  0  0  0  0
   33.8195  -21.1502   36.6527 N   0  0  0  0  0  0  0  0  0  0  0  0
   34.1542  -22.0183   36.0947 H   0  0  0  0  0  0  0  0  0  0  0  0
   34.0585  -17.6235   35.4340 C   0  0  0  0  0  0  0  0  0  0  0  0
   33.2925  -17.7663   34.2971 C   0  0  0  0  0  0  0  0  0  0  0  0
   32.7299  -18.9755   33.9598 C   0  0  0  0  0  0  0  0  0  0  0  0
   32.8960  -20.0995   34.7272 C   0  0  0  0  0  0  0  0  0  0  0  0
   32.2556  -21.3770   34.3000 C   0  0  0  0  0  0  0  0  0  0  0  0
   33.6688  -19.9967   35.8931 C   0  0  0  0  0  0  0  0  0  0  0  0
   34.2209  -18.7751   36.2079 C   0  0  0  0  0  0  0  0  0  0  0  0
   34.2743  -14.0095   36.3731 C   0  0  0  0  0  0  0  0  0  0  0  0
   35.6248  -13.8023   36.5473 C   0  0  0  0  0  0  0  0  0  0  0  0
   36.4735  -14.8690   36.3508 C   0  0  0  0  0  0  0  0  0  0  0  0
   36.0027  -16.1341   35.9850 C   0  0  0  0  0  0  0  0  0  0  0  0
   34.6560  -16.3474   35.8097 C   0  0  0  0  0  0  0  0  0  0  0  0
   33.8128  -15.2760   36.0079 C   0  0  0  0  0  0  0  0  0  0  0  0
   33.5693  -12.0492   37.5984 C   0  0  0  0  0  0  0  0  0  0  0  0
   33.3610  -12.9801   36.5551 O   0  0  0  0  0  0  0  0  0  0  0  0
 43 44  1  0  0  0
 44 37  1  0  0  0
 37 38  2  0  0  0
 38 39  1  0  0  0
 39 40  2  0  0  0
 40 41  1  0  0  0
 41 42  2  0  0  0
 41 30  1  0  0  0
 30 31  2  0  0  0
 31 32  1  0  0  0
 32 33  2  0  0  0
 33 34  1  0  0  0
 33 35  1  0  0  0
 35 28  1  0  0  0
 28  1  1  0  0  0
  1  2  2  0  0  0
  2  3  1  0  0  0
  3  4  2  0  0  0
  4  5  1  0  0  0
  5  6  1  0  0  0
  6  7  1  0  0  0
  7  8  1  0  0  0
  8  9  1  0  0  0
  9 10  1  0  0  0
  8 11  1  0  0  0
 11 12  2  0  0  0
 12 13  1  0  0  0
 13 14  2  0  0  0
 14 15  1  0  0  0
 15 16  2  0  0  0
 16 17  1  0  0  0
 17 18  1  0  0  0
 17 19  2  0  0  0
  3 22  1  0  0  0
 22 23  1  0  0  0
 23 24  1  0  0  0
 24 25  1  0  0  0
 25 26  1  0  0  0
 26 27  1  0  0  0
 35 36  2  0  0  0
 42 37  1  0  0  0
 36 30  1  0  0  0
 10  1  1  0  0  0
 16 11  1  0  0  0
 27 22  1  0  0  0
 10  5  2  0  0  0
 28 29  1  0  0  0
 18 20  1  0  0  0
 18 21  1  0  0  0
M  END
> <minimizedAffinity>
-8.04809

> <CNNscore>
0.1005941555

> <CNNaffinity>
5.6144552231

> <CNN_VS>
0.5647813678

> <CNNaffinity_variance>
1.0054614544

$$$$
[H]c1c([H])c(C([H])([H])[H])c(C([H])([H])N([H])C([H])([H])[H])c([H])c1C(=O)N1c2c([H])c(N(C([H])([H])[H])C([H])([H])[H])c(OC([H])([H])[H])c([H])c2C([H])([H])C1([H])[H]


 27 29  0  0  0  0  0  0  0  0999 V2000
   32.3428  -19.7230   34.6837 C   0  0  0  0  0  0  0  0  0  0  0  0
   33.2093  -18.6735   34.3783 C   0  0  0  0  0  0  0  0  0  0  0  0
   34.5005  -18.7204   34.9374 C   0  0  0  0  0  0  0  0  0  0  0  0
   35.6074  -17.7443   34.7246 C   0  0  0  0  0  0  0  0  0  0  0  0
   36.7953  -18.6299   35.0903 C   0  0  0  0  0  0  0  0  0  0  0  0
   36.2786  -19.4667   36.1677 N   0  0  0  0  0  0  0  0  0  0  0  0
   36.9221  -19.7726   37.3589 C   0  0  0  0  0  0  0  0  0  0  0  0
   36.2170  -19.9248   38.4387 O   0  0  0  0  0  0  0  0  0  0  0  0
   34.9316  -19.7224   35.7512 C   0  0  0  0  0  0  0  0  0  0  0  0
   34.0527  -20.7252   36.0201 C   0  0  0  0  0  0  0  0  0  0  0  0
   32.7704  -20.7594   35.5141 C   0  0  0  0  0  0  0  0  0  0  0  0
   38.3604  -19.9691   37.5532 C   0  0  0  0  0  0  0  0  0  0  0  0
   38.8258  -20.8677   38.4740 C   0  0  0  0  0  0  0  0  0  0  0  0
   40.1980  -20.9970   38.6917 C   0  0  0  0  0  0  0  0  0  0  0  0
   41.1236  -20.2576   38.0147 C   0  0  0  0  0  0  0  0  0  0  0  0
   42.5787  -20.4532   38.2504 C   0  0  0  0  0  0  0  0  0  0  0  0
   40.6667  -19.3372   37.0569 C   0  0  0  0  0  0  0  0  0  0  0  0
   39.2696  -19.2227   36.8567 C   0  0  0  0  0  0  0  0  0  0  0  0
   41.5601  -18.3812   36.4368 C   0  0  0  0  0  0  0  0  0  0  0  0
   41.2543  -18.2324   34.9743 N   0  0  0  0  0  0  0  0  0  0  0  0
   42.4192  -18.5614   34.1674 C   0  0  0  0  0  0  0  0  0  0  0  0
   40.5513  -19.0776   34.8613 H   0  0  0  0  0  0  0  0  0  0  0  0
   31.9110  -21.8260   35.7675 N   0  0  0  0  0  0  0  0  0  0  0  0
   31.6792  -22.9659   34.8557 C   0  0  0  0  0  0  0  0  0  0  0  0
   31.1279  -21.8494   37.0199 C   0  0  0  0  0  0  0  0  0  0  0  0
   30.0280  -19.0348   34.8434 C   0  0  0  0  0  0  0  0  0  0  0  0
   31.0390  -19.7524   34.1724 O   0  0  0  0  0  0  0  0  0  0  0  0
 26 27  1  0  0  0
 27  1  1  0  0  0
  1  2  2  0  0  0
  2  3  1  0  0  0
  3  4  1  0  0  0
  4  5  1  0  0  0
  5  6  1  0  0  0
  6  7  1  0  0  0
  7  8  2  0  0  0
  7 12  1  0  0  0
 12 13  2  0  0  0
 13 14  1  0  0  0
 14 15  2  0  0  0
 15 16  1  0  0  0
 15 17  1  0  0  0
 17 19  1  0  0  0
 19 20  1  0  0  0
 20 21  1  0  0  0
 17 18  2  0  0  0
  6  9  1  0  0  0
  9 10  1  0  0  0
 10 11  2  0  0  0
 11 23  1  0  0  0
 23 24  1  0  0  0
 23 25  1  0  0  0
 11  1  1  0  0  0
  9  3  2  0  0  0
 18 12  1  0  0  0
 20 22  1  0  0  0
M  END
> <minimizedAffinity>
-5.37942

> <CNNscore>
0.6089565158

> <CNNaffinity>
4.6699118614

> <CNN_VS>
2.8437733650

> <CNNaffinity_variance>
0.6245435476

$$$$
[H]c1c([H])c(C([H])([H])[H])c(C([H])([H])N([H])C([H])([H])[H])c([H])c1C(=O)N1c2c([H])c(N(C([H])([H])[H])C([H])([H])[H])c(OC([H])([H])[H])c([H])c2C([H])([H])C1([H])[H]


 27 29  0  0  0  0  0  0  0  0999 V2000
   32.4851  -18.9890   35.7671 C   0  0  0  0  0  0  0  0  0  0  0  0
   33.1225  -17.7542   35.6479 C   0  0  0  0  0  0  0  0  0  0  0  0
   34.5300  -17.7498   35.6787 C   0  0  0  0  0  0  0  0  0  0  0  0
   35.4281  -16.5690   35.5293 C   0  0  0  0  0  0  0  0  0  0  0  0
   36.7044  -17.2799   35.0881 C   0  0  0  0  0  0  0  0  0  0  0  0
   36.6738  -18.5322   35.8357 N   0  0  0  0  0  0  0  0  0  0  0  0
   37.7344  -19.1174   36.5133 C   0  0  0  0  0  0  0  0  0  0  0  0
   37.4998  -19.7823   37.6038 O   0  0  0  0  0  0  0  0  0  0  0  0
   35.2824  -18.8748   35.8217 C   0  0  0  0  0  0  0  0  0  0  0  0
   34.6175  -20.0563   35.9327 C   0  0  0  0  0  0  0  0  0  0  0  0
   33.2421  -20.1520   35.9113 C   0  0  0  0  0  0  0  0  0  0  0  0
   39.1461  -19.0895   36.1239 C   0  0  0  0  0  0  0  0  0  0  0  0
   40.1127  -18.7278   37.0220 C   0  0  0  0  0  0  0  0  0  0  0  0
   41.4457  -18.6450   36.6177 C   0  0  0  0  0  0  0  0  0  0  0  0
   41.8459  -18.9160   35.3417 C   0  0  0  0  0  0  0  0  0  0  0  0
   43.2821  -18.8519   34.9616 C   0  0  0  0  0  0  0  0  0  0  0  0
   40.8701  -19.2999   34.4070 C   0  0  0  0  0  0  0  0  0  0  0  0
   39.5244  -19.3737   34.8413 C   0  0  0  0  0  0  0  0  0  0  0  0
   41.1751  -19.4162   32.9963 C   0  0  0  0  0  0  0  0  0  0  0  0
   40.8202  -20.7815   32.4820 N   0  0  0  0  0  0  0  0  0  0  0  0
   41.6804  -21.7952   33.0727 C   0  0  0  0  0  0  0  0  0  0  0  0
   39.8330  -20.8936   32.9661 H   0  0  0  0  0  0  0  0  0  0  0  0
   32.5922  -21.3824   35.9767 N   0  0  0  0  0  0  0  0  0  0  0  0
   32.2576  -22.2299   34.8130 C   0  0  0  0  0  0  0  0  0  0  0  0
   32.1597  -21.9095   37.2872 C   0  0  0  0  0  0  0  0  0  0  0  0
   30.4255  -19.1636   34.5081 C   0  0  0  0  0  0  0  0  0  0  0  0
   31.0875  -19.0826   35.7501 O   0  0  0  0  0  0  0  0  0  0  0  0
 26 27  1  0  0  0
 27  1  1  0  0  0
  1  2  2  0  0  0
  2  3  1  0  0  0
  3  4  1  0  0  0
  4  5  1  0  0  0
  5  6  1  0  0  0
  6  7  1  0  0  0
  7  8  2  0  0  0
  7 12  1  0  0  0
 12 13  2  0  0  0
 13 14  1  0  0  0
 14 15  2  0  0  0
 15 16  1  0  0  0
 15 17  1  0  0  0
 17 19  1  0  0  0
 19 20  1  0  0  0
 20 21  1  0  0  0
 17 18  2  0  0  0
  6  9  1  0  0  0
  9 10  1  0  0  0
 10 11  2  0  0  0
 11 23  1  0  0  0
 23 24  1  0  0  0
 23 25  1  0  0  0
 11  1  1  0  0  0
  9  3  2  0  0  0
 18 12  1  0  0  0
 20 22  1  0  0  0
M  END
> <minimizedAffinity>
-6.01999

> <CNNscore>
0.5679250956

> <CNNaffinity>
4.7155747414

> <CNN_VS>
2.6780931950

> <CNNaffinity_variance>
0.4695202708

$$$$
[H]c1c([H])c(C([H])([H])[H])c(C([H])([H])N([H])C([H])([H])[H])c([H])c1C(=O)N1c2c([H])c(N(C([H])([H])[H])C([H])([H])[H])c(OC([H])([H])[H])c([H])c2C([H])([H])C1([H])[H]


 27 29  0  0  0  0  0  0  0  0999 V2000
   34.7883  -14.9829   36.1843 C   0  0  0  0  0  0  0  0  0  0  0  0
   34.1330  -16.1721   35.8650 C   0  0  0  0  0  0  0  0  0  0  0  0
   34.8357  -17.3729   36.0801 C   0  0  0  0  0  0  0  0  0  0  0  0
   34.3346  -18.7593   35.8563 C   0  0  0  0  0  0  0  0  0  0  0  0
   35.2855  -19.5203   36.7760 C   0  0  0  0  0  0  0  0  0  0  0  0
   36.5404  -18.7868   36.6523 N   0  0  0  0  0  0  0  0  0  0  0  0
   37.8058  -19.3337   36.4908 C   0  0  0  0  0  0  0  0  0  0  0  0
   38.6832  -18.6993   35.7740 O   0  0  0  0  0  0  0  0  0  0  0  0
   36.1037  -17.4244   36.5718 C   0  0  0  0  0  0  0  0  0  0  0  0
   36.7022  -16.2399   36.8704 C   0  0  0  0  0  0  0  0  0  0  0  0
   36.0872  -15.0187   36.6922 C   0  0  0  0  0  0  0  0  0  0  0  0
   38.3002  -20.5858   37.0680 C   0  0  0  0  0  0  0  0  0  0  0  0
   38.2080  -21.7609   36.3735 C   0  0  0  0  0  0  0  0  0  0  0  0
   38.6255  -22.9549   36.9629 C   0  0  0  0  0  0  0  0  0  0  0  0
   39.1369  -23.0125   38.2266 C   0  0  0  0  0  0  0  0  0  0  0  0
   39.6049  -24.3006   38.8035 C   0  0  0  0  0  0  0  0  0  0  0  0
   39.2501  -21.8151   38.9524 C   0  0  0  0  0  0  0  0  0  0  0  0
   38.8170  -20.6175   38.3333 C   0  0  0  0  0  0  0  0  0  0  0  0
   39.5970  -21.8101   40.3582 C   0  0  0  0  0  0  0  0  0  0  0  0
   38.3890  -21.5378   41.2073 N   0  0  0  0  0  0  0  0  0  0  0  0
   37.7360  -22.7805   41.5893 C   0  0  0  0  0  0  0  0  0  0  0  0
   38.8995  -21.1655   42.1140 H   0  0  0  0  0  0  0  0  0  0  0  0
   36.7084  -13.8258   37.0549 N   0  0  0  0  0  0  0  0  0  0  0  0
   36.2141  -12.4738   36.7194 C   0  0  0  0  0  0  0  0  0  0  0  0
   37.9772  -13.8650   37.8105 C   0  0  0  0  0  0  0  0  0  0  0  0
   32.9670  -13.4724   36.6929 C   0  0  0  0  0  0  0  0  0  0  0  0
   34.1629  -13.7435   35.9974 O   0  0  0  0  0  0  0  0  0  0  0  0
 26 27  1  0  0  0
 27  1  1  0  0  0
  1  2  2  0  0  0
  2  3  1  0  0  0
  3  4  1  0  0  0
  4  5  1  0  0  0
  5  6  1  0  0  0
  6  7  1  0  0  0
  7  8  2  0  0  0
  7 12  1  0  0  0
 12 13  2  0  0  0
 13 14  1  0  0  0
 14 15  2  0  0  0
 15 16  1  0  0  0
 15 17  1  0  0  0
 17 19  1  0  0  0
 19 20  1  0  0  0
 20 21  1  0  0  0
 17 18  2  0  0  0
  6  9  1  0  0  0
  9 10  1  0  0  0
 10 11  2  0  0  0
 11 23  1  0  0  0
 23 24  1  0  0  0
 23 25  1  0  0  0
 11  1  1  0  0  0
  9  3  2  0  0  0
 18 12  1  0  0  0
 20 22  1  0  0  0
M  END
> <minimizedAffinity>
-4.88099

> <CNNscore>
0.5376627445

> <CNNaffinity>
4.9472069740

> <CNN_VS>
2.6599287987

> <CNNaffinity_variance>
0.1467413604

$$$$
[H]c1c([H])c(C([H])([H])[H])c(C([H])([H])N([H])C([H])([H])[H])c([H])c1C(=O)N1c2c([H])c(N(C([H])([H])[H])C([H])([H])[H])c(OC([H])([H])[H])c([H])c2C([H])([H])C1([H])[H]


 27 29  0  0  0  0  0  0  0  0999 V2000
   35.9644  -17.0272   35.9784 C   0  0  0  0  0  0  0  0  0  0  0  0
   36.5027  -15.8132   36.4049 C   0  0  0  0  0  0  0  0  0  0  0  0
   35.6005  -14.7642   36.6652 C   0  0  0  0  0  0  0  0  0  0  0  0
   35.9305  -13.3994   37.1666 C   0  0  0  0  0  0  0  0  0  0  0  0
   34.5750  -13.0138   37.7523 C   0  0  0  0  0  0  0  0  0  0  0  0
   33.6200  -13.6331   36.8399 N   0  0  0  0  0  0  0  0  0  0  0  0
   32.4757  -13.0469   36.3169 C   0  0  0  0  0  0  0  0  0  0  0  0
   32.0943  -13.3626   35.1164 O   0  0  0  0  0  0  0  0  0  0  0  0
   34.2524  -14.8779   36.5174 C   0  0  0  0  0  0  0  0  0  0  0  0
   33.7728  -16.0807   36.1009 C   0  0  0  0  0  0  0  0  0  0  0  0
   34.5842  -17.1610   35.8249 C   0  0  0  0  0  0  0  0  0  0  0  0
   31.5978  -12.0856   36.9881 C   0  0  0  0  0  0  0  0  0  0  0  0
   31.7506  -10.7407   36.7887 C   0  0  0  0  0  0  0  0  0  0  0  0
   30.9476   -9.8361   37.4844 C   0  0  0  0  0  0  0  0  0  0  0  0
   29.9916  -10.2330   38.3734 C   0  0  0  0  0  0  0  0  0  0  0  0
   29.1318   -9.2371   39.0662 C   0  0  0  0  0  0  0  0  0  0  0  0
   29.8115  -11.6101   38.5841 C   0  0  0  0  0  0  0  0  0  0  0  0
   30.6406  -12.5075   37.8682 C   0  0  0  0  0  0  0  0  0  0  0  0
   28.9614  -12.1106   39.6440 C   0  0  0  0  0  0  0  0  0  0  0  0
   27.5144  -12.0397   39.2491 N   0  0  0  0  0  0  0  0  0  0  0  0
   27.0022  -13.3625   38.9265 C   0  0  0  0  0  0  0  0  0  0  0  0
   27.0837  -11.7725   40.2312 H   0  0  0  0  0  0  0  0  0  0  0  0
   34.0585  -18.3948   35.4485 N   0  0  0  0  0  0  0  0  0  0  0  0
   33.5342  -18.7214   34.1058 C   0  0  0  0  0  0  0  0  0  0  0  0
   33.9722  -19.4842   36.4426 C   0  0  0  0  0  0  0  0  0  0  0  0
   37.7276  -18.5374   36.6624 C   0  0  0  0  0  0  0  0  0  0  0  0
   36.7916  -18.1213   35.6939 O   0  0  0  0  0  0  0  0  0  0  0  0
 26 27  1  0  0  0
 27  1  1  0  0  0
  1  2  2  0  0  0
  2  3  1  0  0  0
  3  4  1  0  0  0
  4  5  1  0  0  0
  5  6  1  0  0  0
  6  7  1  0  0  0
  7  8  2  0  0  0
  7 12  1  0  0  0
 12 13  2  0  0  0
 13 14  1  0  0  0
 14 15  2  0  0  0
 15 16  1  0  0  0
 15 17  1  0  0  0
 17 19  1  0  0  0
 19 20  1  0  0  0
 20 21  1  0  0  0
 17 18  2  0  0  0
  6  9  1  0  0  0
  9 10  1  0  0  0
 10 11  2  0  0  0
 11 23  1  0  0  0
 23 24  1  0  0  0
 23 25  1  0  0  0
 11  1  1  0  0  0
  9  3  2  0  0  0
 18 12  1  0  0  0
 20 22  1  0  0  0
M  END
> <minimizedAffinity>
-5.96617

> <CNNscore>
0.5336579680

> <CNNaffinity>
5.7866373062

> <CNN_VS>
3.0880851746

> <CNNaffinity_variance>
0.1308958679

$$$$
[H]c1c([H])c(C([H])([H])[H])c(C([H])([H])N([H])C([H])([H])[H])c([H])c1C(=O)N1c2c([H])c(N(C([H])([H])[H])C([H])([H])[H])c(OC([H])([H])[H])c([H])c2C([H])([H])C1([H])[H]


 27 29  0  0  0  0  0  0  0  0999 V2000
   35.9064  -15.0189   36.0727 C   0  0  0  0  0  0  0  0  0  0  0  0
   36.7318  -16.0661   35.6632 C   0  0  0  0  0  0  0  0  0  0  0  0
   36.1389  -17.3346   35.5169 C   0  0  0  0  0  0  0  0  0  0  0  0
   36.8014  -18.5878   35.0547 C   0  0  0  0  0  0  0  0  0  0  0  0
   35.5723  -19.3625   34.5873 C   0  0  0  0  0  0  0  0  0  0  0  0
   34.5384  -18.9687   35.5381 N   0  0  0  0  0  0  0  0  0  0  0  0
   33.6313  -19.8088   36.1689 C   0  0  0  0  0  0  0  0  0  0  0  0
   33.2479  -19.5330   37.3786 O   0  0  0  0  0  0  0  0  0  0  0  0
   34.8223  -17.5814   35.7573 C   0  0  0  0  0  0  0  0  0  0  0  0
   34.0557  -16.5296   36.1530 C   0  0  0  0  0  0  0  0  0  0  0  0
   34.5538  -15.2547   36.3202 C   0  0  0  0  0  0  0  0  0  0  0  0
   33.0138  -21.0125   35.6075 C   0  0  0  0  0  0  0  0  0  0  0  0
   32.1815  -20.9319   34.5247 C   0  0  0  0  0  0  0  0  0  0  0  0
   31.5514  -22.0794   34.0415 C   0  0  0  0  0  0  0  0  0  0  0  0
   31.7291  -23.3093   34.6049 C   0  0  0  0  0  0  0  0  0  0  0  0
   31.0676  -24.5133   34.0357 C   0  0  0  0  0  0  0  0  0  0  0  0
   32.5886  -23.4151   35.7110 C   0  0  0  0  0  0  0  0  0  0  0  0
   33.2137  -22.2359   36.1840 C   0  0  0  0  0  0  0  0  0  0  0  0
   32.6828  -24.6356   36.4844 C   0  0  0  0  0  0  0  0  0  0  0  0
   33.9242  -25.4014   36.1281 N   0  0  0  0  0  0  0  0  0  0  0  0
   34.8556  -25.4232   37.2454 C   0  0  0  0  0  0  0  0  0  0  0  0
   33.4874  -26.4149   36.0700 H   0  0  0  0  0  0  0  0  0  0  0  0
   33.7322  -14.1882   36.6780 N   0  0  0  0  0  0  0  0  0  0  0  0
   33.6158  -13.6243   38.0392 C   0  0  0  0  0  0  0  0  0  0  0  0
   32.8708  -13.5574   35.6570 C   0  0  0  0  0  0  0  0  0  0  0  0
   37.3522  -13.4956   37.2754 C   0  0  0  0  0  0  0  0  0  0  0  0
   36.4163  -13.7258   36.2466 O   0  0  0  0  0  0  0  0  0  0  0  0
 26 27  1  0  0  0
 27  1  1  0  0  0
  1  2  2  0  0  0
  2  3  1  0  0  0
  3  4  1  0  0  0
  4  5  1  0  0  0
  5  6  1  0  0  0
  6  7  1  0  0  0
  7  8  2  0  0  0
  7 12  1  0  0  0
 12 13  2  0  0  0
 13 14  1  0  0  0
 14 15  2  0  0  0
 15 16  1  0  0  0
 15 17  1  0  0  0
 17 19  1  0  0  0
 19 20  1  0  0  0
 20 21  1  0  0  0
 17 18  2  0  0  0
  6  9  1  0  0  0
  9 10  1  0  0  0
 10 11  2  0  0  0
 11 23  1  0  0  0
 23 24  1  0  0  0
 23 25  1  0  0  0
 11  1  1  0  0  0
  9  3  2  0  0  0
 18 12  1  0  0  0
 20 22  1  0  0  0
M  END
> <minimizedAffinity>
-4.57054

> <CNNscore>
0.5215425491

> <CNNaffinity>
5.0562720299

> <CNN_VS>
2.6370611191

> <CNNaffinity_variance>
0.0421680845

$$$$
[H]c1c([H])c(C([H])([H])[H])c(C([H])([H])N([H])C([H])([H])[H])c([H])c1C(=O)N1c2c([H])c(N(C([H])([H])[H])C([H])([H])[H])c(OC([H])([H])[H])c([H])c2C([H])([H])C1([H])[H]


 27 29  0  0  0  0  0  0  0  0999 V2000
   34.6299  -14.5923   36.2017 C   0  0  0  0  0  0  0  0  0  0  0  0
   33.8859  -15.7206   35.8572 C   0  0  0  0  0  0  0  0  0  0  0  0
   34.5196  -16.9720   35.9776 C   0  0  0  0  0  0  0  0  0  0  0  0
   33.9211  -18.3113   35.7110 C   0  0  0  0  0  0  0  0  0  0  0  0
   34.8632  -19.1763   36.5436 C   0  0  0  0  0  0  0  0  0  0  0  0
   36.1553  -18.5159   36.3939 N   0  0  0  0  0  0  0  0  0  0  0  0
   37.3743  -19.1303   36.1428 C   0  0  0  0  0  0  0  0  0  0  0  0
   38.2561  -18.5143   35.4153 O   0  0  0  0  0  0  0  0  0  0  0  0
   35.8033  -17.1269   36.4024 C   0  0  0  0  0  0  0  0  0  0  0  0
   36.4895  -15.9987   36.7289 C   0  0  0  0  0  0  0  0  0  0  0  0
   35.9461  -14.7343   36.6419 C   0  0  0  0  0  0  0  0  0  0  0  0
   37.8140  -20.4388   36.6323 C   0  0  0  0  0  0  0  0  0  0  0  0
   39.1452  -20.7444   36.7136 C   0  0  0  0  0  0  0  0  0  0  0  0
   39.5457  -22.0172   37.1217 C   0  0  0  0  0  0  0  0  0  0  0  0
   38.6566  -22.9969   37.4554 C   0  0  0  0  0  0  0  0  0  0  0  0
   39.1263  -24.3287   37.9212 C   0  0  0  0  0  0  0  0  0  0  0  0
   37.2852  -22.6998   37.3891 C   0  0  0  0  0  0  0  0  0  0  0  0
   36.9044  -21.4021   36.9695 C   0  0  0  0  0  0  0  0  0  0  0  0
   36.2779  -23.7295   37.5365 C   0  0  0  0  0  0  0  0  0  0  0  0
   35.2343  -23.6159   36.4630 N   0  0  0  0  0  0  0  0  0  0  0  0
   33.8979  -23.6537   37.0365 C   0  0  0  0  0  0  0  0  0  0  0  0
   35.4126  -22.5671   36.1637 H   0  0  0  0  0  0  0  0  0  0  0  0
   36.6585  -13.6024   37.0316 N   0  0  0  0  0  0  0  0  0  0  0  0
   37.9841  -13.6155   37.6851 C   0  0  0  0  0  0  0  0  0  0  0  0
   36.0713  -12.2633   36.8208 C   0  0  0  0  0  0  0  0  0  0  0  0
   32.7087  -13.1337   36.3982 C   0  0  0  0  0  0  0  0  0  0  0  0
   34.0770  -13.3087   36.1075 O   0  0  0  0  0  0  0  0  0  0  0  0
 26 27  1  0  0  0
 27  1  1  0  0  0
  1  2  2  0  0  0
  2  3  1  0  0  0
  3  4  1  0  0  0
  4  5  1  0  0  0
  5  6  1  0  0  0
  6  7  1  0  0  0
  7  8  2  0  0  0
  7 12  1  0  0  0
 12 13  2  0  0  0
 13 14  1  0  0  0
 14 15  2  0  0  0
 15 16  1  0  0  0
 15 17  1  0  0  0
 17 19  1  0  0  0
 19 20  1  0  0  0
 20 21  1  0  0  0
 17 18  2  0  0  0
  6  9  1  0  0  0
  9 10  1  0  0  0
 10 11  2  0  0  0
 11 23  1  0  0  0
 23 24  1  0  0  0
 23 25  1  0  0  0
 11  1  1  0  0  0
  9  3  2  0  0  0
 18 12  1  0  0  0
 20 22  1  0  0  0
M  END
> <minimizedAffinity>
-5.30697

> <CNNscore>
0.5176799297

> <CNNaffinity>
5.1328611374

> <CNN_VS>
2.6571791172

> <CNNaffinity_variance>
0.1757894456

$$$$
[H]c1c([H])c(C([H])([H])[H])c(C([H])([H])N([H])C([H])([H])[H])c([H])c1C(=O)N1c2c([H])c(N(C([H])([H])[H])C([H])([H])[H])c(OC([H])([H])[H])c([H])c2C([H])([H])C1([H])[H]


 27 29  0  0  0  0  0  0  0  0999 V2000
   34.4181  -14.8212   36.1342 C   0  0  0  0  0  0  0  0  0  0  0  0
   33.7683  -16.0216   35.8473 C   0  0  0  0  0  0  0  0  0  0  0  0
   34.5420  -17.1973   35.8809 C   0  0  0  0  0  0  0  0  0  0  0  0
   34.0669  -18.5920   35.6529 C   0  0  0  0  0  0  0  0  0  0  0  0
   35.1772  -19.3547   36.3704 C   0  0  0  0  0  0  0  0  0  0  0  0
   36.3684  -18.5567   36.1019 N   0  0  0  0  0  0  0  0  0  0  0  0
   37.6142  -19.0331   35.7177 C   0  0  0  0  0  0  0  0  0  0  0  0
   38.3451  -18.3202   34.9153 O   0  0  0  0  0  0  0  0  0  0  0  0
   35.8717  -17.2143   36.1704 C   0  0  0  0  0  0  0  0  0  0  0  0
   36.4625  -16.0202   36.4453 C   0  0  0  0  0  0  0  0  0  0  0  0
   35.7802  -14.8219   36.4361 C   0  0  0  0  0  0  0  0  0  0  0  0
   38.2401  -20.2892   36.1370 C   0  0  0  0  0  0  0  0  0  0  0  0
   38.4775  -20.5452   37.4598 C   0  0  0  0  0  0  0  0  0  0  0  0
   39.1320  -21.7184   37.8374 C   0  0  0  0  0  0  0  0  0  0  0  0
   39.5555  -22.6485   36.9334 C   0  0  0  0  0  0  0  0  0  0  0  0
   40.2162  -23.9033   37.3808 C   0  0  0  0  0  0  0  0  0  0  0  0
   39.3115  -22.4095   35.5709 C   0  0  0  0  0  0  0  0  0  0  0  0
   38.6483  -21.2106   35.2133 C   0  0  0  0  0  0  0  0  0  0  0  0
   39.8935  -23.2416   34.5386 C   0  0  0  0  0  0  0  0  0  0  0  0
   38.8531  -23.6670   33.5431 N   0  0  0  0  0  0  0  0  0  0  0  0
   38.5399  -25.0794   33.6956 C   0  0  0  0  0  0  0  0  0  0  0  0
   37.9894  -23.1128   33.9534 H   0  0  0  0  0  0  0  0  0  0  0  0
   36.4029  -13.6218   36.7712 N   0  0  0  0  0  0  0  0  0  0  0  0
   35.9859  -12.2860   36.2953 C   0  0  0  0  0  0  0  0  0  0  0  0
   37.5936  -13.6377   37.6455 C   0  0  0  0  0  0  0  0  0  0  0  0
   32.8669  -13.2964   37.1955 C   0  0  0  0  0  0  0  0  0  0  0  0
   33.7235  -13.6048   36.1191 O   0  0  0  0  0  0  0  0  0  0  0  0
 26 27  1  0  0  0
 27  1  1  0  0  0
  1  2  2  0  0  0
  2  3  1  0  0  0
  3  4  1  0  0  0
  4  5  1  0  0  0
  5  6  1  0  0  0
  6  7  1  0  0  0
  7  8  2  0  0  0
  7 12  1  0  0  0
 12 13  2  0  0  0
 13 14  1  0  0  0
 14 15  2  0  0  0
 15 16  1  0  0  0
 15 17  1  0  0  0
 17 19  1  0  0  0
 19 20  1  0  0  0
 20 21  1  0  0  0
 17 18  2  0  0  0
  6  9  1  0  0  0
  9 10  1  0  0  0
 10 11  2  0  0  0
 11 23  1  0  0  0
 23 24  1  0  0  0
 23 25  1  0  0  0
 11  1  1  0  0  0
  9  3  2  0  0  0
 18 12  1  0  0  0
 20 22  1  0  0  0
M  END
> <minimizedAffinity>
-5.54410

> <CNNscore>
0.5024743080

> <CNNaffinity>
5.0646600723

> <CNN_VS>
2.5448615551

> <CNNaffinity_variance>
0.2098647058

$$$$
[H]c1c([H])c(C([H])([H])[H])c(C([H])([H])N([H])C([H])([H])[H])c([H])c1C(=O)N1c2c([H])c(N(C([H])([H])[H])C([H])([H])[H])c(OC([H])([H])[H])c([H])c2C([H])([H])C1([H])[H]


 27 29  0  0  0  0  0  0  0  0999 V2000
   34.8010  -15.1189   36.0718 C   0  0  0  0  0  0  0  0  0  0  0  0
   34.1450  -16.2969   35.7149 C   0  0  0  0  0  0  0  0  0  0  0  0
   34.7521  -17.5111   36.0881 C   0  0  0  0  0  0  0  0  0  0  0  0
   34.2254  -18.8868   35.8576 C   0  0  0  0  0  0  0  0  0  0  0  0
   34.9950  -19.6342   36.9431 C   0  0  0  0  0  0  0  0  0  0  0  0
   36.2872  -18.9578   36.9729 N   0  0  0  0  0  0  0  0  0  0  0  0
   37.5359  -19.5615   37.0270 C   0  0  0  0  0  0  0  0  0  0  0  0
   38.5373  -19.0008   36.4195 O   0  0  0  0  0  0  0  0  0  0  0  0
   35.9307  -17.5857   36.7645 C   0  0  0  0  0  0  0  0  0  0  0  0
   36.5334  -16.4112   37.0928 C   0  0  0  0  0  0  0  0  0  0  0  0
   36.0084  -15.1781   36.7681 C   0  0  0  0  0  0  0  0  0  0  0  0
   37.8818  -20.7993   37.7294 C   0  0  0  0  0  0  0  0  0  0  0  0
   38.2541  -21.9175   37.0345 C   0  0  0  0  0  0  0  0  0  0  0  0
   38.5189  -23.1066   37.7151 C   0  0  0  0  0  0  0  0  0  0  0  0
   38.4267  -23.2141   39.0722 C   0  0  0  0  0  0  0  0  0  0  0  0
   38.7539  -24.4903   39.7616 C   0  0  0  0  0  0  0  0  0  0  0  0
   38.0567  -22.0742   39.8051 C   0  0  0  0  0  0  0  0  0  0  0  0
   37.7905  -20.8807   39.0910 C   0  0  0  0  0  0  0  0  0  0  0  0
   37.7479  -22.1478   41.2178 C   0  0  0  0  0  0  0  0  0  0  0  0
   36.2882  -21.8938   41.4614 N   0  0  0  0  0  0  0  0  0  0  0  0
   36.1053  -20.8528   42.4610 C   0  0  0  0  0  0  0  0  0  0  0  0
   36.0312  -21.4368   40.4885 H   0  0  0  0  0  0  0  0  0  0  0  0
   36.6245  -13.9927   37.1626 N   0  0  0  0  0  0  0  0  0  0  0  0
   38.0379  -13.8659   37.5758 C   0  0  0  0  0  0  0  0  0  0  0  0
   35.8368  -12.7441   37.2145 C   0  0  0  0  0  0  0  0  0  0  0  0
   32.9652  -13.5447   36.1674 C   0  0  0  0  0  0  0  0  0  0  0  0
   34.2678  -13.8678   35.7361 O   0  0  0  0  0  0  0  0  0  0  0  0
 26 27  1  0  0  0
 27  1  1  0  0  0
  1  2  2  0  0  0
  2  3  1  0  0  0
  3  4  1  0  0  0
  4  5  1  0  0  0
  5  6  1  0  0  0
  6  7  1  0  0  0
  7  8  2  0  0  0
  7 12  1  0  0  0
 12 13  2  0  0  0
 13 14  1  0  0  0
 14 15  2  0  0  0
 15 16  1  0  0  0
 15 17  1  0  0  0
 17 19  1  0  0  0
 19 20  1  0  0  0
 20 21  1  0  0  0
 17 18  2  0  0  0
  6  9  1  0  0  0
  9 10  1  0  0  0
 10 11  2  0  0  0
 11 23  1  0  0  0
 23 24  1  0  0  0
 23 25  1  0  0  0
 11  1  1  0  0  0
  9  3  2  0  0  0
 18 12  1  0  0  0
 20 22  1  0  0  0
M  END
> <minimizedAffinity>
-4.89718

> <CNNscore>
0.4700585902

> <CNNaffinity>
4.7130146027

> <CNN_VS>
2.2153930664

> <CNNaffinity_variance>
0.3912407756

$$$$
[H]c1c([H])c(C([H])([H])[H])c(C([H])([H])N([H])C([H])([H])[H])c([H])c1C(=O)N1c2c([H])c(N(C([H])([H])[H])C([H])([H])[H])c(OC([H])([H])[H])c([H])c2C([H])([H])C1([H])[H]


 27 29  0  0  0  0  0  0  0  0999 V2000
   34.2789  -14.9864   36.1189 C   0  0  0  0  0  0  0  0  0  0  0  0
   33.6845  -16.2103   35.8119 C   0  0  0  0  0  0  0  0  0  0  0  0
   34.5416  -17.3032   35.5815 C   0  0  0  0  0  0  0  0  0  0  0  0
   34.1443  -18.7085   35.2808 C   0  0  0  0  0  0  0  0  0  0  0  0
   35.4208  -19.4265   35.7101 C   0  0  0  0  0  0  0  0  0  0  0  0
   36.4790  -18.4944   35.3366 N   0  0  0  0  0  0  0  0  0  0  0  0
   37.6700  -18.8083   34.6966 C   0  0  0  0  0  0  0  0  0  0  0  0
   38.1884  -17.9530   33.8683 O   0  0  0  0  0  0  0  0  0  0  0  0
   35.8988  -17.2196   35.6391 C   0  0  0  0  0  0  0  0  0  0  0  0
   36.4336  -16.0065   35.9435 C   0  0  0  0  0  0  0  0  0  0  0  0
   35.6688  -14.8848   36.1848 C   0  0  0  0  0  0  0  0  0  0  0  0
   38.4570  -20.0327   34.8598 C   0  0  0  0  0  0  0  0  0  0  0  0
   38.1392  -20.9449   35.8287 C   0  0  0  0  0  0  0  0  0  0  0  0
   38.9369  -22.0749   36.0124 C   0  0  0  0  0  0  0  0  0  0  0  0
   40.0436  -22.3257   35.2547 C   0  0  0  0  0  0  0  0  0  0  0  0
   40.8453  -23.5614   35.4586 C   0  0  0  0  0  0  0  0  0  0  0  0
   40.3807  -21.4068   34.2471 C   0  0  0  0  0  0  0  0  0  0  0  0
   39.5570  -20.2668   34.0826 C   0  0  0  0  0  0  0  0  0  0  0  0
   41.6365  -21.4927   33.5313 C   0  0  0  0  0  0  0  0  0  0  0  0
   41.4205  -21.9764   32.1263 N   0  0  0  0  0  0  0  0  0  0  0  0
   42.0476  -23.2735   31.9250 C   0  0  0  0  0  0  0  0  0  0  0  0
   40.3325  -22.1635   32.1769 H   0  0  0  0  0  0  0  0  0  0  0  0
   36.2451  -13.6684   36.5436 N   0  0  0  0  0  0  0  0  0  0  0  0
   35.8152  -12.3446   36.0465 C   0  0  0  0  0  0  0  0  0  0  0  0
   37.3965  -13.6522   37.4690 C   0  0  0  0  0  0  0  0  0  0  0  0
   32.9976  -13.6267   37.6573 C   0  0  0  0  0  0  0  0  0  0  0  0
   33.4995  -13.8474   36.3586 O   0  0  0  0  0  0  0  0  0  0  0  0
 26 27  1  0  0  0
 27  1  1  0  0  0
  1  2  2  0  0  0
  2  3  1  0  0  0
  3  4  1  0  0  0
  4  5  1  0  0  0
  5  6  1  0  0  0
  6  7  1  0  0  0
  7  8  2  0  0  0
  7 12  1  0  0  0
 12 13  2  0  0  0
 13 14  1  0  0  0
 14 15  2  0  0  0
 15 16  1  0  0  0
 15 17  1  0  0  0
 17 19  1  0  0  0
 19 20  1  0  0  0
 20 21  1  0  0  0
 17 18  2  0  0  0
  6  9  1  0  0  0
  9 10  1  0  0  0
 10 11  2  0  0  0
 11 23  1  0  0  0
 23 24  1  0  0  0
 23 25  1  0  0  0
 11  1  1  0  0  0
  9  3  2  0  0  0
 18 12  1  0  0  0
 20 22  1  0  0  0
M  END
> <minimizedAffinity>
-5.92176

> <CNNscore>
0.4570210278

> <CNNaffinity>
5.0842752457

> <CNN_VS>
2.3236207962

> <CNNaffinity_variance>
0.1118267551

$$$$
[H]O[C@]([H])(C([H])([H])[H])[C@]([H])(c1nnc(N([H])[H])nc1-c1c([H])c([H])c(OC(F)(F)F)c([H])c1[H])N([H])C(=O)c1c([H])c([H])c([H])c(C(F)(F)F)c1[H]


 39 41  0  0  0  0  0  0  0  0999 V2000
   36.2072  -17.2297   35.5023 C   0  0  0  0  0  0  0  0  0  0  0  0
   35.9833  -15.9440   35.1075 N   0  0  0  0  0  0  0  0  0  0  0  0
   36.0722  -14.8900   35.8724 N   0  0  0  0  0  0  0  0  0  0  0  0
   36.4161  -15.0247   37.1918 C   0  0  0  0  0  0  0  0  0  0  0  0
   36.5187  -13.8601   38.0308 N   0  0  0  0  0  0  0  0  0  0  0  0
   36.6456  -16.2335   37.6402 N   0  0  0  0  0  0  0  0  0  0  0  0
   36.5490  -17.3643   36.8118 C   0  0  0  0  0  0  0  0  0  0  0  0
   37.0336  -13.0170   37.7446 H   0  0  0  0  0  0  0  0  0  0  0  0
   36.0525  -13.8884   38.9555 H   0  0  0  0  0  0  0  0  0  0  0  0
   36.7089  -18.6276   37.4733 C   0  0  0  0  0  0  0  0  0  0  0  0
   37.7685  -19.4791   37.3604 C   0  0  0  0  0  0  0  0  0  0  0  0
   37.8118  -20.6456   38.0808 C   0  0  0  0  0  0  0  0  0  0  0  0
   36.8112  -21.0243   38.9410 C   0  0  0  0  0  0  0  0  0  0  0  0
   35.7182  -20.1503   39.0555 C   0  0  0  0  0  0  0  0  0  0  0  0
   35.6651  -18.9851   38.3460 C   0  0  0  0  0  0  0  0  0  0  0  0
   36.8234  -22.1930   39.6896 O   0  0  0  0  0  0  0  0  0  0  0  0
   37.1025  -23.4758   39.2565 C   0  0  0  0  0  0  0  0  0  0  0  0
   36.4971  -24.4093   40.0890 F   0  0  0  0  0  0  0  0  0  0  0  0
   38.4910  -23.6954   39.3525 F   0  0  0  0  0  0  0  0  0  0  0  0
   36.7826  -23.7306   37.9546 F   0  0  0  0  0  0  0  0  0  0  0  0
   36.1037  -18.3121   34.5251 C   0  0  0  0  0  0  0  0  0  0  0  0
   37.7589  -20.1255   33.8581 C   0  0  0  0  0  0  0  0  0  0  0  0
   37.5451  -18.6459   34.0442 C   0  0  0  0  0  0  0  0  0  0  0  0
   37.7987  -17.9860   32.8315 O   0  0  0  0  0  0  0  0  0  0  0  0
   37.4697  -18.6194   32.1460 H   0  0  0  0  0  0  0  0  0  0  0  0
   35.5661  -19.5720   35.0448 N   0  0  0  0  0  0  0  0  0  0  0  0
   34.1749  -19.8129   35.1423 C   0  0  0  0  0  0  0  0  0  0  0  0
   33.3628  -18.9124   34.7934 O   0  0  0  0  0  0  0  0  0  0  0  0
   36.2674  -20.2872   35.3398 H   0  0  0  0  0  0  0  0  0  0  0  0
   33.6342  -21.0851   35.6361 C   0  0  0  0  0  0  0  0  0  0  0  0
   34.1567  -21.7194   36.7357 C   0  0  0  0  0  0  0  0  0  0  0  0
   33.6645  -22.9184   37.1546 C   0  0  0  0  0  0  0  0  0  0  0  0
   32.6101  -23.5689   36.4908 C   0  0  0  0  0  0  0  0  0  0  0  0
   32.0724  -22.9470   35.3777 C   0  0  0  0  0  0  0  0  0  0  0  0
   32.5922  -21.7393   34.9962 C   0  0  0  0  0  0  0  0  0  0  0  0
   30.9776  -23.6299   34.6544 C   0  0  0  0  0  0  0  0  0  0  0  0
   31.3379  -23.7740   33.2956 F   0  0  0  0  0  0  0  0  0  0  0  0
   29.7568  -23.0376   34.7886 F   0  0  0  0  0  0  0  0  0  0  0  0
   30.9035  -24.9275   35.1295 F   0  0  0  0  0  0  0  0  0  0  0  0
 22 23  1  0  0  0
 23 24  1  0  0  0
 23 21  1  0  0  0
 21 26  1  0  0  0
 26 27  1  0  0  0
 27 28  2  0  0  0
 27 30  1  0  0  0
 30 31  2  0  0  0
 31 32  1  0  0  0
 32 33  2  0  0  0
 33 34  1  0  0  0
 34 35  2  0  0  0
 34 36  1  0  0  0
 36 37  1  0  0  0
 36 38  1  0  0  0
 36 39  1  0  0  0
 21  1  1  0  0  0
  1  2  2  0  0  0
  2  3  1  0  0  0
  3  4  2  0  0  0
  4  5  1  0  0  0
  4  6  1  0  0  0
  6  7  2  0  0  0
  7 10  1  0  0  0
 10 11  2  0  0  0
 11 12  1  0  0  0
 12 13  2  0  0  0
 13 16  1  0  0  0
 16 17  1  0  0  0
 17 18  1  0  0  0
 17 19  1  0  0  0
 17 20  1  0  0  0
 13 14  1  0  0  0
 14 15  2  0  0  0
 35 30  1  0  0  0
  7  1  1  0  0  0
 15 10  1  0  0  0
 24 25  1  0  0  0
 26 29  1  0  0  0
  5  8  1  0  0  0
  5  9  1  0  0  0
M  END
> <minimizedAffinity>
-5.28106

> <CNNscore>
0.3078041673

> <CNNaffinity>
5.1818509102

> <CNN_VS>
1.5949952602

> <CNNaffinity_variance>
0.3529822230

$$$$
[H]O[C@]([H])(C([H])([H])[H])[C@]([H])(c1nnc(N([H])[H])nc1-c1c([H])c([H])c(OC(F)(F)F)c([H])c1[H])N([H])C(=O)c1c([H])c([H])c([H])c(C(F)(F)F)c1[H]


 39 41  0  0  0  0  0  0  0  0999 V2000
   35.1232  -18.5734   35.5503 C   0  0  0  0  0  0  0  0  0  0  0  0
   35.7091  -19.5506   34.8015 N   0  0  0  0  0  0  0  0  0  0  0  0
   36.7549  -19.3943   34.0361 N   0  0  0  0  0  0  0  0  0  0  0  0
   37.3577  -18.1680   33.9371 C   0  0  0  0  0  0  0  0  0  0  0  0
   38.5138  -18.0005   33.0968 N   0  0  0  0  0  0  0  0  0  0  0  0
   36.8467  -17.1813   34.6301 N   0  0  0  0  0  0  0  0  0  0  0  0
   35.7211  -17.3558   35.4529 C   0  0  0  0  0  0  0  0  0  0  0  0
   39.3130  -18.6475   33.1219 H   0  0  0  0  0  0  0  0  0  0  0  0
   38.5271  -17.1922   32.4489 H   0  0  0  0  0  0  0  0  0  0  0  0
   35.2049  -16.1584   36.0521 C   0  0  0  0  0  0  0  0  0  0  0  0
   34.0074  -15.5629   35.7840 C   0  0  0  0  0  0  0  0  0  0  0  0
   33.6178  -14.4341   36.4590 C   0  0  0  0  0  0  0  0  0  0  0  0
   34.3933  -13.8419   37.4246 C   0  0  0  0  0  0  0  0  0  0  0  0
   35.6280  -14.4519   37.6990 C   0  0  0  0  0  0  0  0  0  0  0  0
   36.0253  -15.5774   37.0361 C   0  0  0  0  0  0  0  0  0  0  0  0
   34.0298  -12.7040   38.1312 O   0  0  0  0  0  0  0  0  0  0  0  0
   33.6332  -11.4805   37.6244 C   0  0  0  0  0  0  0  0  0  0  0  0
   32.3551  -11.5716   37.0864 F   0  0  0  0  0  0  0  0  0  0  0  0
   34.4901  -11.1297   36.5623 F   0  0  0  0  0  0  0  0  0  0  0  0
   33.6988  -10.4396   38.5044 F   0  0  0  0  0  0  0  0  0  0  0  0
   33.9726  -18.9015   36.3904 C   0  0  0  0  0  0  0  0  0  0  0  0
   32.2051  -20.5130   35.5232 C   0  0  0  0  0  0  0  0  0  0  0  0
   32.7521  -19.1113   35.4488 C   0  0  0  0  0  0  0  0  0  0  0  0
   31.7383  -18.2009   35.7864 O   0  0  0  0  0  0  0  0  0  0  0  0
   31.2233  -18.6721   36.4879 H   0  0  0  0  0  0  0  0  0  0  0  0
   34.0927  -20.1463   37.1537 N   0  0  0  0  0  0  0  0  0  0  0  0
   34.8734  -20.2344   38.3309 C   0  0  0  0  0  0  0  0  0  0  0  0
   35.5075  -19.2203   38.7329 O   0  0  0  0  0  0  0  0  0  0  0  0
   33.5679  -20.9690   36.7821 H   0  0  0  0  0  0  0  0  0  0  0  0
   34.9723  -21.4728   39.1128 C   0  0  0  0  0  0  0  0  0  0  0  0
   35.7431  -21.5581   40.2455 C   0  0  0  0  0  0  0  0  0  0  0  0
   35.8510  -22.7277   40.9351 C   0  0  0  0  0  0  0  0  0  0  0  0
   35.1916  -23.9007   40.5291 C   0  0  0  0  0  0  0  0  0  0  0  0
   34.4126  -23.8359   39.3873 C   0  0  0  0  0  0  0  0  0  0  0  0
   34.3260  -22.6383   38.7294 C   0  0  0  0  0  0  0  0  0  0  0  0
   33.7307  -25.0677   38.9339 C   0  0  0  0  0  0  0  0  0  0  0  0
   33.2387  -25.7671   40.0589 F   0  0  0  0  0  0  0  0  0  0  0  0
   34.4899  -25.8725   38.1368 F   0  0  0  0  0  0  0  0  0  0  0  0
   32.5943  -24.6897   38.2406 F   0  0  0  0  0  0  0  0  0  0  0  0
 22 23  1  0  0  0
 23 24  1  0  0  0
 23 21  1  0  0  0
 21 26  1  0  0  0
 26 27  1  0  0  0
 27 28  2  0  0  0
 27 30  1  0  0  0
 30 31  2  0  0  0
 31 32  1  0  0  0
 32 33  2  0  0  0
 33 34  1  0  0  0
 34 35  2  0  0  0
 34 36  1  0  0  0
 36 37  1  0  0  0
 36 38  1  0  0  0
 36 39  1  0  0  0
 21  1  1  0  0  0
  1  2  2  0  0  0
  2  3  1  0  0  0
  3  4  2  0  0  0
  4  5  1  0  0  0
  4  6  1  0  0  0
  6  7  2  0  0  0
  7 10  1  0  0  0
 10 11  2  0  0  0
 11 12  1  0  0  0
 12 13  2  0  0  0
 13 16  1  0  0  0
 16 17  1  0  0  0
 17 18  1  0  0  0
 17 19  1  0  0  0
 17 20  1  0  0  0
 13 14  1  0  0  0
 14 15  2  0  0  0
 35 30  1  0  0  0
  7  1  1  0  0  0
 15 10  1  0  0  0
 24 25  1  0  0  0
 26 29  1  0  0  0
  5  8  1  0  0  0
  5  9  1  0  0  0
M  END
> <minimizedAffinity>
-7.11312

> <CNNscore>
0.2566426396

> <CNNaffinity>
5.5702319145

> <CNN_VS>
1.4295589924

> <CNNaffinity_variance>
0.1306076348

$$$$
[H]O[C@]([H])(C([H])([H])[H])[C@]([H])(c1nnc(N([H])[H])nc1-c1c([H])c([H])c(OC(F)(F)F)c([H])c1[H])N([H])C(=O)c1c([H])c([H])c([H])c(C(F)(F)F)c1[H]


 39 41  0  0  0  0  0  0  0  0999 V2000
   36.2988  -16.5384   35.5709 C   0  0  0  0  0  0  0  0  0  0  0  0
   36.2624  -15.1902   35.3704 N   0  0  0  0  0  0  0  0  0  0  0  0
   36.6345  -14.2854   36.2345 N   0  0  0  0  0  0  0  0  0  0  0  0
   37.1107  -14.6617   37.4628 C   0  0  0  0  0  0  0  0  0  0  0  0
   37.5253  -13.6617   38.4107 N   0  0  0  0  0  0  0  0  0  0  0  0
   37.1730  -15.9434   37.7243 N   0  0  0  0  0  0  0  0  0  0  0  0
   36.7716  -16.9130   36.7898 C   0  0  0  0  0  0  0  0  0  0  0  0
   38.1437  -12.8808   38.1546 H   0  0  0  0  0  0  0  0  0  0  0  0
   37.1809  -13.7465   39.3841 H   0  0  0  0  0  0  0  0  0  0  0  0
   36.7830  -18.2672   37.2643 C   0  0  0  0  0  0  0  0  0  0  0  0
   37.8168  -19.1529   37.1787 C   0  0  0  0  0  0  0  0  0  0  0  0
   37.7072  -20.4134   37.7085 C   0  0  0  0  0  0  0  0  0  0  0  0
   36.5729  -20.8560   38.3426 C   0  0  0  0  0  0  0  0  0  0  0  0
   35.5066  -19.9464   38.4283 C   0  0  0  0  0  0  0  0  0  0  0  0
   35.6049  -18.6881   37.9075 C   0  0  0  0  0  0  0  0  0  0  0  0
   36.4282  -22.1210   38.8949 O   0  0  0  0  0  0  0  0  0  0  0  0
   36.4779  -23.3411   38.2470 C   0  0  0  0  0  0  0  0  0  0  0  0
   35.8028  -24.3072   38.9833 F   0  0  0  0  0  0  0  0  0  0  0  0
   37.8209  -23.7612   38.1726 F   0  0  0  0  0  0  0  0  0  0  0  0
   36.0271  -23.3325   36.9591 F   0  0  0  0  0  0  0  0  0  0  0  0
   35.8808  -17.4383   34.4972 C   0  0  0  0  0  0  0  0  0  0  0  0
   36.9056  -19.6901   33.9038 C   0  0  0  0  0  0  0  0  0  0  0  0
   37.1443  -18.2067   34.0141 C   0  0  0  0  0  0  0  0  0  0  0  0
   37.5459  -17.7088   32.7646 O   0  0  0  0  0  0  0  0  0  0  0  0
   37.0243  -18.2473   32.1185 H   0  0  0  0  0  0  0  0  0  0  0  0
   34.9224  -18.4745   34.8898 N   0  0  0  0  0  0  0  0  0  0  0  0
   33.5242  -18.2877   34.7766 C   0  0  0  0  0  0  0  0  0  0  0  0
   33.0773  -17.1894   34.3451 O   0  0  0  0  0  0  0  0  0  0  0  0
   35.3278  -19.3635   35.2584 H   0  0  0  0  0  0  0  0  0  0  0  0
   32.5631  -19.3351   35.1427 C   0  0  0  0  0  0  0  0  0  0  0  0
   31.2201  -19.2117   34.8861 C   0  0  0  0  0  0  0  0  0  0  0  0
   30.3404  -20.1788   35.2683 C   0  0  0  0  0  0  0  0  0  0  0  0
   30.7511  -21.3415   35.9429 C   0  0  0  0  0  0  0  0  0  0  0  0
   32.1007  -21.4825   36.2140 C   0  0  0  0  0  0  0  0  0  0  0  0
   32.9506  -20.4901   35.8052 C   0  0  0  0  0  0  0  0  0  0  0  0
   32.5460  -22.6896   36.9438 C   0  0  0  0  0  0  0  0  0  0  0  0
   31.4235  -23.4977   37.2333 F   0  0  0  0  0  0  0  0  0  0  0  0
   33.2805  -22.4334   38.0637 F   0  0  0  0  0  0  0  0  0  0  0  0
   33.3035  -23.4532   36.0731 F   0  0  0  0  0  0  0  0  0  0  0  0
 22 23  1  0  0  0
 23 24  1  0  0  0
 23 21  1  0  0  0
 21 26  1  0  0  0
 26 27  1  0  0  0
 27 28  2  0  0  0
 27 30  1  0  0  0
 30 31  2  0  0  0
 31 32  1  0  0  0
 32 33  2  0  0  0
 33 34  1  0  0  0
 34 35  2  0  0  0
 34 36  1  0  0  0
 36 37  1  0  0  0
 36 38  1  0  0  0
 36 39  1  0  0  0
 21  1  1  0  0  0
  1  2  2  0  0  0
  2  3  1  0  0  0
  3  4  2  0  0  0
  4  5  1  0  0  0
  4  6  1  0  0  0
  6  7  2  0  0  0
  7 10  1  0  0  0
 10 11  2  0  0  0
 11 12  1  0  0  0
 12 13  2  0  0  0
 13 16  1  0  0  0
 16 17  1  0  0  0
 17 18  1  0  0  0
 17 19  1  0  0  0
 17 20  1  0  0  0
 13 14  1  0  0  0
 14 15  2  0  0  0
 35 30  1  0  0  0
  7  1  1  0  0  0
 15 10  1  0  0  0
 24 25  1  0  0  0
 26 29  1  0  0  0
  5  8  1  0  0  0
  5  9  1  0  0  0
M  END
> <minimizedAffinity>
-5.69687

> <CNNscore>
0.2160391510

> <CNNaffinity>
5.1589555740

> <CNN_VS>
1.1145364046

> <CNNaffinity_variance>
0.4659375250

$$$$
[H]O[C@]([H])(C([H])([H])[H])[C@]([H])(c1nnc(N([H])[H])nc1-c1c([H])c([H])c(OC(F)(F)F)c([H])c1[H])N([H])C(=O)c1c([H])c([H])c([H])c(C(F)(F)F)c1[H]


 39 41  0  0  0  0  0  0  0  0999 V2000
   36.2502  -16.7084   35.6189 C   0  0  0  0  0  0  0  0  0  0  0  0
   36.2407  -15.3677   35.3708 N   0  0  0  0  0  0  0  0  0  0  0  0
   36.5486  -14.4357   36.2312 N   0  0  0  0  0  0  0  0  0  0  0  0
   36.9208  -14.7722   37.5061 C   0  0  0  0  0  0  0  0  0  0  0  0
   37.2650  -13.7424   38.4504 N   0  0  0  0  0  0  0  0  0  0  0  0
   36.9518  -16.0445   37.8148 N   0  0  0  0  0  0  0  0  0  0  0  0
   36.6199  -17.0434   36.8841 C   0  0  0  0  0  0  0  0  0  0  0  0
   37.9082  -12.9738   38.2191 H   0  0  0  0  0  0  0  0  0  0  0  0
   36.8422  -13.7921   39.3948 H   0  0  0  0  0  0  0  0  0  0  0  0
   36.5822  -18.3806   37.4034 C   0  0  0  0  0  0  0  0  0  0  0  0
   35.5188  -18.9959   37.9961 C   0  0  0  0  0  0  0  0  0  0  0  0
   35.6068  -20.2981   38.4180 C   0  0  0  0  0  0  0  0  0  0  0  0
   36.7475  -21.0487   38.2768 C   0  0  0  0  0  0  0  0  0  0  0  0
   37.8441  -20.4154   37.6700 C   0  0  0  0  0  0  0  0  0  0  0  0
   37.7677  -19.1208   37.2432 C   0  0  0  0  0  0  0  0  0  0  0  0
   36.8711  -22.3691   38.6862 O   0  0  0  0  0  0  0  0  0  0  0  0
   36.7070  -23.5124   37.9267 C   0  0  0  0  0  0  0  0  0  0  0  0
   35.6468  -23.3567   37.0418 F   0  0  0  0  0  0  0  0  0  0  0  0
   36.3619  -24.5790   38.7804 F   0  0  0  0  0  0  0  0  0  0  0  0
   37.8206  -23.9280   37.2563 F   0  0  0  0  0  0  0  0  0  0  0  0
   35.9136  -17.6424   34.5457 C   0  0  0  0  0  0  0  0  0  0  0  0
   37.2090  -19.7324   33.8924 C   0  0  0  0  0  0  0  0  0  0  0  0
   37.2479  -18.2306   34.0035 C   0  0  0  0  0  0  0  0  0  0  0  0
   37.5235  -17.6806   32.7417 O   0  0  0  0  0  0  0  0  0  0  0  0
   37.0527  -18.2842   32.1145 H   0  0  0  0  0  0  0  0  0  0  0  0
   35.1162  -18.8014   34.9551 N   0  0  0  0  0  0  0  0  0  0  0  0
   33.7013  -18.7755   34.9644 C   0  0  0  0  0  0  0  0  0  0  0  0
   33.0973  -17.7187   34.6319 O   0  0  0  0  0  0  0  0  0  0  0  0
   35.6500  -19.6525   35.2399 H   0  0  0  0  0  0  0  0  0  0  0  0
   32.9002  -19.9445   35.3470 C   0  0  0  0  0  0  0  0  0  0  0  0
   33.4568  -21.1907   35.4949 C   0  0  0  0  0  0  0  0  0  0  0  0
   32.6888  -22.2695   35.8134 C   0  0  0  0  0  0  0  0  0  0  0  0
   31.2995  -22.1710   36.0019 C   0  0  0  0  0  0  0  0  0  0  0  0
   30.7190  -20.9237   35.8534 C   0  0  0  0  0  0  0  0  0  0  0  0
   31.5293  -19.8654   35.5405 C   0  0  0  0  0  0  0  0  0  0  0  0
   29.2545  -20.8077   36.0257 C   0  0  0  0  0  0  0  0  0  0  0  0
   28.6110  -21.7137   35.1528 F   0  0  0  0  0  0  0  0  0  0  0  0
   28.7676  -19.5422   35.8817 F   0  0  0  0  0  0  0  0  0  0  0  0
   28.9411  -21.2696   37.2920 F   0  0  0  0  0  0  0  0  0  0  0  0
 22 23  1  0  0  0
 23 24  1  0  0  0
 23 21  1  0  0  0
 21 26  1  0  0  0
 26 27  1  0  0  0
 27 28  2  0  0  0
 27 30  1  0  0  0
 30 31  2  0  0  0
 31 32  1  0  0  0
 32 33  2  0  0  0
 33 34  1  0  0  0
 34 35  2  0  0  0
 34 36  1  0  0  0
 36 37  1  0  0  0
 36 38  1  0  0  0
 36 39  1  0  0  0
 21  1  1  0  0  0
  1  2  2  0  0  0
  2  3  1  0  0  0
  3  4  2  0  0  0
  4  5  1  0  0  0
  4  6  1  0  0  0
  6  7  2  0  0  0
  7 10  1  0  0  0
 10 11  2  0  0  0
 11 12  1  0  0  0
 12 13  2  0  0  0
 13 16  1  0  0  0
 16 17  1  0  0  0
 17 18  1  0  0  0
 17 19  1  0  0  0
 17 20  1  0  0  0
 13 14  1  0  0  0
 14 15  2  0  0  0
 35 30  1  0  0  0
  7  1  1  0  0  0
 15 10  1  0  0  0
 24 25  1  0  0  0
 26 29  1  0  0  0
  5  8  1  0  0  0
  5  9  1  0  0  0
M  END
> <minimizedAffinity>
-6.07269

> <CNNscore>
0.2119795084

> <CNNaffinity>
5.1242175102

> <CNN_VS>
1.0862290859

> <CNNaffinity_variance>
0.4361643195

$$$$
[H]O[C@]([H])(C([H])([H])[H])[C@]([H])(c1nnc(N([H])[H])nc1-c1c([H])c([H])c(OC(F)(F)F)c([H])c1[H])N([H])C(=O)c1c([H])c([H])c([H])c(C(F)(F)F)c1[H]


 39 41  0  0  0  0  0  0  0  0999 V2000
   36.0892  -16.9938   35.7135 C   0  0  0  0  0  0  0  0  0  0  0  0
   36.6632  -15.7588   35.7796 N   0  0  0  0  0  0  0  0  0  0  0  0
   36.0263  -14.6369   35.9786 N   0  0  0  0  0  0  0  0  0  0  0  0
   34.6660  -14.6378   36.1423 C   0  0  0  0  0  0  0  0  0  0  0  0
   33.9678  -13.3998   36.3672 N   0  0  0  0  0  0  0  0  0  0  0  0
   34.0479  -15.7911   36.0900 N   0  0  0  0  0  0  0  0  0  0  0  0
   34.7390  -16.9957   35.8761 C   0  0  0  0  0  0  0  0  0  0  0  0
   34.2816  -12.7068   37.0594 H   0  0  0  0  0  0  0  0  0  0  0  0
   33.1182  -13.2152   35.8039 H   0  0  0  0  0  0  0  0  0  0  0  0
   33.9141  -18.1597   35.7221 C   0  0  0  0  0  0  0  0  0  0  0  0
   33.8806  -19.2500   36.5411 C   0  0  0  0  0  0  0  0  0  0  0  0
   33.0137  -20.2848   36.2976 C   0  0  0  0  0  0  0  0  0  0  0  0
   32.1450  -20.2908   35.2347 C   0  0  0  0  0  0  0  0  0  0  0  0
   32.1809  -19.1707   34.3887 C   0  0  0  0  0  0  0  0  0  0  0  0
   33.0371  -18.1332   34.6225 C   0  0  0  0  0  0  0  0  0  0  0  0
   31.2510  -21.3164   34.9605 O   0  0  0  0  0  0  0  0  0  0  0  0
   30.0616  -21.6008   35.6050 C   0  0  0  0  0  0  0  0  0  0  0  0
   29.5296  -22.7948   35.1331 F   0  0  0  0  0  0  0  0  0  0  0  0
   29.1249  -20.5952   35.2939 F   0  0  0  0  0  0  0  0  0  0  0  0
   30.1317  -21.6244   36.9676 F   0  0  0  0  0  0  0  0  0  0  0  0
   36.9334  -18.1714   35.5185 C   0  0  0  0  0  0  0  0  0  0  0  0
   38.3829  -18.3311   33.4337 C   0  0  0  0  0  0  0  0  0  0  0  0
   36.9888  -18.4578   33.9903 C   0  0  0  0  0  0  0  0  0  0  0  0
   36.5064  -19.7518   33.7387 O   0  0  0  0  0  0  0  0  0  0  0  0
   37.3086  -20.3238   33.8312 H   0  0  0  0  0  0  0  0  0  0  0  0
   38.3292  -18.0138   35.9350 N   0  0  0  0  0  0  0  0  0  0  0  0
   39.0703  -19.0788   36.5001 C   0  0  0  0  0  0  0  0  0  0  0  0
   38.5144  -20.1980   36.6751 O   0  0  0  0  0  0  0  0  0  0  0  0
   38.7509  -17.0695   35.7908 H   0  0  0  0  0  0  0  0  0  0  0  0
   40.4772  -18.9311   36.8918 C   0  0  0  0  0  0  0  0  0  0  0  0
   41.4510  -18.5837   35.9887 C   0  0  0  0  0  0  0  0  0  0  0  0
   42.7565  -18.4890   36.3653 C   0  0  0  0  0  0  0  0  0  0  0  0
   43.1770  -18.7430   37.6822 C   0  0  0  0  0  0  0  0  0  0  0  0
   42.2106  -19.0984   38.6066 C   0  0  0  0  0  0  0  0  0  0  0  0
   40.9096  -19.1740   38.1869 C   0  0  0  0  0  0  0  0  0  0  0  0
   42.6401  -19.3915   39.9914 C   0  0  0  0  0  0  0  0  0  0  0  0
   43.6419  -18.4702   40.3716 F   0  0  0  0  0  0  0  0  0  0  0  0
   43.0395  -20.6788   40.1980 F   0  0  0  0  0  0  0  0  0  0  0  0
   41.5771  -19.1092   40.8312 F   0  0  0  0  0  0  0  0  0  0  0  0
 22 23  1  0  0  0
 23 24  1  0  0  0
 23 21  1  0  0  0
 21 26  1  0  0  0
 26 27  1  0  0  0
 27 28  2  0  0  0
 27 30  1  0  0  0
 30 31  2  0  0  0
 31 32  1  0  0  0
 32 33  2  0  0  0
 33 34  1  0  0  0
 34 35  2  0  0  0
 34 36  1  0  0  0
 36 37  1  0  0  0
 36 38  1  0  0  0
 36 39  1  0  0  0
 21  1  1  0  0  0
  1  2  2  0  0  0
  2  3  1  0  0  0
  3  4  2  0  0  0
  4  5  1  0  0  0
  4  6  1  0  0  0
  6  7  2  0  0  0
  7 10  1  0  0  0
 10 11  2  0  0  0
 11 12  1  0  0  0
 12 13  2  0  0  0
 13 16  1  0  0  0
 16 17  1  0  0  0
 17 18  1  0  0  0
 17 19  1  0  0  0
 17 20  1  0  0  0
 13 14  1  0  0  0
 14 15  2  0  0  0
 35 30  1  0  0  0
  7  1  1  0  0  0
 15 10  1  0  0  0
 24 25  1  0  0  0
 26 29  1  0  0  0
  5  8  1  0  0  0
  5  9  1  0  0  0
M  END
> <minimizedAffinity>
-7.56249

> <CNNscore>
0.2067233175

> <CNNaffinity>
5.5379190445

> <CNN_VS>
1.1448169947

> <CNNaffinity_variance>
0.2583133876

$$$$
[H]O[C@]([H])(C([H])([H])[H])[C@]([H])(c1nnc(N([H])[H])nc1-c1c([H])c([H])c(OC(F)(F)F)c([H])c1[H])N([H])C(=O)c1c([H])c([H])c([H])c(C(F)(F)F)c1[H]


 39 41  0  0  0  0  0  0  0  0999 V2000
   41.2397  -21.4084   34.3227 C   0  0  0  0  0  0  0  0  0  0  0  0
   41.2566  -21.8963   33.0496 N   0  0  0  0  0  0  0  0  0  0  0  0
   42.1361  -22.7335   32.5706 N   0  0  0  0  0  0  0  0  0  0  0  0
   43.1503  -23.1963   33.3670 C   0  0  0  0  0  0  0  0  0  0  0  0
   44.1147  -24.1236   32.8373 N   0  0  0  0  0  0  0  0  0  0  0  0
   43.1959  -22.7683   34.6038 N   0  0  0  0  0  0  0  0  0  0  0  0
   42.2460  -21.8675   35.1141 C   0  0  0  0  0  0  0  0  0  0  0  0
   43.8418  -24.9600   32.3046 H   0  0  0  0  0  0  0  0  0  0  0  0
   45.1175  -23.9282   33.0091 H   0  0  0  0  0  0  0  0  0  0  0  0
   42.4973  -21.3966   36.4461 C   0  0  0  0  0  0  0  0  0  0  0  0
   42.2730  -22.0761   37.6074 C   0  0  0  0  0  0  0  0  0  0  0  0
   42.5938  -21.5199   38.8196 C   0  0  0  0  0  0  0  0  0  0  0  0
   43.1463  -20.2689   38.9393 C   0  0  0  0  0  0  0  0  0  0  0  0
   43.3745  -19.5669   37.7448 C   0  0  0  0  0  0  0  0  0  0  0  0
   43.0623  -20.1112   36.5322 C   0  0  0  0  0  0  0  0  0  0  0  0
   43.4885  -19.6769   40.1471 O   0  0  0  0  0  0  0  0  0  0  0  0
   42.6981  -19.5217   41.2705 C   0  0  0  0  0  0  0  0  0  0  0  0
   42.6624  -20.7020   42.0032 F   0  0  0  0  0  0  0  0  0  0  0  0
   41.3743  -19.2643   40.8623 F   0  0  0  0  0  0  0  0  0  0  0  0
   43.0394  -18.4772   42.0797 F   0  0  0  0  0  0  0  0  0  0  0  0
   40.1701  -20.4997   34.7322 C   0  0  0  0  0  0  0  0  0  0  0  0
   37.8304  -19.8426   33.9791 C   0  0  0  0  0  0  0  0  0  0  0  0
   39.1610  -20.4051   33.5519 C   0  0  0  0  0  0  0  0  0  0  0  0
   39.7004  -19.5974   32.5383 O   0  0  0  0  0  0  0  0  0  0  0  0
   39.4216  -18.6828   32.7934 H   0  0  0  0  0  0  0  0  0  0  0  0
   39.3806  -20.9447   35.8833 N   0  0  0  0  0  0  0  0  0  0  0  0
   39.2520  -20.1615   37.0551 C   0  0  0  0  0  0  0  0  0  0  0  0
   39.8496  -19.0527   37.1297 O   0  0  0  0  0  0  0  0  0  0  0  0
   38.9143  -21.8746   35.7926 H   0  0  0  0  0  0  0  0  0  0  0  0
   38.4385  -20.5925   38.1984 C   0  0  0  0  0  0  0  0  0  0  0  0
   38.9999  -21.1398   39.3253 C   0  0  0  0  0  0  0  0  0  0  0  0
   38.2238  -21.5682   40.3594 C   0  0  0  0  0  0  0  0  0  0  0  0
   36.8213  -21.4799   40.3306 C   0  0  0  0  0  0  0  0  0  0  0  0
   36.2362  -20.9344   39.2015 C   0  0  0  0  0  0  0  0  0  0  0  0
   37.0542  -20.5097   38.1891 C   0  0  0  0  0  0  0  0  0  0  0  0
   34.7602  -20.8558   39.1460 C   0  0  0  0  0  0  0  0  0  0  0  0
   34.3799  -20.0119   38.0783 F   0  0  0  0  0  0  0  0  0  0  0  0
   34.1706  -20.4791   40.3163 F   0  0  0  0  0  0  0  0  0  0  0  0
   34.2849  -22.1039   38.7833 F   0  0  0  0  0  0  0  0  0  0  0  0
 22 23  1  0  0  0
 23 24  1  0  0  0
 23 21  1  0  0  0
 21 26  1  0  0  0
 26 27  1  0  0  0
 27 28  2  0  0  0
 27 30  1  0  0  0
 30 31  2  0  0  0
 31 32  1  0  0  0
 32 33  2  0  0  0
 33 34  1  0  0  0
 34 35  2  0  0  0
 34 36  1  0  0  0
 36 37  1  0  0  0
 36 38  1  0  0  0
 36 39  1  0  0  0
 21  1  1  0  0  0
  1  2  2  0  0  0
  2  3  1  0  0  0
  3  4  2  0  0  0
  4  5  1  0  0  0
  4  6  1  0  0  0
  6  7  2  0  0  0
  7 10  1  0  0  0
 10 11  2  0  0  0
 11 12  1  0  0  0
 12 13  2  0  0  0
 13 16  1  0  0  0
 16 17  1  0  0  0
 17 18  1  0  0  0
 17 19  1  0  0  0
 17 20  1  0  0  0
 13 14  1  0  0  0
 14 15  2  0  0  0
 35 30  1  0  0  0
  7  1  1  0  0  0
 15 10  1  0  0  0
 24 25  1  0  0  0
 26 29  1  0  0  0
  5  8  1  0  0  0
  5  9  1  0  0  0
M  END
> <minimizedAffinity>
-4.68660

> <CNNscore>
0.2046642452

> <CNNaffinity>
5.0159735680

> <CNN_VS>
1.0265904665

> <CNNaffinity_variance>
0.1160830855

$$$$
[H]O[C@]([H])(C([H])([H])[H])[C@]([H])(c1nnc(N([H])[H])nc1-c1c([H])c([H])c(OC(F)(F)F)c([H])c1[H])N([H])C(=O)c1c([H])c([H])c([H])c(C(F)(F)F)c1[H]


 39 41  0  0  0  0  0  0  0  0999 V2000
   41.2980  -21.8721   34.2803 C   0  0  0  0  0  0  0  0  0  0  0  0
   41.9995  -22.0363   33.1227 N   0  0  0  0  0  0  0  0  0  0  0  0
   42.2908  -23.1821   32.5694 N   0  0  0  0  0  0  0  0  0  0  0  0
   41.8836  -24.3520   33.1547 C   0  0  0  0  0  0  0  0  0  0  0  0
   42.2017  -25.6131   32.5389 N   0  0  0  0  0  0  0  0  0  0  0  0
   41.2043  -24.2692   34.2712 N   0  0  0  0  0  0  0  0  0  0  0  0
   40.8931  -23.0329   34.8619 C   0  0  0  0  0  0  0  0  0  0  0  0
   42.0495  -25.7926   31.5377 H   0  0  0  0  0  0  0  0  0  0  0  0
   42.5964  -26.3584   33.1405 H   0  0  0  0  0  0  0  0  0  0  0  0
   40.2516  -23.1069   36.1434 C   0  0  0  0  0  0  0  0  0  0  0  0
   40.8473  -22.9710   37.3629 C   0  0  0  0  0  0  0  0  0  0  0  0
   40.1069  -23.0279   38.5162 C   0  0  0  0  0  0  0  0  0  0  0  0
   38.7483  -23.2245   38.5172 C   0  0  0  0  0  0  0  0  0  0  0  0
   38.1343  -23.3682   37.2626 C   0  0  0  0  0  0  0  0  0  0  0  0
   38.8601  -23.3103   36.1076 C   0  0  0  0  0  0  0  0  0  0  0  0
   37.9667  -23.2820   39.6627 O   0  0  0  0  0  0  0  0  0  0  0  0
   37.1540  -24.3175   40.0848 C   0  0  0  0  0  0  0  0  0  0  0  0
   35.8543  -24.1277   39.6309 F   0  0  0  0  0  0  0  0  0  0  0  0
   37.0922  -24.3012   41.4925 F   0  0  0  0  0  0  0  0  0  0  0  0
   37.5889  -25.5679   39.7538 F   0  0  0  0  0  0  0  0  0  0  0  0
   41.0156  -20.5226   34.7666 C   0  0  0  0  0  0  0  0  0  0  0  0
   40.5839  -18.3805   33.4635 C   0  0  0  0  0  0  0  0  0  0  0  0
   41.5390  -19.5220   33.6965 C   0  0  0  0  0  0  0  0  0  0  0  0
   42.7813  -19.0098   34.1023 O   0  0  0  0  0  0  0  0  0  0  0  0
   42.5424  -18.2254   34.6564 H   0  0  0  0  0  0  0  0  0  0  0  0
   39.5953  -20.2046   34.9339 N   0  0  0  0  0  0  0  0  0  0  0  0
   39.0588  -19.7882   36.1756 C   0  0  0  0  0  0  0  0  0  0  0  0
   39.8150  -19.7055   37.1824 O   0  0  0  0  0  0  0  0  0  0  0  0
   38.9967  -20.3006   34.0837 H   0  0  0  0  0  0  0  0  0  0  0  0
   37.6417  -19.4419   36.3386 C   0  0  0  0  0  0  0  0  0  0  0  0
   37.0119  -19.5096   37.5565 C   0  0  0  0  0  0  0  0  0  0  0  0
   35.6866  -19.2202   37.6788 C   0  0  0  0  0  0  0  0  0  0  0  0
   34.8967  -18.8451   36.5784 C   0  0  0  0  0  0  0  0  0  0  0  0
   35.5126  -18.7748   35.3413 C   0  0  0  0  0  0  0  0  0  0  0  0
   36.8481  -19.0664   35.2652 C   0  0  0  0  0  0  0  0  0  0  0  0
   34.6897  -18.4040   34.1694 C   0  0  0  0  0  0  0  0  0  0  0  0
   35.5394  -18.0095   33.1114 F   0  0  0  0  0  0  0  0  0  0  0  0
   33.7369  -17.4623   34.4238 F   0  0  0  0  0  0  0  0  0  0  0  0
   34.0746  -19.5535   33.7055 F   0  0  0  0  0  0  0  0  0  0  0  0
 22 23  1  0  0  0
 23 24  1  0  0  0
 23 21  1  0  0  0
 21 26  1  0  0  0
 26 27  1  0  0  0
 27 28  2  0  0  0
 27 30  1  0  0  0
 30 31  2  0  0  0
 31 32  1  0  0  0
 32 33  2  0  0  0
 33 34  1  0  0  0
 34 35  2  0  0  0
 34 36  1  0  0  0
 36 37  1  0  0  0
 36 38  1  0  0  0
 36 39  1  0  0  0
 21  1  1  0  0  0
  1  2  2  0  0  0
  2  3  1  0  0  0
  3  4  2  0  0  0
  4  5  1  0  0  0
  4  6  1  0  0  0
  6  7  2  0  0  0
  7 10  1  0  0  0
 10 11  2  0  0  0
 11 12  1  0  0  0
 12 13  2  0  0  0
 13 16  1  0  0  0
 16 17  1  0  0  0
 17 18  1  0  0  0
 17 19  1  0  0  0
 17 20  1  0  0  0
 13 14  1  0  0  0
 14 15  2  0  0  0
 35 30  1  0  0  0
  7  1  1  0  0  0
 15 10  1  0  0  0
 24 25  1  0  0  0
 26 29  1  0  0  0
  5  8  1  0  0  0
  5  9  1  0  0  0
M  END
> <minimizedAffinity>
-4.49416

> <CNNscore>
0.2029845268

> <CNNaffinity>
5.0334687233

> <CNN_VS>
1.0217162371

> <CNNaffinity_variance>
0.0981738716

$$$$
[H]O[C@]([H])(C([H])([H])[H])[C@]([H])(c1nnc(N([H])[H])nc1-c1c([H])c([H])c(OC(F)(F)F)c([H])c1[H])N([H])C(=O)c1c([H])c([H])c([H])c(C(F)(F)F)c1[H]


 39 41  0  0  0  0  0  0  0  0999 V2000
   32.7504  -19.5065   35.6745 C   0  0  0  0  0  0  0  0  0  0  0  0
   31.6945  -18.8983   35.0626 N   0  0  0  0  0  0  0  0  0  0  0  0
   30.4422  -19.2427   35.1929 N   0  0  0  0  0  0  0  0  0  0  0  0
   30.0986  -20.2956   35.9994 C   0  0  0  0  0  0  0  0  0  0  0  0
   28.7165  -20.6689   36.1451 N   0  0  0  0  0  0  0  0  0  0  0  0
   31.0639  -20.9273   36.6191 N   0  0  0  0  0  0  0  0  0  0  0  0
   32.4102  -20.5517   36.4754 C   0  0  0  0  0  0  0  0  0  0  0  0
   27.9763  -19.9813   36.3380 H   0  0  0  0  0  0  0  0  0  0  0  0
   28.4746  -21.6718   36.0512 H   0  0  0  0  0  0  0  0  0  0  0  0
   33.3615  -21.4125   37.1182 C   0  0  0  0  0  0  0  0  0  0  0  0
   33.8109  -22.6167   36.6614 C   0  0  0  0  0  0  0  0  0  0  0  0
   34.7545  -23.3253   37.3608 C   0  0  0  0  0  0  0  0  0  0  0  0
   35.2931  -22.8789   38.5419 C   0  0  0  0  0  0  0  0  0  0  0  0
   34.8288  -21.6411   39.0151 C   0  0  0  0  0  0  0  0  0  0  0  0
   33.8922  -20.9252   38.3263 C   0  0  0  0  0  0  0  0  0  0  0  0
   36.2525  -23.5653   39.2733 O   0  0  0  0  0  0  0  0  0  0  0  0
   37.4948  -23.1141   39.6783 C   0  0  0  0  0  0  0  0  0  0  0  0
   37.3854  -22.3954   40.8627 F   0  0  0  0  0  0  0  0  0  0  0  0
   37.9898  -22.2173   38.7107 F   0  0  0  0  0  0  0  0  0  0  0  0
   38.4505  -24.0802   39.8022 F   0  0  0  0  0  0  0  0  0  0  0  0
   34.1015  -18.9902   35.4620 C   0  0  0  0  0  0  0  0  0  0  0  0
   35.9284  -19.2188   33.7061 C   0  0  0  0  0  0  0  0  0  0  0  0
   34.4433  -19.1831   33.9566 C   0  0  0  0  0  0  0  0  0  0  0  0
   33.8678  -20.3774   33.4951 O   0  0  0  0  0  0  0  0  0  0  0  0
   34.5546  -21.0615   33.6943 H   0  0  0  0  0  0  0  0  0  0  0  0
   34.2688  -17.5574   35.7178 N   0  0  0  0  0  0  0  0  0  0  0  0
   35.3315  -17.0528   36.5046 C   0  0  0  0  0  0  0  0  0  0  0  0
   36.1545  -17.8555   37.0248 O   0  0  0  0  0  0  0  0  0  0  0  0
   33.5595  -16.9246   35.2855 H   0  0  0  0  0  0  0  0  0  0  0  0
   35.5174  -15.6157   36.7386 C   0  0  0  0  0  0  0  0  0  0  0  0
   34.4730  -14.7271   36.6729 C   0  0  0  0  0  0  0  0  0  0  0  0
   34.6739  -13.3925   36.8559 C   0  0  0  0  0  0  0  0  0  0  0  0
   35.9465  -12.8547   37.1146 C   0  0  0  0  0  0  0  0  0  0  0  0
   37.0128  -13.7340   37.1810 C   0  0  0  0  0  0  0  0  0  0  0  0
   36.7646  -15.0680   36.9986 C   0  0  0  0  0  0  0  0  0  0  0  0
   38.3621  -13.1811   37.4295 C   0  0  0  0  0  0  0  0  0  0  0  0
   38.5787  -12.0808   36.5696 F   0  0  0  0  0  0  0  0  0  0  0  0
   39.3715  -14.0934   37.3390 F   0  0  0  0  0  0  0  0  0  0  0  0
   38.3649  -12.6305   38.6991 F   0  0  0  0  0  0  0  0  0  0  0  0
 22 23  1  0  0  0
 23 24  1  0  0  0
 23 21  1  0  0  0
 21 26  1  0  0  0
 26 27  1  0  0  0
 27 28  2  0  0  0
 27 30  1  0  0  0
 30 31  2  0  0  0
 31 32  1  0  0  0
 32 33  2  0  0  0
 33 34  1  0  0  0
 34 35  2  0  0  0
 34 36  1  0  0  0
 36 37  1  0  0  0
 36 38  1  0  0  0
 36 39  1  0  0  0
 21  1  1  0  0  0
  1  2  2  0  0  0
  2  3  1  0  0  0
  3  4  2  0  0  0
  4  5  1  0  0  0
  4  6  1  0  0  0
  6  7  2  0  0  0
  7 10  1  0  0  0
 10 11  2  0  0  0
 11 12  1  0  0  0
 12 13  2  0  0  0
 13 16  1  0  0  0
 16 17  1  0  0  0
 17 18  1  0  0  0
 17 19  1  0  0  0
 17 20  1  0  0  0
 13 14  1  0  0  0
 14 15  2  0  0  0
 35 30  1  0  0  0
  7  1  1  0  0  0
 15 10  1  0  0  0
 24 25  1  0  0  0
 26 29  1  0  0  0
  5  8  1  0  0  0
  5  9  1  0  0  0
M  END
> <minimizedAffinity>
-6.66619

> <CNNscore>
0.2007949054

> <CNNaffinity>
5.2123684883

> <CNN_VS>
1.0466170311

> <CNNaffinity_variance>
0.1475264728

$$$$
[H]O[C@]([H])(C([H])([H])[H])[C@]([H])(c1nnc(N([H])[H])nc1-c1c([H])c([H])c(OC(F)(F)F)c([H])c1[H])N([H])C(=O)c1c([H])c([H])c([H])c(C(F)(F)F)c1[H]


 39 41  0  0  0  0  0  0  0  0999 V2000
   36.1820  -17.3491   35.5648 C   0  0  0  0  0  0  0  0  0  0  0  0
   36.7129  -16.1262   35.8507 N   0  0  0  0  0  0  0  0  0  0  0  0
   36.0290  -15.0443   36.1064 N   0  0  0  0  0  0  0  0  0  0  0  0
   34.6593  -15.0792   36.1023 C   0  0  0  0  0  0  0  0  0  0  0  0
   33.9086  -13.8858   36.3902 N   0  0  0  0  0  0  0  0  0  0  0  0
   34.0809  -16.2232   35.8347 N   0  0  0  0  0  0  0  0  0  0  0  0
   34.8225  -17.3848   35.5607 C   0  0  0  0  0  0  0  0  0  0  0  0
   34.1200  -13.2812   37.1949 H   0  0  0  0  0  0  0  0  0  0  0  0
   33.1279  -13.6412   35.7547 H   0  0  0  0  0  0  0  0  0  0  0  0
   34.0512  -18.5289   35.1665 C   0  0  0  0  0  0  0  0  0  0  0  0
   34.0243  -19.1084   33.9320 C   0  0  0  0  0  0  0  0  0  0  0  0
   33.2659  -20.2272   33.6979 C   0  0  0  0  0  0  0  0  0  0  0  0
   32.4992  -20.8208   34.6697 C   0  0  0  0  0  0  0  0  0  0  0  0
   32.5233  -20.2232   35.9401 C   0  0  0  0  0  0  0  0  0  0  0  0
   33.2765  -19.1113   36.1860 C   0  0  0  0  0  0  0  0  0  0  0  0
   31.7246  -21.9553   34.4710 O   0  0  0  0  0  0  0  0  0  0  0  0
   31.7574  -23.1407   35.1813 C   0  0  0  0  0  0  0  0  0  0  0  0
   31.4262  -24.2082   34.3555 F   0  0  0  0  0  0  0  0  0  0  0  0
   30.7730  -23.0939   36.1884 F   0  0  0  0  0  0  0  0  0  0  0  0
   32.9305  -23.3956   35.8301 F   0  0  0  0  0  0  0  0  0  0  0  0
   37.0726  -18.4848   35.3314 C   0  0  0  0  0  0  0  0  0  0  0  0
   38.4660  -19.4587   33.4385 C   0  0  0  0  0  0  0  0  0  0  0  0
   37.8393  -18.2116   34.0056 C   0  0  0  0  0  0  0  0  0  0  0  0
   36.9582  -17.6655   33.0591 O   0  0  0  0  0  0  0  0  0  0  0  0
   36.5656  -18.4596   32.6180 H   0  0  0  0  0  0  0  0  0  0  0  0
   38.1104  -18.6822   36.3466 N   0  0  0  0  0  0  0  0  0  0  0  0
   38.4142  -19.9604   36.8729 C   0  0  0  0  0  0  0  0  0  0  0  0
   37.7620  -20.9657   36.4779 O   0  0  0  0  0  0  0  0  0  0  0  0
   38.6176  -17.8257   36.6620 H   0  0  0  0  0  0  0  0  0  0  0  0
   39.4728  -20.1644   37.8692 C   0  0  0  0  0  0  0  0  0  0  0  0
   40.7429  -19.6746   37.6914 C   0  0  0  0  0  0  0  0  0  0  0  0
   41.7205  -19.9078   38.6108 C   0  0  0  0  0  0  0  0  0  0  0  0
   41.4892  -20.6576   39.7769 C   0  0  0  0  0  0  0  0  0  0  0  0
   40.2160  -21.1631   39.9723 C   0  0  0  0  0  0  0  0  0  0  0  0
   39.2619  -20.8982   39.0268 C   0  0  0  0  0  0  0  0  0  0  0  0
   39.9626  -21.9738   41.1833 C   0  0  0  0  0  0  0  0  0  0  0  0
   39.5026  -23.2531   40.7977 F   0  0  0  0  0  0  0  0  0  0  0  0
   39.1237  -21.3916   42.0870 F   0  0  0  0  0  0  0  0  0  0  0  0
   41.1819  -22.2161   41.7912 F   0  0  0  0  0  0  0  0  0  0  0  0
 22 23  1  0  0  0
 23 24  1  0  0  0
 23 21  1  0  0  0
 21 26  1  0  0  0
 26 27  1  0  0  0
 27 28  2  0  0  0
 27 30  1  0  0  0
 30 31  2  0  0  0
 31 32  1  0  0  0
 32 33  2  0  0  0
 33 34  1  0  0  0
 34 35  2  0  0  0
 34 36  1  0  0  0
 36 37  1  0  0  0
 36 38  1  0  0  0
 36 39  1  0  0  0
 21  1  1  0  0  0
  1  2  2  0  0  0
  2  3  1  0  0  0
  3  4  2  0  0  0
  4  5  1  0  0  0
  4  6  1  0  0  0
  6  7  2  0  0  0
  7 10  1  0  0  0
 10 11  2  0  0  0
 11 12  1  0  0  0
 12 13  2  0  0  0
 13 16  1  0  0  0
 16 17  1  0  0  0
 17 18  1  0  0  0
 17 19  1  0  0  0
 17 20  1  0  0  0
 13 14  1  0  0  0
 14 15  2  0  0  0
 35 30  1  0  0  0
  7  1  1  0  0  0
 15 10  1  0  0  0
 24 25  1  0  0  0
 26 29  1  0  0  0
  5  8  1  0  0  0
  5  9  1  0  0  0
M  END
> <minimizedAffinity>
-6.30261

> <CNNscore>
0.1922434866

> <CNNaffinity>
5.2511334419

> <CNN_VS>
1.0094962120

> <CNNaffinity_variance>
0.2142450511

$$$$
[H]OC(=O)c1c([H])c([H])c(N([H])c2nc(N3C([H])([H])C([H])([H])OC([H])([H])C3([H])[H])nc3c2C([H])([H])C([H])([H])N(c2nc([H])c([H])c([H])c2C(F)(F)F)C3([H])[H])c([H])c1[H]


 38 42  0  0  0  0  0  0  0  0999 V2000
   36.0292  -17.4918   35.4359 C   0  0  0  0  0  0  0  0  0  0  0  0
   35.8635  -16.2464   35.9196 N   0  0  0  0  0  0  0  0  0  0  0  0
   34.6977  -15.5852   35.9642 C   0  0  0  0  0  0  0  0  0  0  0  0
   33.6065  -16.2102   35.4898 N   0  0  0  0  0  0  0  0  0  0  0  0
   33.6559  -17.4465   34.9877 C   0  0  0  0  0  0  0  0  0  0  0  0
   32.4504  -18.1246   34.4399 C   0  0  0  0  0  0  0  0  0  0  0  0
   32.4350  -19.4831   34.8423 N   0  0  0  0  0  0  0  0  0  0  0  0
   33.6527  -20.2756   34.8258 C   0  0  0  0  0  0  0  0  0  0  0  0
   34.8894  -19.4580   34.4371 C   0  0  0  0  0  0  0  0  0  0  0  0
   34.8855  -18.0960   34.9624 C   0  0  0  0  0  0  0  0  0  0  0  0
   31.2723  -20.1470   35.2483 C   0  0  0  0  0  0  0  0  0  0  0  0
   30.2554  -19.3836   35.7700 N   0  0  0  0  0  0  0  0  0  0  0  0
   29.0945  -19.8790   36.1863 C   0  0  0  0  0  0  0  0  0  0  0  0
   28.8710  -21.2319   36.1014 C   0  0  0  0  0  0  0  0  0  0  0  0
   29.8460  -22.0365   35.5919 C   0  0  0  0  0  0  0  0  0  0  0  0
   31.0691  -21.4820   35.1578 C   0  0  0  0  0  0  0  0  0  0  0  0
   32.0715  -22.4032   34.6368 C   0  0  0  0  0  0  0  0  0  0  0  0
   31.4758  -23.6882   34.5106 F   0  0  0  0  0  0  0  0  0  0  0  0
   33.0682  -22.6847   35.6012 F   0  0  0  0  0  0  0  0  0  0  0  0
   32.5782  -22.1355   33.4115 F   0  0  0  0  0  0  0  0  0  0  0  0
   34.5834  -14.2658   36.4895 N   0  0  0  0  0  0  0  0  0  0  0  0
   35.7212  -13.3626   36.4567 C   0  0  0  0  0  0  0  0  0  0  0  0
   35.1343  -11.9540   36.3543 C   0  0  0  0  0  0  0  0  0  0  0  0
   34.3888  -11.7754   37.5330 O   0  0  0  0  0  0  0  0  0  0  0  0
   33.1994  -12.4424   37.3950 C   0  0  0  0  0  0  0  0  0  0  0  0
   33.3078  -13.8804   37.0432 C   0  0  0  0  0  0  0  0  0  0  0  0
   37.2801  -18.1250   35.3522 N   0  0  0  0  0  0  0  0  0  0  0  0
   37.8040  -17.9685   34.4266 H   0  0  0  0  0  0  0  0  0  0  0  0
   38.9915  -20.6071   38.3174 C   0  0  0  0  0  0  0  0  0  0  0  0
   39.8145  -19.8981   37.4808 C   0  0  0  0  0  0  0  0  0  0  0  0
   39.2741  -19.0678   36.5021 C   0  0  0  0  0  0  0  0  0  0  0  0
   37.9299  -18.9125   36.3186 C   0  0  0  0  0  0  0  0  0  0  0  0
   37.1128  -19.6516   37.1913 C   0  0  0  0  0  0  0  0  0  0  0  0
   37.6283  -20.4756   38.1631 C   0  0  0  0  0  0  0  0  0  0  0  0
   38.7514  -21.9339   40.3900 O   0  0  0  0  0  0  0  0  0  0  0  0
   39.5360  -21.4853   39.3526 C   0  0  0  0  0  0  0  0  0  0  0  0
   40.7335  -21.8267   39.2832 O   0  0  0  0  0  0  0  0  0  0  0  0
   38.6302  -22.9425   40.4924 H   0  0  0  0  0  0  0  0  0  0  0  0
 35 36  1  0  0  0
 36 37  2  0  0  0
 36 29  1  0  0  0
 29 30  2  0  0  0
 30 31  1  0  0  0
 31 32  2  0  0  0
 32 27  1  0  0  0
 27  1  1  0  0  0
  1  2  2  0  0  0
  2  3  1  0  0  0
  3  4  2  0  0  0
  4  5  1  0  0  0
  5  6  1  0  0  0
  6  7  1  0  0  0
  7  8  1  0  0  0
  8  9  1  0  0  0
  9 10  1  0  0  0
  7 11  1  0  0  0
 11 12  2  0  0  0
 12 13  1  0  0  0
 13 14  2  0  0  0
 14 15  1  0  0  0
 15 16  2  0  0  0
 16 17  1  0  0  0
 17 18  1  0  0  0
 17 19  1  0  0  0
 17 20  1  0  0  0
  3 21  1  0  0  0
 21 22  1  0  0  0
 22 23  1  0  0  0
 23 24  1  0  0  0
 24 25  1  0  0  0
 25 26  1  0  0  0
 32 33  1  0  0  0
 33 34  2  0  0  0
 34 29  1  0  0  0
 10  1  1  0  0  0
 16 11  1  0  0  0
 26 21  1  0  0  0
 10  5  2  0  0  0
 35 38  1  0  0  0
 27 28  1  0  0  0
M  END
> <minimizedAffinity>
-7.37587

> <CNNscore>
0.3007169068

> <CNNaffinity>
6.2263960838

> <CNN_VS>
1.8723825216

> <CNNaffinity_variance>
0.0346673205

$$$$
[H]OC(=O)c1c([H])c([H])c(N([H])c2nc(N3C([H])([H])C([H])([H])OC([H])([H])C3([H])[H])nc3c2C([H])([H])C([H])([H])N(c2nc([H])c([H])c([H])c2C(F)(F)F)C3([H])[H])c([H])c1[H]


 38 42  0  0  0  0  0  0  0  0999 V2000
   36.3839  -19.2553   37.1127 C   0  0  0  0  0  0  0  0  0  0  0  0
   36.3223  -17.9106   37.0941 N   0  0  0  0  0  0  0  0  0  0  0  0
   35.3760  -17.1905   36.4742 C   0  0  0  0  0  0  0  0  0  0  0  0
   34.4117  -17.8587   35.8185 N   0  0  0  0  0  0  0  0  0  0  0  0
   34.3752  -19.1927   35.7723 C   0  0  0  0  0  0  0  0  0  0  0  0
   33.3207  -19.9280   35.0236 C   0  0  0  0  0  0  0  0  0  0  0  0
   32.8872  -21.0490   35.7741 N   0  0  0  0  0  0  0  0  0  0  0  0
   33.8442  -21.8853   36.4782 C   0  0  0  0  0  0  0  0  0  0  0  0
   35.2794  -21.3558   36.3842 C   0  0  0  0  0  0  0  0  0  0  0  0
   35.3756  -19.8999   36.4308 C   0  0  0  0  0  0  0  0  0  0  0  0
   31.5455  -21.4348   35.8663 C   0  0  0  0  0  0  0  0  0  0  0  0
   31.2810  -22.7091   36.3081 N   0  0  0  0  0  0  0  0  0  0  0  0
   30.0563  -23.2048   36.4525 C   0  0  0  0  0  0  0  0  0  0  0  0
   28.9717  -22.4179   36.1493 C   0  0  0  0  0  0  0  0  0  0  0  0
   29.1764  -21.1452   35.7064 C   0  0  0  0  0  0  0  0  0  0  0  0
   30.4885  -20.6459   35.5626 C   0  0  0  0  0  0  0  0  0  0  0  0
   30.6329  -19.2812   35.0712 C   0  0  0  0  0  0  0  0  0  0  0  0
   29.3354  -18.7171   34.9293 F   0  0  0  0  0  0  0  0  0  0  0  0
   31.0628  -19.2582   33.7230 F   0  0  0  0  0  0  0  0  0  0  0  0
   31.3043  -18.4095   35.8581 F   0  0  0  0  0  0  0  0  0  0  0  0
   35.3623  -15.7659   36.4899 N   0  0  0  0  0  0  0  0  0  0  0  0
   34.1464  -15.0410   36.1620 C   0  0  0  0  0  0  0  0  0  0  0  0
   34.2110  -13.7351   36.9556 C   0  0  0  0  0  0  0  0  0  0  0  0
   35.3428  -13.0589   36.4670 O   0  0  0  0  0  0  0  0  0  0  0  0
   36.4580  -13.6275   37.0252 C   0  0  0  0  0  0  0  0  0  0  0  0
   36.5903  -15.0945   36.8410 C   0  0  0  0  0  0  0  0  0  0  0  0
   37.4274  -19.9697   37.7238 N   0  0  0  0  0  0  0  0  0  0  0  0
   38.3833  -19.8731   37.2416 H   0  0  0  0  0  0  0  0  0  0  0  0
   37.5524  -22.3056   41.2466 C   0  0  0  0  0  0  0  0  0  0  0  0
   36.3493  -22.0999   40.6218 C   0  0  0  0  0  0  0  0  0  0  0  0
   36.2844  -21.3411   39.4559 C   0  0  0  0  0  0  0  0  0  0  0  0
   37.3824  -20.7701   38.8787 C   0  0  0  0  0  0  0  0  0  0  0  0
   38.6002  -20.9990   39.5421 C   0  0  0  0  0  0  0  0  0  0  0  0
   38.6834  -21.7454   40.6933 C   0  0  0  0  0  0  0  0  0  0  0  0
   38.8655  -23.4284   43.0154 O   0  0  0  0  0  0  0  0  0  0  0  0
   37.6452  -23.0988   42.4720 C   0  0  0  0  0  0  0  0  0  0  0  0
   36.5934  -23.4774   43.0249 O   0  0  0  0  0  0  0  0  0  0  0  0
   39.0657  -23.1072   43.9637 H   0  0  0  0  0  0  0  0  0  0  0  0
 35 36  1  0  0  0
 36 37  2  0  0  0
 36 29  1  0  0  0
 29 30  2  0  0  0
 30 31  1  0  0  0
 31 32  2  0  0  0
 32 27  1  0  0  0
 27  1  1  0  0  0
  1  2  2  0  0  0
  2  3  1  0  0  0
  3  4  2  0  0  0
  4  5  1  0  0  0
  5  6  1  0  0  0
  6  7  1  0  0  0
  7  8  1  0  0  0
  8  9  1  0  0  0
  9 10  1  0  0  0
  7 11  1  0  0  0
 11 12  2  0  0  0
 12 13  1  0  0  0
 13 14  2  0  0  0
 14 15  1  0  0  0
 15 16  2  0  0  0
 16 17  1  0  0  0
 17 18  1  0  0  0
 17 19  1  0  0  0
 17 20  1  0  0  0
  3 21  1  0  0  0
 21 22  1  0  0  0
 22 23  1  0  0  0
 23 24  1  0  0  0
 24 25  1  0  0  0
 25 26  1  0  0  0
 32 33  1  0  0  0
 33 34  2  0  0  0
 34 29  1  0  0  0
 10  1  1  0  0  0
 16 11  1  0  0  0
 26 21  1  0  0  0
 10  5  2  0  0  0
 35 38  1  0  0  0
 27 28  1  0  0  0
M  END
> <minimizedAffinity>
-6.37149

> <CNNscore>
0.2509095371

> <CNNaffinity>
5.6831216812

> <CNN_VS>
1.4259494543

> <CNNaffinity_variance>
0.0109625589

$$$$
[H]OC(=O)c1c([H])c([H])c(N([H])c2nc(N3C([H])([H])C([H])([H])OC([H])([H])C3([H])[H])nc3c2C([H])([H])C([H])([H])N(c2nc([H])c([H])c([H])c2C(F)(F)F)C3([H])[H])c([H])c1[H]


 38 42  0  0  0  0  0  0  0  0999 V2000
   35.2865  -18.6593   35.2182 C   0  0  0  0  0  0  0  0  0  0  0  0
   34.9048  -17.4084   35.5371 N   0  0  0  0  0  0  0  0  0  0  0  0
   35.6417  -16.5313   36.2343 C   0  0  0  0  0  0  0  0  0  0  0  0
   36.8570  -16.9275   36.6497 N   0  0  0  0  0  0  0  0  0  0  0  0
   37.3362  -18.1462   36.3889 C   0  0  0  0  0  0  0  0  0  0  0  0
   38.6713  -18.5895   36.8729 C   0  0  0  0  0  0  0  0  0  0  0  0
   39.3344  -19.3233   35.8582 N   0  0  0  0  0  0  0  0  0  0  0  0
   38.6133  -20.2947   35.0536 C   0  0  0  0  0  0  0  0  0  0  0  0
   37.1139  -20.3328   35.3689 C   0  0  0  0  0  0  0  0  0  0  0  0
   36.5389  -19.0232   35.6612 C   0  0  0  0  0  0  0  0  0  0  0  0
   40.6995  -19.1868   35.5840 C   0  0  0  0  0  0  0  0  0  0  0  0
   41.0522  -18.5179   34.4362 N   0  0  0  0  0  0  0  0  0  0  0  0
   42.3083  -18.3071   34.0569 C   0  0  0  0  0  0  0  0  0  0  0  0
   43.3355  -18.7750   34.8402 C   0  0  0  0  0  0  0  0  0  0  0  0
   43.0427  -19.4458   35.9900 C   0  0  0  0  0  0  0  0  0  0  0  0
   41.6991  -19.6549   36.3674 C   0  0  0  0  0  0  0  0  0  0  0  0
   41.4599  -20.3920   37.6020 C   0  0  0  0  0  0  0  0  0  0  0  0
   42.6829  -20.9926   38.0087 F   0  0  0  0  0  0  0  0  0  0  0  0
   40.6788  -21.5495   37.3720 F   0  0  0  0  0  0  0  0  0  0  0  0
   41.0508  -19.6798   38.6768 F   0  0  0  0  0  0  0  0  0  0  0  0
   35.1841  -15.2175   36.5415 N   0  0  0  0  0  0  0  0  0  0  0  0
   36.0726  -14.2631   37.1827 C   0  0  0  0  0  0  0  0  0  0  0  0
   35.6213  -12.8831   36.7019 C   0  0  0  0  0  0  0  0  0  0  0  0
   34.3055  -12.7366   37.1753 O   0  0  0  0  0  0  0  0  0  0  0  0
   33.4722  -13.4578   36.3605 C   0  0  0  0  0  0  0  0  0  0  0  0
   33.8233  -14.8900   36.1906 C   0  0  0  0  0  0  0  0  0  0  0  0
   34.4582  -19.5669   34.5378 N   0  0  0  0  0  0  0  0  0  0  0  0
   34.9352  -20.0981   33.7341 H   0  0  0  0  0  0  0  0  0  0  0  0
   30.4825  -20.6627   35.4733 C   0  0  0  0  0  0  0  0  0  0  0  0
   30.7047  -19.6120   34.6208 C   0  0  0  0  0  0  0  0  0  0  0  0
   32.0050  -19.2379   34.2916 C   0  0  0  0  0  0  0  0  0  0  0  0
   33.1086  -19.8747   34.7829 C   0  0  0  0  0  0  0  0  0  0  0  0
   32.8483  -20.9472   35.6533 C   0  0  0  0  0  0  0  0  0  0  0  0
   31.5719  -21.3307   35.9893 C   0  0  0  0  0  0  0  0  0  0  0  0
   28.5495  -22.1918   35.2760 O   0  0  0  0  0  0  0  0  0  0  0  0
   29.1259  -21.0738   35.8336 C   0  0  0  0  0  0  0  0  0  0  0  0
   28.4904  -20.3914   36.6617 O   0  0  0  0  0  0  0  0  0  0  0  0
   28.2617  -22.9423   35.9057 H   0  0  0  0  0  0  0  0  0  0  0  0
 35 36  1  0  0  0
 36 37  2  0  0  0
 36 29  1  0  0  0
 29 30  2  0  0  0
 30 31  1  0  0  0
 31 32  2  0  0  0
 32 27  1  0  0  0
 27  1  1  0  0  0
  1  2  2  0  0  0
  2  3  1  0  0  0
  3  4  2  0  0  0
  4  5  1  0  0  0
  5  6  1  0  0  0
  6  7  1  0  0  0
  7  8  1  0  0  0
  8  9  1  0  0  0
  9 10  1  0  0  0
  7 11  1  0  0  0
 11 12  2  0  0  0
 12 13  1  0  0  0
 13 14  2  0  0  0
 14 15  1  0  0  0
 15 16  2  0  0  0
 16 17  1  0  0  0
 17 18  1  0  0  0
 17 19  1  0  0  0
 17 20  1  0  0  0
  3 21  1  0  0  0
 21 22  1  0  0  0
 22 23  1  0  0  0
 23 24  1  0  0  0
 24 25  1  0  0  0
 25 26  1  0  0  0
 32 33  1  0  0  0
 33 34  2  0  0  0
 34 29  1  0  0  0
 10  1  1  0  0  0
 16 11  1  0  0  0
 26 21  1  0  0  0
 10  5  2  0  0  0
 35 38  1  0  0  0
 27 28  1  0  0  0
M  END
> <minimizedAffinity>
-7.82395

> <CNNscore>
0.2375693321

> <CNNaffinity>
6.0371460915

> <CNN_VS>
1.4342408180

> <CNNaffinity_variance>
0.1811072528

$$$$
[H]OC(=O)c1c([H])c([H])c(N([H])c2nc(N3C([H])([H])C([H])([H])OC([H])([H])C3([H])[H])nc3c2C([H])([H])C([H])([H])N(c2nc([H])c([H])c([H])c2C(F)(F)F)C3([H])[H])c([H])c1[H]


 38 42  0  0  0  0  0  0  0  0999 V2000
   33.8854  -20.8042   37.2455 C   0  0  0  0  0  0  0  0  0  0  0  0
   32.6212  -21.1275   36.9146 N   0  0  0  0  0  0  0  0  0  0  0  0
   32.0703  -22.3406   37.0672 C   0  0  0  0  0  0  0  0  0  0  0  0
   32.8362  -23.3132   37.5905 N   0  0  0  0  0  0  0  0  0  0  0  0
   34.1037  -23.1031   37.9544 C   0  0  0  0  0  0  0  0  0  0  0  0
   34.9558  -24.1890   38.5092 C   0  0  0  0  0  0  0  0  0  0  0  0
   35.7289  -23.6936   39.5883 N   0  0  0  0  0  0  0  0  0  0  0  0
   36.3623  -22.3884   39.5093 C   0  0  0  0  0  0  0  0  0  0  0  0
   36.0116  -21.6337   38.2222 C   0  0  0  0  0  0  0  0  0  0  0  0
   34.6341  -21.8293   37.7802 C   0  0  0  0  0  0  0  0  0  0  0  0
   35.9527  -24.4177   40.7643 C   0  0  0  0  0  0  0  0  0  0  0  0
   37.1854  -25.0046   40.9229 N   0  0  0  0  0  0  0  0  0  0  0  0
   37.5380  -25.7123   41.9911 C   0  0  0  0  0  0  0  0  0  0  0  0
   36.6357  -25.8833   43.0130 C   0  0  0  0  0  0  0  0  0  0  0  0
   35.3978  -25.3228   42.9079 C   0  0  0  0  0  0  0  0  0  0  0  0
   35.0513  -24.5765   41.7614 C   0  0  0  0  0  0  0  0  0  0  0  0
   33.7060  -24.0175   41.7106 C   0  0  0  0  0  0  0  0  0  0  0  0
   33.0723  -24.2622   42.9598 F   0  0  0  0  0  0  0  0  0  0  0  0
   32.8650  -24.7671   40.8540 F   0  0  0  0  0  0  0  0  0  0  0  0
   33.5992  -22.6819   41.5249 F   0  0  0  0  0  0  0  0  0  0  0  0
   30.7235  -22.6237   36.6986 N   0  0  0  0  0  0  0  0  0  0  0  0
   29.6300  -21.8590   37.2737 C   0  0  0  0  0  0  0  0  0  0  0  0
   28.5270  -21.8446   36.2143 C   0  0  0  0  0  0  0  0  0  0  0  0
   28.1589  -23.1906   36.0427 O   0  0  0  0  0  0  0  0  0  0  0  0
   29.1068  -23.7998   35.2623 C   0  0  0  0  0  0  0  0  0  0  0  0
   30.5056  -23.6850   35.7456 C   0  0  0  0  0  0  0  0  0  0  0  0
   34.4416  -19.5357   37.0126 N   0  0  0  0  0  0  0  0  0  0  0  0
   34.1146  -18.7681   37.6905 H   0  0  0  0  0  0  0  0  0  0  0  0
   37.3878  -18.6026   34.1261 C   0  0  0  0  0  0  0  0  0  0  0  0
   36.1929  -17.9305   34.1049 C   0  0  0  0  0  0  0  0  0  0  0  0
   35.2106  -18.2147   35.0502 C   0  0  0  0  0  0  0  0  0  0  0  0
   35.3704  -19.1535   36.0289 C   0  0  0  0  0  0  0  0  0  0  0  0
   36.6053  -19.8248   36.0246 C   0  0  0  0  0  0  0  0  0  0  0  0
   37.5863  -19.5574   35.0998 C   0  0  0  0  0  0  0  0  0  0  0  0
   39.4998  -19.1752   32.9750 O   0  0  0  0  0  0  0  0  0  0  0  0
   38.4342  -18.3213   33.1437 C   0  0  0  0  0  0  0  0  0  0  0  0
   38.3485  -17.2867   32.4527 O   0  0  0  0  0  0  0  0  0  0  0  0
   39.6317  -19.5942   32.0532 H   0  0  0  0  0  0  0  0  0  0  0  0
 35 36  1  0  0  0
 36 37  2  0  0  0
 36 29  1  0  0  0
 29 30  2  0  0  0
 30 31  1  0  0  0
 31 32  2  0  0  0
 32 27  1  0  0  0
 27  1  1  0  0  0
  1  2  2  0  0  0
  2  3  1  0  0  0
  3  4  2  0  0  0
  4  5  1  0  0  0
  5  6  1  0  0  0
  6  7  1  0  0  0
  7  8  1  0  0  0
  8  9  1  0  0  0
  9 10  1  0  0  0
  7 11  1  0  0  0
 11 12  2  0  0  0
 12 13  1  0  0  0
 13 14  2  0  0  0
 14 15  1  0  0  0
 15 16  2  0  0  0
 16 17  1  0  0  0
 17 18  1  0  0  0
 17 19  1  0  0  0
 17 20  1  0  0  0
  3 21  1  0  0  0
 21 22  1  0  0  0
 22 23  1  0  0  0
 23 24  1  0  0  0
 24 25  1  0  0  0
 25 26  1  0  0  0
 32 33  1  0  0  0
 33 34  2  0  0  0
 34 29  1  0  0  0
 10  1  1  0  0  0
 16 11  1  0  0  0
 26 21  1  0  0  0
 10  5  2  0  0  0
 35 38  1  0  0  0
 27 28  1  0  0  0
M  END
> <minimizedAffinity>
-3.53972

> <CNNscore>
0.2281757891

> <CNNaffinity>
5.2039494514

> <CNN_VS>
1.1874152422

> <CNNaffinity_variance>
0.0772806332

$$$$
[H]OC(=O)c1c([H])c([H])c(N([H])c2nc(N3C([H])([H])C([H])([H])OC([H])([H])C3([H])[H])nc3c2C([H])([H])C([H])([H])N(c2nc([H])c([H])c([H])c2C(F)(F)F)C3([H])[H])c([H])c1[H]


 38 42  0  0  0  0  0  0  0  0999 V2000
   36.8463  -17.4735   36.2696 C   0  0  0  0  0  0  0  0  0  0  0  0
   35.5979  -17.7495   35.8479 N   0  0  0  0  0  0  0  0  0  0  0  0
   35.2106  -18.9051   35.2887 C   0  0  0  0  0  0  0  0  0  0  0  0
   36.1376  -19.8660   35.1344 N   0  0  0  0  0  0  0  0  0  0  0  0
   37.4059  -19.6999   35.5176 C   0  0  0  0  0  0  0  0  0  0  0  0
   38.4345  -20.7565   35.3214 C   0  0  0  0  0  0  0  0  0  0  0  0
   39.2640  -20.8427   36.4670 N   0  0  0  0  0  0  0  0  0  0  0  0
   39.7305  -19.6409   37.1371 C   0  0  0  0  0  0  0  0  0  0  0  0
   39.1510  -18.3583   36.5305 C   0  0  0  0  0  0  0  0  0  0  0  0
   37.7635  -18.4860   36.0948 C   0  0  0  0  0  0  0  0  0  0  0  0
   39.7020  -22.0581   37.0040 C   0  0  0  0  0  0  0  0  0  0  0  0
   40.9037  -22.5529   36.5563 N   0  0  0  0  0  0  0  0  0  0  0  0
   41.4441  -23.6888   36.9852 C   0  0  0  0  0  0  0  0  0  0  0  0
   40.7834  -24.4329   37.9325 C   0  0  0  0  0  0  0  0  0  0  0  0
   39.5871  -23.9889   38.4115 C   0  0  0  0  0  0  0  0  0  0  0  0
   39.0375  -22.7787   37.9371 C   0  0  0  0  0  0  0  0  0  0  0  0
   37.7486  -22.3720   38.4834 C   0  0  0  0  0  0  0  0  0  0  0  0
   37.3211  -23.3645   39.4076 F   0  0  0  0  0  0  0  0  0  0  0  0
   36.7203  -22.4732   37.5164 F   0  0  0  0  0  0  0  0  0  0  0  0
   37.7114  -21.2128   39.1796 F   0  0  0  0  0  0  0  0  0  0  0  0
   33.8719  -19.1404   34.8617 N   0  0  0  0  0  0  0  0  0  0  0  0
   33.5950  -20.1171   33.8221 C   0  0  0  0  0  0  0  0  0  0  0  0
   32.1972  -20.6612   34.1208 C   0  0  0  0  0  0  0  0  0  0  0  0
   31.3363  -19.5552   34.0090 O   0  0  0  0  0  0  0  0  0  0  0  0
   31.4503  -18.8040   35.1497 C   0  0  0  0  0  0  0  0  0  0  0  0
   32.8278  -18.3765   35.5008 C   0  0  0  0  0  0  0  0  0  0  0  0
   37.2233  -16.2267   36.7949 N   0  0  0  0  0  0  0  0  0  0  0  0
   38.2357  -16.1753   37.1529 H   0  0  0  0  0  0  0  0  0  0  0  0
   34.7089  -12.8465   37.1610 C   0  0  0  0  0  0  0  0  0  0  0  0
   36.0615  -12.6640   37.0303 C   0  0  0  0  0  0  0  0  0  0  0  0
   36.9087  -13.7615   36.9000 C   0  0  0  0  0  0  0  0  0  0  0  0
   36.4592  -15.0509   36.8951 C   0  0  0  0  0  0  0  0  0  0  0  0
   35.0687  -15.2053   37.0304 C   0  0  0  0  0  0  0  0  0  0  0  0
   34.2174  -14.1340   37.1598 C   0  0  0  0  0  0  0  0  0  0  0  0
   34.1976  -10.4353   36.9653 O   0  0  0  0  0  0  0  0  0  0  0  0
   33.7995  -11.7092   37.2993 C   0  0  0  0  0  0  0  0  0  0  0  0
   32.6459  -11.9100   37.7283 O   0  0  0  0  0  0  0  0  0  0  0  0
   33.6749   -9.9504   36.2345 H   0  0  0  0  0  0  0  0  0  0  0  0
 35 36  1  0  0  0
 36 37  2  0  0  0
 36 29  1  0  0  0
 29 30  2  0  0  0
 30 31  1  0  0  0
 31 32  2  0  0  0
 32 27  1  0  0  0
 27  1  1  0  0  0
  1  2  2  0  0  0
  2  3  1  0  0  0
  3  4  2  0  0  0
  4  5  1  0  0  0
  5  6  1  0  0  0
  6  7  1  0  0  0
  7  8  1  0  0  0
  8  9  1  0  0  0
  9 10  1  0  0  0
  7 11  1  0  0  0
 11 12  2  0  0  0
 12 13  1  0  0  0
 13 14  2  0  0  0
 14 15  1  0  0  0
 15 16  2  0  0  0
 16 17  1  0  0  0
 17 18  1  0  0  0
 17 19  1  0  0  0
 17 20  1  0  0  0
  3 21  1  0  0  0
 21 22  1  0  0  0
 22 23  1  0  0  0
 23 24  1  0  0  0
 24 25  1  0  0  0
 25 26  1  0  0  0
 32 33  1  0  0  0
 33 34  2  0  0  0
 34 29  1  0  0  0
 10  1  1  0  0  0
 16 11  1  0  0  0
 26 21  1  0  0  0
 10  5  2  0  0  0
 35 38  1  0  0  0
 27 28  1  0  0  0
M  END
> <minimizedAffinity>
-7.13284

> <CNNscore>
0.2277934104

> <CNNaffinity>
6.0110688210

> <CNN_VS>
1.3692818880

> <CNNaffinity_variance>
0.0120085180

$$$$
[H]OC(=O)c1c([H])c([H])c(N([H])c2nc(N3C([H])([H])C([H])([H])OC([H])([H])C3([H])[H])nc3c2C([H])([H])C([H])([H])N(c2nc([H])c([H])c([H])c2C(F)(F)F)C3([H])[H])c([H])c1[H]


 38 42  0  0  0  0  0  0  0  0999 V2000
   36.2657  -19.6094   37.6026 C   0  0  0  0  0  0  0  0  0  0  0  0
   36.3047  -18.2672   37.5069 N   0  0  0  0  0  0  0  0  0  0  0  0
   35.5028  -17.5259   36.7287 C   0  0  0  0  0  0  0  0  0  0  0  0
   34.5871  -18.1685   35.9837 N   0  0  0  0  0  0  0  0  0  0  0  0
   34.4604  -19.4977   36.0015 C   0  0  0  0  0  0  0  0  0  0  0  0
   33.4629  -20.2068   35.1558 C   0  0  0  0  0  0  0  0  0  0  0  0
   32.8546  -21.2498   35.8972 N   0  0  0  0  0  0  0  0  0  0  0  0
   33.6477  -22.1024   36.7661 C   0  0  0  0  0  0  0  0  0  0  0  0
   35.1173  -21.6740   36.8401 C   0  0  0  0  0  0  0  0  0  0  0  0
   35.3118  -20.2272   36.8245 C   0  0  0  0  0  0  0  0  0  0  0  0
   31.4880  -21.5414   35.8267 C   0  0  0  0  0  0  0  0  0  0  0  0
   31.0899  -22.8061   36.1888 N   0  0  0  0  0  0  0  0  0  0  0  0
   29.8261  -23.2171   36.1790 C   0  0  0  0  0  0  0  0  0  0  0  0
   28.8381  -22.3462   35.7879 C   0  0  0  0  0  0  0  0  0  0  0  0
   29.1769  -21.0788   35.4181 C   0  0  0  0  0  0  0  0  0  0  0  0
   30.5276  -20.6705   35.4383 C   0  0  0  0  0  0  0  0  0  0  0  0
   30.8183  -19.3056   35.0170 C   0  0  0  0  0  0  0  0  0  0  0  0
   29.5875  -18.6543   34.7293 F   0  0  0  0  0  0  0  0  0  0  0  0
   31.4210  -19.2752   33.7369 F   0  0  0  0  0  0  0  0  0  0  0  0
   31.4336  -18.5007   35.9134 F   0  0  0  0  0  0  0  0  0  0  0  0
   35.5903  -16.1050   36.6694 N   0  0  0  0  0  0  0  0  0  0  0  0
   34.4890  -15.3247   36.1312 C   0  0  0  0  0  0  0  0  0  0  0  0
   34.5350  -13.9797   36.8579 C   0  0  0  0  0  0  0  0  0  0  0  0
   35.7706  -13.4089   36.5055 O   0  0  0  0  0  0  0  0  0  0  0  0
   36.7513  -14.0130   37.2485 C   0  0  0  0  0  0  0  0  0  0  0  0
   36.8015  -15.4939   37.1608 C   0  0  0  0  0  0  0  0  0  0  0  0
   37.1654  -20.3518   38.3850 N   0  0  0  0  0  0  0  0  0  0  0  0
   36.7160  -20.8946   39.1968 H   0  0  0  0  0  0  0  0  0  0  0  0
   41.3473  -20.9278   38.1352 C   0  0  0  0  0  0  0  0  0  0  0  0
   40.7052  -20.2402   37.1377 C   0  0  0  0  0  0  0  0  0  0  0  0
   39.3299  -20.0309   37.2022 C   0  0  0  0  0  0  0  0  0  0  0  0
   38.5566  -20.4844   38.2322 C   0  0  0  0  0  0  0  0  0  0  0  0
   39.2434  -21.1849   39.2389 C   0  0  0  0  0  0  0  0  0  0  0  0
   40.6000  -21.4007   39.1922 C   0  0  0  0  0  0  0  0  0  0  0  0
   43.4479  -21.7635   39.1364 O   0  0  0  0  0  0  0  0  0  0  0  0
   42.7906  -21.1600   38.0892 C   0  0  0  0  0  0  0  0  0  0  0  0
   43.4259  -20.8005   37.0780 O   0  0  0  0  0  0  0  0  0  0  0  0
   43.9429  -22.6363   38.9471 H   0  0  0  0  0  0  0  0  0  0  0  0
 35 36  1  0  0  0
 36 37  2  0  0  0
 36 29  1  0  0  0
 29 30  2  0  0  0
 30 31  1  0  0  0
 31 32  2  0  0  0
 32 27  1  0  0  0
 27  1  1  0  0  0
  1  2  2  0  0  0
  2  3  1  0  0  0
  3  4  2  0  0  0
  4  5  1  0  0  0
  5  6  1  0  0  0
  6  7  1  0  0  0
  7  8  1  0  0  0
  8  9  1  0  0  0
  9 10  1  0  0  0
  7 11  1  0  0  0
 11 12  2  0  0  0
 12 13  1  0  0  0
 13 14  2  0  0  0
 14 15  1  0  0  0
 15 16  2  0  0  0
 16 17  1  0  0  0
 17 18  1  0  0  0
 17 19  1  0  0  0
 17 20  1  0  0  0
  3 21  1  0  0  0
 21 22  1  0  0  0
 22 23  1  0  0  0
 23 24  1  0  0  0
 24 25  1  0  0  0
 25 26  1  0  0  0
 32 33  1  0  0  0
 33 34  2  0  0  0
 34 29  1  0  0  0
 10  1  1  0  0  0
 16 11  1  0  0  0
 26 21  1  0  0  0
 10  5  2  0  0  0
 35 38  1  0  0  0
 27 28  1  0  0  0
M  END
> <minimizedAffinity>
-6.96185

> <CNNscore>
0.2033817619

> <CNNaffinity>
5.5053834915

> <CNN_VS>
1.1196945906

> <CNNaffinity_variance>
0.2127820253

$$$$
[H]OC(=O)c1c([H])c([H])c(N([H])c2nc(N3C([H])([H])C([H])([H])OC([H])([H])C3([H])[H])nc3c2C([H])([H])C([H])([H])N(c2nc([H])c([H])c([H])c2C(F)(F)F)C3([H])[H])c([H])c1[H]


 38 42  0  0  0  0  0  0  0  0999 V2000
   39.3126  -20.9203   37.1881 C   0  0  0  0  0  0  0  0  0  0  0  0
   39.4249  -21.5233   38.3864 N   0  0  0  0  0  0  0  0  0  0  0  0
   38.5003  -21.4883   39.3571 C   0  0  0  0  0  0  0  0  0  0  0  0
   37.3716  -20.7980   39.1201 N   0  0  0  0  0  0  0  0  0  0  0  0
   37.1551  -20.1620   37.9661 C   0  0  0  0  0  0  0  0  0  0  0  0
   35.9156  -19.3776   37.7178 C   0  0  0  0  0  0  0  0  0  0  0  0
   35.4541  -19.6076   36.3980 N   0  0  0  0  0  0  0  0  0  0  0  0
   36.3864  -19.6616   35.2850 C   0  0  0  0  0  0  0  0  0  0  0  0
   37.8491  -19.5461   35.7278 C   0  0  0  0  0  0  0  0  0  0  0  0
   38.1401  -20.2263   36.9863 C   0  0  0  0  0  0  0  0  0  0  0  0
   34.1016  -19.7686   36.0783 C   0  0  0  0  0  0  0  0  0  0  0  0
   33.4432  -20.8423   36.6288 N   0  0  0  0  0  0  0  0  0  0  0  0
   32.1588  -21.1116   36.4192 C   0  0  0  0  0  0  0  0  0  0  0  0
   31.4212  -20.2837   35.6079 C   0  0  0  0  0  0  0  0  0  0  0  0
   32.0241  -19.2037   35.0355 C   0  0  0  0  0  0  0  0  0  0  0  0
   33.3900  -18.9428   35.2761 C   0  0  0  0  0  0  0  0  0  0  0  0
   33.9724  -17.7784   34.6205 C   0  0  0  0  0  0  0  0  0  0  0  0
   34.5752  -16.9598   35.6147 F   0  0  0  0  0  0  0  0  0  0  0  0
   32.9726  -16.8968   34.1451 F   0  0  0  0  0  0  0  0  0  0  0  0
   34.9541  -18.0049   33.7179 F   0  0  0  0  0  0  0  0  0  0  0  0
   38.6749  -22.1483   40.6076 N   0  0  0  0  0  0  0  0  0  0  0  0
   38.4084  -21.4452   41.8510 C   0  0  0  0  0  0  0  0  0  0  0  0
   37.9556  -22.5138   42.8471 C   0  0  0  0  0  0  0  0  0  0  0  0
   39.0545  -23.3795   42.9885 O   0  0  0  0  0  0  0  0  0  0  0  0
   39.0962  -24.2041   41.8945 C   0  0  0  0  0  0  0  0  0  0  0  0
   39.1195  -23.5207   40.5770 C   0  0  0  0  0  0  0  0  0  0  0  0
   40.3321  -20.9319   36.2220 N   0  0  0  0  0  0  0  0  0  0  0  0
   41.0418  -20.1287   36.3053 H   0  0  0  0  0  0  0  0  0  0  0  0
   41.2391  -23.6345   33.0987 C   0  0  0  0  0  0  0  0  0  0  0  0
   40.0250  -23.7233   33.7297 C   0  0  0  0  0  0  0  0  0  0  0  0
   39.7006  -22.8391   34.7555 C   0  0  0  0  0  0  0  0  0  0  0  0
   40.5464  -21.8571   35.1855 C   0  0  0  0  0  0  0  0  0  0  0  0
   41.7823  -21.7913   34.5194 C   0  0  0  0  0  0  0  0  0  0  0  0
   42.1196  -22.6552   33.5049 C   0  0  0  0  0  0  0  0  0  0  0  0
   40.9924  -25.7789   31.8927 O   0  0  0  0  0  0  0  0  0  0  0  0
   41.6021  -24.5519   32.0190 C   0  0  0  0  0  0  0  0  0  0  0  0
   42.4807  -24.2052   31.2046 O   0  0  0  0  0  0  0  0  0  0  0  0
   40.4850  -25.9706   31.0277 H   0  0  0  0  0  0  0  0  0  0  0  0
 35 36  1  0  0  0
 36 37  2  0  0  0
 36 29  1  0  0  0
 29 30  2  0  0  0
 30 31  1  0  0  0
 31 32  2  0  0  0
 32 27  1  0  0  0
 27  1  1  0  0  0
  1  2  2  0  0  0
  2  3  1  0  0  0
  3  4  2  0  0  0
  4  5  1  0  0  0
  5  6  1  0  0  0
  6  7  1  0  0  0
  7  8  1  0  0  0
  8  9  1  0  0  0
  9 10  1  0  0  0
  7 11  1  0  0  0
 11 12  2  0  0  0
 12 13  1  0  0  0
 13 14  2  0  0  0
 14 15  1  0  0  0
 15 16  2  0  0  0
 16 17  1  0  0  0
 17 18  1  0  0  0
 17 19  1  0  0  0
 17 20  1  0  0  0
  3 21  1  0  0  0
 21 22  1  0  0  0
 22 23  1  0  0  0
 23 24  1  0  0  0
 24 25  1  0  0  0
 25 26  1  0  0  0
 32 33  1  0  0  0
 33 34  2  0  0  0
 34 29  1  0  0  0
 10  1  1  0  0  0
 16 11  1  0  0  0
 26 21  1  0  0  0
 10  5  2  0  0  0
 35 38  1  0  0  0
 27 28  1  0  0  0
M  END
> <minimizedAffinity>
-4.90804

> <CNNscore>
0.1998335570

> <CNNaffinity>
5.5206632614

> <CNN_VS>
1.1032137871

> <CNNaffinity_variance>
0.0241589062

$$$$
[H]OC(=O)c1c([H])c([H])c(N([H])c2nc(N3C([H])([H])C([H])([H])OC([H])([H])C3([H])[H])nc3c2C([H])([H])C([H])([H])N(c2nc([H])c([H])c([H])c2C(F)(F)F)C3([H])[H])c([H])c1[H]


 38 42  0  0  0  0  0  0  0  0999 V2000
   37.9371  -21.0811   36.2252 C   0  0  0  0  0  0  0  0  0  0  0  0
   37.0527  -22.0786   36.4132 N   0  0  0  0  0  0  0  0  0  0  0  0
   35.8747  -21.9564   37.0422 C   0  0  0  0  0  0  0  0  0  0  0  0
   35.5469  -20.7457   37.5249 N   0  0  0  0  0  0  0  0  0  0  0  0
   36.3490  -19.6861   37.3944 C   0  0  0  0  0  0  0  0  0  0  0  0
   35.9938  -18.3538   37.9529 C   0  0  0  0  0  0  0  0  0  0  0  0
   36.3389  -17.3351   37.0305 N   0  0  0  0  0  0  0  0  0  0  0  0
   37.5961  -17.3870   36.3040 C   0  0  0  0  0  0  0  0  0  0  0  0
   38.3918  -18.6670   36.5825 C   0  0  0  0  0  0  0  0  0  0  0  0
   37.5606  -19.8576   36.7334 C   0  0  0  0  0  0  0  0  0  0  0  0
   35.5271  -16.2235   36.7801 C   0  0  0  0  0  0  0  0  0  0  0  0
   35.8354  -15.0533   37.4318 N   0  0  0  0  0  0  0  0  0  0  0  0
   35.1572  -13.9202   37.2822 C   0  0  0  0  0  0  0  0  0  0  0  0
   34.0790  -13.8884   36.4313 C   0  0  0  0  0  0  0  0  0  0  0  0
   33.7286  -15.0212   35.7592 C   0  0  0  0  0  0  0  0  0  0  0  0
   34.4675  -16.2102   35.9382 C   0  0  0  0  0  0  0  0  0  0  0  0
   34.0279  -17.3866   35.1980 C   0  0  0  0  0  0  0  0  0  0  0  0
   35.1221  -17.8636   34.4252 F   0  0  0  0  0  0  0  0  0  0  0  0
   33.1250  -17.0415   34.1644 F   0  0  0  0  0  0  0  0  0  0  0  0
   33.6241  -18.4558   35.9216 F   0  0  0  0  0  0  0  0  0  0  0  0
   34.9775  -23.0503   37.2105 N   0  0  0  0  0  0  0  0  0  0  0  0
   33.5921  -22.8120   37.5785 C   0  0  0  0  0  0  0  0  0  0  0  0
   32.7924  -23.9618   36.9641 C   0  0  0  0  0  0  0  0  0  0  0  0
   33.2803  -25.1262   37.5828 O   0  0  0  0  0  0  0  0  0  0  0  0
   34.4786  -25.4520   37.0028 C   0  0  0  0  0  0  0  0  0  0  0  0
   35.5030  -24.3777   37.0008 C   0  0  0  0  0  0  0  0  0  0  0  0
   39.1878  -21.2665   35.6136 N   0  0  0  0  0  0  0  0  0  0  0  0
   39.2762  -20.8424   34.6297 H   0  0  0  0  0  0  0  0  0  0  0  0
   42.5371  -23.4359   37.0127 C   0  0  0  0  0  0  0  0  0  0  0  0
   42.4701  -22.0858   37.2424 C   0  0  0  0  0  0  0  0  0  0  0  0
   41.3732  -21.3517   36.7984 C   0  0  0  0  0  0  0  0  0  0  0  0
   40.3262  -21.9133   36.1254 C   0  0  0  0  0  0  0  0  0  0  0  0
   40.4238  -23.2982   35.9057 C   0  0  0  0  0  0  0  0  0  0  0  0
   41.4984  -24.0388   36.3369 C   0  0  0  0  0  0  0  0  0  0  0  0
   44.6220  -23.6931   38.3169 O   0  0  0  0  0  0  0  0  0  0  0  0
   43.6790  -24.2276   37.4695 C   0  0  0  0  0  0  0  0  0  0  0  0
   43.7893  -25.4063   37.0775 O   0  0  0  0  0  0  0  0  0  0  0  0
   44.7574  -24.1447   39.2226 H   0  0  0  0  0  0  0  0  0  0  0  0
 35 36  1  0  0  0
 36 37  2  0  0  0
 36 29  1  0  0  0
 29 30  2  0  0  0
 30 31  1  0  0  0
 31 32  2  0  0  0
 32 27  1  0  0  0
 27  1  1  0  0  0
  1  2  2  0  0  0
  2  3  1  0  0  0
  3  4  2  0  0  0
  4  5  1  0  0  0
  5  6  1  0  0  0
  6  7  1  0  0  0
  7  8  1  0  0  0
  8  9  1  0  0  0
  9 10  1  0  0  0
  7 11  1  0  0  0
 11 12  2  0  0  0
 12 13  1  0  0  0
 13 14  2  0  0  0
 14 15  1  0  0  0
 15 16  2  0  0  0
 16 17  1  0  0  0
 17 18  1  0  0  0
 17 19  1  0  0  0
 17 20  1  0  0  0
  3 21  1  0  0  0
 21 22  1  0  0  0
 22 23  1  0  0  0
 23 24  1  0  0  0
 24 25  1  0  0  0
 25 26  1  0  0  0
 32 33  1  0  0  0
 33 34  2  0  0  0
 34 29  1  0  0  0
 10  1  1  0  0  0
 16 11  1  0  0  0
 26 21  1  0  0  0
 10  5  2  0  0  0
 35 38  1  0  0  0
 27 28  1  0  0  0
M  END
> <minimizedAffinity>
-4.97748

> <CNNscore>
0.1924162954

> <CNNaffinity>
5.6745586395

> <CNN_VS>
1.0918775797

> <CNNaffinity_variance>
0.1661652923

$$$$
[H]OC(=O)c1c([H])c([H])c(N([H])c2nc(N3C([H])([H])C([H])([H])OC([H])([H])C3([H])[H])nc3c2C([H])([H])C([H])([H])N(c2nc([H])c([H])c([H])c2C(F)(F)F)C3([H])[H])c([H])c1[H]


 38 42  0  0  0  0  0  0  0  0999 V2000
   35.5448  -17.2719   36.0860 C   0  0  0  0  0  0  0  0  0  0  0  0
   34.3328  -17.8227   35.8857 N   0  0  0  0  0  0  0  0  0  0  0  0
   34.1161  -19.0707   35.4455 C   0  0  0  0  0  0  0  0  0  0  0  0
   35.1895  -19.8353   35.1817 N   0  0  0  0  0  0  0  0  0  0  0  0
   36.4379  -19.3906   35.3454 C   0  0  0  0  0  0  0  0  0  0  0  0
   37.6233  -20.2315   35.0276 C   0  0  0  0  0  0  0  0  0  0  0  0
   38.6159  -20.0647   36.0248 N   0  0  0  0  0  0  0  0  0  0  0  0
   38.9163  -18.7476   36.5595 C   0  0  0  0  0  0  0  0  0  0  0  0
   37.9960  -17.6555   36.0032 C   0  0  0  0  0  0  0  0  0  0  0  0
   36.6165  -18.0904   35.8057 C   0  0  0  0  0  0  0  0  0  0  0  0
   39.3749  -21.1246   36.5328 C   0  0  0  0  0  0  0  0  0  0  0  0
   38.8666  -21.8091   37.6109 N   0  0  0  0  0  0  0  0  0  0  0  0
   39.4746  -22.8401   38.1885 C   0  0  0  0  0  0  0  0  0  0  0  0
   40.6847  -23.2684   37.6989 C   0  0  0  0  0  0  0  0  0  0  0  0
   41.2352  -22.6253   36.6307 C   0  0  0  0  0  0  0  0  0  0  0  0
   40.5666  -21.5330   36.0379 C   0  0  0  0  0  0  0  0  0  0  0  0
   41.2202  -20.8842   34.9079 C   0  0  0  0  0  0  0  0  0  0  0  0
   41.5854  -19.5666   35.2985 F   0  0  0  0  0  0  0  0  0  0  0  0
   40.2990  -20.5909   33.8744 F   0  0  0  0  0  0  0  0  0  0  0  0
   42.3671  -21.4408   34.4555 F   0  0  0  0  0  0  0  0  0  0  0  0
   32.8075  -19.6003   35.2531 N   0  0  0  0  0  0  0  0  0  0  0  0
   32.6082  -21.0341   35.1277 C   0  0  0  0  0  0  0  0  0  0  0  0
   31.2089  -21.3118   35.6794 C   0  0  0  0  0  0  0  0  0  0  0  0
   30.3306  -20.6097   34.8352 O   0  0  0  0  0  0  0  0  0  0  0  0
   30.3672  -19.2844   35.1827 C   0  0  0  0  0  0  0  0  0  0  0  0
   31.7141  -18.6607   35.1910 C   0  0  0  0  0  0  0  0  0  0  0  0
   35.7273  -15.9394   36.4907 N   0  0  0  0  0  0  0  0  0  0  0  0
   36.7435  -15.6719   36.7176 H   0  0  0  0  0  0  0  0  0  0  0  0
   32.9867  -12.7723   37.0743 C   0  0  0  0  0  0  0  0  0  0  0  0
   32.8310  -13.6021   35.9940 C   0  0  0  0  0  0  0  0  0  0  0  0
   33.7162  -14.6568   35.7855 C   0  0  0  0  0  0  0  0  0  0  0  0
   34.7646  -14.9230   36.6189 C   0  0  0  0  0  0  0  0  0  0  0  0
   34.8975  -14.0555   37.7168 C   0  0  0  0  0  0  0  0  0  0  0  0
   34.0335  -13.0098   37.9387 C   0  0  0  0  0  0  0  0  0  0  0  0
   32.5122  -10.4791   37.8680 O   0  0  0  0  0  0  0  0  0  0  0  0
   32.0698  -11.6582   37.3138 C   0  0  0  0  0  0  0  0  0  0  0  0
   30.8685  -11.7909   37.0064 O   0  0  0  0  0  0  0  0  0  0  0  0
   32.3979   -9.6246   37.3209 H   0  0  0  0  0  0  0  0  0  0  0  0
 35 36  1  0  0  0
 36 37  2  0  0  0
 36 29  1  0  0  0
 29 30  2  0  0  0
 30 31  1  0  0  0
 31 32  2  0  0  0
 32 27  1  0  0  0
 27  1  1  0  0  0
  1  2  2  0  0  0
  2  3  1  0  0  0
  3  4  2  0  0  0
  4  5  1  0  0  0
  5  6  1  0  0  0
  6  7  1  0  0  0
  7  8  1  0  0  0
  8  9  1  0  0  0
  9 10  1  0  0  0
  7 11  1  0  0  0
 11 12  2  0  0  0
 12 13  1  0  0  0
 13 14  2  0  0  0
 14 15  1  0  0  0
 15 16  2  0  0  0
 16 17  1  0  0  0
 17 18  1  0  0  0
 17 19  1  0  0  0
 17 20  1  0  0  0
  3 21  1  0  0  0
 21 22  1  0  0  0
 22 23  1  0  0  0
 23 24  1  0  0  0
 24 25  1  0  0  0
 25 26  1  0  0  0
 32 33  1  0  0  0
 33 34  2  0  0  0
 34 29  1  0  0  0
 10  1  1  0  0  0
 16 11  1  0  0  0
 26 21  1  0  0  0
 10  5  2  0  0  0
 35 38  1  0  0  0
 27 28  1  0  0  0
M  END
> <minimizedAffinity>
-6.75589

> <CNNscore>
0.1660985202

> <CNNaffinity>
5.9910082817

> <CNN_VS>
0.9950976372

> <CNNaffinity_variance>
0.1116610169

$$$$
