[H]OC(=O)c1c([H])c([H])c(C([H])([H])OC([H])([H])C2(c3c([H])c([H])c(C#N)c([H])c3[H])C([H])([H])C([H])(O[H])C2([H])[H])c([H])c1C([H])([H])[H]


 28 30  0  0  0  0  0  0  0  0999 V2000
   34.1968  -17.8555   35.7708 C   0  0  0  0  0  0  0  0  0  0  0  0
   35.4298  -17.0602   36.1772 C   0  0  0  0  0  0  0  0  0  0  0  0
   36.5342  -17.0914   35.1375 C   0  0  0  0  0  0  0  0  0  0  0  0
   37.2071  -18.1719   35.9797 C   0  0  0  0  0  0  0  0  0  0  0  0
   38.5450  -17.9283   36.2413 O   0  0  0  0  0  0  0  0  0  0  0  0
   36.3469  -17.7129   37.1512 C   0  0  0  0  0  0  0  0  0  0  0  0
   38.9427  -18.8148   36.4793 H   0  0  0  0  0  0  0  0  0  0  0  0
   34.9991  -15.6749   36.4683 C   0  0  0  0  0  0  0  0  0  0  0  0
   33.8008  -15.1678   36.0506 C   0  0  0  0  0  0  0  0  0  0  0  0
   33.4626  -13.8471   36.3522 C   0  0  0  0  0  0  0  0  0  0  0  0
   34.3105  -13.0187   37.0715 C   0  0  0  0  0  0  0  0  0  0  0  0
   35.5176  -13.5595   37.4820 C   0  0  0  0  0  0  0  0  0  0  0  0
   35.8462  -14.8627   37.1812 C   0  0  0  0  0  0  0  0  0  0  0  0
   33.9567  -11.6519   37.3782 C   0  0  0  0  0  0  0  0  0  0  0  0
   33.6721  -10.5369   37.6055 N   0  0  0  0  0  0  0  0  0  0  0  0
   34.0790  -18.0464   34.4248 O   0  0  0  0  0  0  0  0  0  0  0  0
   32.7995  -18.2491   34.0082 C   0  0  0  0  0  0  0  0  0  0  0  0
   29.0757  -20.7293   36.2196 C   0  0  0  0  0  0  0  0  0  0  0  0
   30.3789  -20.7695   35.4662 C   0  0  0  0  0  0  0  0  0  0  0  0
   30.9780  -19.5710   35.0887 C   0  0  0  0  0  0  0  0  0  0  0  0
   32.1786  -19.5347   34.3976 C   0  0  0  0  0  0  0  0  0  0  0  0
   32.7331  -20.7642   34.1127 C   0  0  0  0  0  0  0  0  0  0  0  0
   32.1524  -21.9494   34.4789 C   0  0  0  0  0  0  0  0  0  0  0  0
   30.9337  -21.9909   35.1801 C   0  0  0  0  0  0  0  0  0  0  0  0
   30.3655  -23.2781   35.5406 C   0  0  0  0  0  0  0  0  0  0  0  0
   29.3326  -23.8606   34.8329 O   0  0  0  0  0  0  0  0  0  0  0  0
   30.8068  -23.9011   36.5190 O   0  0  0  0  0  0  0  0  0  0  0  0
   28.3660  -23.8124   35.1663 H   0  0  0  0  0  0  0  0  0  0  0  0
 18 19  1  0  0  0
 19 20  2  0  0  0
 20 21  1  0  0  0
 21 17  1  0  0  0
 17 16  1  0  0  0
 16  1  1  0  0  0
  1  2  1  0  0  0
  2  3  1  0  0  0
  3  4  1  0  0  0
  4  5  1  0  0  0
  4  6  1  0  0  0
  2  8  1  0  0  0
  8  9  2  0  0  0
  9 10  1  0  0  0
 10 11  2  0  0  0
 11 12  1  0  0  0
 12 13  2  0  0  0
 11 14  1  0  0  0
 14 15  3  0  0  0
 21 22  2  0  0  0
 22 23  1  0  0  0
 23 24  2  0  0  0
 24 25  1  0  0  0
 25 26  1  0  0  0
 25 27  2  0  0  0
 24 19  1  0  0  0
  6  2  1  0  0  0
 13  8  1  0  0  0
  5  7  1  0  0  0
 26 28  1  0  0  0
M  END
> <minimizedAffinity>
-7.74009

> <CNNscore>
0.7617365718

> <CNNaffinity>
4.9246940613

> <CNN_VS>
3.7513196468

> <CNNaffinity_variance>
0.4240912497

$$$$
[H]OC(=O)c1c([H])c([H])c(C([H])([H])OC([H])([H])C2(c3c([H])c([H])c(C#N)c([H])c3[H])C([H])([H])C([H])(O[H])C2([H])[H])c([H])c1C([H])([H])[H]


 28 30  0  0  0  0  0  0  0  0999 V2000
   35.8684  -18.3961   34.4474 C   0  0  0  0  0  0  0  0  0  0  0  0
   36.0564  -18.1782   35.9425 C   0  0  0  0  0  0  0  0  0  0  0  0
   37.4919  -18.3568   36.3995 C   0  0  0  0  0  0  0  0  0  0  0  0
   37.1014  -19.7579   36.8621 C   0  0  0  0  0  0  0  0  0  0  0  0
   37.4864  -20.0486   38.1602 O   0  0  0  0  0  0  0  0  0  0  0  0
   35.6480  -19.3001   36.8313 C   0  0  0  0  0  0  0  0  0  0  0  0
   37.4941  -21.0468   38.2259 H   0  0  0  0  0  0  0  0  0  0  0  0
   35.5478  -16.8280   36.2704 C   0  0  0  0  0  0  0  0  0  0  0  0
   34.3889  -16.3253   35.7487 C   0  0  0  0  0  0  0  0  0  0  0  0
   33.9732  -15.0378   36.0938 C   0  0  0  0  0  0  0  0  0  0  0  0
   34.7036  -14.2385   36.9600 C   0  0  0  0  0  0  0  0  0  0  0  0
   35.8731  -14.7740   37.4733 C   0  0  0  0  0  0  0  0  0  0  0  0
   36.2786  -16.0444   37.1291 C   0  0  0  0  0  0  0  0  0  0  0  0
   34.2700  -12.9057   37.3112 C   0  0  0  0  0  0  0  0  0  0  0  0
   33.9263  -11.8268   37.6171 N   0  0  0  0  0  0  0  0  0  0  0  0
   35.2297  -19.5603   34.1329 O   0  0  0  0  0  0  0  0  0  0  0  0
   34.0238  -19.3798   33.5287 C   0  0  0  0  0  0  0  0  0  0  0  0
   29.3258  -18.8064   35.1125 C   0  0  0  0  0  0  0  0  0  0  0  0
   30.5582  -19.6676   35.0267 C   0  0  0  0  0  0  0  0  0  0  0  0
   31.6769  -19.1807   34.3566 C   0  0  0  0  0  0  0  0  0  0  0  0
   32.8449  -19.9178   34.2434 C   0  0  0  0  0  0  0  0  0  0  0  0
   32.8184  -21.1609   34.8388 C   0  0  0  0  0  0  0  0  0  0  0  0
   31.7233  -21.6501   35.5001 C   0  0  0  0  0  0  0  0  0  0  0  0
   30.5356  -20.9054   35.6172 C   0  0  0  0  0  0  0  0  0  0  0  0
   29.4065  -21.4772   36.3296 C   0  0  0  0  0  0  0  0  0  0  0  0
   29.1703  -21.2343   37.6684 O   0  0  0  0  0  0  0  0  0  0  0  0
   28.6060  -22.2169   35.7361 O   0  0  0  0  0  0  0  0  0  0  0  0
   29.4307  -21.9158   38.3865 H   0  0  0  0  0  0  0  0  0  0  0  0
 18 19  1  0  0  0
 19 20  2  0  0  0
 20 21  1  0  0  0
 21 17  1  0  0  0
 17 16  1  0  0  0
 16  1  1  0  0  0
  1  2  1  0  0  0
  2  3  1  0  0  0
  3  4  1  0  0  0
  4  5  1  0  0  0
  4  6  1  0  0  0
  2  8  1  0  0  0
  8  9  2  0  0  0
  9 10  1  0  0  0
 10 11  2  0  0  0
 11 12  1  0  0  0
 12 13  2  0  0  0
 11 14  1  0  0  0
 14 15  3  0  0  0
 21 22  2  0  0  0
 22 23  1  0  0  0
 23 24  2  0  0  0
 24 25  1  0  0  0
 25 26  1  0  0  0
 25 27  2  0  0  0
 24 19  1  0  0  0
  6  2  1  0  0  0
 13  8  1  0  0  0
  5  7  1  0  0  0
 26 28  1  0  0  0
M  END
> <minimizedAffinity>
-6.72230

> <CNNscore>
0.6869621277

> <CNNaffinity>
4.8360614777

> <CNN_VS>
3.3221910000

> <CNNaffinity_variance>
0.3135770559

$$$$
[H]OC(=O)c1c([H])c([H])c(C([H])([H])OC([H])([H])C2(c3c([H])c([H])c(C#N)c([H])c3[H])C([H])([H])C([H])(O[H])C2([H])[H])c([H])c1C([H])([H])[H]


 28 30  0  0  0  0  0  0  0  0999 V2000
   34.1662  -17.4697   35.4929 C   0  0  0  0  0  0  0  0  0  0  0  0
   35.4043  -16.8312   36.1073 C   0  0  0  0  0  0  0  0  0  0  0  0
   36.6247  -16.9011   35.2090 C   0  0  0  0  0  0  0  0  0  0  0  0
   37.0843  -18.0985   36.0363 C   0  0  0  0  0  0  0  0  0  0  0  0
   38.3945  -18.0081   36.4757 O   0  0  0  0  0  0  0  0  0  0  0  0
   36.1269  -17.6373   37.1289 C   0  0  0  0  0  0  0  0  0  0  0  0
   38.6767  -18.9441   36.6878 H   0  0  0  0  0  0  0  0  0  0  0  0
   35.0672  -15.4330   36.4550 C   0  0  0  0  0  0  0  0  0  0  0  0
   35.9605  -14.5773   37.0359 C   0  0  0  0  0  0  0  0  0  0  0  0
   35.5713  -13.2730   37.3467 C   0  0  0  0  0  0  0  0  0  0  0  0
   34.2923  -12.8065   37.0832 C   0  0  0  0  0  0  0  0  0  0  0  0
   33.4087  -13.6953   36.4940 C   0  0  0  0  0  0  0  0  0  0  0  0
   33.7979  -14.9810   36.1899 C   0  0  0  0  0  0  0  0  0  0  0  0
   33.8942  -11.4566   37.4098 C   0  0  0  0  0  0  0  0  0  0  0  0
   33.5631  -10.3680   37.6947 N   0  0  0  0  0  0  0  0  0  0  0  0
   34.3699  -17.9876   34.2470 O   0  0  0  0  0  0  0  0  0  0  0  0
   34.0886  -19.3155   34.1509 C   0  0  0  0  0  0  0  0  0  0  0  0
   31.4144  -22.1241   37.2925 C   0  0  0  0  0  0  0  0  0  0  0  0
   31.4428  -21.1009   36.1879 C   0  0  0  0  0  0  0  0  0  0  0  0
   32.6721  -20.6809   35.6878 C   0  0  0  0  0  0  0  0  0  0  0  0
   32.7711  -19.7462   34.6696 C   0  0  0  0  0  0  0  0  0  0  0  0
   31.5711  -19.2652   34.1910 C   0  0  0  0  0  0  0  0  0  0  0  0
   30.3562  -19.6711   34.6757 C   0  0  0  0  0  0  0  0  0  0  0  0
   30.2509  -20.6194   35.7093 C   0  0  0  0  0  0  0  0  0  0  0  0
   28.9347  -21.0102   36.1830 C   0  0  0  0  0  0  0  0  0  0  0  0
   28.2577  -20.3106   37.1624 O   0  0  0  0  0  0  0  0  0  0  0  0
   28.3727  -22.0085   35.7058 O   0  0  0  0  0  0  0  0  0  0  0  0
   28.2419  -20.6350   38.1331 H   0  0  0  0  0  0  0  0  0  0  0  0
 18 19  1  0  0  0
 19 20  2  0  0  0
 20 21  1  0  0  0
 21 17  1  0  0  0
 17 16  1  0  0  0
 16  1  1  0  0  0
  1  2  1  0  0  0
  2  3  1  0  0  0
  3  4  1  0  0  0
  4  5  1  0  0  0
  4  6  1  0  0  0
  2  8  1  0  0  0
  8  9  2  0  0  0
  9 10  1  0  0  0
 10 11  2  0  0  0
 11 12  1  0  0  0
 12 13  2  0  0  0
 11 14  1  0  0  0
 14 15  3  0  0  0
 21 22  2  0  0  0
 22 23  1  0  0  0
 23 24  2  0  0  0
 24 25  1  0  0  0
 25 26  1  0  0  0
 25 27  2  0  0  0
 24 19  1  0  0  0
  6  2  1  0  0  0
 13  8  1  0  0  0
  5  7  1  0  0  0
 26 28  1  0  0  0
M  END
> <minimizedAffinity>
-7.90448

> <CNNscore>
0.6385328770

> <CNNaffinity>
4.8640890121

> <CNN_VS>
3.1058807373

> <CNNaffinity_variance>
0.3841970563

$$$$
[H]OC(=O)c1c([H])c([H])c(C([H])([H])OC([H])([H])C2(c3c([H])c([H])c(C#N)c([H])c3[H])C([H])([H])C([H])(O[H])C2([H])[H])c([H])c1C([H])([H])[H]


 28 30  0  0  0  0  0  0  0  0999 V2000
   35.5598  -15.5244   35.7446 C   0  0  0  0  0  0  0  0  0  0  0  0
   35.7059  -14.4186   36.7809 C   0  0  0  0  0  0  0  0  0  0  0  0
   36.8199  -13.4396   36.4616 C   0  0  0  0  0  0  0  0  0  0  0  0
   37.6885  -14.2042   37.4569 C   0  0  0  0  0  0  0  0  0  0  0  0
   38.3206  -13.3964   38.3873 O   0  0  0  0  0  0  0  0  0  0  0  0
   36.4060  -14.7827   38.0430 C   0  0  0  0  0  0  0  0  0  0  0  0
   39.0891  -13.9326   38.7374 H   0  0  0  0  0  0  0  0  0  0  0  0
   34.3998  -13.7333   36.8984 C   0  0  0  0  0  0  0  0  0  0  0  0
   33.4682  -13.7365   35.8985 C   0  0  0  0  0  0  0  0  0  0  0  0
   32.2595  -13.0596   36.0735 C   0  0  0  0  0  0  0  0  0  0  0  0
   31.9649  -12.3744   37.2424 C   0  0  0  0  0  0  0  0  0  0  0  0
   32.9272  -12.3886   38.2382 C   0  0  0  0  0  0  0  0  0  0  0  0
   34.1179  -13.0575   38.0601 C   0  0  0  0  0  0  0  0  0  0  0  0
   30.7137  -11.6732   37.4167 C   0  0  0  0  0  0  0  0  0  0  0  0
   29.7066  -11.0936   37.5762 N   0  0  0  0  0  0  0  0  0  0  0  0
   35.0845  -16.6991   36.2507 O   0  0  0  0  0  0  0  0  0  0  0  0
   34.8727  -17.6578   35.3085 C   0  0  0  0  0  0  0  0  0  0  0  0
   30.1793  -19.2058   34.6120 C   0  0  0  0  0  0  0  0  0  0  0  0
   31.5164  -19.4104   35.2739 C   0  0  0  0  0  0  0  0  0  0  0  0
   32.5430  -18.5063   35.0161 C   0  0  0  0  0  0  0  0  0  0  0  0
   33.7960  -18.6321   35.5944 C   0  0  0  0  0  0  0  0  0  0  0  0
   33.9512  -19.7112   36.4380 C   0  0  0  0  0  0  0  0  0  0  0  0
   32.9484  -20.6070   36.6986 C   0  0  0  0  0  0  0  0  0  0  0  0
   31.6751  -20.4833   36.1136 C   0  0  0  0  0  0  0  0  0  0  0  0
   30.6515  -21.4649   36.4270 C   0  0  0  0  0  0  0  0  0  0  0  0
   29.7278  -21.2811   37.4370 O   0  0  0  0  0  0  0  0  0  0  0  0
   30.5810  -22.5198   35.7771 O   0  0  0  0  0  0  0  0  0  0  0  0
   29.8428  -21.7280   38.3507 H   0  0  0  0  0  0  0  0  0  0  0  0
 18 19  1  0  0  0
 19 20  2  0  0  0
 20 21  1  0  0  0
 21 17  1  0  0  0
 17 16  1  0  0  0
 16  1  1  0  0  0
  1  2  1  0  0  0
  2  3  1  0  0  0
  3  4  1  0  0  0
  4  5  1  0  0  0
  4  6  1  0  0  0
  2  8  1  0  0  0
  8  9  2  0  0  0
  9 10  1  0  0  0
 10 11  2  0  0  0
 11 12  1  0  0  0
 12 13  2  0  0  0
 11 14  1  0  0  0
 14 15  3  0  0  0
 21 22  2  0  0  0
 22 23  1  0  0  0
 23 24  2  0  0  0
 24 25  1  0  0  0
 25 26  1  0  0  0
 25 27  2  0  0  0
 24 19  1  0  0  0
  6  2  1  0  0  0
 13  8  1  0  0  0
  5  7  1  0  0  0
 26 28  1  0  0  0
M  END
> <minimizedAffinity>
-7.11862

> <CNNscore>
0.5125697851

> <CNNaffinity>
4.9786925316

> <CNN_VS>
2.5519273281

> <CNNaffinity_variance>
0.1273891926

$$$$
[H]OC(=O)c1c([H])c([H])c(C([H])([H])OC([H])([H])C2(c3c([H])c([H])c(C#N)c([H])c3[H])C([H])([H])C([H])(O[H])C2([H])[H])c([H])c1C([H])([H])[H]


 28 30  0  0  0  0  0  0  0  0999 V2000
   35.8499  -19.0076   37.0643 C   0  0  0  0  0  0  0  0  0  0  0  0
   36.6995  -17.9740   36.3377 C   0  0  0  0  0  0  0  0  0  0  0  0
   36.7982  -18.2205   34.8441 C   0  0  0  0  0  0  0  0  0  0  0  0
   38.1616  -18.8551   35.1050 C   0  0  0  0  0  0  0  0  0  0  0  0
   39.1715  -18.3717   34.2900 O   0  0  0  0  0  0  0  0  0  0  0  0
   38.1751  -18.1346   36.4481 C   0  0  0  0  0  0  0  0  0  0  0  0
   39.8911  -19.0665   34.3054 H   0  0  0  0  0  0  0  0  0  0  0  0
   36.1348  -16.6380   36.6299 C   0  0  0  0  0  0  0  0  0  0  0  0
   36.7536  -15.7340   37.4469 C   0  0  0  0  0  0  0  0  0  0  0  0
   36.1583  -14.4940   37.6874 C   0  0  0  0  0  0  0  0  0  0  0  0
   34.9442  -14.1405   37.1185 C   0  0  0  0  0  0  0  0  0  0  0  0
   34.3404  -15.0760   36.2949 C   0  0  0  0  0  0  0  0  0  0  0  0
   34.9319  -16.2977   36.0617 C   0  0  0  0  0  0  0  0  0  0  0  0
   34.3314  -12.8571   37.3733 C   0  0  0  0  0  0  0  0  0  0  0  0
   33.8223  -11.8244   37.5970 N   0  0  0  0  0  0  0  0  0  0  0  0
   35.4222  -20.0312   36.2697 O   0  0  0  0  0  0  0  0  0  0  0  0
   34.7644  -21.0129   36.9444 C   0  0  0  0  0  0  0  0  0  0  0  0
   30.6311  -19.1987   34.8152 C   0  0  0  0  0  0  0  0  0  0  0  0
   31.2674  -20.2037   35.7387 C   0  0  0  0  0  0  0  0  0  0  0  0
   32.6468  -20.1730   35.9229 C   0  0  0  0  0  0  0  0  0  0  0  0
   33.2968  -21.0649   36.7610 C   0  0  0  0  0  0  0  0  0  0  0  0
   32.4830  -21.9794   37.3949 C   0  0  0  0  0  0  0  0  0  0  0  0
   31.1251  -22.0189   37.2209 C   0  0  0  0  0  0  0  0  0  0  0  0
   30.4613  -21.1157   36.3709 C   0  0  0  0  0  0  0  0  0  0  0  0
   29.0190  -21.2070   36.2254 C   0  0  0  0  0  0  0  0  0  0  0  0
   28.1466  -20.4103   36.9406 O   0  0  0  0  0  0  0  0  0  0  0  0
   28.5238  -22.0246   35.4339 O   0  0  0  0  0  0  0  0  0  0  0  0
   27.6640  -20.7630   37.7716 H   0  0  0  0  0  0  0  0  0  0  0  0
 18 19  1  0  0  0
 19 20  2  0  0  0
 20 21  1  0  0  0
 21 17  1  0  0  0
 17 16  1  0  0  0
 16  1  1  0  0  0
  1  2  1  0  0  0
  2  3  1  0  0  0
  3  4  1  0  0  0
  4  5  1  0  0  0
  4  6  1  0  0  0
  2  8  1  0  0  0
  8  9  2  0  0  0
  9 10  1  0  0  0
 10 11  2  0  0  0
 11 12  1  0  0  0
 12 13  2  0  0  0
 11 14  1  0  0  0
 14 15  3  0  0  0
 21 22  2  0  0  0
 22 23  1  0  0  0
 23 24  2  0  0  0
 24 25  1  0  0  0
 25 26  1  0  0  0
 25 27  2  0  0  0
 24 19  1  0  0  0
  6  2  1  0  0  0
 13  8  1  0  0  0
  5  7  1  0  0  0
 26 28  1  0  0  0
M  END
> <minimizedAffinity>
-7.09059

> <CNNscore>
0.4678772986

> <CNNaffinity>
4.5842537880

> <CNN_VS>
2.1448683739

> <CNNaffinity_variance>
0.3014432788

$$$$
[H]OC(=O)c1c([H])c([H])c(C([H])([H])OC([H])([H])C2(c3c([H])c([H])c(C#N)c([H])c3[H])C([H])([H])C([H])(O[H])C2([H])[H])c([H])c1C([H])([H])[H]


 28 30  0  0  0  0  0  0  0  0999 V2000
   34.0824  -17.1664   35.1318 C   0  0  0  0  0  0  0  0  0  0  0  0
   35.2550  -16.6402   35.9481 C   0  0  0  0  0  0  0  0  0  0  0  0
   36.5819  -16.7263   35.2178 C   0  0  0  0  0  0  0  0  0  0  0  0
   36.8638  -17.9970   36.0150 C   0  0  0  0  0  0  0  0  0  0  0  0
   38.1044  -18.0105   36.6303 O   0  0  0  0  0  0  0  0  0  0  0  0
   35.7900  -17.5483   36.9992 C   0  0  0  0  0  0  0  0  0  0  0  0
   38.3081  -18.9726   36.8134 H   0  0  0  0  0  0  0  0  0  0  0  0
   34.9433  -15.2487   36.3426 C   0  0  0  0  0  0  0  0  0  0  0  0
   35.8688  -14.4107   36.8986 C   0  0  0  0  0  0  0  0  0  0  0  0
   35.5027  -13.1117   37.2568 C   0  0  0  0  0  0  0  0  0  0  0  0
   34.2154  -12.6332   37.0659 C   0  0  0  0  0  0  0  0  0  0  0  0
   33.2991  -13.5042   36.5004 C   0  0  0  0  0  0  0  0  0  0  0  0
   33.6655  -14.7846   36.1494 C   0  0  0  0  0  0  0  0  0  0  0  0
   33.8415  -11.2890   37.4413 C   0  0  0  0  0  0  0  0  0  0  0  0
   33.5185  -10.2004   37.7352 N   0  0  0  0  0  0  0  0  0  0  0  0
   33.1438  -17.8257   35.8710 O   0  0  0  0  0  0  0  0  0  0  0  0
   32.4359  -18.7482   35.1642 C   0  0  0  0  0  0  0  0  0  0  0  0
   31.3677  -23.5770   34.4933 C   0  0  0  0  0  0  0  0  0  0  0  0
   32.1518  -22.5234   35.2300 C   0  0  0  0  0  0  0  0  0  0  0  0
   31.9658  -21.1853   34.8948 C   0  0  0  0  0  0  0  0  0  0  0  0
   32.6509  -20.1647   35.5347 C   0  0  0  0  0  0  0  0  0  0  0  0
   33.5250  -20.5686   36.5213 C   0  0  0  0  0  0  0  0  0  0  0  0
   33.7161  -21.8821   36.8590 C   0  0  0  0  0  0  0  0  0  0  0  0
   33.0231  -22.9212   36.2119 C   0  0  0  0  0  0  0  0  0  0  0  0
   33.2683  -24.2955   36.6127 C   0  0  0  0  0  0  0  0  0  0  0  0
   34.2048  -25.0970   35.9900 O   0  0  0  0  0  0  0  0  0  0  0  0
   32.6251  -24.7949   37.5492 O   0  0  0  0  0  0  0  0  0  0  0  0
   33.9292  -25.7920   35.2908 H   0  0  0  0  0  0  0  0  0  0  0  0
 18 19  1  0  0  0
 19 20  2  0  0  0
 20 21  1  0  0  0
 21 17  1  0  0  0
 17 16  1  0  0  0
 16  1  1  0  0  0
  1  2  1  0  0  0
  2  3  1  0  0  0
  3  4  1  0  0  0
  4  5  1  0  0  0
  4  6  1  0  0  0
  2  8  1  0  0  0
  8  9  2  0  0  0
  9 10  1  0  0  0
 10 11  2  0  0  0
 11 12  1  0  0  0
 12 13  2  0  0  0
 11 14  1  0  0  0
 14 15  3  0  0  0
 21 22  2  0  0  0
 22 23  1  0  0  0
 23 24  2  0  0  0
 24 25  1  0  0  0
 25 26  1  0  0  0
 25 27  2  0  0  0
 24 19  1  0  0  0
  6  2  1  0  0  0
 13  8  1  0  0  0
  5  7  1  0  0  0
 26 28  1  0  0  0
M  END
> <minimizedAffinity>
-6.86522

> <CNNscore>
0.4250314832

> <CNNaffinity>
4.5074510574

> <CNN_VS>
1.9158085585

> <CNNaffinity_variance>
0.4244422317

$$$$
[H]OC(=O)c1c([H])c([H])c(C([H])([H])OC([H])([H])C2(c3c([H])c([H])c(C#N)c([H])c3[H])C([H])([H])C([H])(O[H])C2([H])[H])c([H])c1C([H])([H])[H]


 28 30  0  0  0  0  0  0  0  0999 V2000
   35.3101  -19.0682   36.3966 C   0  0  0  0  0  0  0  0  0  0  0  0
   36.3571  -18.0158   36.0586 C   0  0  0  0  0  0  0  0  0  0  0  0
   36.8348  -18.0841   34.6203 C   0  0  0  0  0  0  0  0  0  0  0  0
   38.0583  -18.8401   35.1311 C   0  0  0  0  0  0  0  0  0  0  0  0
   39.2632  -18.3329   34.6743 O   0  0  0  0  0  0  0  0  0  0  0  0
   37.7455  -18.2920   36.5185 C   0  0  0  0  0  0  0  0  0  0  0  0
   39.9281  -19.0732   34.7777 H   0  0  0  0  0  0  0  0  0  0  0  0
   35.7843  -16.6891   36.3765 C   0  0  0  0  0  0  0  0  0  0  0  0
   34.5938  -16.2538   35.8655 C   0  0  0  0  0  0  0  0  0  0  0  0
   34.1172  -14.9848   36.2000 C   0  0  0  0  0  0  0  0  0  0  0  0
   34.8175  -14.1372   37.0449 C   0  0  0  0  0  0  0  0  0  0  0  0
   36.0202  -14.6049   37.5478 C   0  0  0  0  0  0  0  0  0  0  0  0
   36.4858  -15.8574   37.2141 C   0  0  0  0  0  0  0  0  0  0  0  0
   34.3209  -12.8238   37.3853 C   0  0  0  0  0  0  0  0  0  0  0  0
   33.8989  -11.7619   37.6500 N   0  0  0  0  0  0  0  0  0  0  0  0
   35.2580  -19.3929   37.7209 O   0  0  0  0  0  0  0  0  0  0  0  0
   35.3447  -20.7292   37.9631 C   0  0  0  0  0  0  0  0  0  0  0  0
   39.6527  -21.1990   40.4387 C   0  0  0  0  0  0  0  0  0  0  0  0
   38.8185  -21.5409   39.2326 C   0  0  0  0  0  0  0  0  0  0  0  0
   37.5304  -21.0226   39.1335 C   0  0  0  0  0  0  0  0  0  0  0  0
   36.7103  -21.2929   38.0496 C   0  0  0  0  0  0  0  0  0  0  0  0
   37.2593  -22.1078   37.0827 C   0  0  0  0  0  0  0  0  0  0  0  0
   38.5252  -22.6235   37.1701 C   0  0  0  0  0  0  0  0  0  0  0  0
   39.3609  -22.3520   38.2686 C   0  0  0  0  0  0  0  0  0  0  0  0
   40.6935  -22.9283   38.3063 C   0  0  0  0  0  0  0  0  0  0  0  0
   41.8086  -22.2567   37.8449 O   0  0  0  0  0  0  0  0  0  0  0  0
   40.8660  -24.0679   38.7664 O   0  0  0  0  0  0  0  0  0  0  0  0
   42.2047  -22.4548   36.9220 H   0  0  0  0  0  0  0  0  0  0  0  0
 18 19  1  0  0  0
 19 20  2  0  0  0
 20 21  1  0  0  0
 21 17  1  0  0  0
 17 16  1  0  0  0
 16  1  1  0  0  0
  1  2  1  0  0  0
  2  3  1  0  0  0
  3  4  1  0  0  0
  4  5  1  0  0  0
  4  6  1  0  0  0
  2  8  1  0  0  0
  8  9  2  0  0  0
  9 10  1  0  0  0
 10 11  2  0  0  0
 11 12  1  0  0  0
 12 13  2  0  0  0
 11 14  1  0  0  0
 14 15  3  0  0  0
 21 22  2  0  0  0
 22 23  1  0  0  0
 23 24  2  0  0  0
 24 25  1  0  0  0
 25 26  1  0  0  0
 25 27  2  0  0  0
 24 19  1  0  0  0
  6  2  1  0  0  0
 13  8  1  0  0  0
  5  7  1  0  0  0
 26 28  1  0  0  0
M  END
> <minimizedAffinity>
-5.67421

> <CNNscore>
0.4101161361

> <CNNaffinity>
4.3521752357

> <CNN_VS>
1.7848973274

> <CNNaffinity_variance>
0.2814054787

$$$$
[H]OC(=O)c1c([H])c([H])c(C([H])([H])OC([H])([H])C2(c3c([H])c([H])c(C#N)c([H])c3[H])C([H])([H])C([H])(O[H])C2([H])[H])c([H])c1C([H])([H])[H]


 28 30  0  0  0  0  0  0  0  0999 V2000
   35.0578  -18.9196   36.4889 C   0  0  0  0  0  0  0  0  0  0  0  0
   35.8754  -17.8863   35.7261 C   0  0  0  0  0  0  0  0  0  0  0  0
   35.7537  -18.0172   34.2196 C   0  0  0  0  0  0  0  0  0  0  0  0
   37.0894  -18.7553   34.2414 C   0  0  0  0  0  0  0  0  0  0  0  0
   38.0131  -18.2724   33.3297 O   0  0  0  0  0  0  0  0  0  0  0  0
   37.3366  -18.1478   35.6172 C   0  0  0  0  0  0  0  0  0  0  0  0
   38.6752  -19.0100   33.1947 H   0  0  0  0  0  0  0  0  0  0  0  0
   35.4548  -16.5453   36.1888 C   0  0  0  0  0  0  0  0  0  0  0  0
   36.2091  -15.7829   37.0359 C   0  0  0  0  0  0  0  0  0  0  0  0
   35.7458  -14.5294   37.4405 C   0  0  0  0  0  0  0  0  0  0  0  0
   34.5304  -14.0216   37.0074 C   0  0  0  0  0  0  0  0  0  0  0  0
   33.7878  -14.8157   36.1497 C   0  0  0  0  0  0  0  0  0  0  0  0
   34.2494  -16.0516   35.7542 C   0  0  0  0  0  0  0  0  0  0  0  0
   34.0547  -12.7250   37.4318 C   0  0  0  0  0  0  0  0  0  0  0  0
   33.6890  -11.6677   37.7841 N   0  0  0  0  0  0  0  0  0  0  0  0
   34.2000  -19.6358   35.7058 O   0  0  0  0  0  0  0  0  0  0  0  0
   32.9233  -19.6677   36.1756 C   0  0  0  0  0  0  0  0  0  0  0  0
   28.5664  -22.0513   35.6806 C   0  0  0  0  0  0  0  0  0  0  0  0
   30.0706  -22.1147   35.7152 C   0  0  0  0  0  0  0  0  0  0  0  0
   30.7916  -20.9406   35.9137 C   0  0  0  0  0  0  0  0  0  0  0  0
   32.1765  -20.9272   35.9608 C   0  0  0  0  0  0  0  0  0  0  0  0
   32.7846  -22.1536   35.7975 C   0  0  0  0  0  0  0  0  0  0  0  0
   32.0852  -23.3147   35.6014 C   0  0  0  0  0  0  0  0  0  0  0  0
   30.6795  -23.3329   35.5525 C   0  0  0  0  0  0  0  0  0  0  0  0
   29.9928  -24.5950   35.3406 C   0  0  0  0  0  0  0  0  0  0  0  0
   29.4424  -25.3262   36.3748 O   0  0  0  0  0  0  0  0  0  0  0  0
   29.8814  -25.0582   34.1946 O   0  0  0  0  0  0  0  0  0  0  0  0
   29.9267  -26.1371   36.7693 H   0  0  0  0  0  0  0  0  0  0  0  0
 18 19  1  0  0  0
 19 20  2  0  0  0
 20 21  1  0  0  0
 21 17  1  0  0  0
 17 16  1  0  0  0
 16  1  1  0  0  0
  1  2  1  0  0  0
  2  3  1  0  0  0
  3  4  1  0  0  0
  4  5  1  0  0  0
  4  6  1  0  0  0
  2  8  1  0  0  0
  8  9  2  0  0  0
  9 10  1  0  0  0
 10 11  2  0  0  0
 11 12  1  0  0  0
 12 13  2  0  0  0
 11 14  1  0  0  0
 14 15  3  0  0  0
 21 22  2  0  0  0
 22 23  1  0  0  0
 23 24  2  0  0  0
 24 25  1  0  0  0
 25 26  1  0  0  0
 25 27  2  0  0  0
 24 19  1  0  0  0
  6  2  1  0  0  0
 13  8  1  0  0  0
  5  7  1  0  0  0
 26 28  1  0  0  0
M  END
> <minimizedAffinity>
-6.67445

> <CNNscore>
0.3975362778

> <CNNaffinity>
4.3667225838

> <CNN_VS>
1.7359306812

> <CNNaffinity_variance>
0.4731356502

$$$$
[H]OC(=O)c1c([H])c([H])c(C([H])([H])OC([H])([H])C2(c3c([H])c([H])c(C#N)c([H])c3[H])C([H])([H])C([H])(O[H])C2([H])[H])c([H])c1C([H])([H])[H]


 28 30  0  0  0  0  0  0  0  0999 V2000
   36.9044  -17.4273   35.3595 C   0  0  0  0  0  0  0  0  0  0  0  0
   35.6402  -17.4462   36.2076 C   0  0  0  0  0  0  0  0  0  0  0  0
   35.7764  -18.2760   37.4703 C   0  0  0  0  0  0  0  0  0  0  0  0
   35.0509  -19.3982   36.7328 C   0  0  0  0  0  0  0  0  0  0  0  0
   33.9906  -19.9411   37.4391 O   0  0  0  0  0  0  0  0  0  0  0  0
   34.5487  -18.3483   35.7487 C   0  0  0  0  0  0  0  0  0  0  0  0
   33.8281  -20.8428   37.0378 H   0  0  0  0  0  0  0  0  0  0  0  0
   35.2819  -16.0443   36.5170 C   0  0  0  0  0  0  0  0  0  0  0  0
   36.0676  -15.2301   37.2834 C   0  0  0  0  0  0  0  0  0  0  0  0
   35.6628  -13.9194   37.5441 C   0  0  0  0  0  0  0  0  0  0  0  0
   34.4752  -13.4055   37.0460 C   0  0  0  0  0  0  0  0  0  0  0  0
   33.6997  -14.2531   36.2725 C   0  0  0  0  0  0  0  0  0  0  0  0
   34.1037  -15.5451   36.0189 C   0  0  0  0  0  0  0  0  0  0  0  0
   34.0599  -12.0494   37.3215 C   0  0  0  0  0  0  0  0  0  0  0  0
   33.7062  -10.9564   37.5582 N   0  0  0  0  0  0  0  0  0  0  0  0
   36.8369  -18.2137   34.2463 O   0  0  0  0  0  0  0  0  0  0  0  0
   37.9616  -18.9460   34.0215 C   0  0  0  0  0  0  0  0  0  0  0  0
   41.7008  -18.9101   37.3268 C   0  0  0  0  0  0  0  0  0  0  0  0
   40.4211  -19.5364   36.8391 C   0  0  0  0  0  0  0  0  0  0  0  0
   39.7908  -19.0006   35.7196 C   0  0  0  0  0  0  0  0  0  0  0  0
   38.6137  -19.5297   35.2148 C   0  0  0  0  0  0  0  0  0  0  0  0
   38.1152  -20.6184   35.8979 C   0  0  0  0  0  0  0  0  0  0  0  0
   38.7267  -21.1535   37.0004 C   0  0  0  0  0  0  0  0  0  0  0  0
   39.9214  -20.6194   37.5164 C   0  0  0  0  0  0  0  0  0  0  0  0
   40.5232  -21.2290   38.6894 C   0  0  0  0  0  0  0  0  0  0  0  0
   41.4589  -22.2412   38.6054 O   0  0  0  0  0  0  0  0  0  0  0  0
   40.2023  -20.8441   39.8247 O   0  0  0  0  0  0  0  0  0  0  0  0
   41.1972  -23.2205   38.7485 H   0  0  0  0  0  0  0  0  0  0  0  0
 18 19  1  0  0  0
 19 20  2  0  0  0
 20 21  1  0  0  0
 21 17  1  0  0  0
 17 16  1  0  0  0
 16  1  1  0  0  0
  1  2  1  0  0  0
  2  3  1  0  0  0
  3  4  1  0  0  0
  4  5  1  0  0  0
  4  6  1  0  0  0
  2  8  1  0  0  0
  8  9  2  0  0  0
  9 10  1  0  0  0
 10 11  2  0  0  0
 11 12  1  0  0  0
 12 13  2  0  0  0
 11 14  1  0  0  0
 14 15  3  0  0  0
 21 22  2  0  0  0
 22 23  1  0  0  0
 23 24  2  0  0  0
 24 25  1  0  0  0
 25 26  1  0  0  0
 25 27  2  0  0  0
 24 19  1  0  0  0
  6  2  1  0  0  0
 13  8  1  0  0  0
  5  7  1  0  0  0
 26 28  1  0  0  0
M  END
> <minimizedAffinity>
-6.37951

> <CNNscore>
0.3789504170

> <CNNaffinity>
4.5577540398

> <CNN_VS>
1.7271628380

> <CNNaffinity_variance>
0.3188082576

$$$$
[H]OC(=O)C(O[C@@]1([H])OC([H])([H])c2c([H])c([H])c(OC([H])([H])[H])c([H])c2OC1(C([H])([H])[H])C([H])([H])[H])(C([H])([H])[H])C([H])([H])[H]


 23 24  0  0  0  0  0  0  0  0999 V2000
   36.6405  -14.5813   37.4372 C   0  0  0  0  0  0  0  0  0  0  0  0
   35.6632  -13.9293   36.7209 C   0  0  0  0  0  0  0  0  0  0  0  0
   34.6577  -14.6222   36.0287 C   0  0  0  0  0  0  0  0  0  0  0  0
   34.7023  -15.9710   36.1045 C   0  0  0  0  0  0  0  0  0  0  0  0
   33.5853  -16.5908   35.3414 C   0  0  0  0  0  0  0  0  0  0  0  0
   33.2626  -17.8441   35.9212 O   0  0  0  0  0  0  0  0  0  0  0  0
   33.9926  -18.8942   35.3487 C   0  0  0  0  0  0  0  0  0  0  0  0
   35.6536  -16.6693   36.8035 C   0  0  0  0  0  0  0  0  0  0  0  0
   35.7129  -18.0509   36.8902 O   0  0  0  0  0  0  0  0  0  0  0  0
   35.3798  -19.0238   35.9095 C   0  0  0  0  0  0  0  0  0  0  0  0
   36.3699  -19.0109   34.7762 C   0  0  0  0  0  0  0  0  0  0  0  0
   35.5059  -20.3764   36.6217 C   0  0  0  0  0  0  0  0  0  0  0  0
   36.6129  -15.9665   37.4628 C   0  0  0  0  0  0  0  0  0  0  0  0
   38.6145  -13.1248   37.4795 C   0  0  0  0  0  0  0  0  0  0  0  0
   37.6219  -13.8872   38.1123 O   0  0  0  0  0  0  0  0  0  0  0  0
   33.3800  -20.0902   35.4463 O   0  0  0  0  0  0  0  0  0  0  0  0
   32.2043  -20.3874   34.9093 C   0  0  0  0  0  0  0  0  0  0  0  0
   32.0666  -19.7695   33.5327 C   0  0  0  0  0  0  0  0  0  0  0  0
   32.1940  -21.9147   34.6185 C   0  0  0  0  0  0  0  0  0  0  0  0
   30.9976  -20.0198   35.6413 C   0  0  0  0  0  0  0  0  0  0  0  0
   30.4271  -18.7814   35.4501 O   0  0  0  0  0  0  0  0  0  0  0  0
   30.4737  -20.8141   36.4407 O   0  0  0  0  0  0  0  0  0  0  0  0
   29.4270  -18.7701   35.1969 H   0  0  0  0  0  0  0  0  0  0  0  0
 14 15  1  0  0  0
 15  1  1  0  0  0
  1  2  2  0  0  0
  2  3  1  0  0  0
  3  4  2  0  0  0
  4  5  1  0  0  0
  5  6  1  0  0  0
  6  7  1  0  0  0
  7 16  1  0  0  0
 16 17  1  0  0  0
 17 18  1  0  0  0
 17 19  1  0  0  0
 17 20  1  0  0  0
 20 21  1  0  0  0
 20 22  2  0  0  0
  4  8  1  0  0  0
  8  9  1  0  0  0
  9 10  1  0  0  0
 10 11  1  0  0  0
 10 12  1  0  0  0
  8 13  2  0  0  0
 13  1  1  0  0  0
 10  7  1  0  0  0
 21 23  1  0  0  0
M  END
> <minimizedAffinity>
-6.66879

> <CNNscore>
0.8303920627

> <CNNaffinity>
4.5416383743

> <CNN_VS>
3.7713403702

> <CNNaffinity_variance>
0.2023626864

$$$$
[H]OC(=O)C(O[C@@]1([H])OC([H])([H])c2c([H])c([H])c(OC([H])([H])[H])c([H])c2OC1(C([H])([H])[H])C([H])([H])[H])(C([H])([H])[H])C([H])([H])[H]


 23 24  0  0  0  0  0  0  0  0999 V2000
   36.2103  -14.6412   36.7447 C   0  0  0  0  0  0  0  0  0  0  0  0
   35.0011  -14.6058   36.0892 C   0  0  0  0  0  0  0  0  0  0  0  0
   34.2711  -15.7709   35.8067 C   0  0  0  0  0  0  0  0  0  0  0  0
   34.8235  -16.9348   36.2156 C   0  0  0  0  0  0  0  0  0  0  0  0
   33.9570  -18.0937   35.8688 C   0  0  0  0  0  0  0  0  0  0  0  0
   34.1791  -19.1383   36.8018 O   0  0  0  0  0  0  0  0  0  0  0  0
   35.1955  -20.0093   36.3871 C   0  0  0  0  0  0  0  0  0  0  0  0
   36.0246  -17.0255   36.8717 C   0  0  0  0  0  0  0  0  0  0  0  0
   36.6039  -18.2103   37.2964 O   0  0  0  0  0  0  0  0  0  0  0  0
   36.5740  -19.4912   36.6820 C   0  0  0  0  0  0  0  0  0  0  0  0
   37.3835  -19.5019   35.4133 C   0  0  0  0  0  0  0  0  0  0  0  0
   37.2591  -20.4346   37.6786 C   0  0  0  0  0  0  0  0  0  0  0  0
   36.7053  -15.8769   37.1295 C   0  0  0  0  0  0  0  0  0  0  0  0
   38.1582  -13.4680   37.6664 C   0  0  0  0  0  0  0  0  0  0  0  0
   36.9161  -13.4882   37.0155 O   0  0  0  0  0  0  0  0  0  0  0  0
   35.0860  -21.2482   36.9051 O   0  0  0  0  0  0  0  0  0  0  0  0
   33.9581  -21.9416   36.9836 C   0  0  0  0  0  0  0  0  0  0  0  0
   33.1204  -21.7550   35.7349 C   0  0  0  0  0  0  0  0  0  0  0  0
   34.3313  -23.4504   36.9418 C   0  0  0  0  0  0  0  0  0  0  0  0
   33.0681  -21.6881   38.1107 C   0  0  0  0  0  0  0  0  0  0  0  0
   33.5479  -21.0614   39.2390 O   0  0  0  0  0  0  0  0  0  0  0  0
   31.8748  -22.0321   38.0669 O   0  0  0  0  0  0  0  0  0  0  0  0
   33.0332  -20.2247   39.5542 H   0  0  0  0  0  0  0  0  0  0  0  0
 14 15  1  0  0  0
 15  1  1  0  0  0
  1  2  2  0  0  0
  2  3  1  0  0  0
  3  4  2  0  0  0
  4  5  1  0  0  0
  5  6  1  0  0  0
  6  7  1  0  0  0
  7 16  1  0  0  0
 16 17  1  0  0  0
 17 18  1  0  0  0
 17 19  1  0  0  0
 17 20  1  0  0  0
 20 21  1  0  0  0
 20 22  2  0  0  0
  4  8  1  0  0  0
  8  9  1  0  0  0
  9 10  1  0  0  0
 10 11  1  0  0  0
 10 12  1  0  0  0
  8 13  2  0  0  0
 13  1  1  0  0  0
 10  7  1  0  0  0
 21 23  1  0  0  0
M  END
> <minimizedAffinity>
-5.68842

> <CNNscore>
0.6683409810

> <CNNaffinity>
4.1267962456

> <CNN_VS>
2.7581069469

> <CNNaffinity_variance>
0.1776846945

$$$$
[H]OC(=O)C(O[C@@]1([H])OC([H])([H])c2c([H])c([H])c(OC([H])([H])[H])c([H])c2OC1(C([H])([H])[H])C([H])([H])[H])(C([H])([H])[H])C([H])([H])[H]


 23 24  0  0  0  0  0  0  0  0999 V2000
   35.4992  -13.9896   36.4588 C   0  0  0  0  0  0  0  0  0  0  0  0
   34.2495  -14.2028   35.9239 C   0  0  0  0  0  0  0  0  0  0  0  0
   33.7456  -15.4929   35.6958 C   0  0  0  0  0  0  0  0  0  0  0  0
   34.5589  -16.5189   36.0316 C   0  0  0  0  0  0  0  0  0  0  0  0
   33.9144  -17.8309   35.7528 C   0  0  0  0  0  0  0  0  0  0  0  0
   34.4330  -18.8045   36.6440 O   0  0  0  0  0  0  0  0  0  0  0  0
   35.5586  -19.4537   36.1198 C   0  0  0  0  0  0  0  0  0  0  0  0
   35.8118  -16.3616   36.5670 C   0  0  0  0  0  0  0  0  0  0  0  0
   36.6571  -17.4026   36.9157 O   0  0  0  0  0  0  0  0  0  0  0  0
   36.8263  -18.6661   36.2876 C   0  0  0  0  0  0  0  0  0  0  0  0
   37.4932  -18.5187   34.9466 C   0  0  0  0  0  0  0  0  0  0  0  0
   37.7819  -19.4465   37.1989 C   0  0  0  0  0  0  0  0  0  0  0  0
   36.2686  -15.0978   36.7750 C   0  0  0  0  0  0  0  0  0  0  0  0
   35.4183  -11.5618   36.1140 C   0  0  0  0  0  0  0  0  0  0  0  0
   35.9808  -12.7164   36.6774 O   0  0  0  0  0  0  0  0  0  0  0  0
   35.7527  -20.6866   36.6271 O   0  0  0  0  0  0  0  0  0  0  0  0
   34.8133  -21.4303   37.1960 C   0  0  0  0  0  0  0  0  0  0  0  0
   33.6586  -21.6652   36.2435 C   0  0  0  0  0  0  0  0  0  0  0  0
   35.4029  -22.8543   37.4015 C   0  0  0  0  0  0  0  0  0  0  0  0
   34.2211  -20.9605   38.4432 C   0  0  0  0  0  0  0  0  0  0  0  0
   34.9071  -20.0696   39.2380 O   0  0  0  0  0  0  0  0  0  0  0  0
   33.0986  -21.3556   38.8011 O   0  0  0  0  0  0  0  0  0  0  0  0
   34.4071  -19.2053   39.4973 H   0  0  0  0  0  0  0  0  0  0  0  0
 14 15  1  0  0  0
 15  1  1  0  0  0
  1  2  2  0  0  0
  2  3  1  0  0  0
  3  4  2  0  0  0
  4  5  1  0  0  0
  5  6  1  0  0  0
  6  7  1  0  0  0
  7 16  1  0  0  0
 16 17  1  0  0  0
 17 18  1  0  0  0
 17 19  1  0  0  0
 17 20  1  0  0  0
 20 21  1  0  0  0
 20 22  2  0  0  0
  4  8  1  0  0  0
  8  9  1  0  0  0
  9 10  1  0  0  0
 10 11  1  0  0  0
 10 12  1  0  0  0
  8 13  2  0  0  0
 13  1  1  0  0  0
 10  7  1  0  0  0
 21 23  1  0  0  0
M  END
> <minimizedAffinity>
-5.32349

> <CNNscore>
0.5687783957

> <CNNaffinity>
4.1353411674

> <CNN_VS>
2.3520927429

> <CNNaffinity_variance>
0.1686884463

$$$$
[H]OC(=O)C(O[C@@]1([H])OC([H])([H])c2c([H])c([H])c(OC([H])([H])[H])c([H])c2OC1(C([H])([H])[H])C([H])([H])[H])(C([H])([H])[H])C([H])([H])[H]


 23 24  0  0  0  0  0  0  0  0999 V2000
   35.3118  -21.7984   39.8659 C   0  0  0  0  0  0  0  0  0  0  0  0
   34.8814  -20.6238   39.2929 C   0  0  0  0  0  0  0  0  0  0  0  0
   35.6706  -19.9054   38.3811 C   0  0  0  0  0  0  0  0  0  0  0  0
   36.8820  -20.4328   38.0957 C   0  0  0  0  0  0  0  0  0  0  0  0
   37.6191  -19.5903   37.1154 C   0  0  0  0  0  0  0  0  0  0  0  0
   38.5078  -20.4082   36.3721 O   0  0  0  0  0  0  0  0  0  0  0  0
   39.7717  -20.4942   36.9708 C   0  0  0  0  0  0  0  0  0  0  0  0
   37.3585  -21.5988   38.6385 C   0  0  0  0  0  0  0  0  0  0  0  0
   38.5973  -22.1517   38.3565 O   0  0  0  0  0  0  0  0  0  0  0  0
   39.8292  -21.4962   38.0880 C   0  0  0  0  0  0  0  0  0  0  0  0
   40.3645  -20.8231   39.3231 C   0  0  0  0  0  0  0  0  0  0  0  0
   40.8079  -22.6138   37.7064 C   0  0  0  0  0  0  0  0  0  0  0  0
   36.5677  -22.2695   39.5182 C   0  0  0  0  0  0  0  0  0  0  0  0
   33.3727  -23.2050   40.3965 C   0  0  0  0  0  0  0  0  0  0  0  0
   34.5253  -22.4933   40.7600 O   0  0  0  0  0  0  0  0  0  0  0  0
   40.7614  -20.7705   36.0993 O   0  0  0  0  0  0  0  0  0  0  0  0
   41.6650  -19.8975   35.6745 C   0  0  0  0  0  0  0  0  0  0  0  0
   41.4790  -19.6004   34.2004 C   0  0  0  0  0  0  0  0  0  0  0  0
   41.3567  -18.5343   36.3559 C   0  0  0  0  0  0  0  0  0  0  0  0
   43.0758  -20.2238   35.8476 C   0  0  0  0  0  0  0  0  0  0  0  0
   43.7939  -20.7517   34.7980 O   0  0  0  0  0  0  0  0  0  0  0  0
   43.6428  -20.0310   36.9365 O   0  0  0  0  0  0  0  0  0  0  0  0
   44.6653  -20.2612   34.5444 H   0  0  0  0  0  0  0  0  0  0  0  0
 14 15  1  0  0  0
 15  1  1  0  0  0
  1  2  2  0  0  0
  2  3  1  0  0  0
  3  4  2  0  0  0
  4  5  1  0  0  0
  5  6  1  0  0  0
  6  7  1  0  0  0
  7 16  1  0  0  0
 16 17  1  0  0  0
 17 18  1  0  0  0
 17 19  1  0  0  0
 17 20  1  0  0  0
 20 21  1  0  0  0
 20 22  2  0  0  0
  4  8  1  0  0  0
  8  9  1  0  0  0
  9 10  1  0  0  0
 10 11  1  0  0  0
 10 12  1  0  0  0
  8 13  2  0  0  0
 13  1  1  0  0  0
 10  7  1  0  0  0
 21 23  1  0  0  0
M  END
> <minimizedAffinity>
-3.05772

> <CNNscore>
0.5502311587

> <CNNaffinity>
3.6154022217

> <CNN_VS>
1.9893069267

> <CNNaffinity_variance>
0.1109902635

$$$$
[H]OC(=O)C(O[C@@]1([H])OC([H])([H])c2c([H])c([H])c(OC([H])([H])[H])c([H])c2OC1(C([H])([H])[H])C([H])([H])[H])(C([H])([H])[H])C([H])([H])[H]


 23 24  0  0  0  0  0  0  0  0999 V2000
   36.1710  -19.0250   34.9228 C   0  0  0  0  0  0  0  0  0  0  0  0
   35.3540  -18.4675   33.9662 C   0  0  0  0  0  0  0  0  0  0  0  0
   33.9645  -18.6659   33.9639 C   0  0  0  0  0  0  0  0  0  0  0  0
   33.4706  -19.4383   34.9571 C   0  0  0  0  0  0  0  0  0  0  0  0
   31.9918  -19.5680   34.8543 C   0  0  0  0  0  0  0  0  0  0  0  0
   31.4514  -19.7870   36.1470 O   0  0  0  0  0  0  0  0  0  0  0  0
   31.3650  -21.1503   36.4590 C   0  0  0  0  0  0  0  0  0  0  0  0
   34.2400  -20.0173   35.9338 C   0  0  0  0  0  0  0  0  0  0  0  0
   33.7490  -20.8115   36.9575 O   0  0  0  0  0  0  0  0  0  0  0  0
   32.6656  -21.7308   36.9353 C   0  0  0  0  0  0  0  0  0  0  0  0
   32.9980  -22.9389   36.1016 C   0  0  0  0  0  0  0  0  0  0  0  0
   32.5016  -22.1985   38.3868 C   0  0  0  0  0  0  0  0  0  0  0  0
   35.5827  -19.8042   35.9062 C   0  0  0  0  0  0  0  0  0  0  0  0
   38.2477  -18.3710   33.7917 C   0  0  0  0  0  0  0  0  0  0  0  0
   37.5344  -18.8211   34.9123 O   0  0  0  0  0  0  0  0  0  0  0  0
   30.4130  -21.4340   37.3691 O   0  0  0  0  0  0  0  0  0  0  0  0
   29.1808  -21.8309   37.0807 C   0  0  0  0  0  0  0  0  0  0  0  0
   28.9449  -21.8188   35.5841 C   0  0  0  0  0  0  0  0  0  0  0  0
   29.0757  -23.3383   37.4473 C   0  0  0  0  0  0  0  0  0  0  0  0
   28.0641  -21.1036   37.6732 C   0  0  0  0  0  0  0  0  0  0  0  0
   27.2793  -21.7078   38.6298 O   0  0  0  0  0  0  0  0  0  0  0  0
   27.8092  -19.9384   37.3245 O   0  0  0  0  0  0  0  0  0  0  0  0
   27.1649  -21.1983   39.5195 H   0  0  0  0  0  0  0  0  0  0  0  0
 14 15  1  0  0  0
 15  1  1  0  0  0
  1  2  2  0  0  0
  2  3  1  0  0  0
  3  4  2  0  0  0
  4  5  1  0  0  0
  5  6  1  0  0  0
  6  7  1  0  0  0
  7 16  1  0  0  0
 16 17  1  0  0  0
 17 18  1  0  0  0
 17 19  1  0  0  0
 17 20  1  0  0  0
 20 21  1  0  0  0
 20 22  2  0  0  0
  4  8  1  0  0  0
  8  9  1  0  0  0
  9 10  1  0  0  0
 10 11  1  0  0  0
 10 12  1  0  0  0
  8 13  2  0  0  0
 13  1  1  0  0  0
 10  7  1  0  0  0
 21 23  1  0  0  0
M  END
> <minimizedAffinity>
-5.13310

> <CNNscore>
0.5016025305

> <CNNaffinity>
3.7234432697

> <CNN_VS>
1.8676885366

> <CNNaffinity_variance>
0.3277444243

$$$$
[H]OC(=O)C(O[C@@]1([H])OC([H])([H])c2c([H])c([H])c(OC([H])([H])[H])c([H])c2OC1(C([H])([H])[H])C([H])([H])[H])(C([H])([H])[H])C([H])([H])[H]


 23 24  0  0  0  0  0  0  0  0999 V2000
   42.2720  -18.0386   35.0729 C   0  0  0  0  0  0  0  0  0  0  0  0
   41.3054  -18.6134   34.2801 C   0  0  0  0  0  0  0  0  0  0  0  0
   40.3068  -19.4472   34.8072 C   0  0  0  0  0  0  0  0  0  0  0  0
   40.3469  -19.6556   36.1421 C   0  0  0  0  0  0  0  0  0  0  0  0
   39.2379  -20.5448   36.5822 C   0  0  0  0  0  0  0  0  0  0  0  0
   38.9048  -20.2446   37.9276 O   0  0  0  0  0  0  0  0  0  0  0  0
   39.6391  -21.0162   38.8380 C   0  0  0  0  0  0  0  0  0  0  0  0
   41.2876  -19.1077   36.9764 C   0  0  0  0  0  0  0  0  0  0  0  0
   41.3423  -19.3122   38.3457 O   0  0  0  0  0  0  0  0  0  0  0  0
   41.0188  -20.4790   39.0895 C   0  0  0  0  0  0  0  0  0  0  0  0
   42.0231  -21.5728   38.8442 C   0  0  0  0  0  0  0  0  0  0  0  0
   41.1325  -20.0651   40.5620 C   0  0  0  0  0  0  0  0  0  0  0  0
   42.2405  -18.3045   36.4324 C   0  0  0  0  0  0  0  0  0  0  0  0
   44.6218  -17.4210   34.7311 C   0  0  0  0  0  0  0  0  0  0  0  0
   43.2467  -17.2215   34.5409 O   0  0  0  0  0  0  0  0  0  0  0  0
   39.0222  -21.1789   40.0246 O   0  0  0  0  0  0  0  0  0  0  0  0
   38.1313  -22.1236   40.2942 C   0  0  0  0  0  0  0  0  0  0  0  0
   38.3328  -23.3288   39.3983 C   0  0  0  0  0  0  0  0  0  0  0  0
   38.4477  -22.6756   41.7130 C   0  0  0  0  0  0  0  0  0  0  0  0
   36.7157  -21.7841   40.2050 C   0  0  0  0  0  0  0  0  0  0  0  0
   36.2817  -20.8876   39.2544 O   0  0  0  0  0  0  0  0  0  0  0  0
   35.8903  -22.2959   40.9803 O   0  0  0  0  0  0  0  0  0  0  0  0
   35.5197  -21.2062   38.6360 H   0  0  0  0  0  0  0  0  0  0  0  0
 14 15  1  0  0  0
 15  1  1  0  0  0
  1  2  2  0  0  0
  2  3  1  0  0  0
  3  4  2  0  0  0
  4  5  1  0  0  0
  5  6  1  0  0  0
  6  7  1  0  0  0
  7 16  1  0  0  0
 16 17  1  0  0  0
 17 18  1  0  0  0
 17 19  1  0  0  0
 17 20  1  0  0  0
 20 21  1  0  0  0
 20 22  2  0  0  0
  4  8  1  0  0  0
  8  9  1  0  0  0
  9 10  1  0  0  0
 10 11  1  0  0  0
 10 12  1  0  0  0
  8 13  2  0  0  0
 13  1  1  0  0  0
 10  7  1  0  0  0
 21 23  1  0  0  0
M  END
> <minimizedAffinity>
-3.13897

> <CNNscore>
0.4553985298

> <CNNaffinity>
3.5935149193

> <CNN_VS>
1.6364814043

> <CNNaffinity_variance>
0.0493792705

$$$$
[H]OC(=O)C(O[C@@]1([H])OC([H])([H])c2c([H])c([H])c(OC([H])([H])[H])c([H])c2OC1(C([H])([H])[H])C([H])([H])[H])(C([H])([H])[H])C([H])([H])[H]


 23 24  0  0  0  0  0  0  0  0999 V2000
   40.6703  -18.9217   34.4280 C   0  0  0  0  0  0  0  0  0  0  0  0
   39.4440  -18.8498   33.8081 C   0  0  0  0  0  0  0  0  0  0  0  0
   38.2570  -19.2253   34.4563 C   0  0  0  0  0  0  0  0  0  0  0  0
   38.3850  -19.6635   35.7286 C   0  0  0  0  0  0  0  0  0  0  0  0
   37.0634  -20.0225   36.3105 C   0  0  0  0  0  0  0  0  0  0  0  0
   37.1103  -19.8497   37.7173 O   0  0  0  0  0  0  0  0  0  0  0  0
   37.5128  -21.0171   38.3794 C   0  0  0  0  0  0  0  0  0  0  0  0
   39.5820  -19.7548   36.3920 C   0  0  0  0  0  0  0  0  0  0  0  0
   39.7296  -20.2023   37.6950 O   0  0  0  0  0  0  0  0  0  0  0  0
   39.0020  -21.2111   38.3821 C   0  0  0  0  0  0  0  0  0  0  0  0
   39.3197  -22.5761   37.8335 C   0  0  0  0  0  0  0  0  0  0  0  0
   39.5092  -21.1620   39.8288 C   0  0  0  0  0  0  0  0  0  0  0  0
   40.7124  -19.3825   35.7341 C   0  0  0  0  0  0  0  0  0  0  0  0
   42.9621  -18.0457   34.4320 C   0  0  0  0  0  0  0  0  0  0  0  0
   41.8279  -18.5492   33.7785 O   0  0  0  0  0  0  0  0  0  0  0  0
   37.0707  -21.0939   39.6498 O   0  0  0  0  0  0  0  0  0  0  0  0
   35.9025  -21.6025   40.0180 C   0  0  0  0  0  0  0  0  0  0  0  0
   35.5898  -22.8617   39.2354 C   0  0  0  0  0  0  0  0  0  0  0  0
   36.0538  -22.1167   41.4775 C   0  0  0  0  0  0  0  0  0  0  0  0
   34.7182  -20.7574   39.9166 C   0  0  0  0  0  0  0  0  0  0  0  0
   34.7883  -19.5508   39.2570 O   0  0  0  0  0  0  0  0  0  0  0  0
   33.6395  -21.1133   40.4206 O   0  0  0  0  0  0  0  0  0  0  0  0
   34.0970  -19.3960   38.5070 H   0  0  0  0  0  0  0  0  0  0  0  0
 14 15  1  0  0  0
 15  1  1  0  0  0
  1  2  2  0  0  0
  2  3  1  0  0  0
  3  4  2  0  0  0
  4  5  1  0  0  0
  5  6  1  0  0  0
  6  7  1  0  0  0
  7 16  1  0  0  0
 16 17  1  0  0  0
 17 18  1  0  0  0
 17 19  1  0  0  0
 17 20  1  0  0  0
 20 21  1  0  0  0
 20 22  2  0  0  0
  4  8  1  0  0  0
  8  9  1  0  0  0
  9 10  1  0  0  0
 10 11  1  0  0  0
 10 12  1  0  0  0
  8 13  2  0  0  0
 13  1  1  0  0  0
 10  7  1  0  0  0
 21 23  1  0  0  0
M  END
> <minimizedAffinity>
-3.87272

> <CNNscore>
0.4476832449

> <CNNaffinity>
3.7470710278

> <CNN_VS>
1.6775009632

> <CNNaffinity_variance>
0.0630252436

$$$$
[H]OC(=O)C(O[C@@]1([H])OC([H])([H])c2c([H])c([H])c(OC([H])([H])[H])c([H])c2OC1(C([H])([H])[H])C([H])([H])[H])(C([H])([H])[H])C([H])([H])[H]


 23 24  0  0  0  0  0  0  0  0999 V2000
   36.8237  -14.6279   37.4004 C   0  0  0  0  0  0  0  0  0  0  0  0
   35.9802  -14.0858   36.4582 C   0  0  0  0  0  0  0  0  0  0  0  0
   34.9984  -14.8498   35.8080 C   0  0  0  0  0  0  0  0  0  0  0  0
   34.9267  -16.1530   36.1595 C   0  0  0  0  0  0  0  0  0  0  0  0
   33.8475  -16.8541   35.4126 C   0  0  0  0  0  0  0  0  0  0  0  0
   33.3679  -17.9372   36.1922 O   0  0  0  0  0  0  0  0  0  0  0  0
   34.0661  -19.1241   35.9328 C   0  0  0  0  0  0  0  0  0  0  0  0
   35.7426  -16.7424   37.0913 C   0  0  0  0  0  0  0  0  0  0  0  0
   35.6819  -18.0762   37.4618 O   0  0  0  0  0  0  0  0  0  0  0  0
   35.3738  -19.2124   36.6660 C   0  0  0  0  0  0  0  0  0  0  0  0
   36.4724  -19.4943   35.6768 C   0  0  0  0  0  0  0  0  0  0  0  0
   35.3177  -20.3904   37.6466 C   0  0  0  0  0  0  0  0  0  0  0  0
   36.6828  -15.9730   37.7021 C   0  0  0  0  0  0  0  0  0  0  0  0
   38.6141  -12.9506   37.3669 C   0  0  0  0  0  0  0  0  0  0  0  0
   37.7834  -13.8650   38.0310 O   0  0  0  0  0  0  0  0  0  0  0  0
   33.3529  -20.2360   36.1981 O   0  0  0  0  0  0  0  0  0  0  0  0
   32.4727  -20.7883   35.3739 C   0  0  0  0  0  0  0  0  0  0  0  0
   32.6280  -22.2953   35.3474 C   0  0  0  0  0  0  0  0  0  0  0  0
   31.0603  -20.5851   35.9913 C   0  0  0  0  0  0  0  0  0  0  0  0
   32.4652  -20.3568   33.9808 C   0  0  0  0  0  0  0  0  0  0  0  0
   33.4594  -20.7756   33.1253 O   0  0  0  0  0  0  0  0  0  0  0  0
   31.5681  -19.6112   33.5522 O   0  0  0  0  0  0  0  0  0  0  0  0
   33.1526  -21.2284   32.2505 H   0  0  0  0  0  0  0  0  0  0  0  0
 14 15  1  0  0  0
 15  1  1  0  0  0
  1  2  2  0  0  0
  2  3  1  0  0  0
  3  4  2  0  0  0
  4  5  1  0  0  0
  5  6  1  0  0  0
  6  7  1  0  0  0
  7 16  1  0  0  0
 16 17  1  0  0  0
 17 18  1  0  0  0
 17 19  1  0  0  0
 17 20  1  0  0  0
 20 21  1  0  0  0
 20 22  2  0  0  0
  4  8  1  0  0  0
  8  9  1  0  0  0
  9 10  1  0  0  0
 10 11  1  0  0  0
 10 12  1  0  0  0
  8 13  2  0  0  0
 13  1  1  0  0  0
 10  7  1  0  0  0
 21 23  1  0  0  0
M  END
> <minimizedAffinity>
-6.20110

> <CNNscore>
0.4104021788

> <CNNaffinity>
4.0261621475

> <CNN_VS>
1.6523457766

> <CNNaffinity_variance>
0.1511305571

$$$$
[H]OC(=O)C(O[C@@]1([H])OC([H])([H])c2c([H])c([H])c(OC([H])([H])[H])c([H])c2OC1(C([H])([H])[H])C([H])([H])[H])(C([H])([H])[H])C([H])([H])[H]


 23 24  0  0  0  0  0  0  0  0999 V2000
   41.5010  -19.1660   36.2361 C   0  0  0  0  0  0  0  0  0  0  0  0
   40.8411  -18.9208   35.0539 C   0  0  0  0  0  0  0  0  0  0  0  0
   39.4665  -19.1612   34.9028 C   0  0  0  0  0  0  0  0  0  0  0  0
   38.8236  -19.6491   35.9871 C   0  0  0  0  0  0  0  0  0  0  0  0
   37.3763  -19.8540   35.7085 C   0  0  0  0  0  0  0  0  0  0  0  0
   36.6460  -19.7296   36.9178 O   0  0  0  0  0  0  0  0  0  0  0  0
   36.5046  -20.9576   37.5777 C   0  0  0  0  0  0  0  0  0  0  0  0
   39.4333  -19.9110   37.1875 C   0  0  0  0  0  0  0  0  0  0  0  0
   38.7885  -20.4114   38.3071 O   0  0  0  0  0  0  0  0  0  0  0  0
   37.7148  -21.3392   38.3810 C   0  0  0  0  0  0  0  0  0  0  0  0
   38.1609  -22.7169   37.9711 C   0  0  0  0  0  0  0  0  0  0  0  0
   37.3309  -21.3972   39.8649 C   0  0  0  0  0  0  0  0  0  0  0  0
   40.7662  -19.6663   37.2991 C   0  0  0  0  0  0  0  0  0  0  0  0
   43.3850  -17.7327   36.8812 C   0  0  0  0  0  0  0  0  0  0  0  0
   42.8518  -18.9248   36.3696 O   0  0  0  0  0  0  0  0  0  0  0  0
   35.4245  -21.0146   38.3811 O   0  0  0  0  0  0  0  0  0  0  0  0
   34.2702  -21.5849   38.0624 C   0  0  0  0  0  0  0  0  0  0  0  0
   33.4384  -20.6700   37.1867 C   0  0  0  0  0  0  0  0  0  0  0  0
   34.5834  -22.7873   37.1277 C   0  0  0  0  0  0  0  0  0  0  0  0
   33.3928  -22.0199   39.1431 C   0  0  0  0  0  0  0  0  0  0  0  0
   32.6869  -23.1962   39.0252 O   0  0  0  0  0  0  0  0  0  0  0  0
   33.2726  -21.3392   40.1758 O   0  0  0  0  0  0  0  0  0  0  0  0
   32.7994  -23.8786   39.7907 H   0  0  0  0  0  0  0  0  0  0  0  0
 14 15  1  0  0  0
 15  1  1  0  0  0
  1  2  2  0  0  0
  2  3  1  0  0  0
  3  4  2  0  0  0
  4  5  1  0  0  0
  5  6  1  0  0  0
  6  7  1  0  0  0
  7 16  1  0  0  0
 16 17  1  0  0  0
 17 18  1  0  0  0
 17 19  1  0  0  0
 17 20  1  0  0  0
 20 21  1  0  0  0
 20 22  2  0  0  0
  4  8  1  0  0  0
  8  9  1  0  0  0
  9 10  1  0  0  0
 10 11  1  0  0  0
 10 12  1  0  0  0
  8 13  2  0  0  0
 13  1  1  0  0  0
 10  7  1  0  0  0
 21 23  1  0  0  0
M  END
> <minimizedAffinity>
-3.44635

> <CNNscore>
0.3932660520

> <CNNaffinity>
3.5905139446

> <CNN_VS>
1.4120272398

> <CNNaffinity_variance>
0.1321471930

$$$$
[H]OC(=O)c1c([H])c([H])c([H])c(C([H])([H])c2c([H])c([H])c(SC([H])([H])[H])c([H])c2[H])c1C([H])([H])[H]


 20 21  0  0  0  0  0  0  0  0999 V2000
   32.4008  -19.8293   34.9432 C   0  0  0  0  0  0  0  0  0  0  0  0
   31.2949  -19.1043   34.4801 C   0  0  0  0  0  0  0  0  0  0  0  0
   30.0113  -19.4289   34.8439 C   0  0  0  0  0  0  0  0  0  0  0  0
   29.8257  -20.4931   35.6817 C   0  0  0  0  0  0  0  0  0  0  0  0
   30.9261  -21.2330   36.1584 C   0  0  0  0  0  0  0  0  0  0  0  0
   32.2060  -20.8815   35.7769 C   0  0  0  0  0  0  0  0  0  0  0  0
   33.3202  -21.6459   36.3560 C   0  0  0  0  0  0  0  0  0  0  0  0
   30.5992  -22.3587   37.0291 C   0  0  0  0  0  0  0  0  0  0  0  0
   30.4820  -23.6602   36.5023 O   0  0  0  0  0  0  0  0  0  0  0  0
   30.4155  -22.2162   38.2439 O   0  0  0  0  0  0  0  0  0  0  0  0
   29.5997  -24.1585   36.6804 H   0  0  0  0  0  0  0  0  0  0  0  0
   33.7196  -19.4394   34.4168 C   0  0  0  0  0  0  0  0  0  0  0  0
   35.7039  -16.3666   36.7332 C   0  0  0  0  0  0  0  0  0  0  0  0
   36.1594  -17.6858   36.6977 C   0  0  0  0  0  0  0  0  0  0  0  0
   35.5099  -18.6379   35.9579 C   0  0  0  0  0  0  0  0  0  0  0  0
   34.3600  -18.3483   35.1991 C   0  0  0  0  0  0  0  0  0  0  0  0
   33.9319  -17.0612   35.2448 C   0  0  0  0  0  0  0  0  0  0  0  0
   34.5829  -16.0740   35.9960 C   0  0  0  0  0  0  0  0  0  0  0  0
   36.1287  -13.5155   37.0841 C   0  0  0  0  0  0  0  0  0  0  0  0
   36.5750  -15.1583   37.7045 S   0  0  0  0  0  0  0  0  0  0  0  0
 19 20  1  0  0  0
 20 13  1  0  0  0
 13 14  2  0  0  0
 14 15  1  0  0  0
 15 16  2  0  0  0
 16 12  1  0  0  0
 12  1  1  0  0  0
  1  2  2  0  0  0
  2  3  1  0  0  0
  3  4  2  0  0  0
  4  5  1  0  0  0
  5  6  2  0  0  0
  6  7  1  0  0  0
  5  8  1  0  0  0
  8  9  1  0  0  0
  8 10  2  0  0  0
 16 17  1  0  0  0
 17 18  2  0  0  0
 18 13  1  0  0  0
  6  1  1  0  0  0
  9 11  1  0  0  0
M  END
> <minimizedAffinity>
-5.45095

> <CNNscore>
0.7693274021

> <CNNaffinity>
4.0761919022

> <CNN_VS>
3.1359260082

> <CNNaffinity_variance>
0.5639175177

$$$$
[H]OC(=O)c1c([H])c([H])c([H])c(C([H])([H])c2c([H])c([H])c(SC([H])([H])[H])c([H])c2[H])c1C([H])([H])[H]


 20 21  0  0  0  0  0  0  0  0999 V2000
   34.7552  -19.1755   35.3479 C   0  0  0  0  0  0  0  0  0  0  0  0
   34.2765  -19.2110   34.0316 C   0  0  0  0  0  0  0  0  0  0  0  0
   33.2584  -20.0509   33.6528 C   0  0  0  0  0  0  0  0  0  0  0  0
   32.7087  -20.8694   34.5998 C   0  0  0  0  0  0  0  0  0  0  0  0
   33.1766  -20.8466   35.9287 C   0  0  0  0  0  0  0  0  0  0  0  0
   34.2006  -19.9894   36.2807 C   0  0  0  0  0  0  0  0  0  0  0  0
   34.6042  -19.9595   37.6940 C   0  0  0  0  0  0  0  0  0  0  0  0
   32.5250  -21.7807   36.8425 C   0  0  0  0  0  0  0  0  0  0  0  0
   31.3288  -21.4249   37.4967 O   0  0  0  0  0  0  0  0  0  0  0  0
   32.9900  -22.9031   37.0744 O   0  0  0  0  0  0  0  0  0  0  0  0
   31.3207  -21.4900   38.5234 H   0  0  0  0  0  0  0  0  0  0  0  0
   35.9060  -18.2962   35.6138 C   0  0  0  0  0  0  0  0  0  0  0  0
   34.9077  -14.2030   36.6114 C   0  0  0  0  0  0  0  0  0  0  0  0
   36.1911  -14.7230   36.7890 C   0  0  0  0  0  0  0  0  0  0  0  0
   36.4777  -16.0229   36.4670 C   0  0  0  0  0  0  0  0  0  0  0  0
   35.5094  -16.9012   35.9447 C   0  0  0  0  0  0  0  0  0  0  0  0
   34.2679  -16.3788   35.7781 C   0  0  0  0  0  0  0  0  0  0  0  0
   33.9560  -15.0520   36.1021 C   0  0  0  0  0  0  0  0  0  0  0  0
   33.1133  -12.4812   38.1106 C   0  0  0  0  0  0  0  0  0  0  0  0
   34.5747  -12.5096   37.0399 S   0  0  0  0  0  0  0  0  0  0  0  0
 19 20  1  0  0  0
 20 13  1  0  0  0
 13 14  2  0  0  0
 14 15  1  0  0  0
 15 16  2  0  0  0
 16 12  1  0  0  0
 12  1  1  0  0  0
  1  2  2  0  0  0
  2  3  1  0  0  0
  3  4  2  0  0  0
  4  5  1  0  0  0
  5  6  2  0  0  0
  6  7  1  0  0  0
  5  8  1  0  0  0
  8  9  1  0  0  0
  8 10  2  0  0  0
 16 17  1  0  0  0
 17 18  2  0  0  0
 18 13  1  0  0  0
  6  1  1  0  0  0
  9 11  1  0  0  0
M  END
> <minimizedAffinity>
-5.70565

> <CNNscore>
0.6072433591

> <CNNaffinity>
4.1529316902

> <CNN_VS>
2.5218400955

> <CNNaffinity_variance>
0.4124248624

$$$$
[H]OC(=O)c1c([H])c([H])c([H])c(C([H])([H])c2c([H])c([H])c(SC([H])([H])[H])c([H])c2[H])c1C([H])([H])[H]


 20 21  0  0  0  0  0  0  0  0999 V2000
   35.3388  -17.7856   35.5025 C   0  0  0  0  0  0  0  0  0  0  0  0
   34.6690  -18.0260   34.2956 C   0  0  0  0  0  0  0  0  0  0  0  0
   33.9163  -19.1571   34.0969 C   0  0  0  0  0  0  0  0  0  0  0  0
   33.8297  -20.0639   35.1162 C   0  0  0  0  0  0  0  0  0  0  0  0
   34.4955  -19.8384   36.3374 C   0  0  0  0  0  0  0  0  0  0  0  0
   35.2436  -18.6902   36.5088 C   0  0  0  0  0  0  0  0  0  0  0  0
   35.8623  -18.4742   37.8249 C   0  0  0  0  0  0  0  0  0  0  0  0
   34.3445  -20.8881   37.3411 C   0  0  0  0  0  0  0  0  0  0  0  0
   33.3006  -20.8299   38.2857 O   0  0  0  0  0  0  0  0  0  0  0  0
   35.1144  -21.8543   37.4004 O   0  0  0  0  0  0  0  0  0  0  0  0
   33.5661  -20.8756   39.2786 H   0  0  0  0  0  0  0  0  0  0  0  0
   36.1827  -16.5806   35.5664 C   0  0  0  0  0  0  0  0  0  0  0  0
   34.2119  -13.0307   37.0696 C   0  0  0  0  0  0  0  0  0  0  0  0
   35.6014  -13.1659   37.0604 C   0  0  0  0  0  0  0  0  0  0  0  0
   36.1976  -14.3018   36.5810 C   0  0  0  0  0  0  0  0  0  0  0  0
   35.4562  -15.3866   36.0756 C   0  0  0  0  0  0  0  0  0  0  0  0
   34.1074  -15.2376   36.0917 C   0  0  0  0  0  0  0  0  0  0  0  0
   33.4798  -14.0835   36.5784 C   0  0  0  0  0  0  0  0  0  0  0  0
   31.6754  -11.7075   37.5671 C   0  0  0  0  0  0  0  0  0  0  0  0
   33.4747  -11.5398   37.6989 S   0  0  0  0  0  0  0  0  0  0  0  0
 19 20  1  0  0  0
 20 13  1  0  0  0
 13 14  2  0  0  0
 14 15  1  0  0  0
 15 16  2  0  0  0
 16 12  1  0  0  0
 12  1  1  0  0  0
  1  2  2  0  0  0
  2  3  1  0  0  0
  3  4  2  0  0  0
  4  5  1  0  0  0
  5  6  2  0  0  0
  6  7  1  0  0  0
  5  8  1  0  0  0
  8  9  1  0  0  0
  8 10  2  0  0  0
 16 17  1  0  0  0
 17 18  2  0  0  0
 18 13  1  0  0  0
  6  1  1  0  0  0
  9 11  1  0  0  0
M  END
> <minimizedAffinity>
-6.21277

> <CNNscore>
0.5693243146

> <CNNaffinity>
4.1678538322

> <CNN_VS>
2.3728604317

> <CNNaffinity_variance>
0.6260069013

$$$$
[H]OC(=O)c1c([H])c([H])c([H])c(C([H])([H])c2c([H])c([H])c(SC([H])([H])[H])c([H])c2[H])c1C([H])([H])[H]


 20 21  0  0  0  0  0  0  0  0999 V2000
   31.7383  -20.5812   34.6901 C   0  0  0  0  0  0  0  0  0  0  0  0
   30.8959  -19.4641   34.7659 C   0  0  0  0  0  0  0  0  0  0  0  0
   29.6102  -19.5564   35.2391 C   0  0  0  0  0  0  0  0  0  0  0  0
   29.1556  -20.7809   35.6426 C   0  0  0  0  0  0  0  0  0  0  0  0
   29.9890  -21.9151   35.5747 C   0  0  0  0  0  0  0  0  0  0  0  0
   31.2785  -21.7910   35.0962 C   0  0  0  0  0  0  0  0  0  0  0  0
   32.1252  -22.9928   35.1093 C   0  0  0  0  0  0  0  0  0  0  0  0
   29.3839  -23.1692   36.0143 C   0  0  0  0  0  0  0  0  0  0  0  0
   28.7627  -24.0280   35.0859 O   0  0  0  0  0  0  0  0  0  0  0  0
   29.3929  -23.5214   37.1999 O   0  0  0  0  0  0  0  0  0  0  0  0
   27.7863  -24.2918   35.2743 H   0  0  0  0  0  0  0  0  0  0  0  0
   33.0653  -20.3739   34.0865 C   0  0  0  0  0  0  0  0  0  0  0  0
   35.6040  -17.6662   36.3157 C   0  0  0  0  0  0  0  0  0  0  0  0
   35.1968  -17.4007   35.0070 C   0  0  0  0  0  0  0  0  0  0  0  0
   34.3954  -18.2770   34.3248 C   0  0  0  0  0  0  0  0  0  0  0  0
   33.9397  -19.4815   34.8937 C   0  0  0  0  0  0  0  0  0  0  0  0
   34.3447  -19.7228   36.1664 C   0  0  0  0  0  0  0  0  0  0  0  0
   35.1646  -18.8387   36.8797 C   0  0  0  0  0  0  0  0  0  0  0  0
   35.7798  -14.9114   37.2168 C   0  0  0  0  0  0  0  0  0  0  0  0
   36.6438  -16.5033   37.1692 S   0  0  0  0  0  0  0  0  0  0  0  0
 19 20  1  0  0  0
 20 13  1  0  0  0
 13 14  2  0  0  0
 14 15  1  0  0  0
 15 16  2  0  0  0
 16 12  1  0  0  0
 12  1  1  0  0  0
  1  2  2  0  0  0
  2  3  1  0  0  0
  3  4  2  0  0  0
  4  5  1  0  0  0
  5  6  2  0  0  0
  6  7  1  0  0  0
  5  8  1  0  0  0
  8  9  1  0  0  0
  8 10  2  0  0  0
 16 17  1  0  0  0
 17 18  2  0  0  0
 18 13  1  0  0  0
  6  1  1  0  0  0
  9 11  1  0  0  0
M  END
> <minimizedAffinity>
-5.04167

> <CNNscore>
0.5615732670

> <CNNaffinity>
3.8309903145

> <CNN_VS>
2.1513817310

> <CNNaffinity_variance>
0.6490827799

$$$$
[H]OC(=O)c1c([H])c([H])c([H])c(C([H])([H])c2c([H])c([H])c(SC([H])([H])[H])c([H])c2[H])c1C([H])([H])[H]


 20 21  0  0  0  0  0  0  0  0999 V2000
   33.6132  -18.2238   34.6100 C   0  0  0  0  0  0  0  0  0  0  0  0
   33.2133  -16.8913   34.7762 C   0  0  0  0  0  0  0  0  0  0  0  0
   33.8778  -16.0347   35.6189 C   0  0  0  0  0  0  0  0  0  0  0  0
   34.9574  -16.5129   36.3078 C   0  0  0  0  0  0  0  0  0  0  0  0
   35.3747  -17.8497   36.1524 C   0  0  0  0  0  0  0  0  0  0  0  0
   34.6878  -18.6874   35.2958 C   0  0  0  0  0  0  0  0  0  0  0  0
   35.2060  -20.0522   35.1216 C   0  0  0  0  0  0  0  0  0  0  0  0
   36.5266  -18.2482   36.9565 C   0  0  0  0  0  0  0  0  0  0  0  0
   36.3588  -19.0693   38.0892 O   0  0  0  0  0  0  0  0  0  0  0  0
   37.6764  -17.8865   36.6792 O   0  0  0  0  0  0  0  0  0  0  0  0
   36.7302  -18.7161   38.9812 H   0  0  0  0  0  0  0  0  0  0  0  0
   32.7718  -19.0679   33.7451 C   0  0  0  0  0  0  0  0  0  0  0  0
   29.6806  -21.1690   35.9304 C   0  0  0  0  0  0  0  0  0  0  0  0
   29.5494  -19.8317   35.5515 C   0  0  0  0  0  0  0  0  0  0  0  0
   30.5451  -19.1915   34.8628 C   0  0  0  0  0  0  0  0  0  0  0  0
   31.7442  -19.8338   34.5001 C   0  0  0  0  0  0  0  0  0  0  0  0
   31.8542  -21.1333   34.8759 C   0  0  0  0  0  0  0  0  0  0  0  0
   30.8468  -21.8045   35.5810 C   0  0  0  0  0  0  0  0  0  0  0  0
   27.8187  -23.3959   35.8530 C   0  0  0  0  0  0  0  0  0  0  0  0
   28.3652  -21.9663   36.8227 S   0  0  0  0  0  0  0  0  0  0  0  0
 19 20  1  0  0  0
 20 13  1  0  0  0
 13 14  2  0  0  0
 14 15  1  0  0  0
 15 16  2  0  0  0
 16 12  1  0  0  0
 12  1  1  0  0  0
  1  2  2  0  0  0
  2  3  1  0  0  0
  3  4  2  0  0  0
  4  5  1  0  0  0
  5  6  2  0  0  0
  6  7  1  0  0  0
  5  8  1  0  0  0
  8  9  1  0  0  0
  8 10  2  0  0  0
 16 17  1  0  0  0
 17 18  2  0  0  0
 18 13  1  0  0  0
  6  1  1  0  0  0
  9 11  1  0  0  0
M  END
> <minimizedAffinity>
-4.22747

> <CNNscore>
0.5204794407

> <CNNaffinity>
3.8103625774

> <CNN_VS>
1.9832153320

> <CNNaffinity_variance>
0.4262565970

$$$$
[H]OC(=O)c1c([H])c([H])c([H])c(C([H])([H])c2c([H])c([H])c(SC([H])([H])[H])c([H])c2[H])c1C([H])([H])[H]


 20 21  0  0  0  0  0  0  0  0999 V2000
   35.0978  -17.5866   34.9475 C   0  0  0  0  0  0  0  0  0  0  0  0
   34.7951  -16.5602   35.8518 C   0  0  0  0  0  0  0  0  0  0  0  0
   35.6259  -16.2486   36.8997 C   0  0  0  0  0  0  0  0  0  0  0  0
   36.7765  -16.9714   37.0501 C   0  0  0  0  0  0  0  0  0  0  0  0
   37.0979  -18.0065   36.1496 C   0  0  0  0  0  0  0  0  0  0  0  0
   36.2437  -18.2956   35.1036 C   0  0  0  0  0  0  0  0  0  0  0  0
   36.6603  -19.3402   34.1567 C   0  0  0  0  0  0  0  0  0  0  0  0
   38.3420  -18.7192   36.4264 C   0  0  0  0  0  0  0  0  0  0  0  0
   39.5453  -18.3248   35.8085 O   0  0  0  0  0  0  0  0  0  0  0  0
   38.3876  -19.6817   37.2019 O   0  0  0  0  0  0  0  0  0  0  0  0
   40.0576  -19.0446   35.2814 H   0  0  0  0  0  0  0  0  0  0  0  0
   34.0896  -17.8833   33.9161 C   0  0  0  0  0  0  0  0  0  0  0  0
   31.2805  -20.9455   35.1314 C   0  0  0  0  0  0  0  0  0  0  0  0
   31.1491  -19.6128   35.5260 C   0  0  0  0  0  0  0  0  0  0  0  0
   32.0547  -18.6656   35.1284 C   0  0  0  0  0  0  0  0  0  0  0  0
   33.1573  -18.9737   34.3091 C   0  0  0  0  0  0  0  0  0  0  0  0
   33.2689  -20.2734   33.9347 C   0  0  0  0  0  0  0  0  0  0  0  0
   32.3528  -21.2561   34.3318 C   0  0  0  0  0  0  0  0  0  0  0  0
   28.8297  -21.2849   36.6516 C   0  0  0  0  0  0  0  0  0  0  0  0
   30.0834  -22.1464   35.6671 S   0  0  0  0  0  0  0  0  0  0  0  0
 19 20  1  0  0  0
 20 13  1  0  0  0
 13 14  2  0  0  0
 14 15  1  0  0  0
 15 16  2  0  0  0
 16 12  1  0  0  0
 12  1  1  0  0  0
  1  2  2  0  0  0
  2  3  1  0  0  0
  3  4  2  0  0  0
  4  5  1  0  0  0
  5  6  2  0  0  0
  6  7  1  0  0  0
  5  8  1  0  0  0
  8  9  1  0  0  0
  8 10  2  0  0  0
 16 17  1  0  0  0
 17 18  2  0  0  0
 18 13  1  0  0  0
  6  1  1  0  0  0
  9 11  1  0  0  0
M  END
> <minimizedAffinity>
-5.35681

> <CNNscore>
0.4708117247

> <CNNaffinity>
3.8488998413

> <CNN_VS>
1.8121072054

> <CNNaffinity_variance>
0.6642825603

$$$$
[H]OC(=O)c1c([H])c([H])c([H])c(C([H])([H])c2c([H])c([H])c(SC([H])([H])[H])c([H])c2[H])c1C([H])([H])[H]


 20 21  0  0  0  0  0  0  0  0999 V2000
   35.5438  -17.8223   36.2143 C   0  0  0  0  0  0  0  0  0  0  0  0
   36.1025  -18.1621   37.4534 C   0  0  0  0  0  0  0  0  0  0  0  0
   35.6433  -19.2272   38.1882 C   0  0  0  0  0  0  0  0  0  0  0  0
   34.6104  -19.9656   37.6814 C   0  0  0  0  0  0  0  0  0  0  0  0
   34.0369  -19.6394   36.4363 C   0  0  0  0  0  0  0  0  0  0  0  0
   34.5214  -18.5635   35.7188 C   0  0  0  0  0  0  0  0  0  0  0  0
   33.9307  -18.3087   34.3968 C   0  0  0  0  0  0  0  0  0  0  0  0
   32.9275  -20.4885   36.0114 C   0  0  0  0  0  0  0  0  0  0  0  0
   33.1628  -21.6299   35.2195 O   0  0  0  0  0  0  0  0  0  0  0  0
   31.7566  -20.2432   36.3251 O   0  0  0  0  0  0  0  0  0  0  0  0
   32.6484  -21.6962   34.3310 H   0  0  0  0  0  0  0  0  0  0  0  0
   36.0634  -16.6096   35.5603 C   0  0  0  0  0  0  0  0  0  0  0  0
   34.2341  -13.0151   37.1348 C   0  0  0  0  0  0  0  0  0  0  0  0
   33.4967  -14.0020   36.4781 C   0  0  0  0  0  0  0  0  0  0  0  0
   34.1026  -15.1281   35.9878 C   0  0  0  0  0  0  0  0  0  0  0  0
   35.4861  -15.3557   36.1144 C   0  0  0  0  0  0  0  0  0  0  0  0
   36.1869  -14.3866   36.7558 C   0  0  0  0  0  0  0  0  0  0  0  0
   35.5847  -13.2281   37.2636 C   0  0  0  0  0  0  0  0  0  0  0  0
   31.6268  -11.8097   37.5601 C   0  0  0  0  0  0  0  0  0  0  0  0
   33.4114  -11.5675   37.7589 S   0  0  0  0  0  0  0  0  0  0  0  0
 19 20  1  0  0  0
 20 13  1  0  0  0
 13 14  2  0  0  0
 14 15  1  0  0  0
 15 16  2  0  0  0
 16 12  1  0  0  0
 12  1  1  0  0  0
  1  2  2  0  0  0
  2  3  1  0  0  0
  3  4  2  0  0  0
  4  5  1  0  0  0
  5  6  2  0  0  0
  6  7  1  0  0  0
  5  8  1  0  0  0
  8  9  1  0  0  0
  8 10  2  0  0  0
 16 17  1  0  0  0
 17 18  2  0  0  0
 18 13  1  0  0  0
  6  1  1  0  0  0
  9 11  1  0  0  0
M  END
> <minimizedAffinity>
-6.66245

> <CNNscore>
0.4599386156

> <CNNaffinity>
4.1609869003

> <CNN_VS>
1.9137985706

> <CNNaffinity_variance>
0.5728946924

$$$$
[H]OC(=O)c1c([H])c([H])c([H])c(C([H])([H])c2c([H])c([H])c(SC([H])([H])[H])c([H])c2[H])c1C([H])([H])[H]


 20 21  0  0  0  0  0  0  0  0999 V2000
   33.6300  -18.8896   35.4664 C   0  0  0  0  0  0  0  0  0  0  0  0
   32.8979  -18.6138   34.3041 C   0  0  0  0  0  0  0  0  0  0  0  0
   32.0012  -19.5128   33.7815 C   0  0  0  0  0  0  0  0  0  0  0  0
   31.8313  -20.7063   34.4262 C   0  0  0  0  0  0  0  0  0  0  0  0
   32.5580  -21.0005   35.5970 C   0  0  0  0  0  0  0  0  0  0  0  0
   33.4514  -20.0755   36.1004 C   0  0  0  0  0  0  0  0  0  0  0  0
   34.1332  -20.4070   37.3601 C   0  0  0  0  0  0  0  0  0  0  0  0
   32.3054  -22.3142   36.1823 C   0  0  0  0  0  0  0  0  0  0  0  0
   33.0990  -23.4219   35.8236 O   0  0  0  0  0  0  0  0  0  0  0  0
   31.3996  -22.5032   37.0030 O   0  0  0  0  0  0  0  0  0  0  0  0
   32.6079  -24.2518   35.4650 H   0  0  0  0  0  0  0  0  0  0  0  0
   34.6223  -17.8842   35.8819 C   0  0  0  0  0  0  0  0  0  0  0  0
   38.7326  -19.0243   35.1391 C   0  0  0  0  0  0  0  0  0  0  0  0
   38.3018  -18.5505   36.3797 C   0  0  0  0  0  0  0  0  0  0  0  0
   36.9954  -18.1946   36.5853 C   0  0  0  0  0  0  0  0  0  0  0  0
   36.0214  -18.2838   35.5727 C   0  0  0  0  0  0  0  0  0  0  0  0
   36.4577  -18.7468   34.3739 C   0  0  0  0  0  0  0  0  0  0  0  0
   37.7897  -19.1151   34.1448 C   0  0  0  0  0  0  0  0  0  0  0  0
   41.0806  -18.5405   33.5005 C   0  0  0  0  0  0  0  0  0  0  0  0
   40.4368  -19.4778   34.9112 S   0  0  0  0  0  0  0  0  0  0  0  0
 19 20  1  0  0  0
 20 13  1  0  0  0
 13 14  2  0  0  0
 14 15  1  0  0  0
 15 16  2  0  0  0
 16 12  1  0  0  0
 12  1  1  0  0  0
  1  2  2  0  0  0
  2  3  1  0  0  0
  3  4  2  0  0  0
  4  5  1  0  0  0
  5  6  2  0  0  0
  6  7  1  0  0  0
  5  8  1  0  0  0
  8  9  1  0  0  0
  8 10  2  0  0  0
 16 17  1  0  0  0
 17 18  2  0  0  0
 18 13  1  0  0  0
  6  1  1  0  0  0
  9 11  1  0  0  0
M  END
> <minimizedAffinity>
-4.91632

> <CNNscore>
0.4518593550

> <CNNaffinity>
3.7909579277

> <CNN_VS>
1.7129797935

> <CNNaffinity_variance>
0.5075703263

$$$$
[H]OC(=O)c1c([H])c([H])c([H])c(C([H])([H])c2c([H])c([H])c(SC([H])([H])[H])c([H])c2[H])c1C([H])([H])[H]


 20 21  0  0  0  0  0  0  0  0999 V2000
   34.3986  -19.4377   35.6583 C   0  0  0  0  0  0  0  0  0  0  0  0
   34.9366  -19.8143   36.8960 C   0  0  0  0  0  0  0  0  0  0  0  0
   34.2507  -20.6221   37.7691 C   0  0  0  0  0  0  0  0  0  0  0  0
   33.0085  -21.0613   37.4044 C   0  0  0  0  0  0  0  0  0  0  0  0
   32.4519  -20.6937   36.1632 C   0  0  0  0  0  0  0  0  0  0  0  0
   33.1666  -19.8818   35.3046 C   0  0  0  0  0  0  0  0  0  0  0  0
   32.5664  -19.5839   33.9960 C   0  0  0  0  0  0  0  0  0  0  0  0
   31.1115  -21.2079   35.8963 C   0  0  0  0  0  0  0  0  0  0  0  0
   29.9736  -20.4495   36.2358 O   0  0  0  0  0  0  0  0  0  0  0  0
   30.9254  -22.3116   35.3701 O   0  0  0  0  0  0  0  0  0  0  0  0
   29.2761  -20.9000   36.8432 H   0  0  0  0  0  0  0  0  0  0  0  0
   35.1918  -18.5005   34.8456 C   0  0  0  0  0  0  0  0  0  0  0  0
   35.0084  -14.4661   36.4061 C   0  0  0  0  0  0  0  0  0  0  0  0
   33.8675  -15.1649   36.0074 C   0  0  0  0  0  0  0  0  0  0  0  0
   33.9558  -16.4397   35.5148 C   0  0  0  0  0  0  0  0  0  0  0  0
   35.1849  -17.1133   35.3825 C   0  0  0  0  0  0  0  0  0  0  0  0
   36.2830  -16.4193   35.7754 C   0  0  0  0  0  0  0  0  0  0  0  0
   36.2123  -15.1148   36.2812 C   0  0  0  0  0  0  0  0  0  0  0  0
   33.3494  -12.7410   38.0504 C   0  0  0  0  0  0  0  0  0  0  0  0
   34.8530  -12.8127   37.0420 S   0  0  0  0  0  0  0  0  0  0  0  0
 19 20  1  0  0  0
 20 13  1  0  0  0
 13 14  2  0  0  0
 14 15  1  0  0  0
 15 16  2  0  0  0
 16 12  1  0  0  0
 12  1  1  0  0  0
  1  2  2  0  0  0
  2  3  1  0  0  0
  3  4  2  0  0  0
  4  5  1  0  0  0
  5  6  2  0  0  0
  6  7  1  0  0  0
  5  8  1  0  0  0
  8  9  1  0  0  0
  8 10  2  0  0  0
 16 17  1  0  0  0
 17 18  2  0  0  0
 18 13  1  0  0  0
  6  1  1  0  0  0
  9 11  1  0  0  0
M  END
> <minimizedAffinity>
-5.71403

> <CNNscore>
0.4244078994

> <CNNaffinity>
4.0168266296

> <CNN_VS>
1.7047729492

> <CNNaffinity_variance>
0.5179919600

$$$$
[H]OC(=O)C(=NN([H])S(=O)(=O)c1c([H])c([H])c(OC([H])([H])[H])c(OC([H])([H])[H])c1[H])/C([H])=C(\[H])c1c([H])c([H])c(F)c([H])c1[H]


 30 31  0  0  0  0  0  0  0  0999 V2000
   30.4911  -20.3150   35.0988 N   0  0  0  0  0  0  0  0  0  0  0  0
   30.6376  -20.7068   34.1437 H   0  0  0  0  0  0  0  0  0  0  0  0
   29.3782  -21.1159   36.1241 S   0  0  0  0  0  0  0  0  0  0  0  0
   28.4605  -21.9632   35.2748 O   0  0  0  0  0  0  0  0  0  0  0  0
   28.5124  -20.1205   36.8610 O   0  0  0  0  0  0  0  0  0  0  0  0
   31.4587  -23.7161   39.2454 C   0  0  0  0  0  0  0  0  0  0  0  0
   32.1698  -22.9682   38.3332 C   0  0  0  0  0  0  0  0  0  0  0  0
   31.5667  -22.1797   37.3864 C   0  0  0  0  0  0  0  0  0  0  0  0
   30.2035  -22.1018   37.3073 C   0  0  0  0  0  0  0  0  0  0  0  0
   29.4702  -22.8463   38.2155 C   0  0  0  0  0  0  0  0  0  0  0  0
   30.0727  -23.6424   39.1715 C   0  0  0  0  0  0  0  0  0  0  0  0
   32.7535  -23.8699   41.2531 C   0  0  0  0  0  0  0  0  0  0  0  0
   32.0646  -24.5147   40.2045 O   0  0  0  0  0  0  0  0  0  0  0  0
   29.3209  -24.3893   40.0832 O   0  0  0  0  0  0  0  0  0  0  0  0
   27.9450  -24.0962   40.2074 C   0  0  0  0  0  0  0  0  0  0  0  0
   31.1863  -19.1882   35.5101 N   0  0  0  0  0  0  0  0  0  0  0  0
   32.4463  -19.0515   35.4032 C   0  0  0  0  0  0  0  0  0  0  0  0
   33.2625  -20.0892   34.8301 C   0  0  0  0  0  0  0  0  0  0  0  0
   34.1167  -20.9306   35.5050 O   0  0  0  0  0  0  0  0  0  0  0  0
   33.2127  -20.2752   33.5654 O   0  0  0  0  0  0  0  0  0  0  0  0
   34.2654  -21.8958   35.3086 H   0  0  0  0  0  0  0  0  0  0  0  0
   33.0832  -17.8265   35.8662 C   0  0  0  0  0  0  0  0  0  0  0  0
   34.3889  -17.6230   35.7658 C   0  0  0  0  0  0  0  0  0  0  0  0
   35.0723  -16.4202   36.2119 C   0  0  0  0  0  0  0  0  0  0  0  0
   34.6359  -15.1469   35.9778 C   0  0  0  0  0  0  0  0  0  0  0  0
   35.3246  -14.0229   36.4253 C   0  0  0  0  0  0  0  0  0  0  0  0
   36.4969  -14.1815   37.1349 C   0  0  0  0  0  0  0  0  0  0  0  0
   37.1856  -13.0913   37.5815 F   0  0  0  0  0  0  0  0  0  0  0  0
   36.9519  -15.4610   37.3800 C   0  0  0  0  0  0  0  0  0  0  0  0
   36.2463  -16.5552   36.9232 C   0  0  0  0  0  0  0  0  0  0  0  0
 12 13  1  0  0  0
 13  6  1  0  0  0
  6  7  2  0  0  0
  7  8  1  0  0  0
  8  9  2  0  0  0
  9 10  1  0  0  0
 10 11  2  0  0  0
 11 14  1  0  0  0
 14 15  1  0  0  0
  9  3  1  0  0  0
  3  4  2  0  0  0
  3  5  2  0  0  0
  3  1  1  0  0  0
  1 16  1  0  0  0
 16 17  2  0  0  0
 17 22  1  0  0  0
 22 23  2  0  0  0
 23 24  1  0  0  0
 24 25  2  0  0  0
 25 26  1  0  0  0
 26 27  2  0  0  0
 27 28  1  0  0  0
 27 29  1  0  0  0
 29 30  2  0  0  0
 17 18  1  0  0  0
 18 19  1  0  0  0
 18 20  2  0  0  0
 11  6  1  0  0  0
 30 24  1  0  0  0
  1  2  1  0  0  0
 19 21  1  0  0  0
M  END
> <minimizedAffinity>
-5.87579

> <CNNscore>
0.1464722008

> <CNNaffinity>
4.4476065636

> <CNN_VS>
0.6514506936

> <CNNaffinity_variance>
0.2206696272

$$$$
[H]OC(=O)C(=NN([H])S(=O)(=O)c1c([H])c([H])c(OC([H])([H])[H])c(OC([H])([H])[H])c1[H])/C([H])=C(\[H])c1c([H])c([H])c(F)c([H])c1[H]


 30 31  0  0  0  0  0  0  0  0999 V2000
   35.7921  -15.2029   35.7433 N   0  0  0  0  0  0  0  0  0  0  0  0
   36.3164  -15.0821   34.8501 H   0  0  0  0  0  0  0  0  0  0  0  0
   36.0925  -14.0788   36.9993 S   0  0  0  0  0  0  0  0  0  0  0  0
   37.2640  -13.2117   36.6031 O   0  0  0  0  0  0  0  0  0  0  0  0
   36.4742  -14.7888   38.2774 O   0  0  0  0  0  0  0  0  0  0  0  0
   32.4565  -11.4445   37.8195 C   0  0  0  0  0  0  0  0  0  0  0  0
   32.4070  -12.8139   37.9592 C   0  0  0  0  0  0  0  0  0  0  0  0
   33.4863  -13.6258   37.7185 C   0  0  0  0  0  0  0  0  0  0  0  0
   34.6834  -13.0970   37.3208 C   0  0  0  0  0  0  0  0  0  0  0  0
   34.7540  -11.7220   37.1743 C   0  0  0  0  0  0  0  0  0  0  0  0
   33.6696  -10.8994   37.4156 C   0  0  0  0  0  0  0  0  0  0  0  0
   30.1925  -10.8513   37.3163 C   0  0  0  0  0  0  0  0  0  0  0  0
   31.3675  -10.6200   38.0619 O   0  0  0  0  0  0  0  0  0  0  0  0
   33.7538   -9.5122   37.2641 O   0  0  0  0  0  0  0  0  0  0  0  0
   34.7188   -8.9990   36.3697 C   0  0  0  0  0  0  0  0  0  0  0  0
   34.8825  -16.2390   35.8894 N   0  0  0  0  0  0  0  0  0  0  0  0
   35.0895  -17.4287   35.4901 C   0  0  0  0  0  0  0  0  0  0  0  0
   36.3204  -17.7926   34.8390 C   0  0  0  0  0  0  0  0  0  0  0  0
   37.5914  -17.6574   35.3485 O   0  0  0  0  0  0  0  0  0  0  0  0
   36.2629  -18.2963   33.6645 O   0  0  0  0  0  0  0  0  0  0  0  0
   38.3420  -18.3014   35.2299 H   0  0  0  0  0  0  0  0  0  0  0  0
   34.0686  -18.4474   35.6910 C   0  0  0  0  0  0  0  0  0  0  0  0
   32.9507  -18.4827   34.9801 C   0  0  0  0  0  0  0  0  0  0  0  0
   31.9024  -19.4767   35.1414 C   0  0  0  0  0  0  0  0  0  0  0  0
   32.1208  -20.8104   35.3417 C   0  0  0  0  0  0  0  0  0  0  0  0
   31.0838  -21.7270   35.4912 C   0  0  0  0  0  0  0  0  0  0  0  0
   29.7766  -21.2895   35.4377 C   0  0  0  0  0  0  0  0  0  0  0  0
   28.7471  -22.1735   35.5821 F   0  0  0  0  0  0  0  0  0  0  0  0
   29.5383  -19.9454   35.2360 C   0  0  0  0  0  0  0  0  0  0  0  0
   30.5880  -19.0615   35.0914 C   0  0  0  0  0  0  0  0  0  0  0  0
 12 13  1  0  0  0
 13  6  1  0  0  0
  6  7  2  0  0  0
  7  8  1  0  0  0
  8  9  2  0  0  0
  9 10  1  0  0  0
 10 11  2  0  0  0
 11 14  1  0  0  0
 14 15  1  0  0  0
  9  3  1  0  0  0
  3  4  2  0  0  0
  3  5  2  0  0  0
  3  1  1  0  0  0
  1 16  1  0  0  0
 16 17  2  0  0  0
 17 22  1  0  0  0
 22 23  2  0  0  0
 23 24  1  0  0  0
 24 25  2  0  0  0
 25 26  1  0  0  0
 26 27  2  0  0  0
 27 28  1  0  0  0
 27 29  1  0  0  0
 29 30  2  0  0  0
 17 18  1  0  0  0
 18 19  1  0  0  0
 18 20  2  0  0  0
 11  6  1  0  0  0
 30 24  1  0  0  0
  1  2  1  0  0  0
 19 21  1  0  0  0
M  END
> <minimizedAffinity>
-6.72146

> <CNNscore>
0.1310443580

> <CNNaffinity>
5.0226988792

> <CNN_VS>
0.6581963301

> <CNNaffinity_variance>
0.3052201867

$$$$
[H]OC(=O)C(=NN([H])S(=O)(=O)c1c([H])c([H])c(OC([H])([H])[H])c(OC([H])([H])[H])c1[H])/C([H])=C(\[H])c1c([H])c([H])c(F)c([H])c1[H]


 30 31  0  0  0  0  0  0  0  0999 V2000
   33.8027  -15.1678   36.3675 N   0  0  0  0  0  0  0  0  0  0  0  0
   32.8109  -15.3781   36.1238 H   0  0  0  0  0  0  0  0  0  0  0  0
   34.1443  -13.6379   37.0561 S   0  0  0  0  0  0  0  0  0  0  0  0
   34.8178  -12.7771   36.0135 O   0  0  0  0  0  0  0  0  0  0  0  0
   35.1058  -13.7713   38.2142 O   0  0  0  0  0  0  0  0  0  0  0  0
   30.3570  -11.5611   38.5309 C   0  0  0  0  0  0  0  0  0  0  0  0
   30.7610  -12.7775   39.0352 C   0  0  0  0  0  0  0  0  0  0  0  0
   31.8950  -13.4204   38.6077 C   0  0  0  0  0  0  0  0  0  0  0  0
   32.6893  -12.8676   37.6412 C   0  0  0  0  0  0  0  0  0  0  0  0
   32.3004  -11.6448   37.1211 C   0  0  0  0  0  0  0  0  0  0  0  0
   31.1590  -10.9926   37.5482 C   0  0  0  0  0  0  0  0  0  0  0  0
   27.9800  -11.3087   38.4006 C   0  0  0  0  0  0  0  0  0  0  0  0
   29.2111  -10.9075   38.9604 O   0  0  0  0  0  0  0  0  0  0  0  0
   30.7772   -9.7580   37.0151 O   0  0  0  0  0  0  0  0  0  0  0  0
   31.6197   -8.6474   37.2420 C   0  0  0  0  0  0  0  0  0  0  0  0
   34.7963  -16.1078   36.1413 N   0  0  0  0  0  0  0  0  0  0  0  0
   34.6006  -17.2252   35.5660 C   0  0  0  0  0  0  0  0  0  0  0  0
   33.2936  -17.6023   35.0957 C   0  0  0  0  0  0  0  0  0  0  0  0
   32.1726  -17.8148   35.8648 O   0  0  0  0  0  0  0  0  0  0  0  0
   33.1218  -17.7651   33.8386 O   0  0  0  0  0  0  0  0  0  0  0  0
   31.2402  -17.5599   35.6247 H   0  0  0  0  0  0  0  0  0  0  0  0
   35.7127  -18.1457   35.3755 C   0  0  0  0  0  0  0  0  0  0  0  0
   36.8251  -17.7952   34.7462 C   0  0  0  0  0  0  0  0  0  0  0  0
   37.9620  -18.6748   34.5303 C   0  0  0  0  0  0  0  0  0  0  0  0
   38.7597  -18.6549   33.4213 C   0  0  0  0  0  0  0  0  0  0  0  0
   39.8397  -19.5179   33.2575 C   0  0  0  0  0  0  0  0  0  0  0  0
   40.1313  -20.4370   34.2441 C   0  0  0  0  0  0  0  0  0  0  0  0
   41.1860  -21.2910   34.1010 F   0  0  0  0  0  0  0  0  0  0  0  0
   39.3355  -20.4705   35.3708 C   0  0  0  0  0  0  0  0  0  0  0  0
   38.2718  -19.6016   35.5037 C   0  0  0  0  0  0  0  0  0  0  0  0
 12 13  1  0  0  0
 13  6  1  0  0  0
  6  7  2  0  0  0
  7  8  1  0  0  0
  8  9  2  0  0  0
  9 10  1  0  0  0
 10 11  2  0  0  0
 11 14  1  0  0  0
 14 15  1  0  0  0
  9  3  1  0  0  0
  3  4  2  0  0  0
  3  5  2  0  0  0
  3  1  1  0  0  0
  1 16  1  0  0  0
 16 17  2  0  0  0
 17 22  1  0  0  0
 22 23  2  0  0  0
 23 24  1  0  0  0
 24 25  2  0  0  0
 25 26  1  0  0  0
 26 27  2  0  0  0
 27 28  1  0  0  0
 27 29  1  0  0  0
 29 30  2  0  0  0
 17 18  1  0  0  0
 18 19  1  0  0  0
 18 20  2  0  0  0
 11  6  1  0  0  0
 30 24  1  0  0  0
  1  2  1  0  0  0
 19 21  1  0  0  0
M  END
> <minimizedAffinity>
-6.42665

> <CNNscore>
0.0948249400

> <CNNaffinity>
4.9721021652

> <CNN_VS>
0.4714792967

> <CNNaffinity_variance>
0.1801044941

$$$$
[H]OC(=O)C(=NN([H])S(=O)(=O)c1c([H])c([H])c(OC([H])([H])[H])c(OC([H])([H])[H])c1[H])/C([H])=C(\[H])c1c([H])c([H])c(F)c([H])c1[H]


 30 31  0  0  0  0  0  0  0  0999 V2000
   35.5416  -15.6087   35.7408 N   0  0  0  0  0  0  0  0  0  0  0  0
   36.1048  -15.6383   34.8638 H   0  0  0  0  0  0  0  0  0  0  0  0
   36.0339  -14.5176   36.9649 S   0  0  0  0  0  0  0  0  0  0  0  0
   37.3764  -13.9383   36.5859 O   0  0  0  0  0  0  0  0  0  0  0  0
   36.2123  -15.2329   38.2839 O   0  0  0  0  0  0  0  0  0  0  0  0
   32.9081  -11.2501   37.5856 C   0  0  0  0  0  0  0  0  0  0  0  0
   34.1344  -10.9830   37.0182 C   0  0  0  0  0  0  0  0  0  0  0  0
   35.0893  -11.9482   36.8216 C   0  0  0  0  0  0  0  0  0  0  0  0
   34.8578  -13.2451   37.1893 C   0  0  0  0  0  0  0  0  0  0  0  0
   33.6308  -13.5345   37.7618 C   0  0  0  0  0  0  0  0  0  0  0  0
   32.6652  -12.5659   37.9621 C   0  0  0  0  0  0  0  0  0  0  0  0
   32.2490   -8.9563   37.3989 C   0  0  0  0  0  0  0  0  0  0  0  0
   31.9398  -10.2771   37.7861 O   0  0  0  0  0  0  0  0  0  0  0  0
   31.4299  -12.8710   38.5411 O   0  0  0  0  0  0  0  0  0  0  0  0
   31.3719  -13.0159   39.9448 C   0  0  0  0  0  0  0  0  0  0  0  0
   34.4321  -16.4264   35.8911 N   0  0  0  0  0  0  0  0  0  0  0  0
   34.3674  -17.6230   35.4647 C   0  0  0  0  0  0  0  0  0  0  0  0
   35.4759  -18.2293   34.7754 C   0  0  0  0  0  0  0  0  0  0  0  0
   35.6129  -18.3843   33.4151 O   0  0  0  0  0  0  0  0  0  0  0  0
   36.4513  -18.6812   35.4688 O   0  0  0  0  0  0  0  0  0  0  0  0
   36.4577  -18.2877   32.8963 H   0  0  0  0  0  0  0  0  0  0  0  0
   33.1542  -18.4009   35.6730 C   0  0  0  0  0  0  0  0  0  0  0  0
   32.9188  -19.5356   35.0300 C   0  0  0  0  0  0  0  0  0  0  0  0
   31.7259  -20.3481   35.2018 C   0  0  0  0  0  0  0  0  0  0  0  0
   31.7262  -21.7060   35.3535 C   0  0  0  0  0  0  0  0  0  0  0  0
   30.5569  -22.4437   35.5154 C   0  0  0  0  0  0  0  0  0  0  0  0
   29.3394  -21.7950   35.5255 C   0  0  0  0  0  0  0  0  0  0  0  0
   28.1827  -22.5017   35.6831 F   0  0  0  0  0  0  0  0  0  0  0  0
   29.3213  -20.4236   35.3736 C   0  0  0  0  0  0  0  0  0  0  0  0
   30.4978  -19.7204   35.2150 C   0  0  0  0  0  0  0  0  0  0  0  0
 12 13  1  0  0  0
 13  6  1  0  0  0
  6  7  2  0  0  0
  7  8  1  0  0  0
  8  9  2  0  0  0
  9 10  1  0  0  0
 10 11  2  0  0  0
 11 14  1  0  0  0
 14 15  1  0  0  0
  9  3  1  0  0  0
  3  4  2  0  0  0
  3  5  2  0  0  0
  3  1  1  0  0  0
  1 16  1  0  0  0
 16 17  2  0  0  0
 17 22  1  0  0  0
 22 23  2  0  0  0
 23 24  1  0  0  0
 24 25  2  0  0  0
 25 26  1  0  0  0
 26 27  2  0  0  0
 27 28  1  0  0  0
 27 29  1  0  0  0
 29 30  2  0  0  0
 17 18  1  0  0  0
 18 19  1  0  0  0
 18 20  2  0  0  0
 11  6  1  0  0  0
 30 24  1  0  0  0
  1  2  1  0  0  0
 19 21  1  0  0  0
M  END
> <minimizedAffinity>
-6.60598

> <CNNscore>
0.0836187229

> <CNNaffinity>
4.8568081856

> <CNN_VS>
0.4061200917

> <CNNaffinity_variance>
0.2352832556

$$$$
[H]OC(=O)C(=NN([H])S(=O)(=O)c1c([H])c([H])c(OC([H])([H])[H])c(OC([H])([H])[H])c1[H])/C([H])=C(\[H])c1c([H])c([H])c(F)c([H])c1[H]


 30 31  0  0  0  0  0  0  0  0999 V2000
   37.8728  -21.2070   35.8151 N   0  0  0  0  0  0  0  0  0  0  0  0
   37.2406  -22.0353   35.7772 H   0  0  0  0  0  0  0  0  0  0  0  0
   39.5566  -21.4856   35.6790 S   0  0  0  0  0  0  0  0  0  0  0  0
   40.0195  -21.0022   34.3249 O   0  0  0  0  0  0  0  0  0  0  0  0
   39.8659  -22.9627   35.7558 O   0  0  0  0  0  0  0  0  0  0  0  0
   41.8903  -19.3205   38.9498 C   0  0  0  0  0  0  0  0  0  0  0  0
   41.0650  -20.3866   39.2315 C   0  0  0  0  0  0  0  0  0  0  0  0
   40.3540  -21.0526   38.2657 C   0  0  0  0  0  0  0  0  0  0  0  0
   40.4372  -20.6770   36.9532 C   0  0  0  0  0  0  0  0  0  0  0  0
   41.2617  -19.6071   36.6489 C   0  0  0  0  0  0  0  0  0  0  0  0
   41.9803  -18.9326   37.6181 C   0  0  0  0  0  0  0  0  0  0  0  0
   42.4520  -19.0596   41.2622 C   0  0  0  0  0  0  0  0  0  0  0  0
   42.6110  -18.6443   39.9234 O   0  0  0  0  0  0  0  0  0  0  0  0
   42.8095  -17.8538   37.2978 O   0  0  0  0  0  0  0  0  0  0  0  0
   42.7485  -17.3356   35.9854 C   0  0  0  0  0  0  0  0  0  0  0  0
   37.3509  -19.9312   35.9642 N   0  0  0  0  0  0  0  0  0  0  0  0
   36.5652  -19.5896   36.9042 C   0  0  0  0  0  0  0  0  0  0  0  0
   36.1509  -20.5332   37.9090 C   0  0  0  0  0  0  0  0  0  0  0  0
   34.8992  -21.0868   38.0509 O   0  0  0  0  0  0  0  0  0  0  0  0
   37.0101  -20.9178   38.7751 O   0  0  0  0  0  0  0  0  0  0  0  0
   34.7004  -22.0259   38.3166 H   0  0  0  0  0  0  0  0  0  0  0  0
   36.0708  -18.2216   36.9731 C   0  0  0  0  0  0  0  0  0  0  0  0
   36.8574  -17.1718   36.7850 C   0  0  0  0  0  0  0  0  0  0  0  0
   36.4140  -15.7887   36.8430 C   0  0  0  0  0  0  0  0  0  0  0  0
   37.1581  -14.7546   37.3364 C   0  0  0  0  0  0  0  0  0  0  0  0
   36.6913  -13.4436   37.3718 C   0  0  0  0  0  0  0  0  0  0  0  0
   35.4290  -13.1580   36.8942 C   0  0  0  0  0  0  0  0  0  0  0  0
   34.9546  -11.8788   36.9209 F   0  0  0  0  0  0  0  0  0  0  0  0
   34.6641  -14.1911   36.3923 C   0  0  0  0  0  0  0  0  0  0  0  0
   35.1552  -15.4804   36.3708 C   0  0  0  0  0  0  0  0  0  0  0  0
 12 13  1  0  0  0
 13  6  1  0  0  0
  6  7  2  0  0  0
  7  8  1  0  0  0
  8  9  2  0  0  0
  9 10  1  0  0  0
 10 11  2  0  0  0
 11 14  1  0  0  0
 14 15  1  0  0  0
  9  3  1  0  0  0
  3  4  2  0  0  0
  3  5  2  0  0  0
  3  1  1  0  0  0
  1 16  1  0  0  0
 16 17  2  0  0  0
 17 22  1  0  0  0
 22 23  2  0  0  0
 23 24  1  0  0  0
 24 25  2  0  0  0
 25 26  1  0  0  0
 26 27  2  0  0  0
 27 28  1  0  0  0
 27 29  1  0  0  0
 29 30  2  0  0  0
 17 18  1  0  0  0
 18 19  1  0  0  0
 18 20  2  0  0  0
 11  6  1  0  0  0
 30 24  1  0  0  0
  1  2  1  0  0  0
 19 21  1  0  0  0
M  END
> <minimizedAffinity>
-5.99989

> <CNNscore>
0.0708119050

> <CNNaffinity>
4.4537148476

> <CNN_VS>
0.3153760433

> <CNNaffinity_variance>
0.4837563038

$$$$
[H]OC(=O)C(=NN([H])S(=O)(=O)c1c([H])c([H])c(OC([H])([H])[H])c(OC([H])([H])[H])c1[H])/C([H])=C(\[H])c1c([H])c([H])c(F)c([H])c1[H]


 30 31  0  0  0  0  0  0  0  0999 V2000
   36.0442  -12.8452   36.6417 N   0  0  0  0  0  0  0  0  0  0  0  0
   36.4691  -12.2549   35.8945 H   0  0  0  0  0  0  0  0  0  0  0  0
   36.9121  -14.2311   37.1491 S   0  0  0  0  0  0  0  0  0  0  0  0
   36.8699  -14.3036   38.6572 O   0  0  0  0  0  0  0  0  0  0  0  0
   38.3654  -14.1335   36.7469 O   0  0  0  0  0  0  0  0  0  0  0  0
   35.2544  -18.0700   35.3195 C   0  0  0  0  0  0  0  0  0  0  0  0
   34.4651  -16.9576   35.5113 C   0  0  0  0  0  0  0  0  0  0  0  0
   34.9408  -15.7933   36.0589 C   0  0  0  0  0  0  0  0  0  0  0  0
   36.2483  -15.6865   36.4460 C   0  0  0  0  0  0  0  0  0  0  0  0
   37.0586  -16.7939   36.2617 C   0  0  0  0  0  0  0  0  0  0  0  0
   36.5844  -17.9694   35.7103 C   0  0  0  0  0  0  0  0  0  0  0  0
   33.9574  -20.0662   35.5726 C   0  0  0  0  0  0  0  0  0  0  0  0
   34.7773  -19.2493   34.7660 O   0  0  0  0  0  0  0  0  0  0  0  0
   37.4130  -19.0807   35.5294 O   0  0  0  0  0  0  0  0  0  0  0  0
   37.8301  -19.7921   36.6759 C   0  0  0  0  0  0  0  0  0  0  0  0
   34.8219  -12.5017   37.1985 N   0  0  0  0  0  0  0  0  0  0  0  0
   34.2783  -11.3588   37.0709 C   0  0  0  0  0  0  0  0  0  0  0  0
   34.9145  -10.3112   36.3165 C   0  0  0  0  0  0  0  0  0  0  0  0
   35.7390  -10.4674   35.2260 O   0  0  0  0  0  0  0  0  0  0  0  0
   34.7139   -9.0980   36.6693 O   0  0  0  0  0  0  0  0  0  0  0  0
   35.7620   -9.8825   34.4201 H   0  0  0  0  0  0  0  0  0  0  0  0
   32.9895  -11.0967   37.6959 C   0  0  0  0  0  0  0  0  0  0  0  0
   31.9971  -11.9747   37.6728 C   0  0  0  0  0  0  0  0  0  0  0  0
   30.6939  -11.7618   38.2804 C   0  0  0  0  0  0  0  0  0  0  0  0
   29.7351  -10.9223   37.7878 C   0  0  0  0  0  0  0  0  0  0  0  0
   28.4991  -10.7499   38.4046 C   0  0  0  0  0  0  0  0  0  0  0  0
   28.2131  -11.4462   39.5607 C   0  0  0  0  0  0  0  0  0  0  0  0
   27.0067  -11.2900   40.1793 F   0  0  0  0  0  0  0  0  0  0  0  0
   29.1705  -12.2984   40.0717 C   0  0  0  0  0  0  0  0  0  0  0  0
   30.3865  -12.4477   39.4369 C   0  0  0  0  0  0  0  0  0  0  0  0
 12 13  1  0  0  0
 13  6  1  0  0  0
  6  7  2  0  0  0
  7  8  1  0  0  0
  8  9  2  0  0  0
  9 10  1  0  0  0
 10 11  2  0  0  0
 11 14  1  0  0  0
 14 15  1  0  0  0
  9  3  1  0  0  0
  3  4  2  0  0  0
  3  5  2  0  0  0
  3  1  1  0  0  0
  1 16  1  0  0  0
 16 17  2  0  0  0
 17 22  1  0  0  0
 22 23  2  0  0  0
 23 24  1  0  0  0
 24 25  2  0  0  0
 25 26  1  0  0  0
 26 27  2  0  0  0
 27 28  1  0  0  0
 27 29  1  0  0  0
 29 30  2  0  0  0
 17 18  1  0  0  0
 18 19  1  0  0  0
 18 20  2  0  0  0
 11  6  1  0  0  0
 30 24  1  0  0  0
  1  2  1  0  0  0
 19 21  1  0  0  0
M  END
> <minimizedAffinity>
-6.19924

> <CNNscore>
0.0571160913

> <CNNaffinity>
5.0804467201

> <CNN_VS>
0.2901752591

> <CNNaffinity_variance>
0.2579511106

$$$$
[H]OC(=O)C(=NN([H])S(=O)(=O)c1c([H])c([H])c(OC([H])([H])[H])c(OC([H])([H])[H])c1[H])/C([H])=C(\[H])c1c([H])c([H])c(F)c([H])c1[H]


 30 31  0  0  0  0  0  0  0  0999 V2000
   31.2356  -19.9589   35.3734 N   0  0  0  0  0  0  0  0  0  0  0  0
   30.7195  -19.7394   34.4943 H   0  0  0  0  0  0  0  0  0  0  0  0
   30.8642  -21.4299   36.1668 S   0  0  0  0  0  0  0  0  0  0  0  0
   30.2065  -22.3616   35.1764 O   0  0  0  0  0  0  0  0  0  0  0  0
   29.8780  -21.2023   37.2888 O   0  0  0  0  0  0  0  0  0  0  0  0
   34.6032  -23.2997   37.9986 C   0  0  0  0  0  0  0  0  0  0  0  0
   34.1161  -23.7013   36.7744 C   0  0  0  0  0  0  0  0  0  0  0  0
   32.9948  -23.1543   36.2040 C   0  0  0  0  0  0  0  0  0  0  0  0
   32.2983  -22.1649   36.8419 C   0  0  0  0  0  0  0  0  0  0  0  0
   32.7716  -21.7469   38.0741 C   0  0  0  0  0  0  0  0  0  0  0  0
   33.9008  -22.2947   38.6532 C   0  0  0  0  0  0  0  0  0  0  0  0
   36.9920  -23.4095   38.1098 C   0  0  0  0  0  0  0  0  0  0  0  0
   35.7367  -23.8502   38.5789 O   0  0  0  0  0  0  0  0  0  0  0  0
   34.3687  -21.8637   39.8981 O   0  0  0  0  0  0  0  0  0  0  0  0
   34.9848  -20.5951   39.9733 C   0  0  0  0  0  0  0  0  0  0  0  0
   32.1906  -19.0822   35.8648 N   0  0  0  0  0  0  0  0  0  0  0  0
   33.3389  -18.9161   35.3436 C   0  0  0  0  0  0  0  0  0  0  0  0
   33.7383  -19.6496   34.1715 C   0  0  0  0  0  0  0  0  0  0  0  0
   33.0530  -20.6830   33.5749 O   0  0  0  0  0  0  0  0  0  0  0  0
   34.8388  -19.3341   33.6007 O   0  0  0  0  0  0  0  0  0  0  0  0
   32.9736  -20.8452   32.5954 H   0  0  0  0  0  0  0  0  0  0  0  0
   34.2727  -17.9692   35.9366 C   0  0  0  0  0  0  0  0  0  0  0  0
   34.2172  -16.6681   35.6908 C   0  0  0  0  0  0  0  0  0  0  0  0
   35.1240  -15.6829   36.2565 C   0  0  0  0  0  0  0  0  0  0  0  0
   35.0030  -14.3319   36.0931 C   0  0  0  0  0  0  0  0  0  0  0  0
   35.8970  -13.4246   36.6547 C   0  0  0  0  0  0  0  0  0  0  0  0
   36.9539  -13.8898   37.4095 C   0  0  0  0  0  0  0  0  0  0  0  0
   37.8404  -13.0153   37.9677 F   0  0  0  0  0  0  0  0  0  0  0  0
   37.0908  -15.2517   37.5843 C   0  0  0  0  0  0  0  0  0  0  0  0
   36.1877  -16.1257   37.0146 C   0  0  0  0  0  0  0  0  0  0  0  0
 12 13  1  0  0  0
 13  6  1  0  0  0
  6  7  2  0  0  0
  7  8  1  0  0  0
  8  9  2  0  0  0
  9 10  1  0  0  0
 10 11  2  0  0  0
 11 14  1  0  0  0
 14 15  1  0  0  0
  9  3  1  0  0  0
  3  4  2  0  0  0
  3  5  2  0  0  0
  3  1  1  0  0  0
  1 16  1  0  0  0
 16 17  2  0  0  0
 17 22  1  0  0  0
 22 23  2  0  0  0
 23 24  1  0  0  0
 24 25  2  0  0  0
 25 26  1  0  0  0
 26 27  2  0  0  0
 27 28  1  0  0  0
 27 29  1  0  0  0
 29 30  2  0  0  0
 17 18  1  0  0  0
 18 19  1  0  0  0
 18 20  2  0  0  0
 11  6  1  0  0  0
 30 24  1  0  0  0
  1  2  1  0  0  0
 19 21  1  0  0  0
M  END
> <minimizedAffinity>
-6.50794

> <CNNscore>
0.0538788773

> <CNNaffinity>
4.3834505081

> <CNN_VS>
0.2361753881

> <CNNaffinity_variance>
0.3641546369

$$$$
[H]OC(=O)C(=NN([H])S(=O)(=O)c1c([H])c([H])c(OC([H])([H])[H])c(OC([H])([H])[H])c1[H])/C([H])=C(\[H])c1c([H])c([H])c(F)c([H])c1[H]


 30 31  0  0  0  0  0  0  0  0999 V2000
   33.1528  -20.5187   34.0473 N   0  0  0  0  0  0  0  0  0  0  0  0
   33.7665  -20.9008   33.2959 H   0  0  0  0  0  0  0  0  0  0  0  0
   32.1473  -21.6198   34.8887 S   0  0  0  0  0  0  0  0  0  0  0  0
   31.9528  -22.8490   34.0329 O   0  0  0  0  0  0  0  0  0  0  0  0
   30.7803  -21.0233   35.1312 O   0  0  0  0  0  0  0  0  0  0  0  0
   33.9409  -22.8297   38.9076 C   0  0  0  0  0  0  0  0  0  0  0  0
   33.7401  -21.5095   38.5704 C   0  0  0  0  0  0  0  0  0  0  0  0
   33.2029  -21.1218   37.3691 C   0  0  0  0  0  0  0  0  0  0  0  0
   32.8361  -22.0515   36.4353 C   0  0  0  0  0  0  0  0  0  0  0  0
   33.0299  -23.3847   36.7550 C   0  0  0  0  0  0  0  0  0  0  0  0
   33.5707  -23.7807   37.9638 C   0  0  0  0  0  0  0  0  0  0  0  0
   34.7890  -22.2197   41.0615 C   0  0  0  0  0  0  0  0  0  0  0  0
   34.4838  -23.2260   40.1212 O   0  0  0  0  0  0  0  0  0  0  0  0
   33.7612  -25.1302   38.2746 O   0  0  0  0  0  0  0  0  0  0  0  0
   32.6375  -25.8836   38.6802 C   0  0  0  0  0  0  0  0  0  0  0  0
   33.1679  -19.1649   34.3460 N   0  0  0  0  0  0  0  0  0  0  0  0
   34.2131  -18.5222   34.6813 C   0  0  0  0  0  0  0  0  0  0  0  0
   35.4916  -19.1763   34.7767 C   0  0  0  0  0  0  0  0  0  0  0  0
   36.3945  -19.3695   33.7565 O   0  0  0  0  0  0  0  0  0  0  0  0
   35.8571  -19.6375   35.9125 O   0  0  0  0  0  0  0  0  0  0  0  0
   37.3859  -19.3096   33.8321 H   0  0  0  0  0  0  0  0  0  0  0  0
   34.1241  -17.0989   34.9759 C   0  0  0  0  0  0  0  0  0  0  0  0
   34.8885  -16.5127   35.8860 C   0  0  0  0  0  0  0  0  0  0  0  0
   34.8387  -15.0982   36.2168 C   0  0  0  0  0  0  0  0  0  0  0  0
   35.9355  -14.3040   36.3983 C   0  0  0  0  0  0  0  0  0  0  0  0
   35.8394  -12.9517   36.7147 C   0  0  0  0  0  0  0  0  0  0  0  0
   34.5949  -12.3730   36.8549 C   0  0  0  0  0  0  0  0  0  0  0  0
   34.4812  -11.0489   37.1648 F   0  0  0  0  0  0  0  0  0  0  0  0
   33.4767  -13.1611   36.6749 C   0  0  0  0  0  0  0  0  0  0  0  0
   33.6050  -14.4987   36.3618 C   0  0  0  0  0  0  0  0  0  0  0  0
 12 13  1  0  0  0
 13  6  1  0  0  0
  6  7  2  0  0  0
  7  8  1  0  0  0
  8  9  2  0  0  0
  9 10  1  0  0  0
 10 11  2  0  0  0
 11 14  1  0  0  0
 14 15  1  0  0  0
  9  3  1  0  0  0
  3  4  2  0  0  0
  3  5  2  0  0  0
  3  1  1  0  0  0
  1 16  1  0  0  0
 16 17  2  0  0  0
 17 22  1  0  0  0
 22 23  2  0  0  0
 23 24  1  0  0  0
 24 25  2  0  0  0
 25 26  1  0  0  0
 26 27  2  0  0  0
 27 28  1  0  0  0
 27 29  1  0  0  0
 29 30  2  0  0  0
 17 18  1  0  0  0
 18 19  1  0  0  0
 18 20  2  0  0  0
 11  6  1  0  0  0
 30 24  1  0  0  0
  1  2  1  0  0  0
 19 21  1  0  0  0
M  END
> <minimizedAffinity>
-6.16758

> <CNNscore>
0.0536032505

> <CNNaffinity>
4.4259734154

> <CNN_VS>
0.2372465581

> <CNNaffinity_variance>
0.2279700786

$$$$
[H]OC(=O)C(=NN([H])S(=O)(=O)c1c([H])c([H])c(OC([H])([H])[H])c(OC([H])([H])[H])c1[H])/C([H])=C(\[H])c1c([H])c([H])c(F)c([H])c1[H]


 30 31  0  0  0  0  0  0  0  0999 V2000
   37.1599  -21.2827   36.1647 N   0  0  0  0  0  0  0  0  0  0  0  0
   36.5347  -22.0185   35.7709 H   0  0  0  0  0  0  0  0  0  0  0  0
   38.6268  -21.7899   36.8874 S   0  0  0  0  0  0  0  0  0  0  0  0
   39.0720  -23.0745   36.2294 O   0  0  0  0  0  0  0  0  0  0  0  0
   38.4294  -22.0855   38.3561 O   0  0  0  0  0  0  0  0  0  0  0  0
   41.8730  -18.5959   36.5830 C   0  0  0  0  0  0  0  0  0  0  0  0
   41.1293  -18.9815   35.4896 C   0  0  0  0  0  0  0  0  0  0  0  0
   40.1489  -19.9387   35.5568 C   0  0  0  0  0  0  0  0  0  0  0  0
   39.8629  -20.5640   36.7392 C   0  0  0  0  0  0  0  0  0  0  0  0
   40.5995  -20.1906   37.8505 C   0  0  0  0  0  0  0  0  0  0  0  0
   41.5883  -19.2268   37.7884 C   0  0  0  0  0  0  0  0  0  0  0  0
   43.0151  -16.9232   35.3068 C   0  0  0  0  0  0  0  0  0  0  0  0
   42.8652  -17.6284   36.5194 O   0  0  0  0  0  0  0  0  0  0  0  0
   42.3250  -18.8586   38.9179 O   0  0  0  0  0  0  0  0  0  0  0  0
   41.9173  -19.3659   40.1713 C   0  0  0  0  0  0  0  0  0  0  0  0
   36.8035  -19.9449   36.0913 N   0  0  0  0  0  0  0  0  0  0  0  0
   35.8677  -19.4197   36.7740 C   0  0  0  0  0  0  0  0  0  0  0  0
   35.0902  -20.2023   37.6985 C   0  0  0  0  0  0  0  0  0  0  0  0
   35.5739  -21.0630   38.6569 O   0  0  0  0  0  0  0  0  0  0  0  0
   33.8150  -20.1122   37.6513 O   0  0  0  0  0  0  0  0  0  0  0  0
   35.2012  -21.1908   39.5717 H   0  0  0  0  0  0  0  0  0  0  0  0
   35.5704  -18.0021   36.6243 C   0  0  0  0  0  0  0  0  0  0  0  0
   36.3760  -17.0551   37.0829 C   0  0  0  0  0  0  0  0  0  0  0  0
   36.1254  -15.6286   36.9592 C   0  0  0  0  0  0  0  0  0  0  0  0
   36.9600  -14.6505   37.4213 C   0  0  0  0  0  0  0  0  0  0  0  0
   36.6784  -13.2946   37.2800 C   0  0  0  0  0  0  0  0  0  0  0  0
   35.5143  -12.9037   36.6511 C   0  0  0  0  0  0  0  0  0  0  0  0
   35.2215  -11.5791   36.5036 F   0  0  0  0  0  0  0  0  0  0  0  0
   34.6602  -13.8790   36.1786 C   0  0  0  0  0  0  0  0  0  0  0  0
   34.9676  -15.2152   36.3340 C   0  0  0  0  0  0  0  0  0  0  0  0
 12 13  1  0  0  0
 13  6  1  0  0  0
  6  7  2  0  0  0
  7  8  1  0  0  0
  8  9  2  0  0  0
  9 10  1  0  0  0
 10 11  2  0  0  0
 11 14  1  0  0  0
 14 15  1  0  0  0
  9  3  1  0  0  0
  3  4  2  0  0  0
  3  5  2  0  0  0
  3  1  1  0  0  0
  1 16  1  0  0  0
 16 17  2  0  0  0
 17 22  1  0  0  0
 22 23  2  0  0  0
 23 24  1  0  0  0
 24 25  2  0  0  0
 25 26  1  0  0  0
 26 27  2  0  0  0
 27 28  1  0  0  0
 27 29  1  0  0  0
 29 30  2  0  0  0
 17 18  1  0  0  0
 18 19  1  0  0  0
 18 20  2  0  0  0
 11  6  1  0  0  0
 30 24  1  0  0  0
  1  2  1  0  0  0
 19 21  1  0  0  0
M  END
> <minimizedAffinity>
-6.07533

> <CNNscore>
0.0517814346

> <CNNaffinity>
4.4812235832

> <CNN_VS>
0.2320441902

> <CNNaffinity_variance>
0.4648961425

$$$$
[H]OC(=O)c1c([H])c([H])c([H])c(Oc2c([H])c(C([H])([H])N([H])C(=O)c3c([H])c(C(=O)O[H])c([H])c([H])c3C([H])([H])[H])c([H])c([H])c2F)c1[H]


 34 36  0  0  0  0  0  0  0  0999 V2000
   33.8366  -14.4511   36.0615 C   0  0  0  0  0  0  0  0  0  0  0  0
   34.8752  -13.9841   36.8481 C   0  0  0  0  0  0  0  0  0  0  0  0
   34.7496  -12.8210   37.5790 C   0  0  0  0  0  0  0  0  0  0  0  0
   33.5925  -12.1016   37.5432 C   0  0  0  0  0  0  0  0  0  0  0  0
   33.4602  -10.9559   38.2451 F   0  0  0  0  0  0  0  0  0  0  0  0
   32.5598  -12.5896   36.7459 C   0  0  0  0  0  0  0  0  0  0  0  0
   32.6574  -13.7442   36.0059 C   0  0  0  0  0  0  0  0  0  0  0  0
   34.0288  -15.7034   35.3132 C   0  0  0  0  0  0  0  0  0  0  0  0
   33.3751  -18.1277   35.3996 C   0  0  0  0  0  0  0  0  0  0  0  0
   34.1747  -18.2461   34.3819 O   0  0  0  0  0  0  0  0  0  0  0  0
   33.2757  -16.8191   35.8886 N   0  0  0  0  0  0  0  0  0  0  0  0
   32.6437  -16.5895   36.6727 H   0  0  0  0  0  0  0  0  0  0  0  0
   30.7032  -19.0985   34.3787 C   0  0  0  0  0  0  0  0  0  0  0  0
   31.5205  -19.8041   35.4091 C   0  0  0  0  0  0  0  0  0  0  0  0
   31.0204  -20.9986   35.9414 C   0  0  0  0  0  0  0  0  0  0  0  0
   31.6873  -21.6873   36.9192 C   0  0  0  0  0  0  0  0  0  0  0  0
   32.8836  -21.2116   37.4066 C   0  0  0  0  0  0  0  0  0  0  0  0
   33.3715  -20.0389   36.8803 C   0  0  0  0  0  0  0  0  0  0  0  0
   32.7094  -19.3141   35.8787 C   0  0  0  0  0  0  0  0  0  0  0  0
   33.6062  -21.9452   38.4720 C   0  0  0  0  0  0  0  0  0  0  0  0
   33.1416  -21.8908   39.7741 O   0  0  0  0  0  0  0  0  0  0  0  0
   34.6196  -22.5966   38.1733 O   0  0  0  0  0  0  0  0  0  0  0  0
   33.1864  -22.6527   40.4410 H   0  0  0  0  0  0  0  0  0  0  0  0
   31.3593  -11.8655   36.6965 O   0  0  0  0  0  0  0  0  0  0  0  0
   30.5298  -11.8239   37.8268 C   0  0  0  0  0  0  0  0  0  0  0  0
   29.5849  -10.8376   37.9161 C   0  0  0  0  0  0  0  0  0  0  0  0
   28.7407  -10.7712   39.0308 C   0  0  0  0  0  0  0  0  0  0  0  0
   28.8344  -11.6837   40.0553 C   0  0  0  0  0  0  0  0  0  0  0  0
   29.7850  -12.6733   39.9609 C   0  0  0  0  0  0  0  0  0  0  0  0
   30.6140  -12.7302   38.8568 C   0  0  0  0  0  0  0  0  0  0  0  0
   29.9007  -13.6552   41.0251 C   0  0  0  0  0  0  0  0  0  0  0  0
   30.4728  -13.3649   42.2549 O   0  0  0  0  0  0  0  0  0  0  0  0
   29.4635  -14.8172   40.8224 O   0  0  0  0  0  0  0  0  0  0  0  0
   29.8450  -13.2343   43.0642 H   0  0  0  0  0  0  0  0  0  0  0  0
 13 14  1  0  0  0
 14 15  2  0  0  0
 15 16  1  0  0  0
 16 17  2  0  0  0
 17 18  1  0  0  0
 18 19  2  0  0  0
 19  9  1  0  0  0
  9 10  2  0  0  0
  9 11  1  0  0  0
 11  8  1  0  0  0
  8  1  1  0  0  0
  1  2  2  0  0  0
  2  3  1  0  0  0
  3  4  2  0  0  0
  4  5  1  0  0  0
  4  6  1  0  0  0
  6 24  1  0  0  0
 24 25  1  0  0  0
 25 26  2  0  0  0
 26 27  1  0  0  0
 27 28  2  0  0  0
 28 29  1  0  0  0
 29 30  2  0  0  0
 29 31  1  0  0  0
 31 32  1  0  0  0
 31 33  2  0  0  0
  6  7  2  0  0  0
 17 20  1  0  0  0
 20 21  1  0  0  0
 20 22  2  0  0  0
 19 14  1  0  0  0
  7  1  1  0  0  0
 30 25  1  0  0  0
 11 12  1  0  0  0
 32 34  1  0  0  0
 21 23  1  0  0  0
M  END
> <minimizedAffinity>
-7.77539

> <CNNscore>
0.4757364094

> <CNNaffinity>
5.5250077248

> <CNN_VS>
2.6284472942

> <CNNaffinity_variance>
0.0653960258

$$$$
[H]OC(=O)c1c([H])c([H])c([H])c(Oc2c([H])c(C([H])([H])N([H])C(=O)c3c([H])c(C(=O)O[H])c([H])c([H])c3C([H])([H])[H])c([H])c([H])c2F)c1[H]


 34 36  0  0  0  0  0  0  0  0999 V2000
   34.8107  -16.2554   35.8029 C   0  0  0  0  0  0  0  0  0  0  0  0
   35.7675  -16.9799   36.4923 C   0  0  0  0  0  0  0  0  0  0  0  0
   36.5886  -16.3751   37.4210 C   0  0  0  0  0  0  0  0  0  0  0  0
   36.4748  -15.0423   37.6827 C   0  0  0  0  0  0  0  0  0  0  0  0
   37.2794  -14.4356   38.5813 F   0  0  0  0  0  0  0  0  0  0  0  0
   35.5053  -14.3321   36.9786 C   0  0  0  0  0  0  0  0  0  0  0  0
   34.6747  -14.9081   36.0466 C   0  0  0  0  0  0  0  0  0  0  0  0
   33.9587  -16.9602   34.8320 C   0  0  0  0  0  0  0  0  0  0  0  0
   32.8534  -19.1748   35.2633 C   0  0  0  0  0  0  0  0  0  0  0  0
   33.7322  -19.6311   34.4216 O   0  0  0  0  0  0  0  0  0  0  0  0
   32.9452  -17.7942   35.4801 N   0  0  0  0  0  0  0  0  0  0  0  0
   32.2787  -17.3065   36.1007 H   0  0  0  0  0  0  0  0  0  0  0  0
   29.9193  -19.3052   34.5579 C   0  0  0  0  0  0  0  0  0  0  0  0
   30.5988  -20.2246   35.5172 C   0  0  0  0  0  0  0  0  0  0  0  0
   29.8292  -21.2181   36.1344 C   0  0  0  0  0  0  0  0  0  0  0  0
   30.3652  -22.0765   37.0568 C   0  0  0  0  0  0  0  0  0  0  0  0
   31.6944  -21.9791   37.4016 C   0  0  0  0  0  0  0  0  0  0  0  0
   32.4467  -21.0028   36.7923 C   0  0  0  0  0  0  0  0  0  0  0  0
   31.9233  -20.1112   35.8447 C   0  0  0  0  0  0  0  0  0  0  0  0
   32.2795  -22.8973   38.4066 C   0  0  0  0  0  0  0  0  0  0  0  0
   32.4378  -22.4687   39.7125 O   0  0  0  0  0  0  0  0  0  0  0  0
   32.6185  -24.0381   38.0544 O   0  0  0  0  0  0  0  0  0  0  0  0
   32.3344  -23.0531   40.5341 H   0  0  0  0  0  0  0  0  0  0  0  0
   35.3700  -12.9595   37.2343 O   0  0  0  0  0  0  0  0  0  0  0  0
   34.1060  -12.4343   37.5405 C   0  0  0  0  0  0  0  0  0  0  0  0
   33.1702  -13.2556   38.1094 C   0  0  0  0  0  0  0  0  0  0  0  0
   31.9004  -12.7601   38.4284 C   0  0  0  0  0  0  0  0  0  0  0  0
   31.5607  -11.4503   38.1833 C   0  0  0  0  0  0  0  0  0  0  0  0
   32.5043  -10.6287   37.6122 C   0  0  0  0  0  0  0  0  0  0  0  0
   33.7548  -11.1273   37.3004 C   0  0  0  0  0  0  0  0  0  0  0  0
   32.1749   -9.2385   37.3496 C   0  0  0  0  0  0  0  0  0  0  0  0
   33.0554   -8.3625   36.7320 O   0  0  0  0  0  0  0  0  0  0  0  0
   31.0436   -8.8119   37.6968 O   0  0  0  0  0  0  0  0  0  0  0  0
   32.8821   -8.1151   35.7447 H   0  0  0  0  0  0  0  0  0  0  0  0
 13 14  1  0  0  0
 14 15  2  0  0  0
 15 16  1  0  0  0
 16 17  2  0  0  0
 17 18  1  0  0  0
 18 19  2  0  0  0
 19  9  1  0  0  0
  9 10  2  0  0  0
  9 11  1  0  0  0
 11  8  1  0  0  0
  8  1  1  0  0  0
  1  2  2  0  0  0
  2  3  1  0  0  0
  3  4  2  0  0  0
  4  5  1  0  0  0
  4  6  1  0  0  0
  6 24  1  0  0  0
 24 25  1  0  0  0
 25 26  2  0  0  0
 26 27  1  0  0  0
 27 28  2  0  0  0
 28 29  1  0  0  0
 29 30  2  0  0  0
 29 31  1  0  0  0
 31 32  1  0  0  0
 31 33  2  0  0  0
  6  7  2  0  0  0
 17 20  1  0  0  0
 20 21  1  0  0  0
 20 22  2  0  0  0
 19 14  1  0  0  0
  7  1  1  0  0  0
 30 25  1  0  0  0
 11 12  1  0  0  0
 32 34  1  0  0  0
 21 23  1  0  0  0
M  END
> <minimizedAffinity>
-8.46926

> <CNNscore>
0.4279995561

> <CNNaffinity>
5.2138547897

> <CNN_VS>
2.2315275669

> <CNNaffinity_variance>
0.3514194787

$$$$
[H]OC(=O)c1c([H])c([H])c([H])c(Oc2c([H])c(C([H])([H])N([H])C(=O)c3c([H])c(C(=O)O[H])c([H])c([H])c3C([H])([H])[H])c([H])c([H])c2F)c1[H]


 34 36  0  0  0  0  0  0  0  0999 V2000
   32.4689  -18.9760   35.1794 C   0  0  0  0  0  0  0  0  0  0  0  0
   31.2894  -18.5612   34.5857 C   0  0  0  0  0  0  0  0  0  0  0  0
   30.1030  -19.2270   34.8138 C   0  0  0  0  0  0  0  0  0  0  0  0
   30.0655  -20.3145   35.6345 C   0  0  0  0  0  0  0  0  0  0  0  0
   28.9132  -20.9818   35.8578 F   0  0  0  0  0  0  0  0  0  0  0  0
   31.2633  -20.7147   36.2222 C   0  0  0  0  0  0  0  0  0  0  0  0
   32.4601  -20.0716   36.0117 C   0  0  0  0  0  0  0  0  0  0  0  0
   33.6997  -18.2179   34.9042 C   0  0  0  0  0  0  0  0  0  0  0  0
   34.4316  -16.1688   36.1601 C   0  0  0  0  0  0  0  0  0  0  0  0
   35.3256  -16.9605   36.6729 O   0  0  0  0  0  0  0  0  0  0  0  0
   33.5730  -16.8018   35.2525 N   0  0  0  0  0  0  0  0  0  0  0  0
   32.7974  -16.2871   34.8047 H   0  0  0  0  0  0  0  0  0  0  0  0
   36.9092  -14.4487   36.3226 C   0  0  0  0  0  0  0  0  0  0  0  0
   35.5277  -13.9699   36.6220 C   0  0  0  0  0  0  0  0  0  0  0  0
   35.3625  -12.6330   37.0034 C   0  0  0  0  0  0  0  0  0  0  0  0
   34.1351  -12.1239   37.3344 C   0  0  0  0  0  0  0  0  0  0  0  0
   33.0196  -12.9296   37.2976 C   0  0  0  0  0  0  0  0  0  0  0  0
   33.1862  -14.2416   36.9215 C   0  0  0  0  0  0  0  0  0  0  0  0
   34.4310  -14.7883   36.5774 C   0  0  0  0  0  0  0  0  0  0  0  0
   31.6896  -12.3893   37.6644 C   0  0  0  0  0  0  0  0  0  0  0  0
   31.3236  -12.3228   38.9970 O   0  0  0  0  0  0  0  0  0  0  0  0
   30.9264  -12.0060   36.7639 O   0  0  0  0  0  0  0  0  0  0  0  0
   30.7556  -11.5917   39.4094 H   0  0  0  0  0  0  0  0  0  0  0  0
   31.2464  -21.8305   37.0722 O   0  0  0  0  0  0  0  0  0  0  0  0
   31.4622  -23.1096   36.5386 C   0  0  0  0  0  0  0  0  0  0  0  0
   31.9690  -24.0872   37.3517 C   0  0  0  0  0  0  0  0  0  0  0  0
   32.1932  -25.3741   36.8488 C   0  0  0  0  0  0  0  0  0  0  0  0
   31.9137  -25.6901   35.5399 C   0  0  0  0  0  0  0  0  0  0  0  0
   31.4041  -24.7048   34.7268 C   0  0  0  0  0  0  0  0  0  0  0  0
   31.1867  -23.4373   35.2324 C   0  0  0  0  0  0  0  0  0  0  0  0
   31.0924  -25.0131   33.3419 C   0  0  0  0  0  0  0  0  0  0  0  0
   31.8465  -24.5375   32.2793 O   0  0  0  0  0  0  0  0  0  0  0  0
   30.0969  -25.7419   33.0967 O   0  0  0  0  0  0  0  0  0  0  0  0
   32.4861  -25.1947   31.8048 H   0  0  0  0  0  0  0  0  0  0  0  0
 13 14  1  0  0  0
 14 15  2  0  0  0
 15 16  1  0  0  0
 16 17  2  0  0  0
 17 18  1  0  0  0
 18 19  2  0  0  0
 19  9  1  0  0  0
  9 10  2  0  0  0
  9 11  1  0  0  0
 11  8  1  0  0  0
  8  1  1  0  0  0
  1  2  2  0  0  0
  2  3  1  0  0  0
  3  4  2  0  0  0
  4  5  1  0  0  0
  4  6  1  0  0  0
  6 24  1  0  0  0
 24 25  1  0  0  0
 25 26  2  0  0  0
 26 27  1  0  0  0
 27 28  2  0  0  0
 28 29  1  0  0  0
 29 30  2  0  0  0
 29 31  1  0  0  0
 31 32  1  0  0  0
 31 33  2  0  0  0
  6  7  2  0  0  0
 17 20  1  0  0  0
 20 21  1  0  0  0
 20 22  2  0  0  0
 19 14  1  0  0  0
  7  1  1  0  0  0
 30 25  1  0  0  0
 11 12  1  0  0  0
 32 34  1  0  0  0
 21 23  1  0  0  0
M  END
> <minimizedAffinity>
-7.69742

> <CNNscore>
0.3390485942

> <CNNaffinity>
5.1498408318

> <CNN_VS>
1.7460463047

> <CNNaffinity_variance>
0.1371656209

$$$$
[H]OC(=O)c1c([H])c([H])c([H])c(Oc2c([H])c(C([H])([H])N([H])C(=O)c3c([H])c(C(=O)O[H])c([H])c([H])c3C([H])([H])[H])c([H])c([H])c2F)c1[H]


 34 36  0  0  0  0  0  0  0  0999 V2000
   34.3370  -15.9091   35.9747 C   0  0  0  0  0  0  0  0  0  0  0  0
   35.6020  -16.3596   36.3100 C   0  0  0  0  0  0  0  0  0  0  0  0
   36.4610  -15.5825   37.0589 C   0  0  0  0  0  0  0  0  0  0  0  0
   36.0806  -14.3462   37.4886 C   0  0  0  0  0  0  0  0  0  0  0  0
   36.9155  -13.5709   38.2130 F   0  0  0  0  0  0  0  0  0  0  0  0
   34.8034  -13.9125   37.1407 C   0  0  0  0  0  0  0  0  0  0  0  0
   33.9272  -14.6645   36.3945 C   0  0  0  0  0  0  0  0  0  0  0  0
   33.4638  -16.7893   35.1820 C   0  0  0  0  0  0  0  0  0  0  0  0
   32.7851  -19.1382   35.7597 C   0  0  0  0  0  0  0  0  0  0  0  0
   31.6045  -18.6195   35.9216 O   0  0  0  0  0  0  0  0  0  0  0  0
   33.7635  -18.2070   35.3893 N   0  0  0  0  0  0  0  0  0  0  0  0
   34.7492  -18.4901   35.2657 H   0  0  0  0  0  0  0  0  0  0  0  0
   34.5918  -20.3427   37.8593 C   0  0  0  0  0  0  0  0  0  0  0  0
   33.7138  -21.1327   36.9469 C   0  0  0  0  0  0  0  0  0  0  0  0
   33.7229  -22.5274   37.0688 C   0  0  0  0  0  0  0  0  0  0  0  0
   32.9783  -23.3282   36.2446 C   0  0  0  0  0  0  0  0  0  0  0  0
   32.1915  -22.7688   35.2632 C   0  0  0  0  0  0  0  0  0  0  0  0
   32.1846  -21.3988   35.1478 C   0  0  0  0  0  0  0  0  0  0  0  0
   32.9371  -20.5557   35.9783 C   0  0  0  0  0  0  0  0  0  0  0  0
   31.3909  -23.6288   34.3605 C   0  0  0  0  0  0  0  0  0  0  0  0
   31.8477  -23.8865   33.0802 O   0  0  0  0  0  0  0  0  0  0  0  0
   30.3204  -24.1024   34.7730 O   0  0  0  0  0  0  0  0  0  0  0  0
   31.7221  -24.7598   32.5816 H   0  0  0  0  0  0  0  0  0  0  0  0
   34.3911  -12.6438   37.5748 O   0  0  0  0  0  0  0  0  0  0  0  0
   33.0396  -12.4220   37.8775 C   0  0  0  0  0  0  0  0  0  0  0  0
   32.3358  -11.5168   37.1299 C   0  0  0  0  0  0  0  0  0  0  0  0
   30.9849  -11.2753   37.4064 C   0  0  0  0  0  0  0  0  0  0  0  0
   30.3337  -11.9325   38.4237 C   0  0  0  0  0  0  0  0  0  0  0  0
   31.0448  -12.8416   39.1718 C   0  0  0  0  0  0  0  0  0  0  0  0
   32.3781  -13.0727   38.8915 C   0  0  0  0  0  0  0  0  0  0  0  0
   30.3797  -13.5560   40.2476 C   0  0  0  0  0  0  0  0  0  0  0  0
   29.5522  -14.6467   40.0249 O   0  0  0  0  0  0  0  0  0  0  0  0
   30.5625  -13.1690   41.4305 O   0  0  0  0  0  0  0  0  0  0  0  0
   29.9192  -15.5872   40.2410 H   0  0  0  0  0  0  0  0  0  0  0  0
 13 14  1  0  0  0
 14 15  2  0  0  0
 15 16  1  0  0  0
 16 17  2  0  0  0
 17 18  1  0  0  0
 18 19  2  0  0  0
 19  9  1  0  0  0
  9 10  2  0  0  0
  9 11  1  0  0  0
 11  8  1  0  0  0
  8  1  1  0  0  0
  1  2  2  0  0  0
  2  3  1  0  0  0
  3  4  2  0  0  0
  4  5  1  0  0  0
  4  6  1  0  0  0
  6 24  1  0  0  0
 24 25  1  0  0  0
 25 26  2  0  0  0
 26 27  1  0  0  0
 27 28  2  0  0  0
 28 29  1  0  0  0
 29 30  2  0  0  0
 29 31  1  0  0  0
 31 32  1  0  0  0
 31 33  2  0  0  0
  6  7  2  0  0  0
 17 20  1  0  0  0
 20 21  1  0  0  0
 20 22  2  0  0  0
 19 14  1  0  0  0
  7  1  1  0  0  0
 30 25  1  0  0  0
 11 12  1  0  0  0
 32 34  1  0  0  0
 21 23  1  0  0  0
M  END
> <minimizedAffinity>
-8.42733

> <CNNscore>
0.3157487512

> <CNNaffinity>
5.2500495911

> <CNN_VS>
1.6576966047

> <CNNaffinity_variance>
0.2491109371

$$$$
[H]OC(=O)c1c([H])c([H])c([H])c(Oc2c([H])c(C([H])([H])N([H])C(=O)c3c([H])c(C(=O)O[H])c([H])c([H])c3C([H])([H])[H])c([H])c([H])c2F)c1[H]


 34 36  0  0  0  0  0  0  0  0999 V2000
   35.4688  -14.8053   37.2227 C   0  0  0  0  0  0  0  0  0  0  0  0
   34.8546  -15.4365   36.1551 C   0  0  0  0  0  0  0  0  0  0  0  0
   33.7424  -14.8916   35.5477 C   0  0  0  0  0  0  0  0  0  0  0  0
   33.2207  -13.7118   35.9877 C   0  0  0  0  0  0  0  0  0  0  0  0
   32.1262  -13.1730   35.4093 F   0  0  0  0  0  0  0  0  0  0  0  0
   33.8544  -13.0930   37.0628 C   0  0  0  0  0  0  0  0  0  0  0  0
   34.9626  -13.6135   37.6882 C   0  0  0  0  0  0  0  0  0  0  0  0
   36.6578  -15.4323   37.8215 C   0  0  0  0  0  0  0  0  0  0  0  0
   37.2066  -17.6474   36.7708 C   0  0  0  0  0  0  0  0  0  0  0  0
   36.3446  -18.1184   37.6218 O   0  0  0  0  0  0  0  0  0  0  0  0
   37.3926  -16.2625   36.8656 N   0  0  0  0  0  0  0  0  0  0  0  0
   38.0788  -15.7746   36.2672 H   0  0  0  0  0  0  0  0  0  0  0  0
   36.0972  -18.4215   34.0702 C   0  0  0  0  0  0  0  0  0  0  0  0
   37.3918  -18.9157   34.6244 C   0  0  0  0  0  0  0  0  0  0  0  0
   38.1486  -19.7973   33.8433 C   0  0  0  0  0  0  0  0  0  0  0  0
   39.3275  -20.3292   34.2932 C   0  0  0  0  0  0  0  0  0  0  0  0
   39.8011  -20.0017   35.5436 C   0  0  0  0  0  0  0  0  0  0  0  0
   39.0553  -19.1347   36.3069 C   0  0  0  0  0  0  0  0  0  0  0  0
   37.8453  -18.5757   35.8706 C   0  0  0  0  0  0  0  0  0  0  0  0
   41.0705  -20.5810   36.0421 C   0  0  0  0  0  0  0  0  0  0  0  0
   42.0830  -19.7407   36.4697 O   0  0  0  0  0  0  0  0  0  0  0  0
   41.2008  -21.8151   36.0653 O   0  0  0  0  0  0  0  0  0  0  0  0
   42.7189  -19.9366   37.2342 H   0  0  0  0  0  0  0  0  0  0  0  0
   33.3349  -11.8766   37.5300 O   0  0  0  0  0  0  0  0  0  0  0  0
   31.9817  -11.7954   37.8902 C   0  0  0  0  0  0  0  0  0  0  0  0
   31.2157  -10.7942   37.3570 C   0  0  0  0  0  0  0  0  0  0  0  0
   29.8616  -10.6884   37.6956 C   0  0  0  0  0  0  0  0  0  0  0  0
   29.2688  -11.5763   38.5623 C   0  0  0  0  0  0  0  0  0  0  0  0
   30.0422  -12.5810   39.0951 C   0  0  0  0  0  0  0  0  0  0  0  0
   31.3782  -12.6769   38.7551 C   0  0  0  0  0  0  0  0  0  0  0  0
   29.4398  -13.5377   40.0073 C   0  0  0  0  0  0  0  0  0  0  0  0
   28.6723  -14.6082   39.5726 O   0  0  0  0  0  0  0  0  0  0  0  0
   29.6224  -13.3886   41.2430 O   0  0  0  0  0  0  0  0  0  0  0  0
   29.0969  -15.5492   39.5900 H   0  0  0  0  0  0  0  0  0  0  0  0
 13 14  1  0  0  0
 14 15  2  0  0  0
 15 16  1  0  0  0
 16 17  2  0  0  0
 17 18  1  0  0  0
 18 19  2  0  0  0
 19  9  1  0  0  0
  9 10  2  0  0  0
  9 11  1  0  0  0
 11  8  1  0  0  0
  8  1  1  0  0  0
  1  2  2  0  0  0
  2  3  1  0  0  0
  3  4  2  0  0  0
  4  5  1  0  0  0
  4  6  1  0  0  0
  6 24  1  0  0  0
 24 25  1  0  0  0
 25 26  2  0  0  0
 26 27  1  0  0  0
 27 28  2  0  0  0
 28 29  1  0  0  0
 29 30  2  0  0  0
 29 31  1  0  0  0
 31 32  1  0  0  0
 31 33  2  0  0  0
  6  7  2  0  0  0
 17 20  1  0  0  0
 20 21  1  0  0  0
 20 22  2  0  0  0
 19 14  1  0  0  0
  7  1  1  0  0  0
 30 25  1  0  0  0
 11 12  1  0  0  0
 32 34  1  0  0  0
 21 23  1  0  0  0
M  END
> <minimizedAffinity>
-8.59786

> <CNNscore>
0.2567778826

> <CNNaffinity>
5.1382842064

> <CNN_VS>
1.3193976879

> <CNNaffinity_variance>
0.3268002868

$$$$
[H]OC(=O)c1c([H])c([H])c([H])c(Oc2c([H])c(C([H])([H])N([H])C(=O)c3c([H])c(C(=O)O[H])c([H])c([H])c3C([H])([H])[H])c([H])c([H])c2F)c1[H]


 34 36  0  0  0  0  0  0  0  0999 V2000
   34.1340  -12.6530   36.7721 C   0  0  0  0  0  0  0  0  0  0  0  0
   34.5845  -11.3961   37.1368 C   0  0  0  0  0  0  0  0  0  0  0  0
   33.7043  -10.4072   37.5242 C   0  0  0  0  0  0  0  0  0  0  0  0
   32.3631  -10.6475   37.5574 C   0  0  0  0  0  0  0  0  0  0  0  0
   31.4899   -9.6853   37.9242 F   0  0  0  0  0  0  0  0  0  0  0  0
   31.9312  -11.9189   37.1873 C   0  0  0  0  0  0  0  0  0  0  0  0
   32.7850  -12.9228   36.7954 C   0  0  0  0  0  0  0  0  0  0  0  0
   35.1237  -13.6681   36.3779 C   0  0  0  0  0  0  0  0  0  0  0  0
   35.3797  -16.1619   36.2127 C   0  0  0  0  0  0  0  0  0  0  0  0
   36.5461  -15.8794   35.7143 O   0  0  0  0  0  0  0  0  0  0  0  0
   34.6232  -15.0328   36.5510 N   0  0  0  0  0  0  0  0  0  0  0  0
   33.6640  -15.1256   36.9231 H   0  0  0  0  0  0  0  0  0  0  0  0
   33.3732  -17.5679   34.4461 C   0  0  0  0  0  0  0  0  0  0  0  0
   34.1471  -18.2295   35.5374 C   0  0  0  0  0  0  0  0  0  0  0  0
   33.9337  -19.5949   35.7614 C   0  0  0  0  0  0  0  0  0  0  0  0
   34.5722  -20.2690   36.7679 C   0  0  0  0  0  0  0  0  0  0  0  0
   35.4524  -19.6069   37.5936 C   0  0  0  0  0  0  0  0  0  0  0  0
   35.6598  -18.2664   37.3694 C   0  0  0  0  0  0  0  0  0  0  0  0
   35.0196  -17.5521   36.3463 C   0  0  0  0  0  0  0  0  0  0  0  0
   36.1393  -20.3267   38.6916 C   0  0  0  0  0  0  0  0  0  0  0  0
   37.4635  -20.6985   38.5408 O   0  0  0  0  0  0  0  0  0  0  0  0
   35.5094  -20.5836   39.7296 O   0  0  0  0  0  0  0  0  0  0  0  0
   38.1520  -20.7157   39.2842 H   0  0  0  0  0  0  0  0  0  0  0  0
   30.5547  -12.1880   37.2164 O   0  0  0  0  0  0  0  0  0  0  0  0
   29.8676  -12.1459   38.4385 C   0  0  0  0  0  0  0  0  0  0  0  0
   28.8980  -11.1965   38.6183 C   0  0  0  0  0  0  0  0  0  0  0  0
   28.1935  -11.1307   39.8261 C   0  0  0  0  0  0  0  0  0  0  0  0
   28.4511  -12.0070   40.8540 C   0  0  0  0  0  0  0  0  0  0  0  0
   29.4258  -12.9596   40.6686 C   0  0  0  0  0  0  0  0  0  0  0  0
   30.1162  -13.0162   39.4729 C   0  0  0  0  0  0  0  0  0  0  0  0
   29.7131  -13.9032   41.7350 C   0  0  0  0  0  0  0  0  0  0  0  0
   30.3527  -13.5359   42.9098 O   0  0  0  0  0  0  0  0  0  0  0  0
   29.3671  -15.1034   41.5863 O   0  0  0  0  0  0  0  0  0  0  0  0
   29.7818  -13.4429   43.7651 H   0  0  0  0  0  0  0  0  0  0  0  0
 13 14  1  0  0  0
 14 15  2  0  0  0
 15 16  1  0  0  0
 16 17  2  0  0  0
 17 18  1  0  0  0
 18 19  2  0  0  0
 19  9  1  0  0  0
  9 10  2  0  0  0
  9 11  1  0  0  0
 11  8  1  0  0  0
  8  1  1  0  0  0
  1  2  2  0  0  0
  2  3  1  0  0  0
  3  4  2  0  0  0
  4  5  1  0  0  0
  4  6  1  0  0  0
  6 24  1  0  0  0
 24 25  1  0  0  0
 25 26  2  0  0  0
 26 27  1  0  0  0
 27 28  2  0  0  0
 28 29  1  0  0  0
 29 30  2  0  0  0
 29 31  1  0  0  0
 31 32  1  0  0  0
 31 33  2  0  0  0
  6  7  2  0  0  0
 17 20  1  0  0  0
 20 21  1  0  0  0
 20 22  2  0  0  0
 19 14  1  0  0  0
  7  1  1  0  0  0
 30 25  1  0  0  0
 11 12  1  0  0  0
 32 34  1  0  0  0
 21 23  1  0  0  0
M  END
> <minimizedAffinity>
-8.08028

> <CNNscore>
0.2526747286

> <CNNaffinity>
5.5583262444

> <CNN_VS>
1.4044486284

> <CNNaffinity_variance>
0.2206525058

$$$$
[H]OC(=O)c1c([H])c([H])c([H])c(Oc2c([H])c(C([H])([H])N([H])C(=O)c3c([H])c(C(=O)O[H])c([H])c([H])c3C([H])([H])[H])c([H])c([H])c2F)c1[H]


 34 36  0  0  0  0  0  0  0  0999 V2000
   36.0411  -15.6350   36.7409 C   0  0  0  0  0  0  0  0  0  0  0  0
   37.0667  -14.7336   36.9671 C   0  0  0  0  0  0  0  0  0  0  0  0
   36.8447  -13.3730   36.9179 C   0  0  0  0  0  0  0  0  0  0  0  0
   35.6026  -12.8831   36.6444 C   0  0  0  0  0  0  0  0  0  0  0  0
   35.3739  -11.5539   36.5825 F   0  0  0  0  0  0  0  0  0  0  0  0
   34.5848  -13.8074   36.4206 C   0  0  0  0  0  0  0  0  0  0  0  0
   34.7773  -15.1680   36.4616 C   0  0  0  0  0  0  0  0  0  0  0  0
   36.3395  -17.0739   36.8172 C   0  0  0  0  0  0  0  0  0  0  0  0
   34.6591  -18.9159   36.5081 C   0  0  0  0  0  0  0  0  0  0  0  0
   34.8304  -19.1102   37.7816 O   0  0  0  0  0  0  0  0  0  0  0  0
   35.4391  -17.8759   35.9871 N   0  0  0  0  0  0  0  0  0  0  0  0
   35.4191  -17.6475   34.9798 H   0  0  0  0  0  0  0  0  0  0  0  0
   33.0553  -18.0561   34.0972 C   0  0  0  0  0  0  0  0  0  0  0  0
   33.0148  -19.4232   34.6946 C   0  0  0  0  0  0  0  0  0  0  0  0
   32.1794  -20.3768   34.1005 C   0  0  0  0  0  0  0  0  0  0  0  0
   32.0527  -21.6417   34.6094 C   0  0  0  0  0  0  0  0  0  0  0  0
   32.7567  -22.0081   35.7342 C   0  0  0  0  0  0  0  0  0  0  0  0
   33.5768  -21.0690   36.3137 C   0  0  0  0  0  0  0  0  0  0  0  0
   33.7250  -19.7673   35.8133 C   0  0  0  0  0  0  0  0  0  0  0  0
   32.6172  -23.3715   36.2973 C   0  0  0  0  0  0  0  0  0  0  0  0
   32.7095  -23.5580   37.6652 O   0  0  0  0  0  0  0  0  0  0  0  0
   32.4202  -24.3240   35.5263 O   0  0  0  0  0  0  0  0  0  0  0  0
   32.1799  -24.2388   38.1974 H   0  0  0  0  0  0  0  0  0  0  0  0
   33.2982  -13.3242   36.1395 O   0  0  0  0  0  0  0  0  0  0  0  0
   32.4567  -12.9432   37.1950 C   0  0  0  0  0  0  0  0  0  0  0  0
   32.6949  -13.4488   38.4446 C   0  0  0  0  0  0  0  0  0  0  0  0
   31.8739  -13.0856   39.5186 C   0  0  0  0  0  0  0  0  0  0  0  0
   30.8178  -12.2208   39.3519 C   0  0  0  0  0  0  0  0  0  0  0  0
   30.5826  -11.7149   38.0948 C   0  0  0  0  0  0  0  0  0  0  0  0
   31.3984  -12.0798   37.0408 C   0  0  0  0  0  0  0  0  0  0  0  0
   29.4784  -10.7930   37.8918 C   0  0  0  0  0  0  0  0  0  0  0  0
   29.4192   -9.5478   38.4999 O   0  0  0  0  0  0  0  0  0  0  0  0
   28.5371  -11.1390   37.1324 O   0  0  0  0  0  0  0  0  0  0  0  0
   29.6220   -8.7154   37.9236 H   0  0  0  0  0  0  0  0  0  0  0  0
 13 14  1  0  0  0
 14 15  2  0  0  0
 15 16  1  0  0  0
 16 17  2  0  0  0
 17 18  1  0  0  0
 18 19  2  0  0  0
 19  9  1  0  0  0
  9 10  2  0  0  0
  9 11  1  0  0  0
 11  8  1  0  0  0
  8  1  1  0  0  0
  1  2  2  0  0  0
  2  3  1  0  0  0
  3  4  2  0  0  0
  4  5  1  0  0  0
  4  6  1  0  0  0
  6 24  1  0  0  0
 24 25  1  0  0  0
 25 26  2  0  0  0
 26 27  1  0  0  0
 27 28  2  0  0  0
 28 29  1  0  0  0
 29 30  2  0  0  0
 29 31  1  0  0  0
 31 32  1  0  0  0
 31 33  2  0  0  0
  6  7  2  0  0  0
 17 20  1  0  0  0
 20 21  1  0  0  0
 20 22  2  0  0  0
 19 14  1  0  0  0
  7  1  1  0  0  0
 30 25  1  0  0  0
 11 12  1  0  0  0
 32 34  1  0  0  0
 21 23  1  0  0  0
M  END
> <minimizedAffinity>
-7.98067

> <CNNscore>
0.2483635843

> <CNNaffinity>
5.2553954124

> <CNN_VS>
1.3052488565

> <CNNaffinity_variance>
0.2780930102

$$$$
[H]OC(=O)c1c([H])c([H])c([H])c(Oc2c([H])c(C([H])([H])N([H])C(=O)c3c([H])c(C(=O)O[H])c([H])c([H])c3C([H])([H])[H])c([H])c([H])c2F)c1[H]


 34 36  0  0  0  0  0  0  0  0999 V2000
   33.8748  -12.6316   37.2509 C   0  0  0  0  0  0  0  0  0  0  0  0
   34.3285  -11.3413   37.4629 C   0  0  0  0  0  0  0  0  0  0  0  0
   33.4485  -10.2851   37.5762 C   0  0  0  0  0  0  0  0  0  0  0  0
   32.1043  -10.4900   37.4821 C   0  0  0  0  0  0  0  0  0  0  0  0
   31.2327   -9.4636   37.5803 F   0  0  0  0  0  0  0  0  0  0  0  0
   31.6691  -11.7960   37.2694 C   0  0  0  0  0  0  0  0  0  0  0  0
   32.5229  -12.8671   37.1509 C   0  0  0  0  0  0  0  0  0  0  0  0
   34.8632  -13.7170   37.1487 C   0  0  0  0  0  0  0  0  0  0  0  0
   34.9674  -16.0749   36.2875 C   0  0  0  0  0  0  0  0  0  0  0  0
   35.8908  -16.2262   37.1893 O   0  0  0  0  0  0  0  0  0  0  0  0
   34.4316  -14.7817   36.2414 N   0  0  0  0  0  0  0  0  0  0  0  0
   33.7153  -14.5260   35.5424 H   0  0  0  0  0  0  0  0  0  0  0  0
   36.9035  -17.4808   34.4440 C   0  0  0  0  0  0  0  0  0  0  0  0
   35.4872  -17.8994   34.6593 C   0  0  0  0  0  0  0  0  0  0  0  0
   35.0188  -19.0201   33.9631 C   0  0  0  0  0  0  0  0  0  0  0  0
   33.7223  -19.4469   34.0722 C   0  0  0  0  0  0  0  0  0  0  0  0
   32.8381  -18.7718   34.8830 C   0  0  0  0  0  0  0  0  0  0  0  0
   33.3025  -17.6724   35.5657 C   0  0  0  0  0  0  0  0  0  0  0  0
   34.6246  -17.2142   35.4722 C   0  0  0  0  0  0  0  0  0  0  0  0
   31.4308  -19.2209   34.9984 C   0  0  0  0  0  0  0  0  0  0  0  0
   30.5141  -18.4291   35.6669 O   0  0  0  0  0  0  0  0  0  0  0  0
   31.1012  -20.3046   34.4910 O   0  0  0  0  0  0  0  0  0  0  0  0
   29.5371  -18.3305   35.4162 H   0  0  0  0  0  0  0  0  0  0  0  0
   30.2893  -12.0292   37.1715 O   0  0  0  0  0  0  0  0  0  0  0  0
   29.4759  -11.8496   38.3001 C   0  0  0  0  0  0  0  0  0  0  0  0
   28.3332  -11.1060   38.1785 C   0  0  0  0  0  0  0  0  0  0  0  0
   27.4999  -10.9107   39.2862 C   0  0  0  0  0  0  0  0  0  0  0  0
   27.8009  -11.4538   40.5131 C   0  0  0  0  0  0  0  0  0  0  0  0
   28.9498  -12.2008   40.6304 C   0  0  0  0  0  0  0  0  0  0  0  0
   29.7662  -12.3874   39.5312 C   0  0  0  0  0  0  0  0  0  0  0  0
   29.2880  -12.7929   41.9130 C   0  0  0  0  0  0  0  0  0  0  0  0
   30.5156  -13.3877   42.1645 O   0  0  0  0  0  0  0  0  0  0  0  0
   28.4314  -12.7645   42.8338 O   0  0  0  0  0  0  0  0  0  0  0  0
   31.1986  -12.8684   42.7390 H   0  0  0  0  0  0  0  0  0  0  0  0
 13 14  1  0  0  0
 14 15  2  0  0  0
 15 16  1  0  0  0
 16 17  2  0  0  0
 17 18  1  0  0  0
 18 19  2  0  0  0
 19  9  1  0  0  0
  9 10  2  0  0  0
  9 11  1  0  0  0
 11  8  1  0  0  0
  8  1  1  0  0  0
  1  2  2  0  0  0
  2  3  1  0  0  0
  3  4  2  0  0  0
  4  5  1  0  0  0
  4  6  1  0  0  0
  6 24  1  0  0  0
 24 25  1  0  0  0
 25 26  2  0  0  0
 26 27  1  0  0  0
 27 28  2  0  0  0
 28 29  1  0  0  0
 29 30  2  0  0  0
 29 31  1  0  0  0
 31 32  1  0  0  0
 31 33  2  0  0  0
  6  7  2  0  0  0
 17 20  1  0  0  0
 20 21  1  0  0  0
 20 22  2  0  0  0
 19 14  1  0  0  0
  7  1  1  0  0  0
 30 25  1  0  0  0
 11 12  1  0  0  0
 32 34  1  0  0  0
 21 23  1  0  0  0
M  END
> <minimizedAffinity>
-9.47742

> <CNNscore>
0.2459771633

> <CNNaffinity>
5.7001438141

> <CNN_VS>
1.4021052122

> <CNNaffinity_variance>
0.2080349028

$$$$
[H]OC(=O)c1c([H])c([H])c([H])c(Oc2c([H])c(C([H])([H])N([H])C(=O)c3c([H])c(C(=O)O[H])c([H])c([H])c3C([H])([H])[H])c([H])c([H])c2F)c1[H]


 34 36  0  0  0  0  0  0  0  0999 V2000
   31.6451  -19.9012   34.7519 C   0  0  0  0  0  0  0  0  0  0  0  0
   30.3804  -19.3840   34.9729 C   0  0  0  0  0  0  0  0  0  0  0  0
   29.3634  -20.1732   35.4685 C   0  0  0  0  0  0  0  0  0  0  0  0
   29.5827  -21.4877   35.7540 C   0  0  0  0  0  0  0  0  0  0  0  0
   28.5934  -22.2739   36.2293 F   0  0  0  0  0  0  0  0  0  0  0  0
   30.8625  -21.9877   35.5249 C   0  0  0  0  0  0  0  0  0  0  0  0
   31.8943  -21.2254   35.0304 C   0  0  0  0  0  0  0  0  0  0  0  0
   32.6902  -19.0058   34.2310 C   0  0  0  0  0  0  0  0  0  0  0  0
   34.2371  -17.2906   35.2194 C   0  0  0  0  0  0  0  0  0  0  0  0
   35.1239  -17.8273   34.4356 O   0  0  0  0  0  0  0  0  0  0  0  0
   32.9754  -17.8929   35.1382 N   0  0  0  0  0  0  0  0  0  0  0  0
   32.1953  -17.5795   35.7386 H   0  0  0  0  0  0  0  0  0  0  0  0
   36.8247  -17.2129   36.7758 C   0  0  0  0  0  0  0  0  0  0  0  0
   35.8312  -16.0999   36.7332 C   0  0  0  0  0  0  0  0  0  0  0  0
   36.1129  -14.9376   37.4611 C   0  0  0  0  0  0  0  0  0  0  0  0
   35.2369  -13.8863   37.5084 C   0  0  0  0  0  0  0  0  0  0  0  0
   34.0413  -13.9514   36.8292 C   0  0  0  0  0  0  0  0  0  0  0  0
   33.7692  -15.0941   36.1148 C   0  0  0  0  0  0  0  0  0  0  0  0
   34.6482  -16.1849   36.0492 C   0  0  0  0  0  0  0  0  0  0  0  0
   33.0833  -12.8224   36.8839 C   0  0  0  0  0  0  0  0  0  0  0  0
   31.9324  -12.8658   36.1172 O   0  0  0  0  0  0  0  0  0  0  0  0
   33.3344  -11.8550   37.6198 O   0  0  0  0  0  0  0  0  0  0  0  0
   31.0332  -12.4893   36.3943 H   0  0  0  0  0  0  0  0  0  0  0  0
   31.1103  -23.3378   35.8142 O   0  0  0  0  0  0  0  0  0  0  0  0
   32.0408  -23.6725   36.8089 C   0  0  0  0  0  0  0  0  0  0  0  0
   33.1073  -24.4632   36.4759 C   0  0  0  0  0  0  0  0  0  0  0  0
   34.0540  -24.8125   37.4461 C   0  0  0  0  0  0  0  0  0  0  0  0
   33.9419  -24.3765   38.7454 C   0  0  0  0  0  0  0  0  0  0  0  0
   32.8690  -23.5816   39.0753 C   0  0  0  0  0  0  0  0  0  0  0  0
   31.9395  -23.2427   38.1105 C   0  0  0  0  0  0  0  0  0  0  0  0
   32.7302  -23.1003   40.4388 C   0  0  0  0  0  0  0  0  0  0  0  0
   32.4722  -23.9435   41.5095 O   0  0  0  0  0  0  0  0  0  0  0  0
   32.8491  -21.8672   40.6570 O   0  0  0  0  0  0  0  0  0  0  0  0
   33.2499  -24.1656   42.1514 H   0  0  0  0  0  0  0  0  0  0  0  0
 13 14  1  0  0  0
 14 15  2  0  0  0
 15 16  1  0  0  0
 16 17  2  0  0  0
 17 18  1  0  0  0
 18 19  2  0  0  0
 19  9  1  0  0  0
  9 10  2  0  0  0
  9 11  1  0  0  0
 11  8  1  0  0  0
  8  1  1  0  0  0
  1  2  2  0  0  0
  2  3  1  0  0  0
  3  4  2  0  0  0
  4  5  1  0  0  0
  4  6  1  0  0  0
  6 24  1  0  0  0
 24 25  1  0  0  0
 25 26  2  0  0  0
 26 27  1  0  0  0
 27 28  2  0  0  0
 28 29  1  0  0  0
 29 30  2  0  0  0
 29 31  1  0  0  0
 31 32  1  0  0  0
 31 33  2  0  0  0
  6  7  2  0  0  0
 17 20  1  0  0  0
 20 21  1  0  0  0
 20 22  2  0  0  0
 19 14  1  0  0  0
  7  1  1  0  0  0
 30 25  1  0  0  0
 11 12  1  0  0  0
 32 34  1  0  0  0
 21 23  1  0  0  0
M  END
> <minimizedAffinity>
-7.56095

> <CNNscore>
0.2445794791

> <CNNaffinity>
4.8918867111

> <CNN_VS>
1.1964551210

> <CNNaffinity_variance>
0.3633567095

$$$$
[H]OC(=O)c1c([H])c([H])c([H])c([H])c1Sc1c([H])c([H])c([C@]2([H])C([H])([H])[C@]2([H])C(=O)N([H])[C@@]([H])(C([H])([H])[H])C([H])([H])c2c([H])c([H])c(-c3c([H])c([H])c([H])c([H])c3[H])c([H])c2[H])c([H])c1[H]


 39 43  0  0  0  0  0  0  0  0999 V2000
   36.4345  -17.8466   35.5821 C   0  0  0  0  0  0  0  0  0  0  0  0
   36.2899  -17.0659   34.3197 C   0  0  0  0  0  0  0  0  0  0  0  0
   36.5681  -16.3330   35.5485 C   0  0  0  0  0  0  0  0  0  0  0  0
   35.5774  -15.4659   36.2105 C   0  0  0  0  0  0  0  0  0  0  0  0
   34.2758  -15.3157   35.7553 C   0  0  0  0  0  0  0  0  0  0  0  0
   33.3726  -14.4913   36.3812 C   0  0  0  0  0  0  0  0  0  0  0  0
   33.7305  -13.7691   37.5040 C   0  0  0  0  0  0  0  0  0  0  0  0
   35.0053  -13.8931   37.9793 C   0  0  0  0  0  0  0  0  0  0  0  0
   35.8890  -14.7235   37.3367 C   0  0  0  0  0  0  0  0  0  0  0  0
   32.4967  -12.7166   38.2652 S   0  0  0  0  0  0  0  0  0  0  0  0
   32.6120  -11.0331   37.7346 C   0  0  0  0  0  0  0  0  0  0  0  0
   33.8600  -10.4764   37.4285 C   0  0  0  0  0  0  0  0  0  0  0  0
   33.9396   -9.1697   37.0205 C   0  0  0  0  0  0  0  0  0  0  0  0
   32.8107   -8.3704   36.8996 C   0  0  0  0  0  0  0  0  0  0  0  0
   31.5905   -8.9211   37.2001 C   0  0  0  0  0  0  0  0  0  0  0  0
   31.4979  -10.2550   37.6165 C   0  0  0  0  0  0  0  0  0  0  0  0
   30.1838  -10.7907   37.8636 C   0  0  0  0  0  0  0  0  0  0  0  0
   29.7602  -10.9875   39.1679 O   0  0  0  0  0  0  0  0  0  0  0  0
   29.3796  -11.0980   36.9603 O   0  0  0  0  0  0  0  0  0  0  0  0
   30.3988  -11.4920   39.7943 H   0  0  0  0  0  0  0  0  0  0  0  0
   34.1458  -18.9702   35.5435 N   0  0  0  0  0  0  0  0  0  0  0  0
   35.2967  -18.5094   36.2235 C   0  0  0  0  0  0  0  0  0  0  0  0
   35.3543  -18.6861   37.4941 O   0  0  0  0  0  0  0  0  0  0  0  0
   34.0284  -18.8780   34.5211 H   0  0  0  0  0  0  0  0  0  0  0  0
   31.8040  -19.3827   35.4588 C   0  0  0  0  0  0  0  0  0  0  0  0
   33.0434  -19.6289   36.2589 C   0  0  0  0  0  0  0  0  0  0  0  0
   33.3589  -21.1081   36.2559 C   0  0  0  0  0  0  0  0  0  0  0  0
   32.9966  -21.7786   37.5264 C   0  0  0  0  0  0  0  0  0  0  0  0
   31.9096  -22.6251   37.5850 C   0  0  0  0  0  0  0  0  0  0  0  0
   31.5468  -23.2621   38.7568 C   0  0  0  0  0  0  0  0  0  0  0  0
   32.2582  -23.0790   39.9229 C   0  0  0  0  0  0  0  0  0  0  0  0
   33.3493  -22.2278   39.8590 C   0  0  0  0  0  0  0  0  0  0  0  0
   33.7151  -21.5905   38.6940 C   0  0  0  0  0  0  0  0  0  0  0  0
   31.9142  -23.7303   41.1803 C   0  0  0  0  0  0  0  0  0  0  0  0
   31.1315  -24.8536   41.1789 C   0  0  0  0  0  0  0  0  0  0  0  0
   30.8009  -25.4780   42.3729 C   0  0  0  0  0  0  0  0  0  0  0  0
   31.2635  -24.9656   43.5744 C   0  0  0  0  0  0  0  0  0  0  0  0
   32.0529  -23.8341   43.5900 C   0  0  0  0  0  0  0  0  0  0  0  0
   32.3563  -23.2480   42.3937 C   0  0  0  0  0  0  0  0  0  0  0  0
 25 26  1  0  0  0
 26 27  1  0  0  0
 27 28  1  0  0  0
 28 29  2  0  0  0
 29 30  1  0  0  0
 30 31  2  0  0  0
 31 32  1  0  0  0
 32 33  2  0  0  0
 31 34  1  0  0  0
 34 35  2  0  0  0
 35 36  1  0  0  0
 36 37  2  0  0  0
 37 38  1  0  0  0
 38 39  2  0  0  0
 26 21  1  0  0  0
 21 22  1  0  0  0
 22 23  2  0  0  0
 22  1  1  0  0  0
  1  2  1  0  0  0
  2  3  1  0  0  0
  3  4  1  0  0  0
  4  5  2  0  0  0
  5  6  1  0  0  0
  6  7  2  0  0  0
  7 10  1  0  0  0
 10 11  1  0  0  0
 11 12  2  0  0  0
 12 13  1  0  0  0
 13 14  2  0  0  0
 14 15  1  0  0  0
 15 16  2  0  0  0
 16 17  1  0  0  0
 17 18  1  0  0  0
 17 19  2  0  0  0
  7  8  1  0  0  0
  8  9  2  0  0  0
 33 28  1  0  0  0
 39 34  1  0  0  0
  3  1  1  0  0  0
  9  4  1  0  0  0
 16 11  1  0  0  0
 21 24  1  0  0  0
 18 20  1  0  0  0
M  END
> <minimizedAffinity>
-7.45918

> <CNNscore>
0.3546988964

> <CNNaffinity>
5.7951722145

> <CNN_VS>
2.0555412769

> <CNNaffinity_variance>
0.0624800250

$$$$
[H]OC(=O)c1c([H])c([H])c([H])c([H])c1Sc1c([H])c([H])c([C@]2([H])C([H])([H])[C@]2([H])C(=O)N([H])[C@@]([H])(C([H])([H])[H])C([H])([H])c2c([H])c([H])c(-c3c([H])c([H])c([H])c([H])c3[H])c([H])c2[H])c([H])c1[H]


 39 43  0  0  0  0  0  0  0  0999 V2000
   36.9242  -18.1117   34.1266 C   0  0  0  0  0  0  0  0  0  0  0  0
   35.6074  -18.7258   33.7907 C   0  0  0  0  0  0  0  0  0  0  0  0
   35.8389  -18.3174   35.1706 C   0  0  0  0  0  0  0  0  0  0  0  0
   36.0164  -19.2768   36.2750 C   0  0  0  0  0  0  0  0  0  0  0  0
   35.1111  -20.2903   36.5528 C   0  0  0  0  0  0  0  0  0  0  0  0
   35.2904  -21.1656   37.5963 C   0  0  0  0  0  0  0  0  0  0  0  0
   36.3949  -21.0690   38.4216 C   0  0  0  0  0  0  0  0  0  0  0  0
   37.3068  -20.0817   38.1768 C   0  0  0  0  0  0  0  0  0  0  0  0
   37.1055  -19.2199   37.1278 C   0  0  0  0  0  0  0  0  0  0  0  0
   36.5598  -22.2479   39.7604 S   0  0  0  0  0  0  0  0  0  0  0  0
   37.0777  -21.4951   41.2751 C   0  0  0  0  0  0  0  0  0  0  0  0
   38.4353  -21.4654   41.6171 C   0  0  0  0  0  0  0  0  0  0  0  0
   38.8269  -20.8820   42.7946 C   0  0  0  0  0  0  0  0  0  0  0  0
   37.9112  -20.3130   43.6697 C   0  0  0  0  0  0  0  0  0  0  0  0
   36.5825  -20.3443   43.3294 C   0  0  0  0  0  0  0  0  0  0  0  0
   36.1720  -20.9366   42.1286 C   0  0  0  0  0  0  0  0  0  0  0  0
   34.7699  -20.8883   41.8020 C   0  0  0  0  0  0  0  0  0  0  0  0
   34.2789  -19.8319   41.0520 O   0  0  0  0  0  0  0  0  0  0  0  0
   33.9452  -21.7547   42.1574 O   0  0  0  0  0  0  0  0  0  0  0  0
   34.5362  -18.8853   41.3559 H   0  0  0  0  0  0  0  0  0  0  0  0
   39.4297  -18.3792   34.5179 N   0  0  0  0  0  0  0  0  0  0  0  0
   38.1664  -18.8878   34.1376 C   0  0  0  0  0  0  0  0  0  0  0  0
   38.0979  -20.1190   33.7792 O   0  0  0  0  0  0  0  0  0  0  0  0
   39.5666  -17.4041   34.8310 H   0  0  0  0  0  0  0  0  0  0  0  0
   41.0306  -19.3814   33.0708 C   0  0  0  0  0  0  0  0  0  0  0  0
   40.6332  -19.2232   34.5039 C   0  0  0  0  0  0  0  0  0  0  0  0
   41.7036  -18.4490   35.2406 C   0  0  0  0  0  0  0  0  0  0  0  0
   41.8283  -18.8460   36.6625 C   0  0  0  0  0  0  0  0  0  0  0  0
   40.9528  -19.7580   37.2131 C   0  0  0  0  0  0  0  0  0  0  0  0
   41.0438  -20.1450   38.5369 C   0  0  0  0  0  0  0  0  0  0  0  0
   42.0175  -19.6349   39.3682 C   0  0  0  0  0  0  0  0  0  0  0  0
   42.8947  -18.7192   38.8105 C   0  0  0  0  0  0  0  0  0  0  0  0
   42.8084  -18.3301   37.4920 C   0  0  0  0  0  0  0  0  0  0  0  0
   42.1528  -20.0145   40.7686 C   0  0  0  0  0  0  0  0  0  0  0  0
   42.2827  -21.3335   41.1119 C   0  0  0  0  0  0  0  0  0  0  0  0
   42.4121  -21.7009   42.4435 C   0  0  0  0  0  0  0  0  0  0  0  0
   42.4106  -20.7312   43.4335 C   0  0  0  0  0  0  0  0  0  0  0  0
   42.2803  -19.3984   43.1012 C   0  0  0  0  0  0  0  0  0  0  0  0
   42.1550  -19.0769   41.7792 C   0  0  0  0  0  0  0  0  0  0  0  0
 25 26  1  0  0  0
 26 27  1  0  0  0
 27 28  1  0  0  0
 28 29  2  0  0  0
 29 30  1  0  0  0
 30 31  2  0  0  0
 31 32  1  0  0  0
 32 33  2  0  0  0
 31 34  1  0  0  0
 34 35  2  0  0  0
 35 36  1  0  0  0
 36 37  2  0  0  0
 37 38  1  0  0  0
 38 39  2  0  0  0
 26 21  1  0  0  0
 21 22  1  0  0  0
 22 23  2  0  0  0
 22  1  1  0  0  0
  1  2  1  0  0  0
  2  3  1  0  0  0
  3  4  1  0  0  0
  4  5  2  0  0  0
  5  6  1  0  0  0
  6  7  2  0  0  0
  7 10  1  0  0  0
 10 11  1  0  0  0
 11 12  2  0  0  0
 12 13  1  0  0  0
 13 14  2  0  0  0
 14 15  1  0  0  0
 15 16  2  0  0  0
 16 17  1  0  0  0
 17 18  1  0  0  0
 17 19  2  0  0  0
  7  8  1  0  0  0
  8  9  2  0  0  0
 33 28  1  0  0  0
 39 34  1  0  0  0
  3  1  1  0  0  0
  9  4  1  0  0  0
 16 11  1  0  0  0
 21 24  1  0  0  0
 18 20  1  0  0  0
M  END
> <minimizedAffinity>
-6.37972

> <CNNscore>
0.3041253090

> <CNNaffinity>
5.7025575638

> <CNN_VS>
1.7342920303

> <CNNaffinity_variance>
0.3777541220

$$$$
[H]OC(=O)c1c([H])c([H])c([H])c([H])c1Sc1c([H])c([H])c([C@]2([H])C([H])([H])[C@]2([H])C(=O)N([H])[C@@]([H])(C([H])([H])[H])C([H])([H])c2c([H])c([H])c(-c3c([H])c([H])c([H])c([H])c3[H])c([H])c2[H])c([H])c1[H]


 39 43  0  0  0  0  0  0  0  0999 V2000
   30.9832  -22.5500   36.4131 C   0  0  0  0  0  0  0  0  0  0  0  0
   30.0330  -21.4062   36.5271 C   0  0  0  0  0  0  0  0  0  0  0  0
   30.8882  -21.4695   35.3485 C   0  0  0  0  0  0  0  0  0  0  0  0
   32.0019  -20.5341   35.1109 C   0  0  0  0  0  0  0  0  0  0  0  0
   32.9106  -20.6837   34.0737 C   0  0  0  0  0  0  0  0  0  0  0  0
   33.9493  -19.8061   33.8790 C   0  0  0  0  0  0  0  0  0  0  0  0
   34.1323  -18.7252   34.7206 C   0  0  0  0  0  0  0  0  0  0  0  0
   33.2555  -18.5478   35.7532 C   0  0  0  0  0  0  0  0  0  0  0  0
   32.2255  -19.4380   35.9265 C   0  0  0  0  0  0  0  0  0  0  0  0
   35.5090  -17.6242   34.4013 S   0  0  0  0  0  0  0  0  0  0  0  0
   35.7658  -16.4544   35.7032 C   0  0  0  0  0  0  0  0  0  0  0  0
   35.1101  -15.2174   35.6762 C   0  0  0  0  0  0  0  0  0  0  0  0
   35.3174  -14.3160   36.6884 C   0  0  0  0  0  0  0  0  0  0  0  0
   36.1663  -14.5921   37.7521 C   0  0  0  0  0  0  0  0  0  0  0  0
   36.8056  -15.8058   37.7739 C   0  0  0  0  0  0  0  0  0  0  0  0
   36.5998  -16.7341   36.7456 C   0  0  0  0  0  0  0  0  0  0  0  0
   37.2563  -18.0116   36.8543 C   0  0  0  0  0  0  0  0  0  0  0  0
   38.5327  -18.1702   36.3394 O   0  0  0  0  0  0  0  0  0  0  0  0
   36.7411  -19.0118   37.3941 O   0  0  0  0  0  0  0  0  0  0  0  0
   38.6908  -17.8465   35.3777 H   0  0  0  0  0  0  0  0  0  0  0  0
   33.3534  -23.3394   36.9245 N   0  0  0  0  0  0  0  0  0  0  0  0
   32.1551  -22.6796   37.2824 C   0  0  0  0  0  0  0  0  0  0  0  0
   32.0862  -22.1516   38.4509 O   0  0  0  0  0  0  0  0  0  0  0  0
   33.4931  -23.7782   35.9995 H   0  0  0  0  0  0  0  0  0  0  0  0
   34.3792  -24.7489   38.5438 C   0  0  0  0  0  0  0  0  0  0  0  0
   34.4890  -23.4266   37.8539 C   0  0  0  0  0  0  0  0  0  0  0  0
   35.7382  -23.4058   37.0013 C   0  0  0  0  0  0  0  0  0  0  0  0
   36.8669  -22.6964   37.6475 C   0  0  0  0  0  0  0  0  0  0  0  0
   38.0388  -22.4713   36.9565 C   0  0  0  0  0  0  0  0  0  0  0  0
   39.1088  -21.8146   37.5346 C   0  0  0  0  0  0  0  0  0  0  0  0
   39.0516  -21.3535   38.8321 C   0  0  0  0  0  0  0  0  0  0  0  0
   37.8723  -21.5820   39.5222 C   0  0  0  0  0  0  0  0  0  0  0  0
   36.8031  -22.2359   38.9509 C   0  0  0  0  0  0  0  0  0  0  0  0
   40.1531  -20.6550   39.4820 C   0  0  0  0  0  0  0  0  0  0  0  0
   40.1958  -20.5625   40.8473 C   0  0  0  0  0  0  0  0  0  0  0  0
   41.2421  -19.8989   41.4716 C   0  0  0  0  0  0  0  0  0  0  0  0
   42.2506  -19.3260   40.7131 C   0  0  0  0  0  0  0  0  0  0  0  0
   42.2195  -19.4119   39.3364 C   0  0  0  0  0  0  0  0  0  0  0  0
   41.1727  -20.0733   38.7591 C   0  0  0  0  0  0  0  0  0  0  0  0
 25 26  1  0  0  0
 26 27  1  0  0  0
 27 28  1  0  0  0
 28 29  2  0  0  0
 29 30  1  0  0  0
 30 31  2  0  0  0
 31 32  1  0  0  0
 32 33  2  0  0  0
 31 34  1  0  0  0
 34 35  2  0  0  0
 35 36  1  0  0  0
 36 37  2  0  0  0
 37 38  1  0  0  0
 38 39  2  0  0  0
 26 21  1  0  0  0
 21 22  1  0  0  0
 22 23  2  0  0  0
 22  1  1  0  0  0
  1  2  1  0  0  0
  2  3  1  0  0  0
  3  4  1  0  0  0
  4  5  2  0  0  0
  5  6  1  0  0  0
  6  7  2  0  0  0
  7 10  1  0  0  0
 10 11  1  0  0  0
 11 12  2  0  0  0
 12 13  1  0  0  0
 13 14  2  0  0  0
 14 15  1  0  0  0
 15 16  2  0  0  0
 16 17  1  0  0  0
 17 18  1  0  0  0
 17 19  2  0  0  0
  7  8  1  0  0  0
  8  9  2  0  0  0
 33 28  1  0  0  0
 39 34  1  0  0  0
  3  1  1  0  0  0
  9  4  1  0  0  0
 16 11  1  0  0  0
 21 24  1  0  0  0
 18 20  1  0  0  0
M  END
> <minimizedAffinity>
-6.46549

> <CNNscore>
0.3036873043

> <CNNaffinity>
5.3320593834

> <CNN_VS>
1.6192787886

> <CNNaffinity_variance>
0.5872849822

$$$$
[H]OC(=O)c1c([H])c([H])c([H])c([H])c1Sc1c([H])c([H])c([C@]2([H])C([H])([H])[C@]2([H])C(=O)N([H])[C@@]([H])(C([H])([H])[H])C([H])([H])c2c([H])c([H])c(-c3c([H])c([H])c([H])c([H])c3[H])c([H])c2[H])c([H])c1[H]


 39 43  0  0  0  0  0  0  0  0999 V2000
   32.4248  -18.9287   34.2718 C   0  0  0  0  0  0  0  0  0  0  0  0
   32.9977  -19.9719   33.3732 C   0  0  0  0  0  0  0  0  0  0  0  0
   31.8478  -20.3325   34.1931 C   0  0  0  0  0  0  0  0  0  0  0  0
   31.9335  -21.2567   35.3377 C   0  0  0  0  0  0  0  0  0  0  0  0
   33.0179  -22.0929   35.5585 C   0  0  0  0  0  0  0  0  0  0  0  0
   33.0705  -22.9562   36.6258 C   0  0  0  0  0  0  0  0  0  0  0  0
   32.0306  -23.0266   37.5335 C   0  0  0  0  0  0  0  0  0  0  0  0
   30.9464  -22.2168   37.3461 C   0  0  0  0  0  0  0  0  0  0  0  0
   30.9177  -21.3625   36.2724 C   0  0  0  0  0  0  0  0  0  0  0  0
   32.1731  -24.1760   38.9002 S   0  0  0  0  0  0  0  0  0  0  0  0
   31.7065  -23.4591   40.4486 C   0  0  0  0  0  0  0  0  0  0  0  0
   32.6579  -22.7906   41.2289 C   0  0  0  0  0  0  0  0  0  0  0  0
   32.2874  -22.2404   42.4289 C   0  0  0  0  0  0  0  0  0  0  0  0
   30.9848  -22.3252   42.9021 C   0  0  0  0  0  0  0  0  0  0  0  0
   30.0565  -22.9807   42.1333 C   0  0  0  0  0  0  0  0  0  0  0  0
   30.4242  -23.5451   40.9055 C   0  0  0  0  0  0  0  0  0  0  0  0
   29.3922  -24.1714   40.1196 C   0  0  0  0  0  0  0  0  0  0  0  0
   28.4755  -23.3833   39.4428 O   0  0  0  0  0  0  0  0  0  0  0  0
   29.2633  -25.4071   40.0032 O   0  0  0  0  0  0  0  0  0  0  0  0
   28.0160  -22.6378   39.9792 H   0  0  0  0  0  0  0  0  0  0  0  0
   34.5363  -18.2933   35.5526 N   0  0  0  0  0  0  0  0  0  0  0  0
   33.1339  -18.4484   35.4602 C   0  0  0  0  0  0  0  0  0  0  0  0
   32.4271  -18.1440   36.4881 O   0  0  0  0  0  0  0  0  0  0  0  0
   35.1732  -18.5037   34.7667 H   0  0  0  0  0  0  0  0  0  0  0  0
   36.1207  -18.8715   37.2308 C   0  0  0  0  0  0  0  0  0  0  0  0
   35.1752  -17.8030   36.7824 C   0  0  0  0  0  0  0  0  0  0  0  0
   35.9584  -16.5695   36.3914 C   0  0  0  0  0  0  0  0  0  0  0  0
   35.1992  -15.3140   36.5971 C   0  0  0  0  0  0  0  0  0  0  0  0
   34.0079  -15.1011   35.9360 C   0  0  0  0  0  0  0  0  0  0  0  0
   33.2798  -13.9387   36.1065 C   0  0  0  0  0  0  0  0  0  0  0  0
   33.7134  -12.9374   36.9483 C   0  0  0  0  0  0  0  0  0  0  0  0
   34.9106  -13.1559   37.6102 C   0  0  0  0  0  0  0  0  0  0  0  0
   35.6402  -14.3123   37.4439 C   0  0  0  0  0  0  0  0  0  0  0  0
   32.9788  -11.6969   37.1605 C   0  0  0  0  0  0  0  0  0  0  0  0
   33.6564  -10.5297   37.3906 C   0  0  0  0  0  0  0  0  0  0  0  0
   32.9624   -9.3455   37.5931 C   0  0  0  0  0  0  0  0  0  0  0  0
   31.5770   -9.3401   37.5629 C   0  0  0  0  0  0  0  0  0  0  0  0
   30.8819  -10.5094   37.3323 C   0  0  0  0  0  0  0  0  0  0  0  0
   31.6011  -11.6546   37.1377 C   0  0  0  0  0  0  0  0  0  0  0  0
 25 26  1  0  0  0
 26 27  1  0  0  0
 27 28  1  0  0  0
 28 29  2  0  0  0
 29 30  1  0  0  0
 30 31  2  0  0  0
 31 32  1  0  0  0
 32 33  2  0  0  0
 31 34  1  0  0  0
 34 35  2  0  0  0
 35 36  1  0  0  0
 36 37  2  0  0  0
 37 38  1  0  0  0
 38 39  2  0  0  0
 26 21  1  0  0  0
 21 22  1  0  0  0
 22 23  2  0  0  0
 22  1  1  0  0  0
  1  2  1  0  0  0
  2  3  1  0  0  0
  3  4  1  0  0  0
  4  5  2  0  0  0
  5  6  1  0  0  0
  6  7  2  0  0  0
  7 10  1  0  0  0
 10 11  1  0  0  0
 11 12  2  0  0  0
 12 13  1  0  0  0
 13 14  2  0  0  0
 14 15  1  0  0  0
 15 16  2  0  0  0
 16 17  1  0  0  0
 17 18  1  0  0  0
 17 19  2  0  0  0
  7  8  1  0  0  0
  8  9  2  0  0  0
 33 28  1  0  0  0
 39 34  1  0  0  0
  3  1  1  0  0  0
  9  4  1  0  0  0
 16 11  1  0  0  0
 21 24  1  0  0  0
 18 20  1  0  0  0
M  END
> <minimizedAffinity>
-7.00716

> <CNNscore>
0.2787729502

> <CNNaffinity>
5.5846586227

> <CNN_VS>
1.5568517447

> <CNNaffinity_variance>
0.1137803048

$$$$
[H]OC(=O)c1c([H])c([H])c([H])c([H])c1Sc1c([H])c([H])c([C@]2([H])C([H])([H])[C@]2([H])C(=O)N([H])[C@@]([H])(C([H])([H])[H])C([H])([H])c2c([H])c([H])c(-c3c([H])c([H])c([H])c([H])c3[H])c([H])c2[H])c([H])c1[H]


 39 43  0  0  0  0  0  0  0  0999 V2000
   32.5812  -18.7578   34.4408 C   0  0  0  0  0  0  0  0  0  0  0  0
   31.9584  -19.8079   33.5844 C   0  0  0  0  0  0  0  0  0  0  0  0
   31.7428  -19.8834   35.0240 C   0  0  0  0  0  0  0  0  0  0  0  0
   32.3489  -20.9224   35.8753 C   0  0  0  0  0  0  0  0  0  0  0  0
   32.5226  -22.2353   35.4630 C   0  0  0  0  0  0  0  0  0  0  0  0
   33.0784  -23.1908   36.2787 C   0  0  0  0  0  0  0  0  0  0  0  0
   33.4915  -22.8769   37.5598 C   0  0  0  0  0  0  0  0  0  0  0  0
   33.3349  -21.5927   37.9986 C   0  0  0  0  0  0  0  0  0  0  0  0
   32.7775  -20.6561   37.1645 C   0  0  0  0  0  0  0  0  0  0  0  0
   34.2083  -24.1767   38.5629 S   0  0  0  0  0  0  0  0  0  0  0  0
   35.3073  -23.5569   39.8027 C   0  0  0  0  0  0  0  0  0  0  0  0
   36.6813  -23.4727   39.5456 C   0  0  0  0  0  0  0  0  0  0  0  0
   37.5258  -22.9934   40.5137 C   0  0  0  0  0  0  0  0  0  0  0  0
   37.0584  -22.5840   41.7555 C   0  0  0  0  0  0  0  0  0  0  0  0
   35.7114  -22.6679   42.0018 C   0  0  0  0  0  0  0  0  0  0  0  0
   34.8401  -23.1549   41.0194 C   0  0  0  0  0  0  0  0  0  0  0  0
   33.4311  -23.1662   41.3188 C   0  0  0  0  0  0  0  0  0  0  0  0
   32.7284  -21.9725   41.3450 O   0  0  0  0  0  0  0  0  0  0  0  0
   32.7827  -24.2041   41.5628 O   0  0  0  0  0  0  0  0  0  0  0  0
   33.1330  -21.2054   41.8950 H   0  0  0  0  0  0  0  0  0  0  0  0
   34.6582  -17.8728   35.6264 N   0  0  0  0  0  0  0  0  0  0  0  0
   34.0287  -18.6811   34.6518 C   0  0  0  0  0  0  0  0  0  0  0  0
   34.7756  -19.4042   33.8979 O   0  0  0  0  0  0  0  0  0  0  0  0
   34.1282  -17.2729   36.2796 H   0  0  0  0  0  0  0  0  0  0  0  0
   36.6615  -17.0806   34.6162 C   0  0  0  0  0  0  0  0  0  0  0  0
   36.1202  -17.8511   35.7781 C   0  0  0  0  0  0  0  0  0  0  0  0
   36.4032  -17.0966   37.0581 C   0  0  0  0  0  0  0  0  0  0  0  0
   36.0225  -15.6668   36.9821 C   0  0  0  0  0  0  0  0  0  0  0  0
   34.7152  -15.3035   36.7364 C   0  0  0  0  0  0  0  0  0  0  0  0
   34.3318  -13.9779   36.6577 C   0  0  0  0  0  0  0  0  0  0  0  0
   35.2424  -12.9566   36.8222 C   0  0  0  0  0  0  0  0  0  0  0  0
   36.5545  -13.3266   37.0689 C   0  0  0  0  0  0  0  0  0  0  0  0
   36.9419  -14.6460   37.1483 C   0  0  0  0  0  0  0  0  0  0  0  0
   34.8841  -11.5460   36.7495 C   0  0  0  0  0  0  0  0  0  0  0  0
   35.5441  -10.7147   35.8849 C   0  0  0  0  0  0  0  0  0  0  0  0
   35.2071   -9.3709   35.8112 C   0  0  0  0  0  0  0  0  0  0  0  0
   34.1981   -8.8641   36.6146 C   0  0  0  0  0  0  0  0  0  0  0  0
   33.5252   -9.6910   37.4904 C   0  0  0  0  0  0  0  0  0  0  0  0
   33.8862  -11.0079   37.5339 C   0  0  0  0  0  0  0  0  0  0  0  0
 25 26  1  0  0  0
 26 27  1  0  0  0
 27 28  1  0  0  0
 28 29  2  0  0  0
 29 30  1  0  0  0
 30 31  2  0  0  0
 31 32  1  0  0  0
 32 33  2  0  0  0
 31 34  1  0  0  0
 34 35  2  0  0  0
 35 36  1  0  0  0
 36 37  2  0  0  0
 37 38  1  0  0  0
 38 39  2  0  0  0
 26 21  1  0  0  0
 21 22  1  0  0  0
 22 23  2  0  0  0
 22  1  1  0  0  0
  1  2  1  0  0  0
  2  3  1  0  0  0
  3  4  1  0  0  0
  4  5  2  0  0  0
  5  6  1  0  0  0
  6  7  2  0  0  0
  7 10  1  0  0  0
 10 11  1  0  0  0
 11 12  2  0  0  0
 12 13  1  0  0  0
 13 14  2  0  0  0
 14 15  1  0  0  0
 15 16  2  0  0  0
 16 17  1  0  0  0
 17 18  1  0  0  0
 17 19  2  0  0  0
  7  8  1  0  0  0
  8  9  2  0  0  0
 33 28  1  0  0  0
 39 34  1  0  0  0
  3  1  1  0  0  0
  9  4  1  0  0  0
 16 11  1  0  0  0
 21 24  1  0  0  0
 18 20  1  0  0  0
M  END
> <minimizedAffinity>
-7.37748

> <CNNscore>
0.2305022180

> <CNNaffinity>
5.6523599625

> <CNN_VS>
1.3028814793

> <CNNaffinity_variance>
0.1457268298

$$$$
[H]OC(=O)c1c([H])c([H])c([H])c([H])c1Sc1c([H])c([H])c([C@]2([H])C([H])([H])[C@]2([H])C(=O)N([H])[C@@]([H])(C([H])([H])[H])C([H])([H])c2c([H])c([H])c(-c3c([H])c([H])c([H])c([H])c3[H])c([H])c2[H])c([H])c1[H]


 39 43  0  0  0  0  0  0  0  0999 V2000
   32.2815  -23.1946   35.6920 C   0  0  0  0  0  0  0  0  0  0  0  0
   30.8750  -22.7283   35.8601 C   0  0  0  0  0  0  0  0  0  0  0  0
   31.6595  -22.1559   34.7731 C   0  0  0  0  0  0  0  0  0  0  0  0
   32.1328  -20.7604   34.7701 C   0  0  0  0  0  0  0  0  0  0  0  0
   33.1824  -20.3167   33.9793 C   0  0  0  0  0  0  0  0  0  0  0  0
   33.6154  -19.0132   34.0024 C   0  0  0  0  0  0  0  0  0  0  0  0
   33.0143  -18.0803   34.8262 C   0  0  0  0  0  0  0  0  0  0  0  0
   31.9773  -18.4834   35.6190 C   0  0  0  0  0  0  0  0  0  0  0  0
   31.5627  -19.7910   35.5775 C   0  0  0  0  0  0  0  0  0  0  0  0
   33.6341  -16.3996   34.7995 S   0  0  0  0  0  0  0  0  0  0  0  0
   34.9300  -16.1296   35.9728 C   0  0  0  0  0  0  0  0  0  0  0  0
   35.8209  -17.1635   36.2865 C   0  0  0  0  0  0  0  0  0  0  0  0
   36.8208  -16.9456   37.1993 C   0  0  0  0  0  0  0  0  0  0  0  0
   36.9811  -15.7193   37.8306 C   0  0  0  0  0  0  0  0  0  0  0  0
   36.1059  -14.7097   37.5190 C   0  0  0  0  0  0  0  0  0  0  0  0
   35.0820  -14.9214   36.5873 C   0  0  0  0  0  0  0  0  0  0  0  0
   34.2305  -13.8062   36.2617 C   0  0  0  0  0  0  0  0  0  0  0  0
   34.7891  -12.6464   35.7495 O   0  0  0  0  0  0  0  0  0  0  0  0
   32.9919  -13.8124   36.4134 O   0  0  0  0  0  0  0  0  0  0  0  0
   35.5950  -12.2558   36.2521 H   0  0  0  0  0  0  0  0  0  0  0  0
   34.6845  -23.2643   36.5423 N   0  0  0  0  0  0  0  0  0  0  0  0
   33.3366  -22.8502   36.6478 C   0  0  0  0  0  0  0  0  0  0  0  0
   33.0106  -22.1164   37.6499 O   0  0  0  0  0  0  0  0  0  0  0  0
   35.0296  -23.8445   35.7601 H   0  0  0  0  0  0  0  0  0  0  0  0
   35.4924  -23.7775   38.7207 C   0  0  0  0  0  0  0  0  0  0  0  0
   35.6879  -22.8755   37.5438 C   0  0  0  0  0  0  0  0  0  0  0  0
   37.0385  -23.1478   36.9198 C   0  0  0  0  0  0  0  0  0  0  0  0
   38.1241  -22.3334   37.5141 C   0  0  0  0  0  0  0  0  0  0  0  0
   39.0323  -22.9046   38.3804 C   0  0  0  0  0  0  0  0  0  0  0  0
   40.0535  -22.1688   38.9517 C   0  0  0  0  0  0  0  0  0  0  0  0
   40.2102  -20.8270   38.6795 C   0  0  0  0  0  0  0  0  0  0  0  0
   39.2955  -20.2578   37.8086 C   0  0  0  0  0  0  0  0  0  0  0  0
   38.2760  -20.9863   37.2367 C   0  0  0  0  0  0  0  0  0  0  0  0
   41.2719  -20.0124   39.2565 C   0  0  0  0  0  0  0  0  0  0  0  0
   42.0760  -19.2586   38.4443 C   0  0  0  0  0  0  0  0  0  0  0  0
   43.0882  -18.4811   38.9880 C   0  0  0  0  0  0  0  0  0  0  0  0
   43.2892  -18.4644   40.3590 C   0  0  0  0  0  0  0  0  0  0  0  0
   42.4861  -19.2195   41.1888 C   0  0  0  0  0  0  0  0  0  0  0  0
   41.5005  -19.9721   40.6154 C   0  0  0  0  0  0  0  0  0  0  0  0
 25 26  1  0  0  0
 26 27  1  0  0  0
 27 28  1  0  0  0
 28 29  2  0  0  0
 29 30  1  0  0  0
 30 31  2  0  0  0
 31 32  1  0  0  0
 32 33  2  0  0  0
 31 34  1  0  0  0
 34 35  2  0  0  0
 35 36  1  0  0  0
 36 37  2  0  0  0
 37 38  1  0  0  0
 38 39  2  0  0  0
 26 21  1  0  0  0
 21 22  1  0  0  0
 22 23  2  0  0  0
 22  1  1  0  0  0
  1  2  1  0  0  0
  2  3  1  0  0  0
  3  4  1  0  0  0
  4  5  2  0  0  0
  5  6  1  0  0  0
  6  7  2  0  0  0
  7 10  1  0  0  0
 10 11  1  0  0  0
 11 12  2  0  0  0
 12 13  1  0  0  0
 13 14  2  0  0  0
 14 15  1  0  0  0
 15 16  2  0  0  0
 16 17  1  0  0  0
 17 18  1  0  0  0
 17 19  2  0  0  0
  7  8  1  0  0  0
  8  9  2  0  0  0
 33 28  1  0  0  0
 39 34  1  0  0  0
  3  1  1  0  0  0
  9  4  1  0  0  0
 16 11  1  0  0  0
 21 24  1  0  0  0
 18 20  1  0  0  0
M  END
> <minimizedAffinity>
-6.75243

> <CNNscore>
0.2223155200

> <CNNaffinity>
5.2768645287

> <CNN_VS>
1.1731288433

> <CNNaffinity_variance>
0.4002920687

$$$$
[H]OC(=O)c1c([H])c([H])c([H])c([H])c1Sc1c([H])c([H])c([C@]2([H])C([H])([H])[C@]2([H])C(=O)N([H])[C@@]([H])(C([H])([H])[H])C([H])([H])c2c([H])c([H])c(-c3c([H])c([H])c([H])c([H])c3[H])c([H])c2[H])c([H])c1[H]


 39 43  0  0  0  0  0  0  0  0999 V2000
   36.1562  -17.2848   34.7420 C   0  0  0  0  0  0  0  0  0  0  0  0
   37.4280  -18.0166   34.4754 C   0  0  0  0  0  0  0  0  0  0  0  0
   36.2777  -18.7882   34.9294 C   0  0  0  0  0  0  0  0  0  0  0  0
   36.1953  -19.3982   36.2683 C   0  0  0  0  0  0  0  0  0  0  0  0
   37.3067  -19.6394   37.0622 C   0  0  0  0  0  0  0  0  0  0  0  0
   37.2073  -20.2214   38.3026 C   0  0  0  0  0  0  0  0  0  0  0  0
   35.9791  -20.5949   38.8147 C   0  0  0  0  0  0  0  0  0  0  0  0
   34.8631  -20.3721   38.0589 C   0  0  0  0  0  0  0  0  0  0  0  0
   34.9884  -19.7886   36.8230 C   0  0  0  0  0  0  0  0  0  0  0  0
   35.9302  -21.3467   40.4401 S   0  0  0  0  0  0  0  0  0  0  0  0
   34.7489  -20.5825   41.5122 C   0  0  0  0  0  0  0  0  0  0  0  0
   35.0422  -19.3560   42.1209 C   0  0  0  0  0  0  0  0  0  0  0  0
   34.1213  -18.7725   42.9526 C   0  0  0  0  0  0  0  0  0  0  0  0
   32.8929  -19.3644   43.2146 C   0  0  0  0  0  0  0  0  0  0  0  0
   32.6104  -20.5657   42.6151 C   0  0  0  0  0  0  0  0  0  0  0  0
   33.5435  -21.1696   41.7630 C   0  0  0  0  0  0  0  0  0  0  0  0
   33.1656  -22.4022   41.1207 C   0  0  0  0  0  0  0  0  0  0  0  0
   32.4961  -22.3639   39.9083 O   0  0  0  0  0  0  0  0  0  0  0  0
   33.4057  -23.5320   41.5932 O   0  0  0  0  0  0  0  0  0  0  0  0
   31.6788  -21.7452   39.8466 H   0  0  0  0  0  0  0  0  0  0  0  0
   36.7579  -15.1907   36.0669 N   0  0  0  0  0  0  0  0  0  0  0  0
   36.0050  -16.3726   35.8781 C   0  0  0  0  0  0  0  0  0  0  0  0
   35.1216  -16.6694   36.7616 O   0  0  0  0  0  0  0  0  0  0  0  0
   37.4776  -14.8754   35.3961 H   0  0  0  0  0  0  0  0  0  0  0  0
   37.8925  -14.0824   37.8405 C   0  0  0  0  0  0  0  0  0  0  0  0
   36.5463  -14.3240   37.2353 C   0  0  0  0  0  0  0  0  0  0  0  0
   35.9926  -13.0211   36.7028 C   0  0  0  0  0  0  0  0  0  0  0  0
   34.5991  -12.7656   37.1363 C   0  0  0  0  0  0  0  0  0  0  0  0
   34.1202  -11.4756   37.2262 C   0  0  0  0  0  0  0  0  0  0  0  0
   32.8258  -11.2074   37.6300 C   0  0  0  0  0  0  0  0  0  0  0  0
   31.9530  -12.2210   37.9616 C   0  0  0  0  0  0  0  0  0  0  0  0
   32.4386  -13.5152   37.8696 C   0  0  0  0  0  0  0  0  0  0  0  0
   33.7276  -13.7881   37.4679 C   0  0  0  0  0  0  0  0  0  0  0  0
   30.5802  -11.9862   38.3904 C   0  0  0  0  0  0  0  0  0  0  0  0
   30.0467  -12.7215   39.4146 C   0  0  0  0  0  0  0  0  0  0  0  0
   28.7403  -12.5022   39.8273 C   0  0  0  0  0  0  0  0  0  0  0  0
   27.9691  -11.5351   39.2026 C   0  0  0  0  0  0  0  0  0  0  0  0
   28.4945  -10.7873   38.1690 C   0  0  0  0  0  0  0  0  0  0  0  0
   29.7844  -11.0331   37.7915 C   0  0  0  0  0  0  0  0  0  0  0  0
 25 26  1  0  0  0
 26 27  1  0  0  0
 27 28  1  0  0  0
 28 29  2  0  0  0
 29 30  1  0  0  0
 30 31  2  0  0  0
 31 32  1  0  0  0
 32 33  2  0  0  0
 31 34  1  0  0  0
 34 35  2  0  0  0
 35 36  1  0  0  0
 36 37  2  0  0  0
 37 38  1  0  0  0
 38 39  2  0  0  0
 26 21  1  0  0  0
 21 22  1  0  0  0
 22 23  2  0  0  0
 22  1  1  0  0  0
  1  2  1  0  0  0
  2  3  1  0  0  0
  3  4  1  0  0  0
  4  5  2  0  0  0
  5  6  1  0  0  0
  6  7  2  0  0  0
  7 10  1  0  0  0
 10 11  1  0  0  0
 11 12  2  0  0  0
 12 13  1  0  0  0
 13 14  2  0  0  0
 14 15  1  0  0  0
 15 16  2  0  0  0
 16 17  1  0  0  0
 17 18  1  0  0  0
 17 19  2  0  0  0
  7  8  1  0  0  0
  8  9  2  0  0  0
 33 28  1  0  0  0
 39 34  1  0  0  0
  3  1  1  0  0  0
  9  4  1  0  0  0
 16 11  1  0  0  0
 21 24  1  0  0  0
 18 20  1  0  0  0
M  END
> <minimizedAffinity>
-8.32413

> <CNNscore>
0.2099718004

> <CNNaffinity>
5.8597025871

> <CNN_VS>
1.2303723097

> <CNNaffinity_variance>
0.4043534696

$$$$
[H]OC(=O)c1c([H])c([H])c([H])c([H])c1Sc1c([H])c([H])c([C@]2([H])C([H])([H])[C@]2([H])C(=O)N([H])[C@@]([H])(C([H])([H])[H])C([H])([H])c2c([H])c([H])c(-c3c([H])c([H])c([H])c([H])c3[H])c([H])c2[H])c([H])c1[H]


 39 43  0  0  0  0  0  0  0  0999 V2000
   39.2220  -22.7472   34.7893 C   0  0  0  0  0  0  0  0  0  0  0  0
   40.1092  -23.6558   35.5711 C   0  0  0  0  0  0  0  0  0  0  0  0
   38.6779  -23.9312   35.5716 C   0  0  0  0  0  0  0  0  0  0  0  0
   37.8206  -23.7341   36.7538 C   0  0  0  0  0  0  0  0  0  0  0  0
   38.3232  -23.5006   38.0254 C   0  0  0  0  0  0  0  0  0  0  0  0
   37.5049  -23.3326   39.1159 C   0  0  0  0  0  0  0  0  0  0  0  0
   36.1300  -23.3907   38.9871 C   0  0  0  0  0  0  0  0  0  0  0  0
   35.6009  -23.6194   37.7485 C   0  0  0  0  0  0  0  0  0  0  0  0
   36.4393  -23.7835   36.6745 C   0  0  0  0  0  0  0  0  0  0  0  0
   35.1293  -23.1603   40.4550 S   0  0  0  0  0  0  0  0  0  0  0  0
   35.9516  -22.2123   41.7017 C   0  0  0  0  0  0  0  0  0  0  0  0
   37.0377  -22.7576   42.3975 C   0  0  0  0  0  0  0  0  0  0  0  0
   37.6671  -22.0162   43.3640 C   0  0  0  0  0  0  0  0  0  0  0  0
   37.2585  -20.7273   43.6799 C   0  0  0  0  0  0  0  0  0  0  0  0
   36.1943  -20.1977   42.9948 C   0  0  0  0  0  0  0  0  0  0  0  0
   35.5452  -20.9460   42.0049 C   0  0  0  0  0  0  0  0  0  0  0  0
   34.4707  -20.3141   41.2831 C   0  0  0  0  0  0  0  0  0  0  0  0
   34.6732  -19.9066   39.9745 O   0  0  0  0  0  0  0  0  0  0  0  0
   33.3404  -20.1027   41.7677 O   0  0  0  0  0  0  0  0  0  0  0  0
   35.5142  -19.3485   39.7850 H   0  0  0  0  0  0  0  0  0  0  0  0
   37.8400  -20.6043   34.8076 N   0  0  0  0  0  0  0  0  0  0  0  0
   38.9659  -21.3645   35.1995 C   0  0  0  0  0  0  0  0  0  0  0  0
   39.8262  -20.8081   35.9736 O   0  0  0  0  0  0  0  0  0  0  0  0
   37.0968  -20.9829   34.1978 H   0  0  0  0  0  0  0  0  0  0  0  0
   37.6990  -18.3553   34.0435 C   0  0  0  0  0  0  0  0  0  0  0  0
   37.6522  -19.2193   35.2633 C   0  0  0  0  0  0  0  0  0  0  0  0
   36.2689  -19.1564   35.8720 C   0  0  0  0  0  0  0  0  0  0  0  0
   35.8285  -17.7721   36.1632 C   0  0  0  0  0  0  0  0  0  0  0  0
   34.6415  -17.2935   35.6499 C   0  0  0  0  0  0  0  0  0  0  0  0
   34.2069  -16.0061   35.9029 C   0  0  0  0  0  0  0  0  0  0  0  0
   34.9431  -15.1405   36.6827 C   0  0  0  0  0  0  0  0  0  0  0  0
   36.1347  -15.6259   37.1961 C   0  0  0  0  0  0  0  0  0  0  0  0
   36.5725  -16.9078   36.9471 C   0  0  0  0  0  0  0  0  0  0  0  0
   34.5241  -13.7763   36.9776 C   0  0  0  0  0  0  0  0  0  0  0  0
   33.4531  -13.5507   37.8001 C   0  0  0  0  0  0  0  0  0  0  0  0
   33.0497  -12.2541   38.0845 C   0  0  0  0  0  0  0  0  0  0  0  0
   33.7317  -11.1798   37.5358 C   0  0  0  0  0  0  0  0  0  0  0  0
   34.8125  -11.3932   36.7052 C   0  0  0  0  0  0  0  0  0  0  0  0
   35.1787  -12.6842   36.4490 C   0  0  0  0  0  0  0  0  0  0  0  0
 25 26  1  0  0  0
 26 27  1  0  0  0
 27 28  1  0  0  0
 28 29  2  0  0  0
 29 30  1  0  0  0
 30 31  2  0  0  0
 31 32  1  0  0  0
 32 33  2  0  0  0
 31 34  1  0  0  0
 34 35  2  0  0  0
 35 36  1  0  0  0
 36 37  2  0  0  0
 37 38  1  0  0  0
 38 39  2  0  0  0
 26 21  1  0  0  0
 21 22  1  0  0  0
 22 23  2  0  0  0
 22  1  1  0  0  0
  1  2  1  0  0  0
  2  3  1  0  0  0
  3  4  1  0  0  0
  4  5  2  0  0  0
  5  6  1  0  0  0
  6  7  2  0  0  0
  7 10  1  0  0  0
 10 11  1  0  0  0
 11 12  2  0  0  0
 12 13  1  0  0  0
 13 14  2  0  0  0
 14 15  1  0  0  0
 15 16  2  0  0  0
 16 17  1  0  0  0
 17 18  1  0  0  0
 17 19  2  0  0  0
  7  8  1  0  0  0
  8  9  2  0  0  0
 33 28  1  0  0  0
 39 34  1  0  0  0
  3  1  1  0  0  0
  9  4  1  0  0  0
 16 11  1  0  0  0
 21 24  1  0  0  0
 18 20  1  0  0  0
M  END
> <minimizedAffinity>
-7.01598

> <CNNscore>
0.2003889680

> <CNNaffinity>
5.3903069496

> <CNN_VS>
1.0801579952

> <CNNaffinity_variance>
0.4870405793

$$$$
[H]OC(=O)c1c([H])c([H])c([H])c([H])c1Sc1c([H])c([H])c([C@]2([H])C([H])([H])[C@]2([H])C(=O)N([H])[C@@]([H])(C([H])([H])[H])C([H])([H])c2c([H])c([H])c(-c3c([H])c([H])c([H])c([H])c3[H])c([H])c2[H])c([H])c1[H]


 39 43  0  0  0  0  0  0  0  0999 V2000
   36.3344  -17.2099   34.6116 C   0  0  0  0  0  0  0  0  0  0  0  0
   37.5313  -18.0994   34.6309 C   0  0  0  0  0  0  0  0  0  0  0  0
   36.2166  -18.7203   34.7334 C   0  0  0  0  0  0  0  0  0  0  0  0
   35.7171  -19.3483   35.9694 C   0  0  0  0  0  0  0  0  0  0  0  0
   34.4241  -19.8313   36.1063 C   0  0  0  0  0  0  0  0  0  0  0  0
   33.9759  -20.4015   37.2730 C   0  0  0  0  0  0  0  0  0  0  0  0
   34.8072  -20.5174   38.3711 C   0  0  0  0  0  0  0  0  0  0  0  0
   36.0875  -20.0516   38.2711 C   0  0  0  0  0  0  0  0  0  0  0  0
   36.5117  -19.4865   37.0946 C   0  0  0  0  0  0  0  0  0  0  0  0
   34.1508  -21.2739   39.8565 S   0  0  0  0  0  0  0  0  0  0  0  0
   34.9468  -20.6971   41.3272 C   0  0  0  0  0  0  0  0  0  0  0  0
   34.4724  -19.5532   41.9809 C   0  0  0  0  0  0  0  0  0  0  0  0
   35.0975  -19.1122   43.1188 C   0  0  0  0  0  0  0  0  0  0  0  0
   36.1987  -19.7698   43.6508 C   0  0  0  0  0  0  0  0  0  0  0  0
   36.6590  -20.8903   43.0067 C   0  0  0  0  0  0  0  0  0  0  0  0
   36.0269  -21.3499   41.8445 C   0  0  0  0  0  0  0  0  0  0  0  0
   36.5229  -22.5628   41.2464 C   0  0  0  0  0  0  0  0  0  0  0  0
   37.5170  -22.4933   40.2839 O   0  0  0  0  0  0  0  0  0  0  0  0
   36.1080  -23.7017   41.5428 O   0  0  0  0  0  0  0  0  0  0  0  0
   37.3737  -21.8301   39.5129 H   0  0  0  0  0  0  0  0  0  0  0  0
   36.8577  -15.2934   36.2101 N   0  0  0  0  0  0  0  0  0  0  0  0
   36.0096  -16.3156   35.7253 C   0  0  0  0  0  0  0  0  0  0  0  0
   34.8705  -16.4722   36.2969 O   0  0  0  0  0  0  0  0  0  0  0  0
   37.7836  -15.0948   35.7969 H   0  0  0  0  0  0  0  0  0  0  0  0
   37.7005  -14.1479   38.1177 C   0  0  0  0  0  0  0  0  0  0  0  0
   36.4592  -14.4337   37.3341 C   0  0  0  0  0  0  0  0  0  0  0  0
   35.9420  -13.1498   36.7243 C   0  0  0  0  0  0  0  0  0  0  0  0
   34.5641  -12.8190   37.1566 C   0  0  0  0  0  0  0  0  0  0  0  0
   33.6947  -13.8164   37.5449 C   0  0  0  0  0  0  0  0  0  0  0  0
   32.4032  -13.5375   37.9505 C   0  0  0  0  0  0  0  0  0  0  0  0
   31.9253  -12.2453   37.9855 C   0  0  0  0  0  0  0  0  0  0  0  0
   32.8024  -11.2468   37.5946 C   0  0  0  0  0  0  0  0  0  0  0  0
   34.0904  -11.5192   37.1895 C   0  0  0  0  0  0  0  0  0  0  0  0
   30.5729  -11.9038   38.4073 C   0  0  0  0  0  0  0  0  0  0  0  0
   29.8595  -10.9573   37.7220 C   0  0  0  0  0  0  0  0  0  0  0  0
   28.5715  -10.6282   38.1189 C   0  0  0  0  0  0  0  0  0  0  0  0
   28.0009  -11.2584   39.2132 C   0  0  0  0  0  0  0  0  0  0  0  0
   28.7090  -12.2139   39.9127 C   0  0  0  0  0  0  0  0  0  0  0  0
   29.9744  -12.5101   39.4911 C   0  0  0  0  0  0  0  0  0  0  0  0
 25 26  1  0  0  0
 26 27  1  0  0  0
 27 28  1  0  0  0
 28 29  2  0  0  0
 29 30  1  0  0  0
 30 31  2  0  0  0
 31 32  1  0  0  0
 32 33  2  0  0  0
 31 34  1  0  0  0
 34 35  2  0  0  0
 35 36  1  0  0  0
 36 37  2  0  0  0
 37 38  1  0  0  0
 38 39  2  0  0  0
 26 21  1  0  0  0
 21 22  1  0  0  0
 22 23  2  0  0  0
 22  1  1  0  0  0
  1  2  1  0  0  0
  2  3  1  0  0  0
  3  4  1  0  0  0
  4  5  2  0  0  0
  5  6  1  0  0  0
  6  7  2  0  0  0
  7 10  1  0  0  0
 10 11  1  0  0  0
 11 12  2  0  0  0
 12 13  1  0  0  0
 13 14  2  0  0  0
 14 15  1  0  0  0
 15 16  2  0  0  0
 16 17  1  0  0  0
 17 18  1  0  0  0
 17 19  2  0  0  0
  7  8  1  0  0  0
  8  9  2  0  0  0
 33 28  1  0  0  0
 39 34  1  0  0  0
  3  1  1  0  0  0
  9  4  1  0  0  0
 16 11  1  0  0  0
 21 24  1  0  0  0
 18 20  1  0  0  0
M  END
> <minimizedAffinity>
-8.30950

> <CNNscore>
0.1954615265

> <CNNaffinity>
5.9258408546

> <CNN_VS>
1.1582739353

> <CNNaffinity_variance>
0.3180714250

$$$$
[H]c1nc(N([H])c2c([H])n(C([H])([H])C([H])([H])C([H])([H])C([H])([H])[H])c(=O)n(C([H])([H])[H])c2=O)sc1C(=O)N1C([H])([H])C([H])([H])N([H])C([H])([H])C1([H])[H]


 29 31  0  0  0  0  0  0  0  0999 V2000
   35.8191  -13.1918   35.8724 N   0  0  0  0  0  0  0  0  0  0  0  0
   36.5470  -12.9247   35.1190 H   0  0  0  0  0  0  0  0  0  0  0  0
   33.1542  -11.3533   37.6198 N   0  0  0  0  0  0  0  0  0  0  0  0
   33.8950  -12.4211   37.1848 C   0  0  0  0  0  0  0  0  0  0  0  0
   34.9856  -12.2143   36.3822 C   0  0  0  0  0  0  0  0  0  0  0  0
   35.2568  -10.8874   36.0659 C   0  0  0  0  0  0  0  0  0  0  0  0
   36.2282  -10.6320   35.3445 O   0  0  0  0  0  0  0  0  0  0  0  0
   34.5098   -9.8642   36.5093 N   0  0  0  0  0  0  0  0  0  0  0  0
   34.8016   -8.4831   36.1748 C   0  0  0  0  0  0  0  0  0  0  0  0
   33.4526  -10.0935   37.2901 C   0  0  0  0  0  0  0  0  0  0  0  0
   32.7154   -9.1601   37.7345 O   0  0  0  0  0  0  0  0  0  0  0  0
   31.9886  -11.6032   38.4809 C   0  0  0  0  0  0  0  0  0  0  0  0
   30.8666  -12.0375   37.5444 C   0  0  0  0  0  0  0  0  0  0  0  0
   28.5665  -11.2778   38.0642 C   0  0  0  0  0  0  0  0  0  0  0  0
   29.8711  -10.8994   37.4106 C   0  0  0  0  0  0  0  0  0  0  0  0
   35.8729  -14.5843   36.2049 C   0  0  0  0  0  0  0  0  0  0  0  0
   36.8177  -15.2541   36.7863 N   0  0  0  0  0  0  0  0  0  0  0  0
   36.7084  -16.5385   37.0207 C   0  0  0  0  0  0  0  0  0  0  0  0
   35.5622  -17.1650   36.6334 C   0  0  0  0  0  0  0  0  0  0  0  0
   34.7071  -15.8032   35.9403 S   0  0  0  0  0  0  0  0  0  0  0  0
   35.0874  -18.5361   36.7041 C   0  0  0  0  0  0  0  0  0  0  0  0
   35.9743  -19.3177   37.2915 O   0  0  0  0  0  0  0  0  0  0  0  0
   33.9324  -19.1588   36.2913 N   0  0  0  0  0  0  0  0  0  0  0  0
   33.8125  -20.6450   36.5168 C   0  0  0  0  0  0  0  0  0  0  0  0
   33.0443  -21.1486   35.3301 C   0  0  0  0  0  0  0  0  0  0  0  0
   33.3041  -20.4102   34.1079 N   0  0  0  0  0  0  0  0  0  0  0  0
   32.7949  -19.0479   34.1795 C   0  0  0  0  0  0  0  0  0  0  0  0
   32.7675  -18.6051   35.6617 C   0  0  0  0  0  0  0  0  0  0  0  0
   32.8892  -20.8776   33.2740 H   0  0  0  0  0  0  0  0  0  0  0  0
 14 15  1  0  0  0
 15 13  1  0  0  0
 13 12  1  0  0  0
 12  3  1  0  0  0
  3  4  1  0  0  0
  4  5  2  0  0  0
  5  1  1  0  0  0
  1 16  1  0  0  0
 16 17  2  0  0  0
 17 18  1  0  0  0
 18 19  2  0  0  0
 19 20  1  0  0  0
 19 21  1  0  0  0
 21 22  2  0  0  0
 21 23  1  0  0  0
 23 24  1  0  0  0
 24 25  1  0  0  0
 25 26  1  0  0  0
 26 27  1  0  0  0
 27 28  1  0  0  0
  5  6  1  0  0  0
  6  7  2  0  0  0
  6  8  1  0  0  0
  8  9  1  0  0  0
  8 10  1  0  0  0
 10 11  2  0  0  0
 10  3  1  0  0  0
 20 16  1  0  0  0
 28 23  1  0  0  0
  1  2  1  0  0  0
 26 29  1  0  0  0
M  END
> <minimizedAffinity>
-6.89685

> <CNNscore>
0.5055800080

> <CNNaffinity>
6.3529577255

> <CNN_VS>
3.2119283676

> <CNNaffinity_variance>
0.1985950768

$$$$
[H]c1nc(N([H])c2c([H])n(C([H])([H])C([H])([H])C([H])([H])C([H])([H])[H])c(=O)n(C([H])([H])[H])c2=O)sc1C(=O)N1C([H])([H])C([H])([H])N([H])C([H])([H])C1([H])[H]


 29 31  0  0  0  0  0  0  0  0999 V2000
   36.0850  -16.1266   35.8009 N   0  0  0  0  0  0  0  0  0  0  0  0
   36.9084  -15.9330   35.1278 H   0  0  0  0  0  0  0  0  0  0  0  0
   34.4297  -19.3362   36.5035 N   0  0  0  0  0  0  0  0  0  0  0  0
   34.5686  -18.0295   36.1146 C   0  0  0  0  0  0  0  0  0  0  0  0
   35.7995  -17.4302   36.1607 C   0  0  0  0  0  0  0  0  0  0  0  0
   36.8417  -18.2307   36.6161 C   0  0  0  0  0  0  0  0  0  0  0  0
   37.9791  -17.7499   36.6820 O   0  0  0  0  0  0  0  0  0  0  0  0
   36.6707  -19.5084   36.9897 N   0  0  0  0  0  0  0  0  0  0  0  0
   37.7645  -20.3359   37.4622 C   0  0  0  0  0  0  0  0  0  0  0  0
   35.4608  -20.0680   36.9349 C   0  0  0  0  0  0  0  0  0  0  0  0
   35.2481  -21.2721   37.2771 O   0  0  0  0  0  0  0  0  0  0  0  0
   33.0972  -19.9556   36.4436 C   0  0  0  0  0  0  0  0  0  0  0  0
   32.2402  -19.0153   35.6033 C   0  0  0  0  0  0  0  0  0  0  0  0
   32.5699  -20.7394   33.8550 C   0  0  0  0  0  0  0  0  0  0  0  0
   31.5694  -19.8157   34.5017 C   0  0  0  0  0  0  0  0  0  0  0  0
   35.4224  -14.9219   36.2036 C   0  0  0  0  0  0  0  0  0  0  0  0
   35.9225  -13.8406   36.7137 N   0  0  0  0  0  0  0  0  0  0  0  0
   35.1699  -12.8158   37.0301 C   0  0  0  0  0  0  0  0  0  0  0  0
   33.8291  -12.9130   36.8085 C   0  0  0  0  0  0  0  0  0  0  0  0
   33.7622  -14.5293   36.1382 S   0  0  0  0  0  0  0  0  0  0  0  0
   32.7015  -12.0250   37.0328 C   0  0  0  0  0  0  0  0  0  0  0  0
   31.5622  -12.6129   36.7181 O   0  0  0  0  0  0  0  0  0  0  0  0
   32.5926  -10.7334   37.4931 N   0  0  0  0  0  0  0  0  0  0  0  0
   31.2161  -10.1213   37.5592 C   0  0  0  0  0  0  0  0  0  0  0  0
   31.4269   -8.6743   37.2218 C   0  0  0  0  0  0  0  0  0  0  0  0
   32.5039   -8.4444   36.2764 N   0  0  0  0  0  0  0  0  0  0  0  0
   33.8043   -8.7629   36.8487 C   0  0  0  0  0  0  0  0  0  0  0  0
   33.6139   -9.8338   37.9490 C   0  0  0  0  0  0  0  0  0  0  0  0
   32.5216   -7.4592   35.9372 H   0  0  0  0  0  0  0  0  0  0  0  0
 14 15  1  0  0  0
 15 13  1  0  0  0
 13 12  1  0  0  0
 12  3  1  0  0  0
  3  4  1  0  0  0
  4  5  2  0  0  0
  5  1  1  0  0  0
  1 16  1  0  0  0
 16 17  2  0  0  0
 17 18  1  0  0  0
 18 19  2  0  0  0
 19 20  1  0  0  0
 19 21  1  0  0  0
 21 22  2  0  0  0
 21 23  1  0  0  0
 23 24  1  0  0  0
 24 25  1  0  0  0
 25 26  1  0  0  0
 26 27  1  0  0  0
 27 28  1  0  0  0
  5  6  1  0  0  0
  6  7  2  0  0  0
  6  8  1  0  0  0
  8  9  1  0  0  0
  8 10  1  0  0  0
 10 11  2  0  0  0
 10  3  1  0  0  0
 20 16  1  0  0  0
 28 23  1  0  0  0
  1  2  1  0  0  0
 26 29  1  0  0  0
M  END
> <minimizedAffinity>
-6.52869

> <CNNscore>
0.3974973261

> <CNNaffinity>
6.3854179382

> <CNN_VS>
2.5381865501

> <CNNaffinity_variance>
0.3748726547

$$$$
[H]c1nc(N([H])c2c([H])n(C([H])([H])C([H])([H])C([H])([H])C([H])([H])[H])c(=O)n(C([H])([H])[H])c2=O)sc1C(=O)N1C([H])([H])C([H])([H])N([H])C([H])([H])C1([H])[H]


 29 31  0  0  0  0  0  0  0  0999 V2000
   35.0852  -14.3129   36.5562 N   0  0  0  0  0  0  0  0  0  0  0  0
   35.9249  -13.6506   36.3980 H   0  0  0  0  0  0  0  0  0  0  0  0
   34.5340  -17.6677   35.1503 N   0  0  0  0  0  0  0  0  0  0  0  0
   34.2964  -16.3490   35.4378 C   0  0  0  0  0  0  0  0  0  0  0  0
   35.1953  -15.6414   36.1911 C   0  0  0  0  0  0  0  0  0  0  0  0
   36.3142  -16.3501   36.6156 C   0  0  0  0  0  0  0  0  0  0  0  0
   37.1648  -15.7692   37.2999 O   0  0  0  0  0  0  0  0  0  0  0  0
   36.5161  -17.6427   36.3159 N   0  0  0  0  0  0  0  0  0  0  0  0
   37.6873  -18.3731   36.7623 C   0  0  0  0  0  0  0  0  0  0  0  0
   35.6244  -18.3087   35.5800 C   0  0  0  0  0  0  0  0  0  0  0  0
   35.7701  -19.5313   35.2702 O   0  0  0  0  0  0  0  0  0  0  0  0
   33.5529  -18.4040   34.3390 C   0  0  0  0  0  0  0  0  0  0  0  0
   32.3441  -18.6180   35.2432 C   0  0  0  0  0  0  0  0  0  0  0  0
   29.9376  -19.1641   35.0238 C   0  0  0  0  0  0  0  0  0  0  0  0
   31.3209  -19.4604   34.5032 C   0  0  0  0  0  0  0  0  0  0  0  0
   33.9681  -13.6367   37.1455 C   0  0  0  0  0  0  0  0  0  0  0  0
   33.7332  -13.3707   38.3919 N   0  0  0  0  0  0  0  0  0  0  0  0
   32.6507  -12.7363   38.7691 C   0  0  0  0  0  0  0  0  0  0  0  0
   31.7629  -12.3567   37.8079 C   0  0  0  0  0  0  0  0  0  0  0  0
   32.5914  -12.9660   36.3907 S   0  0  0  0  0  0  0  0  0  0  0  0
   30.4833  -11.6691   37.8298 C   0  0  0  0  0  0  0  0  0  0  0  0
   30.4264  -10.7386   36.8952 O   0  0  0  0  0  0  0  0  0  0  0  0
   29.3568  -11.7936   38.6091 N   0  0  0  0  0  0  0  0  0  0  0  0
   28.2081  -10.8531   38.3447 C   0  0  0  0  0  0  0  0  0  0  0  0
   27.6139  -10.5893   39.6972 C   0  0  0  0  0  0  0  0  0  0  0  0
   28.5863  -10.5918   40.7747 N   0  0  0  0  0  0  0  0  0  0  0  0
   29.1442  -11.9181   40.9977 C   0  0  0  0  0  0  0  0  0  0  0  0
   29.0758  -12.7149   39.6733 C   0  0  0  0  0  0  0  0  0  0  0  0
   28.1779  -10.2473   41.6695 H   0  0  0  0  0  0  0  0  0  0  0  0
 14 15  1  0  0  0
 15 13  1  0  0  0
 13 12  1  0  0  0
 12  3  1  0  0  0
  3  4  1  0  0  0
  4  5  2  0  0  0
  5  1  1  0  0  0
  1 16  1  0  0  0
 16 17  2  0  0  0
 17 18  1  0  0  0
 18 19  2  0  0  0
 19 20  1  0  0  0
 19 21  1  0  0  0
 21 22  2  0  0  0
 21 23  1  0  0  0
 23 24  1  0  0  0
 24 25  1  0  0  0
 25 26  1  0  0  0
 26 27  1  0  0  0
 27 28  1  0  0  0
  5  6  1  0  0  0
  6  7  2  0  0  0
  6  8  1  0  0  0
  8  9  1  0  0  0
  8 10  1  0  0  0
 10 11  2  0  0  0
 10  3  1  0  0  0
 20 16  1  0  0  0
 28 23  1  0  0  0
  1  2  1  0  0  0
 26 29  1  0  0  0
M  END
> <minimizedAffinity>
-7.37036

> <CNNscore>
0.3905266821

> <CNNaffinity>
5.7641267776

> <CNN_VS>
2.2510452271

> <CNNaffinity_variance>
0.4175329208

$$$$
[H]c1nc(N([H])c2c([H])n(C([H])([H])C([H])([H])C([H])([H])C([H])([H])[H])c(=O)n(C([H])([H])[H])c2=O)sc1C(=O)N1C([H])([H])C([H])([H])N([H])C([H])([H])C1([H])[H]


 29 31  0  0  0  0  0  0  0  0999 V2000
   33.1848  -18.0701   34.4678 N   0  0  0  0  0  0  0  0  0  0  0  0
   33.2118  -17.9629   33.3924 H   0  0  0  0  0  0  0  0  0  0  0  0
   34.9869  -15.6064   36.5215 N   0  0  0  0  0  0  0  0  0  0  0  0
   33.9739  -16.1505   35.7760 C   0  0  0  0  0  0  0  0  0  0  0  0
   34.1186  -17.4012   35.2365 C   0  0  0  0  0  0  0  0  0  0  0  0
   35.3280  -18.0347   35.5021 C   0  0  0  0  0  0  0  0  0  0  0  0
   35.5224  -19.1667   35.0437 O   0  0  0  0  0  0  0  0  0  0  0  0
   36.3002  -17.4724   36.2370 N   0  0  0  0  0  0  0  0  0  0  0  0
   37.5580  -18.1419   36.5096 C   0  0  0  0  0  0  0  0  0  0  0  0
   36.1333  -16.2527   36.7511 C   0  0  0  0  0  0  0  0  0  0  0  0
   37.0226  -15.6786   37.4523 O   0  0  0  0  0  0  0  0  0  0  0  0
   34.8053  -14.2622   37.0898 C   0  0  0  0  0  0  0  0  0  0  0  0
   33.5173  -13.7235   36.4770 C   0  0  0  0  0  0  0  0  0  0  0  0
   32.5184  -12.9798   38.6187 C   0  0  0  0  0  0  0  0  0  0  0  0
   33.0535  -12.5249   37.2849 C   0  0  0  0  0  0  0  0  0  0  0  0
   32.1251  -18.9331   34.8976 C   0  0  0  0  0  0  0  0  0  0  0  0
   30.8607  -18.8834   34.6180 N   0  0  0  0  0  0  0  0  0  0  0  0
   30.0136  -19.7600   35.0981 C   0  0  0  0  0  0  0  0  0  0  0  0
   30.4980  -20.7402   35.9111 C   0  0  0  0  0  0  0  0  0  0  0  0
   32.1934  -20.3022   35.9153 S   0  0  0  0  0  0  0  0  0  0  0  0
   29.8922  -21.8503   36.6261 C   0  0  0  0  0  0  0  0  0  0  0  0
   29.3687  -21.4510   37.7703 O   0  0  0  0  0  0  0  0  0  0  0  0
   29.7625  -23.1922   36.3531 N   0  0  0  0  0  0  0  0  0  0  0  0
   29.0796  -24.0588   37.3810 C   0  0  0  0  0  0  0  0  0  0  0  0
   29.7995  -25.3734   37.3085 C   0  0  0  0  0  0  0  0  0  0  0  0
   31.2081  -25.2525   36.9802 N   0  0  0  0  0  0  0  0  0  0  0  0
   31.4081  -24.7788   35.6179 C   0  0  0  0  0  0  0  0  0  0  0  0
   30.1793  -23.9371   35.1992 C   0  0  0  0  0  0  0  0  0  0  0  0
   31.7148  -26.1556   37.0966 H   0  0  0  0  0  0  0  0  0  0  0  0
 14 15  1  0  0  0
 15 13  1  0  0  0
 13 12  1  0  0  0
 12  3  1  0  0  0
  3  4  1  0  0  0
  4  5  2  0  0  0
  5  1  1  0  0  0
  1 16  1  0  0  0
 16 17  2  0  0  0
 17 18  1  0  0  0
 18 19  2  0  0  0
 19 20  1  0  0  0
 19 21  1  0  0  0
 21 22  2  0  0  0
 21 23  1  0  0  0
 23 24  1  0  0  0
 24 25  1  0  0  0
 25 26  1  0  0  0
 26 27  1  0  0  0
 27 28  1  0  0  0
  5  6  1  0  0  0
  6  7  2  0  0  0
  6  8  1  0  0  0
  8  9  1  0  0  0
  8 10  1  0  0  0
 10 11  2  0  0  0
 10  3  1  0  0  0
 20 16  1  0  0  0
 28 23  1  0  0  0
  1  2  1  0  0  0
 26 29  1  0  0  0
M  END
> <minimizedAffinity>
-6.37649

> <CNNscore>
0.3559099436

> <CNNaffinity>
5.0897293091

> <CNN_VS>
1.8114852905

> <CNNaffinity_variance>
0.8377583623

$$$$
[H]c1nc(N([H])c2c([H])n(C([H])([H])C([H])([H])C([H])([H])C([H])([H])[H])c(=O)n(C([H])([H])[H])c2=O)sc1C(=O)N1C([H])([H])C([H])([H])N([H])C([H])([H])C1([H])[H]


 29 31  0  0  0  0  0  0  0  0999 V2000
   35.5265  -15.4631   37.1800 N   0  0  0  0  0  0  0  0  0  0  0  0
   36.1225  -15.6500   38.0624 H   0  0  0  0  0  0  0  0  0  0  0  0
   34.1377  -17.8428   34.7421 N   0  0  0  0  0  0  0  0  0  0  0  0
   34.1711  -16.8068   35.6386 C   0  0  0  0  0  0  0  0  0  0  0  0
   35.3471  -16.4781   36.2593 C   0  0  0  0  0  0  0  0  0  0  0  0
   36.4477  -17.2546   35.9127 C   0  0  0  0  0  0  0  0  0  0  0  0
   37.5403  -17.0098   36.4376 O   0  0  0  0  0  0  0  0  0  0  0  0
   36.3801  -18.2633   35.0298 N   0  0  0  0  0  0  0  0  0  0  0  0
   37.5342  -19.0667   34.6737 C   0  0  0  0  0  0  0  0  0  0  0  0
   35.2217  -18.5624   34.4393 C   0  0  0  0  0  0  0  0  0  0  0  0
   35.1067  -19.5065   33.5981 O   0  0  0  0  0  0  0  0  0  0  0  0
   32.8622  -18.1743   34.0894 C   0  0  0  0  0  0  0  0  0  0  0  0
   31.9900  -18.7954   35.1749 C   0  0  0  0  0  0  0  0  0  0  0  0
   32.1491  -21.1262   34.3505 C   0  0  0  0  0  0  0  0  0  0  0  0
   31.2209  -19.9607   34.5792 C   0  0  0  0  0  0  0  0  0  0  0  0
   35.0169  -14.1246   37.1466 C   0  0  0  0  0  0  0  0  0  0  0  0
   35.5712  -13.0458   36.6904 N   0  0  0  0  0  0  0  0  0  0  0  0
   34.9628  -11.8862   36.7352 C   0  0  0  0  0  0  0  0  0  0  0  0
   33.7154  -11.8380   37.2809 C   0  0  0  0  0  0  0  0  0  0  0  0
   33.5156  -13.5270   37.6978 S   0  0  0  0  0  0  0  0  0  0  0  0
   32.7560  -10.7726   37.5152 C   0  0  0  0  0  0  0  0  0  0  0  0
   33.3659   -9.6321   37.7797 O   0  0  0  0  0  0  0  0  0  0  0  0
   31.3815  -10.7217   37.5161 N   0  0  0  0  0  0  0  0  0  0  0  0
   30.7241   -9.4049   37.8444 C   0  0  0  0  0  0  0  0  0  0  0  0
   29.4808   -9.7781   38.5974 C   0  0  0  0  0  0  0  0  0  0  0  0
   29.6229  -10.9752   39.4059 N   0  0  0  0  0  0  0  0  0  0  0  0
   29.7890  -12.1664   38.5852 C   0  0  0  0  0  0  0  0  0  0  0  0
   30.4260  -11.7557   37.2365 C   0  0  0  0  0  0  0  0  0  0  0  0
   28.8073  -11.1176   40.0387 H   0  0  0  0  0  0  0  0  0  0  0  0
 14 15  1  0  0  0
 15 13  1  0  0  0
 13 12  1  0  0  0
 12  3  1  0  0  0
  3  4  1  0  0  0
  4  5  2  0  0  0
  5  1  1  0  0  0
  1 16  1  0  0  0
 16 17  2  0  0  0
 17 18  1  0  0  0
 18 19  2  0  0  0
 19 20  1  0  0  0
 19 21  1  0  0  0
 21 22  2  0  0  0
 21 23  1  0  0  0
 23 24  1  0  0  0
 24 25  1  0  0  0
 25 26  1  0  0  0
 26 27  1  0  0  0
 27 28  1  0  0  0
  5  6  1  0  0  0
  6  7  2  0  0  0
  6  8  1  0  0  0
  8  9  1  0  0  0
  8 10  1  0  0  0
 10 11  2  0  0  0
 10  3  1  0  0  0
 20 16  1  0  0  0
 28 23  1  0  0  0
  1  2  1  0  0  0
 26 29  1  0  0  0
M  END
> <minimizedAffinity>
-6.92444

> <CNNscore>
0.3092467189

> <CNNaffinity>
6.0399751663

> <CNN_VS>
1.8678425550

> <CNNaffinity_variance>
0.3024732471

$$$$
[H]c1nc(N([H])c2c([H])n(C([H])([H])C([H])([H])C([H])([H])C([H])([H])[H])c(=O)n(C([H])([H])[H])c2=O)sc1C(=O)N1C([H])([H])C([H])([H])N([H])C([H])([H])C1([H])[H]


 29 31  0  0  0  0  0  0  0  0999 V2000
   35.9796  -16.3779   35.9303 N   0  0  0  0  0  0  0  0  0  0  0  0
   36.9604  -16.2429   35.4963 H   0  0  0  0  0  0  0  0  0  0  0  0
   35.1857  -19.7191   37.2501 N   0  0  0  0  0  0  0  0  0  0  0  0
   35.7343  -18.4643   37.1974 C   0  0  0  0  0  0  0  0  0  0  0  0
   35.4942  -17.6586   36.1160 C   0  0  0  0  0  0  0  0  0  0  0  0
   34.6834  -18.2051   35.1269 C   0  0  0  0  0  0  0  0  0  0  0  0
   34.4276  -17.5291   34.1234 O   0  0  0  0  0  0  0  0  0  0  0  0
   34.1618  -19.4390   35.2102 N   0  0  0  0  0  0  0  0  0  0  0  0
   33.3159  -19.9998   34.1736 C   0  0  0  0  0  0  0  0  0  0  0  0
   34.4115  -20.2031   36.2750 C   0  0  0  0  0  0  0  0  0  0  0  0
   33.9418  -21.3761   36.4001 O   0  0  0  0  0  0  0  0  0  0  0  0
   35.4590  -20.5633   38.4228 C   0  0  0  0  0  0  0  0  0  0  0  0
   35.2568  -19.6640   39.6373 C   0  0  0  0  0  0  0  0  0  0  0  0
   34.6774  -19.6675   42.0461 C   0  0  0  0  0  0  0  0  0  0  0  0
   34.7783  -20.5123   40.8017 C   0  0  0  0  0  0  0  0  0  0  0  0
   35.3503  -15.1289   36.2409 C   0  0  0  0  0  0  0  0  0  0  0  0
   35.8892  -13.9957   36.5644 N   0  0  0  0  0  0  0  0  0  0  0  0
   35.1633  -12.9353   36.8204 C   0  0  0  0  0  0  0  0  0  0  0  0
   33.8083  -13.0517   36.7386 C   0  0  0  0  0  0  0  0  0  0  0  0
   33.6888  -14.7381   36.2826 S   0  0  0  0  0  0  0  0  0  0  0  0
   32.7012  -12.1365   36.9555 C   0  0  0  0  0  0  0  0  0  0  0  0
   31.5593  -12.6677   36.5599 O   0  0  0  0  0  0  0  0  0  0  0  0
   32.6132  -10.8658   37.4748 N   0  0  0  0  0  0  0  0  0  0  0  0
   31.2560  -10.2094   37.5086 C   0  0  0  0  0  0  0  0  0  0  0  0
   31.5303   -8.7561   37.2545 C   0  0  0  0  0  0  0  0  0  0  0  0
   32.6579   -8.5185   36.3721 N   0  0  0  0  0  0  0  0  0  0  0  0
   33.9185   -8.9103   36.9865 C   0  0  0  0  0  0  0  0  0  0  0  0
   33.6409  -10.0261   38.0217 C   0  0  0  0  0  0  0  0  0  0  0  0
   32.7240   -7.5192   36.0841 H   0  0  0  0  0  0  0  0  0  0  0  0
 14 15  1  0  0  0
 15 13  1  0  0  0
 13 12  1  0  0  0
 12  3  1  0  0  0
  3  4  1  0  0  0
  4  5  2  0  0  0
  5  1  1  0  0  0
  1 16  1  0  0  0
 16 17  2  0  0  0
 17 18  1  0  0  0
 18 19  2  0  0  0
 19 20  1  0  0  0
 19 21  1  0  0  0
 21 22  2  0  0  0
 21 23  1  0  0  0
 23 24  1  0  0  0
 24 25  1  0  0  0
 25 26  1  0  0  0
 26 27  1  0  0  0
 27 28  1  0  0  0
  5  6  1  0  0  0
  6  7  2  0  0  0
  6  8  1  0  0  0
  8  9  1  0  0  0
  8 10  1  0  0  0
 10 11  2  0  0  0
 10  3  1  0  0  0
 20 16  1  0  0  0
 28 23  1  0  0  0
  1  2  1  0  0  0
 26 29  1  0  0  0
M  END
> <minimizedAffinity>
-6.01862

> <CNNscore>
0.2950726151

> <CNNaffinity>
6.0541348457

> <CNN_VS>
1.7864093781

> <CNNaffinity_variance>
0.3399967551

$$$$
[H]c1nc(N([H])c2c([H])n(C([H])([H])C([H])([H])C([H])([H])C([H])([H])[H])c(=O)n(C([H])([H])[H])c2=O)sc1C(=O)N1C([H])([H])C([H])([H])N([H])C([H])([H])C1([H])[H]


 29 31  0  0  0  0  0  0  0  0999 V2000
   32.5414  -19.6186   34.2968 N   0  0  0  0  0  0  0  0  0  0  0  0
   32.0443  -18.9526   33.6054 H   0  0  0  0  0  0  0  0  0  0  0  0
   31.3861  -22.8623   35.5925 N   0  0  0  0  0  0  0  0  0  0  0  0
   32.2045  -21.9515   34.9770 C   0  0  0  0  0  0  0  0  0  0  0  0
   31.8206  -20.6397   34.8867 C   0  0  0  0  0  0  0  0  0  0  0  0
   30.5858  -20.3341   35.4490 C   0  0  0  0  0  0  0  0  0  0  0  0
   30.1803  -19.1669   35.4012 O   0  0  0  0  0  0  0  0  0  0  0  0
   29.8084  -21.2517   36.0451 N   0  0  0  0  0  0  0  0  0  0  0  0
   28.5223  -20.9228   36.6300 C   0  0  0  0  0  0  0  0  0  0  0  0
   30.2064  -22.5229   36.1195 C   0  0  0  0  0  0  0  0  0  0  0  0
   29.5073  -23.4271   36.6727 O   0  0  0  0  0  0  0  0  0  0  0  0
   31.8226  -24.2641   35.6763 C   0  0  0  0  0  0  0  0  0  0  0  0
   32.8583  -24.3099   36.7944 C   0  0  0  0  0  0  0  0  0  0  0  0
   35.2792  -24.8344   36.8336 C   0  0  0  0  0  0  0  0  0  0  0  0
   33.9146  -25.3418   36.4427 C   0  0  0  0  0  0  0  0  0  0  0  0
   33.9242  -19.2851   34.4677 C   0  0  0  0  0  0  0  0  0  0  0  0
   34.7369  -18.7034   33.6427 N   0  0  0  0  0  0  0  0  0  0  0  0
   35.9868  -18.4680   33.9572 C   0  0  0  0  0  0  0  0  0  0  0  0
   36.4210  -18.8547   35.1894 C   0  0  0  0  0  0  0  0  0  0  0  0
   34.9398  -19.5485   35.8145 S   0  0  0  0  0  0  0  0  0  0  0  0
   37.6978  -18.7829   35.8787 C   0  0  0  0  0  0  0  0  0  0  0  0
   37.5944  -18.0991   37.0031 O   0  0  0  0  0  0  0  0  0  0  0  0
   38.9524  -19.2716   35.5974 N   0  0  0  0  0  0  0  0  0  0  0  0
   40.0660  -18.9557   36.5639 C   0  0  0  0  0  0  0  0  0  0  0  0
   41.2833  -18.7935   35.7015 C   0  0  0  0  0  0  0  0  0  0  0  0
   41.0023  -18.2375   34.3905 N   0  0  0  0  0  0  0  0  0  0  0  0
   40.2291  -19.1561   33.5669 C   0  0  0  0  0  0  0  0  0  0  0  0
   39.3971  -20.0741   34.4936 C   0  0  0  0  0  0  0  0  0  0  0  0
   41.8743  -17.9847   33.8790 H   0  0  0  0  0  0  0  0  0  0  0  0
 14 15  1  0  0  0
 15 13  1  0  0  0
 13 12  1  0  0  0
 12  3  1  0  0  0
  3  4  1  0  0  0
  4  5  2  0  0  0
  5  1  1  0  0  0
  1 16  1  0  0  0
 16 17  2  0  0  0
 17 18  1  0  0  0
 18 19  2  0  0  0
 19 20  1  0  0  0
 19 21  1  0  0  0
 21 22  2  0  0  0
 21 23  1  0  0  0
 23 24  1  0  0  0
 24 25  1  0  0  0
 25 26  1  0  0  0
 26 27  1  0  0  0
 27 28  1  0  0  0
  5  6  1  0  0  0
  6  7  2  0  0  0
  6  8  1  0  0  0
  8  9  1  0  0  0
  8 10  1  0  0  0
 10 11  2  0  0  0
 10  3  1  0  0  0
 20 16  1  0  0  0
 28 23  1  0  0  0
  1  2  1  0  0  0
 26 29  1  0  0  0
M  END
> <minimizedAffinity>
-5.20523

> <CNNscore>
0.2318486571

> <CNNaffinity>
4.8075823784

> <CNN_VS>
1.1146315336

> <CNNaffinity_variance>
0.6950725317

$$$$
[H]c1nc(N([H])c2c([H])n(C([H])([H])C([H])([H])C([H])([H])C([H])([H])[H])c(=O)n(C([H])([H])[H])c2=O)sc1C(=O)N1C([H])([H])C([H])([H])N([H])C([H])([H])C1([H])[H]


 29 31  0  0  0  0  0  0  0  0999 V2000
   35.9936  -14.9711   37.4998 N   0  0  0  0  0  0  0  0  0  0  0  0
   36.8661  -14.8545   38.1273 H   0  0  0  0  0  0  0  0  0  0  0  0
   35.9027  -18.5645   36.7158 N   0  0  0  0  0  0  0  0  0  0  0  0
   36.2872  -17.4008   37.3292 C   0  0  0  0  0  0  0  0  0  0  0  0
   35.7055  -16.2142   36.9688 C   0  0  0  0  0  0  0  0  0  0  0  0
   34.7381  -16.2964   35.9729 C   0  0  0  0  0  0  0  0  0  0  0  0
   34.1741  -15.2606   35.6013 O   0  0  0  0  0  0  0  0  0  0  0  0
   34.3851  -17.4540   35.3924 N   0  0  0  0  0  0  0  0  0  0  0  0
   33.3737  -17.5297   34.3553 C   0  0  0  0  0  0  0  0  0  0  0  0
   34.9675  -18.5959   35.7625 C   0  0  0  0  0  0  0  0  0  0  0  0
   34.6684  -19.7155   35.2437 O   0  0  0  0  0  0  0  0  0  0  0  0
   36.5429  -19.8246   37.1221 C   0  0  0  0  0  0  0  0  0  0  0  0
   35.9876  -20.1446   38.5056 C   0  0  0  0  0  0  0  0  0  0  0  0
   36.6631  -21.4692   40.4873 C   0  0  0  0  0  0  0  0  0  0  0  0
   36.5836  -21.4569   38.9820 C   0  0  0  0  0  0  0  0  0  0  0  0
   35.2756  -13.7418   37.3400 C   0  0  0  0  0  0  0  0  0  0  0  0
   35.5836  -12.6957   36.6398 N   0  0  0  0  0  0  0  0  0  0  0  0
   34.8082  -11.6403   36.5997 C   0  0  0  0  0  0  0  0  0  0  0  0
   33.6530  -11.6663   37.3217 C   0  0  0  0  0  0  0  0  0  0  0  0
   33.7846  -13.2658   38.0221 S   0  0  0  0  0  0  0  0  0  0  0  0
   32.5748  -10.7168   37.5364 C   0  0  0  0  0  0  0  0  0  0  0  0
   33.0418   -9.4909   37.6836 O   0  0  0  0  0  0  0  0  0  0  0  0
   31.2072  -10.8416   37.6147 N   0  0  0  0  0  0  0  0  0  0  0  0
   30.3994   -9.5978   37.8875 C   0  0  0  0  0  0  0  0  0  0  0  0
   29.2546  -10.0669   38.7368 C   0  0  0  0  0  0  0  0  0  0  0  0
   29.5923  -11.1698   39.6177 N   0  0  0  0  0  0  0  0  0  0  0  0
   29.8729  -12.3902   38.8747 C   0  0  0  0  0  0  0  0  0  0  0  0
   30.3832  -12.0073   37.4652 C   0  0  0  0  0  0  0  0  0  0  0  0
   28.8346  -11.3656   40.3059 H   0  0  0  0  0  0  0  0  0  0  0  0
 14 15  1  0  0  0
 15 13  1  0  0  0
 13 12  1  0  0  0
 12  3  1  0  0  0
  3  4  1  0  0  0
  4  5  2  0  0  0
  5  1  1  0  0  0
  1 16  1  0  0  0
 16 17  2  0  0  0
 17 18  1  0  0  0
 18 19  2  0  0  0
 19 20  1  0  0  0
 19 21  1  0  0  0
 21 22  2  0  0  0
 21 23  1  0  0  0
 23 24  1  0  0  0
 24 25  1  0  0  0
 25 26  1  0  0  0
 26 27  1  0  0  0
 27 28  1  0  0  0
  5  6  1  0  0  0
  6  7  2  0  0  0
  6  8  1  0  0  0
  8  9  1  0  0  0
  8 10  1  0  0  0
 10 11  2  0  0  0
 10  3  1  0  0  0
 20 16  1  0  0  0
 28 23  1  0  0  0
  1  2  1  0  0  0
 26 29  1  0  0  0
M  END
> <minimizedAffinity>
-6.32207

> <CNNscore>
0.2291407138

> <CNNaffinity>
5.6620397568

> <CNN_VS>
1.2974038124

> <CNNaffinity_variance>
0.3243675232

$$$$
[H]c1nc(N([H])c2c([H])n(C([H])([H])C([H])([H])C([H])([H])C([H])([H])[H])c(=O)n(C([H])([H])[H])c2=O)sc1C(=O)N1C([H])([H])C([H])([H])N([H])C([H])([H])C1([H])[H]


 29 31  0  0  0  0  0  0  0  0999 V2000
   32.8728  -18.5038   35.2559 N   0  0  0  0  0  0  0  0  0  0  0  0
   32.2494  -17.6997   34.8904 H   0  0  0  0  0  0  0  0  0  0  0  0
   32.1582  -21.5413   37.2048 N   0  0  0  0  0  0  0  0  0  0  0  0
   32.8701  -20.4803   36.7092 C   0  0  0  0  0  0  0  0  0  0  0  0
   32.2782  -19.6104   35.8321 C   0  0  0  0  0  0  0  0  0  0  0  0
   30.9550  -19.8904   35.5078 C   0  0  0  0  0  0  0  0  0  0  0  0
   30.3622  -19.1434   34.7206 O   0  0  0  0  0  0  0  0  0  0  0  0
   30.2866  -20.9395   36.0119 N   0  0  0  0  0  0  0  0  0  0  0  0
   28.9058  -21.2225   35.6685 C   0  0  0  0  0  0  0  0  0  0  0  0
   30.8870  -21.7715   36.8647 C   0  0  0  0  0  0  0  0  0  0  0  0
   30.2976  -22.7770   37.3684 O   0  0  0  0  0  0  0  0  0  0  0  0
   32.8175  -22.4596   38.1453 C   0  0  0  0  0  0  0  0  0  0  0  0
   34.0997  -22.9106   37.4546 C   0  0  0  0  0  0  0  0  0  0  0  0
   36.5597  -22.6838   37.6411 C   0  0  0  0  0  0  0  0  0  0  0  0
   35.2640  -22.7231   38.4105 C   0  0  0  0  0  0  0  0  0  0  0  0
   34.2666  -18.2398   35.0552 C   0  0  0  0  0  0  0  0  0  0  0  0
   34.9967  -17.2784   35.5264 N   0  0  0  0  0  0  0  0  0  0  0  0
   36.2722  -17.1793   35.2436 C   0  0  0  0  0  0  0  0  0  0  0  0
   36.8231  -18.1232   34.4301 C   0  0  0  0  0  0  0  0  0  0  0  0
   35.4080  -19.1101   34.1308 S   0  0  0  0  0  0  0  0  0  0  0  0
   38.1554  -18.3405   33.8932 C   0  0  0  0  0  0  0  0  0  0  0  0
   38.3664  -17.5931   32.8257 O   0  0  0  0  0  0  0  0  0  0  0  0
   39.2051  -19.1469   34.2669 N   0  0  0  0  0  0  0  0  0  0  0  0
   40.4518  -19.1210   33.4190 C   0  0  0  0  0  0  0  0  0  0  0  0
   40.9664  -20.5302   33.4566 C   0  0  0  0  0  0  0  0  0  0  0  0
   39.9210  -21.5332   33.5451 N   0  0  0  0  0  0  0  0  0  0  0  0
   39.2285  -21.4823   34.8250 C   0  0  0  0  0  0  0  0  0  0  0  0
   39.3208  -20.0422   35.3829 C   0  0  0  0  0  0  0  0  0  0  0  0
   40.2922  -22.4968   33.4052 H   0  0  0  0  0  0  0  0  0  0  0  0
 14 15  1  0  0  0
 15 13  1  0  0  0
 13 12  1  0  0  0
 12  3  1  0  0  0
  3  4  1  0  0  0
  4  5  2  0  0  0
  5  1  1  0  0  0
  1 16  1  0  0  0
 16 17  2  0  0  0
 17 18  1  0  0  0
 18 19  2  0  0  0
 19 20  1  0  0  0
 19 21  1  0  0  0
 21 22  2  0  0  0
 21 23  1  0  0  0
 23 24  1  0  0  0
 24 25  1  0  0  0
 25 26  1  0  0  0
 26 27  1  0  0  0
 27 28  1  0  0  0
  5  6  1  0  0  0
  6  7  2  0  0  0
  6  8  1  0  0  0
  8  9  1  0  0  0
  8 10  1  0  0  0
 10 11  2  0  0  0
 10  3  1  0  0  0
 20 16  1  0  0  0
 28 23  1  0  0  0
  1  2  1  0  0  0
 26 29  1  0  0  0
M  END
> <minimizedAffinity>
-5.06591

> <CNNscore>
0.2212028503

> <CNNaffinity>
4.7267532349

> <CNN_VS>
1.0455713272

> <CNNaffinity_variance>
0.5206915736

$$$$
[H]OC(=S)C([H])([H])c1c([H])c([H])c([H])c(-c2c([H])c([H])c3c(N([H])C(=O)c4c([H])c([H])c([H])c(C(F)(F)F)c4[H])nn(C(=O)N([H])c4c([H])c([H])c([H])c(C(F)(F)F)c4[H])c3c2[H])c1[H]


 48 52  0  0  0  0  0  0  0  0999 V2000
   37.3076  -22.9144   41.2639 C   0  0  0  0  0  0  0  0  0  0  0  0
   35.9095  -22.9484   41.2001 C   0  0  0  0  0  0  0  0  0  0  0  0
   35.2335  -22.6241   40.0642 C   0  0  0  0  0  0  0  0  0  0  0  0
   35.9381  -22.2450   38.9378 C   0  0  0  0  0  0  0  0  0  0  0  0
   35.5345  -21.7831   37.6991 C   0  0  0  0  0  0  0  0  0  0  0  0
   36.6288  -21.4885   37.0353 N   0  0  0  0  0  0  0  0  0  0  0  0
   37.7413  -21.7245   37.7667 N   0  0  0  0  0  0  0  0  0  0  0  0
   39.0349  -21.3690   37.3360 C   0  0  0  0  0  0  0  0  0  0  0  0
   38.9906  -20.6448   36.2130 O   0  0  0  0  0  0  0  0  0  0  0  0
   40.2869  -21.6000   37.8230 N   0  0  0  0  0  0  0  0  0  0  0  0
   37.3075  -22.1955   38.9531 C   0  0  0  0  0  0  0  0  0  0  0  0
   37.9983  -22.5407   40.1374 C   0  0  0  0  0  0  0  0  0  0  0  0
   40.4965  -22.2084   38.6437 H   0  0  0  0  0  0  0  0  0  0  0  0
   39.5299  -22.7573   44.2921 C   0  0  0  0  0  0  0  0  0  0  0  0
   38.9213  -23.7085   45.0876 C   0  0  0  0  0  0  0  0  0  0  0  0
   37.8172  -24.3823   44.6252 C   0  0  0  0  0  0  0  0  0  0  0  0
   37.3783  -24.0665   43.3801 C   0  0  0  0  0  0  0  0  0  0  0  0
   37.9780  -23.1016   42.5542 C   0  0  0  0  0  0  0  0  0  0  0  0
   39.0558  -22.4510   43.0180 C   0  0  0  0  0  0  0  0  0  0  0  0
   40.7136  -22.0586   44.8972 C   0  0  0  0  0  0  0  0  0  0  0  0
   42.3575  -23.7437   44.0808 O   0  0  0  0  0  0  0  0  0  0  0  0
   41.9158  -22.4468   44.0787 C   0  0  0  0  0  0  0  0  0  0  0  0
   42.7323  -21.3455   43.1688 S   0  0  0  0  0  0  0  0  0  0  0  0
   43.3877  -23.8861   44.0570 H   0  0  0  0  0  0  0  0  0  0  0  0
   41.4789  -21.0255   37.2040 C   0  0  0  0  0  0  0  0  0  0  0  0
   42.1947  -21.7490   36.2950 C   0  0  0  0  0  0  0  0  0  0  0  0
   43.3377  -21.1927   35.7191 C   0  0  0  0  0  0  0  0  0  0  0  0
   43.7187  -19.9268   36.0749 C   0  0  0  0  0  0  0  0  0  0  0  0
   43.0054  -19.1959   36.9818 C   0  0  0  0  0  0  0  0  0  0  0  0
   41.8618  -19.7677   37.5547 C   0  0  0  0  0  0  0  0  0  0  0  0
   43.3923  -17.8466   37.4003 C   0  0  0  0  0  0  0  0  0  0  0  0
   42.5378  -16.9089   36.8104 F   0  0  0  0  0  0  0  0  0  0  0  0
   43.3677  -17.7118   38.7810 F   0  0  0  0  0  0  0  0  0  0  0  0
   44.6731  -17.5888   36.9383 F   0  0  0  0  0  0  0  0  0  0  0  0
   34.1747  -21.6424   37.3340 N   0  0  0  0  0  0  0  0  0  0  0  0
   33.3610  -22.6365   36.7524 C   0  0  0  0  0  0  0  0  0  0  0  0
   33.7260  -23.8385   36.5634 O   0  0  0  0  0  0  0  0  0  0  0  0
   33.7452  -20.6708   37.4550 H   0  0  0  0  0  0  0  0  0  0  0  0
   32.0162  -22.1999   36.3521 C   0  0  0  0  0  0  0  0  0  0  0  0
   30.9962  -23.1700   36.4844 C   0  0  0  0  0  0  0  0  0  0  0  0
   29.7158  -22.7968   36.1254 C   0  0  0  0  0  0  0  0  0  0  0  0
   29.4450  -21.5326   35.6543 C   0  0  0  0  0  0  0  0  0  0  0  0
   30.4404  -20.6020   35.5312 C   0  0  0  0  0  0  0  0  0  0  0  0
   31.7333  -20.9672   35.8923 C   0  0  0  0  0  0  0  0  0  0  0  0
   30.1209  -19.2255   34.9994 C   0  0  0  0  0  0  0  0  0  0  0  0
   31.2374  -18.4144   35.0370 F   0  0  0  0  0  0  0  0  0  0  0  0
   29.1249  -18.6778   35.8025 F   0  0  0  0  0  0  0  0  0  0  0  0
   29.6695  -19.3162   33.6831 F   0  0  0  0  0  0  0  0  0  0  0  0
 21 22  1  0  0  0
 22 23  2  0  0  0
 22 20  1  0  0  0
 20 14  1  0  0  0
 14 15  2  0  0  0
 15 16  1  0  0  0
 16 17  2  0  0  0
 17 18  1  0  0  0
 18 19  2  0  0  0
 18  1  1  0  0  0
  1  2  2  0  0  0
  2  3  1  0  0  0
  3  4  2  0  0  0
  4  5  1  0  0  0
  5 35  1  0  0  0
 35 36  1  0  0  0
 36 37  2  0  0  0
 36 39  1  0  0  0
 39 40  2  0  0  0
 40 41  1  0  0  0
 41 42  2  0  0  0
 42 43  1  0  0  0
 43 44  2  0  0  0
 43 45  1  0  0  0
 45 46  1  0  0  0
 45 47  1  0  0  0
 45 48  1  0  0  0
  5  6  2  0  0  0
  6  7  1  0  0  0
  7  8  1  0  0  0
  8  9  2  0  0  0
  8 10  1  0  0  0
 10 25  1  0  0  0
 25 26  2  0  0  0
 26 27  1  0  0  0
 27 28  2  0  0  0
 28 29  1  0  0  0
 29 30  2  0  0  0
 29 31  1  0  0  0
 31 32  1  0  0  0
 31 33  1  0  0  0
 31 34  1  0  0  0
  7 11  1  0  0  0
 11 12  2  0  0  0
 19 14  1  0  0  0
 12  1  1  0  0  0
 11  4  1  0  0  0
 44 39  1  0  0  0
 30 25  1  0  0  0
 21 24  1  0  0  0
 35 38  1  0  0  0
 10 13  1  0  0  0
M  END
> <minimizedAffinity>
-4.97186

> <CNNscore>
0.4584028125

> <CNNaffinity>
6.5050020218

> <CNN_VS>
2.9819111824

> <CNNaffinity_variance>
1.1183340549

$$$$
[H]OC(=S)C([H])([H])c1c([H])c([H])c([H])c(-c2c([H])c([H])c3c(N([H])C(=O)c4c([H])c([H])c([H])c(C(F)(F)F)c4[H])nn(C(=O)N([H])c4c([H])c([H])c([H])c(C(F)(F)F)c4[H])c3c2[H])c1[H]


 48 52  0  0  0  0  0  0  0  0999 V2000
   39.0713  -19.7288   36.5711 C   0  0  0  0  0  0  0  0  0  0  0  0
   37.8775  -19.5566   35.8602 C   0  0  0  0  0  0  0  0  0  0  0  0
   36.6722  -19.9128   36.3821 C   0  0  0  0  0  0  0  0  0  0  0  0
   36.6149  -20.4651   37.6474 C   0  0  0  0  0  0  0  0  0  0  0  0
   35.5732  -20.9952   38.3853 C   0  0  0  0  0  0  0  0  0  0  0  0
   36.1001  -21.4612   39.4944 N   0  0  0  0  0  0  0  0  0  0  0  0
   37.4388  -21.2749   39.5339 N   0  0  0  0  0  0  0  0  0  0  0  0
   38.2589  -21.8003   40.5521 C   0  0  0  0  0  0  0  0  0  0  0  0
   37.5706  -22.6167   41.3567 O   0  0  0  0  0  0  0  0  0  0  0  0
   39.5767  -21.6559   40.8692 N   0  0  0  0  0  0  0  0  0  0  0  0
   37.7572  -20.6541   38.3803 C   0  0  0  0  0  0  0  0  0  0  0  0
   39.0026  -20.2742   37.8294 C   0  0  0  0  0  0  0  0  0  0  0  0
   40.2294  -20.9993   40.3891 H   0  0  0  0  0  0  0  0  0  0  0  0
   42.6863  -19.4397   35.5805 C   0  0  0  0  0  0  0  0  0  0  0  0
   42.5458  -18.9727   34.2882 C   0  0  0  0  0  0  0  0  0  0  0  0
   41.2916  -18.7540   33.7723 C   0  0  0  0  0  0  0  0  0  0  0  0
   40.2361  -19.0154   34.5848 C   0  0  0  0  0  0  0  0  0  0  0  0
   40.3535  -19.4934   35.9003 C   0  0  0  0  0  0  0  0  0  0  0  0
   41.5843  -19.7025   36.3918 C   0  0  0  0  0  0  0  0  0  0  0  0
   44.0964  -19.6708   36.0429 C   0  0  0  0  0  0  0  0  0  0  0  0
   45.5593  -21.2253   34.7577 O   0  0  0  0  0  0  0  0  0  0  0  0
   44.4843  -21.0527   35.5893 C   0  0  0  0  0  0  0  0  0  0  0  0
   43.6435  -22.3847   36.0649 S   0  0  0  0  0  0  0  0  0  0  0  0
   45.4711  -21.9606   34.0271 H   0  0  0  0  0  0  0  0  0  0  0  0
   40.2000  -22.4051   41.9574 C   0  0  0  0  0  0  0  0  0  0  0  0
   40.2217  -21.8881   43.2201 C   0  0  0  0  0  0  0  0  0  0  0  0
   40.8300  -22.6091   44.2486 C   0  0  0  0  0  0  0  0  0  0  0  0
   41.3917  -23.8266   43.9720 C   0  0  0  0  0  0  0  0  0  0  0  0
   41.3709  -24.3514   42.7112 C   0  0  0  0  0  0  0  0  0  0  0  0
   40.7599  -23.6156   41.6873 C   0  0  0  0  0  0  0  0  0  0  0  0
   41.9770  -25.6415   42.3739 C   0  0  0  0  0  0  0  0  0  0  0  0
   43.3490  -25.4734   42.1575 F   0  0  0  0  0  0  0  0  0  0  0  0
   41.7633  -26.5838   43.3697 F   0  0  0  0  0  0  0  0  0  0  0  0
   41.4227  -26.0956   41.1879 F   0  0  0  0  0  0  0  0  0  0  0  0
   34.2372  -21.0278   37.9205 N   0  0  0  0  0  0  0  0  0  0  0  0
   33.6533  -22.0422   37.1338 C   0  0  0  0  0  0  0  0  0  0  0  0
   34.2377  -23.1236   36.8132 O   0  0  0  0  0  0  0  0  0  0  0  0
   33.6348  -20.1713   38.1361 H   0  0  0  0  0  0  0  0  0  0  0  0
   32.2816  -21.7788   36.6771 C   0  0  0  0  0  0  0  0  0  0  0  0
   31.3368  -22.7882   36.9724 C   0  0  0  0  0  0  0  0  0  0  0  0
   30.0339  -22.5756   36.5663 C   0  0  0  0  0  0  0  0  0  0  0  0
   29.6715  -21.4289   35.8975 C   0  0  0  0  0  0  0  0  0  0  0  0
   30.5947  -20.4587   35.6178 C   0  0  0  0  0  0  0  0  0  0  0  0
   31.9094  -20.6622   36.0246 C   0  0  0  0  0  0  0  0  0  0  0  0
   30.1756  -19.2152   34.8711 C   0  0  0  0  0  0  0  0  0  0  0  0
   31.2717  -18.4317   34.5700 F   0  0  0  0  0  0  0  0  0  0  0  0
   29.3064  -18.4987   35.6885 F   0  0  0  0  0  0  0  0  0  0  0  0
   29.5287  -19.5658   33.6866 F   0  0  0  0  0  0  0  0  0  0  0  0
 21 22  1  0  0  0
 22 23  2  0  0  0
 22 20  1  0  0  0
 20 14  1  0  0  0
 14 15  2  0  0  0
 15 16  1  0  0  0
 16 17  2  0  0  0
 17 18  1  0  0  0
 18 19  2  0  0  0
 18  1  1  0  0  0
  1  2  2  0  0  0
  2  3  1  0  0  0
  3  4  2  0  0  0
  4  5  1  0  0  0
  5 35  1  0  0  0
 35 36  1  0  0  0
 36 37  2  0  0  0
 36 39  1  0  0  0
 39 40  2  0  0  0
 40 41  1  0  0  0
 41 42  2  0  0  0
 42 43  1  0  0  0
 43 44  2  0  0  0
 43 45  1  0  0  0
 45 46  1  0  0  0
 45 47  1  0  0  0
 45 48  1  0  0  0
  5  6  2  0  0  0
  6  7  1  0  0  0
  7  8  1  0  0  0
  8  9  2  0  0  0
  8 10  1  0  0  0
 10 25  1  0  0  0
 25 26  2  0  0  0
 26 27  1  0  0  0
 27 28  2  0  0  0
 28 29  1  0  0  0
 29 30  2  0  0  0
 29 31  1  0  0  0
 31 32  1  0  0  0
 31 33  1  0  0  0
 31 34  1  0  0  0
  7 11  1  0  0  0
 11 12  2  0  0  0
 19 14  1  0  0  0
 12  1  1  0  0  0
 11  4  1  0  0  0
 44 39  1  0  0  0
 30 25  1  0  0  0
 21 24  1  0  0  0
 35 38  1  0  0  0
 10 13  1  0  0  0
M  END
> <minimizedAffinity>
-5.26584

> <CNNscore>
0.4404619038

> <CNNaffinity>
6.4686264992

> <CNN_VS>
2.8491835594

> <CNNaffinity_variance>
1.2868990898

$$$$
[H]OC(=S)C([H])([H])c1c([H])c([H])c([H])c(-c2c([H])c([H])c3c(N([H])C(=O)c4c([H])c([H])c([H])c(C(F)(F)F)c4[H])nn(C(=O)N([H])c4c([H])c([H])c([H])c(C(F)(F)F)c4[H])c3c2[H])c1[H]


 48 52  0  0  0  0  0  0  0  0999 V2000
   39.0822  -19.4497   36.3052 C   0  0  0  0  0  0  0  0  0  0  0  0
   37.9011  -19.5262   35.5574 C   0  0  0  0  0  0  0  0  0  0  0  0
   36.7601  -20.0639   36.0685 C   0  0  0  0  0  0  0  0  0  0  0  0
   36.7584  -20.5550   37.3599 C   0  0  0  0  0  0  0  0  0  0  0  0
   35.8017  -21.2241   38.1000 C   0  0  0  0  0  0  0  0  0  0  0  0
   36.3649  -21.5349   39.2451 N   0  0  0  0  0  0  0  0  0  0  0  0
   37.6481  -21.1132   39.3069 N   0  0  0  0  0  0  0  0  0  0  0  0
   38.5132  -21.4349   40.3715 C   0  0  0  0  0  0  0  0  0  0  0  0
   37.9522  -22.3197   41.2022 O   0  0  0  0  0  0  0  0  0  0  0  0
   39.7739  -21.0445   40.7122 N   0  0  0  0  0  0  0  0  0  0  0  0
   37.8910  -20.5030   38.1295 C   0  0  0  0  0  0  0  0  0  0  0  0
   39.0683  -19.9365   37.5892 C   0  0  0  0  0  0  0  0  0  0  0  0
   40.3171  -20.3072   40.2132 H   0  0  0  0  0  0  0  0  0  0  0  0
   42.5551  -18.2972   35.4427 C   0  0  0  0  0  0  0  0  0  0  0  0
   42.4882  -18.3403   34.0638 C   0  0  0  0  0  0  0  0  0  0  0  0
   41.3243  -18.7302   33.4471 C   0  0  0  0  0  0  0  0  0  0  0  0
   40.2802  -19.0575   34.2505 C   0  0  0  0  0  0  0  0  0  0  0  0
   40.3249  -19.0245   35.6539 C   0  0  0  0  0  0  0  0  0  0  0  0
   41.4678  -18.6417   36.2433 C   0  0  0  0  0  0  0  0  0  0  0  0
   43.8780  -17.8831   36.0209 C   0  0  0  0  0  0  0  0  0  0  0  0
   44.4613  -19.0069   38.1668 O   0  0  0  0  0  0  0  0  0  0  0  0
   44.4026  -19.0600   36.7990 C   0  0  0  0  0  0  0  0  0  0  0  0
   44.9194  -20.4298   36.0481 S   0  0  0  0  0  0  0  0  0  0  0  0
   45.2831  -19.4590   38.6167 H   0  0  0  0  0  0  0  0  0  0  0  0
   40.4823  -21.6176   41.8540 C   0  0  0  0  0  0  0  0  0  0  0  0
   40.3549  -21.0556   43.0910 C   0  0  0  0  0  0  0  0  0  0  0  0
   41.0456  -21.6063   44.1715 C   0  0  0  0  0  0  0  0  0  0  0  0
   41.8371  -22.7051   43.9708 C   0  0  0  0  0  0  0  0  0  0  0  0
   41.9668  -23.2745   42.7361 C   0  0  0  0  0  0  0  0  0  0  0  0
   41.2705  -22.7096   41.6595 C   0  0  0  0  0  0  0  0  0  0  0  0
   42.8181  -24.4385   42.4796 C   0  0  0  0  0  0  0  0  0  0  0  0
   44.1514  -24.0296   42.3673 F   0  0  0  0  0  0  0  0  0  0  0  0
   42.6949  -25.3933   43.4788 F   0  0  0  0  0  0  0  0  0  0  0  0
   42.4520  -24.9972   41.2655 F   0  0  0  0  0  0  0  0  0  0  0  0
   34.5083  -21.5151   37.6055 N   0  0  0  0  0  0  0  0  0  0  0  0
   34.1020  -22.7183   36.9924 C   0  0  0  0  0  0  0  0  0  0  0  0
   34.8355  -23.7502   36.8872 O   0  0  0  0  0  0  0  0  0  0  0  0
   33.7913  -20.7231   37.6465 H   0  0  0  0  0  0  0  0  0  0  0  0
   32.7354  -22.7237   36.4522 C   0  0  0  0  0  0  0  0  0  0  0  0
   31.9929  -21.5390   36.6617 C   0  0  0  0  0  0  0  0  0  0  0  0
   30.7056  -21.5009   36.1627 C   0  0  0  0  0  0  0  0  0  0  0  0
   30.1665  -22.5747   35.4920 C   0  0  0  0  0  0  0  0  0  0  0  0
   30.8952  -23.7159   35.2949 C   0  0  0  0  0  0  0  0  0  0  0  0
   32.1937  -23.7636   35.7917 C   0  0  0  0  0  0  0  0  0  0  0  0
   30.2773  -24.8859   34.5675 C   0  0  0  0  0  0  0  0  0  0  0  0
   30.5442  -24.8181   33.2147 F   0  0  0  0  0  0  0  0  0  0  0  0
   28.9012  -24.8362   34.7698 F   0  0  0  0  0  0  0  0  0  0  0  0
   30.7858  -26.0826   35.0714 F   0  0  0  0  0  0  0  0  0  0  0  0
 21 22  1  0  0  0
 22 23  2  0  0  0
 22 20  1  0  0  0
 20 14  1  0  0  0
 14 15  2  0  0  0
 15 16  1  0  0  0
 16 17  2  0  0  0
 17 18  1  0  0  0
 18 19  2  0  0  0
 18  1  1  0  0  0
  1  2  2  0  0  0
  2  3  1  0  0  0
  3  4  2  0  0  0
  4  5  1  0  0  0
  5 35  1  0  0  0
 35 36  1  0  0  0
 36 37  2  0  0  0
 36 39  1  0  0  0
 39 40  2  0  0  0
 40 41  1  0  0  0
 41 42  2  0  0  0
 42 43  1  0  0  0
 43 44  2  0  0  0
 43 45  1  0  0  0
 45 46  1  0  0  0
 45 47  1  0  0  0
 45 48  1  0  0  0
  5  6  2  0  0  0
  6  7  1  0  0  0
  7  8  1  0  0  0
  8  9  2  0  0  0
  8 10  1  0  0  0
 10 25  1  0  0  0
 25 26  2  0  0  0
 26 27  1  0  0  0
 27 28  2  0  0  0
 28 29  1  0  0  0
 29 30  2  0  0  0
 29 31  1  0  0  0
 31 32  1  0  0  0
 31 33  1  0  0  0
 31 34  1  0  0  0
  7 11  1  0  0  0
 11 12  2  0  0  0
 19 14  1  0  0  0
 12  1  1  0  0  0
 11  4  1  0  0  0
 44 39  1  0  0  0
 30 25  1  0  0  0
 21 24  1  0  0  0
 35 38  1  0  0  0
 10 13  1  0  0  0
M  END
> <minimizedAffinity>
-5.40847

> <CNNscore>
0.4164960086

> <CNNaffinity>
5.9628090858

> <CNN_VS>
2.4834861755

> <CNNaffinity_variance>
0.4889544845

$$$$
[H]OC(=S)C([H])([H])c1c([H])c([H])c([H])c(-c2c([H])c([H])c3c(N([H])C(=O)c4c([H])c([H])c([H])c(C(F)(F)F)c4[H])nn(C(=O)N([H])c4c([H])c([H])c([H])c(C(F)(F)F)c4[H])c3c2[H])c1[H]


 48 52  0  0  0  0  0  0  0  0999 V2000
   37.8390  -21.2980   41.1683 C   0  0  0  0  0  0  0  0  0  0  0  0
   36.4649  -21.5388   41.0506 C   0  0  0  0  0  0  0  0  0  0  0  0
   35.8589  -21.6686   39.8390 C   0  0  0  0  0  0  0  0  0  0  0  0
   36.6120  -21.5568   38.6859 C   0  0  0  0  0  0  0  0  0  0  0  0
   36.2689  -21.5510   37.3470 C   0  0  0  0  0  0  0  0  0  0  0  0
   37.3766  -21.3261   36.6782 N   0  0  0  0  0  0  0  0  0  0  0  0
   38.4401  -21.1764   37.4998 N   0  0  0  0  0  0  0  0  0  0  0  0
   39.7177  -20.7964   37.0429 C   0  0  0  0  0  0  0  0  0  0  0  0
   39.6900  -20.4594   35.7493 O   0  0  0  0  0  0  0  0  0  0  0  0
   40.9401  -20.6972   37.6376 N   0  0  0  0  0  0  0  0  0  0  0  0
   37.9601  -21.3200   38.7513 C   0  0  0  0  0  0  0  0  0  0  0  0
   38.5790  -21.1933   40.0162 C   0  0  0  0  0  0  0  0  0  0  0  0
   41.1447  -20.9940   38.6162 H   0  0  0  0  0  0  0  0  0  0  0  0
   40.0508  -20.5684   44.1194 C   0  0  0  0  0  0  0  0  0  0  0  0
   39.0930  -20.3397   45.0880 C   0  0  0  0  0  0  0  0  0  0  0  0
   37.7604  -20.4354   44.7687 C   0  0  0  0  0  0  0  0  0  0  0  0
   37.4550  -20.7590   43.4862 C   0  0  0  0  0  0  0  0  0  0  0  0
   38.4103  -20.9930   42.4835 C   0  0  0  0  0  0  0  0  0  0  0  0
   39.7084  -20.8964   42.8090 C   0  0  0  0  0  0  0  0  0  0  0  0
   41.4779  -20.4146   44.5613 C   0  0  0  0  0  0  0  0  0  0  0  0
   43.0950  -21.7280   43.1944 O   0  0  0  0  0  0  0  0  0  0  0  0
   42.1831  -21.6989   44.2166 C   0  0  0  0  0  0  0  0  0  0  0  0
   41.8874  -23.0933   45.0387 S   0  0  0  0  0  0  0  0  0  0  0  0
   43.1082  -22.5849   42.6048 H   0  0  0  0  0  0  0  0  0  0  0  0
   42.1087  -20.1814   36.9289 C   0  0  0  0  0  0  0  0  0  0  0  0
   42.9127  -21.0303   36.2253 C   0  0  0  0  0  0  0  0  0  0  0  0
   44.0322  -20.5264   35.5616 C   0  0  0  0  0  0  0  0  0  0  0  0
   44.3018  -19.1857   35.6257 C   0  0  0  0  0  0  0  0  0  0  0  0
   43.4998  -18.3298   36.3256 C   0  0  0  0  0  0  0  0  0  0  0  0
   42.3810  -18.8495   36.9899 C   0  0  0  0  0  0  0  0  0  0  0  0
   43.7665  -16.8935   36.4317 C   0  0  0  0  0  0  0  0  0  0  0  0
   43.1062  -16.2159   35.4010 F   0  0  0  0  0  0  0  0  0  0  0  0
   43.3726  -16.3891   37.6628 F   0  0  0  0  0  0  0  0  0  0  0  0
   45.1255  -16.6809   36.2639 F   0  0  0  0  0  0  0  0  0  0  0  0
   34.9393  -21.7130   36.8908 N   0  0  0  0  0  0  0  0  0  0  0  0
   34.2438  -22.9336   36.7671 C   0  0  0  0  0  0  0  0  0  0  0  0
   34.6997  -24.0575   37.1449 O   0  0  0  0  0  0  0  0  0  0  0  0
   34.4397  -20.8312   36.5504 H   0  0  0  0  0  0  0  0  0  0  0  0
   32.9131  -22.8444   36.1499 C   0  0  0  0  0  0  0  0  0  0  0  0
   32.4284  -21.5340   35.9340 C   0  0  0  0  0  0  0  0  0  0  0  0
   31.1838  -21.4067   35.3488 C   0  0  0  0  0  0  0  0  0  0  0  0
   30.4440  -22.5115   34.9942 C   0  0  0  0  0  0  0  0  0  0  0  0
   30.9240  -23.7749   35.2077 C   0  0  0  0  0  0  0  0  0  0  0  0
   32.1776  -23.9139   35.7944 C   0  0  0  0  0  0  0  0  0  0  0  0
   30.0881  -24.9716   34.8221 C   0  0  0  0  0  0  0  0  0  0  0  0
   28.7575  -24.7565   35.1209 F   0  0  0  0  0  0  0  0  0  0  0  0
   30.5521  -26.0673   35.5440 F   0  0  0  0  0  0  0  0  0  0  0  0
   30.2124  -25.2194   33.4555 F   0  0  0  0  0  0  0  0  0  0  0  0
 21 22  1  0  0  0
 22 23  2  0  0  0
 22 20  1  0  0  0
 20 14  1  0  0  0
 14 15  2  0  0  0
 15 16  1  0  0  0
 16 17  2  0  0  0
 17 18  1  0  0  0
 18 19  2  0  0  0
 18  1  1  0  0  0
  1  2  2  0  0  0
  2  3  1  0  0  0
  3  4  2  0  0  0
  4  5  1  0  0  0
  5 35  1  0  0  0
 35 36  1  0  0  0
 36 37  2  0  0  0
 36 39  1  0  0  0
 39 40  2  0  0  0
 40 41  1  0  0  0
 41 42  2  0  0  0
 42 43  1  0  0  0
 43 44  2  0  0  0
 43 45  1  0  0  0
 45 46  1  0  0  0
 45 47  1  0  0  0
 45 48  1  0  0  0
  5  6  2  0  0  0
  6  7  1  0  0  0
  7  8  1  0  0  0
  8  9  2  0  0  0
  8 10  1  0  0  0
 10 25  1  0  0  0
 25 26  2  0  0  0
 26 27  1  0  0  0
 27 28  2  0  0  0
 28 29  1  0  0  0
 29 30  2  0  0  0
 29 31  1  0  0  0
 31 32  1  0  0  0
 31 33  1  0  0  0
 31 34  1  0  0  0
  7 11  1  0  0  0
 11 12  2  0  0  0
 19 14  1  0  0  0
 12  1  1  0  0  0
 11  4  1  0  0  0
 44 39  1  0  0  0
 30 25  1  0  0  0
 21 24  1  0  0  0
 35 38  1  0  0  0
 10 13  1  0  0  0
M  END
> <minimizedAffinity>
-5.50793

> <CNNscore>
0.3626257777

> <CNNaffinity>
6.2359004021

> <CNN_VS>
2.2612981796

> <CNNaffinity_variance>
0.5077717304

$$$$
[H]OC(=S)C([H])([H])c1c([H])c([H])c([H])c(-c2c([H])c([H])c3c(N([H])C(=O)c4c([H])c([H])c([H])c(C(F)(F)F)c4[H])nn(C(=O)N([H])c4c([H])c([H])c([H])c(C(F)(F)F)c4[H])c3c2[H])c1[H]


 48 52  0  0  0  0  0  0  0  0999 V2000
   36.2889  -22.0808   41.3658 C   0  0  0  0  0  0  0  0  0  0  0  0
   34.9165  -22.3559   41.3995 C   0  0  0  0  0  0  0  0  0  0  0  0
   34.1323  -22.2381   40.2935 C   0  0  0  0  0  0  0  0  0  0  0  0
   34.6964  -21.8318   39.0994 C   0  0  0  0  0  0  0  0  0  0  0  0
   34.1503  -21.5404   37.8635 C   0  0  0  0  0  0  0  0  0  0  0  0
   35.1381  -21.1161   37.1091 N   0  0  0  0  0  0  0  0  0  0  0  0
   36.3136  -21.1039   37.7771 N   0  0  0  0  0  0  0  0  0  0  0  0
   37.4998  -20.5682   37.2372 C   0  0  0  0  0  0  0  0  0  0  0  0
   37.2677  -19.9494   36.0749 O   0  0  0  0  0  0  0  0  0  0  0  0
   38.7980  -20.5461   37.6520 N   0  0  0  0  0  0  0  0  0  0  0  0
   36.0350  -21.5501   39.0184 C   0  0  0  0  0  0  0  0  0  0  0  0
   36.8402  -21.6822   40.1730 C   0  0  0  0  0  0  0  0  0  0  0  0
   39.1556  -21.0460   38.4945 H   0  0  0  0  0  0  0  0  0  0  0  0
   38.5112  -21.2472   44.2812 C   0  0  0  0  0  0  0  0  0  0  0  0
   38.2720  -22.3425   45.0879 C   0  0  0  0  0  0  0  0  0  0  0  0
   37.4089  -23.3255   44.6688 C   0  0  0  0  0  0  0  0  0  0  0  0
   36.8274  -23.1589   43.4535 C   0  0  0  0  0  0  0  0  0  0  0  0
   37.0524  -22.0533   42.6171 C   0  0  0  0  0  0  0  0  0  0  0  0
   37.8979  -21.1005   43.0386 C   0  0  0  0  0  0  0  0  0  0  0  0
   39.4499  -20.2161   44.8393 C   0  0  0  0  0  0  0  0  0  0  0  0
   40.8802  -19.3307   43.0013 O   0  0  0  0  0  0  0  0  0  0  0  0
   40.6952  -20.2558   43.9948 C   0  0  0  0  0  0  0  0  0  0  0  0
   41.8596  -21.3949   44.2274 S   0  0  0  0  0  0  0  0  0  0  0  0
   41.3307  -19.6687   42.1266 H   0  0  0  0  0  0  0  0  0  0  0  0
   39.8357  -19.8268   36.9173 C   0  0  0  0  0  0  0  0  0  0  0  0
   40.8760  -19.2522   37.5879 C   0  0  0  0  0  0  0  0  0  0  0  0
   41.8550  -18.5584   36.8752 C   0  0  0  0  0  0  0  0  0  0  0  0
   41.7554  -18.4702   35.5126 C   0  0  0  0  0  0  0  0  0  0  0  0
   40.7186  -19.0454   34.8348 C   0  0  0  0  0  0  0  0  0  0  0  0
   39.7409  -19.7361   35.5629 C   0  0  0  0  0  0  0  0  0  0  0  0
   40.5690  -18.9565   33.3804 C   0  0  0  0  0  0  0  0  0  0  0  0
   39.7356  -19.9862   32.9302 F   0  0  0  0  0  0  0  0  0  0  0  0
   40.0587  -17.7260   32.9923 F   0  0  0  0  0  0  0  0  0  0  0  0
   41.8110  -19.1420   32.7944 F   0  0  0  0  0  0  0  0  0  0  0  0
   32.7686  -21.6602   37.5833 N   0  0  0  0  0  0  0  0  0  0  0  0
   32.0684  -22.8603   37.3419 C   0  0  0  0  0  0  0  0  0  0  0  0
   32.5807  -24.0186   37.4389 O   0  0  0  0  0  0  0  0  0  0  0  0
   32.2197  -20.7480   37.4849 H   0  0  0  0  0  0  0  0  0  0  0  0
   30.6605  -22.7043   36.9508 C   0  0  0  0  0  0  0  0  0  0  0  0
   30.2778  -23.3807   35.7697 C   0  0  0  0  0  0  0  0  0  0  0  0
   28.9604  -23.2653   35.3716 C   0  0  0  0  0  0  0  0  0  0  0  0
   28.0578  -22.5187   36.0937 C   0  0  0  0  0  0  0  0  0  0  0  0
   28.4398  -21.8689   37.2356 C   0  0  0  0  0  0  0  0  0  0  0  0
   29.7641  -21.9806   37.6465 C   0  0  0  0  0  0  0  0  0  0  0  0
   27.4344  -21.0449   38.0036 C   0  0  0  0  0  0  0  0  0  0  0  0
   27.8156  -20.9128   39.3239 F   0  0  0  0  0  0  0  0  0  0  0  0
   26.2080  -21.6997   37.9404 F   0  0  0  0  0  0  0  0  0  0  0  0
   27.3228  -19.7770   37.4340 F   0  0  0  0  0  0  0  0  0  0  0  0
 21 22  1  0  0  0
 22 23  2  0  0  0
 22 20  1  0  0  0
 20 14  1  0  0  0
 14 15  2  0  0  0
 15 16  1  0  0  0
 16 17  2  0  0  0
 17 18  1  0  0  0
 18 19  2  0  0  0
 18  1  1  0  0  0
  1  2  2  0  0  0
  2  3  1  0  0  0
  3  4  2  0  0  0
  4  5  1  0  0  0
  5 35  1  0  0  0
 35 36  1  0  0  0
 36 37  2  0  0  0
 36 39  1  0  0  0
 39 40  2  0  0  0
 40 41  1  0  0  0
 41 42  2  0  0  0
 42 43  1  0  0  0
 43 44  2  0  0  0
 43 45  1  0  0  0
 45 46  1  0  0  0
 45 47  1  0  0  0
 45 48  1  0  0  0
  5  6  2  0  0  0
  6  7  1  0  0  0
  7  8  1  0  0  0
  8  9  2  0  0  0
  8 10  1  0  0  0
 10 25  1  0  0  0
 25 26  2  0  0  0
 26 27  1  0  0  0
 27 28  2  0  0  0
 28 29  1  0  0  0
 29 30  2  0  0  0
 29 31  1  0  0  0
 31 32  1  0  0  0
 31 33  1  0  0  0
 31 34  1  0  0  0
  7 11  1  0  0  0
 11 12  2  0  0  0
 19 14  1  0  0  0
 12  1  1  0  0  0
 11  4  1  0  0  0
 44 39  1  0  0  0
 30 25  1  0  0  0
 21 24  1  0  0  0
 35 38  1  0  0  0
 10 13  1  0  0  0
M  END
> <minimizedAffinity>
-5.95757

> <CNNscore>
0.3322999477

> <CNNaffinity>
5.8605513573

> <CNN_VS>
1.9474608898

> <CNNaffinity_variance>
0.2513849139

$$$$
[H]OC(=S)C([H])([H])c1c([H])c([H])c([H])c(-c2c([H])c([H])c3c(N([H])C(=O)c4c([H])c([H])c([H])c(C(F)(F)F)c4[H])nn(C(=O)N([H])c4c([H])c([H])c([H])c(C(F)(F)F)c4[H])c3c2[H])c1[H]


 48 52  0  0  0  0  0  0  0  0999 V2000
   39.1952  -19.5750   36.2799 C   0  0  0  0  0  0  0  0  0  0  0  0
   38.0778  -19.7327   35.4514 C   0  0  0  0  0  0  0  0  0  0  0  0
   36.9304  -20.3150   35.8949 C   0  0  0  0  0  0  0  0  0  0  0  0
   36.8579  -20.7708   37.1972 C   0  0  0  0  0  0  0  0  0  0  0  0
   35.8838  -21.4686   37.8863 C   0  0  0  0  0  0  0  0  0  0  0  0
   36.3758  -21.7189   39.0780 N   0  0  0  0  0  0  0  0  0  0  0  0
   37.6284  -21.2297   39.2195 N   0  0  0  0  0  0  0  0  0  0  0  0
   38.4276  -21.4775   40.3531 C   0  0  0  0  0  0  0  0  0  0  0  0
   37.8516  -22.3677   41.1677 O   0  0  0  0  0  0  0  0  0  0  0  0
   39.6387  -21.0132   40.7720 N   0  0  0  0  0  0  0  0  0  0  0  0
   37.9267  -20.6395   38.0447 C   0  0  0  0  0  0  0  0  0  0  0  0
   39.1109  -20.0273   37.5738 C   0  0  0  0  0  0  0  0  0  0  0  0
   40.1798  -20.2623   40.2914 H   0  0  0  0  0  0  0  0  0  0  0  0
   42.6720  -18.2981   35.6359 C   0  0  0  0  0  0  0  0  0  0  0  0
   42.6911  -18.3362   34.2553 C   0  0  0  0  0  0  0  0  0  0  0  0
   41.5816  -18.7629   33.5671 C   0  0  0  0  0  0  0  0  0  0  0  0
   40.5023  -19.1306   34.3039 C   0  0  0  0  0  0  0  0  0  0  0  0
   40.4598  -19.1035   35.7075 C   0  0  0  0  0  0  0  0  0  0  0  0
   41.5504  -18.6844   36.3671 C   0  0  0  0  0  0  0  0  0  0  0  0
   43.9417  -17.8414   36.2954 C   0  0  0  0  0  0  0  0  0  0  0  0
   42.7996  -15.6280   36.3643 O   0  0  0  0  0  0  0  0  0  0  0  0
   43.9612  -16.3386   36.2127 C   0  0  0  0  0  0  0  0  0  0  0  0
   45.3546  -15.5075   35.9385 S   0  0  0  0  0  0  0  0  0  0  0  0
   42.6860  -14.7857   35.7644 H   0  0  0  0  0  0  0  0  0  0  0  0
   40.2886  -21.5179   41.9790 C   0  0  0  0  0  0  0  0  0  0  0  0
   40.1545  -20.8478   43.1601 C   0  0  0  0  0  0  0  0  0  0  0  0
   40.7894  -21.3347   44.3036 C   0  0  0  0  0  0  0  0  0  0  0  0
   41.5339  -22.4806   44.2199 C   0  0  0  0  0  0  0  0  0  0  0  0
   41.6699  -23.1580   43.0418 C   0  0  0  0  0  0  0  0  0  0  0  0
   41.0299  -22.6564   41.9008 C   0  0  0  0  0  0  0  0  0  0  0  0
   42.4725  -24.3762   42.9099 C   0  0  0  0  0  0  0  0  0  0  0  0
   42.7439  -24.6156   41.5584 F   0  0  0  0  0  0  0  0  0  0  0  0
   43.6577  -24.2887   43.6260 F   0  0  0  0  0  0  0  0  0  0  0  0
   41.7318  -25.4486   43.3804 F   0  0  0  0  0  0  0  0  0  0  0  0
   34.6465  -21.8395   37.3087 N   0  0  0  0  0  0  0  0  0  0  0  0
   33.3876  -21.8069   37.9435 C   0  0  0  0  0  0  0  0  0  0  0  0
   33.1866  -21.3431   39.1089 O   0  0  0  0  0  0  0  0  0  0  0  0
   34.6821  -22.2401   36.3181 H   0  0  0  0  0  0  0  0  0  0  0  0
   32.2716  -22.3627   37.1656 C   0  0  0  0  0  0  0  0  0  0  0  0
   32.4598  -23.6790   36.6852 C   0  0  0  0  0  0  0  0  0  0  0  0
   31.4307  -24.2408   35.9552 C   0  0  0  0  0  0  0  0  0  0  0  0
   30.2705  -23.5452   35.7026 C   0  0  0  0  0  0  0  0  0  0  0  0
   30.0997  -22.2719   36.1732 C   0  0  0  0  0  0  0  0  0  0  0  0
   31.1295  -21.6978   36.9115 C   0  0  0  0  0  0  0  0  0  0  0  0
   28.8232  -21.5241   35.8717 C   0  0  0  0  0  0  0  0  0  0  0  0
   28.2793  -20.9978   37.0263 F   0  0  0  0  0  0  0  0  0  0  0  0
   27.9244  -22.4238   35.3064 F   0  0  0  0  0  0  0  0  0  0  0  0
   29.0790  -20.4864   34.9761 F   0  0  0  0  0  0  0  0  0  0  0  0
 21 22  1  0  0  0
 22 23  2  0  0  0
 22 20  1  0  0  0
 20 14  1  0  0  0
 14 15  2  0  0  0
 15 16  1  0  0  0
 16 17  2  0  0  0
 17 18  1  0  0  0
 18 19  2  0  0  0
 18  1  1  0  0  0
  1  2  2  0  0  0
  2  3  1  0  0  0
  3  4  2  0  0  0
  4  5  1  0  0  0
  5 35  1  0  0  0
 35 36  1  0  0  0
 36 37  2  0  0  0
 36 39  1  0  0  0
 39 40  2  0  0  0
 40 41  1  0  0  0
 41 42  2  0  0  0
 42 43  1  0  0  0
 43 44  2  0  0  0
 43 45  1  0  0  0
 45 46  1  0  0  0
 45 47  1  0  0  0
 45 48  1  0  0  0
  5  6  2  0  0  0
  6  7  1  0  0  0
  7  8  1  0  0  0
  8  9  2  0  0  0
  8 10  1  0  0  0
 10 25  1  0  0  0
 25 26  2  0  0  0
 26 27  1  0  0  0
 27 28  2  0  0  0
 28 29  1  0  0  0
 29 30  2  0  0  0
 29 31  1  0  0  0
 31 32  1  0  0  0
 31 33  1  0  0  0
 31 34  1  0  0  0
  7 11  1  0  0  0
 11 12  2  0  0  0
 19 14  1  0  0  0
 12  1  1  0  0  0
 11  4  1  0  0  0
 44 39  1  0  0  0
 30 25  1  0  0  0
 21 24  1  0  0  0
 35 38  1  0  0  0
 10 13  1  0  0  0
M  END
> <minimizedAffinity>
-6.39626

> <CNNscore>
0.3315632343

> <CNNaffinity>
5.8583426476

> <CNN_VS>
1.9424110651

> <CNNaffinity_variance>
0.1318956017

$$$$
[H]OC(=S)C([H])([H])c1c([H])c([H])c([H])c(-c2c([H])c([H])c3c(N([H])C(=O)c4c([H])c([H])c([H])c(C(F)(F)F)c4[H])nn(C(=O)N([H])c4c([H])c([H])c([H])c(C(F)(F)F)c4[H])c3c2[H])c1[H]


 48 52  0  0  0  0  0  0  0  0999 V2000
   36.6707  -21.4193   41.2031 C   0  0  0  0  0  0  0  0  0  0  0  0
   35.2997  -21.6785   41.0880 C   0  0  0  0  0  0  0  0  0  0  0  0
   34.6937  -21.8187   39.8775 C   0  0  0  0  0  0  0  0  0  0  0  0
   35.4436  -21.6992   38.7231 C   0  0  0  0  0  0  0  0  0  0  0  0
   35.0985  -21.7007   37.3847 C   0  0  0  0  0  0  0  0  0  0  0  0
   36.2022  -21.4624   36.7139 N   0  0  0  0  0  0  0  0  0  0  0  0
   37.2648  -21.2970   37.5335 N   0  0  0  0  0  0  0  0  0  0  0  0
   38.5366  -20.9010   37.0741 C   0  0  0  0  0  0  0  0  0  0  0  0
   38.5026  -20.5670   35.7798 O   0  0  0  0  0  0  0  0  0  0  0  0
   39.7585  -20.7844   37.6667 N   0  0  0  0  0  0  0  0  0  0  0  0
   36.7886  -21.4445   38.7861 C   0  0  0  0  0  0  0  0  0  0  0  0
   37.4076  -21.3071   40.0498 C   0  0  0  0  0  0  0  0  0  0  0  0
   39.9684  -21.0766   38.6456 H   0  0  0  0  0  0  0  0  0  0  0  0
   38.8667  -20.8518   44.2013 C   0  0  0  0  0  0  0  0  0  0  0  0
   37.9377  -20.3433   45.0880 C   0  0  0  0  0  0  0  0  0  0  0  0
   36.6270  -20.2049   44.7012 C   0  0  0  0  0  0  0  0  0  0  0  0
   36.3130  -20.5875   43.4372 C   0  0  0  0  0  0  0  0  0  0  0  0
   37.2398  -21.1041   42.5169 C   0  0  0  0  0  0  0  0  0  0  0  0
   38.5167  -21.2342   42.9078 C   0  0  0  0  0  0  0  0  0  0  0  0
   40.2770  -20.9401   44.7102 C   0  0  0  0  0  0  0  0  0  0  0  0
   41.0921  -19.1739   43.1532 O   0  0  0  0  0  0  0  0  0  0  0  0
   41.1736  -20.4674   43.5975 C   0  0  0  0  0  0  0  0  0  0  0  0
   42.2646  -21.4708   42.8830 S   0  0  0  0  0  0  0  0  0  0  0  0
   41.2080  -19.0234   42.1304 H   0  0  0  0  0  0  0  0  0  0  0  0
   40.9192  -20.2546   36.9553 C   0  0  0  0  0  0  0  0  0  0  0  0
   41.0067  -18.9196   36.6864 C   0  0  0  0  0  0  0  0  0  0  0  0
   42.1156  -18.4278   35.9965 C   0  0  0  0  0  0  0  0  0  0  0  0
   43.0995  -19.2953   35.6045 C   0  0  0  0  0  0  0  0  0  0  0  0
   43.0199  -20.6321   35.8729 C   0  0  0  0  0  0  0  0  0  0  0  0
   41.8996  -21.1130   36.5634 C   0  0  0  0  0  0  0  0  0  0  0  0
   44.0433  -21.5925   35.4536 C   0  0  0  0  0  0  0  0  0  0  0  0
   43.6151  -22.2625   34.3024 F   0  0  0  0  0  0  0  0  0  0  0  0
   45.2621  -20.9723   35.2188 F   0  0  0  0  0  0  0  0  0  0  0  0
   44.1975  -22.5408   36.4522 F   0  0  0  0  0  0  0  0  0  0  0  0
   33.7706  -21.8811   36.9308 N   0  0  0  0  0  0  0  0  0  0  0  0
   33.0415  -20.9929   36.1132 C   0  0  0  0  0  0  0  0  0  0  0  0
   33.5255  -19.9400   35.5928 O   0  0  0  0  0  0  0  0  0  0  0  0
   33.2537  -22.7433   37.2949 H   0  0  0  0  0  0  0  0  0  0  0  0
   31.6350  -21.3521   35.8850 C   0  0  0  0  0  0  0  0  0  0  0  0
   30.7406  -20.2639   35.7629 C   0  0  0  0  0  0  0  0  0  0  0  0
   29.4098  -20.5590   35.5403 C   0  0  0  0  0  0  0  0  0  0  0  0
   28.9720  -21.8601   35.4452 C   0  0  0  0  0  0  0  0  0  0  0  0
   29.8472  -22.9050   35.5645 C   0  0  0  0  0  0  0  0  0  0  0  0
   31.1903  -22.6184   35.7866 C   0  0  0  0  0  0  0  0  0  0  0  0
   29.3408  -24.3242   35.4697 C   0  0  0  0  0  0  0  0  0  0  0  0
   29.8480  -25.0949   36.4967 F   0  0  0  0  0  0  0  0  0  0  0  0
   29.7600  -24.8467   34.2498 F   0  0  0  0  0  0  0  0  0  0  0  0
   27.9480  -24.3386   35.5361 F   0  0  0  0  0  0  0  0  0  0  0  0
 21 22  1  0  0  0
 22 23  2  0  0  0
 22 20  1  0  0  0
 20 14  1  0  0  0
 14 15  2  0  0  0
 15 16  1  0  0  0
 16 17  2  0  0  0
 17 18  1  0  0  0
 18 19  2  0  0  0
 18  1  1  0  0  0
  1  2  2  0  0  0
  2  3  1  0  0  0
  3  4  2  0  0  0
  4  5  1  0  0  0
  5 35  1  0  0  0
 35 36  1  0  0  0
 36 37  2  0  0  0
 36 39  1  0  0  0
 39 40  2  0  0  0
 40 41  1  0  0  0
 41 42  2  0  0  0
 42 43  1  0  0  0
 43 44  2  0  0  0
 43 45  1  0  0  0
 45 46  1  0  0  0
 45 47  1  0  0  0
 45 48  1  0  0  0
  5  6  2  0  0  0
  6  7  1  0  0  0
  7  8  1  0  0  0
  8  9  2  0  0  0
  8 10  1  0  0  0
 10 25  1  0  0  0
 25 26  2  0  0  0
 26 27  1  0  0  0
 27 28  2  0  0  0
 28 29  1  0  0  0
 29 30  2  0  0  0
 29 31  1  0  0  0
 31 32  1  0  0  0
 31 33  1  0  0  0
 31 34  1  0  0  0
  7 11  1  0  0  0
 11 12  2  0  0  0
 19 14  1  0  0  0
 12  1  1  0  0  0
 11  4  1  0  0  0
 44 39  1  0  0  0
 30 25  1  0  0  0
 21 24  1  0  0  0
 35 38  1  0  0  0
 10 13  1  0  0  0
M  END
> <minimizedAffinity>
-5.62721

> <CNNscore>
0.3270069361

> <CNNaffinity>
6.1854162216

> <CNN_VS>
2.0226740837

> <CNNaffinity_variance>
0.4048796594

$$$$
[H]OC(=S)C([H])([H])c1c([H])c([H])c([H])c(-c2c([H])c([H])c3c(N([H])C(=O)c4c([H])c([H])c([H])c(C(F)(F)F)c4[H])nn(C(=O)N([H])c4c([H])c([H])c([H])c(C(F)(F)F)c4[H])c3c2[H])c1[H]


 48 52  0  0  0  0  0  0  0  0999 V2000
   38.3984  -21.3462   41.2350 C   0  0  0  0  0  0  0  0  0  0  0  0
   37.0799  -21.6753   41.5714 C   0  0  0  0  0  0  0  0  0  0  0  0
   36.0960  -21.7500   40.6340 C   0  0  0  0  0  0  0  0  0  0  0  0
   36.3961  -21.4911   39.3104 C   0  0  0  0  0  0  0  0  0  0  0  0
   35.6089  -21.4017   38.1778 C   0  0  0  0  0  0  0  0  0  0  0  0
   36.4050  -21.0439   37.1965 N   0  0  0  0  0  0  0  0  0  0  0  0
   37.6810  -20.8847   37.6148 N   0  0  0  0  0  0  0  0  0  0  0  0
   38.7038  -20.3777   36.7889 C   0  0  0  0  0  0  0  0  0  0  0  0
   38.2146  -19.9399   35.6240 O   0  0  0  0  0  0  0  0  0  0  0  0
   40.0518  -20.2389   36.9357 N   0  0  0  0  0  0  0  0  0  0  0  0
   37.6723  -21.1636   38.9337 C   0  0  0  0  0  0  0  0  0  0  0  0
   38.6868  -21.0953   39.9161 C   0  0  0  0  0  0  0  0  0  0  0  0
   40.5955  -20.5985   37.7498 H   0  0  0  0  0  0  0  0  0  0  0  0
   41.3081  -20.2705   43.3586 C   0  0  0  0  0  0  0  0  0  0  0  0
   40.9507  -20.8413   44.5646 C   0  0  0  0  0  0  0  0  0  0  0  0
   39.7874  -21.5654   44.6608 C   0  0  0  0  0  0  0  0  0  0  0  0
   39.0382  -21.6816   43.5348 C   0  0  0  0  0  0  0  0  0  0  0  0
   39.3788  -21.1082   42.2987 C   0  0  0  0  0  0  0  0  0  0  0  0
   40.5179  -20.4037   42.2187 C   0  0  0  0  0  0  0  0  0  0  0  0
   42.5838  -19.4778   43.3625 C   0  0  0  0  0  0  0  0  0  0  0  0
   42.8308  -18.4013   41.1291 O   0  0  0  0  0  0  0  0  0  0  0  0
   43.0964  -19.4677   41.9474 C   0  0  0  0  0  0  0  0  0  0  0  0
   43.9774  -20.7175   41.3397 S   0  0  0  0  0  0  0  0  0  0  0  0
   42.6379  -18.6164   40.1297 H   0  0  0  0  0  0  0  0  0  0  0  0
   40.8795  -19.5843   35.9256 C   0  0  0  0  0  0  0  0  0  0  0  0
   40.8750  -20.0370   34.6383 C   0  0  0  0  0  0  0  0  0  0  0  0
   41.6787  -19.4096   33.6853 C   0  0  0  0  0  0  0  0  0  0  0  0
   42.4558  -18.3464   34.0596 C   0  0  0  0  0  0  0  0  0  0  0  0
   42.4630  -17.8862   35.3455 C   0  0  0  0  0  0  0  0  0  0  0  0
   41.6539  -18.5273   36.2929 C   0  0  0  0  0  0  0  0  0  0  0  0
   43.2945  -16.7640   35.7867 C   0  0  0  0  0  0  0  0  0  0  0  0
   42.5409  -15.9140   36.6036 F   0  0  0  0  0  0  0  0  0  0  0  0
   44.4241  -17.1990   36.4648 F   0  0  0  0  0  0  0  0  0  0  0  0
   43.6816  -16.0342   34.6741 F   0  0  0  0  0  0  0  0  0  0  0  0
   34.2112  -21.6219   38.1907 N   0  0  0  0  0  0  0  0  0  0  0  0
   33.5277  -22.6747   37.5479 C   0  0  0  0  0  0  0  0  0  0  0  0
   34.0996  -23.6322   36.9398 O   0  0  0  0  0  0  0  0  0  0  0  0
   33.6153  -20.8835   38.6834 H   0  0  0  0  0  0  0  0  0  0  0  0
   32.0610  -22.6089   37.6106 C   0  0  0  0  0  0  0  0  0  0  0  0
   31.4606  -23.3686   38.6408 C   0  0  0  0  0  0  0  0  0  0  0  0
   30.0835  -23.3278   38.7385 C   0  0  0  0  0  0  0  0  0  0  0  0
   29.3265  -22.5808   37.8653 C   0  0  0  0  0  0  0  0  0  0  0  0
   29.9189  -21.8492   36.8724 C   0  0  0  0  0  0  0  0  0  0  0  0
   31.3057  -21.8816   36.7669 C   0  0  0  0  0  0  0  0  0  0  0  0
   29.0662  -21.0479   35.9183 C   0  0  0  0  0  0  0  0  0  0  0  0
   28.2323  -20.1908   36.6082 F   0  0  0  0  0  0  0  0  0  0  0  0
   28.2988  -21.9418   35.1774 F   0  0  0  0  0  0  0  0  0  0  0  0
   29.8784  -20.3023   35.0646 F   0  0  0  0  0  0  0  0  0  0  0  0
 21 22  1  0  0  0
 22 23  2  0  0  0
 22 20  1  0  0  0
 20 14  1  0  0  0
 14 15  2  0  0  0
 15 16  1  0  0  0
 16 17  2  0  0  0
 17 18  1  0  0  0
 18 19  2  0  0  0
 18  1  1  0  0  0
  1  2  2  0  0  0
  2  3  1  0  0  0
  3  4  2  0  0  0
  4  5  1  0  0  0
  5 35  1  0  0  0
 35 36  1  0  0  0
 36 37  2  0  0  0
 36 39  1  0  0  0
 39 40  2  0  0  0
 40 41  1  0  0  0
 41 42  2  0  0  0
 42 43  1  0  0  0
 43 44  2  0  0  0
 43 45  1  0  0  0
 45 46  1  0  0  0
 45 47  1  0  0  0
 45 48  1  0  0  0
  5  6  2  0  0  0
  6  7  1  0  0  0
  7  8  1  0  0  0
  8  9  2  0  0  0
  8 10  1  0  0  0
 10 25  1  0  0  0
 25 26  2  0  0  0
 26 27  1  0  0  0
 27 28  2  0  0  0
 28 29  1  0  0  0
 29 30  2  0  0  0
 29 31  1  0  0  0
 31 32  1  0  0  0
 31 33  1  0  0  0
 31 34  1  0  0  0
  7 11  1  0  0  0
 11 12  2  0  0  0
 19 14  1  0  0  0
 12  1  1  0  0  0
 11  4  1  0  0  0
 44 39  1  0  0  0
 30 25  1  0  0  0
 21 24  1  0  0  0
 35 38  1  0  0  0
 10 13  1  0  0  0
M  END
> <minimizedAffinity>
-6.80092

> <CNNscore>
0.3268713355

> <CNNaffinity>
6.0760908127

> <CNN_VS>
1.9860999584

> <CNNaffinity_variance>
0.4105112553

$$$$
[H]OC(=S)C([H])([H])c1c([H])c([H])c([H])c(-c2c([H])c([H])c3c(N([H])C(=O)c4c([H])c([H])c([H])c(C(F)(F)F)c4[H])nn(C(=O)N([H])c4c([H])c([H])c([H])c(C(F)(F)F)c4[H])c3c2[H])c1[H]


 48 52  0  0  0  0  0  0  0  0999 V2000
   38.4161  -19.3758   35.9168 C   0  0  0  0  0  0  0  0  0  0  0  0
   37.1868  -19.1844   35.2747 C   0  0  0  0  0  0  0  0  0  0  0  0
   36.0075  -19.5218   35.8644 C   0  0  0  0  0  0  0  0  0  0  0  0
   36.0133  -20.0736   37.1311 C   0  0  0  0  0  0  0  0  0  0  0  0
   35.0070  -20.5875   37.9271 C   0  0  0  0  0  0  0  0  0  0  0  0
   35.5885  -21.0623   39.0048 N   0  0  0  0  0  0  0  0  0  0  0  0
   36.9300  -20.8972   38.9682 N   0  0  0  0  0  0  0  0  0  0  0  0
   37.7982  -21.4359   39.9385 C   0  0  0  0  0  0  0  0  0  0  0  0
   37.1438  -22.2417   40.7813 O   0  0  0  0  0  0  0  0  0  0  0  0
   39.1339  -21.3125   40.1803 N   0  0  0  0  0  0  0  0  0  0  0  0
   37.1922  -20.2810   37.7982 C   0  0  0  0  0  0  0  0  0  0  0  0
   38.4103  -19.9206   37.1773 C   0  0  0  0  0  0  0  0  0  0  0  0
   39.7686  -20.6661   39.6637 H   0  0  0  0  0  0  0  0  0  0  0  0
   41.8575  -18.4303   34.7355 C   0  0  0  0  0  0  0  0  0  0  0  0
   41.8527  -19.0162   33.4847 C   0  0  0  0  0  0  0  0  0  0  0  0
   40.7387  -19.6922   33.0501 C   0  0  0  0  0  0  0  0  0  0  0  0
   39.6795  -19.7451   33.8974 C   0  0  0  0  0  0  0  0  0  0  0  0
   39.6617  -19.1604   35.1743 C   0  0  0  0  0  0  0  0  0  0  0  0
   40.7563  -18.5029   35.5862 C   0  0  0  0  0  0  0  0  0  0  0  0
   43.1305  -17.7368   35.1282 C   0  0  0  0  0  0  0  0  0  0  0  0
   45.2242  -18.9736   34.5849 O   0  0  0  0  0  0  0  0  0  0  0  0
   44.1444  -18.8122   35.4127 C   0  0  0  0  0  0  0  0  0  0  0  0
   43.9944  -19.8194   36.7053 S   0  0  0  0  0  0  0  0  0  0  0  0
   45.5333  -19.9506   34.4058 H   0  0  0  0  0  0  0  0  0  0  0  0
   39.8060  -22.0719   41.2318 C   0  0  0  0  0  0  0  0  0  0  0  0
   39.9171  -21.5511   42.4882 C   0  0  0  0  0  0  0  0  0  0  0  0
   40.5712  -22.2822   43.4809 C   0  0  0  0  0  0  0  0  0  0  0  0
   41.0872  -23.5131   43.1761 C   0  0  0  0  0  0  0  0  0  0  0  0
   40.9770  -24.0417   41.9216 C   0  0  0  0  0  0  0  0  0  0  0  0
   40.3208  -23.2958   40.9336 C   0  0  0  0  0  0  0  0  0  0  0  0
   41.5320  -25.3465   41.5539 C   0  0  0  0  0  0  0  0  0  0  0  0
   40.5359  -26.1305   40.9620 F   0  0  0  0  0  0  0  0  0  0  0  0
   42.6129  -25.2191   40.6933 F   0  0  0  0  0  0  0  0  0  0  0  0
   41.9402  -25.9962   42.7079 F   0  0  0  0  0  0  0  0  0  0  0  0
   33.6464  -20.5989   37.5389 N   0  0  0  0  0  0  0  0  0  0  0  0
   33.0097  -21.5891   36.7624 C   0  0  0  0  0  0  0  0  0  0  0  0
   33.5654  -22.6664   36.3826 O   0  0  0  0  0  0  0  0  0  0  0  0
   33.0647  -19.7435   37.8094 H   0  0  0  0  0  0  0  0  0  0  0  0
   31.6166  -21.3044   36.3915 C   0  0  0  0  0  0  0  0  0  0  0  0
   31.4223  -20.1567   35.5889 C   0  0  0  0  0  0  0  0  0  0  0  0
   30.1275  -19.8582   35.2123 C   0  0  0  0  0  0  0  0  0  0  0  0
   29.0690  -20.6445   35.6059 C   0  0  0  0  0  0  0  0  0  0  0  0
   29.2695  -21.7531   36.3822 C   0  0  0  0  0  0  0  0  0  0  0  0
   30.5703  -22.0638   36.7652 C   0  0  0  0  0  0  0  0  0  0  0  0
   28.0907  -22.5927   36.8125 C   0  0  0  0  0  0  0  0  0  0  0  0
   27.1673  -21.8270   37.4958 F   0  0  0  0  0  0  0  0  0  0  0  0
   28.5653  -23.5989   37.6486 F   0  0  0  0  0  0  0  0  0  0  0  0
   27.4752  -23.1576   35.6960 F   0  0  0  0  0  0  0  0  0  0  0  0
 21 22  1  0  0  0
 22 23  2  0  0  0
 22 20  1  0  0  0
 20 14  1  0  0  0
 14 15  2  0  0  0
 15 16  1  0  0  0
 16 17  2  0  0  0
 17 18  1  0  0  0
 18 19  2  0  0  0
 18  1  1  0  0  0
  1  2  2  0  0  0
  2  3  1  0  0  0
  3  4  2  0  0  0
  4  5  1  0  0  0
  5 35  1  0  0  0
 35 36  1  0  0  0
 36 37  2  0  0  0
 36 39  1  0  0  0
 39 40  2  0  0  0
 40 41  1  0  0  0
 41 42  2  0  0  0
 42 43  1  0  0  0
 43 44  2  0  0  0
 43 45  1  0  0  0
 45 46  1  0  0  0
 45 47  1  0  0  0
 45 48  1  0  0  0
  5  6  2  0  0  0
  6  7  1  0  0  0
  7  8  1  0  0  0
  8  9  2  0  0  0
  8 10  1  0  0  0
 10 25  1  0  0  0
 25 26  2  0  0  0
 26 27  1  0  0  0
 27 28  2  0  0  0
 28 29  1  0  0  0
 29 30  2  0  0  0
 29 31  1  0  0  0
 31 32  1  0  0  0
 31 33  1  0  0  0
 31 34  1  0  0  0
  7 11  1  0  0  0
 11 12  2  0  0  0
 19 14  1  0  0  0
 12  1  1  0  0  0
 11  4  1  0  0  0
 44 39  1  0  0  0
 30 25  1  0  0  0
 21 24  1  0  0  0
 35 38  1  0  0  0
 10 13  1  0  0  0
M  END
> <minimizedAffinity>
-5.93296

> <CNNscore>
0.3236097097

> <CNNaffinity>
6.0097365379

> <CNN_VS>
1.9448090792

> <CNNaffinity_variance>
0.4736159742

$$$$
[H]c1c([H])c2c(c([H])c1N([H])C(=O)C([H])([H])C([H])(c1c([H])c([H])c(C(F)(F)F)c([H])c1[H])C([H])([H])C([H])([H])C([H])(C([H])([H])[H])C([H])([H])[H])C([H])([H])OC([H])([H])C2([H])[H]


 31 33  0  0  0  0  0  0  0  0999 V2000
   36.5213  -17.2488   35.3331 C   0  0  0  0  0  0  0  0  0  0  0  0
   35.1828  -17.8898   35.1749 C   0  0  0  0  0  0  0  0  0  0  0  0
   35.0901  -18.9692   34.2876 C   0  0  0  0  0  0  0  0  0  0  0  0
   33.9407  -19.6548   34.0365 C   0  0  0  0  0  0  0  0  0  0  0  0
   32.7831  -19.2764   34.6883 C   0  0  0  0  0  0  0  0  0  0  0  0
   32.8360  -18.2212   35.5650 C   0  0  0  0  0  0  0  0  0  0  0  0
   34.0334  -17.5367   35.8015 C   0  0  0  0  0  0  0  0  0  0  0  0
   31.5118  -20.0212   34.4250 C   0  0  0  0  0  0  0  0  0  0  0  0
   31.8686  -21.2364   33.8383 F   0  0  0  0  0  0  0  0  0  0  0  0
   30.6847  -19.2803   33.6112 F   0  0  0  0  0  0  0  0  0  0  0  0
   30.9483  -20.3313   35.6408 F   0  0  0  0  0  0  0  0  0  0  0  0
   36.9509  -16.9805   36.7113 C   0  0  0  0  0  0  0  0  0  0  0  0
   36.5435  -15.7418   37.3871 C   0  0  0  0  0  0  0  0  0  0  0  0
   37.8218  -13.5369   37.6143 C   0  0  0  0  0  0  0  0  0  0  0  0
   36.9006  -14.4233   36.8558 C   0  0  0  0  0  0  0  0  0  0  0  0
   35.6955  -13.5757   36.4658 C   0  0  0  0  0  0  0  0  0  0  0  0
   37.5341  -18.0090   34.5155 C   0  0  0  0  0  0  0  0  0  0  0  0
   38.4127  -18.9473   35.2041 C   0  0  0  0  0  0  0  0  0  0  0  0
   38.1116  -20.1277   35.3583 O   0  0  0  0  0  0  0  0  0  0  0  0
   39.6436  -18.4396   35.6924 N   0  0  0  0  0  0  0  0  0  0  0  0
   39.8702  -17.4081   35.5482 H   0  0  0  0  0  0  0  0  0  0  0  0
   40.6368  -19.1736   36.3808 C   0  0  0  0  0  0  0  0  0  0  0  0
   40.5629  -19.5900   37.6830 C   0  0  0  0  0  0  0  0  0  0  0  0
   41.5771  -20.3377   38.2871 C   0  0  0  0  0  0  0  0  0  0  0  0
   42.6810  -20.6611   37.5463 C   0  0  0  0  0  0  0  0  0  0  0  0
   43.8116  -21.4565   38.0852 C   0  0  0  0  0  0  0  0  0  0  0  0
   44.1704  -22.4648   37.0171 C   0  0  0  0  0  0  0  0  0  0  0  0
   44.4377  -21.9410   35.7855 O   0  0  0  0  0  0  0  0  0  0  0  0
   44.0347  -20.6610   35.5408 C   0  0  0  0  0  0  0  0  0  0  0  0
   42.7808  -20.2540   36.2356 C   0  0  0  0  0  0  0  0  0  0  0  0
   41.7945  -19.5281   35.6492 C   0  0  0  0  0  0  0  0  0  0  0  0
 14 15  1  0  0  0
 15 16  1  0  0  0
 15 13  1  0  0  0
 13 12  1  0  0  0
 12  1  1  0  0  0
  1 17  1  0  0  0
 17 18  1  0  0  0
 18 19  2  0  0  0
 18 20  1  0  0  0
 20 22  1  0  0  0
 22 23  2  0  0  0
 23 24  1  0  0  0
 24 25  2  0  0  0
 25 26  1  0  0  0
 26 27  1  0  0  0
 27 28  1  0  0  0
 28 29  1  0  0  0
 29 30  1  0  0  0
 30 31  2  0  0  0
  1  2  1  0  0  0
  2  3  2  0  0  0
  3  4  1  0  0  0
  4  5  2  0  0  0
  5  6  1  0  0  0
  6  7  2  0  0  0
  5  8  1  0  0  0
  8  9  1  0  0  0
  8 10  1  0  0  0
  8 11  1  0  0  0
 31 22  1  0  0  0
  7  2  1  0  0  0
 30 25  1  0  0  0
 20 21  1  0  0  0
M  END
> <minimizedAffinity>
-6.90400

> <CNNscore>
0.4711866379

> <CNNaffinity>
5.3864746094

> <CNN_VS>
2.5380349159

> <CNNaffinity_variance>
0.1961894035

$$$$
[H]c1c([H])c2c(c([H])c1N([H])C(=O)C([H])([H])C([H])(c1c([H])c([H])c(C(F)(F)F)c([H])c1[H])C([H])([H])C([H])([H])C([H])(C([H])([H])[H])C([H])([H])[H])C([H])([H])OC([H])([H])C2([H])[H]


 31 33  0  0  0  0  0  0  0  0999 V2000
   34.5615  -15.0432   36.1497 C   0  0  0  0  0  0  0  0  0  0  0  0
   34.2066  -16.4470   35.7881 C   0  0  0  0  0  0  0  0  0  0  0  0
   33.3195  -16.6289   34.7200 C   0  0  0  0  0  0  0  0  0  0  0  0
   32.9013  -17.8453   34.2733 C   0  0  0  0  0  0  0  0  0  0  0  0
   33.3706  -18.9831   34.9006 C   0  0  0  0  0  0  0  0  0  0  0  0
   34.2413  -18.8431   35.9527 C   0  0  0  0  0  0  0  0  0  0  0  0
   34.6523  -17.5783   36.3881 C   0  0  0  0  0  0  0  0  0  0  0  0
   32.9222  -20.3279   34.4202 C   0  0  0  0  0  0  0  0  0  0  0  0
   33.5818  -20.5674   33.2137 F   0  0  0  0  0  0  0  0  0  0  0  0
   31.5537  -20.3494   34.2715 F   0  0  0  0  0  0  0  0  0  0  0  0
   33.3907  -21.2678   35.3084 F   0  0  0  0  0  0  0  0  0  0  0  0
   35.8896  -14.5823   35.7257 C   0  0  0  0  0  0  0  0  0  0  0  0
   36.4838  -13.3806   36.3255 C   0  0  0  0  0  0  0  0  0  0  0  0
   38.7282  -13.1038   37.5227 C   0  0  0  0  0  0  0  0  0  0  0  0
   37.2826  -13.4486   37.5525 C   0  0  0  0  0  0  0  0  0  0  0  0
   37.1623  -14.7792   38.2860 C   0  0  0  0  0  0  0  0  0  0  0  0
   33.4377  -14.1267   35.7382 C   0  0  0  0  0  0  0  0  0  0  0  0
   32.8517  -13.2559   36.7506 C   0  0  0  0  0  0  0  0  0  0  0  0
   33.3227  -13.1626   37.8806 O   0  0  0  0  0  0  0  0  0  0  0  0
   31.7053  -12.5101   36.3753 N   0  0  0  0  0  0  0  0  0  0  0  0
   31.3178  -12.6205   35.3885 H   0  0  0  0  0  0  0  0  0  0  0  0
   30.9882  -11.6092   37.1957 C   0  0  0  0  0  0  0  0  0  0  0  0
   31.1415  -10.2487   37.2114 C   0  0  0  0  0  0  0  0  0  0  0  0
   30.3738   -9.4198   38.0337 C   0  0  0  0  0  0  0  0  0  0  0  0
   29.4383   -9.9939   38.8505 C   0  0  0  0  0  0  0  0  0  0  0  0
   28.5651   -9.2081   39.7568 C   0  0  0  0  0  0  0  0  0  0  0  0
   27.1741   -9.7830   39.6125 C   0  0  0  0  0  0  0  0  0  0  0  0
   27.0731  -11.1277   39.8225 O   0  0  0  0  0  0  0  0  0  0  0  0
   28.2230  -11.8611   39.7945 C   0  0  0  0  0  0  0  0  0  0  0  0
   29.2649  -11.3589   38.8549 C   0  0  0  0  0  0  0  0  0  0  0  0
   30.0108  -12.1636   38.0551 C   0  0  0  0  0  0  0  0  0  0  0  0
 14 15  1  0  0  0
 15 16  1  0  0  0
 15 13  1  0  0  0
 13 12  1  0  0  0
 12  1  1  0  0  0
  1 17  1  0  0  0
 17 18  1  0  0  0
 18 19  2  0  0  0
 18 20  1  0  0  0
 20 22  1  0  0  0
 22 23  2  0  0  0
 23 24  1  0  0  0
 24 25  2  0  0  0
 25 26  1  0  0  0
 26 27  1  0  0  0
 27 28  1  0  0  0
 28 29  1  0  0  0
 29 30  1  0  0  0
 30 31  2  0  0  0
  1  2  1  0  0  0
  2  3  2  0  0  0
  3  4  1  0  0  0
  4  5  2  0  0  0
  5  6  1  0  0  0
  6  7  2  0  0  0
  5  8  1  0  0  0
  8  9  1  0  0  0
  8 10  1  0  0  0
  8 11  1  0  0  0
 31 22  1  0  0  0
  7  2  1  0  0  0
 30 25  1  0  0  0
 20 21  1  0  0  0
M  END
> <minimizedAffinity>
-7.87435

> <CNNscore>
0.4310805798

> <CNNaffinity>
6.0112061501

> <CNN_VS>
2.5913143158

> <CNNaffinity_variance>
0.2385663539

$$$$
[H]c1c([H])c2c(c([H])c1N([H])C(=O)C([H])([H])C([H])(c1c([H])c([H])c(C(F)(F)F)c([H])c1[H])C([H])([H])C([H])([H])C([H])(C([H])([H])[H])C([H])([H])[H])C([H])([H])OC([H])([H])C2([H])[H]


 31 33  0  0  0  0  0  0  0  0999 V2000
   37.0193  -18.5437   36.7675 C   0  0  0  0  0  0  0  0  0  0  0  0
   35.7790  -18.9276   36.0315 C   0  0  0  0  0  0  0  0  0  0  0  0
   34.7130  -19.4280   36.7893 C   0  0  0  0  0  0  0  0  0  0  0  0
   33.5200  -19.8202   36.2631 C   0  0  0  0  0  0  0  0  0  0  0  0
   33.3304  -19.7263   34.8981 C   0  0  0  0  0  0  0  0  0  0  0  0
   34.3545  -19.2411   34.1231 C   0  0  0  0  0  0  0  0  0  0  0  0
   35.5693  -18.8459   34.6944 C   0  0  0  0  0  0  0  0  0  0  0  0
   32.0239  -20.1513   34.3043 C   0  0  0  0  0  0  0  0  0  0  0  0
   31.9441  -19.5656   33.0399 F   0  0  0  0  0  0  0  0  0  0  0  0
   30.9822  -19.7644   35.1171 F   0  0  0  0  0  0  0  0  0  0  0  0
   32.0801  -21.5097   34.0965 F   0  0  0  0  0  0  0  0  0  0  0  0
   38.1617  -19.4557   36.6294 C   0  0  0  0  0  0  0  0  0  0  0  0
   39.2446  -19.1499   35.6856 C   0  0  0  0  0  0  0  0  0  0  0  0
   41.5045  -20.3065   35.3646 C   0  0  0  0  0  0  0  0  0  0  0  0
   40.6541  -19.3030   36.0573 C   0  0  0  0  0  0  0  0  0  0  0  0
   40.8732  -19.4974   37.5530 C   0  0  0  0  0  0  0  0  0  0  0  0
   37.3483  -17.1038   36.4662 C   0  0  0  0  0  0  0  0  0  0  0  0
   36.4950  -16.0674   37.0355 C   0  0  0  0  0  0  0  0  0  0  0  0
   36.3538  -15.9336   38.2478 O   0  0  0  0  0  0  0  0  0  0  0  0
   35.8285  -15.2079   36.1253 N   0  0  0  0  0  0  0  0  0  0  0  0
   35.9671  -15.3566   35.0790 H   0  0  0  0  0  0  0  0  0  0  0  0
   34.9633  -14.1417   36.4625 C   0  0  0  0  0  0  0  0  0  0  0  0
   33.7805  -14.2579   37.1422 C   0  0  0  0  0  0  0  0  0  0  0  0
   32.9913  -13.1504   37.4632 C   0  0  0  0  0  0  0  0  0  0  0  0
   33.4204  -11.9086   37.0813 C   0  0  0  0  0  0  0  0  0  0  0  0
   32.6655  -10.6661   37.3766 C   0  0  0  0  0  0  0  0  0  0  0  0
   33.6821   -9.6525   37.8515 C   0  0  0  0  0  0  0  0  0  0  0  0
   34.7329   -9.4396   37.0071 O   0  0  0  0  0  0  0  0  0  0  0  0
   34.9563  -10.3634   36.0286 C   0  0  0  0  0  0  0  0  0  0  0  0
   34.6049  -11.7642   36.3960 C   0  0  0  0  0  0  0  0  0  0  0  0
   35.3716  -12.8408   36.0851 C   0  0  0  0  0  0  0  0  0  0  0  0
 14 15  1  0  0  0
 15 16  1  0  0  0
 15 13  1  0  0  0
 13 12  1  0  0  0
 12  1  1  0  0  0
  1 17  1  0  0  0
 17 18  1  0  0  0
 18 19  2  0  0  0
 18 20  1  0  0  0
 20 22  1  0  0  0
 22 23  2  0  0  0
 23 24  1  0  0  0
 24 25  2  0  0  0
 25 26  1  0  0  0
 26 27  1  0  0  0
 27 28  1  0  0  0
 28 29  1  0  0  0
 29 30  1  0  0  0
 30 31  2  0  0  0
  1  2  1  0  0  0
  2  3  2  0  0  0
  3  4  1  0  0  0
  4  5  2  0  0  0
  5  6  1  0  0  0
  6  7  2  0  0  0
  5  8  1  0  0  0
  8  9  1  0  0  0
  8 10  1  0  0  0
  8 11  1  0  0  0
 31 22  1  0  0  0
  7  2  1  0  0  0
 30 25  1  0  0  0
 20 21  1  0  0  0
M  END
> <minimizedAffinity>
-6.20612

> <CNNscore>
0.3411255479

> <CNNaffinity>
5.2603883743

> <CNN_VS>
1.7944529057

> <CNNaffinity_variance>
0.3447875082

$$$$
[H]c1c([H])c2c(c([H])c1N([H])C(=O)C([H])([H])C([H])(c1c([H])c([H])c(C(F)(F)F)c([H])c1[H])C([H])([H])C([H])([H])C([H])(C([H])([H])[H])C([H])([H])[H])C([H])([H])OC([H])([H])C2([H])[H]


 31 33  0  0  0  0  0  0  0  0999 V2000
   34.6957  -18.2788   34.8258 C   0  0  0  0  0  0  0  0  0  0  0  0
   34.9942  -16.9194   35.3647 C   0  0  0  0  0  0  0  0  0  0  0  0
   33.9024  -16.0988   35.6741 C   0  0  0  0  0  0  0  0  0  0  0  0
   34.0129  -14.8362   36.1719 C   0  0  0  0  0  0  0  0  0  0  0  0
   35.2729  -14.3146   36.3920 C   0  0  0  0  0  0  0  0  0  0  0  0
   36.3671  -15.0903   36.0990 C   0  0  0  0  0  0  0  0  0  0  0  0
   36.2200  -16.3849   35.5884 C   0  0  0  0  0  0  0  0  0  0  0  0
   35.4115  -12.9290   36.9409 C   0  0  0  0  0  0  0  0  0  0  0  0
   36.7008  -12.8286   37.4660 F   0  0  0  0  0  0  0  0  0  0  0  0
   34.4476  -12.6955   37.8956 F   0  0  0  0  0  0  0  0  0  0  0  0
   35.3573  -12.0518   35.8829 F   0  0  0  0  0  0  0  0  0  0  0  0
   34.9915  -19.4071   35.7177 C   0  0  0  0  0  0  0  0  0  0  0  0
   35.2732  -19.1739   37.1400 C   0  0  0  0  0  0  0  0  0  0  0  0
   37.7935  -19.4878   36.8290 C   0  0  0  0  0  0  0  0  0  0  0  0
   36.5993  -19.4238   37.7119 C   0  0  0  0  0  0  0  0  0  0  0  0
   36.6532  -20.6503   38.6151 C   0  0  0  0  0  0  0  0  0  0  0  0
   33.2958  -18.2936   34.2670 C   0  0  0  0  0  0  0  0  0  0  0  0
   32.2727  -19.0412   34.9886 C   0  0  0  0  0  0  0  0  0  0  0  0
   31.7977  -18.6393   36.0471 O   0  0  0  0  0  0  0  0  0  0  0  0
   31.8400  -20.2633   34.4135 N   0  0  0  0  0  0  0  0  0  0  0  0
   32.2788  -20.5867   33.4975 H   0  0  0  0  0  0  0  0  0  0  0  0
   30.8616  -21.1362   34.9422 C   0  0  0  0  0  0  0  0  0  0  0  0
   29.5970  -20.7789   35.3265 C   0  0  0  0  0  0  0  0  0  0  0  0
   28.6744  -21.7073   35.8159 C   0  0  0  0  0  0  0  0  0  0  0  0
   29.0545  -23.0181   35.9132 C   0  0  0  0  0  0  0  0  0  0  0  0
   28.1534  -24.0862   36.4115 C   0  0  0  0  0  0  0  0  0  0  0  0
   28.3256  -25.2605   35.4746 C   0  0  0  0  0  0  0  0  0  0  0  0
   29.6097  -25.6923   35.3094 O   0  0  0  0  0  0  0  0  0  0  0  0
   30.6143  -24.8553   35.6980 C   0  0  0  0  0  0  0  0  0  0  0  0
   30.3201  -23.4036   35.5348 C   0  0  0  0  0  0  0  0  0  0  0  0
   31.2156  -22.5010   35.0587 C   0  0  0  0  0  0  0  0  0  0  0  0
 14 15  1  0  0  0
 15 16  1  0  0  0
 15 13  1  0  0  0
 13 12  1  0  0  0
 12  1  1  0  0  0
  1 17  1  0  0  0
 17 18  1  0  0  0
 18 19  2  0  0  0
 18 20  1  0  0  0
 20 22  1  0  0  0
 22 23  2  0  0  0
 23 24  1  0  0  0
 24 25  2  0  0  0
 25 26  1  0  0  0
 26 27  1  0  0  0
 27 28  1  0  0  0
 28 29  1  0  0  0
 29 30  1  0  0  0
 30 31  2  0  0  0
  1  2  1  0  0  0
  2  3  2  0  0  0
  3  4  1  0  0  0
  4  5  2  0  0  0
  5  6  1  0  0  0
  6  7  2  0  0  0
  5  8  1  0  0  0
  8  9  1  0  0  0
  8 10  1  0  0  0
  8 11  1  0  0  0
 31 22  1  0  0  0
  7  2  1  0  0  0
 30 25  1  0  0  0
 20 21  1  0  0  0
M  END
> <minimizedAffinity>
-7.48544

> <CNNscore>
0.3141606748

> <CNNaffinity>
5.4067735672

> <CNN_VS>
1.6985956430

> <CNNaffinity_variance>
0.2841344774

$$$$
[H]c1c([H])c2c(c([H])c1N([H])C(=O)C([H])([H])C([H])(c1c([H])c([H])c(C(F)(F)F)c([H])c1[H])C([H])([H])C([H])([H])C([H])(C([H])([H])[H])C([H])([H])[H])C([H])([H])OC([H])([H])C2([H])[H]


 31 33  0  0  0  0  0  0  0  0999 V2000
   35.4664  -18.7792   35.1470 C   0  0  0  0  0  0  0  0  0  0  0  0
   35.3226  -17.3663   35.6060 C   0  0  0  0  0  0  0  0  0  0  0  0
   36.4742  -16.7266   36.0812 C   0  0  0  0  0  0  0  0  0  0  0  0
   36.5028  -15.4427   36.5339 C   0  0  0  0  0  0  0  0  0  0  0  0
   35.3322  -14.7092   36.5322 C   0  0  0  0  0  0  0  0  0  0  0  0
   34.1830  -15.3043   36.0741 C   0  0  0  0  0  0  0  0  0  0  0  0
   34.1865  -16.6263   35.6151 C   0  0  0  0  0  0  0  0  0  0  0  0
   35.3473  -13.2958   37.0246 C   0  0  0  0  0  0  0  0  0  0  0  0
   34.8871  -12.4971   35.9765 F   0  0  0  0  0  0  0  0  0  0  0  0
   36.6174  -12.9425   37.4213 F   0  0  0  0  0  0  0  0  0  0  0  0
   34.4120  -13.1915   38.0276 F   0  0  0  0  0  0  0  0  0  0  0  0
   35.4627  -19.8041   36.1984 C   0  0  0  0  0  0  0  0  0  0  0  0
   35.0375  -19.4653   37.5627 C   0  0  0  0  0  0  0  0  0  0  0  0
   35.7533  -21.4042   39.0711 C   0  0  0  0  0  0  0  0  0  0  0  0
   34.6974  -20.5018   38.5415 C   0  0  0  0  0  0  0  0  0  0  0  0
   33.5348  -21.3888   38.1120 C   0  0  0  0  0  0  0  0  0  0  0  0
   34.4819  -19.0414   34.0359 C   0  0  0  0  0  0  0  0  0  0  0  0
   33.1713  -19.5755   34.3871 C   0  0  0  0  0  0  0  0  0  0  0  0
   32.2062  -18.8461   34.5977 O   0  0  0  0  0  0  0  0  0  0  0  0
   33.0513  -20.9859   34.4748 N   0  0  0  0  0  0  0  0  0  0  0  0
   33.9110  -21.5894   34.2934 H   0  0  0  0  0  0  0  0  0  0  0  0
   31.8782  -21.7072   34.7949 C   0  0  0  0  0  0  0  0  0  0  0  0
   31.6647  -23.0360   34.5439 C   0  0  0  0  0  0  0  0  0  0  0  0
   30.4854  -23.6867   34.9161 C   0  0  0  0  0  0  0  0  0  0  0  0
   29.5129  -22.9647   35.5527 C   0  0  0  0  0  0  0  0  0  0  0  0
   28.2274  -23.5567   35.9979 C   0  0  0  0  0  0  0  0  0  0  0  0
   27.9756  -23.0291   37.3923 C   0  0  0  0  0  0  0  0  0  0  0  0
   27.9977  -21.6700   37.5153 O   0  0  0  0  0  0  0  0  0  0  0  0
   28.5659  -20.9518   36.5043 C   0  0  0  0  0  0  0  0  0  0  0  0
   29.7018  -21.6274   35.8159 C   0  0  0  0  0  0  0  0  0  0  0  0
   30.8483  -20.9961   35.4546 C   0  0  0  0  0  0  0  0  0  0  0  0
 14 15  1  0  0  0
 15 16  1  0  0  0
 15 13  1  0  0  0
 13 12  1  0  0  0
 12  1  1  0  0  0
  1 17  1  0  0  0
 17 18  1  0  0  0
 18 19  2  0  0  0
 18 20  1  0  0  0
 20 22  1  0  0  0
 22 23  2  0  0  0
 23 24  1  0  0  0
 24 25  2  0  0  0
 25 26  1  0  0  0
 26 27  1  0  0  0
 27 28  1  0  0  0
 28 29  1  0  0  0
 29 30  1  0  0  0
 30 31  2  0  0  0
  1  2  1  0  0  0
  2  3  2  0  0  0
  3  4  1  0  0  0
  4  5  2  0  0  0
  5  6  1  0  0  0
  6  7  2  0  0  0
  5  8  1  0  0  0
  8  9  1  0  0  0
  8 10  1  0  0  0
  8 11  1  0  0  0
 31 22  1  0  0  0
  7  2  1  0  0  0
 30 25  1  0  0  0
 20 21  1  0  0  0
M  END
> <minimizedAffinity>
-7.42087

> <CNNscore>
0.2990418375

> <CNNaffinity>
5.2664089203

> <CNN_VS>
1.5748765469

> <CNNaffinity_variance>
0.3030289710

$$$$
[H]c1c([H])c2c(c([H])c1N([H])C(=O)C([H])([H])C([H])(c1c([H])c([H])c(C(F)(F)F)c([H])c1[H])C([H])([H])C([H])([H])C([H])(C([H])([H])[H])C([H])([H])[H])C([H])([H])OC([H])([H])C2([H])[H]


 31 33  0  0  0  0  0  0  0  0999 V2000
   34.9060  -12.9853   37.2820 C   0  0  0  0  0  0  0  0  0  0  0  0
   35.4880  -14.3495   37.1152 C   0  0  0  0  0  0  0  0  0  0  0  0
   34.9103  -15.1784   36.1456 C   0  0  0  0  0  0  0  0  0  0  0  0
   35.3287  -16.4462   35.8773 C   0  0  0  0  0  0  0  0  0  0  0  0
   36.3880  -16.9646   36.5965 C   0  0  0  0  0  0  0  0  0  0  0  0
   36.9785  -16.1806   37.5563 C   0  0  0  0  0  0  0  0  0  0  0  0
   36.5251  -14.8810   37.8083 C   0  0  0  0  0  0  0  0  0  0  0  0
   36.8614  -18.3558   36.3121 C   0  0  0  0  0  0  0  0  0  0  0  0
   38.2150  -18.3998   36.6498 F   0  0  0  0  0  0  0  0  0  0  0  0
   36.6509  -18.6700   34.9884 F   0  0  0  0  0  0  0  0  0  0  0  0
   36.2192  -19.2035   37.1844 F   0  0  0  0  0  0  0  0  0  0  0  0
   35.5970  -11.8971   36.5788 C   0  0  0  0  0  0  0  0  0  0  0  0
   34.8351  -10.7687   36.0282 C   0  0  0  0  0  0  0  0  0  0  0  0
   33.2981   -9.3489   37.5010 C   0  0  0  0  0  0  0  0  0  0  0  0
   34.5969   -9.5497   36.8063 C   0  0  0  0  0  0  0  0  0  0  0  0
   34.8869   -8.2672   36.0356 C   0  0  0  0  0  0  0  0  0  0  0  0
   33.4243  -13.0426   37.0111 C   0  0  0  0  0  0  0  0  0  0  0  0
   32.5103  -12.7526   38.1097 C   0  0  0  0  0  0  0  0  0  0  0  0
   32.8936  -12.6825   39.2741 O   0  0  0  0  0  0  0  0  0  0  0  0
   31.1464  -12.5496   37.7783 N   0  0  0  0  0  0  0  0  0  0  0  0
   30.8462  -12.6253   36.7583 H   0  0  0  0  0  0  0  0  0  0  0  0
   30.1008  -12.2548   38.6831 C   0  0  0  0  0  0  0  0  0  0  0  0
   29.5830  -13.1162   39.6129 C   0  0  0  0  0  0  0  0  0  0  0  0
   28.5650  -12.7413   40.4935 C   0  0  0  0  0  0  0  0  0  0  0  0
   28.0714  -11.4674   40.4186 C   0  0  0  0  0  0  0  0  0  0  0  0
   26.9974  -10.9628   41.3091 C   0  0  0  0  0  0  0  0  0  0  0  0
   27.4259   -9.5826   41.7536 C   0  0  0  0  0  0  0  0  0  0  0  0
   27.7248   -8.7112   40.7466 O   0  0  0  0  0  0  0  0  0  0  0  0
   27.9461   -9.2305   39.5048 C   0  0  0  0  0  0  0  0  0  0  0  0
   28.5733  -10.5822   39.4923 C   0  0  0  0  0  0  0  0  0  0  0  0
   29.5631  -10.9470   38.6374 C   0  0  0  0  0  0  0  0  0  0  0  0
 14 15  1  0  0  0
 15 16  1  0  0  0
 15 13  1  0  0  0
 13 12  1  0  0  0
 12  1  1  0  0  0
  1 17  1  0  0  0
 17 18  1  0  0  0
 18 19  2  0  0  0
 18 20  1  0  0  0
 20 22  1  0  0  0
 22 23  2  0  0  0
 23 24  1  0  0  0
 24 25  2  0  0  0
 25 26  1  0  0  0
 26 27  1  0  0  0
 27 28  1  0  0  0
 28 29  1  0  0  0
 29 30  1  0  0  0
 30 31  2  0  0  0
  1  2  1  0  0  0
  2  3  2  0  0  0
  3  4  1  0  0  0
  4  5  2  0  0  0
  5  6  1  0  0  0
  6  7  2  0  0  0
  5  8  1  0  0  0
  8  9  1  0  0  0
  8 10  1  0  0  0
  8 11  1  0  0  0
 31 22  1  0  0  0
  7  2  1  0  0  0
 30 25  1  0  0  0
 20 21  1  0  0  0
M  END
> <minimizedAffinity>
-8.41577

> <CNNscore>
0.2968560457

> <CNNaffinity>
6.1732125282

> <CNN_VS>
1.8325554132

> <CNNaffinity_variance>
0.1324459016

$$$$
[H]c1c([H])c2c(c([H])c1N([H])C(=O)C([H])([H])C([H])(c1c([H])c([H])c(C(F)(F)F)c([H])c1[H])C([H])([H])C([H])([H])C([H])(C([H])([H])[H])C([H])([H])[H])C([H])([H])OC([H])([H])C2([H])[H]


 31 33  0  0  0  0  0  0  0  0999 V2000
   35.7340  -16.4782   36.8770 C   0  0  0  0  0  0  0  0  0  0  0  0
   34.8284  -17.5099   36.2912 C   0  0  0  0  0  0  0  0  0  0  0  0
   34.1725  -17.1835   35.0978 C   0  0  0  0  0  0  0  0  0  0  0  0
   33.3168  -18.0169   34.4442 C   0  0  0  0  0  0  0  0  0  0  0  0
   33.0673  -19.2670   34.9764 C   0  0  0  0  0  0  0  0  0  0  0  0
   33.6921  -19.6211   36.1464 C   0  0  0  0  0  0  0  0  0  0  0  0
   34.5667  -18.7415   36.7942 C   0  0  0  0  0  0  0  0  0  0  0  0
   32.1308  -20.1958   34.2688 C   0  0  0  0  0  0  0  0  0  0  0  0
   31.0011  -20.3258   35.0782 F   0  0  0  0  0  0  0  0  0  0  0  0
   32.7427  -21.4079   34.0411 F   0  0  0  0  0  0  0  0  0  0  0  0
   31.7103  -19.5706   33.1182 F   0  0  0  0  0  0  0  0  0  0  0  0
   37.1694  -16.7860   36.8473 C   0  0  0  0  0  0  0  0  0  0  0  0
   37.6769  -17.8748   36.0024 C   0  0  0  0  0  0  0  0  0  0  0  0
   39.7230  -19.1571   36.8488 C   0  0  0  0  0  0  0  0  0  0  0  0
   38.2625  -19.0874   36.5810 C   0  0  0  0  0  0  0  0  0  0  0  0
   37.8908  -20.3618   35.8322 C   0  0  0  0  0  0  0  0  0  0  0  0
   35.3871  -15.1296   36.2998 C   0  0  0  0  0  0  0  0  0  0  0  0
   34.5603  -14.2303   37.0960 C   0  0  0  0  0  0  0  0  0  0  0  0
   34.9736  -13.7082   38.1276 O   0  0  0  0  0  0  0  0  0  0  0  0
   33.2462  -13.9764   36.6269 N   0  0  0  0  0  0  0  0  0  0  0  0
   32.9167  -14.4522   35.7318 H   0  0  0  0  0  0  0  0  0  0  0  0
   32.2867  -13.1383   37.2399 C   0  0  0  0  0  0  0  0  0  0  0  0
   31.6940  -12.0477   36.6621 C   0  0  0  0  0  0  0  0  0  0  0  0
   30.7307  -11.2823   37.3246 C   0  0  0  0  0  0  0  0  0  0  0  0
   30.3721  -11.6396   38.5957 C   0  0  0  0  0  0  0  0  0  0  0  0
   29.3558  -10.9026   39.3864 C   0  0  0  0  0  0  0  0  0  0  0  0
   28.4792  -11.9498   40.0353 C   0  0  0  0  0  0  0  0  0  0  0  0
   29.1397  -12.8879   40.7746 O   0  0  0  0  0  0  0  0  0  0  0  0
   30.4854  -13.0095   40.5870 C   0  0  0  0  0  0  0  0  0  0  0  0
   30.9534  -12.7307   39.1999 C   0  0  0  0  0  0  0  0  0  0  0  0
   31.8888  -13.4743   38.5553 C   0  0  0  0  0  0  0  0  0  0  0  0
 14 15  1  0  0  0
 15 16  1  0  0  0
 15 13  1  0  0  0
 13 12  1  0  0  0
 12  1  1  0  0  0
  1 17  1  0  0  0
 17 18  1  0  0  0
 18 19  2  0  0  0
 18 20  1  0  0  0
 20 22  1  0  0  0
 22 23  2  0  0  0
 23 24  1  0  0  0
 24 25  2  0  0  0
 25 26  1  0  0  0
 26 27  1  0  0  0
 27 28  1  0  0  0
 28 29  1  0  0  0
 29 30  1  0  0  0
 30 31  2  0  0  0
  1  2  1  0  0  0
  2  3  2  0  0  0
  3  4  1  0  0  0
  4  5  2  0  0  0
  5  6  1  0  0  0
  6  7  2  0  0  0
  5  8  1  0  0  0
  8  9  1  0  0  0
  8 10  1  0  0  0
  8 11  1  0  0  0
 31 22  1  0  0  0
  7  2  1  0  0  0
 30 25  1  0  0  0
 20 21  1  0  0  0
M  END
> <minimizedAffinity>
-6.50424

> <CNNscore>
0.2704435587

> <CNNaffinity>
5.5111060143

> <CNN_VS>
1.4904431105

> <CNNaffinity_variance>
0.1891865134

$$$$
[H]c1c([H])c2c(c([H])c1N([H])C(=O)C([H])([H])C([H])(c1c([H])c([H])c(C(F)(F)F)c([H])c1[H])C([H])([H])C([H])([H])C([H])(C([H])([H])[H])C([H])([H])[H])C([H])([H])OC([H])([H])C2([H])[H]


 31 33  0  0  0  0  0  0  0  0999 V2000
   34.8076  -18.8250   35.7559 C   0  0  0  0  0  0  0  0  0  0  0  0
   35.0705  -17.4089   36.1470 C   0  0  0  0  0  0  0  0  0  0  0  0
   34.1851  -16.4363   35.6662 C   0  0  0  0  0  0  0  0  0  0  0  0
   34.2928  -15.1058   35.9350 C   0  0  0  0  0  0  0  0  0  0  0  0
   35.3346  -14.6687   36.7299 C   0  0  0  0  0  0  0  0  0  0  0  0
   36.2231  -15.5942   37.2184 C   0  0  0  0  0  0  0  0  0  0  0  0
   36.0849  -16.9552   36.9239 C   0  0  0  0  0  0  0  0  0  0  0  0
   35.4657  -13.2095   37.0366 C   0  0  0  0  0  0  0  0  0  0  0  0
   34.4896  -12.9063   37.9871 F   0  0  0  0  0  0  0  0  0  0  0  0
   35.3144  -12.4653   35.8883 F   0  0  0  0  0  0  0  0  0  0  0  0
   36.6788  -13.0190   37.6561 F   0  0  0  0  0  0  0  0  0  0  0  0
   33.4264  -19.2954   35.9204 C   0  0  0  0  0  0  0  0  0  0  0  0
   32.5491  -19.4423   34.7518 C   0  0  0  0  0  0  0  0  0  0  0  0
   29.9941  -19.3040   34.7710 C   0  0  0  0  0  0  0  0  0  0  0  0
   31.2448  -20.1038   34.8484 C   0  0  0  0  0  0  0  0  0  0  0  0
   31.1107  -21.0144   36.0631 C   0  0  0  0  0  0  0  0  0  0  0  0
   35.3771  -19.0733   34.3825 C   0  0  0  0  0  0  0  0  0  0  0  0
   36.7463  -18.6480   34.1161 C   0  0  0  0  0  0  0  0  0  0  0  0
   37.0000  -17.6669   33.4227 O   0  0  0  0  0  0  0  0  0  0  0  0
   37.7860  -19.4178   34.6972 N   0  0  0  0  0  0  0  0  0  0  0  0
   37.5308  -20.2679   35.2875 H   0  0  0  0  0  0  0  0  0  0  0  0
   39.1739  -19.1797   34.5706 C   0  0  0  0  0  0  0  0  0  0  0  0
   39.8734  -19.1431   33.3942 C   0  0  0  0  0  0  0  0  0  0  0  0
   41.2438  -18.8737   33.3479 C   0  0  0  0  0  0  0  0  0  0  0  0
   41.9046  -18.6401   34.5230 C   0  0  0  0  0  0  0  0  0  0  0  0
   43.3555  -18.3371   34.5883 C   0  0  0  0  0  0  0  0  0  0  0  0
   43.5080  -17.1909   35.5626 C   0  0  0  0  0  0  0  0  0  0  0  0
   42.9589  -17.3953   36.7952 O   0  0  0  0  0  0  0  0  0  0  0  0
   42.0586  -18.4115   36.9269 C   0  0  0  0  0  0  0  0  0  0  0  0
   41.2253  -18.6722   35.7193 C   0  0  0  0  0  0  0  0  0  0  0  0
   39.8936  -18.9333   35.7633 C   0  0  0  0  0  0  0  0  0  0  0  0
 14 15  1  0  0  0
 15 16  1  0  0  0
 15 13  1  0  0  0
 13 12  1  0  0  0
 12  1  1  0  0  0
  1 17  1  0  0  0
 17 18  1  0  0  0
 18 19  2  0  0  0
 18 20  1  0  0  0
 20 22  1  0  0  0
 22 23  2  0  0  0
 23 24  1  0  0  0
 24 25  2  0  0  0
 25 26  1  0  0  0
 26 27  1  0  0  0
 27 28  1  0  0  0
 28 29  1  0  0  0
 29 30  1  0  0  0
 30 31  2  0  0  0
  1  2  1  0  0  0
  2  3  2  0  0  0
  3  4  1  0  0  0
  4  5  2  0  0  0
  5  6  1  0  0  0
  6  7  2  0  0  0
  5  8  1  0  0  0
  8  9  1  0  0  0
  8 10  1  0  0  0
  8 11  1  0  0  0
 31 22  1  0  0  0
  7  2  1  0  0  0
 30 25  1  0  0  0
 20 21  1  0  0  0
M  END
> <minimizedAffinity>
-7.74761

> <CNNscore>
0.2488803416

> <CNNaffinity>
5.3882150650

> <CNN_VS>
1.3410208225

> <CNNaffinity_variance>
0.1924908906

$$$$
[H]c1c([H])c2c(c([H])c1N([H])C(=O)C([H])([H])C([H])(c1c([H])c([H])c(C(F)(F)F)c([H])c1[H])C([H])([H])C([H])([H])C([H])(C([H])([H])[H])C([H])([H])[H])C([H])([H])OC([H])([H])C2([H])[H]


 31 33  0  0  0  0  0  0  0  0999 V2000
   35.2248  -17.9094   35.8906 C   0  0  0  0  0  0  0  0  0  0  0  0
   34.0184  -18.7874   35.9237 C   0  0  0  0  0  0  0  0  0  0  0  0
   32.9057  -18.3760   35.1796 C   0  0  0  0  0  0  0  0  0  0  0  0
   31.7348  -19.0678   35.1108 C   0  0  0  0  0  0  0  0  0  0  0  0
   31.6182  -20.2520   35.8124 C   0  0  0  0  0  0  0  0  0  0  0  0
   32.6889  -20.6860   36.5540 C   0  0  0  0  0  0  0  0  0  0  0  0
   33.8791  -19.9519   36.6042 C   0  0  0  0  0  0  0  0  0  0  0  0
   30.3385  -21.0255   35.7453 C   0  0  0  0  0  0  0  0  0  0  0  0
   29.9387  -21.2614   37.0616 F   0  0  0  0  0  0  0  0  0  0  0  0
   30.5252  -22.1968   35.0466 F   0  0  0  0  0  0  0  0  0  0  0  0
   29.3819  -20.2058   35.1934 F   0  0  0  0  0  0  0  0  0  0  0  0
   34.9734  -16.4707   35.7391 C   0  0  0  0  0  0  0  0  0  0  0  0
   35.7193  -15.4984   36.5487 C   0  0  0  0  0  0  0  0  0  0  0  0
   33.6504  -14.0129   36.7946 C   0  0  0  0  0  0  0  0  0  0  0  0
   35.0730  -14.3083   37.1090 C   0  0  0  0  0  0  0  0  0  0  0  0
   35.8531  -13.0208   36.8705 C   0  0  0  0  0  0  0  0  0  0  0  0
   36.1195  -18.2532   37.0540 C   0  0  0  0  0  0  0  0  0  0  0  0
   37.3398  -19.0056   36.7871 C   0  0  0  0  0  0  0  0  0  0  0  0
   37.3826  -20.2295   36.8765 O   0  0  0  0  0  0  0  0  0  0  0  0
   38.4881  -18.2619   36.4133 N   0  0  0  0  0  0  0  0  0  0  0  0
   38.4181  -17.2000   36.3527 H   0  0  0  0  0  0  0  0  0  0  0  0
   39.7637  -18.7898   36.1083 C   0  0  0  0  0  0  0  0  0  0  0  0
   40.1373  -19.3308   34.9074 C   0  0  0  0  0  0  0  0  0  0  0  0
   41.4293  -19.8087   34.6728 C   0  0  0  0  0  0  0  0  0  0  0  0
   42.3487  -19.7315   35.6831 C   0  0  0  0  0  0  0  0  0  0  0  0
   43.7486  -20.2015   35.5399 C   0  0  0  0  0  0  0  0  0  0  0  0
   44.6218  -19.1352   36.1618 C   0  0  0  0  0  0  0  0  0  0  0  0
   44.3096  -18.8014   37.4478 O   0  0  0  0  0  0  0  0  0  0  0  0
   43.0855  -19.1751   37.9197 C   0  0  0  0  0  0  0  0  0  0  0  0
   41.9987  -19.1933   36.9002 C   0  0  0  0  0  0  0  0  0  0  0  0
   40.7433  -18.7285   37.1271 C   0  0  0  0  0  0  0  0  0  0  0  0
 14 15  1  0  0  0
 15 16  1  0  0  0
 15 13  1  0  0  0
 13 12  1  0  0  0
 12  1  1  0  0  0
  1 17  1  0  0  0
 17 18  1  0  0  0
 18 19  2  0  0  0
 18 20  1  0  0  0
 20 22  1  0  0  0
 22 23  2  0  0  0
 23 24  1  0  0  0
 24 25  2  0  0  0
 25 26  1  0  0  0
 26 27  1  0  0  0
 27 28  1  0  0  0
 28 29  1  0  0  0
 29 30  1  0  0  0
 30 31  2  0  0  0
  1  2  1  0  0  0
  2  3  2  0  0  0
  3  4  1  0  0  0
  4  5  2  0  0  0
  5  6  1  0  0  0
  6  7  2  0  0  0
  5  8  1  0  0  0
  8  9  1  0  0  0
  8 10  1  0  0  0
  8 11  1  0  0  0
 31 22  1  0  0  0
  7  2  1  0  0  0
 30 25  1  0  0  0
 20 21  1  0  0  0
M  END
> <minimizedAffinity>
-6.62958

> <CNNscore>
0.2398650050

> <CNNaffinity>
5.2024183273

> <CNN_VS>
1.2478780746

> <CNNaffinity_variance>
0.3031377196

$$$$
[H]OC(=O)c1c([H])c(C([H])([H])Oc2c([H])c([H])c(C([H])(C(=O)N([H])c3nc4c([H])c([H])c([H])c([H])c4n3[H])C([H])([H])[H])c([H])c2[H])c([H])c([H])c1F


 35 38  0  0  0  0  0  0  0  0999 V2000
   35.0277  -15.3241   36.6333 C   0  0  0  0  0  0  0  0  0  0  0  0
   35.8371  -16.4289   36.4904 C   0  0  0  0  0  0  0  0  0  0  0  0
   35.4832  -17.5069   35.6810 C   0  0  0  0  0  0  0  0  0  0  0  0
   34.2791  -17.4772   34.9925 C   0  0  0  0  0  0  0  0  0  0  0  0
   33.4700  -16.3707   35.1366 C   0  0  0  0  0  0  0  0  0  0  0  0
   33.8348  -15.3053   35.9451 C   0  0  0  0  0  0  0  0  0  0  0  0
   36.8516  -14.4192   38.0095 C   0  0  0  0  0  0  0  0  0  0  0  0
   35.4265  -14.1681   37.5120 C   0  0  0  0  0  0  0  0  0  0  0  0
   35.3262  -12.8987   36.7716 C   0  0  0  0  0  0  0  0  0  0  0  0
   36.2938  -12.5442   35.9894 O   0  0  0  0  0  0  0  0  0  0  0  0
   34.2388  -12.0406   36.8596 N   0  0  0  0  0  0  0  0  0  0  0  0
   34.3245  -11.1428   36.2553 H   0  0  0  0  0  0  0  0  0  0  0  0
   33.0506  -12.2241   37.5950 C   0  0  0  0  0  0  0  0  0  0  0  0
   32.8749  -12.8017   38.7734 N   0  0  0  0  0  0  0  0  0  0  0  0
   31.5893  -12.7585   39.1014 C   0  0  0  0  0  0  0  0  0  0  0  0
   30.9152  -13.2212   40.2160 C   0  0  0  0  0  0  0  0  0  0  0  0
   29.5465  -13.0371   40.2967 C   0  0  0  0  0  0  0  0  0  0  0  0
   28.8758  -12.4010   39.2758 C   0  0  0  0  0  0  0  0  0  0  0  0
   29.5726  -11.9534   38.1828 C   0  0  0  0  0  0  0  0  0  0  0  0
   30.9457  -12.1188   38.0645 C   0  0  0  0  0  0  0  0  0  0  0  0
   31.8317  -11.7859   37.1339 N   0  0  0  0  0  0  0  0  0  0  0  0
   31.6316  -11.2930   36.2407 H   0  0  0  0  0  0  0  0  0  0  0  0
   33.9043  -18.5342   34.1828 O   0  0  0  0  0  0  0  0  0  0  0  0
   33.7744  -19.8418   34.6409 C   0  0  0  0  0  0  0  0  0  0  0  0
   32.3678  -20.1201   35.0189 C   0  0  0  0  0  0  0  0  0  0  0  0
   31.3754  -19.3464   34.4783 C   0  0  0  0  0  0  0  0  0  0  0  0
   30.0620  -19.5630   34.7952 C   0  0  0  0  0  0  0  0  0  0  0  0
   29.7290  -20.5723   35.6697 C   0  0  0  0  0  0  0  0  0  0  0  0
   28.4451  -20.8258   36.0142 F   0  0  0  0  0  0  0  0  0  0  0  0
   30.7269  -21.3748   36.2336 C   0  0  0  0  0  0  0  0  0  0  0  0
   32.0346  -21.1236   35.8884 C   0  0  0  0  0  0  0  0  0  0  0  0
   30.3468  -22.4320   37.1529 C   0  0  0  0  0  0  0  0  0  0  0  0
   29.8339  -23.6140   36.6703 O   0  0  0  0  0  0  0  0  0  0  0  0
   30.4883  -22.2610   38.3810 O   0  0  0  0  0  0  0  0  0  0  0  0
   29.3349  -24.2329   37.2854 H   0  0  0  0  0  0  0  0  0  0  0  0
  7  8  1  0  0  0
  8  1  1  0  0  0
  1  2  2  0  0  0
  2  3  1  0  0  0
  3  4  2  0  0  0
  4 23  1  0  0  0
 23 24  1  0  0  0
 24 25  1  0  0  0
 25 26  2  0  0  0
 26 27  1  0  0  0
 27 28  2  0  0  0
 28 29  1  0  0  0
 28 30  1  0  0  0
 30 31  2  0  0  0
 30 32  1  0  0  0
 32 33  1  0  0  0
 32 34  2  0  0  0
  4  5  1  0  0  0
  5  6  2  0  0  0
  8  9  1  0  0  0
  9 10  2  0  0  0
  9 11  1  0  0  0
 11 13  1  0  0  0
 13 14  2  0  0  0
 14 15  1  0  0  0
 15 16  2  0  0  0
 16 17  1  0  0  0
 17 18  2  0  0  0
 18 19  1  0  0  0
 19 20  2  0  0  0
 20 21  1  0  0  0
  6  1  1  0  0  0
 21 13  1  0  0  0
 31 25  1  0  0  0
 20 15  1  0  0  0
 33 35  1  0  0  0
 11 12  1  0  0  0
 21 22  1  0  0  0
M  END
> <minimizedAffinity>
-8.87022

> <CNNscore>
0.2460155189

> <CNNaffinity>
5.7343301773

> <CNN_VS>
1.4107341766

> <CNNaffinity_variance>
0.3902089000

$$$$
[H]OC(=O)c1c([H])c(C([H])([H])Oc2c([H])c([H])c(C([H])(C(=O)N([H])c3nc4c([H])c([H])c([H])c([H])c4n3[H])C([H])([H])[H])c([H])c2[H])c([H])c([H])c1F


 35 38  0  0  0  0  0  0  0  0999 V2000
   35.6847  -16.7675   36.4712 C   0  0  0  0  0  0  0  0  0  0  0  0
   34.5756  -16.1200   35.9748 C   0  0  0  0  0  0  0  0  0  0  0  0
   34.2008  -14.8509   36.4123 C   0  0  0  0  0  0  0  0  0  0  0  0
   34.9621  -14.2097   37.3788 C   0  0  0  0  0  0  0  0  0  0  0  0
   36.0720  -14.8591   37.8748 C   0  0  0  0  0  0  0  0  0  0  0  0
   36.4331  -16.1216   37.4302 C   0  0  0  0  0  0  0  0  0  0  0  0
   35.0572  -19.1428   36.5320 C   0  0  0  0  0  0  0  0  0  0  0  0
   36.0749  -18.1388   35.9864 C   0  0  0  0  0  0  0  0  0  0  0  0
   36.1314  -18.1690   34.5149 C   0  0  0  0  0  0  0  0  0  0  0  0
   37.1974  -17.7496   33.9138 O   0  0  0  0  0  0  0  0  0  0  0  0
   35.0945  -18.6283   33.7146 N   0  0  0  0  0  0  0  0  0  0  0  0
   35.2929  -18.5769   32.6485 H   0  0  0  0  0  0  0  0  0  0  0  0
   33.8637  -19.1780   34.1260 C   0  0  0  0  0  0  0  0  0  0  0  0
   33.5627  -20.4335   34.4193 N   0  0  0  0  0  0  0  0  0  0  0  0
   32.2832  -20.5141   34.7636 C   0  0  0  0  0  0  0  0  0  0  0  0
   31.5073  -21.5914   35.1489 C   0  0  0  0  0  0  0  0  0  0  0  0
   30.1749  -21.3825   35.4571 C   0  0  0  0  0  0  0  0  0  0  0  0
   29.6402  -20.1158   35.3778 C   0  0  0  0  0  0  0  0  0  0  0  0
   30.4356  -19.0675   34.9923 C   0  0  0  0  0  0  0  0  0  0  0  0
   31.7763  -19.2359   34.6750 C   0  0  0  0  0  0  0  0  0  0  0  0
   32.7365  -18.4069   34.2847 N   0  0  0  0  0  0  0  0  0  0  0  0
   32.6426  -17.3826   34.1333 H   0  0  0  0  0  0  0  0  0  0  0  0
   34.6118  -12.9500   37.8302 O   0  0  0  0  0  0  0  0  0  0  0  0
   34.6064  -11.8194   37.0189 C   0  0  0  0  0  0  0  0  0  0  0  0
   33.3939  -11.0050   37.2745 C   0  0  0  0  0  0  0  0  0  0  0  0
   33.5027   -9.6398   37.2605 C   0  0  0  0  0  0  0  0  0  0  0  0
   32.4137   -8.8441   37.4905 C   0  0  0  0  0  0  0  0  0  0  0  0
   31.1888   -9.4200   37.7402 C   0  0  0  0  0  0  0  0  0  0  0  0
   30.0827   -8.6762   37.9734 F   0  0  0  0  0  0  0  0  0  0  0  0
   31.0550  -10.8127   37.7592 C   0  0  0  0  0  0  0  0  0  0  0  0
   32.1748  -11.5760   37.5229 C   0  0  0  0  0  0  0  0  0  0  0  0
   29.7512  -11.3928   38.0251 C   0  0  0  0  0  0  0  0  0  0  0  0
   28.7405  -11.2713   37.0995 O   0  0  0  0  0  0  0  0  0  0  0  0
   29.5545  -12.0010   39.0970 O   0  0  0  0  0  0  0  0  0  0  0  0
   27.7869  -11.4317   37.3735 H   0  0  0  0  0  0  0  0  0  0  0  0
  7  8  1  0  0  0
  8  1  1  0  0  0
  1  2  2  0  0  0
  2  3  1  0  0  0
  3  4  2  0  0  0
  4 23  1  0  0  0
 23 24  1  0  0  0
 24 25  1  0  0  0
 25 26  2  0  0  0
 26 27  1  0  0  0
 27 28  2  0  0  0
 28 29  1  0  0  0
 28 30  1  0  0  0
 30 31  2  0  0  0
 30 32  1  0  0  0
 32 33  1  0  0  0
 32 34  2  0  0  0
  4  5  1  0  0  0
  5  6  2  0  0  0
  8  9  1  0  0  0
  9 10  2  0  0  0
  9 11  1  0  0  0
 11 13  1  0  0  0
 13 14  2  0  0  0
 14 15  1  0  0  0
 15 16  2  0  0  0
 16 17  1  0  0  0
 17 18  2  0  0  0
 18 19  1  0  0  0
 19 20  2  0  0  0
 20 21  1  0  0  0
  6  1  1  0  0  0
 21 13  1  0  0  0
 31 25  1  0  0  0
 20 15  1  0  0  0
 33 35  1  0  0  0
 11 12  1  0  0  0
 21 22  1  0  0  0
M  END
> <minimizedAffinity>
-9.59945

> <CNNscore>
0.2223053724

> <CNNaffinity>
5.8669219017

> <CNN_VS>
1.3042482138

> <CNNaffinity_variance>
0.2342969924

$$$$
[H]OC(=O)c1c([H])c(C([H])([H])Oc2c([H])c([H])c(C([H])(C(=O)N([H])c3nc4c([H])c([H])c([H])c([H])c4n3[H])C([H])([H])[H])c([H])c2[H])c([H])c([H])c1F


 35 38  0  0  0  0  0  0  0  0999 V2000
   35.4076  -16.4918   36.1000 C   0  0  0  0  0  0  0  0  0  0  0  0
   34.2162  -15.8596   35.8231 C   0  0  0  0  0  0  0  0  0  0  0  0
   33.8568  -14.6574   36.4296 C   0  0  0  0  0  0  0  0  0  0  0  0
   34.7193  -14.0694   37.3436 C   0  0  0  0  0  0  0  0  0  0  0  0
   35.9115  -14.7034   37.6198 C   0  0  0  0  0  0  0  0  0  0  0  0
   36.2562  -15.8991   37.0087 C   0  0  0  0  0  0  0  0  0  0  0  0
   36.9431  -17.5181   34.4789 C   0  0  0  0  0  0  0  0  0  0  0  0
   35.7797  -17.7905   35.4347 C   0  0  0  0  0  0  0  0  0  0  0  0
   36.1323  -18.8044   36.4432 C   0  0  0  0  0  0  0  0  0  0  0  0
   37.3261  -18.8129   36.9414 O   0  0  0  0  0  0  0  0  0  0  0  0
   35.2489  -19.7708   36.9040 N   0  0  0  0  0  0  0  0  0  0  0  0
   35.6679  -20.4475   37.6423 H   0  0  0  0  0  0  0  0  0  0  0  0
   33.8929  -19.9372   36.5580 C   0  0  0  0  0  0  0  0  0  0  0  0
   33.1339  -19.1989   35.7630 N   0  0  0  0  0  0  0  0  0  0  0  0
   31.9113  -19.7135   35.7135 C   0  0  0  0  0  0  0  0  0  0  0  0
   30.7779  -19.3108   35.0321 C   0  0  0  0  0  0  0  0  0  0  0  0
   29.6163  -20.0501   35.1661 C   0  0  0  0  0  0  0  0  0  0  0  0
   29.6008  -21.1688   35.9692 C   0  0  0  0  0  0  0  0  0  0  0  0
   30.7413  -21.5426   36.6325 C   0  0  0  0  0  0  0  0  0  0  0  0
   31.9261  -20.8277   36.5240 C   0  0  0  0  0  0  0  0  0  0  0  0
   33.1366  -20.9756   37.0480 N   0  0  0  0  0  0  0  0  0  0  0  0
   33.4394  -21.7294   37.6969 H   0  0  0  0  0  0  0  0  0  0  0  0
   34.3864  -12.8765   37.9596 O   0  0  0  0  0  0  0  0  0  0  0  0
   33.5968  -11.8993   37.3611 C   0  0  0  0  0  0  0  0  0  0  0  0
   32.2105  -11.9627   37.8837 C   0  0  0  0  0  0  0  0  0  0  0  0
   31.2622  -11.1405   37.3357 C   0  0  0  0  0  0  0  0  0  0  0  0
   29.9691  -11.1610   37.7826 C   0  0  0  0  0  0  0  0  0  0  0  0
   29.6120  -12.0190   38.7977 C   0  0  0  0  0  0  0  0  0  0  0  0
   28.3467  -12.0764   39.2742 F   0  0  0  0  0  0  0  0  0  0  0  0
   30.5648  -12.8676   39.3720 C   0  0  0  0  0  0  0  0  0  0  0  0
   31.8535  -12.8155   38.8932 C   0  0  0  0  0  0  0  0  0  0  0  0
   30.1601  -13.7623   40.4411 C   0  0  0  0  0  0  0  0  0  0  0  0
   29.5124  -14.9399   40.1467 O   0  0  0  0  0  0  0  0  0  0  0  0
   30.4035  -13.4559   41.6262 O   0  0  0  0  0  0  0  0  0  0  0  0
   29.0063  -15.4276   40.8652 H   0  0  0  0  0  0  0  0  0  0  0  0
  7  8  1  0  0  0
  8  1  1  0  0  0
  1  2  2  0  0  0
  2  3  1  0  0  0
  3  4  2  0  0  0
  4 23  1  0  0  0
 23 24  1  0  0  0
 24 25  1  0  0  0
 25 26  2  0  0  0
 26 27  1  0  0  0
 27 28  2  0  0  0
 28 29  1  0  0  0
 28 30  1  0  0  0
 30 31  2  0  0  0
 30 32  1  0  0  0
 32 33  1  0  0  0
 32 34  2  0  0  0
  4  5  1  0  0  0
  5  6  2  0  0  0
  8  9  1  0  0  0
  9 10  2  0  0  0
  9 11  1  0  0  0
 11 13  1  0  0  0
 13 14  2  0  0  0
 14 15  1  0  0  0
 15 16  2  0  0  0
 16 17  1  0  0  0
 17 18  2  0  0  0
 18 19  1  0  0  0
 19 20  2  0  0  0
 20 21  1  0  0  0
  6  1  1  0  0  0
 21 13  1  0  0  0
 31 25  1  0  0  0
 20 15  1  0  0  0
 33 35  1  0  0  0
 11 12  1  0  0  0
 21 22  1  0  0  0
M  END
> <minimizedAffinity>
-9.07200

> <CNNscore>
0.2147668600

> <CNNaffinity>
5.7414159775

> <CNN_VS>
1.2330658436

> <CNNaffinity_variance>
0.1660979688

$$$$
[H]OC(=O)c1c([H])c(C([H])([H])Oc2c([H])c([H])c(C([H])(C(=O)N([H])c3nc4c([H])c([H])c([H])c([H])c4n3[H])C([H])([H])[H])c([H])c2[H])c([H])c([H])c1F


 35 38  0  0  0  0  0  0  0  0999 V2000
   35.2573  -13.1388   37.0828 C   0  0  0  0  0  0  0  0  0  0  0  0
   34.2468  -13.7678   37.7749 C   0  0  0  0  0  0  0  0  0  0  0  0
   33.0867  -13.0996   38.1625 C   0  0  0  0  0  0  0  0  0  0  0  0
   32.9342  -11.7573   37.8462 C   0  0  0  0  0  0  0  0  0  0  0  0
   33.9466  -11.1291   37.1534 C   0  0  0  0  0  0  0  0  0  0  0  0
   35.0952  -11.8063   36.7741 C   0  0  0  0  0  0  0  0  0  0  0  0
   37.5949  -12.8430   36.3844 C   0  0  0  0  0  0  0  0  0  0  0  0
   36.5039  -13.8768   36.6718 C   0  0  0  0  0  0  0  0  0  0  0  0
   36.9153  -14.8210   37.7247 C   0  0  0  0  0  0  0  0  0  0  0  0
   37.6085  -14.3880   38.7274 O   0  0  0  0  0  0  0  0  0  0  0  0
   36.6008  -16.1729   37.7114 N   0  0  0  0  0  0  0  0  0  0  0  0
   36.9858  -16.7324   38.5583 H   0  0  0  0  0  0  0  0  0  0  0  0
   35.8217  -16.8695   36.7658 C   0  0  0  0  0  0  0  0  0  0  0  0
   34.5331  -16.7465   36.4876 N   0  0  0  0  0  0  0  0  0  0  0  0
   34.2040  -17.5986   35.5244 C   0  0  0  0  0  0  0  0  0  0  0  0
   32.9971  -17.8463   34.8974 C   0  0  0  0  0  0  0  0  0  0  0  0
   32.9412  -18.8103   33.9067 C   0  0  0  0  0  0  0  0  0  0  0  0
   34.0772  -19.5066   33.5584 C   0  0  0  0  0  0  0  0  0  0  0  0
   35.2596  -19.2380   34.1989 C   0  0  0  0  0  0  0  0  0  0  0  0
   35.3567  -18.2789   35.1976 C   0  0  0  0  0  0  0  0  0  0  0  0
   36.3565  -17.8405   35.9525 N   0  0  0  0  0  0  0  0  0  0  0  0
   37.3413  -18.1725   35.9247 H   0  0  0  0  0  0  0  0  0  0  0  0
   31.7926  -11.0710   38.2192 O   0  0  0  0  0  0  0  0  0  0  0  0
   30.6669  -10.9587   37.4089 C   0  0  0  0  0  0  0  0  0  0  0  0
   29.5044  -11.6261   38.0430 C   0  0  0  0  0  0  0  0  0  0  0  0
   28.2487  -11.1407   37.7914 C   0  0  0  0  0  0  0  0  0  0  0  0
   27.1438  -11.7210   38.3522 C   0  0  0  0  0  0  0  0  0  0  0  0
   27.2920  -12.8090   39.1821 C   0  0  0  0  0  0  0  0  0  0  0  0
   26.2307  -13.4176   39.7604 F   0  0  0  0  0  0  0  0  0  0  0  0
   28.5657  -13.3213   39.4528 C   0  0  0  0  0  0  0  0  0  0  0  0
   29.6499  -12.7083   38.8686 C   0  0  0  0  0  0  0  0  0  0  0  0
   28.6923  -14.4696   40.3317 C   0  0  0  0  0  0  0  0  0  0  0  0
   29.1969  -15.6552   39.8489 O   0  0  0  0  0  0  0  0  0  0  0  0
   28.3409  -14.3736   41.5253 O   0  0  0  0  0  0  0  0  0  0  0  0
   29.0485  -16.5085   40.3588 H   0  0  0  0  0  0  0  0  0  0  0  0
  7  8  1  0  0  0
  8  1  1  0  0  0
  1  2  2  0  0  0
  2  3  1  0  0  0
  3  4  2  0  0  0
  4 23  1  0  0  0
 23 24  1  0  0  0
 24 25  1  0  0  0
 25 26  2  0  0  0
 26 27  1  0  0  0
 27 28  2  0  0  0
 28 29  1  0  0  0
 28 30  1  0  0  0
 30 31  2  0  0  0
 30 32  1  0  0  0
 32 33  1  0  0  0
 32 34  2  0  0  0
  4  5  1  0  0  0
  5  6  2  0  0  0
  8  9  1  0  0  0
  9 10  2  0  0  0
  9 11  1  0  0  0
 11 13  1  0  0  0
 13 14  2  0  0  0
 14 15  1  0  0  0
 15 16  2  0  0  0
 16 17  1  0  0  0
 17 18  2  0  0  0
 18 19  1  0  0  0
 19 20  2  0  0  0
 20 21  1  0  0  0
  6  1  1  0  0  0
 21 13  1  0  0  0
 31 25  1  0  0  0
 20 15  1  0  0  0
 33 35  1  0  0  0
 11 12  1  0  0  0
 21 22  1  0  0  0
M  END
> <minimizedAffinity>
-7.71763

> <CNNscore>
0.1887188256

> <CNNaffinity>
5.7769746780

> <CNN_VS>
1.0902239084

> <CNNaffinity_variance>
0.1520802677

$$$$
[H]OC(=O)c1c([H])c(C([H])([H])Oc2c([H])c([H])c(C([H])(C(=O)N([H])c3nc4c([H])c([H])c([H])c([H])c4n3[H])C([H])([H])[H])c([H])c2[H])c([H])c([H])c1F


 35 38  0  0  0  0  0  0  0  0999 V2000
   36.4324  -18.7285   36.8575 C   0  0  0  0  0  0  0  0  0  0  0  0
   35.7348  -19.3542   37.8664 C   0  0  0  0  0  0  0  0  0  0  0  0
   36.3138  -20.3346   38.6701 C   0  0  0  0  0  0  0  0  0  0  0  0
   37.6350  -20.7000   38.4559 C   0  0  0  0  0  0  0  0  0  0  0  0
   38.3320  -20.0728   37.4457 C   0  0  0  0  0  0  0  0  0  0  0  0
   37.7432  -19.0990   36.6539 C   0  0  0  0  0  0  0  0  0  0  0  0
   36.4250  -16.3237   36.3514 C   0  0  0  0  0  0  0  0  0  0  0  0
   35.7905  -17.6708   35.9991 C   0  0  0  0  0  0  0  0  0  0  0  0
   35.9586  -17.9928   34.5716 C   0  0  0  0  0  0  0  0  0  0  0  0
   37.0520  -17.6514   33.9704 O   0  0  0  0  0  0  0  0  0  0  0  0
   35.0010  -18.6528   33.8140 N   0  0  0  0  0  0  0  0  0  0  0  0
   35.2772  -18.8067   32.7754 H   0  0  0  0  0  0  0  0  0  0  0  0
   33.7620  -19.1675   34.2453 C   0  0  0  0  0  0  0  0  0  0  0  0
   32.5657  -18.6005   34.2246 N   0  0  0  0  0  0  0  0  0  0  0  0
   31.6683  -19.4394   34.7275 C   0  0  0  0  0  0  0  0  0  0  0  0
   30.3049  -19.3124   34.9169 C   0  0  0  0  0  0  0  0  0  0  0  0
   29.6037  -20.3670   35.4736 C   0  0  0  0  0  0  0  0  0  0  0  0
   30.2645  -21.5215   35.8301 C   0  0  0  0  0  0  0  0  0  0  0  0
   31.6177  -21.6171   35.6298 C   0  0  0  0  0  0  0  0  0  0  0  0
   32.3565  -20.5817   35.0742 C   0  0  0  0  0  0  0  0  0  0  0  0
   33.6423  -20.4272   34.7832 N   0  0  0  0  0  0  0  0  0  0  0  0
   34.3970  -21.1257   34.9360 H   0  0  0  0  0  0  0  0  0  0  0  0
   38.2334  -21.6703   39.2395 O   0  0  0  0  0  0  0  0  0  0  0  0
   39.5943  -21.9576   39.1971 C   0  0  0  0  0  0  0  0  0  0  0  0
   40.3469  -21.0277   40.0734 C   0  0  0  0  0  0  0  0  0  0  0  0
   39.9119  -20.8364   41.3579 C   0  0  0  0  0  0  0  0  0  0  0  0
   40.5714  -19.9889   42.2059 C   0  0  0  0  0  0  0  0  0  0  0  0
   41.6889  -19.3168   41.7655 C   0  0  0  0  0  0  0  0  0  0  0  0
   42.3752  -18.4684   42.5658 F   0  0  0  0  0  0  0  0  0  0  0  0
   42.1506  -19.4975   40.4571 C   0  0  0  0  0  0  0  0  0  0  0  0
   41.4585  -20.3585   39.6372 C   0  0  0  0  0  0  0  0  0  0  0  0
   43.3317  -18.7758   40.0195 C   0  0  0  0  0  0  0  0  0  0  0  0
   43.2007  -17.5959   39.3240 O   0  0  0  0  0  0  0  0  0  0  0  0
   44.4639  -19.2326   40.2783 O   0  0  0  0  0  0  0  0  0  0  0  0
   43.9781  -17.2328   38.8006 H   0  0  0  0  0  0  0  0  0  0  0  0
  7  8  1  0  0  0
  8  1  1  0  0  0
  1  2  2  0  0  0
  2  3  1  0  0  0
  3  4  2  0  0  0
  4 23  1  0  0  0
 23 24  1  0  0  0
 24 25  1  0  0  0
 25 26  2  0  0  0
 26 27  1  0  0  0
 27 28  2  0  0  0
 28 29  1  0  0  0
 28 30  1  0  0  0
 30 31  2  0  0  0
 30 32  1  0  0  0
 32 33  1  0  0  0
 32 34  2  0  0  0
  4  5  1  0  0  0
  5  6  2  0  0  0
  8  9  1  0  0  0
  9 10  2  0  0  0
  9 11  1  0  0  0
 11 13  1  0  0  0
 13 14  2  0  0  0
 14 15  1  0  0  0
 15 16  2  0  0  0
 16 17  1  0  0  0
 17 18  2  0  0  0
 18 19  1  0  0  0
 19 20  2  0  0  0
 20 21  1  0  0  0
  6  1  1  0  0  0
 21 13  1  0  0  0
 31 25  1  0  0  0
 20 15  1  0  0  0
 33 35  1  0  0  0
 11 12  1  0  0  0
 21 22  1  0  0  0
M  END
> <minimizedAffinity>
-7.37021

> <CNNscore>
0.1815581918

> <CNNaffinity>
4.8893795013

> <CNN_VS>
0.8877068758

> <CNNaffinity_variance>
0.2928158045

$$$$
[H]OC(=O)c1c([H])c(C([H])([H])Oc2c([H])c([H])c(C([H])(C(=O)N([H])c3nc4c([H])c([H])c([H])c([H])c4n3[H])C([H])([H])[H])c([H])c2[H])c([H])c([H])c1F


 35 38  0  0  0  0  0  0  0  0999 V2000
   35.7607  -16.6712   36.3728 C   0  0  0  0  0  0  0  0  0  0  0  0
   34.5842  -16.1183   35.9189 C   0  0  0  0  0  0  0  0  0  0  0  0
   34.1539  -14.8561   36.3239 C   0  0  0  0  0  0  0  0  0  0  0  0
   34.9277  -14.1239   37.2128 C   0  0  0  0  0  0  0  0  0  0  0  0
   36.1051  -14.6787   37.6663 C   0  0  0  0  0  0  0  0  0  0  0  0
   36.5209  -15.9355   37.2548 C   0  0  0  0  0  0  0  0  0  0  0  0
   35.2294  -19.0679   36.4860 C   0  0  0  0  0  0  0  0  0  0  0  0
   36.2102  -18.0366   35.9241 C   0  0  0  0  0  0  0  0  0  0  0  0
   36.2804  -18.0994   34.4542 C   0  0  0  0  0  0  0  0  0  0  0  0
   37.3605  -17.7146   33.8552 O   0  0  0  0  0  0  0  0  0  0  0  0
   35.2421  -18.5546   33.6533 N   0  0  0  0  0  0  0  0  0  0  0  0
   35.4518  -18.5301   32.5884 H   0  0  0  0  0  0  0  0  0  0  0  0
   33.9964  -19.0703   34.0638 C   0  0  0  0  0  0  0  0  0  0  0  0
   32.8654  -18.4292   34.3148 N   0  0  0  0  0  0  0  0  0  0  0  0
   31.9316  -19.3013   34.6748 C   0  0  0  0  0  0  0  0  0  0  0  0
   30.6076  -19.1264   35.0315 C   0  0  0  0  0  0  0  0  0  0  0  0
   29.8510  -20.2349   35.3670 C   0  0  0  0  0  0  0  0  0  0  0  0
   30.4190  -21.4893   35.3426 C   0  0  0  0  0  0  0  0  0  0  0  0
   31.7351  -21.6303   34.9845 C   0  0  0  0  0  0  0  0  0  0  0  0
   32.5272  -20.5434   34.6413 C   0  0  0  0  0  0  0  0  0  0  0  0
   33.7943  -20.4149   34.2677 N   0  0  0  0  0  0  0  0  0  0  0  0
   34.4848  -21.1840   34.1555 H   0  0  0  0  0  0  0  0  0  0  0  0
   34.5233  -12.8688   37.6305 O   0  0  0  0  0  0  0  0  0  0  0  0
   33.4661  -12.1726   37.0524 C   0  0  0  0  0  0  0  0  0  0  0  0
   32.2566  -12.2672   37.9052 C   0  0  0  0  0  0  0  0  0  0  0  0
   32.2984  -13.0594   39.0215 C   0  0  0  0  0  0  0  0  0  0  0  0
   31.2091  -13.1801   39.8407 C   0  0  0  0  0  0  0  0  0  0  0  0
   30.0523  -12.4970   39.5421 C   0  0  0  0  0  0  0  0  0  0  0  0
   28.9489  -12.5837   40.3207 F   0  0  0  0  0  0  0  0  0  0  0  0
   29.9875  -11.6820   38.4065 C   0  0  0  0  0  0  0  0  0  0  0  0
   31.1051  -11.5883   37.6098 C   0  0  0  0  0  0  0  0  0  0  0  0
   28.7546  -10.9730   38.1160 C   0  0  0  0  0  0  0  0  0  0  0  0
   28.4614   -9.8010   38.7743 O   0  0  0  0  0  0  0  0  0  0  0  0
   27.9645  -11.4336   37.2667 O   0  0  0  0  0  0  0  0  0  0  0  0
   27.5199   -9.4491   38.7777 H   0  0  0  0  0  0  0  0  0  0  0  0
  7  8  1  0  0  0
  8  1  1  0  0  0
  1  2  2  0  0  0
  2  3  1  0  0  0
  3  4  2  0  0  0
  4 23  1  0  0  0
 23 24  1  0  0  0
 24 25  1  0  0  0
 25 26  2  0  0  0
 26 27  1  0  0  0
 27 28  2  0  0  0
 28 29  1  0  0  0
 28 30  1  0  0  0
 30 31  2  0  0  0
 30 32  1  0  0  0
 32 33  1  0  0  0
 32 34  2  0  0  0
  4  5  1  0  0  0
  5  6  2  0  0  0
  8  9  1  0  0  0
  9 10  2  0  0  0
  9 11  1  0  0  0
 11 13  1  0  0  0
 13 14  2  0  0  0
 14 15  1  0  0  0
 15 16  2  0  0  0
 16 17  1  0  0  0
 17 18  2  0  0  0
 18 19  1  0  0  0
 19 20  2  0  0  0
 20 21  1  0  0  0
  6  1  1  0  0  0
 21 13  1  0  0  0
 31 25  1  0  0  0
 20 15  1  0  0  0
 33 35  1  0  0  0
 11 12  1  0  0  0
 21 22  1  0  0  0
M  END
> <minimizedAffinity>
-9.53282

> <CNNscore>
0.1677160561

> <CNNaffinity>
5.7625055313

> <CNN_VS>
0.9664646983

> <CNNaffinity_variance>
0.2070109397

$$$$
[H]OC(=O)c1c([H])c(C([H])([H])Oc2c([H])c([H])c(C([H])(C(=O)N([H])c3nc4c([H])c([H])c([H])c([H])c4n3[H])C([H])([H])[H])c([H])c2[H])c([H])c([H])c1F


 35 38  0  0  0  0  0  0  0  0999 V2000
   32.2094  -11.0637   37.9801 C   0  0  0  0  0  0  0  0  0  0  0  0
   33.3541  -10.5410   37.4213 C   0  0  0  0  0  0  0  0  0  0  0  0
   34.4850  -11.3202   37.1834 C   0  0  0  0  0  0  0  0  0  0  0  0
   34.4682  -12.6670   37.5163 C   0  0  0  0  0  0  0  0  0  0  0  0
   33.3216  -13.1887   38.0756 C   0  0  0  0  0  0  0  0  0  0  0  0
   32.2039  -12.4017   38.3065 C   0  0  0  0  0  0  0  0  0  0  0  0
   31.2434   -8.8373   37.5930 C   0  0  0  0  0  0  0  0  0  0  0  0
   30.9965  -10.2067   38.2296 C   0  0  0  0  0  0  0  0  0  0  0  0
   29.7893  -10.8494   37.6828 C   0  0  0  0  0  0  0  0  0  0  0  0
   29.8855  -11.5695   36.6124 O   0  0  0  0  0  0  0  0  0  0  0  0
   28.5294  -10.7309   38.2529 N   0  0  0  0  0  0  0  0  0  0  0  0
   27.7442  -11.2606   37.7224 H   0  0  0  0  0  0  0  0  0  0  0  0
   28.1769  -10.0513   39.4363 C   0  0  0  0  0  0  0  0  0  0  0  0
   27.4246   -8.9728   39.5911 N   0  0  0  0  0  0  0  0  0  0  0  0
   27.3489   -8.6661   40.8804 C   0  0  0  0  0  0  0  0  0  0  0  0
   26.6922   -7.6433   41.5388 C   0  0  0  0  0  0  0  0  0  0  0  0
   26.7874   -7.5622   42.9165 C   0  0  0  0  0  0  0  0  0  0  0  0
   27.5281   -8.4922   43.6116 C   0  0  0  0  0  0  0  0  0  0  0  0
   28.1682   -9.4952   42.9299 C   0  0  0  0  0  0  0  0  0  0  0  0
   28.0972   -9.6107   41.5486 C   0  0  0  0  0  0  0  0  0  0  0  0
   28.6105  -10.4664   40.6732 N   0  0  0  0  0  0  0  0  0  0  0  0
   29.2167  -11.2822   40.8917 H   0  0  0  0  0  0  0  0  0  0  0  0
   35.5773  -13.4622   37.2906 O   0  0  0  0  0  0  0  0  0  0  0  0
   35.8012  -14.1443   36.0986 C   0  0  0  0  0  0  0  0  0  0  0  0
   35.4864  -15.5844   36.2596 C   0  0  0  0  0  0  0  0  0  0  0  0
   36.3126  -16.3566   37.0320 C   0  0  0  0  0  0  0  0  0  0  0  0
   36.0655  -17.6903   37.2118 C   0  0  0  0  0  0  0  0  0  0  0  0
   34.9714  -18.2684   36.6092 C   0  0  0  0  0  0  0  0  0  0  0  0
   34.6847  -19.5827   36.7565 F   0  0  0  0  0  0  0  0  0  0  0  0
   34.1141  -17.4981   35.8158 C   0  0  0  0  0  0  0  0  0  0  0  0
   34.3986  -16.1611   35.6611 C   0  0  0  0  0  0  0  0  0  0  0  0
   32.9677  -18.1341   35.1925 C   0  0  0  0  0  0  0  0  0  0  0  0
   31.7800  -18.2400   35.8789 O   0  0  0  0  0  0  0  0  0  0  0  0
   33.0675  -18.5830   34.0322 O   0  0  0  0  0  0  0  0  0  0  0  0
   31.0792  -18.8918   35.5718 H   0  0  0  0  0  0  0  0  0  0  0  0
  7  8  1  0  0  0
  8  1  1  0  0  0
  1  2  2  0  0  0
  2  3  1  0  0  0
  3  4  2  0  0  0
  4 23  1  0  0  0
 23 24  1  0  0  0
 24 25  1  0  0  0
 25 26  2  0  0  0
 26 27  1  0  0  0
 27 28  2  0  0  0
 28 29  1  0  0  0
 28 30  1  0  0  0
 30 31  2  0  0  0
 30 32  1  0  0  0
 32 33  1  0  0  0
 32 34  2  0  0  0
  4  5  1  0  0  0
  5  6  2  0  0  0
  8  9  1  0  0  0
  9 10  2  0  0  0
  9 11  1  0  0  0
 11 13  1  0  0  0
 13 14  2  0  0  0
 14 15  1  0  0  0
 15 16  2  0  0  0
 16 17  1  0  0  0
 17 18  2  0  0  0
 18 19  1  0  0  0
 19 20  2  0  0  0
 20 21  1  0  0  0
  6  1  1  0  0  0
 21 13  1  0  0  0
 31 25  1  0  0  0
 20 15  1  0  0  0
 33 35  1  0  0  0
 11 12  1  0  0  0
 21 22  1  0  0  0
M  END
> <minimizedAffinity>
-8.26059

> <CNNscore>
0.1572408229

> <CNNaffinity>
5.9791941643

> <CNN_VS>
0.9401733875

> <CNNaffinity_variance>
0.2753271163

$$$$
[H]OC(=O)c1c([H])c(C([H])([H])Oc2c([H])c([H])c(C([H])(C(=O)N([H])c3nc4c([H])c([H])c([H])c([H])c4n3[H])C([H])([H])[H])c([H])c2[H])c([H])c([H])c1F


 35 38  0  0  0  0  0  0  0  0999 V2000
   35.3231  -14.7755   36.6257 C   0  0  0  0  0  0  0  0  0  0  0  0
   36.4041  -15.4781   36.1424 C   0  0  0  0  0  0  0  0  0  0  0  0
   36.2555  -16.6481   35.3998 C   0  0  0  0  0  0  0  0  0  0  0  0
   34.9821  -17.1299   35.1329 C   0  0  0  0  0  0  0  0  0  0  0  0
   33.9010  -16.4256   35.6174 C   0  0  0  0  0  0  0  0  0  0  0  0
   34.0637  -15.2629   36.3546 C   0  0  0  0  0  0  0  0  0  0  0  0
   36.9601  -13.4460   37.8874 C   0  0  0  0  0  0  0  0  0  0  0  0
   35.5026  -13.5127   37.4261 C   0  0  0  0  0  0  0  0  0  0  0  0
   35.1339  -12.3352   36.6218 C   0  0  0  0  0  0  0  0  0  0  0  0
   35.9745  -11.8734   35.7536 O   0  0  0  0  0  0  0  0  0  0  0  0
   33.9181  -11.6754   36.7363 N   0  0  0  0  0  0  0  0  0  0  0  0
   33.8063  -10.8210   36.0760 H   0  0  0  0  0  0  0  0  0  0  0  0
   32.8275  -12.0109   37.5636 C   0  0  0  0  0  0  0  0  0  0  0  0
   32.8251  -12.5977   38.7505 N   0  0  0  0  0  0  0  0  0  0  0  0
   31.5755  -12.7248   39.1800 C   0  0  0  0  0  0  0  0  0  0  0  0
   31.0603  -13.2650   40.3435 C   0  0  0  0  0  0  0  0  0  0  0  0
   29.6900  -13.2656   40.5336 C   0  0  0  0  0  0  0  0  0  0  0  0
   28.8611  -12.7331   39.5713 C   0  0  0  0  0  0  0  0  0  0  0  0
   29.4025  -12.2046   38.4277 C   0  0  0  0  0  0  0  0  0  0  0  0
   30.7715  -12.1853   38.1997 C   0  0  0  0  0  0  0  0  0  0  0  0
   31.5280  -11.7438   37.2025 N   0  0  0  0  0  0  0  0  0  0  0  0
   31.1933  -11.2891   36.3295 H   0  0  0  0  0  0  0  0  0  0  0  0
   34.8071  -18.2889   34.3983 O   0  0  0  0  0  0  0  0  0  0  0  0
   35.7439  -19.3169   34.3543 C   0  0  0  0  0  0  0  0  0  0  0  0
   36.1030  -19.7488   35.7267 C   0  0  0  0  0  0  0  0  0  0  0  0
   37.4276  -19.8575   36.0573 C   0  0  0  0  0  0  0  0  0  0  0  0
   37.8107  -20.2519   37.3102 C   0  0  0  0  0  0  0  0  0  0  0  0
   36.8540  -20.5447   38.2553 C   0  0  0  0  0  0  0  0  0  0  0  0
   37.1823  -20.9388   39.5076 F   0  0  0  0  0  0  0  0  0  0  0  0
   35.4950  -20.4404   37.9390 C   0  0  0  0  0  0  0  0  0  0  0  0
   35.1528  -20.0403   36.6680 C   0  0  0  0  0  0  0  0  0  0  0  0
   34.5076  -20.7554   38.9554 C   0  0  0  0  0  0  0  0  0  0  0  0
   34.4661  -20.0312   40.1245 O   0  0  0  0  0  0  0  0  0  0  0  0
   33.6988  -21.6859   38.7612 O   0  0  0  0  0  0  0  0  0  0  0  0
   33.9780  -20.3958   40.9239 H   0  0  0  0  0  0  0  0  0  0  0  0
  7  8  1  0  0  0
  8  1  1  0  0  0
  1  2  2  0  0  0
  2  3  1  0  0  0
  3  4  2  0  0  0
  4 23  1  0  0  0
 23 24  1  0  0  0
 24 25  1  0  0  0
 25 26  2  0  0  0
 26 27  1  0  0  0
 27 28  2  0  0  0
 28 29  1  0  0  0
 28 30  1  0  0  0
 30 31  2  0  0  0
 30 32  1  0  0  0
 32 33  1  0  0  0
 32 34  2  0  0  0
  4  5  1  0  0  0
  5  6  2  0  0  0
  8  9  1  0  0  0
  9 10  2  0  0  0
  9 11  1  0  0  0
 11 13  1  0  0  0
 13 14  2  0  0  0
 14 15  1  0  0  0
 15 16  2  0  0  0
 16 17  1  0  0  0
 17 18  2  0  0  0
 18 19  1  0  0  0
 19 20  2  0  0  0
 20 21  1  0  0  0
  6  1  1  0  0  0
 21 13  1  0  0  0
 31 25  1  0  0  0
 20 15  1  0  0  0
 33 35  1  0  0  0
 11 12  1  0  0  0
 21 22  1  0  0  0
M  END
> <minimizedAffinity>
-7.96406

> <CNNscore>
0.1211899817

> <CNNaffinity>
5.7126822472

> <CNN_VS>
0.6923198700

> <CNNaffinity_variance>
0.2352367640

$$$$
[H]OC(=O)c1c([H])c(C([H])([H])Oc2c([H])c([H])c(C([H])(C(=O)N([H])c3nc4c([H])c([H])c([H])c([H])c4n3[H])C([H])([H])[H])c([H])c2[H])c([H])c([H])c1F


 35 38  0  0  0  0  0  0  0  0999 V2000
   35.4567  -17.3328   35.9979 C   0  0  0  0  0  0  0  0  0  0  0  0
   34.1770  -16.8817   35.7643 C   0  0  0  0  0  0  0  0  0  0  0  0
   33.8437  -15.5301   35.8326 C   0  0  0  0  0  0  0  0  0  0  0  0
   34.8248  -14.6002   36.1453 C   0  0  0  0  0  0  0  0  0  0  0  0
   36.1053  -15.0533   36.3790 C   0  0  0  0  0  0  0  0  0  0  0  0
   36.4226  -16.4010   36.3074 C   0  0  0  0  0  0  0  0  0  0  0  0
   34.7108  -19.5793   36.6583 C   0  0  0  0  0  0  0  0  0  0  0  0
   35.7988  -18.7972   35.9193 C   0  0  0  0  0  0  0  0  0  0  0  0
   35.9152  -19.2252   34.5148 C   0  0  0  0  0  0  0  0  0  0  0  0
   37.0591  -19.1322   33.9177 O   0  0  0  0  0  0  0  0  0  0  0  0
   34.8562  -19.7329   33.7750 N   0  0  0  0  0  0  0  0  0  0  0  0
   35.1073  -19.9948   32.7518 H   0  0  0  0  0  0  0  0  0  0  0  0
   33.5379  -19.9778   34.2090 C   0  0  0  0  0  0  0  0  0  0  0  0
   32.5118  -19.1444   34.2844 N   0  0  0  0  0  0  0  0  0  0  0  0
   31.4489  -19.7903   34.7482 C   0  0  0  0  0  0  0  0  0  0  0  0
   30.1590  -19.3625   35.0015 C   0  0  0  0  0  0  0  0  0  0  0  0
   29.2360  -20.2684   35.4926 C   0  0  0  0  0  0  0  0  0  0  0  0
   29.6077  -21.5745   35.7220 C   0  0  0  0  0  0  0  0  0  0  0  0
   30.8950  -21.9684   35.4609 C   0  0  0  0  0  0  0  0  0  0  0  0
   31.8500  -21.0901   34.9679 C   0  0  0  0  0  0  0  0  0  0  0  0
   33.1300  -21.2178   34.6408 N   0  0  0  0  0  0  0  0  0  0  0  0
   33.6983  -22.0861   34.7029 H   0  0  0  0  0  0  0  0  0  0  0  0
   34.5203  -13.2530   36.2196 O   0  0  0  0  0  0  0  0  0  0  0  0
   34.7789  -12.4696   37.3403 C   0  0  0  0  0  0  0  0  0  0  0  0
   34.2578  -11.0954   37.1423 C   0  0  0  0  0  0  0  0  0  0  0  0
   33.1182  -10.7219   37.8037 C   0  0  0  0  0  0  0  0  0  0  0  0
   32.5971   -9.4655   37.6546 C   0  0  0  0  0  0  0  0  0  0  0  0
   33.2245   -8.5607   36.8288 C   0  0  0  0  0  0  0  0  0  0  0  0
   32.7485   -7.3068   36.6486 F   0  0  0  0  0  0  0  0  0  0  0  0
   34.3900   -8.9212   36.1435 C   0  0  0  0  0  0  0  0  0  0  0  0
   34.8805  -10.1941   36.3214 C   0  0  0  0  0  0  0  0  0  0  0  0
   35.0306   -7.9467   35.2793 C   0  0  0  0  0  0  0  0  0  0  0  0
   36.1896   -7.3241   35.6821 O   0  0  0  0  0  0  0  0  0  0  0  0
   34.5234   -7.6784   34.1709 O   0  0  0  0  0  0  0  0  0  0  0  0
   36.4911   -6.4808   35.2259 H   0  0  0  0  0  0  0  0  0  0  0  0
  7  8  1  0  0  0
  8  1  1  0  0  0
  1  2  2  0  0  0
  2  3  1  0  0  0
  3  4  2  0  0  0
  4 23  1  0  0  0
 23 24  1  0  0  0
 24 25  1  0  0  0
 25 26  2  0  0  0
 26 27  1  0  0  0
 27 28  2  0  0  0
 28 29  1  0  0  0
 28 30  1  0  0  0
 30 31  2  0  0  0
 30 32  1  0  0  0
 32 33  1  0  0  0
 32 34  2  0  0  0
  4  5  1  0  0  0
  5  6  2  0  0  0
  8  9  1  0  0  0
  9 10  2  0  0  0
  9 11  1  0  0  0
 11 13  1  0  0  0
 13 14  2  0  0  0
 14 15  1  0  0  0
 15 16  2  0  0  0
 16 17  1  0  0  0
 17 18  2  0  0  0
 18 19  1  0  0  0
 19 20  2  0  0  0
 20 21  1  0  0  0
  6  1  1  0  0  0
 21 13  1  0  0  0
 31 25  1  0  0  0
 20 15  1  0  0  0
 33 35  1  0  0  0
 11 12  1  0  0  0
 21 22  1  0  0  0
M  END
> <minimizedAffinity>
-9.24268

> <CNNscore>
0.1087112054

> <CNNaffinity>
5.5258779526

> <CNN_VS>
0.6007248759

> <CNNaffinity_variance>
0.2874544263

$$$$
[H]OS(=O)(=O)c1c([H])c(-c2c([H])c([H])c([H])c(C([H])([H])C([H])(C([H])([H])[H])C([H])([H])[H])c2[H])c([H])c([H])c1OC([H])([H])[H]


 23 24  0  0  0  0  0  0  0  0999 V2000
   35.8822  -14.6225   36.8901 C   0  0  0  0  0  0  0  0  0  0  0  0
   36.6197  -15.7495   36.5922 C   0  0  0  0  0  0  0  0  0  0  0  0
   35.9998  -16.8360   35.9982 C   0  0  0  0  0  0  0  0  0  0  0  0
   34.6486  -16.7795   35.7101 C   0  0  0  0  0  0  0  0  0  0  0  0
   33.9175  -15.6254   36.0208 C   0  0  0  0  0  0  0  0  0  0  0  0
   34.5354  -14.5405   36.6138 C   0  0  0  0  0  0  0  0  0  0  0  0
   33.9667  -17.8928   35.0905 C   0  0  0  0  0  0  0  0  0  0  0  0
   34.6011  -18.7018   34.1778 C   0  0  0  0  0  0  0  0  0  0  0  0
   33.9468  -19.7759   33.5796 C   0  0  0  0  0  0  0  0  0  0  0  0
   32.6296  -20.0036   33.9359 C   0  0  0  0  0  0  0  0  0  0  0  0
   31.9538  -19.2007   34.8605 C   0  0  0  0  0  0  0  0  0  0  0  0
   32.6634  -18.1483   35.4187 C   0  0  0  0  0  0  0  0  0  0  0  0
   30.5551  -19.4988   35.1938 C   0  0  0  0  0  0  0  0  0  0  0  0
   30.3280  -20.9705   35.4878 C   0  0  0  0  0  0  0  0  0  0  0  0
   31.2033  -21.3259   36.6702 C   0  0  0  0  0  0  0  0  0  0  0  0
   28.8851  -21.1477   35.9146 C   0  0  0  0  0  0  0  0  0  0  0  0
   33.6927  -13.0712   37.0302 S   0  0  0  0  0  0  0  0  0  0  0  0
   34.6458  -11.7640   36.5072 O   0  0  0  0  0  0  0  0  0  0  0  0
   32.4112  -12.9984   36.2268 O   0  0  0  0  0  0  0  0  0  0  0  0
   33.4094  -12.9572   38.4808 O   0  0  0  0  0  0  0  0  0  0  0  0
   34.7684  -11.7854   35.5455 H   0  0  0  0  0  0  0  0  0  0  0  0
   37.9042  -13.5326   37.5936 C   0  0  0  0  0  0  0  0  0  0  0  0
   36.4968  -13.5365   37.4827 O   0  0  0  0  0  0  0  0  0  0  0  0
 22 23  1  0  0  0
 23  1  1  0  0  0
  1  2  2  0  0  0
  2  3  1  0  0  0
  3  4  2  0  0  0
  4  5  1  0  0  0
  5  6  2  0  0  0
  6 17  1  0  0  0
 17 18  1  0  0  0
 17 19  2  0  0  0
 17 20  2  0  0  0
  4  7  1  0  0  0
  7  8  2  0  0  0
  8  9  1  0  0  0
  9 10  2  0  0  0
 10 11  1  0  0  0
 11 13  1  0  0  0
 13 14  1  0  0  0
 14 15  1  0  0  0
 14 16  1  0  0  0
 11 12  2  0  0  0
  6  1  1  0  0  0
 12  7  1  0  0  0
 18 21  1  0  0  0
M  END
> <minimizedAffinity>
-7.64733

> <CNNscore>
0.6835391521

> <CNNaffinity>
4.9643325806

> <CNN_VS>
3.3933157921

> <CNNaffinity_variance>
0.2804990411

$$$$
[H]OS(=O)(=O)c1c([H])c(-c2c([H])c([H])c([H])c(C([H])([H])C([H])(C([H])([H])[H])C([H])([H])[H])c2[H])c([H])c([H])c1OC([H])([H])[H]


 23 24  0  0  0  0  0  0  0  0999 V2000
   32.3962  -10.4979   37.6125 C   0  0  0  0  0  0  0  0  0  0  0  0
   33.7353  -10.4522   37.2844 C   0  0  0  0  0  0  0  0  0  0  0  0
   34.4368  -11.6326   37.1049 C   0  0  0  0  0  0  0  0  0  0  0  0
   33.7877  -12.8440   37.2565 C   0  0  0  0  0  0  0  0  0  0  0  0
   32.4272  -12.8686   37.5900 C   0  0  0  0  0  0  0  0  0  0  0  0
   31.7261  -11.6910   37.7694 C   0  0  0  0  0  0  0  0  0  0  0  0
   34.4859  -14.0965   37.0772 C   0  0  0  0  0  0  0  0  0  0  0  0
   35.6749  -14.3507   37.7187 C   0  0  0  0  0  0  0  0  0  0  0  0
   36.3496  -15.5572   37.5486 C   0  0  0  0  0  0  0  0  0  0  0  0
   35.7808  -16.4971   36.7079 C   0  0  0  0  0  0  0  0  0  0  0  0
   34.5730  -16.2716   36.0397 C   0  0  0  0  0  0  0  0  0  0  0  0
   33.9531  -15.0498   36.2532 C   0  0  0  0  0  0  0  0  0  0  0  0
   34.0247  -17.3131   35.1617 C   0  0  0  0  0  0  0  0  0  0  0  0
   34.7610  -18.6337   35.2954 C   0  0  0  0  0  0  0  0  0  0  0  0
   33.7180  -19.6967   35.5648 C   0  0  0  0  0  0  0  0  0  0  0  0
   35.4055  -18.9501   33.9611 C   0  0  0  0  0  0  0  0  0  0  0  0
   30.0330  -11.6412   38.1855 S   0  0  0  0  0  0  0  0  0  0  0  0
   29.8273  -10.4347   39.3657 O   0  0  0  0  0  0  0  0  0  0  0  0
   29.2462  -11.1785   36.9772 O   0  0  0  0  0  0  0  0  0  0  0  0
   29.5193  -12.9410   38.6794 O   0  0  0  0  0  0  0  0  0  0  0  0
   30.0847   -9.5649   39.0230 H   0  0  0  0  0  0  0  0  0  0  0  0
   31.9499   -8.2403   36.9233 C   0  0  0  0  0  0  0  0  0  0  0  0
   31.6928   -9.3228   37.7924 O   0  0  0  0  0  0  0  0  0  0  0  0
 22 23  1  0  0  0
 23  1  1  0  0  0
  1  2  2  0  0  0
  2  3  1  0  0  0
  3  4  2  0  0  0
  4  5  1  0  0  0
  5  6  2  0  0  0
  6 17  1  0  0  0
 17 18  1  0  0  0
 17 19  2  0  0  0
 17 20  2  0  0  0
  4  7  1  0  0  0
  7  8  2  0  0  0
  8  9  1  0  0  0
  9 10  2  0  0  0
 10 11  1  0  0  0
 11 13  1  0  0  0
 13 14  1  0  0  0
 14 15  1  0  0  0
 14 16  1  0  0  0
 11 12  2  0  0  0
  6  1  1  0  0  0
 12  7  1  0  0  0
 18 21  1  0  0  0
M  END
> <minimizedAffinity>
-7.37304

> <CNNscore>
0.5565884113

> <CNNaffinity>
5.2346963882

> <CNN_VS>
2.9135713577

> <CNNaffinity_variance>
0.3735933900

$$$$
[H]OS(=O)(=O)c1c([H])c(-c2c([H])c([H])c([H])c(C([H])([H])C([H])(C([H])([H])[H])C([H])([H])[H])c2[H])c([H])c([H])c1OC([H])([H])[H]


 23 24  0  0  0  0  0  0  0  0999 V2000
   30.7002  -20.6425   35.5707 C   0  0  0  0  0  0  0  0  0  0  0  0
   30.7370  -19.4848   34.8216 C   0  0  0  0  0  0  0  0  0  0  0  0
   31.9318  -18.7993   34.6792 C   0  0  0  0  0  0  0  0  0  0  0  0
   33.0746  -19.2825   35.2892 C   0  0  0  0  0  0  0  0  0  0  0  0
   33.0159  -20.4602   36.0458 C   0  0  0  0  0  0  0  0  0  0  0  0
   31.8238  -21.1451   36.1885 C   0  0  0  0  0  0  0  0  0  0  0  0
   34.3397  -18.5953   35.1635 C   0  0  0  0  0  0  0  0  0  0  0  0
   35.1678  -18.8125   34.0879 C   0  0  0  0  0  0  0  0  0  0  0  0
   36.3872  -18.1511   33.9636 C   0  0  0  0  0  0  0  0  0  0  0  0
   36.7400  -17.2630   34.9639 C   0  0  0  0  0  0  0  0  0  0  0  0
   35.9218  -17.0182   36.0716 C   0  0  0  0  0  0  0  0  0  0  0  0
   34.7216  -17.7096   36.1337 C   0  0  0  0  0  0  0  0  0  0  0  0
   36.3574  -16.0620   37.0974 C   0  0  0  0  0  0  0  0  0  0  0  0
   36.6510  -14.6875   36.5244 C   0  0  0  0  0  0  0  0  0  0  0  0
   35.3238  -13.9742   36.3828 C   0  0  0  0  0  0  0  0  0  0  0  0
   37.4781  -13.9224   37.5374 C   0  0  0  0  0  0  0  0  0  0  0  0
   31.6720  -22.6158   37.1139 S   0  0  0  0  0  0  0  0  0  0  0  0
   30.7327  -23.7028   36.2044 O   0  0  0  0  0  0  0  0  0  0  0  0
   33.0386  -23.2553   37.2430 O   0  0  0  0  0  0  0  0  0  0  0  0
   31.0658  -22.4000   38.4493 O   0  0  0  0  0  0  0  0  0  0  0  0
   31.1629  -23.9137   35.3614 H   0  0  0  0  0  0  0  0  0  0  0  0
   28.5197  -20.7950   36.5674 C   0  0  0  0  0  0  0  0  0  0  0  0
   29.5104  -21.3293   35.7152 O   0  0  0  0  0  0  0  0  0  0  0  0
 22 23  1  0  0  0
 23  1  1  0  0  0
  1  2  2  0  0  0
  2  3  1  0  0  0
  3  4  2  0  0  0
  4  5  1  0  0  0
  5  6  2  0  0  0
  6 17  1  0  0  0
 17 18  1  0  0  0
 17 19  2  0  0  0
 17 20  2  0  0  0
  4  7  1  0  0  0
  7  8  2  0  0  0
  8  9  1  0  0  0
  9 10  2  0  0  0
 10 11  1  0  0  0
 11 13  1  0  0  0
 13 14  1  0  0  0
 14 15  1  0  0  0
 14 16  1  0  0  0
 11 12  2  0  0  0
  6  1  1  0  0  0
 12  7  1  0  0  0
 18 21  1  0  0  0
M  END
> <minimizedAffinity>
-6.36691

> <CNNscore>
0.5465911627

> <CNNaffinity>
4.1794905663

> <CNN_VS>
2.2844727039

> <CNNaffinity_variance>
0.7110872269

$$$$
[H]OS(=O)(=O)c1c([H])c(-c2c([H])c([H])c([H])c(C([H])([H])C([H])(C([H])([H])[H])C([H])([H])[H])c2[H])c([H])c([H])c1OC([H])([H])[H]


 23 24  0  0  0  0  0  0  0  0999 V2000
   34.6040  -12.1387   36.7656 C   0  0  0  0  0  0  0  0  0  0  0  0
   35.7505  -12.6773   36.2193 C   0  0  0  0  0  0  0  0  0  0  0  0
   35.8340  -14.0442   36.0134 C   0  0  0  0  0  0  0  0  0  0  0  0
   34.7676  -14.8542   36.3576 C   0  0  0  0  0  0  0  0  0  0  0  0
   33.6121  -14.2873   36.9113 C   0  0  0  0  0  0  0  0  0  0  0  0
   33.5279  -12.9231   37.1171 C   0  0  0  0  0  0  0  0  0  0  0  0
   34.8172  -16.2846   36.1578 C   0  0  0  0  0  0  0  0  0  0  0  0
   35.7608  -17.0622   36.7861 C   0  0  0  0  0  0  0  0  0  0  0  0
   35.8105  -18.4411   36.5961 C   0  0  0  0  0  0  0  0  0  0  0  0
   34.8738  -19.0060   35.7494 C   0  0  0  0  0  0  0  0  0  0  0  0
   33.9002  -18.2450   35.0943 C   0  0  0  0  0  0  0  0  0  0  0  0
   33.9064  -16.8781   35.3273 C   0  0  0  0  0  0  0  0  0  0  0  0
   32.9353  -18.9092   34.2088 C   0  0  0  0  0  0  0  0  0  0  0  0
   32.0550  -19.9010   34.9472 C   0  0  0  0  0  0  0  0  0  0  0  0
   30.6203  -19.4815   34.7104 C   0  0  0  0  0  0  0  0  0  0  0  0
   32.2461  -21.2633   34.3122 C   0  0  0  0  0  0  0  0  0  0  0  0
   32.1247  -12.1452   37.8013 S   0  0  0  0  0  0  0  0  0  0  0  0
   32.5627  -10.5522   38.2030 O   0  0  0  0  0  0  0  0  0  0  0  0
   31.0611  -12.0258   36.7301 O   0  0  0  0  0  0  0  0  0  0  0  0
   31.5934  -12.8514   38.9915 O   0  0  0  0  0  0  0  0  0  0  0  0
   32.8345  -10.0567   37.4151 H   0  0  0  0  0  0  0  0  0  0  0  0
   35.1237   -9.9091   36.0379 C   0  0  0  0  0  0  0  0  0  0  0  0
   34.5168  -10.7758   36.9725 O   0  0  0  0  0  0  0  0  0  0  0  0
 22 23  1  0  0  0
 23  1  1  0  0  0
  1  2  2  0  0  0
  2  3  1  0  0  0
  3  4  2  0  0  0
  4  5  1  0  0  0
  5  6  2  0  0  0
  6 17  1  0  0  0
 17 18  1  0  0  0
 17 19  2  0  0  0
 17 20  2  0  0  0
  4  7  1  0  0  0
  7  8  2  0  0  0
  8  9  1  0  0  0
  9 10  2  0  0  0
 10 11  1  0  0  0
 11 13  1  0  0  0
 13 14  1  0  0  0
 14 15  1  0  0  0
 14 16  1  0  0  0
 11 12  2  0  0  0
  6  1  1  0  0  0
 12  7  1  0  0  0
 18 21  1  0  0  0
M  END
> <minimizedAffinity>
-7.12116

> <CNNscore>
0.5192961693

> <CNNaffinity>
5.2068724632

> <CNN_VS>
2.7039089203

> <CNNaffinity_variance>
0.2259853780

$$$$
[H]OS(=O)(=O)c1c([H])c(-c2c([H])c([H])c([H])c(C([H])([H])C([H])(C([H])([H])[H])C([H])([H])[H])c2[H])c([H])c([H])c1OC([H])([H])[H]


 23 24  0  0  0  0  0  0  0  0999 V2000
   33.8880  -19.5539   35.5776 C   0  0  0  0  0  0  0  0  0  0  0  0
   33.7047  -18.4738   34.7393 C   0  0  0  0  0  0  0  0  0  0  0  0
   34.2581  -17.2484   35.0705 C   0  0  0  0  0  0  0  0  0  0  0  0
   34.9884  -17.1206   36.2376 C   0  0  0  0  0  0  0  0  0  0  0  0
   35.1629  -18.2299   37.0755 C   0  0  0  0  0  0  0  0  0  0  0  0
   34.6108  -19.4534   36.7457 C   0  0  0  0  0  0  0  0  0  0  0  0
   35.5814  -15.8586   36.6169 C   0  0  0  0  0  0  0  0  0  0  0  0
   36.8309  -15.7981   37.1869 C   0  0  0  0  0  0  0  0  0  0  0  0
   37.4053  -14.5831   37.5528 C   0  0  0  0  0  0  0  0  0  0  0  0
   36.6731  -13.4323   37.3226 C   0  0  0  0  0  0  0  0  0  0  0  0
   35.3995  -13.4574   36.7449 C   0  0  0  0  0  0  0  0  0  0  0  0
   34.8863  -14.6996   36.4042 C   0  0  0  0  0  0  0  0  0  0  0  0
   34.6768  -12.1976   36.5282 C   0  0  0  0  0  0  0  0  0  0  0  0
   33.7049  -11.8838   37.6511 C   0  0  0  0  0  0  0  0  0  0  0  0
   33.5424  -10.3796   37.6884 C   0  0  0  0  0  0  0  0  0  0  0  0
   32.3605  -12.4824   37.2907 C   0  0  0  0  0  0  0  0  0  0  0  0
   34.7840  -20.8779   37.7372 S   0  0  0  0  0  0  0  0  0  0  0  0
   35.1222  -22.1864   36.7055 O   0  0  0  0  0  0  0  0  0  0  0  0
   36.0062  -20.7158   38.6165 O   0  0  0  0  0  0  0  0  0  0  0  0
   33.5823  -21.1628   38.5571 O   0  0  0  0  0  0  0  0  0  0  0  0
   35.9521  -22.0448   36.2243 H   0  0  0  0  0  0  0  0  0  0  0  0
   32.4048  -20.8398   34.1928 C   0  0  0  0  0  0  0  0  0  0  0  0
   33.3375  -20.7779   35.2509 O   0  0  0  0  0  0  0  0  0  0  0  0
 22 23  1  0  0  0
 23  1  1  0  0  0
  1  2  2  0  0  0
  2  3  1  0  0  0
  3  4  2  0  0  0
  4  5  1  0  0  0
  5  6  2  0  0  0
  6 17  1  0  0  0
 17 18  1  0  0  0
 17 19  2  0  0  0
 17 20  2  0  0  0
  4  7  1  0  0  0
  7  8  2  0  0  0
  8  9  1  0  0  0
  9 10  2  0  0  0
 10 11  1  0  0  0
 11 13  1  0  0  0
 13 14  1  0  0  0
 14 15  1  0  0  0
 14 16  1  0  0  0
 11 12  2  0  0  0
  6  1  1  0  0  0
 12  7  1  0  0  0
 18 21  1  0  0  0
M  END
> <minimizedAffinity>
-7.25149

> <CNNscore>
0.4604469836

> <CNNaffinity>
4.5503878593

> <CNN_VS>
2.0952124596

> <CNNaffinity_variance>
0.4505929947

$$$$
[H]OS(=O)(=O)c1c([H])c(-c2c([H])c([H])c([H])c(C([H])([H])C([H])(C([H])([H])[H])C([H])([H])[H])c2[H])c([H])c([H])c1OC([H])([H])[H]


 23 24  0  0  0  0  0  0  0  0999 V2000
   34.5197  -20.0810   37.0323 C   0  0  0  0  0  0  0  0  0  0  0  0
   35.1106  -19.3653   36.0117 C   0  0  0  0  0  0  0  0  0  0  0  0
   36.4870  -19.2145   35.9891 C   0  0  0  0  0  0  0  0  0  0  0  0
   37.2540  -19.7827   36.9894 C   0  0  0  0  0  0  0  0  0  0  0  0
   36.6343  -20.5058   38.0171 C   0  0  0  0  0  0  0  0  0  0  0  0
   35.2606  -20.6569   38.0405 C   0  0  0  0  0  0  0  0  0  0  0  0
   38.6927  -19.6472   36.9999 C   0  0  0  0  0  0  0  0  0  0  0  0
   39.3621  -19.0475   35.9596 C   0  0  0  0  0  0  0  0  0  0  0  0
   40.7486  -18.9148   35.9673 C   0  0  0  0  0  0  0  0  0  0  0  0
   41.4342  -19.4090   37.0624 C   0  0  0  0  0  0  0  0  0  0  0  0
   40.7851  -20.0245   38.1376 C   0  0  0  0  0  0  0  0  0  0  0  0
   39.4039  -20.1243   38.0667 C   0  0  0  0  0  0  0  0  0  0  0  0
   41.5743  -20.5270   39.2695 C   0  0  0  0  0  0  0  0  0  0  0  0
   41.8149  -19.4658   40.3277 C   0  0  0  0  0  0  0  0  0  0  0  0
   40.9663  -19.8345   41.5254 C   0  0  0  0  0  0  0  0  0  0  0  0
   43.2673  -19.5451   40.7517 C   0  0  0  0  0  0  0  0  0  0  0  0
   34.4180  -21.5413   39.2855 S   0  0  0  0  0  0  0  0  0  0  0  0
   33.2547  -22.5208   38.5250 O   0  0  0  0  0  0  0  0  0  0  0  0
   35.3897  -22.4923   39.9523 O   0  0  0  0  0  0  0  0  0  0  0  0
   33.7755  -20.6593   40.2889 O   0  0  0  0  0  0  0  0  0  0  0  0
   33.6739  -23.1580   37.9262 H   0  0  0  0  0  0  0  0  0  0  0  0
   32.4007  -19.8412   35.9263 C   0  0  0  0  0  0  0  0  0  0  0  0
   33.1471  -20.2338   37.0585 O   0  0  0  0  0  0  0  0  0  0  0  0
 22 23  1  0  0  0
 23  1  1  0  0  0
  1  2  2  0  0  0
  2  3  1  0  0  0
  3  4  2  0  0  0
  4  5  1  0  0  0
  5  6  2  0  0  0
  6 17  1  0  0  0
 17 18  1  0  0  0
 17 19  2  0  0  0
 17 20  2  0  0  0
  4  7  1  0  0  0
  7  8  2  0  0  0
  8  9  1  0  0  0
  9 10  2  0  0  0
 10 11  1  0  0  0
 11 13  1  0  0  0
 13 14  1  0  0  0
 14 15  1  0  0  0
 14 16  1  0  0  0
 11 12  2  0  0  0
  6  1  1  0  0  0
 12  7  1  0  0  0
 18 21  1  0  0  0
M  END
> <minimizedAffinity>
-4.31922

> <CNNscore>
0.4222941697

> <CNNaffinity>
4.0192322731

> <CNN_VS>
1.6972984076

> <CNNaffinity_variance>
0.2657241821

$$$$
[H]OS(=O)(=O)c1c([H])c(-c2c([H])c([H])c([H])c(C([H])([H])C([H])(C([H])([H])[H])C([H])([H])[H])c2[H])c([H])c([H])c1OC([H])([H])[H]


 23 24  0  0  0  0  0  0  0  0999 V2000
   32.1351  -19.4336   35.8955 C   0  0  0  0  0  0  0  0  0  0  0  0
   32.8935  -18.3119   35.6316 C   0  0  0  0  0  0  0  0  0  0  0  0
   34.2592  -18.3399   35.8589 C   0  0  0  0  0  0  0  0  0  0  0  0
   34.8479  -19.4915   36.3478 C   0  0  0  0  0  0  0  0  0  0  0  0
   34.0598  -20.6200   36.6094 C   0  0  0  0  0  0  0  0  0  0  0  0
   32.6966  -20.5930   36.3829 C   0  0  0  0  0  0  0  0  0  0  0  0
   36.2697  -19.5592   36.5974 C   0  0  0  0  0  0  0  0  0  0  0  0
   37.1403  -18.6643   36.0219 C   0  0  0  0  0  0  0  0  0  0  0  0
   38.5109  -18.7265   36.2613 C   0  0  0  0  0  0  0  0  0  0  0  0
   38.9705  -19.7243   37.1020 C   0  0  0  0  0  0  0  0  0  0  0  0
   38.1131  -20.6510   37.7040 C   0  0  0  0  0  0  0  0  0  0  0  0
   36.7603  -20.5328   37.4237 C   0  0  0  0  0  0  0  0  0  0  0  0
   38.6679  -21.6851   38.5868 C   0  0  0  0  0  0  0  0  0  0  0  0
   38.6085  -21.2926   40.0518 C   0  0  0  0  0  0  0  0  0  0  0  0
   38.1135  -22.5026   40.8144 C   0  0  0  0  0  0  0  0  0  0  0  0
   40.0202  -21.0014   40.5184 C   0  0  0  0  0  0  0  0  0  0  0  0
   31.6510  -21.9561   36.6845 S   0  0  0  0  0  0  0  0  0  0  0  0
   30.2469  -21.3708   37.4441 O   0  0  0  0  0  0  0  0  0  0  0  0
   31.1977  -22.5275   35.3575 O   0  0  0  0  0  0  0  0  0  0  0  0
   32.2903  -23.0039   37.5157 O   0  0  0  0  0  0  0  0  0  0  0  0
   29.7770  -20.7444   36.8722 H   0  0  0  0  0  0  0  0  0  0  0  0
   30.3077  -19.1995   34.3538 C   0  0  0  0  0  0  0  0  0  0  0  0
   30.7725  -19.4097   35.6702 O   0  0  0  0  0  0  0  0  0  0  0  0
 22 23  1  0  0  0
 23  1  1  0  0  0
  1  2  2  0  0  0
  2  3  1  0  0  0
  3  4  2  0  0  0
  4  5  1  0  0  0
  5  6  2  0  0  0
  6 17  1  0  0  0
 17 18  1  0  0  0
 17 19  2  0  0  0
 17 20  2  0  0  0
  4  7  1  0  0  0
  7  8  2  0  0  0
  8  9  1  0  0  0
  9 10  2  0  0  0
 10 11  1  0  0  0
 11 13  1  0  0  0
 13 14  1  0  0  0
 14 15  1  0  0  0
 14 16  1  0  0  0
 11 12  2  0  0  0
  6  1  1  0  0  0
 12  7  1  0  0  0
 18 21  1  0  0  0
M  END
> <minimizedAffinity>
-4.46958

> <CNNscore>
0.4164966941

> <CNNaffinity>
4.1279039383

> <CNN_VS>
1.7192583084

> <CNNaffinity_variance>
0.1688139141

$$$$
[H]OS(=O)(=O)c1c([H])c(-c2c([H])c([H])c([H])c(C([H])([H])C([H])(C([H])([H])[H])C([H])([H])[H])c2[H])c([H])c([H])c1OC([H])([H])[H]


 23 24  0  0  0  0  0  0  0  0999 V2000
   32.2323  -19.4069   35.8781 C   0  0  0  0  0  0  0  0  0  0  0  0
   32.9500  -18.2664   35.5828 C   0  0  0  0  0  0  0  0  0  0  0  0
   34.3256  -18.2626   35.7426 C   0  0  0  0  0  0  0  0  0  0  0  0
   34.9647  -19.4016   36.1964 C   0  0  0  0  0  0  0  0  0  0  0  0
   34.2174  -20.5496   36.4909 C   0  0  0  0  0  0  0  0  0  0  0  0
   32.8444  -20.5543   36.3316 C   0  0  0  0  0  0  0  0  0  0  0  0
   36.3982  -19.4362   36.3757 C   0  0  0  0  0  0  0  0  0  0  0  0
   37.1332  -18.2798   36.4872 C   0  0  0  0  0  0  0  0  0  0  0  0
   38.5148  -18.3100   36.6609 C   0  0  0  0  0  0  0  0  0  0  0  0
   39.1271  -19.5491   36.7177 C   0  0  0  0  0  0  0  0  0  0  0  0
   38.4102  -20.7451   36.6077 C   0  0  0  0  0  0  0  0  0  0  0  0
   37.0380  -20.6439   36.4365 C   0  0  0  0  0  0  0  0  0  0  0  0
   39.1234  -22.0268   36.6768 C   0  0  0  0  0  0  0  0  0  0  0  0
   38.4263  -23.1236   35.8927 C   0  0  0  0  0  0  0  0  0  0  0  0
   39.4174  -23.6345   34.8693 C   0  0  0  0  0  0  0  0  0  0  0  0
   38.1215  -24.2618   36.8452 C   0  0  0  0  0  0  0  0  0  0  0  0
   31.8475  -21.9431   36.6776 S   0  0  0  0  0  0  0  0  0  0  0  0
   30.4497  -21.3897   37.4719 O   0  0  0  0  0  0  0  0  0  0  0  0
   31.3726  -22.5417   35.3702 O   0  0  0  0  0  0  0  0  0  0  0  0
   32.5404  -22.9632   37.5003 O   0  0  0  0  0  0  0  0  0  0  0  0
   29.9458  -20.7832   36.9076 H   0  0  0  0  0  0  0  0  0  0  0  0
   30.3262  -19.2059   34.4299 C   0  0  0  0  0  0  0  0  0  0  0  0
   30.8601  -19.4148   35.7200 O   0  0  0  0  0  0  0  0  0  0  0  0
 22 23  1  0  0  0
 23  1  1  0  0  0
  1  2  2  0  0  0
  2  3  1  0  0  0
  3  4  2  0  0  0
  4  5  1  0  0  0
  5  6  2  0  0  0
  6 17  1  0  0  0
 17 18  1  0  0  0
 17 19  2  0  0  0
 17 20  2  0  0  0
  4  7  1  0  0  0
  7  8  2  0  0  0
  8  9  1  0  0  0
  9 10  2  0  0  0
 10 11  1  0  0  0
 11 13  1  0  0  0
 13 14  1  0  0  0
 14 15  1  0  0  0
 14 16  1  0  0  0
 11 12  2  0  0  0
  6  1  1  0  0  0
 12  7  1  0  0  0
 18 21  1  0  0  0
M  END
> <minimizedAffinity>
-4.11467

> <CNNscore>
0.3835854530

> <CNNaffinity>
4.1692414284

> <CNN_VS>
1.5992603302

> <CNNaffinity_variance>
0.2187850922

$$$$
[H]OS(=O)(=O)c1c([H])c(-c2c([H])c([H])c([H])c(C([H])([H])C([H])(C([H])([H])[H])C([H])([H])[H])c2[H])c([H])c([H])c1OC([H])([H])[H]


 23 24  0  0  0  0  0  0  0  0999 V2000
   32.2872  -19.3211   35.5557 C   0  0  0  0  0  0  0  0  0  0  0  0
   32.7775  -18.0831   35.1951 C   0  0  0  0  0  0  0  0  0  0  0  0
   34.1238  -17.9378   34.9055 C   0  0  0  0  0  0  0  0  0  0  0  0
   34.9621  -19.0348   34.9808 C   0  0  0  0  0  0  0  0  0  0  0  0
   34.4442  -20.2835   35.3490 C   0  0  0  0  0  0  0  0  0  0  0  0
   33.1005  -20.4295   35.6383 C   0  0  0  0  0  0  0  0  0  0  0  0
   36.3723  -18.9228   34.6859 C   0  0  0  0  0  0  0  0  0  0  0  0
   36.8284  -18.1201   33.6672 C   0  0  0  0  0  0  0  0  0  0  0  0
   38.1870  -18.0095   33.3812 C   0  0  0  0  0  0  0  0  0  0  0  0
   39.0678  -18.7381   34.1602 C   0  0  0  0  0  0  0  0  0  0  0  0
   38.6384  -19.5642   35.2039 C   0  0  0  0  0  0  0  0  0  0  0  0
   37.2729  -19.6289   35.4356 C   0  0  0  0  0  0  0  0  0  0  0  0
   39.6277  -20.3101   35.9921 C   0  0  0  0  0  0  0  0  0  0  0  0
   40.0545  -19.5663   37.2445 C   0  0  0  0  0  0  0  0  0  0  0  0
   40.1992  -20.5966   38.3436 C   0  0  0  0  0  0  0  0  0  0  0  0
   41.4234  -18.9678   36.9927 C   0  0  0  0  0  0  0  0  0  0  0  0
   32.3834  -21.9498   36.1038 S   0  0  0  0  0  0  0  0  0  0  0  0
   31.3246  -21.6455   37.3989 O   0  0  0  0  0  0  0  0  0  0  0  0
   31.5163  -22.4495   34.9673 O   0  0  0  0  0  0  0  0  0  0  0  0
   33.3875  -22.9713   36.4855 O   0  0  0  0  0  0  0  0  0  0  0  0
   30.6151  -21.0400   37.1336 H   0  0  0  0  0  0  0  0  0  0  0  0
   29.9975  -19.1434   34.8510 C   0  0  0  0  0  0  0  0  0  0  0  0
   30.9449  -19.4702   35.8454 O   0  0  0  0  0  0  0  0  0  0  0  0
 22 23  1  0  0  0
 23  1  1  0  0  0
  1  2  2  0  0  0
  2  3  1  0  0  0
  3  4  2  0  0  0
  4  5  1  0  0  0
  5  6  2  0  0  0
  6 17  1  0  0  0
 17 18  1  0  0  0
 17 19  2  0  0  0
 17 20  2  0  0  0
  4  7  1  0  0  0
  7  8  2  0  0  0
  8  9  1  0  0  0
  9 10  2  0  0  0
 10 11  1  0  0  0
 11 13  1  0  0  0
 13 14  1  0  0  0
 14 15  1  0  0  0
 14 16  1  0  0  0
 11 12  2  0  0  0
  6  1  1  0  0  0
 12  7  1  0  0  0
 18 21  1  0  0  0
M  END
> <minimizedAffinity>
-4.78382

> <CNNscore>
0.3461611867

> <CNNaffinity>
4.1306047440

> <CNN_VS>
1.4298549891

> <CNNaffinity_variance>
0.3841561675

$$$$
[H]O[C@@]1(C([H])([H])[H])C([H])([H])[C@]([H])(C([H])(C([H])([H])[H])C([H])([H])[H])[C@@]1([H])OC(=O)C([H])([H])[C@]1([H])N(c2nc(C([H])([H])[H])c(N([H])c3c([H])c([H])c([H])c(C(F)(F)F)c3[H])s2)C(=O)C([H])([H])C1([H])[H]


 38 41  0  0  0  0  0  0  0  0999 V2000
   35.6204  -13.5140   36.2242 C   0  0  0  0  0  0  0  0  0  0  0  0
   37.0475  -13.0319   36.3743 C   0  0  0  0  0  0  0  0  0  0  0  0
   37.5895  -13.7816   37.5869 C   0  0  0  0  0  0  0  0  0  0  0  0
   36.5416  -14.8440   37.7708 C   0  0  0  0  0  0  0  0  0  0  0  0
   36.4236  -15.5512   38.7799 O   0  0  0  0  0  0  0  0  0  0  0  0
   35.7454  -14.8691   36.5929 N   0  0  0  0  0  0  0  0  0  0  0  0
   35.2679  -16.0012   35.8497 C   0  0  0  0  0  0  0  0  0  0  0  0
   36.0618  -16.9232   35.2707 N   0  0  0  0  0  0  0  0  0  0  0  0
   35.5679  -17.9147   34.6346 C   0  0  0  0  0  0  0  0  0  0  0  0
   36.4545  -18.9741   33.9847 C   0  0  0  0  0  0  0  0  0  0  0  0
   34.1833  -18.0033   34.5658 C   0  0  0  0  0  0  0  0  0  0  0  0
   33.7516  -16.6111   35.4481 S   0  0  0  0  0  0  0  0  0  0  0  0
   33.4640  -19.0302   33.8974 N   0  0  0  0  0  0  0  0  0  0  0  0
   33.7709  -19.2248   32.8714 H   0  0  0  0  0  0  0  0  0  0  0  0
   32.4192  -19.8121   34.3523 C   0  0  0  0  0  0  0  0  0  0  0  0
   31.2577  -19.1872   34.8224 C   0  0  0  0  0  0  0  0  0  0  0  0
   30.1757  -19.9001   35.2636 C   0  0  0  0  0  0  0  0  0  0  0  0
   30.2037  -21.2797   35.2591 C   0  0  0  0  0  0  0  0  0  0  0  0
   31.3331  -21.9194   34.8035 C   0  0  0  0  0  0  0  0  0  0  0  0
   32.4331  -21.1726   34.3533 C   0  0  0  0  0  0  0  0  0  0  0  0
   31.3498  -23.4063   34.8041 C   0  0  0  0  0  0  0  0  0  0  0  0
   30.1060  -23.7960   35.3148 F   0  0  0  0  0  0  0  0  0  0  0  0
   32.3786  -23.8822   35.5927 F   0  0  0  0  0  0  0  0  0  0  0  0
   31.4136  -23.9488   33.5453 F   0  0  0  0  0  0  0  0  0  0  0  0
   34.5586  -12.6098   36.5581 C   0  0  0  0  0  0  0  0  0  0  0  0
   33.2583  -13.0306   37.0480 C   0  0  0  0  0  0  0  0  0  0  0  0
   33.1925  -13.8581   38.0011 O   0  0  0  0  0  0  0  0  0  0  0  0
   32.0463  -12.6296   36.5618 O   0  0  0  0  0  0  0  0  0  0  0  0
   32.0089  -10.6372   37.9654 C   0  0  0  0  0  0  0  0  0  0  0  0
   31.2938  -11.5598   37.0006 C   0  0  0  0  0  0  0  0  0  0  0  0
   30.1493  -11.7314   37.9206 C   0  0  0  0  0  0  0  0  0  0  0  0
   28.7978  -11.2794   37.3879 C   0  0  0  0  0  0  0  0  0  0  0  0
   29.9819  -12.9165   38.6009 O   0  0  0  0  0  0  0  0  0  0  0  0
   30.7810  -10.6650   38.8361 C   0  0  0  0  0  0  0  0  0  0  0  0
   29.7406  -12.6913   39.5244 H   0  0  0  0  0  0  0  0  0  0  0  0
   31.5245   -8.6117   36.5279 C   0  0  0  0  0  0  0  0  0  0  0  0
   32.4579   -9.3051   37.4932 C   0  0  0  0  0  0  0  0  0  0  0  0
   33.8932   -9.2695   37.0798 C   0  0  0  0  0  0  0  0  0  0  0  0
 36 37  1  0  0  0
 37 38  1  0  0  0
 37 29  1  0  0  0
 29 30  1  0  0  0
 30 28  1  0  0  0
 28 26  1  0  0  0
 26 27  2  0  0  0
 26 25  1  0  0  0
 25  1  1  0  0  0
  1  2  1  0  0  0
  2  3  1  0  0  0
  3  4  1  0  0  0
  4  5  2  0  0  0
  4  6  1  0  0  0
  6  7  1  0  0  0
  7  8  2  0  0  0
  8  9  1  0  0  0
  9 10  1  0  0  0
  9 11  2  0  0  0
 11 13  1  0  0  0
 13 15  1  0  0  0
 15 16  2  0  0  0
 16 17  1  0  0  0
 17 18  2  0  0  0
 18 19  1  0  0  0
 19 20  2  0  0  0
 19 21  1  0  0  0
 21 22  1  0  0  0
 21 23  1  0  0  0
 21 24  1  0  0  0
 11 12  1  0  0  0
 30 31  1  0  0  0
 31 32  1  0  0  0
 31 33  1  0  0  0
 31 34  1  0  0  0
 34 29  1  0  0  0
  6  1  1  0  0  0
 12  7  1  0  0  0
 20 15  1  0  0  0
 13 14  1  0  0  0
 33 35  1  0  0  0
M  END
> <minimizedAffinity>
-6.91295

> <CNNscore>
0.4875055254

> <CNNaffinity>
6.7173042297

> <CNN_VS>
3.2747228146

> <CNNaffinity_variance>
0.0496596731

$$$$
[H]O[C@@]1(C([H])([H])[H])C([H])([H])[C@]([H])(C([H])(C([H])([H])[H])C([H])([H])[H])[C@@]1([H])OC(=O)C([H])([H])[C@]1([H])N(c2nc(C([H])([H])[H])c(N([H])c3c([H])c([H])c([H])c(C(F)(F)F)c3[H])s2)C(=O)C([H])([H])C1([H])[H]


 38 41  0  0  0  0  0  0  0  0999 V2000
   35.8936  -18.1325   35.8298 C   0  0  0  0  0  0  0  0  0  0  0  0
   35.9749  -18.6221   34.3997 C   0  0  0  0  0  0  0  0  0  0  0  0
   34.5412  -18.5631   33.8827 C   0  0  0  0  0  0  0  0  0  0  0  0
   33.8775  -17.7311   34.9447 C   0  0  0  0  0  0  0  0  0  0  0  0
   32.6534  -17.6111   35.0843 O   0  0  0  0  0  0  0  0  0  0  0  0
   34.9048  -17.1329   35.7248 N   0  0  0  0  0  0  0  0  0  0  0  0
   35.0045  -15.7831   36.2046 C   0  0  0  0  0  0  0  0  0  0  0  0
   36.1498  -15.2008   36.6105 N   0  0  0  0  0  0  0  0  0  0  0  0
   36.1681  -13.9887   37.0135 C   0  0  0  0  0  0  0  0  0  0  0  0
   37.4600  -13.3117   37.4641 C   0  0  0  0  0  0  0  0  0  0  0  0
   34.9628  -13.2981   37.0147 C   0  0  0  0  0  0  0  0  0  0  0  0
   33.9241  -14.5109   36.4204 S   0  0  0  0  0  0  0  0  0  0  0  0
   34.7951  -11.9511   37.4342 N   0  0  0  0  0  0  0  0  0  0  0  0
   35.6983  -11.4537   37.7829 H   0  0  0  0  0  0  0  0  0  0  0  0
   33.6495  -11.1795   37.4794 C   0  0  0  0  0  0  0  0  0  0  0  0
   33.7467   -9.8043   37.2342 C   0  0  0  0  0  0  0  0  0  0  0  0
   32.6500   -8.9853   37.2380 C   0  0  0  0  0  0  0  0  0  0  0  0
   31.3965   -9.5036   37.4916 C   0  0  0  0  0  0  0  0  0  0  0  0
   31.2726  -10.8515   37.7372 C   0  0  0  0  0  0  0  0  0  0  0  0
   32.4078  -11.6770   37.7280 C   0  0  0  0  0  0  0  0  0  0  0  0
   29.9161  -11.3967   38.0091 C   0  0  0  0  0  0  0  0  0  0  0  0
   30.0978  -12.7685   38.2205 F   0  0  0  0  0  0  0  0  0  0  0  0
   29.0752  -11.1692   36.9376 F   0  0  0  0  0  0  0  0  0  0  0  0
   29.3618  -10.9188   39.1698 F   0  0  0  0  0  0  0  0  0  0  0  0
   36.0653  -19.0872   36.8861 C   0  0  0  0  0  0  0  0  0  0  0  0
   35.0018  -19.5080   37.7803 C   0  0  0  0  0  0  0  0  0  0  0  0
   35.2241  -19.5697   39.0229 O   0  0  0  0  0  0  0  0  0  0  0  0
   33.7393  -19.8779   37.4120 O   0  0  0  0  0  0  0  0  0  0  0  0
   31.8551  -21.2789   36.7577 C   0  0  0  0  0  0  0  0  0  0  0  0
   33.3516  -21.1026   36.9088 C   0  0  0  0  0  0  0  0  0  0  0  0
   33.4787  -22.3485   37.6943 C   0  0  0  0  0  0  0  0  0  0  0  0
   34.3761  -23.4208   37.0948 C   0  0  0  0  0  0  0  0  0  0  0  0
   33.7068  -22.2894   39.0507 O   0  0  0  0  0  0  0  0  0  0  0  0
   31.9915  -22.6307   37.4063 C   0  0  0  0  0  0  0  0  0  0  0  0
   33.1236  -22.9545   39.4741 H   0  0  0  0  0  0  0  0  0  0  0  0
   32.2351  -21.4071   34.2592 C   0  0  0  0  0  0  0  0  0  0  0  0
   31.2574  -21.2508   35.4009 C   0  0  0  0  0  0  0  0  0  0  0  0
   30.2687  -20.1478   35.2055 C   0  0  0  0  0  0  0  0  0  0  0  0
 36 37  1  0  0  0
 37 38  1  0  0  0
 37 29  1  0  0  0
 29 30  1  0  0  0
 30 28  1  0  0  0
 28 26  1  0  0  0
 26 27  2  0  0  0
 26 25  1  0  0  0
 25  1  1  0  0  0
  1  2  1  0  0  0
  2  3  1  0  0  0
  3  4  1  0  0  0
  4  5  2  0  0  0
  4  6  1  0  0  0
  6  7  1  0  0  0
  7  8  2  0  0  0
  8  9  1  0  0  0
  9 10  1  0  0  0
  9 11  2  0  0  0
 11 13  1  0  0  0
 13 15  1  0  0  0
 15 16  2  0  0  0
 16 17  1  0  0  0
 17 18  2  0  0  0
 18 19  1  0  0  0
 19 20  2  0  0  0
 19 21  1  0  0  0
 21 22  1  0  0  0
 21 23  1  0  0  0
 21 24  1  0  0  0
 11 12  1  0  0  0
 30 31  1  0  0  0
 31 32  1  0  0  0
 31 33  1  0  0  0
 31 34  1  0  0  0
 34 29  1  0  0  0
  6  1  1  0  0  0
 12  7  1  0  0  0
 20 15  1  0  0  0
 13 14  1  0  0  0
 33 35  1  0  0  0
M  END
> <minimizedAffinity>
-8.57139

> <CNNscore>
0.3857849240

> <CNNaffinity>
6.5594391823

> <CNN_VS>
2.5305328369

> <CNNaffinity_variance>
0.0679211318

$$$$
[H]O[C@@]1(C([H])([H])[H])C([H])([H])[C@]([H])(C([H])(C([H])([H])[H])C([H])([H])[H])[C@@]1([H])OC(=O)C([H])([H])[C@]1([H])N(c2nc(C([H])([H])[H])c(N([H])c3c([H])c([H])c([H])c(C(F)(F)F)c3[H])s2)C(=O)C([H])([H])C1([H])[H]


 38 41  0  0  0  0  0  0  0  0999 V2000
   32.4112  -22.8021   35.4858 C   0  0  0  0  0  0  0  0  0  0  0  0
   31.2612  -23.5193   34.8116 C   0  0  0  0  0  0  0  0  0  0  0  0
   30.0157  -23.0513   35.5573 C   0  0  0  0  0  0  0  0  0  0  0  0
   30.5544  -21.8764   36.3254 C   0  0  0  0  0  0  0  0  0  0  0  0
   29.9681  -21.3162   37.2606 O   0  0  0  0  0  0  0  0  0  0  0  0
   31.8261  -21.5529   35.7775 N   0  0  0  0  0  0  0  0  0  0  0  0
   32.3713  -20.2627   35.4609 C   0  0  0  0  0  0  0  0  0  0  0  0
   33.5703  -20.0634   34.8795 N   0  0  0  0  0  0  0  0  0  0  0  0
   33.9880  -18.8859   34.6132 C   0  0  0  0  0  0  0  0  0  0  0  0
   35.3383  -18.6453   33.9429 C   0  0  0  0  0  0  0  0  0  0  0  0
   33.1572  -17.8234   34.9457 C   0  0  0  0  0  0  0  0  0  0  0  0
   31.8426  -18.6728   35.6190 S   0  0  0  0  0  0  0  0  0  0  0  0
   33.4606  -16.4524   34.7297 N   0  0  0  0  0  0  0  0  0  0  0  0
   33.2159  -16.0692   33.7407 H   0  0  0  0  0  0  0  0  0  0  0  0
   34.0355  -15.5326   35.5861 C   0  0  0  0  0  0  0  0  0  0  0  0
   33.2855  -14.4225   35.9933 C   0  0  0  0  0  0  0  0  0  0  0  0
   33.7830  -13.4864   36.8593 C   0  0  0  0  0  0  0  0  0  0  0  0
   35.0624  -13.6137   37.3604 C   0  0  0  0  0  0  0  0  0  0  0  0
   35.8216  -14.6944   36.9757 C   0  0  0  0  0  0  0  0  0  0  0  0
   35.2951  -15.6457   36.0878 C   0  0  0  0  0  0  0  0  0  0  0  0
   37.1985  -14.8193   37.5232 C   0  0  0  0  0  0  0  0  0  0  0  0
   37.9697  -13.8883   36.8173 F   0  0  0  0  0  0  0  0  0  0  0  0
   37.6815  -16.1001   37.3411 F   0  0  0  0  0  0  0  0  0  0  0  0
   37.2942  -14.4482   38.8408 F   0  0  0  0  0  0  0  0  0  0  0  0
   33.2994  -23.5675   36.3116 C   0  0  0  0  0  0  0  0  0  0  0  0
   33.9699  -23.0416   37.4871 C   0  0  0  0  0  0  0  0  0  0  0  0
   33.3081  -22.8561   38.5478 O   0  0  0  0  0  0  0  0  0  0  0  0
   35.2879  -22.6928   37.5738 O   0  0  0  0  0  0  0  0  0  0  0  0
   35.8270  -21.8207   39.7851 C   0  0  0  0  0  0  0  0  0  0  0  0
   35.8167  -21.6338   38.2823 C   0  0  0  0  0  0  0  0  0  0  0  0
   35.1179  -20.3354   38.3893 C   0  0  0  0  0  0  0  0  0  0  0  0
   35.8625  -19.1342   37.8260 C   0  0  0  0  0  0  0  0  0  0  0  0
   33.7899  -20.2351   38.0404 O   0  0  0  0  0  0  0  0  0  0  0  0
   35.2710  -20.4281   39.9197 C   0  0  0  0  0  0  0  0  0  0  0  0
   33.3479  -19.6923   38.7272 H   0  0  0  0  0  0  0  0  0  0  0  0
   37.1090  -21.8716   41.9662 C   0  0  0  0  0  0  0  0  0  0  0  0
   37.1136  -22.0911   40.4710 C   0  0  0  0  0  0  0  0  0  0  0  0
   38.2976  -21.5023   39.7755 C   0  0  0  0  0  0  0  0  0  0  0  0
 36 37  1  0  0  0
 37 38  1  0  0  0
 37 29  1  0  0  0
 29 30  1  0  0  0
 30 28  1  0  0  0
 28 26  1  0  0  0
 26 27  2  0  0  0
 26 25  1  0  0  0
 25  1  1  0  0  0
  1  2  1  0  0  0
  2  3  1  0  0  0
  3  4  1  0  0  0
  4  5  2  0  0  0
  4  6  1  0  0  0
  6  7  1  0  0  0
  7  8  2  0  0  0
  8  9  1  0  0  0
  9 10  1  0  0  0
  9 11  2  0  0  0
 11 13  1  0  0  0
 13 15  1  0  0  0
 15 16  2  0  0  0
 16 17  1  0  0  0
 17 18  2  0  0  0
 18 19  1  0  0  0
 19 20  2  0  0  0
 19 21  1  0  0  0
 21 22  1  0  0  0
 21 23  1  0  0  0
 21 24  1  0  0  0
 11 12  1  0  0  0
 30 31  1  0  0  0
 31 32  1  0  0  0
 31 33  1  0  0  0
 31 34  1  0  0  0
 34 29  1  0  0  0
  6  1  1  0  0  0
 12  7  1  0  0  0
 20 15  1  0  0  0
 13 14  1  0  0  0
 33 35  1  0  0  0
M  END
> <minimizedAffinity>
-6.98075

> <CNNscore>
0.3462863266

> <CNNaffinity>
5.8111748695

> <CNN_VS>
2.0123302937

> <CNNaffinity_variance>
0.2021152526

$$$$
[H]O[C@@]1(C([H])([H])[H])C([H])([H])[C@]([H])(C([H])(C([H])([H])[H])C([H])([H])[H])[C@@]1([H])OC(=O)C([H])([H])[C@]1([H])N(c2nc(C([H])([H])[H])c(N([H])c3c([H])c([H])c([H])c(C(F)(F)F)c3[H])s2)C(=O)C([H])([H])C1([H])[H]


 38 41  0  0  0  0  0  0  0  0999 V2000
   32.1604  -23.0582   36.0817 C   0  0  0  0  0  0  0  0  0  0  0  0
   31.5687  -24.0374   35.0904 C   0  0  0  0  0  0  0  0  0  0  0  0
   30.1209  -23.5911   34.9147 C   0  0  0  0  0  0  0  0  0  0  0  0
   30.1531  -22.2264   35.5449 C   0  0  0  0  0  0  0  0  0  0  0  0
   29.1513  -21.5683   35.8540 O   0  0  0  0  0  0  0  0  0  0  0  0
   31.5178  -21.8608   35.7059 N   0  0  0  0  0  0  0  0  0  0  0  0
   32.1537  -20.6024   35.4339 C   0  0  0  0  0  0  0  0  0  0  0  0
   33.3691  -20.4690   34.8677 N   0  0  0  0  0  0  0  0  0  0  0  0
   33.8696  -19.3157   34.6415 C   0  0  0  0  0  0  0  0  0  0  0  0
   35.2396  -19.1487   33.9889 C   0  0  0  0  0  0  0  0  0  0  0  0
   33.1111  -18.2088   35.0011 C   0  0  0  0  0  0  0  0  0  0  0  0
   31.7347  -18.9853   35.6379 S   0  0  0  0  0  0  0  0  0  0  0  0
   33.5105  -16.8561   34.8304 N   0  0  0  0  0  0  0  0  0  0  0  0
   33.3304  -16.4362   33.8425 H   0  0  0  0  0  0  0  0  0  0  0  0
   34.1091  -15.9949   35.7303 C   0  0  0  0  0  0  0  0  0  0  0  0
   35.3540  -16.3367   36.2725 C   0  0  0  0  0  0  0  0  0  0  0  0
   36.0149  -15.5193   37.1492 C   0  0  0  0  0  0  0  0  0  0  0  0
   35.4589  -14.3154   37.5309 C   0  0  0  0  0  0  0  0  0  0  0  0
   34.2358  -13.9554   37.0142 C   0  0  0  0  0  0  0  0  0  0  0  0
   33.5726  -14.8052   36.1151 C   0  0  0  0  0  0  0  0  0  0  0  0
   33.6482  -12.6555   37.4339 C   0  0  0  0  0  0  0  0  0  0  0  0
   32.4456  -12.5408   36.7268 F   0  0  0  0  0  0  0  0  0  0  0  0
   34.5016  -11.6134   37.1294 F   0  0  0  0  0  0  0  0  0  0  0  0
   33.2965  -12.6219   38.7599 F   0  0  0  0  0  0  0  0  0  0  0  0
   32.4426  -23.5216   37.4093 C   0  0  0  0  0  0  0  0  0  0  0  0
   32.0342  -22.8248   38.6158 C   0  0  0  0  0  0  0  0  0  0  0  0
   30.8048  -22.6255   38.8311 O   0  0  0  0  0  0  0  0  0  0  0  0
   32.8658  -22.3231   39.5765 O   0  0  0  0  0  0  0  0  0  0  0  0
   34.8810  -21.5439   40.7046 C   0  0  0  0  0  0  0  0  0  0  0  0
   34.2298  -22.1426   39.4754 C   0  0  0  0  0  0  0  0  0  0  0  0
   34.8211  -21.1169   38.5900 C   0  0  0  0  0  0  0  0  0  0  0  0
   35.7376  -21.6378   37.4930 C   0  0  0  0  0  0  0  0  0  0  0  0
   34.0318  -20.1170   38.0682 O   0  0  0  0  0  0  0  0  0  0  0  0
   35.6244  -20.5988   39.7985 C   0  0  0  0  0  0  0  0  0  0  0  0
   34.5334  -19.2780   38.1472 H   0  0  0  0  0  0  0  0  0  0  0  0
   37.0663  -21.8601   41.9407 C   0  0  0  0  0  0  0  0  0  0  0  0
   35.7059  -22.4108   41.5803 C   0  0  0  0  0  0  0  0  0  0  0  0
   35.7246  -23.8436   41.1572 C   0  0  0  0  0  0  0  0  0  0  0  0
 36 37  1  0  0  0
 37 38  1  0  0  0
 37 29  1  0  0  0
 29 30  1  0  0  0
 30 28  1  0  0  0
 28 26  1  0  0  0
 26 27  2  0  0  0
 26 25  1  0  0  0
 25  1  1  0  0  0
  1  2  1  0  0  0
  2  3  1  0  0  0
  3  4  1  0  0  0
  4  5  2  0  0  0
  4  6  1  0  0  0
  6  7  1  0  0  0
  7  8  2  0  0  0
  8  9  1  0  0  0
  9 10  1  0  0  0
  9 11  2  0  0  0
 11 13  1  0  0  0
 13 15  1  0  0  0
 15 16  2  0  0  0
 16 17  1  0  0  0
 17 18  2  0  0  0
 18 19  1  0  0  0
 19 20  2  0  0  0
 19 21  1  0  0  0
 21 22  1  0  0  0
 21 23  1  0  0  0
 21 24  1  0  0  0
 11 12  1  0  0  0
 30 31  1  0  0  0
 31 32  1  0  0  0
 31 33  1  0  0  0
 31 34  1  0  0  0
 34 29  1  0  0  0
  6  1  1  0  0  0
 12  7  1  0  0  0
 20 15  1  0  0  0
 13 14  1  0  0  0
 33 35  1  0  0  0
M  END
> <minimizedAffinity>
-6.99244

> <CNNscore>
0.3127144277

> <CNNaffinity>
5.6426672935

> <CNN_VS>
1.7645434141

> <CNNaffinity_variance>
0.6030742526

$$$$
[H]O[C@@]1(C([H])([H])[H])C([H])([H])[C@]([H])(C([H])(C([H])([H])[H])C([H])([H])[H])[C@@]1([H])OC(=O)C([H])([H])[C@]1([H])N(c2nc(C([H])([H])[H])c(N([H])c3c([H])c([H])c([H])c(C(F)(F)F)c3[H])s2)C(=O)C([H])([H])C1([H])[H]


 38 41  0  0  0  0  0  0  0  0999 V2000
   35.9133  -17.9234   35.6181 C   0  0  0  0  0  0  0  0  0  0  0  0
   35.6807  -18.4108   34.2038 C   0  0  0  0  0  0  0  0  0  0  0  0
   34.1643  -18.4869   34.0594 C   0  0  0  0  0  0  0  0  0  0  0  0
   33.7127  -17.7142   35.2675 C   0  0  0  0  0  0  0  0  0  0  0  0
   32.5560  -17.7068   35.7082 O   0  0  0  0  0  0  0  0  0  0  0  0
   34.8430  -17.0198   35.7793 N   0  0  0  0  0  0  0  0  0  0  0  0
   34.9361  -15.6641   36.2435 C   0  0  0  0  0  0  0  0  0  0  0  0
   36.0820  -15.0648   36.6220 N   0  0  0  0  0  0  0  0  0  0  0  0
   36.0938  -13.8485   37.0123 C   0  0  0  0  0  0  0  0  0  0  0  0
   37.3861  -13.1522   37.4318 C   0  0  0  0  0  0  0  0  0  0  0  0
   34.8809  -13.1716   37.0292 C   0  0  0  0  0  0  0  0  0  0  0  0
   33.8453  -14.4021   36.4667 S   0  0  0  0  0  0  0  0  0  0  0  0
   34.7056  -11.8223   37.4382 N   0  0  0  0  0  0  0  0  0  0  0  0
   35.6057  -11.3175   37.7841 H   0  0  0  0  0  0  0  0  0  0  0  0
   33.5558  -11.0564   37.4762 C   0  0  0  0  0  0  0  0  0  0  0  0
   33.6467   -9.6819   37.2254 C   0  0  0  0  0  0  0  0  0  0  0  0
   32.5458   -8.8686   37.2219 C   0  0  0  0  0  0  0  0  0  0  0  0
   31.2941   -9.3923   37.4735 C   0  0  0  0  0  0  0  0  0  0  0  0
   31.1763  -10.7397   37.7243 C   0  0  0  0  0  0  0  0  0  0  0  0
   32.3159  -11.5594   37.7226 C   0  0  0  0  0  0  0  0  0  0  0  0
   29.8218  -11.2908   37.9938 C   0  0  0  0  0  0  0  0  0  0  0  0
   29.9931  -12.6764   38.0960 F   0  0  0  0  0  0  0  0  0  0  0  0
   28.9536  -10.9749   36.9674 F   0  0  0  0  0  0  0  0  0  0  0  0
   29.3063  -10.8967   39.2028 F   0  0  0  0  0  0  0  0  0  0  0  0
   36.4277  -18.8528   36.5815 C   0  0  0  0  0  0  0  0  0  0  0  0
   37.6512  -19.6136   36.4021 C   0  0  0  0  0  0  0  0  0  0  0  0
   38.7668  -19.0336   36.5303 O   0  0  0  0  0  0  0  0  0  0  0  0
   37.7357  -20.9381   36.0787 O   0  0  0  0  0  0  0  0  0  0  0  0
   38.2277  -23.3187   36.2573 C   0  0  0  0  0  0  0  0  0  0  0  0
   38.4744  -21.9022   36.7329 C   0  0  0  0  0  0  0  0  0  0  0  0
   38.2143  -22.2670   38.1418 C   0  0  0  0  0  0  0  0  0  0  0  0
   39.3676  -22.0416   39.1081 C   0  0  0  0  0  0  0  0  0  0  0  0
   37.0441  -21.8750   38.7519 O   0  0  0  0  0  0  0  0  0  0  0  0
   38.1280  -23.7404   37.6992 C   0  0  0  0  0  0  0  0  0  0  0  0
   36.7102  -22.6423   39.2632 H   0  0  0  0  0  0  0  0  0  0  0  0
   40.6904  -23.6336   35.7681 C   0  0  0  0  0  0  0  0  0  0  0  0
   39.2610  -23.9961   35.4374 C   0  0  0  0  0  0  0  0  0  0  0  0
   38.9586  -23.9959   33.9743 C   0  0  0  0  0  0  0  0  0  0  0  0
 36 37  1  0  0  0
 37 38  1  0  0  0
 37 29  1  0  0  0
 29 30  1  0  0  0
 30 28  1  0  0  0
 28 26  1  0  0  0
 26 27  2  0  0  0
 26 25  1  0  0  0
 25  1  1  0  0  0
  1  2  1  0  0  0
  2  3  1  0  0  0
  3  4  1  0  0  0
  4  5  2  0  0  0
  4  6  1  0  0  0
  6  7  1  0  0  0
  7  8  2  0  0  0
  8  9  1  0  0  0
  9 10  1  0  0  0
  9 11  2  0  0  0
 11 13  1  0  0  0
 13 15  1  0  0  0
 15 16  2  0  0  0
 16 17  1  0  0  0
 17 18  2  0  0  0
 18 19  1  0  0  0
 19 20  2  0  0  0
 19 21  1  0  0  0
 21 22  1  0  0  0
 21 23  1  0  0  0
 21 24  1  0  0  0
 11 12  1  0  0  0
 30 31  1  0  0  0
 31 32  1  0  0  0
 31 33  1  0  0  0
 31 34  1  0  0  0
 34 29  1  0  0  0
  6  1  1  0  0  0
 12  7  1  0  0  0
 20 15  1  0  0  0
 13 14  1  0  0  0
 33 35  1  0  0  0
M  END
> <minimizedAffinity>
-7.70330

> <CNNscore>
0.3102598488

> <CNNaffinity>
6.2055878639

> <CNN_VS>
1.9253447056

> <CNNaffinity_variance>
0.1576140821

$$$$
[H]O[C@@]1(C([H])([H])[H])C([H])([H])[C@]([H])(C([H])(C([H])([H])[H])C([H])([H])[H])[C@@]1([H])OC(=O)C([H])([H])[C@]1([H])N(c2nc(C([H])([H])[H])c(N([H])c3c([H])c([H])c([H])c(C(F)(F)F)c3[H])s2)C(=O)C([H])([H])C1([H])[H]


 38 41  0  0  0  0  0  0  0  0999 V2000
   35.5910  -18.0999   35.3733 C   0  0  0  0  0  0  0  0  0  0  0  0
   35.1789  -18.5492   33.9877 C   0  0  0  0  0  0  0  0  0  0  0  0
   33.6561  -18.6190   34.0345 C   0  0  0  0  0  0  0  0  0  0  0  0
   33.3648  -17.8778   35.3098 C   0  0  0  0  0  0  0  0  0  0  0  0
   32.2732  -17.8803   35.8935 O   0  0  0  0  0  0  0  0  0  0  0  0
   34.5543  -17.1992   35.6924 N   0  0  0  0  0  0  0  0  0  0  0  0
   34.7121  -15.8564   36.1764 C   0  0  0  0  0  0  0  0  0  0  0  0
   35.8567  -15.3583   36.6836 N   0  0  0  0  0  0  0  0  0  0  0  0
   35.9302  -14.1475   37.0840 C   0  0  0  0  0  0  0  0  0  0  0  0
   37.2236  -13.5655   37.6488 C   0  0  0  0  0  0  0  0  0  0  0  0
   34.7855  -13.3682   36.9741 C   0  0  0  0  0  0  0  0  0  0  0  0
   33.7160  -14.5047   36.2903 S   0  0  0  0  0  0  0  0  0  0  0  0
   34.6831  -12.0087   37.3737 N   0  0  0  0  0  0  0  0  0  0  0  0
   35.6177  -11.5367   37.6712 H   0  0  0  0  0  0  0  0  0  0  0  0
   33.5676  -11.1969   37.4554 C   0  0  0  0  0  0  0  0  0  0  0  0
   33.7166   -9.8171   37.2700 C   0  0  0  0  0  0  0  0  0  0  0  0
   32.6517   -8.9581   37.3121 C   0  0  0  0  0  0  0  0  0  0  0  0
   31.3797   -9.4392   37.5461 C   0  0  0  0  0  0  0  0  0  0  0  0
   31.2049  -10.7908   37.7330 C   0  0  0  0  0  0  0  0  0  0  0  0
   32.3081  -11.6575   37.6851 C   0  0  0  0  0  0  0  0  0  0  0  0
   29.8291  -11.2956   37.9843 C   0  0  0  0  0  0  0  0  0  0  0  0
   29.9522  -12.6860   38.0899 F   0  0  0  0  0  0  0  0  0  0  0  0
   28.9862  -10.9520   36.9458 F   0  0  0  0  0  0  0  0  0  0  0  0
   29.3105  -10.8829   39.1858 F   0  0  0  0  0  0  0  0  0  0  0  0
   36.2186  -19.0554   36.2393 C   0  0  0  0  0  0  0  0  0  0  0  0
   35.5014  -19.8719   37.2019 C   0  0  0  0  0  0  0  0  0  0  0  0
   34.7084  -20.7653   36.7890 O   0  0  0  0  0  0  0  0  0  0  0  0
   35.5767  -19.7664   38.5619 O   0  0  0  0  0  0  0  0  0  0  0  0
   34.4064  -21.8100   39.1903 C   0  0  0  0  0  0  0  0  0  0  0  0
   35.4951  -20.7968   39.4756 C   0  0  0  0  0  0  0  0  0  0  0  0
   35.0157  -20.5827   40.8576 C   0  0  0  0  0  0  0  0  0  0  0  0
   36.0093  -20.9118   41.9617 C   0  0  0  0  0  0  0  0  0  0  0  0
   34.3578  -19.4193   41.1878 O   0  0  0  0  0  0  0  0  0  0  0  0
   34.0112  -21.7310   40.6409 C   0  0  0  0  0  0  0  0  0  0  0  0
   33.5907  -19.6663   41.7466 H   0  0  0  0  0  0  0  0  0  0  0  0
   34.0136  -24.3087   39.2677 C   0  0  0  0  0  0  0  0  0  0  0  0
   34.7821  -23.1494   38.6766 C   0  0  0  0  0  0  0  0  0  0  0  0
   36.2579  -23.3719   38.6094 C   0  0  0  0  0  0  0  0  0  0  0  0
 36 37  1  0  0  0
 37 38  1  0  0  0
 37 29  1  0  0  0
 29 30  1  0  0  0
 30 28  1  0  0  0
 28 26  1  0  0  0
 26 27  2  0  0  0
 26 25  1  0  0  0
 25  1  1  0  0  0
  1  2  1  0  0  0
  2  3  1  0  0  0
  3  4  1  0  0  0
  4  5  2  0  0  0
  4  6  1  0  0  0
  6  7  1  0  0  0
  7  8  2  0  0  0
  8  9  1  0  0  0
  9 10  1  0  0  0
  9 11  2  0  0  0
 11 13  1  0  0  0
 13 15  1  0  0  0
 15 16  2  0  0  0
 16 17  1  0  0  0
 17 18  2  0  0  0
 18 19  1  0  0  0
 19 20  2  0  0  0
 19 21  1  0  0  0
 21 22  1  0  0  0
 21 23  1  0  0  0
 21 24  1  0  0  0
 11 12  1  0  0  0
 30 31  1  0  0  0
 31 32  1  0  0  0
 31 33  1  0  0  0
 31 34  1  0  0  0
 34 29  1  0  0  0
  6  1  1  0  0  0
 12  7  1  0  0  0
 20 15  1  0  0  0
 13 14  1  0  0  0
 33 35  1  0  0  0
M  END
> <minimizedAffinity>
-8.06594

> <CNNscore>
0.3098817766

> <CNNaffinity>
6.3882794380

> <CNN_VS>
1.9796113968

> <CNNaffinity_variance>
0.0695446953

$$$$
[H]O[C@@]1(C([H])([H])[H])C([H])([H])[C@]([H])(C([H])(C([H])([H])[H])C([H])([H])[H])[C@@]1([H])OC(=O)C([H])([H])[C@]1([H])N(c2nc(C([H])([H])[H])c(N([H])c3c([H])c([H])c([H])c(C(F)(F)F)c3[H])s2)C(=O)C([H])([H])C1([H])[H]


 38 41  0  0  0  0  0  0  0  0999 V2000
   34.2509  -13.7093   36.7411 C   0  0  0  0  0  0  0  0  0  0  0  0
   35.2523  -12.6375   36.3672 C   0  0  0  0  0  0  0  0  0  0  0  0
   36.5621  -13.0832   37.0092 C   0  0  0  0  0  0  0  0  0  0  0  0
   36.2446  -14.5073   37.3717 C   0  0  0  0  0  0  0  0  0  0  0  0
   36.9228  -15.2095   38.1328 O   0  0  0  0  0  0  0  0  0  0  0  0
   35.0520  -14.8683   36.6867 N   0  0  0  0  0  0  0  0  0  0  0  0
   34.7485  -16.0806   35.9793 C   0  0  0  0  0  0  0  0  0  0  0  0
   35.6727  -16.9118   35.4595 N   0  0  0  0  0  0  0  0  0  0  0  0
   35.3314  -17.9830   34.8529 C   0  0  0  0  0  0  0  0  0  0  0  0
   36.3675  -18.9409   34.2702 C   0  0  0  0  0  0  0  0  0  0  0  0
   33.9728  -18.2548   34.7528 C   0  0  0  0  0  0  0  0  0  0  0  0
   33.3373  -16.8987   35.5652 S   0  0  0  0  0  0  0  0  0  0  0  0
   33.4138  -19.3917   34.1098 N   0  0  0  0  0  0  0  0  0  0  0  0
   33.8670  -19.6606   33.1574 H   0  0  0  0  0  0  0  0  0  0  0  0
   32.3670  -20.2016   34.5073 C   0  0  0  0  0  0  0  0  0  0  0  0
   31.2377  -19.6146   35.0911 C   0  0  0  0  0  0  0  0  0  0  0  0
   30.1548  -20.3536   35.4846 C   0  0  0  0  0  0  0  0  0  0  0  0
   30.1497  -21.7232   35.3156 C   0  0  0  0  0  0  0  0  0  0  0  0
   31.2470  -22.3260   34.7458 C   0  0  0  0  0  0  0  0  0  0  0  0
   32.3484  -21.5526   34.3467 C   0  0  0  0  0  0  0  0  0  0  0  0
   31.2282  -23.8024   34.5696 C   0  0  0  0  0  0  0  0  0  0  0  0
   31.4990  -24.0227   33.2140 F   0  0  0  0  0  0  0  0  0  0  0  0
   29.9959  -24.3194   34.9174 F   0  0  0  0  0  0  0  0  0  0  0  0
   32.2322  -24.4431   35.2511 F   0  0  0  0  0  0  0  0  0  0  0  0
   33.2395  -13.3881   37.7058 C   0  0  0  0  0  0  0  0  0  0  0  0
   32.0568  -12.5999   37.4095 C   0  0  0  0  0  0  0  0  0  0  0  0
   31.6325  -12.5407   36.2205 O   0  0  0  0  0  0  0  0  0  0  0  0
   31.3305  -11.8693   38.3068 O   0  0  0  0  0  0  0  0  0  0  0  0
   29.3037  -11.1015   39.4219 C   0  0  0  0  0  0  0  0  0  0  0  0
   30.1559  -12.2494   38.9224 C   0  0  0  0  0  0  0  0  0  0  0  0
   30.1424  -12.9121   40.2439 C   0  0  0  0  0  0  0  0  0  0  0  0
   29.5337  -14.3059   40.2797 C   0  0  0  0  0  0  0  0  0  0  0  0
   31.2707  -12.9026   41.0327 O   0  0  0  0  0  0  0  0  0  0  0  0
   29.1385  -11.8448   40.7207 C   0  0  0  0  0  0  0  0  0  0  0  0
   30.9840  -12.7079   41.9501 H   0  0  0  0  0  0  0  0  0  0  0  0
   27.0653   -9.9221   39.4690 C   0  0  0  0  0  0  0  0  0  0  0  0
   28.0600  -10.7541   38.6929 C   0  0  0  0  0  0  0  0  0  0  0  0
   27.4492  -11.9089   37.9678 C   0  0  0  0  0  0  0  0  0  0  0  0
 36 37  1  0  0  0
 37 38  1  0  0  0
 37 29  1  0  0  0
 29 30  1  0  0  0
 30 28  1  0  0  0
 28 26  1  0  0  0
 26 27  2  0  0  0
 26 25  1  0  0  0
 25  1  1  0  0  0
  1  2  1  0  0  0
  2  3  1  0  0  0
  3  4  1  0  0  0
  4  5  2  0  0  0
  4  6  1  0  0  0
  6  7  1  0  0  0
  7  8  2  0  0  0
  8  9  1  0  0  0
  9 10  1  0  0  0
  9 11  2  0  0  0
 11 13  1  0  0  0
 13 15  1  0  0  0
 15 16  2  0  0  0
 16 17  1  0  0  0
 17 18  2  0  0  0
 18 19  1  0  0  0
 19 20  2  0  0  0
 19 21  1  0  0  0
 21 22  1  0  0  0
 21 23  1  0  0  0
 21 24  1  0  0  0
 11 12  1  0  0  0
 30 31  1  0  0  0
 31 32  1  0  0  0
 31 33  1  0  0  0
 31 34  1  0  0  0
 34 29  1  0  0  0
  6  1  1  0  0  0
 12  7  1  0  0  0
 20 15  1  0  0  0
 13 14  1  0  0  0
 33 35  1  0  0  0
M  END
> <minimizedAffinity>
-8.66867

> <CNNscore>
0.3069033921

> <CNNaffinity>
6.3523664474

> <CNN_VS>
1.9495627880

> <CNNaffinity_variance>
0.1126848906

$$$$
[H]O[C@@]1(C([H])([H])[H])C([H])([H])[C@]([H])(C([H])(C([H])([H])[H])C([H])([H])[H])[C@@]1([H])OC(=O)C([H])([H])[C@]1([H])N(c2nc(C([H])([H])[H])c(N([H])c3c([H])c([H])c([H])c(C(F)(F)F)c3[H])s2)C(=O)C([H])([H])C1([H])[H]


 38 41  0  0  0  0  0  0  0  0999 V2000
   32.8792  -22.5340   36.9043 C   0  0  0  0  0  0  0  0  0  0  0  0
   32.8371  -23.7881   36.0575 C   0  0  0  0  0  0  0  0  0  0  0  0
   31.4742  -23.7543   35.3737 C   0  0  0  0  0  0  0  0  0  0  0  0
   31.0483  -22.3358   35.6323 C   0  0  0  0  0  0  0  0  0  0  0  0
   29.8992  -21.9041   35.4726 O   0  0  0  0  0  0  0  0  0  0  0  0
   32.1923  -21.6196   36.0796 N   0  0  0  0  0  0  0  0  0  0  0  0
   32.6439  -20.3105   35.6996 C   0  0  0  0  0  0  0  0  0  0  0  0
   33.8029  -20.0597   35.0597 N   0  0  0  0  0  0  0  0  0  0  0  0
   34.1363  -18.8690   34.7390 C   0  0  0  0  0  0  0  0  0  0  0  0
   35.4399  -18.5708   34.0025 C   0  0  0  0  0  0  0  0  0  0  0  0
   33.2571  -17.8474   35.0751 C   0  0  0  0  0  0  0  0  0  0  0  0
   32.0265  -18.7505   35.8319 S   0  0  0  0  0  0  0  0  0  0  0  0
   33.4669  -16.4687   34.8037 N   0  0  0  0  0  0  0  0  0  0  0  0
   33.1190  -16.1250   33.8313 H   0  0  0  0  0  0  0  0  0  0  0  0
   34.0620  -15.4980   35.5870 C   0  0  0  0  0  0  0  0  0  0  0  0
   33.3359  -14.3445   35.9076 C   0  0  0  0  0  0  0  0  0  0  0  0
   33.8540  -13.3552   36.6992 C   0  0  0  0  0  0  0  0  0  0  0  0
   35.1311  -13.4704   37.2089 C   0  0  0  0  0  0  0  0  0  0  0  0
   35.8672  -14.5930   36.9085 C   0  0  0  0  0  0  0  0  0  0  0  0
   35.3197  -15.5985   36.0962 C   0  0  0  0  0  0  0  0  0  0  0  0
   37.2419  -14.7042   37.4643 C   0  0  0  0  0  0  0  0  0  0  0  0
   37.1022  -14.5428   38.8478 F   0  0  0  0  0  0  0  0  0  0  0  0
   38.0629  -13.7289   36.9337 F   0  0  0  0  0  0  0  0  0  0  0  0
   37.7962  -15.9481   37.2961 F   0  0  0  0  0  0  0  0  0  0  0  0
   32.7838  -22.6718   38.3286 C   0  0  0  0  0  0  0  0  0  0  0  0
   33.7515  -22.1260   39.2632 C   0  0  0  0  0  0  0  0  0  0  0  0
   33.4839  -21.0549   39.8784 O   0  0  0  0  0  0  0  0  0  0  0  0
   34.9786  -22.6528   39.5511 O   0  0  0  0  0  0  0  0  0  0  0  0
   36.0583  -21.3746   37.7786 C   0  0  0  0  0  0  0  0  0  0  0  0
   36.1612  -22.4021   38.8863 C   0  0  0  0  0  0  0  0  0  0  0  0
   36.7803  -23.3978   37.9857 C   0  0  0  0  0  0  0  0  0  0  0  0
   38.1722  -23.8704   38.3779 C   0  0  0  0  0  0  0  0  0  0  0  0
   36.0522  -24.4820   37.5503 O   0  0  0  0  0  0  0  0  0  0  0  0
   36.8393  -22.3107   36.8952 C   0  0  0  0  0  0  0  0  0  0  0  0
   36.2380  -24.5932   36.5938 H   0  0  0  0  0  0  0  0  0  0  0  0
   35.6374  -18.8892   38.0003 C   0  0  0  0  0  0  0  0  0  0  0  0
   36.6347  -20.0247   37.9891 C   0  0  0  0  0  0  0  0  0  0  0  0
   37.8489  -19.7568   37.1607 C   0  0  0  0  0  0  0  0  0  0  0  0
 36 37  1  0  0  0
 37 38  1  0  0  0
 37 29  1  0  0  0
 29 30  1  0  0  0
 30 28  1  0  0  0
 28 26  1  0  0  0
 26 27  2  0  0  0
 26 25  1  0  0  0
 25  1  1  0  0  0
  1  2  1  0  0  0
  2  3  1  0  0  0
  3  4  1  0  0  0
  4  5  2  0  0  0
  4  6  1  0  0  0
  6  7  1  0  0  0
  7  8  2  0  0  0
  8  9  1  0  0  0
  9 10  1  0  0  0
  9 11  2  0  0  0
 11 13  1  0  0  0
 13 15  1  0  0  0
 15 16  2  0  0  0
 16 17  1  0  0  0
 17 18  2  0  0  0
 18 19  1  0  0  0
 19 20  2  0  0  0
 19 21  1  0  0  0
 21 22  1  0  0  0
 21 23  1  0  0  0
 21 24  1  0  0  0
 11 12  1  0  0  0
 30 31  1  0  0  0
 31 32  1  0  0  0
 31 33  1  0  0  0
 31 34  1  0  0  0
 34 29  1  0  0  0
  6  1  1  0  0  0
 12  7  1  0  0  0
 20 15  1  0  0  0
 13 14  1  0  0  0
 33 35  1  0  0  0
M  END
> <minimizedAffinity>
-6.31795

> <CNNscore>
0.2811355591

> <CNNaffinity>
5.7430372238

> <CNN_VS>
1.6145719290

> <CNNaffinity_variance>
0.3202395439

$$$$
[H]O[C@@]1(C([H])([H])[H])C([H])([H])[C@]([H])(C([H])(C([H])([H])[H])C([H])([H])[H])[C@@]1([H])OC(=O)C([H])([H])[C@]1([H])N(c2nc(C([H])([H])[H])c(N([H])c3c([H])c([H])c([H])c(C(F)(F)F)c3[H])s2)C(=O)C([H])([H])C1([H])[H]


 38 41  0  0  0  0  0  0  0  0999 V2000
   36.7852  -18.7399   36.5833 C   0  0  0  0  0  0  0  0  0  0  0  0
   37.7528  -19.2868   35.5556 C   0  0  0  0  0  0  0  0  0  0  0  0
   37.0202  -19.1657   34.2234 C   0  0  0  0  0  0  0  0  0  0  0  0
   35.8805  -18.2577   34.5937 C   0  0  0  0  0  0  0  0  0  0  0  0
   34.8779  -18.0629   33.8943 O   0  0  0  0  0  0  0  0  0  0  0  0
   36.1796  -17.6902   35.8627 N   0  0  0  0  0  0  0  0  0  0  0  0
   36.0307  -16.3311   36.3019 C   0  0  0  0  0  0  0  0  0  0  0  0
   37.0274  -15.5806   36.8105 N   0  0  0  0  0  0  0  0  0  0  0  0
   36.8268  -14.3712   37.1694 C   0  0  0  0  0  0  0  0  0  0  0  0
   37.9492  -13.5047   37.7352 C   0  0  0  0  0  0  0  0  0  0  0  0
   35.5434  -13.8633   37.0130 C   0  0  0  0  0  0  0  0  0  0  0  0
   34.7627  -15.2257   36.3517 S   0  0  0  0  0  0  0  0  0  0  0  0
   35.1388  -12.5472   37.3630 N   0  0  0  0  0  0  0  0  0  0  0  0
   35.9427  -11.8706   37.6474 H   0  0  0  0  0  0  0  0  0  0  0  0
   33.8709  -11.9994   37.4105 C   0  0  0  0  0  0  0  0  0  0  0  0
   32.7781  -12.8373   37.6641 C   0  0  0  0  0  0  0  0  0  0  0  0
   31.4986  -12.3585   37.7499 C   0  0  0  0  0  0  0  0  0  0  0  0
   31.2479  -11.0119   37.5824 C   0  0  0  0  0  0  0  0  0  0  0  0
   32.3033  -10.1663   37.3309 C   0  0  0  0  0  0  0  0  0  0  0  0
   33.6093  -10.6742   37.2475 C   0  0  0  0  0  0  0  0  0  0  0  0
   32.0190   -8.7177   37.1524 C   0  0  0  0  0  0  0  0  0  0  0  0
   33.2694   -8.0888   37.1319 F   0  0  0  0  0  0  0  0  0  0  0  0
   31.2436   -8.2413   38.1910 F   0  0  0  0  0  0  0  0  0  0  0  0
   31.4423   -8.4229   35.9426 F   0  0  0  0  0  0  0  0  0  0  0  0
   36.1554  -19.6623   37.4827 C   0  0  0  0  0  0  0  0  0  0  0  0
   34.8496  -20.2546   37.2545 C   0  0  0  0  0  0  0  0  0  0  0  0
   34.0222  -20.3183   38.2078 O   0  0  0  0  0  0  0  0  0  0  0  0
   34.4024  -20.7901   36.0800 O   0  0  0  0  0  0  0  0  0  0  0  0
   32.6243  -22.4038   35.6613 C   0  0  0  0  0  0  0  0  0  0  0  0
   33.0878  -20.9625   35.6989 C   0  0  0  0  0  0  0  0  0  0  0  0
   32.6351  -20.7189   34.3128 C   0  0  0  0  0  0  0  0  0  0  0  0
   31.5792  -19.6371   34.1414 C   0  0  0  0  0  0  0  0  0  0  0  0
   33.5560  -20.6021   33.2961 O   0  0  0  0  0  0  0  0  0  0  0  0
   32.0069  -22.1259   34.3166 C   0  0  0  0  0  0  0  0  0  0  0  0
   33.2149  -21.1151   32.5330 H   0  0  0  0  0  0  0  0  0  0  0  0
   30.5178  -22.0182   37.0094 C   0  0  0  0  0  0  0  0  0  0  0  0
   31.7125  -22.8977   36.7212 C   0  0  0  0  0  0  0  0  0  0  0  0
   32.4223  -23.3762   37.9458 C   0  0  0  0  0  0  0  0  0  0  0  0
 36 37  1  0  0  0
 37 38  1  0  0  0
 37 29  1  0  0  0
 29 30  1  0  0  0
 30 28  1  0  0  0
 28 26  1  0  0  0
 26 27  2  0  0  0
 26 25  1  0  0  0
 25  1  1  0  0  0
  1  2  1  0  0  0
  2  3  1  0  0  0
  3  4  1  0  0  0
  4  5  2  0  0  0
  4  6  1  0  0  0
  6  7  1  0  0  0
  7  8  2  0  0  0
  8  9  1  0  0  0
  9 10  1  0  0  0
  9 11  2  0  0  0
 11 13  1  0  0  0
 13 15  1  0  0  0
 15 16  2  0  0  0
 16 17  1  0  0  0
 17 18  2  0  0  0
 18 19  1  0  0  0
 19 20  2  0  0  0
 19 21  1  0  0  0
 21 22  1  0  0  0
 21 23  1  0  0  0
 21 24  1  0  0  0
 11 12  1  0  0  0
 30 31  1  0  0  0
 31 32  1  0  0  0
 31 33  1  0  0  0
 31 34  1  0  0  0
 34 29  1  0  0  0
  6  1  1  0  0  0
 12  7  1  0  0  0
 20 15  1  0  0  0
 13 14  1  0  0  0
 33 35  1  0  0  0
M  END
> <minimizedAffinity>
-9.07188

> <CNNscore>
0.2621465325

> <CNNaffinity>
6.1050901413

> <CNN_VS>
1.6004282236

> <CNNaffinity_variance>
0.3849975169

$$$$
[H]OC(=O)c1c([H])nc(C([H])(C(=O)N([H])c2onc(C([H])([H])c3c([H])c([H])c(N4C([H])([H])C([H])([H])OC([H])([H])C4([H])[H])c([H])c3[H])c2C(F)(F)F)C([H])([H])C([H])([H])[H])nc1[H]


 39 42  0  0  0  0  0  0  0  0999 V2000
   34.4118  -14.7083   36.1713 C   0  0  0  0  0  0  0  0  0  0  0  0
   33.9436  -15.8642   35.7981 O   0  0  0  0  0  0  0  0  0  0  0  0
   34.8478  -16.7870   35.9079 N   0  0  0  0  0  0  0  0  0  0  0  0
   36.0203  -16.2310   36.3908 C   0  0  0  0  0  0  0  0  0  0  0  0
   35.7464  -14.9318   36.5518 C   0  0  0  0  0  0  0  0  0  0  0  0
   33.2232  -12.8601   37.3394 C   0  0  0  0  0  0  0  0  0  0  0  0
   33.3825  -13.3256   38.5017 O   0  0  0  0  0  0  0  0  0  0  0  0
   33.6992  -13.4886   36.1824 N   0  0  0  0  0  0  0  0  0  0  0  0
   33.5016  -12.9943   35.2600 H   0  0  0  0  0  0  0  0  0  0  0  0
   32.4884  -11.5790   37.2348 C   0  0  0  0  0  0  0  0  0  0  0  0
   31.1229  -11.6610   37.7705 C   0  0  0  0  0  0  0  0  0  0  0  0
   30.8637  -12.4469   38.8587 N   0  0  0  0  0  0  0  0  0  0  0  0
   29.6171  -12.5325   39.3551 C   0  0  0  0  0  0  0  0  0  0  0  0
   28.5565  -11.8476   38.8055 C   0  0  0  0  0  0  0  0  0  0  0  0
   28.8209  -11.0508   37.7020 C   0  0  0  0  0  0  0  0  0  0  0  0
   30.0781  -11.0033   37.2509 N   0  0  0  0  0  0  0  0  0  0  0  0
   27.2240  -11.9808   39.3776 C   0  0  0  0  0  0  0  0  0  0  0  0
   26.6251  -10.8986   39.9699 O   0  0  0  0  0  0  0  0  0  0  0  0
   26.6287  -13.1045   39.3211 O   0  0  0  0  0  0  0  0  0  0  0  0
   26.1710  -10.1659   39.4762 H   0  0  0  0  0  0  0  0  0  0  0  0
   32.7435   -9.0757   37.3795 C   0  0  0  0  0  0  0  0  0  0  0  0
   33.2878  -10.4088   37.7705 C   0  0  0  0  0  0  0  0  0  0  0  0
   36.5806  -13.8120   36.9949 C   0  0  0  0  0  0  0  0  0  0  0  0
   36.5127  -13.7986   38.4241 F   0  0  0  0  0  0  0  0  0  0  0  0
   37.8861  -13.9491   36.6594 F   0  0  0  0  0  0  0  0  0  0  0  0
   36.1397  -12.5593   36.6962 F   0  0  0  0  0  0  0  0  0  0  0  0
   37.2017  -17.0281   36.7079 C   0  0  0  0  0  0  0  0  0  0  0  0
   36.9587  -18.4780   36.8429 C   0  0  0  0  0  0  0  0  0  0  0  0
   37.6292  -19.4198   36.1330 C   0  0  0  0  0  0  0  0  0  0  0  0
   37.3420  -20.7808   36.3243 C   0  0  0  0  0  0  0  0  0  0  0  0
   36.3850  -21.2021   37.2235 C   0  0  0  0  0  0  0  0  0  0  0  0
   35.6959  -20.2415   37.9517 C   0  0  0  0  0  0  0  0  0  0  0  0
   35.9892  -18.9301   37.7520 C   0  0  0  0  0  0  0  0  0  0  0  0
   36.0890  -22.5667   37.4377 N   0  0  0  0  0  0  0  0  0  0  0  0
   34.7476  -23.0871   37.2668 C   0  0  0  0  0  0  0  0  0  0  0  0
   34.9208  -24.5625   36.8922 C   0  0  0  0  0  0  0  0  0  0  0  0
   35.3985  -25.2181   38.0030 O   0  0  0  0  0  0  0  0  0  0  0  0
   36.3491  -24.5378   38.7307 C   0  0  0  0  0  0  0  0  0  0  0  0
   37.0970  -23.5411   37.8491 C   0  0  0  0  0  0  0  0  0  0  0  0
 21 22  1  0  0  0
 22 10  1  0  0  0
 10  6  1  0  0  0
  6  7  2  0  0  0
  6  8  1  0  0  0
  8  1  1  0  0  0
  1  2  1  0  0  0
  2  3  1  0  0  0
  3  4  2  0  0  0
  4 27  1  0  0  0
 27 28  1  0  0  0
 28 29  2  0  0  0
 29 30  1  0  0  0
 30 31  2  0  0  0
 31 32  1  0  0  0
 32 33  2  0  0  0
 31 34  1  0  0  0
 34 35  1  0  0  0
 35 36  1  0  0  0
 36 37  1  0  0  0
 37 38  1  0  0  0
 38 39  1  0  0  0
  4  5  1  0  0  0
  5 23  1  0  0  0
 23 24  1  0  0  0
 23 25  1  0  0  0
 23 26  1  0  0  0
 10 11  1  0  0  0
 11 12  2  0  0  0
 12 13  1  0  0  0
 13 14  2  0  0  0
 14 17  1  0  0  0
 17 18  1  0  0  0
 17 19  2  0  0  0
 14 15  1  0  0  0
 15 16  2  0  0  0
  5  1  2  0  0  0
 16 11  1  0  0  0
 33 28  1  0  0  0
 39 34  1  0  0  0
  8  9  1  0  0  0
 18 20  1  0  0  0
M  END
> <minimizedAffinity>
-8.43986

> <CNNscore>
0.3863974810

> <CNNaffinity>
6.4534425735

> <CNN_VS>
2.4935939312

> <CNNaffinity_variance>
0.1963599622

$$$$
[H]OC(=O)c1c([H])nc(C([H])(C(=O)N([H])c2onc(C([H])([H])c3c([H])c([H])c(N4C([H])([H])C([H])([H])OC([H])([H])C4([H])[H])c([H])c3[H])c2C(F)(F)F)C([H])([H])C([H])([H])[H])nc1[H]


 39 42  0  0  0  0  0  0  0  0999 V2000
   37.0933  -21.5621   38.8915 C   0  0  0  0  0  0  0  0  0  0  0  0
   35.7993  -21.4205   38.8859 O   0  0  0  0  0  0  0  0  0  0  0  0
   35.4239  -20.6325   37.9272 N   0  0  0  0  0  0  0  0  0  0  0  0
   36.5343  -20.2010   37.2213 C   0  0  0  0  0  0  0  0  0  0  0  0
   37.5762  -20.7807   37.8274 C   0  0  0  0  0  0  0  0  0  0  0  0
   37.8928  -22.1312   41.1784 C   0  0  0  0  0  0  0  0  0  0  0  0
   37.2769  -21.1962   41.7610 O   0  0  0  0  0  0  0  0  0  0  0  0
   37.8382  -22.3503   39.7966 N   0  0  0  0  0  0  0  0  0  0  0  0
   38.4021  -23.1741   39.4255 H   0  0  0  0  0  0  0  0  0  0  0  0
   38.7061  -23.0230   42.0359 C   0  0  0  0  0  0  0  0  0  0  0  0
   40.1478  -22.7668   41.9171 C   0  0  0  0  0  0  0  0  0  0  0  0
   40.6039  -21.8393   41.0223 N   0  0  0  0  0  0  0  0  0  0  0  0
   41.9214  -21.5995   40.9023 C   0  0  0  0  0  0  0  0  0  0  0  0
   42.8626  -22.2615   41.6586 C   0  0  0  0  0  0  0  0  0  0  0  0
   42.3987  -23.2018   42.5659 C   0  0  0  0  0  0  0  0  0  0  0  0
   41.0791  -23.3995   42.6428 N   0  0  0  0  0  0  0  0  0  0  0  0
   44.2786  -21.9692   41.4845 C   0  0  0  0  0  0  0  0  0  0  0  0
   44.9970  -22.6276   40.5196 O   0  0  0  0  0  0  0  0  0  0  0  0
   44.8349  -21.1029   42.2330 O   0  0  0  0  0  0  0  0  0  0  0  0
   44.9890  -22.3945   39.5540 H   0  0  0  0  0  0  0  0  0  0  0  0
   37.3792  -24.2637   43.7831 C   0  0  0  0  0  0  0  0  0  0  0  0
   38.2065  -23.0633   43.4657 C   0  0  0  0  0  0  0  0  0  0  0  0
   39.0169  -20.6911   37.5775 C   0  0  0  0  0  0  0  0  0  0  0  0
   39.1797  -19.8049   36.4659 F   0  0  0  0  0  0  0  0  0  0  0  0
   39.7099  -20.1609   38.6142 F   0  0  0  0  0  0  0  0  0  0  0  0
   39.6331  -21.8133   37.1152 F   0  0  0  0  0  0  0  0  0  0  0  0
   36.4370  -19.3698   36.0250 C   0  0  0  0  0  0  0  0  0  0  0  0
   36.1081  -17.9525   36.2745 C   0  0  0  0  0  0  0  0  0  0  0  0
   36.9332  -17.0948   36.9256 C   0  0  0  0  0  0  0  0  0  0  0  0
   36.5478  -15.7584   37.1179 C   0  0  0  0  0  0  0  0  0  0  0  0
   35.3385  -15.2779   36.6611 C   0  0  0  0  0  0  0  0  0  0  0  0
   34.4907  -16.1525   35.9947 C   0  0  0  0  0  0  0  0  0  0  0  0
   34.8826  -17.4414   35.8187 C   0  0  0  0  0  0  0  0  0  0  0  0
   34.9374  -13.9347   36.8355 N   0  0  0  0  0  0  0  0  0  0  0  0
   33.5381  -13.5619   36.8843 C   0  0  0  0  0  0  0  0  0  0  0  0
   33.4784  -12.2892   37.7351 C   0  0  0  0  0  0  0  0  0  0  0  0
   34.0719  -11.2804   37.0127 O   0  0  0  0  0  0  0  0  0  0  0  0
   35.2061  -11.6359   36.3176 C   0  0  0  0  0  0  0  0  0  0  0  0
   35.8894  -12.8345   36.9705 C   0  0  0  0  0  0  0  0  0  0  0  0
 21 22  1  0  0  0
 22 10  1  0  0  0
 10  6  1  0  0  0
  6  7  2  0  0  0
  6  8  1  0  0  0
  8  1  1  0  0  0
  1  2  1  0  0  0
  2  3  1  0  0  0
  3  4  2  0  0  0
  4 27  1  0  0  0
 27 28  1  0  0  0
 28 29  2  0  0  0
 29 30  1  0  0  0
 30 31  2  0  0  0
 31 32  1  0  0  0
 32 33  2  0  0  0
 31 34  1  0  0  0
 34 35  1  0  0  0
 35 36  1  0  0  0
 36 37  1  0  0  0
 37 38  1  0  0  0
 38 39  1  0  0  0
  4  5  1  0  0  0
  5 23  1  0  0  0
 23 24  1  0  0  0
 23 25  1  0  0  0
 23 26  1  0  0  0
 10 11  1  0  0  0
 11 12  2  0  0  0
 12 13  1  0  0  0
 13 14  2  0  0  0
 14 17  1  0  0  0
 17 18  1  0  0  0
 17 19  2  0  0  0
 14 15  1  0  0  0
 15 16  2  0  0  0
  5  1  2  0  0  0
 16 11  1  0  0  0
 33 28  1  0  0  0
 39 34  1  0  0  0
  8  9  1  0  0  0
 18 20  1  0  0  0
M  END
> <minimizedAffinity>
-5.18417

> <CNNscore>
0.3263404965

> <CNNaffinity>
5.6417779922

> <CNN_VS>
1.8411406279

> <CNNaffinity_variance>
0.0293667056

$$$$
[H]OC(=O)c1c([H])nc(C([H])(C(=O)N([H])c2onc(C([H])([H])c3c([H])c([H])c(N4C([H])([H])C([H])([H])OC([H])([H])C4([H])[H])c([H])c3[H])c2C(F)(F)F)C([H])([H])C([H])([H])[H])nc1[H]


 39 42  0  0  0  0  0  0  0  0999 V2000
   33.9512  -15.1436   35.8595 C   0  0  0  0  0  0  0  0  0  0  0  0
   33.3210  -16.1186   35.2707 O   0  0  0  0  0  0  0  0  0  0  0  0
   34.0125  -17.2142   35.3215 N   0  0  0  0  0  0  0  0  0  0  0  0
   35.2012  -16.9805   35.9921 C   0  0  0  0  0  0  0  0  0  0  0  0
   35.1619  -15.6856   36.3247 C   0  0  0  0  0  0  0  0  0  0  0  0
   32.9925  -13.2639   37.1789 C   0  0  0  0  0  0  0  0  0  0  0  0
   32.9069  -13.9046   38.2629 O   0  0  0  0  0  0  0  0  0  0  0  0
   33.4879  -13.8156   35.9913 N   0  0  0  0  0  0  0  0  0  0  0  0
   33.5103  -13.1714   35.1435 H   0  0  0  0  0  0  0  0  0  0  0  0
   32.5343  -11.8562   37.2044 C   0  0  0  0  0  0  0  0  0  0  0  0
   31.1612  -11.7139   37.7070 C   0  0  0  0  0  0  0  0  0  0  0  0
   30.8033  -12.3017   38.8883 N   0  0  0  0  0  0  0  0  0  0  0  0
   29.5484  -12.1813   39.3558 C   0  0  0  0  0  0  0  0  0  0  0  0
   28.5766  -11.4741   38.6839 C   0  0  0  0  0  0  0  0  0  0  0  0
   28.9410  -10.8783   37.4862 C   0  0  0  0  0  0  0  0  0  0  0  0
   30.2016  -11.0308   37.0692 N   0  0  0  0  0  0  0  0  0  0  0  0
   27.2301  -11.3804   39.2307 C   0  0  0  0  0  0  0  0  0  0  0  0
   26.6226  -10.1559   39.3405 O   0  0  0  0  0  0  0  0  0  0  0  0
   26.6308  -12.4402   39.6019 O   0  0  0  0  0  0  0  0  0  0  0  0
   26.1841   -9.6753   38.5897 H   0  0  0  0  0  0  0  0  0  0  0  0
   33.3913   -9.5028   37.4867 C   0  0  0  0  0  0  0  0  0  0  0  0
   33.5319  -10.9359   37.8777 C   0  0  0  0  0  0  0  0  0  0  0  0
   36.1331  -14.8302   37.0111 C   0  0  0  0  0  0  0  0  0  0  0  0
   36.3150  -13.6789   36.1810 F   0  0  0  0  0  0  0  0  0  0  0  0
   35.7015  -14.3877   38.2168 F   0  0  0  0  0  0  0  0  0  0  0  0
   37.4088  -15.2963   37.1021 F   0  0  0  0  0  0  0  0  0  0  0  0
   36.1613  -18.0387   36.2922 C   0  0  0  0  0  0  0  0  0  0  0  0
   35.6343  -19.1444   37.1163 C   0  0  0  0  0  0  0  0  0  0  0  0
   35.9435  -19.3165   38.4259 C   0  0  0  0  0  0  0  0  0  0  0  0
   35.3950  -20.3927   39.1419 C   0  0  0  0  0  0  0  0  0  0  0  0
   34.5386  -21.2977   38.5508 C   0  0  0  0  0  0  0  0  0  0  0  0
   34.2201  -21.1256   37.2103 C   0  0  0  0  0  0  0  0  0  0  0  0
   34.7610  -20.0777   36.5357 C   0  0  0  0  0  0  0  0  0  0  0  0
   33.9687  -22.3804   39.2566 N   0  0  0  0  0  0  0  0  0  0  0  0
   33.9201  -23.7131   38.6899 C   0  0  0  0  0  0  0  0  0  0  0  0
   33.9192  -24.6713   39.8853 C   0  0  0  0  0  0  0  0  0  0  0  0
   32.7101  -24.5323   40.5260 O   0  0  0  0  0  0  0  0  0  0  0  0
   32.2375  -23.2431   40.6292 C   0  0  0  0  0  0  0  0  0  0  0  0
   33.3866  -22.2391   40.5893 C   0  0  0  0  0  0  0  0  0  0  0  0
 21 22  1  0  0  0
 22 10  1  0  0  0
 10  6  1  0  0  0
  6  7  2  0  0  0
  6  8  1  0  0  0
  8  1  1  0  0  0
  1  2  1  0  0  0
  2  3  1  0  0  0
  3  4  2  0  0  0
  4 27  1  0  0  0
 27 28  1  0  0  0
 28 29  2  0  0  0
 29 30  1  0  0  0
 30 31  2  0  0  0
 31 32  1  0  0  0
 32 33  2  0  0  0
 31 34  1  0  0  0
 34 35  1  0  0  0
 35 36  1  0  0  0
 36 37  1  0  0  0
 37 38  1  0  0  0
 38 39  1  0  0  0
  4  5  1  0  0  0
  5 23  1  0  0  0
 23 24  1  0  0  0
 23 25  1  0  0  0
 23 26  1  0  0  0
 10 11  1  0  0  0
 11 12  2  0  0  0
 12 13  1  0  0  0
 13 14  2  0  0  0
 14 17  1  0  0  0
 17 18  1  0  0  0
 17 19  2  0  0  0
 14 15  1  0  0  0
 15 16  2  0  0  0
  5  1  2  0  0  0
 16 11  1  0  0  0
 33 28  1  0  0  0
 39 34  1  0  0  0
  8  9  1  0  0  0
 18 20  1  0  0  0
M  END
> <minimizedAffinity>
-7.51937

> <CNNscore>
0.2722828388

> <CNNaffinity>
6.1916494370

> <CNN_VS>
1.6858798265

> <CNNaffinity_variance>
0.0849280059

$$$$
[H]OC(=O)c1c([H])nc(C([H])(C(=O)N([H])c2onc(C([H])([H])c3c([H])c([H])c(N4C([H])([H])C([H])([H])OC([H])([H])C4([H])[H])c([H])c3[H])c2C(F)(F)F)C([H])([H])C([H])([H])[H])nc1[H]


 39 42  0  0  0  0  0  0  0  0999 V2000
   37.1236  -21.3880   37.7743 C   0  0  0  0  0  0  0  0  0  0  0  0
   35.8445  -21.5210   37.9760 O   0  0  0  0  0  0  0  0  0  0  0  0
   35.1659  -20.8203   37.1219 N   0  0  0  0  0  0  0  0  0  0  0  0
   36.0354  -20.1587   36.2712 C   0  0  0  0  0  0  0  0  0  0  0  0
   37.2579  -20.5127   36.6826 C   0  0  0  0  0  0  0  0  0  0  0  0
   38.2743  -21.9396   39.9108 C   0  0  0  0  0  0  0  0  0  0  0  0
   37.4737  -21.3032   40.6504 O   0  0  0  0  0  0  0  0  0  0  0  0
   38.1504  -22.0109   38.5181 N   0  0  0  0  0  0  0  0  0  0  0  0
   38.8899  -22.5810   38.0058 H   0  0  0  0  0  0  0  0  0  0  0  0
   39.3916  -22.6348   40.5894 C   0  0  0  0  0  0  0  0  0  0  0  0
   40.6941  -22.0075   40.3285 C   0  0  0  0  0  0  0  0  0  0  0  0
   40.7604  -20.8499   39.6042 N   0  0  0  0  0  0  0  0  0  0  0  0
   41.9475  -20.2692   39.3561 C   0  0  0  0  0  0  0  0  0  0  0  0
   43.1354  -20.7982   39.8088 C   0  0  0  0  0  0  0  0  0  0  0  0
   43.0667  -21.9721   40.5435 C   0  0  0  0  0  0  0  0  0  0  0  0
   41.8605  -22.5056   40.7596 N   0  0  0  0  0  0  0  0  0  0  0  0
   44.3950  -20.1330   39.5061 C   0  0  0  0  0  0  0  0  0  0  0  0
   44.9967  -19.3477   40.4558 O   0  0  0  0  0  0  0  0  0  0  0  0
   44.9246  -20.2888   38.3591 O   0  0  0  0  0  0  0  0  0  0  0  0
   45.5401  -19.6944   41.2117 H   0  0  0  0  0  0  0  0  0  0  0  0
   38.6704  -24.2719   42.3649 C   0  0  0  0  0  0  0  0  0  0  0  0
   39.1126  -22.8802   42.0582 C   0  0  0  0  0  0  0  0  0  0  0  0
   38.5900  -20.1204   36.2160 C   0  0  0  0  0  0  0  0  0  0  0  0
   39.1451  -19.2841   37.2358 F   0  0  0  0  0  0  0  0  0  0  0  0
   39.4339  -21.1686   36.0575 F   0  0  0  0  0  0  0  0  0  0  0  0
   38.6460  -19.2946   35.1354 F   0  0  0  0  0  0  0  0  0  0  0  0
   35.5782  -19.3552   35.1412 C   0  0  0  0  0  0  0  0  0  0  0  0
   35.2378  -17.9562   35.4672 C   0  0  0  0  0  0  0  0  0  0  0  0
   33.9889  -17.4406   35.3453 C   0  0  0  0  0  0  0  0  0  0  0  0
   33.7466  -16.0991   35.6818 C   0  0  0  0  0  0  0  0  0  0  0  0
   34.7507  -15.2718   36.1392 C   0  0  0  0  0  0  0  0  0  0  0  0
   36.0305  -15.7953   36.2648 C   0  0  0  0  0  0  0  0  0  0  0  0
   36.2438  -17.0957   35.9344 C   0  0  0  0  0  0  0  0  0  0  0  0
   34.5248  -13.9229   36.4925 N   0  0  0  0  0  0  0  0  0  0  0  0
   35.6225  -13.0115   36.7450 C   0  0  0  0  0  0  0  0  0  0  0  0
   35.0890  -11.6165   36.4039 C   0  0  0  0  0  0  0  0  0  0  0  0
   34.1515  -11.2880   37.3552 O   0  0  0  0  0  0  0  0  0  0  0  0
   33.3142  -12.3106   37.7415 C   0  0  0  0  0  0  0  0  0  0  0  0
   33.1863  -13.3546   36.6353 C   0  0  0  0  0  0  0  0  0  0  0  0
 21 22  1  0  0  0
 22 10  1  0  0  0
 10  6  1  0  0  0
  6  7  2  0  0  0
  6  8  1  0  0  0
  8  1  1  0  0  0
  1  2  1  0  0  0
  2  3  1  0  0  0
  3  4  2  0  0  0
  4 27  1  0  0  0
 27 28  1  0  0  0
 28 29  2  0  0  0
 29 30  1  0  0  0
 30 31  2  0  0  0
 31 32  1  0  0  0
 32 33  2  0  0  0
 31 34  1  0  0  0
 34 35  1  0  0  0
 35 36  1  0  0  0
 36 37  1  0  0  0
 37 38  1  0  0  0
 38 39  1  0  0  0
  4  5  1  0  0  0
  5 23  1  0  0  0
 23 24  1  0  0  0
 23 25  1  0  0  0
 23 26  1  0  0  0
 10 11  1  0  0  0
 11 12  2  0  0  0
 12 13  1  0  0  0
 13 14  2  0  0  0
 14 17  1  0  0  0
 17 18  1  0  0  0
 17 19  2  0  0  0
 14 15  1  0  0  0
 15 16  2  0  0  0
  5  1  2  0  0  0
 16 11  1  0  0  0
 33 28  1  0  0  0
 39 34  1  0  0  0
  8  9  1  0  0  0
 18 20  1  0  0  0
M  END
> <minimizedAffinity>
-5.76619

> <CNNscore>
0.2371307760

> <CNNaffinity>
5.6652288437

> <CNN_VS>
1.3434001207

> <CNNaffinity_variance>
0.0375498123

$$$$
[H]OC(=O)c1c([H])nc(C([H])(C(=O)N([H])c2onc(C([H])([H])c3c([H])c([H])c(N4C([H])([H])C([H])([H])OC([H])([H])C4([H])[H])c([H])c3[H])c2C(F)(F)F)C([H])([H])C([H])([H])[H])nc1[H]


 39 42  0  0  0  0  0  0  0  0999 V2000
   33.9686  -16.4511   35.8845 C   0  0  0  0  0  0  0  0  0  0  0  0
   33.3124  -17.2081   35.0533 O   0  0  0  0  0  0  0  0  0  0  0  0
   33.8278  -18.3968   35.0040 N   0  0  0  0  0  0  0  0  0  0  0  0
   34.9137  -18.4662   35.8604 C   0  0  0  0  0  0  0  0  0  0  0  0
   35.0014  -17.2487   36.4072 C   0  0  0  0  0  0  0  0  0  0  0  0
   34.5437  -14.0303   35.9281 C   0  0  0  0  0  0  0  0  0  0  0  0
   35.6825  -14.1642   35.4007 O   0  0  0  0  0  0  0  0  0  0  0  0
   33.6790  -15.1013   36.1837 N   0  0  0  0  0  0  0  0  0  0  0  0
   32.7440  -14.8579   36.6320 H   0  0  0  0  0  0  0  0  0  0  0  0
   34.1363  -12.6515   36.2816 C   0  0  0  0  0  0  0  0  0  0  0  0
   32.9990  -12.6150   37.2109 C   0  0  0  0  0  0  0  0  0  0  0  0
   33.1656  -13.0132   38.5081 N   0  0  0  0  0  0  0  0  0  0  0  0
   32.1308  -12.9876   39.3662 C   0  0  0  0  0  0  0  0  0  0  0  0
   30.8738  -12.5677   38.9923 C   0  0  0  0  0  0  0  0  0  0  0  0
   30.7063  -12.1640   37.6765 C   0  0  0  0  0  0  0  0  0  0  0  0
   31.7691  -12.2103   36.8674 N   0  0  0  0  0  0  0  0  0  0  0  0
   29.7851  -12.5662   39.9595 C   0  0  0  0  0  0  0  0  0  0  0  0
   30.0479  -12.8157   41.2822 O   0  0  0  0  0  0  0  0  0  0  0  0
   28.5979  -12.3326   39.5643 O   0  0  0  0  0  0  0  0  0  0  0  0
   30.4094  -12.1461   41.9207 H   0  0  0  0  0  0  0  0  0  0  0  0
   35.5536  -10.6162   35.8329 C   0  0  0  0  0  0  0  0  0  0  0  0
   35.3089  -11.7952   36.7141 C   0  0  0  0  0  0  0  0  0  0  0  0
   35.9585  -16.6791   37.3588 C   0  0  0  0  0  0  0  0  0  0  0  0
   36.0553  -17.6106   38.4407 F   0  0  0  0  0  0  0  0  0  0  0  0
   37.2041  -16.5337   36.8459 F   0  0  0  0  0  0  0  0  0  0  0  0
   35.5770  -15.5490   38.0146 F   0  0  0  0  0  0  0  0  0  0  0  0
   35.6565  -19.7006   36.0973 C   0  0  0  0  0  0  0  0  0  0  0  0
   35.0494  -20.6149   37.0845 C   0  0  0  0  0  0  0  0  0  0  0  0
   34.4234  -21.7710   36.7498 C   0  0  0  0  0  0  0  0  0  0  0  0
   33.8759  -22.5891   37.7511 C   0  0  0  0  0  0  0  0  0  0  0  0
   33.9524  -22.2532   39.0865 C   0  0  0  0  0  0  0  0  0  0  0  0
   34.5917  -21.0705   39.4334 C   0  0  0  0  0  0  0  0  0  0  0  0
   35.1150  -20.2934   38.4495 C   0  0  0  0  0  0  0  0  0  0  0  0
   33.4172  -23.0678   40.1089 N   0  0  0  0  0  0  0  0  0  0  0  0
   33.7633  -22.8624   41.5008 C   0  0  0  0  0  0  0  0  0  0  0  0
   32.5645  -23.3751   42.3053 C   0  0  0  0  0  0  0  0  0  0  0  0
   32.5265  -24.7429   42.1649 O   0  0  0  0  0  0  0  0  0  0  0  0
   32.8112  -25.2184   40.9044 C   0  0  0  0  0  0  0  0  0  0  0  0
   32.4933  -24.1681   39.8434 C   0  0  0  0  0  0  0  0  0  0  0  0
 21 22  1  0  0  0
 22 10  1  0  0  0
 10  6  1  0  0  0
  6  7  2  0  0  0
  6  8  1  0  0  0
  8  1  1  0  0  0
  1  2  1  0  0  0
  2  3  1  0  0  0
  3  4  2  0  0  0
  4 27  1  0  0  0
 27 28  1  0  0  0
 28 29  2  0  0  0
 29 30  1  0  0  0
 30 31  2  0  0  0
 31 32  1  0  0  0
 32 33  2  0  0  0
 31 34  1  0  0  0
 34 35  1  0  0  0
 35 36  1  0  0  0
 36 37  1  0  0  0
 37 38  1  0  0  0
 38 39  1  0  0  0
  4  5  1  0  0  0
  5 23  1  0  0  0
 23 24  1  0  0  0
 23 25  1  0  0  0
 23 26  1  0  0  0
 10 11  1  0  0  0
 11 12  2  0  0  0
 12 13  1  0  0  0
 13 14  2  0  0  0
 14 17  1  0  0  0
 17 18  1  0  0  0
 17 19  2  0  0  0
 14 15  1  0  0  0
 15 16  2  0  0  0
  5  1  2  0  0  0
 16 11  1  0  0  0
 33 28  1  0  0  0
 39 34  1  0  0  0
  8  9  1  0  0  0
 18 20  1  0  0  0
M  END
> <minimizedAffinity>
-6.11335

> <CNNscore>
0.2288354337

> <CNNaffinity>
5.7249178886

> <CNN_VS>
1.3100640774

> <CNNaffinity_variance>
0.1127291173

$$$$
[H]OC(=O)c1c([H])nc(C([H])(C(=O)N([H])c2onc(C([H])([H])c3c([H])c([H])c(N4C([H])([H])C([H])([H])OC([H])([H])C4([H])[H])c([H])c3[H])c2C(F)(F)F)C([H])([H])C([H])([H])[H])nc1[H]


 39 42  0  0  0  0  0  0  0  0999 V2000
   34.7222  -15.6627   36.3434 C   0  0  0  0  0  0  0  0  0  0  0  0
   34.2056  -16.7964   35.9659 O   0  0  0  0  0  0  0  0  0  0  0  0
   34.9548  -17.7903   36.3293 N   0  0  0  0  0  0  0  0  0  0  0  0
   36.0642  -17.3107   37.0050 C   0  0  0  0  0  0  0  0  0  0  0  0
   35.9182  -15.9812   37.0100 C   0  0  0  0  0  0  0  0  0  0  0  0
   33.6545  -13.5531   37.1195 C   0  0  0  0  0  0  0  0  0  0  0  0
   33.6286  -13.8696   38.3411 O   0  0  0  0  0  0  0  0  0  0  0  0
   34.1702  -14.3825   36.1164 N   0  0  0  0  0  0  0  0  0  0  0  0
   34.1361  -14.0005   35.1227 H   0  0  0  0  0  0  0  0  0  0  0  0
   33.1005  -12.2257   36.7681 C   0  0  0  0  0  0  0  0  0  0  0  0
   31.7704  -11.9932   37.3467 C   0  0  0  0  0  0  0  0  0  0  0  0
   31.3990  -12.6489   38.4874 N   0  0  0  0  0  0  0  0  0  0  0  0
   30.1826  -12.4467   39.0235 C   0  0  0  0  0  0  0  0  0  0  0  0
   29.2647  -11.5862   38.4641 C   0  0  0  0  0  0  0  0  0  0  0  0
   29.6427  -10.9217   37.3074 C   0  0  0  0  0  0  0  0  0  0  0  0
   30.8634  -11.1609   36.8185 N   0  0  0  0  0  0  0  0  0  0  0  0
   27.9577  -11.4085   39.0811 C   0  0  0  0  0  0  0  0  0  0  0  0
   27.7158  -10.3063   39.8604 O   0  0  0  0  0  0  0  0  0  0  0  0
   27.0517  -12.2818   38.8893 O   0  0  0  0  0  0  0  0  0  0  0  0
   27.4998   -9.4032   39.5074 H   0  0  0  0  0  0  0  0  0  0  0  0
   33.4797   -9.9058   37.6772 C   0  0  0  0  0  0  0  0  0  0  0  0
   34.0849  -11.1027   37.0234 C   0  0  0  0  0  0  0  0  0  0  0  0
   36.7726  -14.9132   37.5349 C   0  0  0  0  0  0  0  0  0  0  0  0
   38.1203  -15.2920   37.2390 F   0  0  0  0  0  0  0  0  0  0  0  0
   36.5571  -13.7134   36.9435 F   0  0  0  0  0  0  0  0  0  0  0  0
   36.8262  -14.7760   38.8881 F   0  0  0  0  0  0  0  0  0  0  0  0
   37.0564  -18.1880   37.6195 C   0  0  0  0  0  0  0  0  0  0  0  0
   37.8129  -19.0331   36.6746 C   0  0  0  0  0  0  0  0  0  0  0  0
   38.1372  -18.6448   35.4158 C   0  0  0  0  0  0  0  0  0  0  0  0
   38.8648  -19.5071   34.5799 C   0  0  0  0  0  0  0  0  0  0  0  0
   39.2681  -20.7573   34.9998 C   0  0  0  0  0  0  0  0  0  0  0  0
   38.9377  -21.1589   36.2872 C   0  0  0  0  0  0  0  0  0  0  0  0
   38.2337  -20.3095   37.0802 C   0  0  0  0  0  0  0  0  0  0  0  0
   40.0093  -21.6348   34.1777 N   0  0  0  0  0  0  0  0  0  0  0  0
   39.9909  -23.0681   34.3888 C   0  0  0  0  0  0  0  0  0  0  0  0
   40.2703  -23.6919   33.0177 C   0  0  0  0  0  0  0  0  0  0  0  0
   41.5785  -23.4146   32.6958 O   0  0  0  0  0  0  0  0  0  0  0  0
   42.0141  -22.1492   33.0195 C   0  0  0  0  0  0  0  0  0  0  0  0
   40.8446  -21.1697   33.0727 C   0  0  0  0  0  0  0  0  0  0  0  0
 21 22  1  0  0  0
 22 10  1  0  0  0
 10  6  1  0  0  0
  6  7  2  0  0  0
  6  8  1  0  0  0
  8  1  1  0  0  0
  1  2  1  0  0  0
  2  3  1  0  0  0
  3  4  2  0  0  0
  4 27  1  0  0  0
 27 28  1  0  0  0
 28 29  2  0  0  0
 29 30  1  0  0  0
 30 31  2  0  0  0
 31 32  1  0  0  0
 32 33  2  0  0  0
 31 34  1  0  0  0
 34 35  1  0  0  0
 35 36  1  0  0  0
 36 37  1  0  0  0
 37 38  1  0  0  0
 38 39  1  0  0  0
  4  5  1  0  0  0
  5 23  1  0  0  0
 23 24  1  0  0  0
 23 25  1  0  0  0
 23 26  1  0  0  0
 10 11  1  0  0  0
 11 12  2  0  0  0
 12 13  1  0  0  0
 13 14  2  0  0  0
 14 17  1  0  0  0
 17 18  1  0  0  0
 17 19  2  0  0  0
 14 15  1  0  0  0
 15 16  2  0  0  0
  5  1  2  0  0  0
 16 11  1  0  0  0
 33 28  1  0  0  0
 39 34  1  0  0  0
  8  9  1  0  0  0
 18 20  1  0  0  0
M  END
> <minimizedAffinity>
-6.62622

> <CNNscore>
0.2188924104

> <CNNaffinity>
6.0745396614

> <CNN_VS>
1.3296706676

> <CNNaffinity_variance>
0.2388881892

$$$$
[H]OC(=O)c1c([H])nc(C([H])(C(=O)N([H])c2onc(C([H])([H])c3c([H])c([H])c(N4C([H])([H])C([H])([H])OC([H])([H])C4([H])[H])c([H])c3[H])c2C(F)(F)F)C([H])([H])C([H])([H])[H])nc1[H]


 39 42  0  0  0  0  0  0  0  0999 V2000
   38.2535  -18.5249   35.9116 C   0  0  0  0  0  0  0  0  0  0  0  0
   38.1307  -17.9139   37.0545 O   0  0  0  0  0  0  0  0  0  0  0  0
   36.9942  -17.2942   37.1283 N   0  0  0  0  0  0  0  0  0  0  0  0
   36.2826  -17.4915   35.9569 C   0  0  0  0  0  0  0  0  0  0  0  0
   37.0726  -18.2582   35.1973 C   0  0  0  0  0  0  0  0  0  0  0  0
   40.6791  -19.0812   35.9220 C   0  0  0  0  0  0  0  0  0  0  0  0
   41.0126  -18.1658   36.7243 O   0  0  0  0  0  0  0  0  0  0  0  0
   39.3623  -19.2961   35.4977 N   0  0  0  0  0  0  0  0  0  0  0  0
   39.2095  -20.1027   34.8192 H   0  0  0  0  0  0  0  0  0  0  0  0
   41.7670  -19.9539   35.4248 C   0  0  0  0  0  0  0  0  0  0  0  0
   41.7946  -21.2635   36.0899 C   0  0  0  0  0  0  0  0  0  0  0  0
   42.9694  -21.9566   36.1821 N   0  0  0  0  0  0  0  0  0  0  0  0
   43.0055  -23.1577   36.7852 C   0  0  0  0  0  0  0  0  0  0  0  0
   41.8846  -23.7421   37.3312 C   0  0  0  0  0  0  0  0  0  0  0  0
   40.6939  -23.0379   37.2372 C   0  0  0  0  0  0  0  0  0  0  0  0
   40.7163  -21.8490   36.6270 N   0  0  0  0  0  0  0  0  0  0  0  0
   41.9769  -25.0487   37.9674 C   0  0  0  0  0  0  0  0  0  0  0  0
   42.6345  -26.0711   37.3327 O   0  0  0  0  0  0  0  0  0  0  0  0
   41.4438  -25.2273   39.1094 O   0  0  0  0  0  0  0  0  0  0  0  0
   43.6216  -26.1816   37.3164 H   0  0  0  0  0  0  0  0  0  0  0  0
   41.2080  -21.2888   33.3613 C   0  0  0  0  0  0  0  0  0  0  0  0
   41.7980  -20.0339   33.9121 C   0  0  0  0  0  0  0  0  0  0  0  0
   36.9041  -18.7777   33.8379 C   0  0  0  0  0  0  0  0  0  0  0  0
   36.6028  -17.6507   33.0093 F   0  0  0  0  0  0  0  0  0  0  0  0
   38.0261  -19.3504   33.3387 F   0  0  0  0  0  0  0  0  0  0  0  0
   35.8215  -19.5711   33.6113 F   0  0  0  0  0  0  0  0  0  0  0  0
   34.9237  -16.9939   35.7636 C   0  0  0  0  0  0  0  0  0  0  0  0
   33.8848  -18.0380   35.6648 C   0  0  0  0  0  0  0  0  0  0  0  0
   32.8583  -17.9928   34.7790 C   0  0  0  0  0  0  0  0  0  0  0  0
   31.9130  -19.0304   34.7451 C   0  0  0  0  0  0  0  0  0  0  0  0
   31.9914  -20.1130   35.5959 C   0  0  0  0  0  0  0  0  0  0  0  0
   33.0400  -20.1629   36.5046 C   0  0  0  0  0  0  0  0  0  0  0  0
   33.9442  -19.1491   36.5208 C   0  0  0  0  0  0  0  0  0  0  0  0
   31.0564  -21.1715   35.5702 N   0  0  0  0  0  0  0  0  0  0  0  0
   29.7751  -21.0673   36.2387 C   0  0  0  0  0  0  0  0  0  0  0  0
   28.8282  -21.9898   35.4644 C   0  0  0  0  0  0  0  0  0  0  0  0
   29.2278  -23.2847   35.6999 O   0  0  0  0  0  0  0  0  0  0  0  0
   30.5889  -23.4920   35.7179 C   0  0  0  0  0  0  0  0  0  0  0  0
   31.3098  -22.4362   34.8839 C   0  0  0  0  0  0  0  0  0  0  0  0
 21 22  1  0  0  0
 22 10  1  0  0  0
 10  6  1  0  0  0
  6  7  2  0  0  0
  6  8  1  0  0  0
  8  1  1  0  0  0
  1  2  1  0  0  0
  2  3  1  0  0  0
  3  4  2  0  0  0
  4 27  1  0  0  0
 27 28  1  0  0  0
 28 29  2  0  0  0
 29 30  1  0  0  0
 30 31  2  0  0  0
 31 32  1  0  0  0
 32 33  2  0  0  0
 31 34  1  0  0  0
 34 35  1  0  0  0
 35 36  1  0  0  0
 36 37  1  0  0  0
 37 38  1  0  0  0
 38 39  1  0  0  0
  4  5  1  0  0  0
  5 23  1  0  0  0
 23 24  1  0  0  0
 23 25  1  0  0  0
 23 26  1  0  0  0
 10 11  1  0  0  0
 11 12  2  0  0  0
 12 13  1  0  0  0
 13 14  2  0  0  0
 14 17  1  0  0  0
 17 18  1  0  0  0
 17 19  2  0  0  0
 14 15  1  0  0  0
 15 16  2  0  0  0
  5  1  2  0  0  0
 16 11  1  0  0  0
 33 28  1  0  0  0
 39 34  1  0  0  0
  8  9  1  0  0  0
 18 20  1  0  0  0
M  END
> <minimizedAffinity>
-5.06484

> <CNNscore>
0.2046429217

> <CNNaffinity>
5.5793104172

> <CNN_VS>
1.1417664289

> <CNNaffinity_variance>
0.3080792725

$$$$
[H]OC(=O)c1c([H])nc(C([H])(C(=O)N([H])c2onc(C([H])([H])c3c([H])c([H])c(N4C([H])([H])C([H])([H])OC([H])([H])C4([H])[H])c([H])c3[H])c2C(F)(F)F)C([H])([H])C([H])([H])[H])nc1[H]


 39 42  0  0  0  0  0  0  0  0999 V2000
   37.4086  -18.4930   34.7795 C   0  0  0  0  0  0  0  0  0  0  0  0
   36.8639  -18.7116   33.6176 O   0  0  0  0  0  0  0  0  0  0  0  0
   35.5847  -18.5044   33.6598 N   0  0  0  0  0  0  0  0  0  0  0  0
   35.2208  -18.1148   34.9378 C   0  0  0  0  0  0  0  0  0  0  0  0
   36.3615  -18.1112   35.6362 C   0  0  0  0  0  0  0  0  0  0  0  0
   39.3920  -19.8104   35.5031 C   0  0  0  0  0  0  0  0  0  0  0  0
   38.7720  -20.9008   35.6430 O   0  0  0  0  0  0  0  0  0  0  0  0
   38.7808  -18.6204   35.0901 N   0  0  0  0  0  0  0  0  0  0  0  0
   39.4129  -17.7671   35.0090 H   0  0  0  0  0  0  0  0  0  0  0  0
   40.8422  -19.8309   35.8013 C   0  0  0  0  0  0  0  0  0  0  0  0
   41.5699  -20.8381   35.0175 C   0  0  0  0  0  0  0  0  0  0  0  0
   41.2029  -21.0920   33.7253 N   0  0  0  0  0  0  0  0  0  0  0  0
   41.8594  -22.0144   33.0000 C   0  0  0  0  0  0  0  0  0  0  0  0
   42.9146  -22.7378   33.5091 C   0  0  0  0  0  0  0  0  0  0  0  0
   43.2858  -22.4791   34.8197 C   0  0  0  0  0  0  0  0  0  0  0  0
   42.5983  -21.5521   35.4938 N   0  0  0  0  0  0  0  0  0  0  0  0
   43.5872  -23.7307   32.6831 C   0  0  0  0  0  0  0  0  0  0  0  0
   43.9270  -23.4248   31.3902 O   0  0  0  0  0  0  0  0  0  0  0  0
   43.8527  -24.8753   33.1727 O   0  0  0  0  0  0  0  0  0  0  0  0
   44.7241  -22.8932   31.1279 H   0  0  0  0  0  0  0  0  0  0  0  0
   42.2962  -18.2056   34.5377 C   0  0  0  0  0  0  0  0  0  0  0  0
   41.4622  -18.4494   35.7507 C   0  0  0  0  0  0  0  0  0  0  0  0
   36.6347  -17.8251   37.0468 C   0  0  0  0  0  0  0  0  0  0  0  0
   37.2762  -18.9886   37.5779 F   0  0  0  0  0  0  0  0  0  0  0  0
   37.4828  -16.7843   37.2293 F   0  0  0  0  0  0  0  0  0  0  0  0
   35.5584  -17.7147   37.8727 F   0  0  0  0  0  0  0  0  0  0  0  0
   33.8587  -17.7223   35.2873 C   0  0  0  0  0  0  0  0  0  0  0  0
   32.9470  -18.8409   35.5980 C   0  0  0  0  0  0  0  0  0  0  0  0
   33.2712  -19.8640   36.4279 C   0  0  0  0  0  0  0  0  0  0  0  0
   32.3437  -20.8886   36.6760 C   0  0  0  0  0  0  0  0  0  0  0  0
   31.0928  -20.8927   36.0954 C   0  0  0  0  0  0  0  0  0  0  0  0
   30.7571  -19.8479   35.2448 C   0  0  0  0  0  0  0  0  0  0  0  0
   31.6686  -18.8663   35.0184 C   0  0  0  0  0  0  0  0  0  0  0  0
   30.1424  -21.9087   36.3405 N   0  0  0  0  0  0  0  0  0  0  0  0
   30.5379  -23.2931   36.5033 C   0  0  0  0  0  0  0  0  0  0  0  0
   29.4660  -23.9274   37.3955 C   0  0  0  0  0  0  0  0  0  0  0  0
   28.3034  -23.9920   36.6633 O   0  0  0  0  0  0  0  0  0  0  0  0
   28.0358  -22.8943   35.8762 C   0  0  0  0  0  0  0  0  0  0  0  0
   28.7087  -21.6454   36.4395 C   0  0  0  0  0  0  0  0  0  0  0  0
 21 22  1  0  0  0
 22 10  1  0  0  0
 10  6  1  0  0  0
  6  7  2  0  0  0
  6  8  1  0  0  0
  8  1  1  0  0  0
  1  2  1  0  0  0
  2  3  1  0  0  0
  3  4  2  0  0  0
  4 27  1  0  0  0
 27 28  1  0  0  0
 28 29  2  0  0  0
 29 30  1  0  0  0
 30 31  2  0  0  0
 31 32  1  0  0  0
 32 33  2  0  0  0
 31 34  1  0  0  0
 34 35  1  0  0  0
 35 36  1  0  0  0
 36 37  1  0  0  0
 37 38  1  0  0  0
 38 39  1  0  0  0
  4  5  1  0  0  0
  5 23  1  0  0  0
 23 24  1  0  0  0
 23 25  1  0  0  0
 23 26  1  0  0  0
 10 11  1  0  0  0
 11 12  2  0  0  0
 12 13  1  0  0  0
 13 14  2  0  0  0
 14 17  1  0  0  0
 17 18  1  0  0  0
 17 19  2  0  0  0
 14 15  1  0  0  0
 15 16  2  0  0  0
  5  1  2  0  0  0
 16 11  1  0  0  0
 33 28  1  0  0  0
 39 34  1  0  0  0
  8  9  1  0  0  0
 18 20  1  0  0  0
M  END
> <minimizedAffinity>
-6.15321

> <CNNscore>
0.1649769992

> <CNNaffinity>
5.1829891205

> <CNN_VS>
0.8550739884

> <CNNaffinity_variance>
0.1920564175

$$$$
[H]OC(=O)c1c([H])nc(C([H])(C(=O)N([H])c2onc(C([H])([H])c3c([H])c([H])c(N4C([H])([H])C([H])([H])OC([H])([H])C4([H])[H])c([H])c3[H])c2C(F)(F)F)C([H])([H])C([H])([H])[H])nc1[H]


 39 42  0  0  0  0  0  0  0  0999 V2000
   34.3887  -17.1430   36.0233 C   0  0  0  0  0  0  0  0  0  0  0  0
   33.5374  -17.4802   35.0980 O   0  0  0  0  0  0  0  0  0  0  0  0
   33.5681  -18.7587   34.8845 N   0  0  0  0  0  0  0  0  0  0  0  0
   34.5036  -19.3451   35.7201 C   0  0  0  0  0  0  0  0  0  0  0  0
   35.0170  -18.3334   36.4285 C   0  0  0  0  0  0  0  0  0  0  0  0
   35.6119  -14.9758   36.0273 C   0  0  0  0  0  0  0  0  0  0  0  0
   36.4186  -15.2874   35.1080 O   0  0  0  0  0  0  0  0  0  0  0  0
   34.6153  -15.8348   36.5058 N   0  0  0  0  0  0  0  0  0  0  0  0
   33.9962  -15.4541   37.2844 H   0  0  0  0  0  0  0  0  0  0  0  0
   35.7593  -13.6209   36.6058 C   0  0  0  0  0  0  0  0  0  0  0  0
   34.4707  -12.9437   36.8038 C   0  0  0  0  0  0  0  0  0  0  0  0
   34.4059  -11.8109   37.5663 N   0  0  0  0  0  0  0  0  0  0  0  0
   33.2313  -11.1852   37.7574 C   0  0  0  0  0  0  0  0  0  0  0  0
   32.0549  -11.6422   37.2068 C   0  0  0  0  0  0  0  0  0  0  0  0
   32.1220  -12.7911   36.4336 C   0  0  0  0  0  0  0  0  0  0  0  0
   33.3157  -13.3717   36.2774 N   0  0  0  0  0  0  0  0  0  0  0  0
   30.8079  -10.9308   37.4508 C   0  0  0  0  0  0  0  0  0  0  0  0
   30.8383   -9.6459   37.9290 O   0  0  0  0  0  0  0  0  0  0  0  0
   29.7001  -11.5124   37.2167 O   0  0  0  0  0  0  0  0  0  0  0  0
   31.0079   -8.8413   37.3716 H   0  0  0  0  0  0  0  0  0  0  0  0
   38.0931  -13.3694   37.5238 C   0  0  0  0  0  0  0  0  0  0  0  0
   36.6524  -13.6089   37.8295 C   0  0  0  0  0  0  0  0  0  0  0  0
   36.0699  -18.2977   37.4465 C   0  0  0  0  0  0  0  0  0  0  0  0
   35.4954  -18.8377   38.6407 F   0  0  0  0  0  0  0  0  0  0  0  0
   37.1420  -19.0664   37.1375 F   0  0  0  0  0  0  0  0  0  0  0  0
   36.4704  -17.0698   37.8760 F   0  0  0  0  0  0  0  0  0  0  0  0
   34.7132  -20.7886   35.7831 C   0  0  0  0  0  0  0  0  0  0  0  0
   34.5425  -21.3863   37.1220 C   0  0  0  0  0  0  0  0  0  0  0  0
   33.3694  -21.3766   37.8034 C   0  0  0  0  0  0  0  0  0  0  0  0
   33.2887  -21.9726   39.0722 C   0  0  0  0  0  0  0  0  0  0  0  0
   34.3788  -22.5779   39.6614 C   0  0  0  0  0  0  0  0  0  0  0  0
   35.5815  -22.5896   38.9678 C   0  0  0  0  0  0  0  0  0  0  0  0
   35.6384  -22.0077   37.7414 C   0  0  0  0  0  0  0  0  0  0  0  0
   34.3149  -23.1918   40.9320 N   0  0  0  0  0  0  0  0  0  0  0  0
   33.2610  -24.1271   41.2697 C   0  0  0  0  0  0  0  0  0  0  0  0
   33.8573  -25.0567   42.3315 C   0  0  0  0  0  0  0  0  0  0  0  0
   34.0325  -24.3169   43.4777 O   0  0  0  0  0  0  0  0  0  0  0  0
   34.4990  -23.0348   43.2914 C   0  0  0  0  0  0  0  0  0  0  0  0
   35.2884  -22.9284   41.9893 C   0  0  0  0  0  0  0  0  0  0  0  0
 21 22  1  0  0  0
 22 10  1  0  0  0
 10  6  1  0  0  0
  6  7  2  0  0  0
  6  8  1  0  0  0
  8  1  1  0  0  0
  1  2  1  0  0  0
  2  3  1  0  0  0
  3  4  2  0  0  0
  4 27  1  0  0  0
 27 28  1  0  0  0
 28 29  2  0  0  0
 29 30  1  0  0  0
 30 31  2  0  0  0
 31 32  1  0  0  0
 32 33  2  0  0  0
 31 34  1  0  0  0
 34 35  1  0  0  0
 35 36  1  0  0  0
 36 37  1  0  0  0
 37 38  1  0  0  0
 38 39  1  0  0  0
  4  5  1  0  0  0
  5 23  1  0  0  0
 23 24  1  0  0  0
 23 25  1  0  0  0
 23 26  1  0  0  0
 10 11  1  0  0  0
 11 12  2  0  0  0
 12 13  1  0  0  0
 13 14  2  0  0  0
 14 17  1  0  0  0
 17 18  1  0  0  0
 17 19  2  0  0  0
 14 15  1  0  0  0
 15 16  2  0  0  0
  5  1  2  0  0  0
 16 11  1  0  0  0
 33 28  1  0  0  0
 39 34  1  0  0  0
  8  9  1  0  0  0
 18 20  1  0  0  0
M  END
> <minimizedAffinity>
-6.40619

> <CNNscore>
0.1542401016

> <CNNaffinity>
5.7241077423

> <CNN_VS>
0.8828869462

> <CNNaffinity_variance>
0.0556584485

$$$$
[H]OC(=O)[C@]([H])(C(=O)N1C([H])([H])C([H])([H])N(c2c([H])c([H])c(C(F)(F)F)c([H])c2[H])C([H])([H])C1([H])[H])[C@@]([H])(C([H])([H])[H])[C@@]1([H])C([H])([H])[C@@]1([H])c1nc([H])c([H])c([H])c1[H]


 34 37  0  0  0  0  0  0  0  0999 V2000
   35.7903  -20.9821   37.2505 C   0  0  0  0  0  0  0  0  0  0  0  0
   36.3869  -21.0793   38.3835 O   0  0  0  0  0  0  0  0  0  0  0  0
   35.7065  -19.7281   36.6751 N   0  0  0  0  0  0  0  0  0  0  0  0
   35.0918  -19.2092   35.5208 C   0  0  0  0  0  0  0  0  0  0  0  0
   34.4646  -17.8224   35.7018 C   0  0  0  0  0  0  0  0  0  0  0  0
   35.3892  -16.9180   36.3319 N   0  0  0  0  0  0  0  0  0  0  0  0
   36.7206  -17.4554   36.6337 C   0  0  0  0  0  0  0  0  0  0  0  0
   36.5291  -18.6924   37.4240 C   0  0  0  0  0  0  0  0  0  0  0  0
   35.0398  -15.5872   36.6270 C   0  0  0  0  0  0  0  0  0  0  0  0
   35.8098  -14.6860   37.3315 C   0  0  0  0  0  0  0  0  0  0  0  0
   35.4378  -13.4009   37.5785 C   0  0  0  0  0  0  0  0  0  0  0  0
   34.2131  -12.9766   37.0899 C   0  0  0  0  0  0  0  0  0  0  0  0
   33.3960  -13.8326   36.3750 C   0  0  0  0  0  0  0  0  0  0  0  0
   33.8064  -15.1166   36.1502 C   0  0  0  0  0  0  0  0  0  0  0  0
   33.7108  -11.6012   37.3388 C   0  0  0  0  0  0  0  0  0  0  0  0
   33.5673  -11.4240   38.7073 F   0  0  0  0  0  0  0  0  0  0  0  0
   34.5749  -10.6664   36.7813 F   0  0  0  0  0  0  0  0  0  0  0  0
   32.4641  -11.5106   36.7244 F   0  0  0  0  0  0  0  0  0  0  0  0
   35.2833  -22.3209   36.7455 C   0  0  0  0  0  0  0  0  0  0  0  0
   36.2361  -23.2251   37.5564 C   0  0  0  0  0  0  0  0  0  0  0  0
   37.5690  -23.2760   37.3524 O   0  0  0  0  0  0  0  0  0  0  0  0
   35.7075  -23.9120   38.4276 O   0  0  0  0  0  0  0  0  0  0  0  0
   38.0669  -23.8119   36.6777 H   0  0  0  0  0  0  0  0  0  0  0  0
   33.3769  -21.3095   38.0078 C   0  0  0  0  0  0  0  0  0  0  0  0
   33.9231  -22.5011   37.2145 C   0  0  0  0  0  0  0  0  0  0  0  0
   32.8430  -23.1857   36.4707 C   0  0  0  0  0  0  0  0  0  0  0  0
   32.7515  -24.7087   36.6231 C   0  0  0  0  0  0  0  0  0  0  0  0
   31.6986  -23.8121   37.1841 C   0  0  0  0  0  0  0  0  0  0  0  0
   31.3550  -24.0547   38.5620 C   0  0  0  0  0  0  0  0  0  0  0  0
   31.7316  -25.2759   39.1435 C   0  0  0  0  0  0  0  0  0  0  0  0
   31.4004  -25.5992   40.4506 C   0  0  0  0  0  0  0  0  0  0  0  0
   30.6847  -24.6954   41.1999 C   0  0  0  0  0  0  0  0  0  0  0  0
   30.3155  -23.4863   40.6239 C   0  0  0  0  0  0  0  0  0  0  0  0
   30.6766  -23.2633   39.3661 N   0  0  0  0  0  0  0  0  0  0  0  0
 24 25  1  0  0  0
 25 19  1  0  0  0
 19  1  1  0  0  0
  1  2  2  0  0  0
  1  3  1  0  0  0
  3  4  1  0  0  0
  4  5  1  0  0  0
  5  6  1  0  0  0
  6  7  1  0  0  0
  7  8  1  0  0  0
  6  9  1  0  0  0
  9 10  2  0  0  0
 10 11  1  0  0  0
 11 12  2  0  0  0
 12 13  1  0  0  0
 13 14  2  0  0  0
 12 15  1  0  0  0
 15 16  1  0  0  0
 15 17  1  0  0  0
 15 18  1  0  0  0
 19 20  1  0  0  0
 20 21  1  0  0  0
 20 22  2  0  0  0
 25 26  1  0  0  0
 26 27  1  0  0  0
 27 28  1  0  0  0
 28 29  1  0  0  0
 29 30  2  0  0  0
 30 31  1  0  0  0
 31 32  2  0  0  0
 32 33  1  0  0  0
 33 34  2  0  0  0
  8  3  1  0  0  0
 14  9  1  0  0  0
 28 26  1  0  0  0
 34 29  1  0  0  0
 21 23  1  0  0  0
M  END
> <minimizedAffinity>
-5.29616

> <CNNscore>
0.3404555619

> <CNNaffinity>
5.1914939880

> <CNN_VS>
1.7674729824

> <CNNaffinity_variance>
0.2107588053

$$$$
[H]OC(=O)[C@]([H])(C(=O)N1C([H])([H])C([H])([H])N(c2c([H])c([H])c(C(F)(F)F)c([H])c2[H])C([H])([H])C1([H])[H])[C@@]([H])(C([H])([H])[H])[C@@]1([H])C([H])([H])[C@@]1([H])c1nc([H])c([H])c([H])c1[H]


 34 37  0  0  0  0  0  0  0  0999 V2000
   33.8443  -21.9246   38.0367 C   0  0  0  0  0  0  0  0  0  0  0  0
   33.8510  -21.8990   39.3206 O   0  0  0  0  0  0  0  0  0  0  0  0
   34.4290  -20.8639   37.3707 N   0  0  0  0  0  0  0  0  0  0  0  0
   34.5566  -20.4945   36.0192 C   0  0  0  0  0  0  0  0  0  0  0  0
   34.4133  -18.9918   35.7531 C   0  0  0  0  0  0  0  0  0  0  0  0
   35.2396  -18.2295   36.6508 N   0  0  0  0  0  0  0  0  0  0  0  0
   36.0647  -19.0002   37.5877 C   0  0  0  0  0  0  0  0  0  0  0  0
   35.1637  -19.9242   38.3129 C   0  0  0  0  0  0  0  0  0  0  0  0
   35.2661  -16.8229   36.6198 C   0  0  0  0  0  0  0  0  0  0  0  0
   34.3551  -16.0107   35.9784 C   0  0  0  0  0  0  0  0  0  0  0  0
   34.4110  -14.6514   35.9900 C   0  0  0  0  0  0  0  0  0  0  0  0
   35.4450  -14.0523   36.6904 C   0  0  0  0  0  0  0  0  0  0  0  0
   36.3893  -14.8124   37.3553 C   0  0  0  0  0  0  0  0  0  0  0  0
   36.2980  -16.1754   37.3173 C   0  0  0  0  0  0  0  0  0  0  0  0
   35.6039  -12.5761   36.7310 C   0  0  0  0  0  0  0  0  0  0  0  0
   34.6964  -12.0588   37.6440 F   0  0  0  0  0  0  0  0  0  0  0  0
   36.9139  -12.2431   37.0540 F   0  0  0  0  0  0  0  0  0  0  0  0
   35.3020  -12.1037   35.4559 F   0  0  0  0  0  0  0  0  0  0  0  0
   33.1755  -23.1708   37.4852 C   0  0  0  0  0  0  0  0  0  0  0  0
   34.3408  -24.1556   37.7208 C   0  0  0  0  0  0  0  0  0  0  0  0
   35.3898  -23.8900   38.5270 O   0  0  0  0  0  0  0  0  0  0  0  0
   34.2615  -25.2282   37.1263 O   0  0  0  0  0  0  0  0  0  0  0  0
   36.2171  -23.3811   38.3105 H   0  0  0  0  0  0  0  0  0  0  0  0
   30.7602  -22.7882   38.0046 C   0  0  0  0  0  0  0  0  0  0  0  0
   32.0642  -23.5144   38.3507 C   0  0  0  0  0  0  0  0  0  0  0  0
   31.7938  -24.8582   38.9069 C   0  0  0  0  0  0  0  0  0  0  0  0
   30.3392  -25.1806   39.2692 C   0  0  0  0  0  0  0  0  0  0  0  0
   31.0222  -25.8671   38.1337 C   0  0  0  0  0  0  0  0  0  0  0  0
   30.2938  -25.8722   36.8908 C   0  0  0  0  0  0  0  0  0  0  0  0
   31.0167  -25.8240   35.6880 C   0  0  0  0  0  0  0  0  0  0  0  0
   30.3857  -25.7834   34.4540 C   0  0  0  0  0  0  0  0  0  0  0  0
   29.0115  -25.7938   34.4072 C   0  0  0  0  0  0  0  0  0  0  0  0
   28.2979  -25.8446   35.5981 C   0  0  0  0  0  0  0  0  0  0  0  0
   28.9869  -25.8808   36.7322 N   0  0  0  0  0  0  0  0  0  0  0  0
 24 25  1  0  0  0
 25 19  1  0  0  0
 19  1  1  0  0  0
  1  2  2  0  0  0
  1  3  1  0  0  0
  3  4  1  0  0  0
  4  5  1  0  0  0
  5  6  1  0  0  0
  6  7  1  0  0  0
  7  8  1  0  0  0
  6  9  1  0  0  0
  9 10  2  0  0  0
 10 11  1  0  0  0
 11 12  2  0  0  0
 12 13  1  0  0  0
 13 14  2  0  0  0
 12 15  1  0  0  0
 15 16  1  0  0  0
 15 17  1  0  0  0
 15 18  1  0  0  0
 19 20  1  0  0  0
 20 21  1  0  0  0
 20 22  2  0  0  0
 25 26  1  0  0  0
 26 27  1  0  0  0
 27 28  1  0  0  0
 28 29  1  0  0  0
 29 30  2  0  0  0
 30 31  1  0  0  0
 31 32  2  0  0  0
 32 33  1  0  0  0
 33 34  2  0  0  0
  8  3  1  0  0  0
 14  9  1  0  0  0
 28 26  1  0  0  0
 34 29  1  0  0  0
 21 23  1  0  0  0
M  END
> <minimizedAffinity>
-5.09991

> <CNNscore>
0.3030911088

> <CNNaffinity>
4.7434811592

> <CNN_VS>
1.4377069473

> <CNNaffinity_variance>
0.1913195401

$$$$
[H]OC(=O)[C@]([H])(C(=O)N1C([H])([H])C([H])([H])N(c2c([H])c([H])c(C(F)(F)F)c([H])c2[H])C([H])([H])C1([H])[H])[C@@]([H])(C([H])([H])[H])[C@@]1([H])C([H])([H])[C@@]1([H])c1nc([H])c([H])c([H])c1[H]


 34 37  0  0  0  0  0  0  0  0999 V2000
   39.7172  -19.6305   35.2427 C   0  0  0  0  0  0  0  0  0  0  0  0
   39.8271  -20.3641   36.2909 O   0  0  0  0  0  0  0  0  0  0  0  0
   38.4950  -19.0303   35.0048 N   0  0  0  0  0  0  0  0  0  0  0  0
   37.9662  -18.2420   33.9663 C   0  0  0  0  0  0  0  0  0  0  0  0
   36.5047  -18.5450   33.6175 C   0  0  0  0  0  0  0  0  0  0  0  0
   35.6896  -18.5791   34.8025 N   0  0  0  0  0  0  0  0  0  0  0  0
   36.3708  -18.2878   36.0688 C   0  0  0  0  0  0  0  0  0  0  0  0
   37.5307  -19.2024   36.1670 C   0  0  0  0  0  0  0  0  0  0  0  0
   34.3119  -18.8604   34.7466 C   0  0  0  0  0  0  0  0  0  0  0  0
   33.7053  -19.7682   33.9044 C   0  0  0  0  0  0  0  0  0  0  0  0
   32.3684  -20.0204   33.8976 C   0  0  0  0  0  0  0  0  0  0  0  0
   31.5738  -19.3228   34.7924 C   0  0  0  0  0  0  0  0  0  0  0  0
   32.1229  -18.4002   35.6635 C   0  0  0  0  0  0  0  0  0  0  0  0
   33.4706  -18.1752   35.6370 C   0  0  0  0  0  0  0  0  0  0  0  0
   30.1009  -19.5094   34.8336 C   0  0  0  0  0  0  0  0  0  0  0  0
   29.8309  -20.8070   35.2436 F   0  0  0  0  0  0  0  0  0  0  0  0
   29.5210  -18.5671   35.6745 F   0  0  0  0  0  0  0  0  0  0  0  0
   29.6355  -19.3255   33.5337 F   0  0  0  0  0  0  0  0  0  0  0  0
   41.0079  -19.5597   34.4468 C   0  0  0  0  0  0  0  0  0  0  0  0
   41.6432  -18.3613   35.1839 C   0  0  0  0  0  0  0  0  0  0  0  0
   41.3371  -18.0194   36.4529 O   0  0  0  0  0  0  0  0  0  0  0  0
   42.4712  -17.7183   34.5426 O   0  0  0  0  0  0  0  0  0  0  0  0
   40.5732  -17.4676   36.7728 H   0  0  0  0  0  0  0  0  0  0  0  0
   41.6252  -21.8454   33.6437 C   0  0  0  0  0  0  0  0  0  0  0  0
   41.7765  -20.7598   34.7143 C   0  0  0  0  0  0  0  0  0  0  0  0
   43.1238  -20.7973   35.3240 C   0  0  0  0  0  0  0  0  0  0  0  0
   43.1938  -20.9905   36.8435 C   0  0  0  0  0  0  0  0  0  0  0  0
   43.6665  -22.0526   35.9077 C   0  0  0  0  0  0  0  0  0  0  0  0
   43.1511  -23.3730   36.1657 C   0  0  0  0  0  0  0  0  0  0  0  0
   42.1396  -23.5234   37.1278 C   0  0  0  0  0  0  0  0  0  0  0  0
   41.6230  -24.7663   37.4610 C   0  0  0  0  0  0  0  0  0  0  0  0
   42.1139  -25.8838   36.8279 C   0  0  0  0  0  0  0  0  0  0  0  0
   43.1125  -25.7328   35.8739 C   0  0  0  0  0  0  0  0  0  0  0  0
   43.5461  -24.5040   35.6200 N   0  0  0  0  0  0  0  0  0  0  0  0
 24 25  1  0  0  0
 25 19  1  0  0  0
 19  1  1  0  0  0
  1  2  2  0  0  0
  1  3  1  0  0  0
  3  4  1  0  0  0
  4  5  1  0  0  0
  5  6  1  0  0  0
  6  7  1  0  0  0
  7  8  1  0  0  0
  6  9  1  0  0  0
  9 10  2  0  0  0
 10 11  1  0  0  0
 11 12  2  0  0  0
 12 13  1  0  0  0
 13 14  2  0  0  0
 12 15  1  0  0  0
 15 16  1  0  0  0
 15 17  1  0  0  0
 15 18  1  0  0  0
 19 20  1  0  0  0
 20 21  1  0  0  0
 20 22  2  0  0  0
 25 26  1  0  0  0
 26 27  1  0  0  0
 27 28  1  0  0  0
 28 29  1  0  0  0
 29 30  2  0  0  0
 30 31  1  0  0  0
 31 32  2  0  0  0
 32 33  1  0  0  0
 33 34  2  0  0  0
  8  3  1  0  0  0
 14  9  1  0  0  0
 28 26  1  0  0  0
 34 29  1  0  0  0
 21 23  1  0  0  0
M  END
> <minimizedAffinity>
-5.17196

> <CNNscore>
0.2851203680

> <CNNaffinity>
5.0408816338

> <CNN_VS>
1.4372580051

> <CNNaffinity_variance>
0.0912272781

$$$$
[H]OC(=O)[C@]([H])(C(=O)N1C([H])([H])C([H])([H])N(c2c([H])c([H])c(C(F)(F)F)c([H])c2[H])C([H])([H])C1([H])[H])[C@@]([H])(C([H])([H])[H])[C@@]1([H])C([H])([H])[C@@]1([H])c1nc([H])c([H])c([H])c1[H]


 34 37  0  0  0  0  0  0  0  0999 V2000
   39.2659  -21.2741   36.7681 C   0  0  0  0  0  0  0  0  0  0  0  0
   40.4463  -20.7711   36.8188 O   0  0  0  0  0  0  0  0  0  0  0  0
   38.2245  -20.4335   36.4223 N   0  0  0  0  0  0  0  0  0  0  0  0
   36.8277  -20.5758   36.3311 C   0  0  0  0  0  0  0  0  0  0  0  0
   36.0306  -19.3581   36.8120 C   0  0  0  0  0  0  0  0  0  0  0  0
   36.5373  -18.1469   36.2238 N   0  0  0  0  0  0  0  0  0  0  0  0
   37.6494  -18.2986   35.2791 C   0  0  0  0  0  0  0  0  0  0  0  0
   38.7112  -19.0676   35.9665 C   0  0  0  0  0  0  0  0  0  0  0  0
   35.9850  -16.8885   36.5266 C   0  0  0  0  0  0  0  0  0  0  0  0
   36.5196  -15.9575   37.3918 C   0  0  0  0  0  0  0  0  0  0  0  0
   35.9582  -14.7435   37.6411 C   0  0  0  0  0  0  0  0  0  0  0  0
   34.7809  -14.4278   36.9832 C   0  0  0  0  0  0  0  0  0  0  0  0
   34.1960  -15.3187   36.1024 C   0  0  0  0  0  0  0  0  0  0  0  0
   34.7915  -16.5287   35.8812 C   0  0  0  0  0  0  0  0  0  0  0  0
   34.0804  -13.1393   37.2180 C   0  0  0  0  0  0  0  0  0  0  0  0
   33.0908  -12.9926   36.2567 F   0  0  0  0  0  0  0  0  0  0  0  0
   33.5626  -13.1024   38.5071 F   0  0  0  0  0  0  0  0  0  0  0  0
   35.0299  -12.1315   37.0663 F   0  0  0  0  0  0  0  0  0  0  0  0
   39.2517  -22.7545   37.1036 C   0  0  0  0  0  0  0  0  0  0  0  0
   40.7778  -22.9869   37.0908 C   0  0  0  0  0  0  0  0  0  0  0  0
   41.5037  -23.1091   35.9599 O   0  0  0  0  0  0  0  0  0  0  0  0
   41.3172  -23.0501   38.1931 O   0  0  0  0  0  0  0  0  0  0  0  0
   41.6449  -23.9237   35.4060 H   0  0  0  0  0  0  0  0  0  0  0  0
   38.8294  -24.3478   38.9834 C   0  0  0  0  0  0  0  0  0  0  0  0
   38.7457  -22.9127   38.4532 C   0  0  0  0  0  0  0  0  0  0  0  0
   38.9018  -21.9305   39.5483 C   0  0  0  0  0  0  0  0  0  0  0  0
   37.6659  -21.1032   39.9213 C   0  0  0  0  0  0  0  0  0  0  0  0
   38.2213  -22.1255   40.8559 C   0  0  0  0  0  0  0  0  0  0  0  0
   37.2612  -23.0600   41.3857 C   0  0  0  0  0  0  0  0  0  0  0  0
   37.6515  -23.8976   42.4428 C   0  0  0  0  0  0  0  0  0  0  0  0
   36.7978  -24.8506   42.9773 C   0  0  0  0  0  0  0  0  0  0  0  0
   35.5307  -24.9765   42.4584 C   0  0  0  0  0  0  0  0  0  0  0  0
   35.1452  -24.1448   41.4145 C   0  0  0  0  0  0  0  0  0  0  0  0
   36.0296  -23.2618   40.9668 N   0  0  0  0  0  0  0  0  0  0  0  0
 24 25  1  0  0  0
 25 19  1  0  0  0
 19  1  1  0  0  0
  1  2  2  0  0  0
  1  3  1  0  0  0
  3  4  1  0  0  0
  4  5  1  0  0  0
  5  6  1  0  0  0
  6  7  1  0  0  0
  7  8  1  0  0  0
  6  9  1  0  0  0
  9 10  2  0  0  0
 10 11  1  0  0  0
 11 12  2  0  0  0
 12 13  1  0  0  0
 13 14  2  0  0  0
 12 15  1  0  0  0
 15 16  1  0  0  0
 15 17  1  0  0  0
 15 18  1  0  0  0
 19 20  1  0  0  0
 20 21  1  0  0  0
 20 22  2  0  0  0
 25 26  1  0  0  0
 26 27  1  0  0  0
 27 28  1  0  0  0
 28 29  1  0  0  0
 29 30  2  0  0  0
 30 31  1  0  0  0
 31 32  2  0  0  0
 32 33  1  0  0  0
 33 34  2  0  0  0
  8  3  1  0  0  0
 14  9  1  0  0  0
 28 26  1  0  0  0
 34 29  1  0  0  0
 21 23  1  0  0  0
M  END
> <minimizedAffinity>
-5.30401

> <CNNscore>
0.2824534774

> <CNNaffinity>
5.0506057739

> <CNN_VS>
1.4265611172

> <CNNaffinity_variance>
0.1395272166

$$$$
[H]OC(=O)[C@]([H])(C(=O)N1C([H])([H])C([H])([H])N(c2c([H])c([H])c(C(F)(F)F)c([H])c2[H])C([H])([H])C1([H])[H])[C@@]([H])(C([H])([H])[H])[C@@]1([H])C([H])([H])[C@@]1([H])c1nc([H])c([H])c([H])c1[H]


 34 37  0  0  0  0  0  0  0  0999 V2000
   40.0206  -19.1345   35.9732 C   0  0  0  0  0  0  0  0  0  0  0  0
   40.0712  -18.8254   37.2185 O   0  0  0  0  0  0  0  0  0  0  0  0
   38.8469  -18.8685   35.2932 N   0  0  0  0  0  0  0  0  0  0  0  0
   38.3824  -19.1160   33.9884 C   0  0  0  0  0  0  0  0  0  0  0  0
   36.9044  -19.5128   33.9029 C   0  0  0  0  0  0  0  0  0  0  0  0
   36.0831  -18.6027   34.6560 N   0  0  0  0  0  0  0  0  0  0  0  0
   36.7777  -17.4850   35.3047 C   0  0  0  0  0  0  0  0  0  0  0  0
   37.8668  -18.0591   36.1267 C   0  0  0  0  0  0  0  0  0  0  0  0
   34.6889  -18.7675   34.7507 C   0  0  0  0  0  0  0  0  0  0  0  0
   33.8431  -18.0483   35.5684 C   0  0  0  0  0  0  0  0  0  0  0  0
   32.4957  -18.2309   35.6141 C   0  0  0  0  0  0  0  0  0  0  0  0
   31.9451  -19.1962   34.7873 C   0  0  0  0  0  0  0  0  0  0  0  0
   32.7404  -19.9495   33.9437 C   0  0  0  0  0  0  0  0  0  0  0  0
   34.0902  -19.7358   33.9295 C   0  0  0  0  0  0  0  0  0  0  0  0
   30.4886  -19.4867   34.7936 C   0  0  0  0  0  0  0  0  0  0  0  0
   30.3025  -20.8051   35.1837 F   0  0  0  0  0  0  0  0  0  0  0  0
   29.8255  -18.5980   35.6314 F   0  0  0  0  0  0  0  0  0  0  0  0
   30.0393  -19.3205   33.4857 F   0  0  0  0  0  0  0  0  0  0  0  0
   41.3168  -19.7475   35.4749 C   0  0  0  0  0  0  0  0  0  0  0  0
   41.8243  -18.5351   34.6651 C   0  0  0  0  0  0  0  0  0  0  0  0
   41.8253  -17.2710   35.1374 O   0  0  0  0  0  0  0  0  0  0  0  0
   42.2464  -18.7848   33.5383 O   0  0  0  0  0  0  0  0  0  0  0  0
   41.0761  -16.6160   35.1401 H   0  0  0  0  0  0  0  0  0  0  0  0
   42.2217  -21.4261   37.0916 C   0  0  0  0  0  0  0  0  0  0  0  0
   42.1850  -19.9705   36.6146 C   0  0  0  0  0  0  0  0  0  0  0  0
   43.4832  -19.3009   36.8479 C   0  0  0  0  0  0  0  0  0  0  0  0
   43.4600  -18.0075   37.6713 C   0  0  0  0  0  0  0  0  0  0  0  0
   44.0875  -19.2517   38.2057 C   0  0  0  0  0  0  0  0  0  0  0  0
   43.6692  -19.6306   39.5312 C   0  0  0  0  0  0  0  0  0  0  0  0
   42.7560  -18.8070   40.2088 C   0  0  0  0  0  0  0  0  0  0  0  0
   42.3389  -19.0828   41.5021 C   0  0  0  0  0  0  0  0  0  0  0  0
   42.8321  -20.1977   42.1381 C   0  0  0  0  0  0  0  0  0  0  0  0
   43.7332  -21.0132   41.4650 C   0  0  0  0  0  0  0  0  0  0  0  0
   44.0755  -20.6703   40.2290 N   0  0  0  0  0  0  0  0  0  0  0  0
 24 25  1  0  0  0
 25 19  1  0  0  0
 19  1  1  0  0  0
  1  2  2  0  0  0
  1  3  1  0  0  0
  3  4  1  0  0  0
  4  5  1  0  0  0
  5  6  1  0  0  0
  6  7  1  0  0  0
  7  8  1  0  0  0
  6  9  1  0  0  0
  9 10  2  0  0  0
 10 11  1  0  0  0
 11 12  2  0  0  0
 12 13  1  0  0  0
 13 14  2  0  0  0
 12 15  1  0  0  0
 15 16  1  0  0  0
 15 17  1  0  0  0
 15 18  1  0  0  0
 19 20  1  0  0  0
 20 21  1  0  0  0
 20 22  2  0  0  0
 25 26  1  0  0  0
 26 27  1  0  0  0
 27 28  1  0  0  0
 28 29  1  0  0  0
 29 30  2  0  0  0
 30 31  1  0  0  0
 31 32  2  0  0  0
 32 33  1  0  0  0
 33 34  2  0  0  0
  8  3  1  0  0  0
 14  9  1  0  0  0
 28 26  1  0  0  0
 34 29  1  0  0  0
 21 23  1  0  0  0
M  END
> <minimizedAffinity>
-6.36059

> <CNNscore>
0.2672504485

> <CNNaffinity>
5.0985021591

> <CNN_VS>
1.3625769615

> <CNNaffinity_variance>
0.2391818315

$$$$
[H]OC(=O)[C@]([H])(C(=O)N1C([H])([H])C([H])([H])N(c2c([H])c([H])c(C(F)(F)F)c([H])c2[H])C([H])([H])C1([H])[H])[C@@]([H])(C([H])([H])[H])[C@@]1([H])C([H])([H])[C@@]1([H])c1nc([H])c([H])c([H])c1[H]


 34 37  0  0  0  0  0  0  0  0999 V2000
   39.0110  -20.9836   37.9237 C   0  0  0  0  0  0  0  0  0  0  0  0
   38.6943  -21.5550   39.0292 O   0  0  0  0  0  0  0  0  0  0  0  0
   38.0530  -20.1990   37.3095 N   0  0  0  0  0  0  0  0  0  0  0  0
   37.9847  -19.4910   36.0956 C   0  0  0  0  0  0  0  0  0  0  0  0
   36.6208  -19.5513   35.3988 C   0  0  0  0  0  0  0  0  0  0  0  0
   35.5589  -19.2429   36.3192 N   0  0  0  0  0  0  0  0  0  0  0  0
   35.9635  -18.9002   37.6872 C   0  0  0  0  0  0  0  0  0  0  0  0
   36.8243  -19.9985   38.1815 C   0  0  0  0  0  0  0  0  0  0  0  0
   34.2086  -19.2537   35.9236 C   0  0  0  0  0  0  0  0  0  0  0  0
   33.6319  -18.4166   34.9920 C   0  0  0  0  0  0  0  0  0  0  0  0
   32.3224  -18.4751   34.6275 C   0  0  0  0  0  0  0  0  0  0  0  0
   31.5256  -19.4352   35.2291 C   0  0  0  0  0  0  0  0  0  0  0  0
   32.0454  -20.3048   36.1699 C   0  0  0  0  0  0  0  0  0  0  0  0
   33.3660  -20.2115   36.5092 C   0  0  0  0  0  0  0  0  0  0  0  0
   30.0782  -19.5513   34.9170 C   0  0  0  0  0  0  0  0  0  0  0  0
   29.8927  -19.2740   33.5704 F   0  0  0  0  0  0  0  0  0  0  0  0
   29.6140  -20.8165   35.2562 F   0  0  0  0  0  0  0  0  0  0  0  0
   29.4227  -18.5913   35.6845 F   0  0  0  0  0  0  0  0  0  0  0  0
   40.4361  -21.2901   37.5001 C   0  0  0  0  0  0  0  0  0  0  0  0
   41.0819  -21.2626   38.9020 C   0  0  0  0  0  0  0  0  0  0  0  0
   40.9953  -20.2101   39.7420 O   0  0  0  0  0  0  0  0  0  0  0  0
   41.6912  -22.2785   39.2290 O   0  0  0  0  0  0  0  0  0  0  0  0
   41.5597  -19.3907   39.7597 H   0  0  0  0  0  0  0  0  0  0  0  0
   39.0924  -23.2540   36.7333 C   0  0  0  0  0  0  0  0  0  0  0  0
   40.4757  -22.6397   36.9714 C   0  0  0  0  0  0  0  0  0  0  0  0
   41.4601  -23.1484   35.9914 C   0  0  0  0  0  0  0  0  0  0  0  0
   40.9539  -23.4043   34.5668 C   0  0  0  0  0  0  0  0  0  0  0  0
   41.9195  -22.3040   34.8570 C   0  0  0  0  0  0  0  0  0  0  0  0
   41.5602  -21.0145   34.3242 C   0  0  0  0  0  0  0  0  0  0  0  0
   42.3559  -19.9057   34.6541 C   0  0  0  0  0  0  0  0  0  0  0  0
   42.0504  -18.6266   34.2145 C   0  0  0  0  0  0  0  0  0  0  0  0
   40.9368  -18.4396   33.4298 C   0  0  0  0  0  0  0  0  0  0  0  0
   40.1524  -19.5383   33.1019 C   0  0  0  0  0  0  0  0  0  0  0  0
   40.5222  -20.7250   33.5680 N   0  0  0  0  0  0  0  0  0  0  0  0
 24 25  1  0  0  0
 25 19  1  0  0  0
 19  1  1  0  0  0
  1  2  2  0  0  0
  1  3  1  0  0  0
  3  4  1  0  0  0
  4  5  1  0  0  0
  5  6  1  0  0  0
  6  7  1  0  0  0
  7  8  1  0  0  0
  6  9  1  0  0  0
  9 10  2  0  0  0
 10 11  1  0  0  0
 11 12  2  0  0  0
 12 13  1  0  0  0
 13 14  2  0  0  0
 12 15  1  0  0  0
 15 16  1  0  0  0
 15 17  1  0  0  0
 15 18  1  0  0  0
 19 20  1  0  0  0
 20 21  1  0  0  0
 20 22  2  0  0  0
 25 26  1  0  0  0
 26 27  1  0  0  0
 27 28  1  0  0  0
 28 29  1  0  0  0
 29 30  2  0  0  0
 30 31  1  0  0  0
 31 32  2  0  0  0
 32 33  1  0  0  0
 33 34  2  0  0  0
  8  3  1  0  0  0
 14  9  1  0  0  0
 28 26  1  0  0  0
 34 29  1  0  0  0
 21 23  1  0  0  0
M  END
> <minimizedAffinity>
-5.14829

> <CNNscore>
0.2349935621

> <CNNaffinity>
4.8519945145

> <CNN_VS>
1.1401875019

> <CNNaffinity_variance>
0.1967524290

$$$$
[H]OC(=O)[C@]([H])(C(=O)N1C([H])([H])C([H])([H])N(c2c([H])c([H])c(C(F)(F)F)c([H])c2[H])C([H])([H])C1([H])[H])[C@@]([H])(C([H])([H])[H])[C@@]1([H])C([H])([H])[C@@]1([H])c1nc([H])c([H])c([H])c1[H]


 34 37  0  0  0  0  0  0  0  0999 V2000
   32.2993  -21.7993   35.8019 C   0  0  0  0  0  0  0  0  0  0  0  0
   32.6130  -22.2441   36.9650 O   0  0  0  0  0  0  0  0  0  0  0  0
   32.9869  -20.6971   35.3296 N   0  0  0  0  0  0  0  0  0  0  0  0
   32.8938  -19.8920   34.1796 C   0  0  0  0  0  0  0  0  0  0  0  0
   33.1222  -18.3969   34.4284 C   0  0  0  0  0  0  0  0  0  0  0  0
   34.3161  -18.1808   35.2016 N   0  0  0  0  0  0  0  0  0  0  0  0
   35.0854  -19.3781   35.5581 C   0  0  0  0  0  0  0  0  0  0  0  0
   34.1560  -20.3183   36.2242 C   0  0  0  0  0  0  0  0  0  0  0  0
   34.7305  -16.8904   35.5803 C   0  0  0  0  0  0  0  0  0  0  0  0
   36.0313  -16.4918   35.8043 C   0  0  0  0  0  0  0  0  0  0  0  0
   36.3872  -15.2258   36.1530 C   0  0  0  0  0  0  0  0  0  0  0  0
   35.3800  -14.2846   36.2881 C   0  0  0  0  0  0  0  0  0  0  0  0
   34.0562  -14.6222   36.0758 C   0  0  0  0  0  0  0  0  0  0  0  0
   33.7410  -15.9058   35.7284 C   0  0  0  0  0  0  0  0  0  0  0  0
   35.6717  -12.8868   36.6971 C   0  0  0  0  0  0  0  0  0  0  0  0
   34.7783  -12.5223   37.6939 F   0  0  0  0  0  0  0  0  0  0  0  0
   36.9921  -12.7748   37.1158 F   0  0  0  0  0  0  0  0  0  0  0  0
   35.4678  -12.0881   35.5743 F   0  0  0  0  0  0  0  0  0  0  0  0
   31.1965  -22.6122   35.1483 C   0  0  0  0  0  0  0  0  0  0  0  0
   31.6368  -24.0041   35.6500 C   0  0  0  0  0  0  0  0  0  0  0  0
   31.8256  -24.3016   36.9526 O   0  0  0  0  0  0  0  0  0  0  0  0
   31.8056  -24.8560   34.7805 O   0  0  0  0  0  0  0  0  0  0  0  0
   32.6356  -24.1411   37.5079 H   0  0  0  0  0  0  0  0  0  0  0  0
   29.6756  -20.7393   35.8037 C   0  0  0  0  0  0  0  0  0  0  0  0
   29.9347  -22.2489   35.7635 C   0  0  0  0  0  0  0  0  0  0  0  0
   28.6687  -23.0031   35.6341 C   0  0  0  0  0  0  0  0  0  0  0  0
   28.4300  -24.1377   36.6376 C   0  0  0  0  0  0  0  0  0  0  0  0
   27.6032  -22.8955   36.6656 C   0  0  0  0  0  0  0  0  0  0  0  0
   27.4819  -22.2670   37.9563 C   0  0  0  0  0  0  0  0  0  0  0  0
   27.0981  -20.9175   38.0131 C   0  0  0  0  0  0  0  0  0  0  0  0
   27.0005  -20.2326   39.2147 C   0  0  0  0  0  0  0  0  0  0  0  0
   27.2850  -20.8957   40.3851 C   0  0  0  0  0  0  0  0  0  0  0  0
   27.6616  -22.2317   40.3273 C   0  0  0  0  0  0  0  0  0  0  0  0
   27.7282  -22.8055   39.1320 N   0  0  0  0  0  0  0  0  0  0  0  0
 24 25  1  0  0  0
 25 19  1  0  0  0
 19  1  1  0  0  0
  1  2  2  0  0  0
  1  3  1  0  0  0
  3  4  1  0  0  0
  4  5  1  0  0  0
  5  6  1  0  0  0
  6  7  1  0  0  0
  7  8  1  0  0  0
  6  9  1  0  0  0
  9 10  2  0  0  0
 10 11  1  0  0  0
 11 12  2  0  0  0
 12 13  1  0  0  0
 13 14  2  0  0  0
 12 15  1  0  0  0
 15 16  1  0  0  0
 15 17  1  0  0  0
 15 18  1  0  0  0
 19 20  1  0  0  0
 20 21  1  0  0  0
 20 22  2  0  0  0
 25 26  1  0  0  0
 26 27  1  0  0  0
 27 28  1  0  0  0
 28 29  1  0  0  0
 29 30  2  0  0  0
 30 31  1  0  0  0
 31 32  2  0  0  0
 32 33  1  0  0  0
 33 34  2  0  0  0
  8  3  1  0  0  0
 14  9  1  0  0  0
 28 26  1  0  0  0
 34 29  1  0  0  0
 21 23  1  0  0  0
M  END
> <minimizedAffinity>
-7.27498

> <CNNscore>
0.2200674862

> <CNNaffinity>
5.0217795372

> <CNN_VS>
1.1051304340

> <CNNaffinity_variance>
0.5001486540

$$$$
[H]OC(=O)[C@]([H])(C(=O)N1C([H])([H])C([H])([H])N(c2c([H])c([H])c(C(F)(F)F)c([H])c2[H])C([H])([H])C1([H])[H])[C@@]([H])(C([H])([H])[H])[C@@]1([H])C([H])([H])[C@@]1([H])c1nc([H])c([H])c([H])c1[H]


 34 37  0  0  0  0  0  0  0  0999 V2000
   36.0376  -19.0127   35.8357 C   0  0  0  0  0  0  0  0  0  0  0  0
   35.1801  -19.5828   36.6030 O   0  0  0  0  0  0  0  0  0  0  0  0
   37.3453  -19.4569   35.8933 N   0  0  0  0  0  0  0  0  0  0  0  0
   38.5524  -19.0575   35.2910 C   0  0  0  0  0  0  0  0  0  0  0  0
   39.7774  -19.1309   36.2094 C   0  0  0  0  0  0  0  0  0  0  0  0
   39.8461  -20.4048   36.8744 N   0  0  0  0  0  0  0  0  0  0  0  0
   38.7986  -21.3737   36.5329 C   0  0  0  0  0  0  0  0  0  0  0  0
   37.4940  -20.7070   36.7450 C   0  0  0  0  0  0  0  0  0  0  0  0
   40.8711  -20.7091   37.7892 C   0  0  0  0  0  0  0  0  0  0  0  0
   42.1204  -21.1981   37.4710 C   0  0  0  0  0  0  0  0  0  0  0  0
   43.0883  -21.4620   38.3900 C   0  0  0  0  0  0  0  0  0  0  0  0
   42.7975  -21.2222   39.7229 C   0  0  0  0  0  0  0  0  0  0  0  0
   41.5631  -20.7309   40.1055 C   0  0  0  0  0  0  0  0  0  0  0  0
   40.6178  -20.4806   39.1508 C   0  0  0  0  0  0  0  0  0  0  0  0
   43.7811  -21.5113   40.7975 C   0  0  0  0  0  0  0  0  0  0  0  0
   43.0885  -21.8099   41.9620 F   0  0  0  0  0  0  0  0  0  0  0  0
   44.6220  -22.5485   40.4122 F   0  0  0  0  0  0  0  0  0  0  0  0
   44.5265  -20.3496   40.9842 F   0  0  0  0  0  0  0  0  0  0  0  0
   35.4155  -17.9261   34.9774 C   0  0  0  0  0  0  0  0  0  0  0  0
   34.0268  -18.5746   34.7926 C   0  0  0  0  0  0  0  0  0  0  0  0
   32.9978  -18.3886   35.6454 O   0  0  0  0  0  0  0  0  0  0  0  0
   33.8974  -19.2842   33.7976 O   0  0  0  0  0  0  0  0  0  0  0  0
   32.8119  -18.8684   36.4972 H   0  0  0  0  0  0  0  0  0  0  0  0
   33.8887  -16.1058   35.7557 C   0  0  0  0  0  0  0  0  0  0  0  0
   35.2899  -16.7252   35.7802 C   0  0  0  0  0  0  0  0  0  0  0  0
   35.9533  -16.4899   37.0813 C   0  0  0  0  0  0  0  0  0  0  0  0
   37.0737  -15.4435   37.1109 C   0  0  0  0  0  0  0  0  0  0  0  0
   35.7771  -15.2063   37.8108 C   0  0  0  0  0  0  0  0  0  0  0  0
   35.1484  -13.9412   37.5279 C   0  0  0  0  0  0  0  0  0  0  0  0
   35.7609  -13.0777   36.6057 C   0  0  0  0  0  0  0  0  0  0  0  0
   35.2388  -11.8269   36.3132 C   0  0  0  0  0  0  0  0  0  0  0  0
   34.0854  -11.4221   36.9428 C   0  0  0  0  0  0  0  0  0  0  0  0
   33.4790  -12.2791   37.8527 C   0  0  0  0  0  0  0  0  0  0  0  0
   34.0505  -13.4574   38.0698 N   0  0  0  0  0  0  0  0  0  0  0  0
 24 25  1  0  0  0
 25 19  1  0  0  0
 19  1  1  0  0  0
  1  2  2  0  0  0
  1  3  1  0  0  0
  3  4  1  0  0  0
  4  5  1  0  0  0
  5  6  1  0  0  0
  6  7  1  0  0  0
  7  8  1  0  0  0
  6  9  1  0  0  0
  9 10  2  0  0  0
 10 11  1  0  0  0
 11 12  2  0  0  0
 12 13  1  0  0  0
 13 14  2  0  0  0
 12 15  1  0  0  0
 15 16  1  0  0  0
 15 17  1  0  0  0
 15 18  1  0  0  0
 19 20  1  0  0  0
 20 21  1  0  0  0
 20 22  2  0  0  0
 25 26  1  0  0  0
 26 27  1  0  0  0
 27 28  1  0  0  0
 28 29  1  0  0  0
 29 30  2  0  0  0
 30 31  1  0  0  0
 31 32  2  0  0  0
 32 33  1  0  0  0
 33 34  2  0  0  0
  8  3  1  0  0  0
 14  9  1  0  0  0
 28 26  1  0  0  0
 34 29  1  0  0  0
 21 23  1  0  0  0
M  END
> <minimizedAffinity>
-6.72200

> <CNNscore>
0.2120214999

> <CNNaffinity>
5.4066438675

> <CNN_VS>
1.1463247538

> <CNNaffinity_variance>
0.1315908432

$$$$
[H]OC(=O)[C@]([H])(C(=O)N1C([H])([H])C([H])([H])N(c2c([H])c([H])c(C(F)(F)F)c([H])c2[H])C([H])([H])C1([H])[H])[C@@]([H])(C([H])([H])[H])[C@@]1([H])C([H])([H])[C@@]1([H])c1nc([H])c([H])c([H])c1[H]


 34 37  0  0  0  0  0  0  0  0999 V2000
   39.1227  -20.7455   37.7899 C   0  0  0  0  0  0  0  0  0  0  0  0
   38.9846  -21.7213   38.6130 O   0  0  0  0  0  0  0  0  0  0  0  0
   37.9942  -20.0177   37.4622 N   0  0  0  0  0  0  0  0  0  0  0  0
   37.7227  -18.9609   36.5740 C   0  0  0  0  0  0  0  0  0  0  0  0
   36.3706  -19.0610   35.8591 C   0  0  0  0  0  0  0  0  0  0  0  0
   35.3119  -19.3274   36.7962 N   0  0  0  0  0  0  0  0  0  0  0  0
   35.6992  -19.4085   38.2089 C   0  0  0  0  0  0  0  0  0  0  0  0
   36.7928  -20.4010   38.3109 C   0  0  0  0  0  0  0  0  0  0  0  0
   33.9767  -19.4851   36.3808 C   0  0  0  0  0  0  0  0  0  0  0  0
   33.1540  -20.5480   36.6884 C   0  0  0  0  0  0  0  0  0  0  0  0
   31.8609  -20.6499   36.2779 C   0  0  0  0  0  0  0  0  0  0  0  0
   31.3439  -19.6217   35.5071 C   0  0  0  0  0  0  0  0  0  0  0  0
   32.1183  -18.5282   35.1661 C   0  0  0  0  0  0  0  0  0  0  0  0
   33.4135  -18.4654   35.5975 C   0  0  0  0  0  0  0  0  0  0  0  0
   29.9532  -19.6631   34.9874 C   0  0  0  0  0  0  0  0  0  0  0  0
   29.9747  -19.3332   33.6400 F   0  0  0  0  0  0  0  0  0  0  0  0
   29.3958  -20.9171   35.2069 F   0  0  0  0  0  0  0  0  0  0  0  0
   29.2320  -18.7011   35.6908 F   0  0  0  0  0  0  0  0  0  0  0  0
   40.5591  -20.5744   37.3294 C   0  0  0  0  0  0  0  0  0  0  0  0
   41.2395  -20.7186   38.7075 C   0  0  0  0  0  0  0  0  0  0  0  0
   41.6059  -21.9042   39.2375 O   0  0  0  0  0  0  0  0  0  0  0  0
   41.4439  -19.6696   39.3142 O   0  0  0  0  0  0  0  0  0  0  0  0
   41.0442  -22.5492   39.7462 H   0  0  0  0  0  0  0  0  0  0  0  0
   39.8393  -22.0644   35.4553 C   0  0  0  0  0  0  0  0  0  0  0  0
   40.9087  -21.7055   36.4922 C   0  0  0  0  0  0  0  0  0  0  0  0
   42.2647  -22.0116   35.9864 C   0  0  0  0  0  0  0  0  0  0  0  0
   42.6199  -21.4884   34.5895 C   0  0  0  0  0  0  0  0  0  0  0  0
   43.2780  -20.9377   35.8105 C   0  0  0  0  0  0  0  0  0  0  0  0
   43.2808  -19.5006   35.9121 C   0  0  0  0  0  0  0  0  0  0  0  0
   42.7625  -18.7505   34.8443 C   0  0  0  0  0  0  0  0  0  0  0  0
   42.7691  -17.3639   34.8505 C   0  0  0  0  0  0  0  0  0  0  0  0
   43.2960  -16.7046   35.9360 C   0  0  0  0  0  0  0  0  0  0  0  0
   43.8056  -17.4484   36.9930 C   0  0  0  0  0  0  0  0  0  0  0  0
   43.7570  -18.7717   36.8995 N   0  0  0  0  0  0  0  0  0  0  0  0
 24 25  1  0  0  0
 25 19  1  0  0  0
 19  1  1  0  0  0
  1  2  2  0  0  0
  1  3  1  0  0  0
  3  4  1  0  0  0
  4  5  1  0  0  0
  5  6  1  0  0  0
  6  7  1  0  0  0
  7  8  1  0  0  0
  6  9  1  0  0  0
  9 10  2  0  0  0
 10 11  1  0  0  0
 11 12  2  0  0  0
 12 13  1  0  0  0
 13 14  2  0  0  0
 12 15  1  0  0  0
 15 16  1  0  0  0
 15 17  1  0  0  0
 15 18  1  0  0  0
 19 20  1  0  0  0
 20 21  1  0  0  0
 20 22  2  0  0  0
 25 26  1  0  0  0
 26 27  1  0  0  0
 27 28  1  0  0  0
 28 29  1  0  0  0
 29 30  2  0  0  0
 30 31  1  0  0  0
 31 32  2  0  0  0
 32 33  1  0  0  0
 33 34  2  0  0  0
  8  3  1  0  0  0
 14  9  1  0  0  0
 28 26  1  0  0  0
 34 29  1  0  0  0
 21 23  1  0  0  0
M  END
> <minimizedAffinity>
-5.42929

> <CNNscore>
0.2105740458

> <CNNaffinity>
4.6282830238

> <CNN_VS>
0.9745962620

> <CNNaffinity_variance>
0.3500377834

$$$$
